14

C    -3.9445540715    0.2645577677    0.0173782809
C    -2.7003182917    -0.6160943809    0.0389045346
H    -4.8560506319    -0.3298366843    0.0381736039
H    -3.9700853156    0.8811900556    -0.8802996428
H    -3.9638026617    0.9330379321    0.8773083591
C    -1.4039338153    0.1860497313    0.0109689507
H    -2.7182354381    -1.296453076    -0.8148224168
H    -2.7122395288    -1.2453096182    0.9310940605
C    -0.1596997313    -0.6946145521    0.0320507218
H    -1.3858825225    0.8661675075    0.8648836787
H    -1.3921466736    0.8155177183    -0.8810455806
H    -0.1342806226    -1.3118706618    0.9293048614
H    0.7517990135    -0.1002047209    0.0117900697
H    -0.1403397088    -1.3624970182    -0.8283394812
