butane_opt
 OpenBabel08242015403D

 14 13  0  0  0  0  0  0  0  0999 V2000
   -3.9459    0.2534   -0.0025 C   0  0  0  0  0  0  0  0  0  0  0  0
   -2.7059   -0.6108    0.0498 C   0  0  0  0  0  0  0  0  0  0  0  0
   -4.8328   -0.3098    0.1690 H   0  0  0  0  0  0  0  0  0  0  0  0
   -4.0335    1.0212   -0.9857 H   0  0  0  0  0  0  0  0  0  0  0  0
   -3.9518    0.7646    0.7568 H   0  0  0  0  0  0  0  0  0  0  0  0
   -1.4055    0.2064    0.0410 C   0  0  0  0  0  0  0  0  0  0  0  0
   -2.7241   -1.3045   -0.8076 H   0  0  0  0  0  0  0  0  0  0  0  0
   -2.7583   -1.2230    0.9614 H   0  0  0  0  0  0  0  0  0  0  0  0
   -0.1498   -0.7080    0.0179 C   0  0  0  0  0  0  0  0  0  0  0  0
   -1.3893    0.9045    0.9099 H   0  0  0  0  0  0  0  0  0  0  0  0
   -1.3624    0.7730   -0.8070 H   0  0  0  0  0  0  0  0  0  0  0  0
   -0.0808   -1.2423    0.8355 H   0  0  0  0  0  0  0  0  0  0  0  0
    0.7354   -0.1122   -0.0158 H   0  0  0  0  0  0  0  0  0  0  0  0
   -0.1337   -1.4330   -0.8793 H   0  0  0  0  0  0  0  0  0  0  0  0
  1  2  1  0  0  0  0
  1  3  1  0  0  0  0
  1  5  1  0  0  0  0
  2  8  1  0  0  0  0
  4  1  1  0  0  0  0
  6  2  1  0  0  0  0
  6 10  1  0  0  0  0
  7  2  1  0  0  0  0
  9  6  1  0  0  0  0
  9 12  1  0  0  0  0
 11  6  1  0  0  0  0
 13  9  1  0  0  0  0
 14  9  1  0  0  0  0
M  END
$$$$
