14
butane_opt
C  -3.939659   0.240255   0.059069
C  -2.733763  -0.580266  -0.014090
H  -4.879317  -0.325837   0.129148
H  -4.027997   0.903829  -0.892619
H  -3.884369   0.929003   0.908651
C  -1.402016   0.195763  -0.013161
H  -2.757637  -1.332168  -0.914643
H  -2.726509  -1.233502   0.882826
C  -0.130143  -0.709783   0.058497
H  -1.342581   0.885937   0.809545
H  -1.444476   0.832262  -0.915626
H  -0.138739  -1.435395   1.036299
H   0.757090  -0.131791   0.071554
H  -0.100073  -1.317666  -0.739244
