14
butane_opt
C  -3.955592   0.258117  -0.034379
C  -2.727104  -0.597822   0.103860
H  -4.911905  -0.407538   0.114651
H  -3.956146   0.995229  -1.025595
H  -3.911215   0.761084   0.787075
C  -1.411564   0.220490   0.041385
H  -2.698089  -1.231030  -0.687706
H  -2.790479  -1.299871   1.002084
C  -0.117762  -0.715243  -0.017484
H  -1.328644   0.880273   0.915599
H  -1.413660   0.746050  -0.767353
H  -0.214681  -1.135537   0.770046
H   0.764447  -0.146992   0.195356
H  -0.010931  -1.620137  -1.025159
