14
butane_opt
C  -3.933176   0.267794   0.084558
C  -2.673069  -0.648267  -0.007860
H  -4.787515  -0.252958   0.033799
H  -3.949706   0.916060  -0.776172
H  -3.962180   0.963433   0.969560
C  -1.420802   0.178517  -0.067661
H  -2.724227  -1.306629  -0.874616
H  -2.663838  -1.179674   0.840120
C  -0.185154  -0.685632   0.089348
H  -1.460477   0.803514   0.737229
H  -1.346939   0.890762  -1.028521
H  -0.325992  -1.203798   0.949241
H   0.795514  -0.032578   0.210829
H  -0.062512  -1.420287  -0.813409
