butane_opt
 OpenBabel08242015383D

 14 13  0  0  0  0  0  0  0  0999 V2000
   -3.9259    0.2478   -0.0416 C   0  0  0  0  0  0  0  0  0  0  0  0
   -2.7035   -0.5973    0.1106 C   0  0  0  0  0  0  0  0  0  0  0  0
   -4.8512   -0.3551   -0.1637 H   0  0  0  0  0  0  0  0  0  0  0  0
   -3.7811    0.7973   -0.8815 H   0  0  0  0  0  0  0  0  0  0  0  0
   -4.0412    0.8987    0.7789 H   0  0  0  0  0  0  0  0  0  0  0  0
   -1.4355    0.2091    0.0699 C   0  0  0  0  0  0  0  0  0  0  0  0
   -2.6528   -1.2435   -0.6710 H   0  0  0  0  0  0  0  0  0  0  0  0
   -2.8680   -1.2915    1.1030 H   0  0  0  0  0  0  0  0  0  0  0  0
   -0.1379   -0.7071   -0.0463 C   0  0  0  0  0  0  0  0  0  0  0  0
   -1.3523    1.0004    0.9809 H   0  0  0  0  0  0  0  0  0  0  0  0
   -1.5365    0.7899   -0.7476 H   0  0  0  0  0  0  0  0  0  0  0  0
   -0.0689   -1.3963    0.8734 H   0  0  0  0  0  0  0  0  0  0  0  0
    0.7437   -0.1630   -0.0387 H   0  0  0  0  0  0  0  0  0  0  0  0
   -0.1797   -1.3509   -0.8868 H   0  0  0  0  0  0  0  0  0  0  0  0
  1  2  1  0  0  0  0
  1  5  1  0  0  0  0
  2  8  1  0  0  0  0
  3  1  1  0  0  0  0
  4  1  1  0  0  0  0
  6  2  1  0  0  0  0
  6 10  1  0  0  0  0
  7  2  1  0  0  0  0
  9 13  1  0  0  0  0
  9  6  1  0  0  0  0
  9 12  1  0  0  0  0
 11  6  1  0  0  0  0
 14  9  1  0  0  0  0
M  END
$$$$
