butane_opt
 OpenBabel08242015383D

 14 13  0  0  0  0  0  0  0  0999 V2000
   -3.9258    0.2419    0.0529 C   0  0  0  0  0  0  0  0  0  0  0  0
   -2.6979   -0.5948    0.0098 C   0  0  0  0  0  0  0  0  0  0  0  0
   -4.8087   -0.3188   -0.1369 H   0  0  0  0  0  0  0  0  0  0  0  0
   -3.8354    0.6942   -0.7197 H   0  0  0  0  0  0  0  0  0  0  0  0
   -4.0056    1.1936    1.1014 H   0  0  0  0  0  0  0  0  0  0  0  0
   -1.4179    0.1882   -0.0298 C   0  0  0  0  0  0  0  0  0  0  0  0
   -2.7655   -1.2537   -0.8527 H   0  0  0  0  0  0  0  0  0  0  0  0
   -2.7128   -1.1946    0.8741 H   0  0  0  0  0  0  0  0  0  0  0  0
   -0.1721   -0.7052    0.0695 C   0  0  0  0  0  0  0  0  0  0  0  0
   -1.4771    0.7144    0.7214 H   0  0  0  0  0  0  0  0  0  0  0  0
   -1.3063    0.8993   -0.9973 H   0  0  0  0  0  0  0  0  0  0  0  0
   -0.1405   -1.3733    1.0226 H   0  0  0  0  0  0  0  0  0  0  0  0
    0.7838   -0.1217   -0.0499 H   0  0  0  0  0  0  0  0  0  0  0  0
   -0.1860   -1.2685   -0.7228 H   0  0  0  0  0  0  0  0  0  0  0  0
  1  5  1  0  0  0  0
  2  1  1  0  0  0  0
  2  8  1  0  0  0  0
  3  1  1  0  0  0  0
  4  1  1  0  0  0  0
  6  2  1  0  0  0  0
  6  9  1  0  0  0  0
  6 10  1  0  0  0  0
  7  2  1  0  0  0  0
  9 12  1  0  0  0  0
 11  6  1  0  0  0  0
 13  9  1  0  0  0  0
 14  9  1  0  0  0  0
M  END
$$$$
