butane_opt
 OpenBabel08242015383D

 14 13  0  0  0  0  0  0  0  0999 V2000
   -3.9211    0.2418    0.0418 C   0  0  0  0  0  0  0  0  0  0  0  0
   -2.7030   -0.5933   -0.0027 C   0  0  0  0  0  0  0  0  0  0  0  0
   -4.8073   -0.3175    0.0139 H   0  0  0  0  0  0  0  0  0  0  0  0
   -3.8982    0.7877   -0.7978 H   0  0  0  0  0  0  0  0  0  0  0  0
   -3.9845    0.9677    0.9563 H   0  0  0  0  0  0  0  0  0  0  0  0
   -1.4189    0.2094    0.0081 C   0  0  0  0  0  0  0  0  0  0  0  0
   -2.7315   -1.3270   -0.9217 H   0  0  0  0  0  0  0  0  0  0  0  0
   -2.7710   -1.1232    0.8552 H   0  0  0  0  0  0  0  0  0  0  0  0
   -0.1748   -0.7149    0.0588 C   0  0  0  0  0  0  0  0  0  0  0  0
   -1.4002    0.8363    0.8305 H   0  0  0  0  0  0  0  0  0  0  0  0
   -1.3441    0.8628   -0.8688 H   0  0  0  0  0  0  0  0  0  0  0  0
   -0.0214   -1.5592    1.1018 H   0  0  0  0  0  0  0  0  0  0  0  0
    0.7714   -0.1196   -0.2537 H   0  0  0  0  0  0  0  0  0  0  0  0
   -0.2200   -1.1945   -0.7165 H   0  0  0  0  0  0  0  0  0  0  0  0
  1  5  1  0  0  0  0
  2  6  1  0  0  0  0
  2  1  1  0  0  0  0
  2  8  1  0  0  0  0
  3  1  1  0  0  0  0
  4  1  1  0  0  0  0
  6  9  1  0  0  0  0
  6 10  1  0  0  0  0
  7  2  1  0  0  0  0
  9 12  1  0  0  0  0
 11  6  1  0  0  0  0
 13  9  1  0  0  0  0
 14  9  1  0  0  0  0
M  END
$$$$
