14
butane_opt
C  -3.913051   0.243502   0.002657
C  -2.712202  -0.591863   0.060363
H  -4.885055  -0.388691  -0.042619
H  -3.849444   0.829624  -0.841388
H  -4.035898   0.998615   0.857633
C  -1.411423   0.222233   0.018457
H  -2.664393  -1.262128  -0.749967
H  -2.774552  -1.335124   1.015313
C  -0.164263  -0.721195   0.011288
H  -1.421112   0.885091   0.867012
H  -1.409808   0.826105  -0.828482
H  -0.123995  -1.302539   0.903883
H   0.743417  -0.131375   0.015662
H  -0.172791  -1.434538  -0.862493
