butane_opt
 OpenBabel08242015383D

 14 13  0  0  0  0  0  0  0  0999 V2000
   -3.9397    0.3013    0.0614 C   0  0  0  0  0  0  0  0  0  0  0  0
   -2.6832   -0.6363    0.0143 C   0  0  0  0  0  0  0  0  0  0  0  0
   -4.9168   -0.3276    0.0722 H   0  0  0  0  0  0  0  0  0  0  0  0
   -3.9815    0.8566   -0.8543 H   0  0  0  0  0  0  0  0  0  0  0  0
   -3.9433    0.9579    0.9105 H   0  0  0  0  0  0  0  0  0  0  0  0
   -1.3927    0.1469   -0.0661 C   0  0  0  0  0  0  0  0  0  0  0  0
   -2.7727   -1.3323   -0.8401 H   0  0  0  0  0  0  0  0  0  0  0  0
   -2.6027   -1.3272    0.9496 H   0  0  0  0  0  0  0  0  0  0  0  0
   -0.1852   -0.6703    0.0789 C   0  0  0  0  0  0  0  0  0  0  0  0
   -1.4050    0.8670    0.8027 H   0  0  0  0  0  0  0  0  0  0  0  0
   -1.3562    0.7642   -0.9421 H   0  0  0  0  0  0  0  0  0  0  0  0
   -0.3358   -1.1360    0.9080 H   0  0  0  0  0  0  0  0  0  0  0  0
    0.7192   -0.0344    0.2115 H   0  0  0  0  0  0  0  0  0  0  0  0
   -0.0285   -1.4630   -0.8645 H   0  0  0  0  0  0  0  0  0  0  0  0
  1  3  1  0  0  0  0
  1  5  1  0  0  0  0
  2  1  1  0  0  0  0
  2  8  1  0  0  0  0
  4  1  1  0  0  0  0
  6  2  1  0  0  0  0
  6  9  1  0  0  0  0
  6 10  1  0  0  0  0
  7  2  1  0  0  0  0
  9 13  1  0  0  0  0
  9 12  1  0  0  0  0
 11  6  1  0  0  0  0
 14  9  1  0  0  0  0
M  END
$$$$
