butane_opt
 OpenBabel08242015383D

 14 13  0  0  0  0  0  0  0  0999 V2000
   -3.9332    0.2472   -0.0435 C   0  0  0  0  0  0  0  0  0  0  0  0
   -2.6952   -0.5786    0.0922 C   0  0  0  0  0  0  0  0  0  0  0  0
   -4.9473   -0.4009   -0.0335 H   0  0  0  0  0  0  0  0  0  0  0  0
   -3.7836    0.8725   -0.9765 H   0  0  0  0  0  0  0  0  0  0  0  0
   -3.9515    0.8584    0.7687 H   0  0  0  0  0  0  0  0  0  0  0  0
   -1.4085    0.1988    0.0735 C   0  0  0  0  0  0  0  0  0  0  0  0
   -2.7400   -1.2438   -0.7301 H   0  0  0  0  0  0  0  0  0  0  0  0
   -2.7692   -1.2442    1.0439 H   0  0  0  0  0  0  0  0  0  0  0  0
   -0.1620   -0.7214   -0.0252 C   0  0  0  0  0  0  0  0  0  0  0  0
   -1.2919    1.0449    1.0472 H   0  0  0  0  0  0  0  0  0  0  0  0
   -1.5053    0.7391   -0.6964 H   0  0  0  0  0  0  0  0  0  0  0  0
   -0.0548   -1.3937    0.9259 H   0  0  0  0  0  0  0  0  0  0  0  0
    0.7101   -0.1660   -0.2341 H   0  0  0  0  0  0  0  0  0  0  0  0
   -0.2849   -1.3102   -0.8371 H   0  0  0  0  0  0  0  0  0  0  0  0
  1  3  1  0  0  0  0
  1  2  1  0  0  0  0
  1  5  1  0  0  0  0
  2  8  1  0  0  0  0
  4  1  1  0  0  0  0
  6  2  1  0  0  0  0
  6 10  1  0  0  0  0
  7  2  1  0  0  0  0
  9  6  1  0  0  0  0
  9 12  1  0  0  0  0
 11  6  1  0  0  0  0
 13  9  1  0  0  0  0
 14  9  1  0  0  0  0
M  END
$$$$
