butane_opt
 OpenBabel08242015383D

 14 13  0  0  0  0  0  0  0  0999 V2000
   -3.9643    0.2876   -0.0416 C   0  0  0  0  0  0  0  0  0  0  0  0
   -2.7106   -0.6507    0.0779 C   0  0  0  0  0  0  0  0  0  0  0  0
   -4.8379   -0.3074    0.0537 H   0  0  0  0  0  0  0  0  0  0  0  0
   -4.0402    0.9432   -0.9929 H   0  0  0  0  0  0  0  0  0  0  0  0
   -3.9925    0.9454    0.8027 H   0  0  0  0  0  0  0  0  0  0  0  0
   -1.3723    0.1731    0.0771 C   0  0  0  0  0  0  0  0  0  0  0  0
   -2.6422   -1.2654   -0.7159 H   0  0  0  0  0  0  0  0  0  0  0  0
   -2.7745   -1.3112    1.0376 H   0  0  0  0  0  0  0  0  0  0  0  0
   -0.1540   -0.6744   -0.0151 C   0  0  0  0  0  0  0  0  0  0  0  0
   -1.3585    0.9338    1.0059 H   0  0  0  0  0  0  0  0  0  0  0  0
   -1.3617    0.7203   -0.7508 H   0  0  0  0  0  0  0  0  0  0  0  0
   -0.0629   -1.2823    0.8779 H   0  0  0  0  0  0  0  0  0  0  0  0
    0.6767   -0.1612   -0.2054 H   0  0  0  0  0  0  0  0  0  0  0  0
   -0.2124   -1.3115   -0.8656 H   0  0  0  0  0  0  0  0  0  0  0  0
  1  3  1  0  0  0  0
  1  2  1  0  0  0  0
  1  5  1  0  0  0  0
  2  8  1  0  0  0  0
  4  1  1  0  0  0  0
  6  2  1  0  0  0  0
  6 10  1  0  0  0  0
  7  2  1  0  0  0  0
  9  6  1  0  0  0  0
  9 12  1  0  0  0  0
 11  6  1  0  0  0  0
 13  9  1  0  0  0  0
 14  9  1  0  0  0  0
M  END
$$$$
