butane_opt
 OpenBabel08242015383D

 14 13  0  0  0  0  0  0  0  0999 V2000
   -3.9720    0.2857    0.0734 C   0  0  0  0  0  0  0  0  0  0  0  0
   -2.6910   -0.6454   -0.0046 C   0  0  0  0  0  0  0  0  0  0  0  0
   -4.7996   -0.2631    0.0820 H   0  0  0  0  0  0  0  0  0  0  0  0
   -4.0559    0.9005   -0.8044 H   0  0  0  0  0  0  0  0  0  0  0  0
   -3.8966    0.9870    0.9586 H   0  0  0  0  0  0  0  0  0  0  0  0
   -1.3863    0.1602   -0.0751 C   0  0  0  0  0  0  0  0  0  0  0  0
   -2.7904   -1.3584   -0.8873 H   0  0  0  0  0  0  0  0  0  0  0  0
   -2.6178   -1.2790    0.9142 H   0  0  0  0  0  0  0  0  0  0  0  0
   -0.1697   -0.6587    0.0899 C   0  0  0  0  0  0  0  0  0  0  0  0
   -1.4573    0.8587    0.7800 H   0  0  0  0  0  0  0  0  0  0  0  0
   -1.2801    0.7819   -0.9837 H   0  0  0  0  0  0  0  0  0  0  0  0
   -0.2546   -1.2722    0.9777 H   0  0  0  0  0  0  0  0  0  0  0  0
    0.7285   -0.0609    0.2191 H   0  0  0  0  0  0  0  0  0  0  0  0
    0.0022   -1.4559   -0.8406 H   0  0  0  0  0  0  0  0  0  0  0  0
  1  3  1  0  0  0  0
  1  5  1  0  0  0  0
  2  1  1  0  0  0  0
  2  8  1  0  0  0  0
  4  1  1  0  0  0  0
  6  2  1  0  0  0  0
  6  9  1  0  0  0  0
  6 10  1  0  0  0  0
  7  2  1  0  0  0  0
  9 13  1  0  0  0  0
  9 12  1  0  0  0  0
 11  6  1  0  0  0  0
 14  9  1  0  0  0  0
M  END
$$$$
