14
butane_opt
C  -3.955541   0.279099   0.086260
C  -2.715357  -0.644828  -0.037274
H  -4.802546  -0.277648   0.277909
H  -4.131863   1.043672  -0.859079
H  -3.911726   0.848761   0.918270
C  -1.380196   0.173643  -0.055431
H  -2.721164  -1.416850  -1.003547
H  -2.608196  -1.115084   0.743458
C  -0.160386  -0.673880   0.104943
H  -1.374891   0.810487   0.766026
H  -1.279187   0.804688  -0.957736
H  -0.255955  -1.294180   1.006551
H   0.687885  -0.162487   0.059251
H  -0.076985  -1.319694  -0.707097
