14
butane_opt
C  -3.947115   0.278112   0.061830
C  -2.720145  -0.620736  -0.007954
H  -4.841817  -0.281796   0.095528
H  -4.093687   0.793186  -0.787859
H  -3.913378   1.075218   0.999283
C  -1.390852   0.149936  -0.048698
H  -2.749895  -1.294735  -0.851929
H  -2.643624  -1.274446   0.927890
C  -0.160188  -0.684919   0.080626
H  -1.412315   0.745914   0.734522
H  -1.328296   0.915541  -1.056247
H  -0.302403  -1.149319   0.896781
H   0.831579  -0.067856   0.226775
H   0.042601  -1.395057  -0.781733
