butane_opt
 OpenBabel08242015383D

 14 13  0  0  0  0  0  0  0  0999 V2000
   -3.9152    0.2371    0.0099 C   0  0  0  0  0  0  0  0  0  0  0  0
   -2.7033   -0.6023    0.0243 C   0  0  0  0  0  0  0  0  0  0  0  0
   -4.8705   -0.3799    0.3153 H   0  0  0  0  0  0  0  0  0  0  0  0
   -3.9998    0.9958   -0.9486 H   0  0  0  0  0  0  0  0  0  0  0  0
   -3.8261    0.7932    0.8278 H   0  0  0  0  0  0  0  0  0  0  0  0
   -1.4271    0.2174    0.0074 C   0  0  0  0  0  0  0  0  0  0  0  0
   -2.6545   -1.2748   -0.8153 H   0  0  0  0  0  0  0  0  0  0  0  0
   -2.6618   -1.1583    0.9134 H   0  0  0  0  0  0  0  0  0  0  0  0
   -0.1697   -0.7110    0.0268 C   0  0  0  0  0  0  0  0  0  0  0  0
   -1.4157    0.9840    0.9303 H   0  0  0  0  0  0  0  0  0  0  0  0
   -1.4082    0.7902   -0.8345 H   0  0  0  0  0  0  0  0  0  0  0  0
   -0.2295   -1.3393    0.9625 H   0  0  0  0  0  0  0  0  0  0  0  0
    0.7136   -0.1845    0.1139 H   0  0  0  0  0  0  0  0  0  0  0  0
   -0.0678   -1.4104   -0.8599 H   0  0  0  0  0  0  0  0  0  0  0  0
  1  2  1  0  0  0  0
  1  3  1  0  0  0  0
  1  5  1  0  0  0  0
  2  8  1  0  0  0  0
  4  1  1  0  0  0  0
  6  2  1  0  0  0  0
  6  9  1  0  0  0  0
  6 10  1  0  0  0  0
  7  2  1  0  0  0  0
  9 13  1  0  0  0  0
  9 12  1  0  0  0  0
 11  6  1  0  0  0  0
 14  9  1  0  0  0  0
M  END
$$$$
