butane_opt
 OpenBabel08242015383D

 14 13  0  0  0  0  0  0  0  0999 V2000
   -3.9131    0.2435    0.0027 C   0  0  0  0  0  0  0  0  0  0  0  0
   -2.7122   -0.5919    0.0604 C   0  0  0  0  0  0  0  0  0  0  0  0
   -4.8851   -0.3887   -0.0426 H   0  0  0  0  0  0  0  0  0  0  0  0
   -3.8494    0.8296   -0.8414 H   0  0  0  0  0  0  0  0  0  0  0  0
   -4.0359    0.9986    0.8576 H   0  0  0  0  0  0  0  0  0  0  0  0
   -1.4114    0.2222    0.0185 C   0  0  0  0  0  0  0  0  0  0  0  0
   -2.6644   -1.2621   -0.7500 H   0  0  0  0  0  0  0  0  0  0  0  0
   -2.7746   -1.3351    1.0153 H   0  0  0  0  0  0  0  0  0  0  0  0
   -0.1643   -0.7212    0.0113 C   0  0  0  0  0  0  0  0  0  0  0  0
   -1.4211    0.8851    0.8670 H   0  0  0  0  0  0  0  0  0  0  0  0
   -1.4098    0.8261   -0.8285 H   0  0  0  0  0  0  0  0  0  0  0  0
   -0.1240   -1.3025    0.9039 H   0  0  0  0  0  0  0  0  0  0  0  0
    0.7434   -0.1314    0.0157 H   0  0  0  0  0  0  0  0  0  0  0  0
   -0.1728   -1.4345   -0.8625 H   0  0  0  0  0  0  0  0  0  0  0  0
  1  2  1  0  0  0  0
  1  5  1  0  0  0  0
  2  8  1  0  0  0  0
  3  1  1  0  0  0  0
  4  1  1  0  0  0  0
  6  2  1  0  0  0  0
  6 10  1  0  0  0  0
  7  2  1  0  0  0  0
  9 13  1  0  0  0  0
  9  6  1  0  0  0  0
  9 12  1  0  0  0  0
 11  6  1  0  0  0  0
 14  9  1  0  0  0  0
M  END
$$$$
