14
butane_opt
C  -3.965699   0.283169   0.057292
C  -2.704346  -0.637317  -0.021635
H  -4.877983  -0.301751   0.212450
H  -4.121934   0.828960  -0.749991
H  -3.878730   1.040415   1.031132
C  -1.391423   0.164105  -0.063707
H  -2.768169  -1.356351  -0.883075
H  -2.641729  -1.290469   0.888456
C  -0.130119  -0.674869   0.094189
H  -1.444817   0.817277   0.771252
H  -1.401995   0.858380  -1.044462
H  -0.303346  -1.212042   0.966319
H   0.771020  -0.114553   0.209808
H  -0.058328  -1.357241  -0.751252
