14
butane_opt
C  -3.956905   0.285297   0.053491
C  -2.704201  -0.626555  -0.023628
H  -4.864216  -0.257003   0.245388
H  -4.033456   0.896633  -0.831498
H  -3.866833   0.893386   0.883729
C  -1.401001   0.153816  -0.027166
H  -2.771356  -1.390667  -0.914315
H  -2.672845  -1.208815   0.852444
C  -0.152165  -0.679876   0.074018
H  -1.320600   0.900250   0.854279
H  -1.378415   0.810164  -0.914034
H  -0.201270  -1.371098   1.033406
H   0.784258  -0.045531   0.009801
H  -0.142816  -1.282456  -0.690613
