14
butane_opt
C  -3.954115   0.242115   0.036994
C  -2.734079  -0.576981  -0.003006
H  -4.864899  -0.305568   0.185072
H  -3.979235   0.899547  -0.883836
H  -3.862233   0.833650   0.881970
C  -1.401321   0.198415  -0.001703
H  -2.768212  -1.322058  -0.879699
H  -2.721204  -1.211954   0.891460
C  -0.132746  -0.716831   0.070425
H  -1.388000   0.836164   0.855617
H  -1.364925   0.898286  -0.932322
H  -0.053116  -1.290873   0.935621
H   0.761526  -0.153981  -0.030095
H  -0.117579  -1.412399  -0.827167
