butane_opt
 OpenBabel08242015383D

 14 13  0  0  0  0  0  0  0  0999 V2000
   -3.9540    0.2691    0.0491 C   0  0  0  0  0  0  0  0  0  0  0  0
   -2.7109   -0.6323    0.0067 C   0  0  0  0  0  0  0  0  0  0  0  0
   -4.7669   -0.2258    0.0892 H   0  0  0  0  0  0  0  0  0  0  0  0
   -4.0242    0.8311   -0.7869 H   0  0  0  0  0  0  0  0  0  0  0  0
   -3.9794    0.9961    0.9708 H   0  0  0  0  0  0  0  0  0  0  0  0
   -1.3905    0.1809   -0.0454 C   0  0  0  0  0  0  0  0  0  0  0  0
   -2.7168   -1.3228   -0.8745 H   0  0  0  0  0  0  0  0  0  0  0  0
   -2.6704   -1.2784    0.8904 H   0  0  0  0  0  0  0  0  0  0  0  0
   -0.1635   -0.6874    0.0709 C   0  0  0  0  0  0  0  0  0  0  0  0
   -1.3052    0.8873    0.8002 H   0  0  0  0  0  0  0  0  0  0  0  0
   -1.4140    0.8265   -0.9283 H   0  0  0  0  0  0  0  0  0  0  0  0
   -0.2426   -1.3206    1.0074 H   0  0  0  0  0  0  0  0  0  0  0  0
    0.7627   -0.0844    0.1252 H   0  0  0  0  0  0  0  0  0  0  0  0
   -0.0481   -1.3409   -0.8120 H   0  0  0  0  0  0  0  0  0  0  0  0
  1  3  1  0  0  0  0
  1  5  1  0  0  0  0
  2  1  1  0  0  0  0
  2  8  1  0  0  0  0
  4  1  1  0  0  0  0
  6  2  1  0  0  0  0
  6  9  1  0  0  0  0
  6 10  1  0  0  0  0
  7  2  1  0  0  0  0
  9 13  1  0  0  0  0
  9 12  1  0  0  0  0
 11  6  1  0  0  0  0
 14  9  1  0  0  0  0
M  END
$$$$
