14
butane_opt
C  -3.954230   0.276093   0.044419
C  -2.701854  -0.634095   0.046379
H  -4.810901  -0.272216  -0.132656
H  -3.913326   0.760385  -0.794798
H  -4.106677   1.108728   0.958137
C  -1.384880   0.166778  -0.032953
H  -2.736685  -1.370075  -0.848290
H  -2.646652  -1.225280   0.896358
C  -0.181603  -0.685332   0.062955
H  -1.280444   0.853244   0.772626
H  -1.374524   0.910319  -1.007391
H  -0.178922  -1.258189   0.925722
H   0.781884  -0.088454   0.023522
H  -0.089883  -1.372501  -0.785875
