butane_opt
 OpenBabel08242015383D

 14 13  0  0  0  0  0  0  0  0999 V2000
   -3.9049    0.2436    0.0559 C   0  0  0  0  0  0  0  0  0  0  0  0
   -2.7040   -0.5931    0.0064 C   0  0  0  0  0  0  0  0  0  0  0  0
   -4.8385   -0.3887   -0.0531 H   0  0  0  0  0  0  0  0  0  0  0  0
   -3.9839    0.6471   -0.6831 H   0  0  0  0  0  0  0  0  0  0  0  0
   -3.9404    1.0784    1.0357 H   0  0  0  0  0  0  0  0  0  0  0  0
   -1.4463    0.2039   -0.0627 C   0  0  0  0  0  0  0  0  0  0  0  0
   -2.7090   -1.2671   -0.8359 H   0  0  0  0  0  0  0  0  0  0  0  0
   -2.7635   -1.2376    0.9073 H   0  0  0  0  0  0  0  0  0  0  0  0
   -0.1510   -0.7165    0.0792 C   0  0  0  0  0  0  0  0  0  0  0  0
   -1.4311    0.8864    0.7927 H   0  0  0  0  0  0  0  0  0  0  0  0
   -1.3890    0.9285   -0.9714 H   0  0  0  0  0  0  0  0  0  0  0  0
   -0.1940   -1.3141    1.0250 H   0  0  0  0  0  0  0  0  0  0  0  0
    0.7288   -0.1486    0.0323 H   0  0  0  0  0  0  0  0  0  0  0  0
   -0.0133   -1.3335   -0.7398 H   0  0  0  0  0  0  0  0  0  0  0  0
  1  5  1  0  0  0  0
  2  1  1  0  0  0  0
  2  8  1  0  0  0  0
  3  1  1  0  0  0  0
  4  1  1  0  0  0  0
  6  2  1  0  0  0  0
  6  9  1  0  0  0  0
  6 10  1  0  0  0  0
  7  2  1  0  0  0  0
  9 12  1  0  0  0  0
 11  6  1  0  0  0  0
 13  9  1  0  0  0  0
 14  9  1  0  0  0  0
M  END
$$$$
