14
butane_opt
C  -3.928919   0.280343   0.021453
C  -2.687439  -0.629231   0.049185
H  -4.798386  -0.266818  -0.149447
H  -4.003405   0.678512  -0.746821
H  -4.042850   1.154028   1.045983
C  -1.403849   0.163492  -0.008583
H  -2.658712  -1.343758  -0.803634
H  -2.725059  -1.224985   0.878426
C  -0.184595  -0.679770   0.046836
H  -1.355593   0.757427   0.750240
H  -1.330761   0.863435  -0.988994
H  -0.173119  -1.397188   1.000431
H   0.806234  -0.018129  -0.007074
H  -0.285905  -1.283002  -0.804797
