butane_opt
 OpenBabel08242015383D

 14 13  0  0  0  0  0  0  0  0999 V2000
   -3.9535    0.2697    0.0568 C   0  0  0  0  0  0  0  0  0  0  0  0
   -2.6925   -0.6433    0.0062 C   0  0  0  0  0  0  0  0  0  0  0  0
   -4.8530   -0.2841   -0.0692 H   0  0  0  0  0  0  0  0  0  0  0  0
   -4.0363    0.8163   -0.7760 H   0  0  0  0  0  0  0  0  0  0  0  0
   -4.1022    1.0979    0.9807 H   0  0  0  0  0  0  0  0  0  0  0  0
   -1.3998    0.1835   -0.0279 C   0  0  0  0  0  0  0  0  0  0  0  0
   -2.7330   -1.3463   -0.8844 H   0  0  0  0  0  0  0  0  0  0  0  0
   -2.7452   -1.1836    0.8384 H   0  0  0  0  0  0  0  0  0  0  0  0
   -0.1454   -0.6805    0.0665 C   0  0  0  0  0  0  0  0  0  0  0  0
   -1.4030    0.8708    0.8168 H   0  0  0  0  0  0  0  0  0  0  0  0
   -1.3650    0.7324   -0.9266 H   0  0  0  0  0  0  0  0  0  0  0  0
   -0.0567   -1.4870    1.1006 H   0  0  0  0  0  0  0  0  0  0  0  0
    0.7870   -0.0961   -0.1146 H   0  0  0  0  0  0  0  0  0  0  0  0
   -0.2200   -1.1412   -0.7029 H   0  0  0  0  0  0  0  0  0  0  0  0
  1  5  1  0  0  0  0
  2  1  1  0  0  0  0
  2  8  1  0  0  0  0
  3  1  1  0  0  0  0
  4  1  1  0  0  0  0
  6  2  1  0  0  0  0
  6  9  1  0  0  0  0
  6 10  1  0  0  0  0
  7  2  1  0  0  0  0
  9 12  1  0  0  0  0
 11  6  1  0  0  0  0
 13  9  1  0  0  0  0
 14  9  1  0  0  0  0
M  END
$$$$
