butane_opt
 OpenBabel08242015383D

 14 13  0  0  0  0  0  0  0  0999 V2000
   -3.9471    0.2605   -0.0021 C   0  0  0  0  0  0  0  0  0  0  0  0
   -2.6862   -0.6082    0.0809 C   0  0  0  0  0  0  0  0  0  0  0  0
   -4.9108   -0.3732   -0.1837 H   0  0  0  0  0  0  0  0  0  0  0  0
   -3.7753    0.7345   -0.7961 H   0  0  0  0  0  0  0  0  0  0  0  0
   -4.0718    1.0404    0.8969 H   0  0  0  0  0  0  0  0  0  0  0  0
   -1.4115    0.1941    0.0245 C   0  0  0  0  0  0  0  0  0  0  0  0
   -2.6833   -1.2504   -0.7721 H   0  0  0  0  0  0  0  0  0  0  0  0
   -2.7396   -1.2358    0.9524 H   0  0  0  0  0  0  0  0  0  0  0  0
   -0.1689   -0.7025    0.0028 C   0  0  0  0  0  0  0  0  0  0  0  0
   -1.3202    0.8191    0.8358 H   0  0  0  0  0  0  0  0  0  0  0  0
   -1.5225    0.8525   -0.8420 H   0  0  0  0  0  0  0  0  0  0  0  0
   -0.0876   -1.3764    0.9532 H   0  0  0  0  0  0  0  0  0  0  0  0
    0.8058   -0.0476   -0.0282 H   0  0  0  0  0  0  0  0  0  0  0  0
   -0.1598   -1.3691   -0.8167 H   0  0  0  0  0  0  0  0  0  0  0  0
  1  2  1  0  0  0  0
  1  5  1  0  0  0  0
  2  8  1  0  0  0  0
  3  1  1  0  0  0  0
  4  1  1  0  0  0  0
  6  2  1  0  0  0  0
  6 10  1  0  0  0  0
  7  2  1  0  0  0  0
  9  6  1  0  0  0  0
  9 12  1  0  0  0  0
 11  6  1  0  0  0  0
 13  9  1  0  0  0  0
 14  9  1  0  0  0  0
M  END
$$$$
