butane_opt
 OpenBabel08242015383D

 14 13  0  0  0  0  0  0  0  0999 V2000
   -3.9744    0.2591   -0.0127 C   0  0  0  0  0  0  0  0  0  0  0  0
   -2.7027   -0.6160    0.0498 C   0  0  0  0  0  0  0  0  0  0  0  0
   -4.8665   -0.3582    0.2339 H   0  0  0  0  0  0  0  0  0  0  0  0
   -4.0249    1.1046   -1.0661 H   0  0  0  0  0  0  0  0  0  0  0  0
   -3.8886    0.7805    0.7753 H   0  0  0  0  0  0  0  0  0  0  0  0
   -1.4002    0.1915    0.0420 C   0  0  0  0  0  0  0  0  0  0  0  0
   -2.7615   -1.2938   -0.7722 H   0  0  0  0  0  0  0  0  0  0  0  0
   -2.7282   -1.3042    0.9596 H   0  0  0  0  0  0  0  0  0  0  0  0
   -0.1276   -0.6977    0.0119 C   0  0  0  0  0  0  0  0  0  0  0  0
   -1.4595    1.0149    1.0317 H   0  0  0  0  0  0  0  0  0  0  0  0
   -1.3953    0.7160   -0.7572 H   0  0  0  0  0  0  0  0  0  0  0  0
   -0.1009   -1.2659    0.8295 H   0  0  0  0  0  0  0  0  0  0  0  0
    0.7608   -0.0963   -0.0506 H   0  0  0  0  0  0  0  0  0  0  0  0
   -0.1065   -1.3950   -0.8761 H   0  0  0  0  0  0  0  0  0  0  0  0
  1  2  1  0  0  0  0
  1  3  1  0  0  0  0
  1  5  1  0  0  0  0
  2  8  1  0  0  0  0
  4  1  1  0  0  0  0
  6  2  1  0  0  0  0
  6 10  1  0  0  0  0
  7  2  1  0  0  0  0
  9  6  1  0  0  0  0
  9 12  1  0  0  0  0
 11  6  1  0  0  0  0
 13  9  1  0  0  0  0
 14  9  1  0  0  0  0
M  END
$$$$
