butane_opt
 OpenBabel08242015383D

 14 13  0  0  0  0  0  0  0  0999 V2000
   -3.9589    0.2584   -0.0449 C   0  0  0  0  0  0  0  0  0  0  0  0
   -2.7208   -0.5937    0.0892 C   0  0  0  0  0  0  0  0  0  0  0  0
   -4.9100   -0.3621    0.0722 H   0  0  0  0  0  0  0  0  0  0  0  0
   -3.8955    0.8568   -0.9168 H   0  0  0  0  0  0  0  0  0  0  0  0
   -3.9336    0.8619    0.7334 H   0  0  0  0  0  0  0  0  0  0  0  0
   -1.4061    0.2045    0.0767 C   0  0  0  0  0  0  0  0  0  0  0  0
   -2.6701   -1.2823   -0.7972 H   0  0  0  0  0  0  0  0  0  0  0  0
   -2.7914   -1.2845    0.9884 H   0  0  0  0  0  0  0  0  0  0  0  0
   -0.1303   -0.7089   -0.0246 C   0  0  0  0  0  0  0  0  0  0  0  0
   -1.2788    1.0041    1.0499 H   0  0  0  0  0  0  0  0  0  0  0  0
   -1.4184    0.7228   -0.7512 H   0  0  0  0  0  0  0  0  0  0  0  0
   -0.0466   -1.4485    0.9554 H   0  0  0  0  0  0  0  0  0  0  0  0
    0.7343   -0.1697   -0.2023 H   0  0  0  0  0  0  0  0  0  0  0  0
   -0.2172   -1.2989   -0.8333 H   0  0  0  0  0  0  0  0  0  0  0  0
  1  3  1  0  0  0  0
  1  2  1  0  0  0  0
  1  5  1  0  0  0  0
  2  8  1  0  0  0  0
  4  1  1  0  0  0  0
  6  2  1  0  0  0  0
  6 10  1  0  0  0  0
  7  2  1  0  0  0  0
  9  6  1  0  0  0  0
  9 12  1  0  0  0  0
 11  6  1  0  0  0  0
 13  9  1  0  0  0  0
 14  9  1  0  0  0  0
M  END
$$$$
