butane_opt
 OpenBabel08242015383D

 14 13  0  0  0  0  0  0  0  0999 V2000
   -3.9523    0.2716    0.0528 C   0  0  0  0  0  0  0  0  0  0  0  0
   -2.6899   -0.6200   -0.0220 C   0  0  0  0  0  0  0  0  0  0  0  0
   -4.8181   -0.3019    0.2984 H   0  0  0  0  0  0  0  0  0  0  0  0
   -4.1072    0.9840   -0.8920 H   0  0  0  0  0  0  0  0  0  0  0  0
   -3.8010    0.7780    0.8409 H   0  0  0  0  0  0  0  0  0  0  0  0
   -1.3965    0.1753   -0.0105 C   0  0  0  0  0  0  0  0  0  0  0  0
   -2.7629   -1.3018   -0.9221 H   0  0  0  0  0  0  0  0  0  0  0  0
   -2.6205   -1.2130    0.8110 H   0  0  0  0  0  0  0  0  0  0  0  0
   -0.1662   -0.6909    0.0607 C   0  0  0  0  0  0  0  0  0  0  0  0
   -1.4694    0.8825    0.8272 H   0  0  0  0  0  0  0  0  0  0  0  0
   -1.4437    0.7724   -0.8685 H   0  0  0  0  0  0  0  0  0  0  0  0
   -0.2450   -1.3720    1.0045 H   0  0  0  0  0  0  0  0  0  0  0  0
    0.8219   -0.0348    0.1308 H   0  0  0  0  0  0  0  0  0  0  0  0
   -0.1300   -1.2818   -0.7678 H   0  0  0  0  0  0  0  0  0  0  0  0
  1  3  1  0  0  0  0
  1  5  1  0  0  0  0
  2  6  1  0  0  0  0
  2  1  1  0  0  0  0
  2  8  1  0  0  0  0
  4  1  1  0  0  0  0
  6  9  1  0  0  0  0
  6 10  1  0  0  0  0
  7  2  1  0  0  0  0
  9 13  1  0  0  0  0
  9 12  1  0  0  0  0
 11  6  1  0  0  0  0
 14  9  1  0  0  0  0
M  END
$$$$
