14
butane_opt
C  -3.942532   0.288477  -0.051061
C  -2.693969  -0.643370   0.072816
H  -4.878090  -0.346001   0.024190
H  -3.938254   0.916791  -0.948116
H  -3.966002   0.876545   0.783180
C  -1.397028   0.182754   0.106528
H  -2.619225  -1.216235  -0.690504
H  -2.847323  -1.319089   1.017729
C  -0.181586  -0.692247  -0.026418
H  -1.288723   0.985727   1.018029
H  -1.422015   0.733114  -0.731710
H   0.022056  -1.368163   0.906315
H   0.734946  -0.116132  -0.308487
H  -0.249488  -1.243603  -0.845200
