14
butane_opt
C  -3.928166   0.254504   0.065204
C  -2.702420  -0.591280  -0.017537
H  -4.856659  -0.379226   0.153006
H  -4.020948   0.766448  -0.797497
H  -3.745249   0.905380   0.992142
C  -1.418105   0.205951  -0.047459
H  -2.817540  -1.309435  -0.932026
H  -2.719697  -1.140136   0.841858
C  -0.153912  -0.717437   0.095005
H  -1.505158   0.743016   0.716933
H  -1.413147   0.924963  -0.991107
H  -0.207777  -1.308998   0.942410
H   0.750694  -0.125941   0.141660
H  -0.056700  -1.366438  -0.770167
