butane_opt
 OpenBabel08242015383D

 14 13  0  0  0  0  0  0  0  0999 V2000
   -3.9621    0.2799    0.0588 C   0  0  0  0  0  0  0  0  0  0  0  0
   -2.6790   -0.6437    0.0170 C   0  0  0  0  0  0  0  0  0  0  0  0
   -4.8667   -0.2863   -0.0973 H   0  0  0  0  0  0  0  0  0  0  0  0
   -3.9132    0.7389   -0.7363 H   0  0  0  0  0  0  0  0  0  0  0  0
   -4.1346    1.1701    1.0359 H   0  0  0  0  0  0  0  0  0  0  0  0
   -1.3976    0.1693   -0.0396 C   0  0  0  0  0  0  0  0  0  0  0  0
   -2.7939   -1.4069   -0.9275 H   0  0  0  0  0  0  0  0  0  0  0  0
   -2.6542   -1.2321    0.8991 H   0  0  0  0  0  0  0  0  0  0  0  0
   -0.1711   -0.6670    0.0655 C   0  0  0  0  0  0  0  0  0  0  0  0
   -1.3619    0.7118    0.7376 H   0  0  0  0  0  0  0  0  0  0  0  0
   -1.3629    0.9052   -0.9914 H   0  0  0  0  0  0  0  0  0  0  0  0
   -0.1544   -1.3964    1.0149 H   0  0  0  0  0  0  0  0  0  0  0  0
    0.7360   -0.0491    0.0542 H   0  0  0  0  0  0  0  0  0  0  0  0
   -0.0137   -1.2846   -0.7391 H   0  0  0  0  0  0  0  0  0  0  0  0
  1  5  1  0  0  0  0
  2  1  1  0  0  0  0
  2  8  1  0  0  0  0
  3  1  1  0  0  0  0
  4  1  1  0  0  0  0
  6  2  1  0  0  0  0
  6  9  1  0  0  0  0
  6 10  1  0  0  0  0
  7  2  1  0  0  0  0
  9 12  1  0  0  0  0
 11  6  1  0  0  0  0
 13  9  1  0  0  0  0
 14  9  1  0  0  0  0
M  END
$$$$
