14
butane_opt
C  -3.936316   0.247850  -0.010841
C  -2.709729  -0.594298   0.091757
H  -4.895694  -0.370859   0.015038
H  -3.941576   0.848181  -0.920448
H  -3.923629   0.896117   0.805136
C  -1.423001   0.185449   0.012382
H  -2.681903  -1.204765  -0.749578
H  -2.636362  -1.232505   1.014163
C  -0.148852  -0.700793   0.005633
H  -1.344759   0.881068   0.899897
H  -1.437351   0.850234  -0.873031
H  -0.249508  -1.131228   0.800592
H   0.715915  -0.180844   0.198567
H   0.002567  -1.515601  -0.963815
