14
butane_opt
C  -3.941954   0.245286   0.061405
C  -2.691243  -0.593498  -0.037746
H  -4.923480  -0.370305   0.242919
H  -4.119296   0.940009  -0.885967
H  -3.697410   0.902541   0.920154
C  -1.416129   0.193421  -0.013072
H  -2.652879  -1.306014  -0.907084
H  -2.661505  -1.226107   0.857554
C  -0.171352  -0.704972   0.067619
H  -1.469366   0.873601   0.856965
H  -1.304911   0.827605  -0.950628
H  -0.188562  -1.419165   1.035803
H   0.742540  -0.096511   0.051300
H  -0.092338  -1.281009  -0.723763
