butane_opt
 OpenBabel08242015383D

 14 13  0  0  0  0  0  0  0  0999 V2000
   -3.9544    0.2448   -0.0198 C   0  0  0  0  0  0  0  0  0  0  0  0
   -2.7244   -0.5929    0.0802 C   0  0  0  0  0  0  0  0  0  0  0  0
   -4.8552   -0.3717   -0.1617 H   0  0  0  0  0  0  0  0  0  0  0  0
   -3.9354    0.7954   -0.8860 H   0  0  0  0  0  0  0  0  0  0  0  0
   -4.0006    0.9676    0.8871 H   0  0  0  0  0  0  0  0  0  0  0  0
   -1.4130    0.2019    0.0672 C   0  0  0  0  0  0  0  0  0  0  0  0
   -2.6871   -1.2263   -0.7590 H   0  0  0  0  0  0  0  0  0  0  0  0
   -2.7763   -1.2136    1.0026 H   0  0  0  0  0  0  0  0  0  0  0  0
   -0.1142   -0.7129   -0.0120 C   0  0  0  0  0  0  0  0  0  0  0  0
   -1.3625    0.8272    0.8641 H   0  0  0  0  0  0  0  0  0  0  0  0
   -1.4262    0.8747   -0.8591 H   0  0  0  0  0  0  0  0  0  0  0  0
   -0.0353   -1.3217    0.9118 H   0  0  0  0  0  0  0  0  0  0  0  0
    0.7470   -0.1815   -0.1142 H   0  0  0  0  0  0  0  0  0  0  0  0
   -0.1995   -1.3270   -0.8276 H   0  0  0  0  0  0  0  0  0  0  0  0
  1  2  1  0  0  0  0
  1  5  1  0  0  0  0
  2  8  1  0  0  0  0
  3  1  1  0  0  0  0
  4  1  1  0  0  0  0
  6  2  1  0  0  0  0
  6 10  1  0  0  0  0
  7  2  1  0  0  0  0
  9  6  1  0  0  0  0
  9 12  1  0  0  0  0
 11  6  1  0  0  0  0
 13  9  1  0  0  0  0
 14  9  1  0  0  0  0
M  END
$$$$
