14
butane_opt
C  -3.932359   0.244914  -0.024562
C  -2.705417  -0.611570   0.109749
H  -4.897582  -0.377675  -0.147414
H  -3.912944   0.898907  -1.008841
H  -4.115853   0.933333   0.822576
C  -1.405034   0.215436   0.058183
H  -2.746067  -1.210289  -0.716477
H  -2.757786  -1.240224   1.020198
C  -0.142315  -0.710292  -0.015802
H  -1.373274   0.891967   0.896643
H  -1.540370   0.814174  -0.836709
H  -0.045648  -1.220366   0.795472
H   0.771537  -0.158141   0.002272
H  -0.163340  -1.476341  -0.926065
