14
butane_opt
C  -3.948344   0.244846   0.038693
C  -2.718505  -0.600190   0.011614
H  -4.851226  -0.309571   0.043044
H  -3.958255   0.815513  -0.873485
H  -3.905934   0.930839   0.913506
C  -1.401627   0.217266   0.007523
H  -2.757005  -1.256147  -0.845415
H  -2.841462  -1.182711   0.859601
C  -0.139682  -0.711936   0.049619
H  -1.443028   0.845691   0.799688
H  -1.369791   0.850818  -0.889213
H   0.004064  -1.451728   1.010240
H   0.761671  -0.158264  -0.052029
H  -0.169661  -1.353750  -0.794965
