14
butane_opt
C  -3.934781   0.273721  -0.014218
C  -2.675040  -0.638163   0.080668
H  -4.798009  -0.288356  -0.248341
H  -3.952968   0.805819  -0.829745
H  -4.062234   1.150281   0.957817
C  -1.398411   0.161502   0.039735
H  -2.733665  -1.206496  -0.713901
H  -2.767659  -1.352084   1.061752
C  -0.190837  -0.683014  -0.004115
H  -1.361354   0.872176   0.884602
H  -1.382883   0.815137  -0.881279
H  -0.142431  -1.331118   0.897612
H   0.757644  -0.002802  -0.036299
H  -0.196478  -1.303804  -0.867210
