14
butane_opt
C  -3.941522   0.285764   0.065048
C  -2.686825  -0.638554  -0.014482
H  -4.845955  -0.297234  -0.120391
H  -4.010331   0.699385  -0.705664
H  -3.932637   1.172836   1.102071
C  -1.403508   0.153823  -0.050353
H  -2.726000  -1.308123  -0.846966
H  -2.686676  -1.332957   0.932174
C  -0.165859  -0.679472   0.085076
H  -1.458927   0.782770   0.789789
H  -1.451178   0.893565  -1.029181
H  -0.201454  -1.319165   0.996966
H   0.786340  -0.019383   0.038804
H  -0.139871  -1.190441  -0.713631
