14
butane_opt
C  -3.905072   0.247940  -0.033599
C  -2.720938  -0.590146   0.060902
H  -4.827648  -0.338537   0.343005
H  -3.984501   1.079131  -1.026830
H  -3.868894   0.633079   0.659948
C  -1.414846   0.204520   0.077460
H  -2.776876  -1.282869  -0.808245
H  -2.760674  -1.248287   0.937156
C  -0.152521  -0.708570   0.003795
H  -1.454399   0.934348   0.956495
H  -1.440000   0.821173  -0.788614
H  -0.026426  -1.227941   0.813300
H   0.672104  -0.165477  -0.001874
H  -0.233114  -1.526980  -0.980559
