14
butane_opt
C  -3.954005   0.269079   0.049138
C  -2.710873  -0.632282   0.006749
H  -4.766942  -0.225799   0.089185
H  -4.024240   0.831088  -0.786915
H  -3.979429   0.996085   0.970835
C  -1.390464   0.180917  -0.045438
H  -2.716849  -1.322762  -0.874510
H  -2.670435  -1.278445   0.890398
C  -0.163468  -0.687415   0.070881
H  -1.305180   0.887341   0.800244
H  -1.413970   0.826526  -0.928306
H  -0.242556  -1.320556   1.007407
H   0.762687  -0.084367   0.125153
H  -0.048110  -1.340866  -0.812023
