butane_opt
 OpenBabel08242015383D

 14 13  0  0  0  0  0  0  0  0999 V2000
   -3.9473    0.2351    0.0536 C   0  0  0  0  0  0  0  0  0  0  0  0
   -2.7115   -0.5883   -0.0062 C   0  0  0  0  0  0  0  0  0  0  0  0
   -4.9020   -0.3623    0.1678 H   0  0  0  0  0  0  0  0  0  0  0  0
   -4.0567    0.9139   -0.8831 H   0  0  0  0  0  0  0  0  0  0  0  0
   -3.7752    0.9354    0.9259 H   0  0  0  0  0  0  0  0  0  0  0  0
   -1.4201    0.2073   -0.0182 C   0  0  0  0  0  0  0  0  0  0  0  0
   -2.7597   -1.3256   -0.8888 H   0  0  0  0  0  0  0  0  0  0  0  0
   -2.6672   -1.2220    0.8640 H   0  0  0  0  0  0  0  0  0  0  0  0
   -0.1359   -0.7116    0.0688 C   0  0  0  0  0  0  0  0  0  0  0  0
   -1.4553    0.7767    0.7699 H   0  0  0  0  0  0  0  0  0  0  0  0
   -1.3916    0.9542   -0.9975 H   0  0  0  0  0  0  0  0  0  0  0  0
   -0.1667   -1.2826    0.9157 H   0  0  0  0  0  0  0  0  0  0  0  0
    0.7604   -0.1207    0.1825 H   0  0  0  0  0  0  0  0  0  0  0  0
   -0.0267   -1.4490   -0.8040 H   0  0  0  0  0  0  0  0  0  0  0  0
  1  3  1  0  0  0  0
  1  5  1  0  0  0  0
  2  1  1  0  0  0  0
  2  8  1  0  0  0  0
  4  1  1  0  0  0  0
  6  2  1  0  0  0  0
  6  9  1  0  0  0  0
  6 10  1  0  0  0  0
  7  2  1  0  0  0  0
  9 13  1  0  0  0  0
  9 12  1  0  0  0  0
 11  6  1  0  0  0  0
 14  9  1  0  0  0  0
M  END
$$$$
