butane_opt
 OpenBabel08242015383D

 14 13  0  0  0  0  0  0  0  0999 V2000
   -3.9481    0.2744    0.0167 C   0  0  0  0  0  0  0  0  0  0  0  0
   -2.6968   -0.6255    0.0315 C   0  0  0  0  0  0  0  0  0  0  0  0
   -4.8403   -0.3021    0.0112 H   0  0  0  0  0  0  0  0  0  0  0  0
   -3.9697    0.8679   -0.8662 H   0  0  0  0  0  0  0  0  0  0  0  0
   -3.9564    0.9854    0.9195 H   0  0  0  0  0  0  0  0  0  0  0  0
   -1.3946    0.1740    0.0263 C   0  0  0  0  0  0  0  0  0  0  0  0
   -2.6858   -1.3208   -0.8642 H   0  0  0  0  0  0  0  0  0  0  0  0
   -2.7160   -1.2187    0.9058 H   0  0  0  0  0  0  0  0  0  0  0  0
   -0.1690   -0.6911    0.0266 C   0  0  0  0  0  0  0  0  0  0  0  0
   -1.4103    0.8037    0.8493 H   0  0  0  0  0  0  0  0  0  0  0  0
   -1.3686    0.8158   -0.8681 H   0  0  0  0  0  0  0  0  0  0  0  0
   -0.1108   -1.3937    1.0071 H   0  0  0  0  0  0  0  0  0  0  0  0
    0.7886   -0.0353   -0.0855 H   0  0  0  0  0  0  0  0  0  0  0  0
   -0.2564   -1.2456   -0.7674 H   0  0  0  0  0  0  0  0  0  0  0  0
  1  2  1  0  0  0  0
  1  5  1  0  0  0  0
  2  8  1  0  0  0  0
  3  1  1  0  0  0  0
  4  1  1  0  0  0  0
  6  9  1  0  0  0  0
  6  2  1  0  0  0  0
  6 10  1  0  0  0  0
  7  2  1  0  0  0  0
  9 12  1  0  0  0  0
 11  6  1  0  0  0  0
 13  9  1  0  0  0  0
 14  9  1  0  0  0  0
M  END
$$$$
