14
butane_opt
C  -3.958122   0.278892  -0.028167
C  -2.691908  -0.648464   0.116680
H  -4.848359  -0.285664  -0.138361
H  -3.865552   0.946696  -0.960776
H  -4.139179   0.951633   0.821881
C  -1.381921   0.177520   0.051544
H  -2.754737  -1.270824  -0.706121
H  -2.673552  -1.294147   0.992572
C  -0.171815  -0.682393  -0.024031
H  -1.380763   0.861547   0.948483
H  -1.461251   0.838950  -0.866006
H  -0.102631  -1.222393   0.788750
H   0.806997  -0.013129   0.099126
H  -0.177127  -1.481058  -0.945157
