14
butane_opt
C  -3.955964   0.264274   0.003614
C  -2.711358  -0.615405   0.050974
H  -4.882717  -0.329683   0.138000
H  -3.998281   0.989984  -0.968189
H  -3.898877   0.790573   0.799179
C  -1.403346   0.198828   0.038370
H  -2.703608  -1.310454  -0.822013
H  -2.745705  -1.208304   0.905983
C  -0.146444  -0.702594   0.009589
H  -1.346531   0.866764   0.886528
H  -1.352735   0.823976  -0.836910
H  -0.137025  -1.300758   0.912181
H   0.753107  -0.106781   0.053233
H  -0.105635  -1.430051  -0.876182
