butane_opt
 OpenBabel08242015383D

 14 13  0  0  0  0  0  0  0  0999 V2000
   -3.9175    0.2756    0.0348 C   0  0  0  0  0  0  0  0  0  0  0  0
   -2.6877   -0.6278    0.0051 C   0  0  0  0  0  0  0  0  0  0  0  0
   -4.8466   -0.3499    0.2590 H   0  0  0  0  0  0  0  0  0  0  0  0
   -4.0193    1.0350   -0.9037 H   0  0  0  0  0  0  0  0  0  0  0  0
   -3.9246    0.8446    0.8338 H   0  0  0  0  0  0  0  0  0  0  0  0
   -1.4120    0.1800    0.0120 C   0  0  0  0  0  0  0  0  0  0  0  0
   -2.7655   -1.4103   -0.9303 H   0  0  0  0  0  0  0  0  0  0  0  0
   -2.7316   -1.2160    0.8366 H   0  0  0  0  0  0  0  0  0  0  0  0
   -0.1830   -0.6829    0.0456 C   0  0  0  0  0  0  0  0  0  0  0  0
   -1.3634    0.8246    0.8451 H   0  0  0  0  0  0  0  0  0  0  0  0
   -1.4373    0.8682   -0.9033 H   0  0  0  0  0  0  0  0  0  0  0  0
   -0.1952   -1.3478    0.9665 H   0  0  0  0  0  0  0  0  0  0  0  0
    0.7739   -0.0954    0.0715 H   0  0  0  0  0  0  0  0  0  0  0  0
   -0.1182   -1.3503   -0.8009 H   0  0  0  0  0  0  0  0  0  0  0  0
  1  3  1  0  0  0  0
  1  5  1  0  0  0  0
  2  6  1  0  0  0  0
  2  1  1  0  0  0  0
  2  8  1  0  0  0  0
  4  1  1  0  0  0  0
  6  9  1  0  0  0  0
  6 10  1  0  0  0  0
  7  2  1  0  0  0  0
  9 13  1  0  0  0  0
  9 12  1  0  0  0  0
 11  6  1  0  0  0  0
 14  9  1  0  0  0  0
M  END
$$$$
