butane_opt
 OpenBabel08242015383D

 14 13  0  0  0  0  0  0  0  0999 V2000
   -3.9261    0.2517   -0.0225 C   0  0  0  0  0  0  0  0  0  0  0  0
   -2.6943   -0.6108    0.0974 C   0  0  0  0  0  0  0  0  0  0  0  0
   -4.8130   -0.3424    0.0195 H   0  0  0  0  0  0  0  0  0  0  0  0
   -3.9948    0.9012   -0.9583 H   0  0  0  0  0  0  0  0  0  0  0  0
   -3.9192    0.8303    0.7742 H   0  0  0  0  0  0  0  0  0  0  0  0
   -1.4261    0.2187    0.0361 C   0  0  0  0  0  0  0  0  0  0  0  0
   -2.6678   -1.2511   -0.7493 H   0  0  0  0  0  0  0  0  0  0  0  0
   -2.7783   -1.2902    1.0656 H   0  0  0  0  0  0  0  0  0  0  0  0
   -0.1647   -0.7157    0.0013 C   0  0  0  0  0  0  0  0  0  0  0  0
   -1.3516    0.8040    0.8406 H   0  0  0  0  0  0  0  0  0  0  0  0
   -1.5055    0.8985   -0.8493 H   0  0  0  0  0  0  0  0  0  0  0  0
   -0.1448   -1.0290    0.7183 H   0  0  0  0  0  0  0  0  0  0  0  0
    0.7748   -0.1137    0.2067 H   0  0  0  0  0  0  0  0  0  0  0  0
   -0.0823   -1.6090   -1.0058 H   0  0  0  0  0  0  0  0  0  0  0  0
  1  3  1  0  0  0  0
  1  2  1  0  0  0  0
  1  5  1  0  0  0  0
  2  8  1  0  0  0  0
  4  1  1  0  0  0  0
  6  2  1  0  0  0  0
  6 10  1  0  0  0  0
  7  2  1  0  0  0  0
  9  6  1  0  0  0  0
  9 13  1  0  0  0  0
  9 12  1  0  0  0  0
 11  6  1  0  0  0  0
 14  9  1  0  0  0  0
M  END
$$$$
