butane_opt
 OpenBabel08242015383D

 14 13  0  0  0  0  0  0  0  0999 V2000
   -3.9405    0.2752    0.0195 C   0  0  0  0  0  0  0  0  0  0  0  0
   -2.6693   -0.6465    0.0407 C   0  0  0  0  0  0  0  0  0  0  0  0
   -4.8288   -0.2769   -0.1395 H   0  0  0  0  0  0  0  0  0  0  0  0
   -3.9631    0.7465   -0.7360 H   0  0  0  0  0  0  0  0  0  0  0  0
   -4.0776    1.1229    0.9490 H   0  0  0  0  0  0  0  0  0  0  0  0
   -1.4084    0.1745    0.0111 C   0  0  0  0  0  0  0  0  0  0  0  0
   -2.7850   -1.3633   -0.8268 H   0  0  0  0  0  0  0  0  0  0  0  0
   -2.6623   -1.2448    0.8803 H   0  0  0  0  0  0  0  0  0  0  0  0
   -0.1721   -0.6820    0.0489 C   0  0  0  0  0  0  0  0  0  0  0  0
   -1.4117    0.8392    0.8133 H   0  0  0  0  0  0  0  0  0  0  0  0
   -1.3851    0.9226   -0.9879 H   0  0  0  0  0  0  0  0  0  0  0  0
   -0.1318   -1.3444    0.9950 H   0  0  0  0  0  0  0  0  0  0  0  0
    0.7650   -0.0646   -0.1865 H   0  0  0  0  0  0  0  0  0  0  0  0
   -0.2605   -1.2659   -0.7480 H   0  0  0  0  0  0  0  0  0  0  0  0
  1  2  1  0  0  0  0
  1  5  1  0  0  0  0
  2  8  1  0  0  0  0
  3  1  1  0  0  0  0
  4  1  1  0  0  0  0
  6  2  1  0  0  0  0
  6  9  1  0  0  0  0
  6 10  1  0  0  0  0
  7  2  1  0  0  0  0
  9 12  1  0  0  0  0
 11  6  1  0  0  0  0
 13  9  1  0  0  0  0
 14  9  1  0  0  0  0
M  END
$$$$
