14
butane_opt
C  -3.943388   0.280354   0.068314
C  -2.686407  -0.629115  -0.017083
H  -4.830291  -0.303491   0.180179
H  -4.074393   0.914191  -0.825048
H  -3.909300   0.977990   0.959935
C  -1.421021   0.145009  -0.065608
H  -2.772598  -1.308799  -0.831861
H  -2.602794  -1.268941   0.848362
C  -0.167575  -0.669947   0.094266
H  -1.417311   0.865662   0.827377
H  -1.269406   0.805642  -0.988092
H  -0.317729  -1.247385   0.922132
H   0.803951  -0.002131   0.172579
H  -0.027397  -1.408093  -0.803743
