butane_opt
 OpenBabel08242015383D

 14 13  0  0  0  0  0  0  0  0999 V2000
   -3.9396    0.2786    0.0577 C   0  0  0  0  0  0  0  0  0  0  0  0
   -2.6814   -0.6304   -0.0083 C   0  0  0  0  0  0  0  0  0  0  0  0
   -4.8140   -0.2550   -0.0539 H   0  0  0  0  0  0  0  0  0  0  0  0
   -3.9232    0.8598   -0.8295 H   0  0  0  0  0  0  0  0  0  0  0  0
   -4.0033    1.0382    1.0269 H   0  0  0  0  0  0  0  0  0  0  0  0
   -1.3967    0.1418   -0.0102 C   0  0  0  0  0  0  0  0  0  0  0  0
   -2.7769   -1.3756   -0.9233 H   0  0  0  0  0  0  0  0  0  0  0  0
   -2.6798   -1.1427    0.8414 H   0  0  0  0  0  0  0  0  0  0  0  0
   -0.1898   -0.6723    0.0628 C   0  0  0  0  0  0  0  0  0  0  0  0
   -1.3551    0.8332    0.8557 H   0  0  0  0  0  0  0  0  0  0  0  0
   -1.3949    0.8488   -0.9560 H   0  0  0  0  0  0  0  0  0  0  0  0
   -0.1505   -1.5102    1.1051 H   0  0  0  0  0  0  0  0  0  0  0  0
    0.8024   -0.0176   -0.1576 H   0  0  0  0  0  0  0  0  0  0  0  0
   -0.2541   -1.1480   -0.6647 H   0  0  0  0  0  0  0  0  0  0  0  0
  1  5  1  0  0  0  0
  2  1  1  0  0  0  0
  2  8  1  0  0  0  0
  3  1  1  0  0  0  0
  4  1  1  0  0  0  0
  6  2  1  0  0  0  0
  6  9  1  0  0  0  0
  6 10  1  0  0  0  0
  7  2  1  0  0  0  0
  9 12  1  0  0  0  0
 11  6  1  0  0  0  0
 13  9  1  0  0  0  0
 14  9  1  0  0  0  0
M  END
$$$$
