14
butane_opt
C  -3.958893   0.258401  -0.044866
C  -2.720772  -0.593689   0.089167
H  -4.910032  -0.362145   0.072167
H  -3.895543   0.856785  -0.916803
H  -3.933603   0.861866   0.733443
C  -1.406075   0.204466   0.076651
H  -2.670137  -1.282305  -0.797201
H  -2.791373  -1.284531   0.988431
C  -0.130281  -0.708887  -0.024560
H  -1.278823   1.004087   1.049894
H  -1.418376   0.722832  -0.751172
H  -0.046623  -1.448544   0.955393
H   0.734338  -0.169744  -0.202315
H  -0.217216  -1.298943  -0.833296
