14
butane_opt
C  -3.928138   0.251811   0.036919
C  -2.704162  -0.622805   0.039736
H  -4.812391  -0.290879   0.103914
H  -3.952079   0.886072  -0.875978
H  -3.876281   0.879642   0.926845
C  -1.417216   0.206776  -0.039723
H  -2.765626  -1.327675  -0.828983
H  -2.663545  -1.154972   0.859545
C  -0.157278  -0.705741   0.052152
H  -1.486946   0.838191   0.831281
H  -1.456109   0.898915  -0.960836
H  -0.217956  -1.207615   0.884691
H   0.711954  -0.115504   0.284999
H  -0.031407  -1.441741  -0.866917
