butane_opt
 OpenBabel08242015383D

 14 13  0  0  0  0  0  0  0  0999 V2000
   -3.9501    0.2846    0.0569 C   0  0  0  0  0  0  0  0  0  0  0  0
   -2.6964   -0.6245   -0.0158 C   0  0  0  0  0  0  0  0  0  0  0  0
   -4.8942   -0.3324   -0.0498 H   0  0  0  0  0  0  0  0  0  0  0  0
   -3.8971    0.8431   -0.7592 H   0  0  0  0  0  0  0  0  0  0  0  0
   -3.9835    1.0119    0.9524 H   0  0  0  0  0  0  0  0  0  0  0  0
   -1.3989    0.1667    0.0022 C   0  0  0  0  0  0  0  0  0  0  0  0
   -2.7041   -1.3989   -0.9395 H   0  0  0  0  0  0  0  0  0  0  0  0
   -2.6292   -1.1780    0.8154 H   0  0  0  0  0  0  0  0  0  0  0  0
   -0.1705   -0.6845    0.0700 C   0  0  0  0  0  0  0  0  0  0  0  0
   -1.3027    0.7533    0.7920 H   0  0  0  0  0  0  0  0  0  0  0  0
   -1.3440    0.8284   -0.8622 H   0  0  0  0  0  0  0  0  0  0  0  0
   -0.1483   -1.5265    1.1082 H   0  0  0  0  0  0  0  0  0  0  0  0
    0.7549   -0.0494   -0.2883 H   0  0  0  0  0  0  0  0  0  0  0  0
   -0.2813   -1.1288   -0.6633 H   0  0  0  0  0  0  0  0  0  0  0  0
  1  5  1  0  0  0  0
  2  6  1  0  0  0  0
  2  1  1  0  0  0  0
  2  8  1  0  0  0  0
  3  1  1  0  0  0  0
  4  1  1  0  0  0  0
  6  9  1  0  0  0  0
  6 10  1  0  0  0  0
  7  2  1  0  0  0  0
  9 12  1  0  0  0  0
 11  6  1  0  0  0  0
 13  9  1  0  0  0  0
 14  9  1  0  0  0  0
M  END
$$$$
