14
butane_opt
C  -3.948825   0.282353   0.050206
C  -2.680122  -0.618332   0.033202
H  -4.786381  -0.289583  -0.177245
H  -3.897878   0.749956  -0.751069
H  -4.023358   1.107977   1.000208
C  -1.413407   0.133977  -0.046511
H  -2.747698  -1.325256  -0.865902
H  -2.661068  -1.305504   0.923265
C  -0.167726  -0.665627   0.057890
H  -1.454395   0.867949   0.845476
H  -1.346694   0.741961  -0.919654
H  -0.231750  -1.320572   1.023019
H   0.793793  -0.036002  -0.046076
H  -0.165153  -1.233304  -0.720369
