butane_opt
 OpenBabel08242015383D

 14 13  0  0  0  0  0  0  0  0999 V2000
   -3.9458    0.2393    0.0349 C   0  0  0  0  0  0  0  0  0  0  0  0
   -2.6955   -0.6016    0.0244 C   0  0  0  0  0  0  0  0  0  0  0  0
   -4.8675   -0.3405   -0.0819 H   0  0  0  0  0  0  0  0  0  0  0  0
   -3.9343    0.6964   -0.7779 H   0  0  0  0  0  0  0  0  0  0  0  0
   -3.9606    1.0809    1.0401 H   0  0  0  0  0  0  0  0  0  0  0  0
   -1.4107    0.2209   -0.0248 C   0  0  0  0  0  0  0  0  0  0  0  0
   -2.8138   -1.2271   -0.7956 H   0  0  0  0  0  0  0  0  0  0  0  0
   -2.7307   -1.3037    0.9601 H   0  0  0  0  0  0  0  0  0  0  0  0
   -0.1472   -0.7241    0.0569 C   0  0  0  0  0  0  0  0  0  0  0  0
   -1.4429    0.8626    0.7837 H   0  0  0  0  0  0  0  0  0  0  0  0
   -1.3809    0.9345   -0.9477 H   0  0  0  0  0  0  0  0  0  0  0  0
   -0.1838   -1.2851    0.9219 H   0  0  0  0  0  0  0  0  0  0  0  0
    0.6981   -0.1662    0.0471 H   0  0  0  0  0  0  0  0  0  0  0  0
   -0.0001   -1.3543   -0.8035 H   0  0  0  0  0  0  0  0  0  0  0  0
  1  5  1  0  0  0  0
  2  1  1  0  0  0  0
  2  8  1  0  0  0  0
  3  1  1  0  0  0  0
  4  1  1  0  0  0  0
  6  2  1  0  0  0  0
  6  9  1  0  0  0  0
  6 10  1  0  0  0  0
  7  2  1  0  0  0  0
  9 12  1  0  0  0  0
 11  6  1  0  0  0  0
 13  9  1  0  0  0  0
 14  9  1  0  0  0  0
M  END
$$$$
