butane_opt
 OpenBabel08242015383D

 14 13  0  0  0  0  0  0  0  0999 V2000
   -3.9319    0.2758    0.0215 C   0  0  0  0  0  0  0  0  0  0  0  0
   -2.6758   -0.6407    0.0599 C   0  0  0  0  0  0  0  0  0  0  0  0
   -4.8331   -0.2903   -0.1487 H   0  0  0  0  0  0  0  0  0  0  0  0
   -3.8933    0.6496   -0.6950 H   0  0  0  0  0  0  0  0  0  0  0  0
   -4.1120    1.1168    0.9523 H   0  0  0  0  0  0  0  0  0  0  0  0
   -1.4122    0.1851   -0.0165 C   0  0  0  0  0  0  0  0  0  0  0  0
   -2.7302   -1.3321   -0.8328 H   0  0  0  0  0  0  0  0  0  0  0  0
   -2.6817   -1.1870    0.9260 H   0  0  0  0  0  0  0  0  0  0  0  0
   -0.1795   -0.6902    0.0434 C   0  0  0  0  0  0  0  0  0  0  0  0
   -1.3239    0.8098    0.7727 H   0  0  0  0  0  0  0  0  0  0  0  0
   -1.4483    0.8902   -0.9819 H   0  0  0  0  0  0  0  0  0  0  0  0
   -0.2156   -1.3444    0.9403 H   0  0  0  0  0  0  0  0  0  0  0  0
    0.7610   -0.0616    0.0257 H   0  0  0  0  0  0  0  0  0  0  0  0
   -0.1518   -1.2945   -0.7808 H   0  0  0  0  0  0  0  0  0  0  0  0
  1  2  1  0  0  0  0
  1  5  1  0  0  0  0
  2  8  1  0  0  0  0
  3  1  1  0  0  0  0
  4  1  1  0  0  0  0
  6  9  1  0  0  0  0
  6  2  1  0  0  0  0
  6 10  1  0  0  0  0
  7  2  1  0  0  0  0
  9 12  1  0  0  0  0
 11  6  1  0  0  0  0
 13  9  1  0  0  0  0
 14  9  1  0  0  0  0
M  END
$$$$
