butane_opt
 OpenBabel08242015383D

 14 13  0  0  0  0  0  0  0  0999 V2000
   -3.9452    0.2790    0.0228 C   0  0  0  0  0  0  0  0  0  0  0  0
   -2.6821   -0.6314    0.0525 C   0  0  0  0  0  0  0  0  0  0  0  0
   -4.8591   -0.3482   -0.0563 H   0  0  0  0  0  0  0  0  0  0  0  0
   -3.8747    0.8542   -0.8716 H   0  0  0  0  0  0  0  0  0  0  0  0
   -4.0565    0.9789    0.9103 H   0  0  0  0  0  0  0  0  0  0  0  0
   -1.3960    0.1698    0.0052 C   0  0  0  0  0  0  0  0  0  0  0  0
   -2.7446   -1.3714   -0.8320 H   0  0  0  0  0  0  0  0  0  0  0  0
   -2.6925   -1.1552    0.8543 H   0  0  0  0  0  0  0  0  0  0  0  0
   -0.1908   -0.6833    0.0358 C   0  0  0  0  0  0  0  0  0  0  0  0
   -1.3781    0.9132    0.8650 H   0  0  0  0  0  0  0  0  0  0  0  0
   -1.3335    0.8313   -0.9122 H   0  0  0  0  0  0  0  0  0  0  0  0
   -0.0915   -1.3802    0.9756 H   0  0  0  0  0  0  0  0  0  0  0  0
    0.7273   -0.0671   -0.1375 H   0  0  0  0  0  0  0  0  0  0  0  0
   -0.1595   -1.3353   -0.7465 H   0  0  0  0  0  0  0  0  0  0  0  0
  1  2  1  0  0  0  0
  1  5  1  0  0  0  0
  2  8  1  0  0  0  0
  3  1  1  0  0  0  0
  4  1  1  0  0  0  0
  6  9  1  0  0  0  0
  6  2  1  0  0  0  0
  6 10  1  0  0  0  0
  7  2  1  0  0  0  0
  9 12  1  0  0  0  0
 11  6  1  0  0  0  0
 13  9  1  0  0  0  0
 14  9  1  0  0  0  0
M  END
$$$$
