butane_opt
 OpenBabel08242015383D

 14 13  0  0  0  0  0  0  0  0999 V2000
   -3.9471    0.2781    0.0618 C   0  0  0  0  0  0  0  0  0  0  0  0
   -2.7201   -0.6207   -0.0080 C   0  0  0  0  0  0  0  0  0  0  0  0
   -4.8418   -0.2818    0.0955 H   0  0  0  0  0  0  0  0  0  0  0  0
   -4.0937    0.7932   -0.7879 H   0  0  0  0  0  0  0  0  0  0  0  0
   -3.9134    1.0752    0.9993 H   0  0  0  0  0  0  0  0  0  0  0  0
   -1.3909    0.1499   -0.0487 C   0  0  0  0  0  0  0  0  0  0  0  0
   -2.7499   -1.2947   -0.8519 H   0  0  0  0  0  0  0  0  0  0  0  0
   -2.6436   -1.2744    0.9279 H   0  0  0  0  0  0  0  0  0  0  0  0
   -0.1602   -0.6849    0.0806 C   0  0  0  0  0  0  0  0  0  0  0  0
   -1.4123    0.7459    0.7345 H   0  0  0  0  0  0  0  0  0  0  0  0
   -1.3283    0.9155   -1.0562 H   0  0  0  0  0  0  0  0  0  0  0  0
   -0.3024   -1.1493    0.8968 H   0  0  0  0  0  0  0  0  0  0  0  0
    0.8316   -0.0679    0.2268 H   0  0  0  0  0  0  0  0  0  0  0  0
    0.0426   -1.3951   -0.7817 H   0  0  0  0  0  0  0  0  0  0  0  0
  1  3  1  0  0  0  0
  1  5  1  0  0  0  0
  2  1  1  0  0  0  0
  2  8  1  0  0  0  0
  4  1  1  0  0  0  0
  6  2  1  0  0  0  0
  6  9  1  0  0  0  0
  6 10  1  0  0  0  0
  7  2  1  0  0  0  0
  9 13  1  0  0  0  0
  9 12  1  0  0  0  0
 11  6  1  0  0  0  0
 14  9  1  0  0  0  0
M  END
$$$$
