butane_opt
 OpenBabel08242015383D

 14 13  0  0  0  0  0  0  0  0999 V2000
   -3.9569    0.2853    0.0535 C   0  0  0  0  0  0  0  0  0  0  0  0
   -2.7042   -0.6266   -0.0236 C   0  0  0  0  0  0  0  0  0  0  0  0
   -4.8642   -0.2570    0.2454 H   0  0  0  0  0  0  0  0  0  0  0  0
   -4.0335    0.8966   -0.8315 H   0  0  0  0  0  0  0  0  0  0  0  0
   -3.8668    0.8934    0.8837 H   0  0  0  0  0  0  0  0  0  0  0  0
   -1.4010    0.1538   -0.0272 C   0  0  0  0  0  0  0  0  0  0  0  0
   -2.7714   -1.3907   -0.9143 H   0  0  0  0  0  0  0  0  0  0  0  0
   -2.6728   -1.2088    0.8524 H   0  0  0  0  0  0  0  0  0  0  0  0
   -0.1522   -0.6799    0.0740 C   0  0  0  0  0  0  0  0  0  0  0  0
   -1.3206    0.9002    0.8543 H   0  0  0  0  0  0  0  0  0  0  0  0
   -1.3784    0.8102   -0.9140 H   0  0  0  0  0  0  0  0  0  0  0  0
   -0.2013   -1.3711    1.0334 H   0  0  0  0  0  0  0  0  0  0  0  0
    0.7843   -0.0455    0.0098 H   0  0  0  0  0  0  0  0  0  0  0  0
   -0.1428   -1.2825   -0.6906 H   0  0  0  0  0  0  0  0  0  0  0  0
  1  3  1  0  0  0  0
  1  5  1  0  0  0  0
  2  1  1  0  0  0  0
  2  8  1  0  0  0  0
  4  1  1  0  0  0  0
  6  2  1  0  0  0  0
  6  9  1  0  0  0  0
  6 10  1  0  0  0  0
  7  2  1  0  0  0  0
  9 12  1  0  0  0  0
 11  6  1  0  0  0  0
 13  9  1  0  0  0  0
 14  9  1  0  0  0  0
M  END
$$$$
