butane_opt
 OpenBabel08242015383D

 14 13  0  0  0  0  0  0  0  0999 V2000
   -3.9553    0.2668   -0.0129 C   0  0  0  0  0  0  0  0  0  0  0  0
   -2.6947   -0.6434    0.0775 C   0  0  0  0  0  0  0  0  0  0  0  0
   -4.8408   -0.2497   -0.0807 H   0  0  0  0  0  0  0  0  0  0  0  0
   -3.9531    0.9211   -0.9270 H   0  0  0  0  0  0  0  0  0  0  0  0
   -4.1113    0.9515    0.8525 H   0  0  0  0  0  0  0  0  0  0  0  0
   -1.3999    0.1930    0.0610 C   0  0  0  0  0  0  0  0  0  0  0  0
   -2.6629   -1.3300   -0.8125 H   0  0  0  0  0  0  0  0  0  0  0  0
   -2.8145   -1.2367    0.9339 H   0  0  0  0  0  0  0  0  0  0  0  0
   -0.1454   -0.6893   -0.0077 C   0  0  0  0  0  0  0  0  0  0  0  0
   -1.2793    0.9296    0.9826 H   0  0  0  0  0  0  0  0  0  0  0  0
   -1.4315    0.8105   -0.8356 H   0  0  0  0  0  0  0  0  0  0  0  0
   -0.1567   -1.4366    0.9855 H   0  0  0  0  0  0  0  0  0  0  0  0
    0.7749   -0.0863   -0.2133 H   0  0  0  0  0  0  0  0  0  0  0  0
   -0.1999   -1.2716   -0.8468 H   0  0  0  0  0  0  0  0  0  0  0  0
  1  2  1  0  0  0  0
  1  5  1  0  0  0  0
  2  8  1  0  0  0  0
  3  1  1  0  0  0  0
  4  1  1  0  0  0  0
  6  2  1  0  0  0  0
  6 10  1  0  0  0  0
  7  2  1  0  0  0  0
  9  6  1  0  0  0  0
  9 12  1  0  0  0  0
 11  6  1  0  0  0  0
 13  9  1  0  0  0  0
 14  9  1  0  0  0  0
M  END
$$$$
