butane_opt
 OpenBabel08242015383D

 14 13  0  0  0  0  0  0  0  0999 V2000
   -3.9277    0.2714    0.0379 C   0  0  0  0  0  0  0  0  0  0  0  0
   -2.6807   -0.6336   -0.0128 C   0  0  0  0  0  0  0  0  0  0  0  0
   -4.8415   -0.2695    0.0631 H   0  0  0  0  0  0  0  0  0  0  0  0
   -4.0441    0.8223   -0.7618 H   0  0  0  0  0  0  0  0  0  0  0  0
   -3.9997    0.9808    0.9310 H   0  0  0  0  0  0  0  0  0  0  0  0
   -1.4041    0.1887    0.0233 C   0  0  0  0  0  0  0  0  0  0  0  0
   -2.6269   -1.3966   -0.8798 H   0  0  0  0  0  0  0  0  0  0  0  0
   -2.7926   -1.2156    0.8338 H   0  0  0  0  0  0  0  0  0  0  0  0
   -0.1730   -0.6872    0.0529 C   0  0  0  0  0  0  0  0  0  0  0  0
   -1.4499    0.8089    0.8004 H   0  0  0  0  0  0  0  0  0  0  0  0
   -1.4246    0.8387   -0.8967 H   0  0  0  0  0  0  0  0  0  0  0  0
   -0.0978   -1.5009    1.0681 H   0  0  0  0  0  0  0  0  0  0  0  0
    0.7564   -0.0578   -0.2363 H   0  0  0  0  0  0  0  0  0  0  0  0
   -0.2765   -1.1422   -0.6590 H   0  0  0  0  0  0  0  0  0  0  0  0
  1  3  1  0  0  0  0
  1  5  1  0  0  0  0
  2  6  1  0  0  0  0
  2  1  1  0  0  0  0
  2  8  1  0  0  0  0
  4  1  1  0  0  0  0
  6  9  1  0  0  0  0
  6 10  1  0  0  0  0
  7  2  1  0  0  0  0
  9 12  1  0  0  0  0
 11  6  1  0  0  0  0
 13  9  1  0  0  0  0
 14  9  1  0  0  0  0
M  END
$$$$
