14
butane_opt
C  -3.974971   0.293505   0.068198
C  -2.708158  -0.647731  -0.029544
H  -4.879455  -0.289267   0.137464
H  -4.064902   0.894536  -0.812199
H  -3.928052   0.972022   0.951161
C  -1.385565   0.173618  -0.026084
H  -2.735734  -1.412254  -0.956725
H  -2.629651  -1.239365   0.861365
C  -0.147828  -0.675087   0.078135
H  -1.419313   0.747603   0.782643
H  -1.199678   0.874428  -0.970267
H  -0.111651  -1.380700   1.020241
H   0.757695  -0.074093   0.046045
H  -0.217043  -1.285914  -0.701820
