14
butane_opt
C  -3.945577   0.257328  -0.001598
C  -2.728040  -0.610350   0.073732
H  -4.820695  -0.300927   0.085599
H  -3.976972   0.890822  -0.926861
H  -4.004390   0.962889   0.859068
C  -1.402627   0.194808   0.020565
H  -2.728863  -1.283680  -0.801537
H  -2.777183  -1.326670   0.998086
C  -0.133075  -0.692786   0.013817
H  -1.358450   0.789633   0.786635
H  -1.371654   0.909837  -0.922114
H  -0.192636  -1.169233   0.803034
H   0.751972  -0.125142   0.241585
H  -0.030441  -1.608668  -0.970398
