14
butane_opt
C  -3.943536   0.267405   0.080500
C  -2.663997  -0.617468  -0.003325
H  -4.820636  -0.304712   0.037443
H  -3.942396   0.785568  -0.763413
H  -3.926363   0.994320   1.000154
C  -1.413784   0.168251  -0.078133
H  -2.794901  -1.300303  -0.897860
H  -2.633275  -1.251981   0.871694
C  -0.195533  -0.673915   0.077699
H  -1.455844   0.821454   0.732292
H  -1.315904   0.879927  -0.990686
H  -0.267658  -1.298735   1.011657
H   0.736515  -0.104791   0.314604
H  -0.013560  -1.424784  -0.792575
