butane_opt
 OpenBabel08242015383D

 14 13  0  0  0  0  0  0  0  0999 V2000
   -3.9474    0.2823   -0.0253 C   0  0  0  0  0  0  0  0  0  0  0  0
   -2.6840   -0.6391    0.0504 C   0  0  0  0  0  0  0  0  0  0  0  0
   -4.8136   -0.2999    0.2838 H   0  0  0  0  0  0  0  0  0  0  0  0
   -4.0545    0.9900   -0.9783 H   0  0  0  0  0  0  0  0  0  0  0  0
   -3.8998    0.8298    0.7766 H   0  0  0  0  0  0  0  0  0  0  0  0
   -1.4188    0.1604    0.0506 C   0  0  0  0  0  0  0  0  0  0  0  0
   -2.5928   -1.2562   -0.7630 H   0  0  0  0  0  0  0  0  0  0  0  0
   -2.7081   -1.2856    0.9512 H   0  0  0  0  0  0  0  0  0  0  0  0
   -0.1713   -0.6652    0.0063 C   0  0  0  0  0  0  0  0  0  0  0  0
   -1.3333    0.9317    0.9689 H   0  0  0  0  0  0  0  0  0  0  0  0
   -1.3182    0.7092   -0.7501 H   0  0  0  0  0  0  0  0  0  0  0  0
   -0.1522   -1.2817    0.8866 H   0  0  0  0  0  0  0  0  0  0  0  0
    0.7179   -0.1249   -0.0240 H   0  0  0  0  0  0  0  0  0  0  0  0
   -0.2123   -1.3420   -0.9030 H   0  0  0  0  0  0  0  0  0  0  0  0
  1  2  1  0  0  0  0
  1  3  1  0  0  0  0
  1  5  1  0  0  0  0
  2  6  1  0  0  0  0
  2  8  1  0  0  0  0
  4  1  1  0  0  0  0
  6 10  1  0  0  0  0
  7  2  1  0  0  0  0
  9  6  1  0  0  0  0
  9 12  1  0  0  0  0
 11  6  1  0  0  0  0
 13  9  1  0  0  0  0
 14  9  1  0  0  0  0
M  END
$$$$
