14
butane_opt
C  -3.941511   0.258885  -0.007146
C  -2.700805  -0.602760   0.040430
H  -4.933721  -0.398098   0.315392
H  -4.007321   0.985610  -0.971784
H  -3.808697   0.792937   0.713086
C  -1.399042   0.194641   0.033007
H  -2.633709  -1.235709  -0.792145
H  -2.789640  -1.209634   0.980269
C  -0.158634  -0.704348   0.016998
H  -1.390004   0.949561   0.938883
H  -1.439403   0.743190  -0.784940
H  -0.184430  -1.285013   0.882469
H   0.727998  -0.124937   0.055653
H  -0.153118  -1.464847  -0.906663
