14
butane_opt
C  -3.915879   0.253557   0.021583
C  -2.711959  -0.591922   0.037346
H  -4.892033  -0.415443  -0.154440
H  -3.854113   0.644392  -0.698941
H  -3.888705   1.092612   0.982881
C  -1.428274   0.206842  -0.010546
H  -2.746385  -1.264841  -0.790795
H  -2.666958  -1.252497   0.920707
C  -0.165402  -0.713408   0.047992
H  -1.326229   0.927491   0.834332
H  -1.395335   0.839083  -0.941759
H  -0.170469  -1.457262   1.018903
H   0.709606  -0.201071  -0.116696
H  -0.124072  -1.263925  -0.745409
