14
butane_opt
C  -3.965587   0.292443  -0.026444
C  -2.694506  -0.641309   0.064232
H  -4.903650  -0.287841   0.008824
H  -3.983682   0.905131  -0.947251
H  -4.117831   0.940095   0.821277
C  -1.384873   0.173732   0.075553
H  -2.705373  -1.314056  -0.770658
H  -2.803007  -1.358580   1.017433
C  -0.146279  -0.681565  -0.016401
H  -1.215847   0.944262   0.969869
H  -1.480049   0.708702  -0.752605
H  -0.107725  -1.430351   0.940119
H   0.834459  -0.046817  -0.172317
H  -0.246450  -1.236055  -0.811313
