14
butane_opt
C  -3.939656   0.301328   0.061357
C  -2.683162  -0.636329   0.014308
H  -4.916793  -0.327576   0.072199
H  -3.981539   0.856648  -0.854272
H  -3.943296   0.957922   0.910513
C  -1.392730   0.146871  -0.066071
H  -2.772711  -1.332273  -0.840118
H  -2.602721  -1.327171   0.949611
C  -0.185189  -0.670270   0.078880
H  -1.404962   0.867000   0.802732
H  -1.356192   0.764209  -0.942090
H  -0.335809  -1.136009   0.908047
H   0.719161  -0.034381   0.211507
H  -0.028466  -1.463007  -0.864453
