butane_opt
 OpenBabel08242015383D

 14 13  0  0  0  0  0  0  0  0999 V2000
   -3.9566    0.2831   -0.0381 C   0  0  0  0  0  0  0  0  0  0  0  0
   -2.7070   -0.6200    0.1220 C   0  0  0  0  0  0  0  0  0  0  0  0
   -4.8462   -0.2719   -0.1332 H   0  0  0  0  0  0  0  0  0  0  0  0
   -3.9493    0.8342   -0.8835 H   0  0  0  0  0  0  0  0  0  0  0  0
   -4.1305    0.9958    0.8142 H   0  0  0  0  0  0  0  0  0  0  0  0
   -1.3898    0.1547    0.0539 C   0  0  0  0  0  0  0  0  0  0  0  0
   -2.6408   -1.3152   -0.7497 H   0  0  0  0  0  0  0  0  0  0  0  0
   -2.8385   -1.2926    1.0294 H   0  0  0  0  0  0  0  0  0  0  0  0
   -0.1442   -0.6807   -0.0169 C   0  0  0  0  0  0  0  0  0  0  0  0
   -1.2797    0.8135    0.8740 H   0  0  0  0  0  0  0  0  0  0  0  0
   -1.4002    0.7803   -0.8064 H   0  0  0  0  0  0  0  0  0  0  0  0
   -0.1483   -1.1858    0.8076 H   0  0  0  0  0  0  0  0  0  0  0  0
    0.7862   -0.0535   -0.0700 H   0  0  0  0  0  0  0  0  0  0  0  0
   -0.2020   -1.4198   -0.8923 H   0  0  0  0  0  0  0  0  0  0  0  0
  1  2  1  0  0  0  0
  1  5  1  0  0  0  0
  2  8  1  0  0  0  0
  3  1  1  0  0  0  0
  4  1  1  0  0  0  0
  6  2  1  0  0  0  0
  6 10  1  0  0  0  0
  7  2  1  0  0  0  0
  9  6  1  0  0  0  0
  9 12  1  0  0  0  0
 11  6  1  0  0  0  0
 13  9  1  0  0  0  0
 14  9  1  0  0  0  0
M  END
$$$$
