14
butane_opt
C  -3.950080   0.284590   0.056880
C  -2.696405  -0.624504  -0.015774
H  -4.894181  -0.332449  -0.049761
H  -3.897141   0.843104  -0.759239
H  -3.983517   1.011913   0.952439
C  -1.398917   0.166702   0.002162
H  -2.704098  -1.398861  -0.939508
H  -2.629250  -1.177971   0.815446
C  -0.170466  -0.684528   0.070040
H  -1.302667   0.753290   0.791968
H  -1.344005   0.828422  -0.862245
H  -0.148267  -1.526547   1.108207
H   0.754943  -0.049377  -0.288305
H  -0.281261  -1.128806  -0.663300
