butane_opt
 OpenBabel08242015383D

 14 13  0  0  0  0  0  0  0  0999 V2000
   -3.9434    0.2804    0.0683 C   0  0  0  0  0  0  0  0  0  0  0  0
   -2.6864   -0.6291   -0.0171 C   0  0  0  0  0  0  0  0  0  0  0  0
   -4.8303   -0.3035    0.1802 H   0  0  0  0  0  0  0  0  0  0  0  0
   -4.0744    0.9142   -0.8250 H   0  0  0  0  0  0  0  0  0  0  0  0
   -3.9093    0.9780    0.9599 H   0  0  0  0  0  0  0  0  0  0  0  0
   -1.4210    0.1450   -0.0656 C   0  0  0  0  0  0  0  0  0  0  0  0
   -2.7726   -1.3088   -0.8319 H   0  0  0  0  0  0  0  0  0  0  0  0
   -2.6028   -1.2689    0.8484 H   0  0  0  0  0  0  0  0  0  0  0  0
   -0.1676   -0.6699    0.0943 C   0  0  0  0  0  0  0  0  0  0  0  0
   -1.4173    0.8657    0.8274 H   0  0  0  0  0  0  0  0  0  0  0  0
   -1.2694    0.8056   -0.9881 H   0  0  0  0  0  0  0  0  0  0  0  0
   -0.3177   -1.2474    0.9221 H   0  0  0  0  0  0  0  0  0  0  0  0
    0.8040   -0.0021    0.1726 H   0  0  0  0  0  0  0  0  0  0  0  0
   -0.0274   -1.4081   -0.8037 H   0  0  0  0  0  0  0  0  0  0  0  0
  1  3  1  0  0  0  0
  1  5  1  0  0  0  0
  2  1  1  0  0  0  0
  2  8  1  0  0  0  0
  4  1  1  0  0  0  0
  6  2  1  0  0  0  0
  6  9  1  0  0  0  0
  6 10  1  0  0  0  0
  7  2  1  0  0  0  0
  9 13  1  0  0  0  0
  9 12  1  0  0  0  0
 11  6  1  0  0  0  0
 14  9  1  0  0  0  0
M  END
$$$$
