14
butane_opt
C  -3.939597   0.278649   0.057747
C  -2.681367  -0.630415  -0.008311
H  -4.813980  -0.255003  -0.053891
H  -3.923239   0.859821  -0.829500
H  -4.003271   1.038181   1.026894
C  -1.396674   0.141760  -0.010154
H  -2.776945  -1.375584  -0.923297
H  -2.679844  -1.142679   0.841425
C  -0.189770  -0.672292   0.062777
H  -1.355128   0.833212   0.855747
H  -1.394944   0.848842  -0.956033
H  -0.150516  -1.510150   1.105144
H   0.802447  -0.017589  -0.157605
H  -0.254055  -1.148034  -0.664722
