butane_opt
 OpenBabel08242015383D

 14 13  0  0  0  0  0  0  0  0999 V2000
   -3.9543    0.2796   -0.0128 C   0  0  0  0  0  0  0  0  0  0  0  0
   -2.6837   -0.6420    0.0980 C   0  0  0  0  0  0  0  0  0  0  0  0
   -4.8564   -0.3251    0.0575 H   0  0  0  0  0  0  0  0  0  0  0  0
   -3.8465    0.9852   -0.9872 H   0  0  0  0  0  0  0  0  0  0  0  0
   -4.0244    0.8505    0.7504 H   0  0  0  0  0  0  0  0  0  0  0  0
   -1.4105    0.1760    0.0324 C   0  0  0  0  0  0  0  0  0  0  0  0
   -2.7104   -1.2879   -0.7349 H   0  0  0  0  0  0  0  0  0  0  0  0
   -2.6812   -1.3215    1.0224 H   0  0  0  0  0  0  0  0  0  0  0  0
   -0.1701   -0.6787   -0.0075 C   0  0  0  0  0  0  0  0  0  0  0  0
   -1.4027    0.8847    0.9006 H   0  0  0  0  0  0  0  0  0  0  0  0
   -1.3667    0.8778   -0.8559 H   0  0  0  0  0  0  0  0  0  0  0  0
   -0.2320   -1.0937    0.7456 H   0  0  0  0  0  0  0  0  0  0  0  0
    0.7331   -0.0898    0.2335 H   0  0  0  0  0  0  0  0  0  0  0  0
   -0.0274   -1.5795   -1.0506 H   0  0  0  0  0  0  0  0  0  0  0  0
  1  3  1  0  0  0  0
  1  2  1  0  0  0  0
  1  5  1  0  0  0  0
  2  8  1  0  0  0  0
  4  1  1  0  0  0  0
  6  2  1  0  0  0  0
  6 10  1  0  0  0  0
  7  2  1  0  0  0  0
  9  6  1  0  0  0  0
  9 13  1  0  0  0  0
  9 12  1  0  0  0  0
 11  6  1  0  0  0  0
 14  9  1  0  0  0  0
M  END
$$$$
