butane_opt
 OpenBabel08242015383D

 14 13  0  0  0  0  0  0  0  0999 V2000
   -3.9379    0.2621   -0.0185 C   0  0  0  0  0  0  0  0  0  0  0  0
   -2.7018   -0.5984    0.0633 C   0  0  0  0  0  0  0  0  0  0  0  0
   -4.8551   -0.3540    0.0665 H   0  0  0  0  0  0  0  0  0  0  0  0
   -3.9467    0.9213   -0.9249 H   0  0  0  0  0  0  0  0  0  0  0  0
   -3.9860    0.8624    0.8063 H   0  0  0  0  0  0  0  0  0  0  0  0
   -1.4101    0.1849    0.0615 C   0  0  0  0  0  0  0  0  0  0  0  0
   -2.6971   -1.2876   -0.7959 H   0  0  0  0  0  0  0  0  0  0  0  0
   -2.7719   -1.2842    0.9829 H   0  0  0  0  0  0  0  0  0  0  0  0
   -0.1547   -0.6992    0.0016 C   0  0  0  0  0  0  0  0  0  0  0  0
   -1.3372    0.8374    0.9111 H   0  0  0  0  0  0  0  0  0  0  0  0
   -1.4314    0.8106   -0.8407 H   0  0  0  0  0  0  0  0  0  0  0  0
   -0.0772   -1.2819    0.8576 H   0  0  0  0  0  0  0  0  0  0  0  0
    0.7463   -0.1026   -0.0482 H   0  0  0  0  0  0  0  0  0  0  0  0
   -0.2087   -1.3795   -0.8709 H   0  0  0  0  0  0  0  0  0  0  0  0
  1  2  1  0  0  0  0
  1  3  1  0  0  0  0
  1  5  1  0  0  0  0
  2  8  1  0  0  0  0
  4  1  1  0  0  0  0
  6  2  1  0  0  0  0
  6 10  1  0  0  0  0
  7  2  1  0  0  0  0
  9  6  1  0  0  0  0
  9 12  1  0  0  0  0
 11  6  1  0  0  0  0
 13  9  1  0  0  0  0
 14  9  1  0  0  0  0
M  END
$$$$
