butane_opt
 OpenBabel08242015383D

 14 13  0  0  0  0  0  0  0  0999 V2000
   -3.9308    0.2463    0.0531 C   0  0  0  0  0  0  0  0  0  0  0  0
   -2.7269   -0.6013   -0.0393 C   0  0  0  0  0  0  0  0  0  0  0  0
   -4.8616   -0.3679    0.3222 H   0  0  0  0  0  0  0  0  0  0  0  0
   -4.1656    0.9571   -0.8863 H   0  0  0  0  0  0  0  0  0  0  0  0
   -3.7899    0.9013    0.9346 H   0  0  0  0  0  0  0  0  0  0  0  0
   -1.3976    0.2030   -0.0193 C   0  0  0  0  0  0  0  0  0  0  0  0
   -2.8178   -1.2828   -0.9130 H   0  0  0  0  0  0  0  0  0  0  0  0
   -2.7395   -1.2525    0.8667 H   0  0  0  0  0  0  0  0  0  0  0  0
   -0.1352   -0.7058    0.0758 C   0  0  0  0  0  0  0  0  0  0  0  0
   -1.4694    0.8941    0.8384 H   0  0  0  0  0  0  0  0  0  0  0  0
   -1.3735    0.8819   -0.8968 H   0  0  0  0  0  0  0  0  0  0  0  0
   -0.1881   -1.3603    1.0607 H   0  0  0  0  0  0  0  0  0  0  0  0
    0.6849   -0.1948    0.0442 H   0  0  0  0  0  0  0  0  0  0  0  0
   -0.0035   -1.3698   -0.7895 H   0  0  0  0  0  0  0  0  0  0  0  0
  1  3  1  0  0  0  0
  1  5  1  0  0  0  0
  2  6  1  0  0  0  0
  2  1  1  0  0  0  0
  2  8  1  0  0  0  0
  4  1  1  0  0  0  0
  6  9  1  0  0  0  0
  6 10  1  0  0  0  0
  7  2  1  0  0  0  0
  9 12  1  0  0  0  0
 11  6  1  0  0  0  0
 13  9  1  0  0  0  0
 14  9  1  0  0  0  0
M  END
$$$$
