14
butane_opt
C  -3.933510   0.235948   0.066773
C  -2.721330  -0.605634  -0.004550
H  -4.824498  -0.384788   0.128195
H  -4.098501   0.883210  -0.836805
H  -3.849940   0.975140   1.019906
C  -1.408181   0.234286  -0.053385
H  -2.796125  -1.304132  -0.905133
H  -2.688807  -1.172149   0.803742
C  -0.139515  -0.727117   0.090011
H  -1.432302   0.779536   0.677058
H  -1.380163   0.975984  -1.008312
H  -0.214347  -1.253630   0.938504
H   0.741122  -0.175281   0.253485
H  -0.022835  -1.457541  -0.820337
