butane_opt
 OpenBabel08242015383D

 14 13  0  0  0  0  0  0  0  0999 V2000
   -3.9541    0.2421    0.0370 C   0  0  0  0  0  0  0  0  0  0  0  0
   -2.7341   -0.5770   -0.0030 C   0  0  0  0  0  0  0  0  0  0  0  0
   -4.8649   -0.3056    0.1851 H   0  0  0  0  0  0  0  0  0  0  0  0
   -3.9792    0.8995   -0.8838 H   0  0  0  0  0  0  0  0  0  0  0  0
   -3.8622    0.8337    0.8820 H   0  0  0  0  0  0  0  0  0  0  0  0
   -1.4013    0.1984   -0.0017 C   0  0  0  0  0  0  0  0  0  0  0  0
   -2.7682   -1.3221   -0.8797 H   0  0  0  0  0  0  0  0  0  0  0  0
   -2.7212   -1.2120    0.8915 H   0  0  0  0  0  0  0  0  0  0  0  0
   -0.1327   -0.7168    0.0704 C   0  0  0  0  0  0  0  0  0  0  0  0
   -1.3880    0.8362    0.8556 H   0  0  0  0  0  0  0  0  0  0  0  0
   -1.3649    0.8983   -0.9323 H   0  0  0  0  0  0  0  0  0  0  0  0
   -0.0531   -1.2909    0.9356 H   0  0  0  0  0  0  0  0  0  0  0  0
    0.7615   -0.1540   -0.0301 H   0  0  0  0  0  0  0  0  0  0  0  0
   -0.1176   -1.4124   -0.8272 H   0  0  0  0  0  0  0  0  0  0  0  0
  1  3  1  0  0  0  0
  1  5  1  0  0  0  0
  2  6  1  0  0  0  0
  2  1  1  0  0  0  0
  2  8  1  0  0  0  0
  4  1  1  0  0  0  0
  6  9  1  0  0  0  0
  6 10  1  0  0  0  0
  7  2  1  0  0  0  0
  9 12  1  0  0  0  0
 11  6  1  0  0  0  0
 13  9  1  0  0  0  0
 14  9  1  0  0  0  0
M  END
$$$$
