butane_opt
 OpenBabel08242015383D

 14 13  0  0  0  0  0  0  0  0999 V2000
   -3.9097    0.2350    0.0651 C   0  0  0  0  0  0  0  0  0  0  0  0
   -2.6862   -0.5959   -0.0098 C   0  0  0  0  0  0  0  0  0  0  0  0
   -4.8457   -0.3933   -0.0395 H   0  0  0  0  0  0  0  0  0  0  0  0
   -3.9297    0.7453   -0.7795 H   0  0  0  0  0  0  0  0  0  0  0  0
   -4.0222    1.0716    1.0013 H   0  0  0  0  0  0  0  0  0  0  0  0
   -1.4356    0.2110   -0.0307 C   0  0  0  0  0  0  0  0  0  0  0  0
   -2.7633   -1.2902   -0.9185 H   0  0  0  0  0  0  0  0  0  0  0  0
   -2.6494   -1.1242    0.8029 H   0  0  0  0  0  0  0  0  0  0  0  0
   -0.1731   -0.7118    0.0841 C   0  0  0  0  0  0  0  0  0  0  0  0
   -1.3906    0.8616    0.7799 H   0  0  0  0  0  0  0  0  0  0  0  0
   -1.4079    0.8307   -0.9379 H   0  0  0  0  0  0  0  0  0  0  0  0
   -0.0630   -1.4910    1.0966 H   0  0  0  0  0  0  0  0  0  0  0  0
    0.7474   -0.1566   -0.1822 H   0  0  0  0  0  0  0  0  0  0  0  0
   -0.2187   -1.1949   -0.6481 H   0  0  0  0  0  0  0  0  0  0  0  0
  1  5  1  0  0  0  0
  2  1  1  0  0  0  0
  2  8  1  0  0  0  0
  3  1  1  0  0  0  0
  4  1  1  0  0  0  0
  6  2  1  0  0  0  0
  6  9  1  0  0  0  0
  6 10  1  0  0  0  0
  7  2  1  0  0  0  0
  9 12  1  0  0  0  0
 11  6  1  0  0  0  0
 13  9  1  0  0  0  0
 14  9  1  0  0  0  0
M  END
$$$$
