butane_opt
 OpenBabel08242015383D

 14 13  0  0  0  0  0  0  0  0999 V2000
   -3.9130    0.2536    0.0060 C   0  0  0  0  0  0  0  0  0  0  0  0
   -2.6943   -0.6197    0.0462 C   0  0  0  0  0  0  0  0  0  0  0  0
   -4.8436   -0.3603    0.1936 H   0  0  0  0  0  0  0  0  0  0  0  0
   -4.0004    1.0568   -1.0160 H   0  0  0  0  0  0  0  0  0  0  0  0
   -3.9184    0.7853    0.7624 H   0  0  0  0  0  0  0  0  0  0  0  0
   -1.4128    0.2085    0.0462 C   0  0  0  0  0  0  0  0  0  0  0  0
   -2.6685   -1.3401   -0.7999 H   0  0  0  0  0  0  0  0  0  0  0  0
   -2.7358   -1.1583    0.9040 H   0  0  0  0  0  0  0  0  0  0  0  0
   -0.1817   -0.7119    0.0026 C   0  0  0  0  0  0  0  0  0  0  0  0
   -1.4375    0.8814    0.9066 H   0  0  0  0  0  0  0  0  0  0  0  0
   -1.4708    0.8072   -0.8492 H   0  0  0  0  0  0  0  0  0  0  0  0
   -0.1359   -1.2913    0.8800 H   0  0  0  0  0  0  0  0  0  0  0  0
    0.7478   -0.0929    0.1173 H   0  0  0  0  0  0  0  0  0  0  0  0
   -0.1332   -1.3244   -0.8770 H   0  0  0  0  0  0  0  0  0  0  0  0
  1  2  1  0  0  0  0
  1  3  1  0  0  0  0
  1  5  1  0  0  0  0
  2  6  1  0  0  0  0
  2  8  1  0  0  0  0
  4  1  1  0  0  0  0
  6 10  1  0  0  0  0
  7  2  1  0  0  0  0
  9  6  1  0  0  0  0
  9 13  1  0  0  0  0
  9 12  1  0  0  0  0
 11  6  1  0  0  0  0
 14  9  1  0  0  0  0
M  END
$$$$
