butane_opt
 OpenBabel08242015383D

 14 13  0  0  0  0  0  0  0  0999 V2000
   -3.9750    0.2935    0.0682 C   0  0  0  0  0  0  0  0  0  0  0  0
   -2.7082   -0.6477   -0.0295 C   0  0  0  0  0  0  0  0  0  0  0  0
   -4.8795   -0.2893    0.1375 H   0  0  0  0  0  0  0  0  0  0  0  0
   -4.0649    0.8945   -0.8122 H   0  0  0  0  0  0  0  0  0  0  0  0
   -3.9281    0.9720    0.9512 H   0  0  0  0  0  0  0  0  0  0  0  0
   -1.3856    0.1736   -0.0261 C   0  0  0  0  0  0  0  0  0  0  0  0
   -2.7357   -1.4123   -0.9567 H   0  0  0  0  0  0  0  0  0  0  0  0
   -2.6297   -1.2394    0.8614 H   0  0  0  0  0  0  0  0  0  0  0  0
   -0.1478   -0.6751    0.0781 C   0  0  0  0  0  0  0  0  0  0  0  0
   -1.4193    0.7476    0.7826 H   0  0  0  0  0  0  0  0  0  0  0  0
   -1.1997    0.8744   -0.9703 H   0  0  0  0  0  0  0  0  0  0  0  0
   -0.1117   -1.3807    1.0202 H   0  0  0  0  0  0  0  0  0  0  0  0
    0.7577   -0.0741    0.0460 H   0  0  0  0  0  0  0  0  0  0  0  0
   -0.2170   -1.2859   -0.7018 H   0  0  0  0  0  0  0  0  0  0  0  0
  1  3  1  0  0  0  0
  1  5  1  0  0  0  0
  2  6  1  0  0  0  0
  2  1  1  0  0  0  0
  2  8  1  0  0  0  0
  4  1  1  0  0  0  0
  6  9  1  0  0  0  0
  6 10  1  0  0  0  0
  7  2  1  0  0  0  0
  9 12  1  0  0  0  0
 11  6  1  0  0  0  0
 13  9  1  0  0  0  0
 14  9  1  0  0  0  0
M  END
$$$$
