14
butane_opt
C  -3.942397   0.280334   0.040998
C  -2.682180  -0.636320   0.032365
H  -4.806037  -0.253706  -0.196975
H  -3.870800   0.688109  -0.691232
H  -4.014424   1.152342   1.055107
C  -1.410738   0.158405  -0.035807
H  -2.739206  -1.351227  -0.851398
H  -2.610437  -1.235048   0.917206
C  -0.179432  -0.683405   0.066587
H  -1.402364   0.803418   0.773623
H  -1.356838   0.880146  -1.031017
H  -0.168706  -1.326541   0.981336
H   0.775841   0.006491  -0.016124
H  -0.265561  -1.259346  -0.724539
