butane_opt
 OpenBabel08242015383D

 14 13  0  0  0  0  0  0  0  0999 V2000
   -3.9556    0.2581   -0.0344 C   0  0  0  0  0  0  0  0  0  0  0  0
   -2.7271   -0.5978    0.1039 C   0  0  0  0  0  0  0  0  0  0  0  0
   -4.9119   -0.4075    0.1147 H   0  0  0  0  0  0  0  0  0  0  0  0
   -3.9561    0.9952   -1.0256 H   0  0  0  0  0  0  0  0  0  0  0  0
   -3.9112    0.7611    0.7871 H   0  0  0  0  0  0  0  0  0  0  0  0
   -1.4116    0.2205    0.0414 C   0  0  0  0  0  0  0  0  0  0  0  0
   -2.6981   -1.2310   -0.6877 H   0  0  0  0  0  0  0  0  0  0  0  0
   -2.7905   -1.2999    1.0021 H   0  0  0  0  0  0  0  0  0  0  0  0
   -0.1178   -0.7152   -0.0175 C   0  0  0  0  0  0  0  0  0  0  0  0
   -1.3286    0.8803    0.9156 H   0  0  0  0  0  0  0  0  0  0  0  0
   -1.4137    0.7460   -0.7674 H   0  0  0  0  0  0  0  0  0  0  0  0
   -0.2147   -1.1355    0.7700 H   0  0  0  0  0  0  0  0  0  0  0  0
    0.7644   -0.1470    0.1954 H   0  0  0  0  0  0  0  0  0  0  0  0
   -0.0109   -1.6201   -1.0252 H   0  0  0  0  0  0  0  0  0  0  0  0
  1  2  1  0  0  0  0
  1  3  1  0  0  0  0
  1  5  1  0  0  0  0
  2  8  1  0  0  0  0
  4  1  1  0  0  0  0
  6  2  1  0  0  0  0
  6 10  1  0  0  0  0
  7  2  1  0  0  0  0
  9  6  1  0  0  0  0
  9 13  1  0  0  0  0
  9 12  1  0  0  0  0
 11  6  1  0  0  0  0
 14  9  1  0  0  0  0
M  END
$$$$
