butane_opt
 OpenBabel08242015383D

 14 13  0  0  0  0  0  0  0  0999 V2000
   -3.9397    0.2715    0.0025 C   0  0  0  0  0  0  0  0  0  0  0  0
   -2.6827   -0.6288    0.0487 C   0  0  0  0  0  0  0  0  0  0  0  0
   -4.8388   -0.2926    0.1121 H   0  0  0  0  0  0  0  0  0  0  0  0
   -4.0891    0.9298   -0.8722 H   0  0  0  0  0  0  0  0  0  0  0  0
   -3.8617    0.9231    0.8947 H   0  0  0  0  0  0  0  0  0  0  0  0
   -1.4078    0.1588   -0.0007 C   0  0  0  0  0  0  0  0  0  0  0  0
   -2.6619   -1.2372   -0.7605 H   0  0  0  0  0  0  0  0  0  0  0  0
   -2.6630   -1.2961    0.9911 H   0  0  0  0  0  0  0  0  0  0  0  0
   -0.1661   -0.6849    0.0298 C   0  0  0  0  0  0  0  0  0  0  0  0
   -1.4376    0.8995    0.8788 H   0  0  0  0  0  0  0  0  0  0  0  0
   -1.4148    0.8180   -0.9514 H   0  0  0  0  0  0  0  0  0  0  0  0
   -0.3081   -1.1484    0.8404 H   0  0  0  0  0  0  0  0  0  0  0  0
    0.7869    0.0022    0.2244 H   0  0  0  0  0  0  0  0  0  0  0  0
   -0.1782   -1.4743   -0.9020 H   0  0  0  0  0  0  0  0  0  0  0  0
  1  2  1  0  0  0  0
  1  3  1  0  0  0  0
  1  5  1  0  0  0  0
  2  8  1  0  0  0  0
  4  1  1  0  0  0  0
  6  9  1  0  0  0  0
  6  2  1  0  0  0  0
  6 10  1  0  0  0  0
  7  2  1  0  0  0  0
  9 13  1  0  0  0  0
  9 12  1  0  0  0  0
 11  6  1  0  0  0  0
 14  9  1  0  0  0  0
M  END
$$$$
