14
butane_opt
C  -3.939806   0.274622   0.021114
C  -2.685260  -0.622531   0.047445
H  -4.835739  -0.290059  -0.108992
H  -3.977414   0.748739  -0.763732
H  -3.984022   1.064215   0.951130
C  -1.411340   0.159716  -0.004185
H  -2.725766  -1.310717  -0.801475
H  -2.696927  -1.225756   0.903749
C  -0.171564  -0.680115   0.044918
H  -1.396734   0.777712   0.788747
H  -1.394295   0.854409  -0.955434
H  -0.155539  -1.305750   0.943828
H   0.790775  -0.045584   0.000673
H  -0.165135  -1.314923  -0.817272
