butane_opt
 OpenBabel08242015383D

 14 13  0  0  0  0  0  0  0  0999 V2000
   -3.9657    0.2832    0.0573 C   0  0  0  0  0  0  0  0  0  0  0  0
   -2.7043   -0.6373   -0.0216 C   0  0  0  0  0  0  0  0  0  0  0  0
   -4.8780   -0.3018    0.2124 H   0  0  0  0  0  0  0  0  0  0  0  0
   -4.1219    0.8290   -0.7500 H   0  0  0  0  0  0  0  0  0  0  0  0
   -3.8787    1.0404    1.0311 H   0  0  0  0  0  0  0  0  0  0  0  0
   -1.3914    0.1641   -0.0637 C   0  0  0  0  0  0  0  0  0  0  0  0
   -2.7682   -1.3564   -0.8831 H   0  0  0  0  0  0  0  0  0  0  0  0
   -2.6417   -1.2905    0.8885 H   0  0  0  0  0  0  0  0  0  0  0  0
   -0.1301   -0.6749    0.0942 C   0  0  0  0  0  0  0  0  0  0  0  0
   -1.4448    0.8173    0.7713 H   0  0  0  0  0  0  0  0  0  0  0  0
   -1.4020    0.8584   -1.0445 H   0  0  0  0  0  0  0  0  0  0  0  0
   -0.3033   -1.2120    0.9663 H   0  0  0  0  0  0  0  0  0  0  0  0
    0.7710   -0.1146    0.2098 H   0  0  0  0  0  0  0  0  0  0  0  0
   -0.0583   -1.3572   -0.7513 H   0  0  0  0  0  0  0  0  0  0  0  0
  1  3  1  0  0  0  0
  1  5  1  0  0  0  0
  2  1  1  0  0  0  0
  2  8  1  0  0  0  0
  4  1  1  0  0  0  0
  6  2  1  0  0  0  0
  6  9  1  0  0  0  0
  6 10  1  0  0  0  0
  7  2  1  0  0  0  0
  9 13  1  0  0  0  0
  9 12  1  0  0  0  0
 11  6  1  0  0  0  0
 14  9  1  0  0  0  0
M  END
$$$$
