14
butane_opt
C  -3.932896   0.251165  -0.038379
C  -2.723026  -0.608017   0.075534
H  -4.875136  -0.384568   0.040221
H  -3.906335   0.944337  -0.950662
H  -4.009623   0.898520   0.818180
C  -1.401226   0.202463   0.097011
H  -2.600680  -1.243000  -0.758689
H  -2.799399  -1.207218   0.935759
C  -0.165685  -0.702920  -0.018428
H  -1.280931   0.856854   0.916629
H  -1.445591   0.860765  -0.781604
H   0.068247  -1.394779   0.890003
H   0.704112  -0.174896  -0.190611
H  -0.194541  -1.350166  -0.850205
