14
butane_opt
C  -3.947145   0.260527  -0.002100
C  -2.686183  -0.608216   0.080858
H  -4.910838  -0.373165  -0.183727
H  -3.775310   0.734524  -0.796091
H  -4.071823   1.040380   0.896854
C  -1.411533   0.194112   0.024479
H  -2.683263  -1.250411  -0.772062
H  -2.739645  -1.235792   0.952435
C  -0.168875  -0.702455   0.002804
H  -1.320236   0.819079   0.835815
H  -1.522468   0.852522  -0.841992
H  -0.087565  -1.376367   0.953189
H   0.805752  -0.047595  -0.028171
H  -0.159836  -1.369079  -0.816691
