butane_opt
 OpenBabel08242015383D

 14 13  0  0  0  0  0  0  0  0999 V2000
   -3.9489    0.2626    0.0529 C   0  0  0  0  0  0  0  0  0  0  0  0
   -2.7091   -0.6148    0.0035 C   0  0  0  0  0  0  0  0  0  0  0  0
   -4.8467   -0.3266    0.1679 H   0  0  0  0  0  0  0  0  0  0  0  0
   -3.9815    0.9231   -0.8701 H   0  0  0  0  0  0  0  0  0  0  0  0
   -3.8898    0.8422    0.8420 H   0  0  0  0  0  0  0  0  0  0  0  0
   -1.4002    0.1941   -0.0124 C   0  0  0  0  0  0  0  0  0  0  0  0
   -2.7825   -1.3284   -0.9230 H   0  0  0  0  0  0  0  0  0  0  0  0
   -2.6979   -1.1588    0.8350 H   0  0  0  0  0  0  0  0  0  0  0  0
   -0.1555   -0.6951    0.0558 C   0  0  0  0  0  0  0  0  0  0  0  0
   -1.4309    0.8499    0.8161 H   0  0  0  0  0  0  0  0  0  0  0  0
   -1.3380    0.8370   -0.9199 H   0  0  0  0  0  0  0  0  0  0  0  0
   -0.1336   -1.3647    0.9830 H   0  0  0  0  0  0  0  0  0  0  0  0
    0.7179   -0.1620    0.0921 H   0  0  0  0  0  0  0  0  0  0  0  0
   -0.0797   -1.3475   -0.7812 H   0  0  0  0  0  0  0  0  0  0  0  0
  1  3  1  0  0  0  0
  1  5  1  0  0  0  0
  2  1  1  0  0  0  0
  2  8  1  0  0  0  0
  4  1  1  0  0  0  0
  6  2  1  0  0  0  0
  6  9  1  0  0  0  0
  6 10  1  0  0  0  0
  7  2  1  0  0  0  0
  9 13  1  0  0  0  0
  9 12  1  0  0  0  0
 11  6  1  0  0  0  0
 14  9  1  0  0  0  0
M  END
$$$$
