butane_opt
 OpenBabel08242015383D

 14 13  0  0  0  0  0  0  0  0999 V2000
   -3.9477    0.2799   -0.0401 C   0  0  0  0  0  0  0  0  0  0  0  0
   -2.6698   -0.6428    0.1119 C   0  0  0  0  0  0  0  0  0  0  0  0
   -4.8395   -0.3192   -0.1932 H   0  0  0  0  0  0  0  0  0  0  0  0
   -3.7718    0.7634   -0.8843 H   0  0  0  0  0  0  0  0  0  0  0  0
   -4.1092    1.0667    0.8362 H   0  0  0  0  0  0  0  0  0  0  0  0
   -1.3995    0.1748    0.0743 C   0  0  0  0  0  0  0  0  0  0  0  0
   -2.6358   -1.2232   -0.6768 H   0  0  0  0  0  0  0  0  0  0  0  0
   -2.6711   -1.3190    1.0440 H   0  0  0  0  0  0  0  0  0  0  0  0
   -0.1964   -0.6702   -0.0210 C   0  0  0  0  0  0  0  0  0  0  0  0
   -1.3925    0.7825    0.8584 H   0  0  0  0  0  0  0  0  0  0  0  0
   -1.4300    0.8740   -0.8146 H   0  0  0  0  0  0  0  0  0  0  0  0
   -0.0792   -1.2830    0.8399 H   0  0  0  0  0  0  0  0  0  0  0  0
    0.7447   -0.0651   -0.0879 H   0  0  0  0  0  0  0  0  0  0  0  0
   -0.2891   -1.4550   -0.9749 H   0  0  0  0  0  0  0  0  0  0  0  0
  1  2  1  0  0  0  0
  1  5  1  0  0  0  0
  2  8  1  0  0  0  0
  3  1  1  0  0  0  0
  4  1  1  0  0  0  0
  6  2  1  0  0  0  0
  6 10  1  0  0  0  0
  7  2  1  0  0  0  0
  9  6  1  0  0  0  0
  9 12  1  0  0  0  0
 11  6  1  0  0  0  0
 13  9  1  0  0  0  0
 14  9  1  0  0  0  0
M  END
$$$$
