14
butane_opt
C  -3.930767   0.246317   0.053096
C  -2.726892  -0.601251  -0.039313
H  -4.861554  -0.367950   0.322227
H  -4.165599   0.957105  -0.886274
H  -3.789878   0.901323   0.934633
C  -1.397551   0.203047  -0.019287
H  -2.817777  -1.282797  -0.912990
H  -2.739454  -1.252457   0.866722
C  -0.135166  -0.705752   0.075789
H  -1.469422   0.894107   0.838426
H  -1.373509   0.881908  -0.896764
H  -0.188110  -1.360288   1.060678
H   0.684945  -0.194813   0.044220
H  -0.003547  -1.369819  -0.789453
