14
butane_opt
C  -3.939728   0.271500   0.002464
C  -2.682683  -0.628771   0.048662
H  -4.838844  -0.292560   0.112082
H  -4.089135   0.929841  -0.872209
H  -3.861743   0.923109   0.894704
C  -1.407795   0.158813  -0.000709
H  -2.661899  -1.237248  -0.760484
H  -2.662969  -1.296054   0.991077
C  -0.166051  -0.684943   0.029820
H  -1.437632   0.899456   0.878779
H  -1.414845   0.817984  -0.951360
H  -0.308099  -1.148413   0.840354
H   0.786853   0.002207   0.224428
H  -0.178204  -1.474265  -0.901963
