butane_opt
 OpenBabel08242015383D

 14 13  0  0  0  0  0  0  0  0999 V2000
   -3.9514    0.2701    0.0486 C   0  0  0  0  0  0  0  0  0  0  0  0
   -2.7031   -0.6284    0.0230 C   0  0  0  0  0  0  0  0  0  0  0  0
   -4.8481   -0.3274    0.0559 H   0  0  0  0  0  0  0  0  0  0  0  0
   -4.0118    0.8589   -0.8467 H   0  0  0  0  0  0  0  0  0  0  0  0
   -3.9936    0.9412    0.8946 H   0  0  0  0  0  0  0  0  0  0  0  0
   -1.4069    0.1857   -0.0277 C   0  0  0  0  0  0  0  0  0  0  0  0
   -2.7045   -1.3509   -0.8637 H   0  0  0  0  0  0  0  0  0  0  0  0
   -2.6841   -1.2155    0.8763 H   0  0  0  0  0  0  0  0  0  0  0  0
   -0.1532   -0.6895    0.0611 C   0  0  0  0  0  0  0  0  0  0  0  0
   -1.3625    0.8816    0.8039 H   0  0  0  0  0  0  0  0  0  0  0  0
   -1.3451    0.8607   -0.9587 H   0  0  0  0  0  0  0  0  0  0  0  0
   -0.1805   -1.2716    0.9349 H   0  0  0  0  0  0  0  0  0  0  0  0
    0.7264   -0.1145    0.0802 H   0  0  0  0  0  0  0  0  0  0  0  0
   -0.0410   -1.3972   -0.7978 H   0  0  0  0  0  0  0  0  0  0  0  0
  1  3  1  0  0  0  0
  1  5  1  0  0  0  0
  2  1  1  0  0  0  0
  2  8  1  0  0  0  0
  4  1  1  0  0  0  0
  6  2  1  0  0  0  0
  6  9  1  0  0  0  0
  6 10  1  0  0  0  0
  7  2  1  0  0  0  0
  9 13  1  0  0  0  0
  9 12  1  0  0  0  0
 11  6  1  0  0  0  0
 14  9  1  0  0  0  0
M  END
$$$$
