14
butane_opt
C  -3.944037   0.244856  -0.008969
C  -2.700821  -0.607351   0.053395
H  -4.858884  -0.377717   0.046217
H  -3.959492   0.950099  -0.968492
H  -3.960283   0.944067   0.813119
C  -1.422696   0.199339   0.043539
H  -2.803380  -1.273878  -0.809398
H  -2.737310  -1.248394   0.949091
C  -0.128589  -0.697752   0.002973
H  -1.371792   0.994148   1.036329
H  -1.444888   0.730299  -0.770017
H   0.018970  -1.463058   0.998736
H   0.693250  -0.167367  -0.141188
H  -0.238131  -1.233915  -0.795173
