butane_opt
 OpenBabel08242015383D

 14 13  0  0  0  0  0  0  0  0999 V2000
   -3.9424    0.2588    0.0421 C   0  0  0  0  0  0  0  0  0  0  0  0
   -2.6916   -0.6169    0.0101 C   0  0  0  0  0  0  0  0  0  0  0  0
   -4.8054   -0.2853    0.0298 H   0  0  0  0  0  0  0  0  0  0  0  0
   -3.9608    0.8519   -0.8414 H   0  0  0  0  0  0  0  0  0  0  0  0
   -3.9781    0.9745    0.9385 H   0  0  0  0  0  0  0  0  0  0  0  0
   -1.4103    0.1772    0.0006 C   0  0  0  0  0  0  0  0  0  0  0  0
   -2.7195   -1.3513   -0.9048 H   0  0  0  0  0  0  0  0  0  0  0  0
   -2.7117   -1.1581    0.8521 H   0  0  0  0  0  0  0  0  0  0  0  0
   -0.1659   -0.6895    0.0531 C   0  0  0  0  0  0  0  0  0  0  0  0
   -1.3925    0.8513    0.8632 H   0  0  0  0  0  0  0  0  0  0  0  0
   -1.3805    0.8638   -0.9281 H   0  0  0  0  0  0  0  0  0  0  0  0
   -0.1508   -1.4523    1.0123 H   0  0  0  0  0  0  0  0  0  0  0  0
    0.7661   -0.0876   -0.1159 H   0  0  0  0  0  0  0  0  0  0  0  0
   -0.1708   -1.2266   -0.7166 H   0  0  0  0  0  0  0  0  0  0  0  0
  1  5  1  0  0  0  0
  2  1  1  0  0  0  0
  2  8  1  0  0  0  0
  3  1  1  0  0  0  0
  4  1  1  0  0  0  0
  6  2  1  0  0  0  0
  6  9  1  0  0  0  0
  6 10  1  0  0  0  0
  7  2  1  0  0  0  0
  9 12  1  0  0  0  0
 11  6  1  0  0  0  0
 13  9  1  0  0  0  0
 14  9  1  0  0  0  0
M  END
$$$$
