butane_opt
 OpenBabel08242015383D

 14 13  0  0  0  0  0  0  0  0999 V2000
   -3.9425    0.2885   -0.0511 C   0  0  0  0  0  0  0  0  0  0  0  0
   -2.6940   -0.6434    0.0728 C   0  0  0  0  0  0  0  0  0  0  0  0
   -4.8781   -0.3460    0.0242 H   0  0  0  0  0  0  0  0  0  0  0  0
   -3.9383    0.9168   -0.9481 H   0  0  0  0  0  0  0  0  0  0  0  0
   -3.9660    0.8765    0.7832 H   0  0  0  0  0  0  0  0  0  0  0  0
   -1.3970    0.1828    0.1065 C   0  0  0  0  0  0  0  0  0  0  0  0
   -2.6192   -1.2162   -0.6905 H   0  0  0  0  0  0  0  0  0  0  0  0
   -2.8473   -1.3191    1.0177 H   0  0  0  0  0  0  0  0  0  0  0  0
   -0.1816   -0.6922   -0.0264 C   0  0  0  0  0  0  0  0  0  0  0  0
   -1.2887    0.9857    1.0180 H   0  0  0  0  0  0  0  0  0  0  0  0
   -1.4220    0.7331   -0.7317 H   0  0  0  0  0  0  0  0  0  0  0  0
    0.0221   -1.3682    0.9063 H   0  0  0  0  0  0  0  0  0  0  0  0
    0.7349   -0.1161   -0.3085 H   0  0  0  0  0  0  0  0  0  0  0  0
   -0.2495   -1.2436   -0.8452 H   0  0  0  0  0  0  0  0  0  0  0  0
  1  3  1  0  0  0  0
  1  2  1  0  0  0  0
  1  5  1  0  0  0  0
  2  6  1  0  0  0  0
  2  8  1  0  0  0  0
  4  1  1  0  0  0  0
  6 10  1  0  0  0  0
  7  2  1  0  0  0  0
  9  6  1  0  0  0  0
  9 12  1  0  0  0  0
 11  6  1  0  0  0  0
 13  9  1  0  0  0  0
 14  9  1  0  0  0  0
M  END
$$$$
