butane_opt
 OpenBabel08242015383D

 14 13  0  0  0  0  0  0  0  0999 V2000
   -3.9543    0.2383    0.0362 C   0  0  0  0  0  0  0  0  0  0  0  0
   -2.7201   -0.5786    0.0209 C   0  0  0  0  0  0  0  0  0  0  0  0
   -4.8494   -0.3349   -0.0607 H   0  0  0  0  0  0  0  0  0  0  0  0
   -3.9169    0.8378   -0.8396 H   0  0  0  0  0  0  0  0  0  0  0  0
   -4.0091    0.9401    0.9509 H   0  0  0  0  0  0  0  0  0  0  0  0
   -1.4026    0.2015    0.0123 C   0  0  0  0  0  0  0  0  0  0  0  0
   -2.8167   -1.3628   -0.9160 H   0  0  0  0  0  0  0  0  0  0  0  0
   -2.7413   -1.1528    0.8373 H   0  0  0  0  0  0  0  0  0  0  0  0
   -0.1329   -0.7276    0.0372 C   0  0  0  0  0  0  0  0  0  0  0  0
   -1.4055    0.9232    0.8799 H   0  0  0  0  0  0  0  0  0  0  0  0
   -1.3425    0.8503   -0.8948 H   0  0  0  0  0  0  0  0  0  0  0  0
    0.0204   -1.5277    1.0532 H   0  0  0  0  0  0  0  0  0  0  0  0
    0.7569   -0.1002   -0.1794 H   0  0  0  0  0  0  0  0  0  0  0  0
   -0.1916   -1.1449   -0.6453 H   0  0  0  0  0  0  0  0  0  0  0  0
  1  5  1  0  0  0  0
  2  1  1  0  0  0  0
  2  8  1  0  0  0  0
  3  1  1  0  0  0  0
  4  1  1  0  0  0  0
  6  2  1  0  0  0  0
  6  9  1  0  0  0  0
  6 10  1  0  0  0  0
  7  2  1  0  0  0  0
  9 12  1  0  0  0  0
 11  6  1  0  0  0  0
 13  9  1  0  0  0  0
 14  9  1  0  0  0  0
M  END
$$$$
