14
butane_opt
C  -3.969560   0.247687  -0.021518
C  -2.695416  -0.612477   0.106415
H  -4.904914  -0.327522  -0.175861
H  -3.875085   0.860974  -0.929346
H  -4.058540   0.935650   0.811423
C  -1.390134   0.204073   0.047216
H  -2.725509  -1.216174  -0.705381
H  -2.721954  -1.262201   1.020451
C  -0.152823  -0.701770  -0.007064
H  -1.334719   0.904750   0.917510
H  -1.487623   0.823934  -0.871555
H  -0.009608  -1.241774   0.780865
H   0.695767  -0.144347   0.011477
H  -0.104669  -1.469174  -0.928199
