14
butane_opt
C  -3.927671   0.271427   0.037874
C  -2.680717  -0.633633  -0.012831
H  -4.841488  -0.269471   0.063149
H  -4.044065   0.822316  -0.761832
H  -3.999694   0.980799   0.930982
C  -1.404077   0.188692   0.023308
H  -2.626887  -1.396555  -0.879765
H  -2.792630  -1.215643   0.833790
C  -0.173044  -0.687153   0.052884
H  -1.449933   0.808939   0.800407
H  -1.424566   0.838748  -0.896667
H  -0.097788  -1.500873   1.068149
H   0.756425  -0.057761  -0.236271
H  -0.276546  -1.142243  -0.658972
