butane_opt
 OpenBabel08242015383D

 14 13  0  0  0  0  0  0  0  0999 V2000
   -3.9194    0.2635   -0.0155 C   0  0  0  0  0  0  0  0  0  0  0  0
   -2.7045   -0.5856    0.0707 C   0  0  0  0  0  0  0  0  0  0  0  0
   -4.8826   -0.3986    0.1767 H   0  0  0  0  0  0  0  0  0  0  0  0
   -3.9413    0.9860   -1.0366 H   0  0  0  0  0  0  0  0  0  0  0  0
   -3.8766    0.7530    0.7656 H   0  0  0  0  0  0  0  0  0  0  0  0
   -1.4155    0.1823    0.0456 C   0  0  0  0  0  0  0  0  0  0  0  0
   -2.7377   -1.2888   -0.7820 H   0  0  0  0  0  0  0  0  0  0  0  0
   -2.7539   -1.2656    1.0450 H   0  0  0  0  0  0  0  0  0  0  0  0
   -0.1578   -0.7012    0.0002 C   0  0  0  0  0  0  0  0  0  0  0  0
   -1.4614    0.8538    0.8992 H   0  0  0  0  0  0  0  0  0  0  0  0
   -1.3748    0.7988   -0.8544 H   0  0  0  0  0  0  0  0  0  0  0  0
   -0.1592   -1.1301    0.7902 H   0  0  0  0  0  0  0  0  0  0  0  0
    0.7312   -0.1266    0.1561 H   0  0  0  0  0  0  0  0  0  0  0  0
   -0.1937   -1.5614   -0.9686 H   0  0  0  0  0  0  0  0  0  0  0  0
  1  2  1  0  0  0  0
  1  3  1  0  0  0  0
  1  5  1  0  0  0  0
  2  8  1  0  0  0  0
  4  1  1  0  0  0  0
  6  2  1  0  0  0  0
  6 10  1  0  0  0  0
  7  2  1  0  0  0  0
  9  6  1  0  0  0  0
  9 13  1  0  0  0  0
  9 12  1  0  0  0  0
 11  6  1  0  0  0  0
 14  9  1  0  0  0  0
M  END
$$$$
