14
butane_opt
C  -3.950423   0.268346   0.048690
C  -2.678491  -0.629373   0.009929
H  -4.826376  -0.314326  -0.027333
H  -3.960988   0.877667  -0.832657
H  -3.975685   1.013235   0.955284
C  -1.400754   0.172734  -0.016792
H  -2.727789  -1.359884  -0.887908
H  -2.685383  -1.174785   0.845907
C  -0.178145  -0.681465   0.062819
H  -1.396040   0.852685   0.835711
H  -1.358447   0.808023  -0.879238
H  -0.120924  -1.416662   1.033060
H   0.725874  -0.097082  -0.137410
H  -0.203648  -1.219446  -0.709580
