14
butane_opt
C  -3.919353   0.263455  -0.015527
C  -2.704478  -0.585554   0.070673
H  -4.882608  -0.398557   0.176726
H  -3.941294   0.985967  -1.036552
H  -3.876588   0.752968   0.765588
C  -1.415499   0.182313   0.045594
H  -2.737709  -1.288823  -0.782044
H  -2.753871  -1.265631   1.045018
C  -0.157786  -0.701195   0.000202
H  -1.461422   0.853796   0.899219
H  -1.374795   0.798846  -0.854442
H  -0.159228  -1.130066   0.790241
H   0.731210  -0.126624   0.156115
H  -0.193704  -1.561419  -0.968569
