14
butane_opt
C  -3.935052   0.269035   0.047384
C  -2.681211  -0.634850   0.004262
H  -4.805447  -0.242788  -0.162252
H  -4.002969   0.736321  -0.724469
H  -3.944997   1.248663   1.110062
C  -1.385764   0.153667  -0.019153
H  -2.744056  -1.267507  -0.820977
H  -2.691496  -1.265032   0.882221
C  -0.190390  -0.674105   0.061796
H  -1.435181   0.765601   0.731137
H  -1.401892   0.861849  -0.966325
H  -0.238030  -1.449388   1.026363
H   0.747116  -0.032426  -0.042325
H  -0.201041  -1.186261  -0.691440
