14
butane_opt
C  -3.924128   0.251132  -0.018940
C  -2.719042  -0.587741   0.079573
H  -4.915050  -0.390729   0.069515
H  -3.820311   0.965840  -0.989294
H  -3.914192   0.753887   0.714117
C  -1.413209   0.205567   0.074767
H  -2.632320  -1.309455  -0.787891
H  -2.731841  -1.161307   0.909074
C  -0.161839  -0.707063  -0.014439
H  -1.328962   0.908052   0.910659
H  -1.486442   0.778004  -0.771570
H  -0.059839  -1.408838   0.928849
H   0.719548  -0.170671  -0.069753
H  -0.230705  -1.391346  -0.919547
