14
butane_opt
C  -3.920919   0.277066   0.073332
C  -2.675744  -0.636732  -0.050620
H  -4.820057  -0.289381   0.188636
H  -4.142632   0.861934  -0.797407
H  -3.895643   0.974680   0.917993
C  -1.428722   0.173394  -0.033216
H  -2.766370  -1.330929  -0.930443
H  -2.590552  -1.290432   0.844002
C  -0.181801  -0.680993   0.086445
H  -1.454440   0.865305   0.824342
H  -1.283287   0.830106  -0.900021
H  -0.168198  -1.455245   1.095625
H   0.824731  -0.012901   0.004051
H  -0.241961  -1.208836  -0.706788
