14
butane_opt
C  -3.950372   0.257808  -0.022523
C  -2.714929  -0.602491   0.092686
H  -4.863860  -0.370909  -0.112126
H  -3.853444   0.860800  -0.950331
H  -4.064344   0.898638   0.850811
C  -1.422942   0.213760   0.056797
H  -2.683713  -1.294483  -0.723842
H  -2.825662  -1.259429   1.043358
C  -0.128861  -0.715028  -0.011331
H  -1.382337   0.808876   0.886199
H  -1.433572   0.799416  -0.822158
H   0.030870  -1.256071   0.817422
H   0.828358  -0.073133  -0.026158
H  -0.177214  -1.416734  -0.910135
