butane_opt
 OpenBabel08242015383D

 14 13  0  0  0  0  0  0  0  0999 V2000
   -3.9695    0.2603    0.0646 C   0  0  0  0  0  0  0  0  0  0  0  0
   -2.7050   -0.6136   -0.0196 C   0  0  0  0  0  0  0  0  0  0  0  0
   -4.9166   -0.3383   -0.0949 H   0  0  0  0  0  0  0  0  0  0  0  0
   -3.9644    0.7660   -0.7869 H   0  0  0  0  0  0  0  0  0  0  0  0
   -3.9250    1.0691    1.0413 H   0  0  0  0  0  0  0  0  0  0  0  0
   -1.3929    0.1849   -0.0205 C   0  0  0  0  0  0  0  0  0  0  0  0
   -2.7231   -1.2855   -0.8748 H   0  0  0  0  0  0  0  0  0  0  0  0
   -2.7351   -1.2448    0.8472 H   0  0  0  0  0  0  0  0  0  0  0  0
   -0.1451   -0.6874    0.0712 C   0  0  0  0  0  0  0  0  0  0  0  0
   -1.4711    0.8956    0.8792 H   0  0  0  0  0  0  0  0  0  0  0  0
   -1.3242    0.8279   -0.9556 H   0  0  0  0  0  0  0  0  0  0  0  0
   -0.0038   -1.5493    1.1322 H   0  0  0  0  0  0  0  0  0  0  0  0
    0.7457   -0.1509   -0.2158 H   0  0  0  0  0  0  0  0  0  0  0  0
   -0.1648   -1.1872   -0.6555 H   0  0  0  0  0  0  0  0  0  0  0  0
  1  5  1  0  0  0  0
  2  1  1  0  0  0  0
  2  8  1  0  0  0  0
  3  1  1  0  0  0  0
  4  1  1  0  0  0  0
  6  2  1  0  0  0  0
  6  9  1  0  0  0  0
  6 10  1  0  0  0  0
  7  2  1  0  0  0  0
  9 12  1  0  0  0  0
 11  6  1  0  0  0  0
 13  9  1  0  0  0  0
 14  9  1  0  0  0  0
M  END
$$$$
