14
butane_opt
C  -3.920006   0.248790   0.058086
C  -2.708931  -0.592588   0.023446
H  -4.854544  -0.354549  -0.267848
H  -3.801646   0.650571  -0.688744
H  -3.976076   1.117307   1.060494
C  -1.405714   0.195342  -0.042110
H  -2.831960  -1.329100  -0.833619
H  -2.673381  -1.171167   0.897191
C  -0.167694  -0.709282   0.062430
H  -1.446283   0.824692   0.742632
H  -1.411082   0.918943  -0.975894
H  -0.164700  -1.430740   1.025361
H   0.647066  -0.166669  -0.029766
H  -0.076899  -1.256424  -0.693960
