butane_opt
 OpenBabel08242015383D

 14 13  0  0  0  0  0  0  0  0999 V2000
   -3.9373    0.2780   -0.0016 C   0  0  0  0  0  0  0  0  0  0  0  0
   -2.6861   -0.6416    0.0551 C   0  0  0  0  0  0  0  0  0  0  0  0
   -4.8276   -0.2639    0.1931 H   0  0  0  0  0  0  0  0  0  0  0  0
   -3.9567    1.0784   -0.9849 H   0  0  0  0  0  0  0  0  0  0  0  0
   -4.0356    0.8161    0.7683 H   0  0  0  0  0  0  0  0  0  0  0  0
   -1.3979    0.1758    0.0226 C   0  0  0  0  0  0  0  0  0  0  0  0
   -2.6666   -1.3046   -0.7590 H   0  0  0  0  0  0  0  0  0  0  0  0
   -2.7258   -1.2661    0.9515 H   0  0  0  0  0  0  0  0  0  0  0  0
   -0.1915   -0.6939    0.0118 C   0  0  0  0  0  0  0  0  0  0  0  0
   -1.3298    0.9281    0.9485 H   0  0  0  0  0  0  0  0  0  0  0  0
   -1.3651    0.7161   -0.7668 H   0  0  0  0  0  0  0  0  0  0  0  0
   -0.2049   -1.1652    0.8245 H   0  0  0  0  0  0  0  0  0  0  0  0
    0.8074   -0.0429    0.0726 H   0  0  0  0  0  0  0  0  0  0  0  0
   -0.1662   -1.3772   -0.8816 H   0  0  0  0  0  0  0  0  0  0  0  0
  1  2  1  0  0  0  0
  1  3  1  0  0  0  0
  1  5  1  0  0  0  0
  2  8  1  0  0  0  0
  4  1  1  0  0  0  0
  6  2  1  0  0  0  0
  6 10  1  0  0  0  0
  7  2  1  0  0  0  0
  9  6  1  0  0  0  0
  9 13  1  0  0  0  0
  9 12  1  0  0  0  0
 11  6  1  0  0  0  0
 14  9  1  0  0  0  0
M  END
$$$$
