butane_opt
 OpenBabel08242015383D

 14 13  0  0  0  0  0  0  0  0999 V2000
   -3.9192    0.2476   -0.0131 C   0  0  0  0  0  0  0  0  0  0  0  0
   -2.7111   -0.5882    0.0751 C   0  0  0  0  0  0  0  0  0  0  0  0
   -4.8950   -0.4126   -0.1310 H   0  0  0  0  0  0  0  0  0  0  0  0
   -3.8615    0.7927   -0.8949 H   0  0  0  0  0  0  0  0  0  0  0  0
   -3.9207    0.9669    0.8555 H   0  0  0  0  0  0  0  0  0  0  0  0
   -1.4234    0.1998    0.0512 C   0  0  0  0  0  0  0  0  0  0  0  0
   -2.6328   -1.1828   -0.6772 H   0  0  0  0  0  0  0  0  0  0  0  0
   -2.8020   -1.3041    0.9939 H   0  0  0  0  0  0  0  0  0  0  0  0
   -0.1564   -0.7163   -0.0078 C   0  0  0  0  0  0  0  0  0  0  0  0
   -1.4324    0.9223    0.9164 H   0  0  0  0  0  0  0  0  0  0  0  0
   -1.5197    0.8318   -0.8457 H   0  0  0  0  0  0  0  0  0  0  0  0
   -0.0615   -1.3477    0.8743 H   0  0  0  0  0  0  0  0  0  0  0  0
    0.7750   -0.0758   -0.0473 H   0  0  0  0  0  0  0  0  0  0  0  0
   -0.1562   -1.3815   -0.8586 H   0  0  0  0  0  0  0  0  0  0  0  0
  1  2  1  0  0  0  0
  1  5  1  0  0  0  0
  2  8  1  0  0  0  0
  3  1  1  0  0  0  0
  4  1  1  0  0  0  0
  6  2  1  0  0  0  0
  6 10  1  0  0  0  0
  7  2  1  0  0  0  0
  9  6  1  0  0  0  0
  9 12  1  0  0  0  0
 11  6  1  0  0  0  0
 13  9  1  0  0  0  0
 14  9  1  0  0  0  0
M  END
$$$$
