butane_opt
 OpenBabel08242015383D

 14 13  0  0  0  0  0  0  0  0999 V2000
   -3.9380    0.2566    0.0043 C   0  0  0  0  0  0  0  0  0  0  0  0
   -2.6975   -0.6143    0.0423 C   0  0  0  0  0  0  0  0  0  0  0  0
   -4.8548   -0.3052    0.1531 H   0  0  0  0  0  0  0  0  0  0  0  0
   -3.8875    0.9071   -0.8860 H   0  0  0  0  0  0  0  0  0  0  0  0
   -3.8935    0.8353    0.8176 H   0  0  0  0  0  0  0  0  0  0  0  0
   -1.4290    0.2002    0.0120 C   0  0  0  0  0  0  0  0  0  0  0  0
   -2.6967   -1.1803   -0.7212 H   0  0  0  0  0  0  0  0  0  0  0  0
   -2.6690   -1.3286    0.9917 H   0  0  0  0  0  0  0  0  0  0  0  0
   -0.1611   -0.6960    0.0228 C   0  0  0  0  0  0  0  0  0  0  0  0
   -1.4217    0.8633    0.8786 H   0  0  0  0  0  0  0  0  0  0  0  0
   -1.3355    0.8069   -0.8584 H   0  0  0  0  0  0  0  0  0  0  0  0
   -0.1787   -1.1784    0.7854 H   0  0  0  0  0  0  0  0  0  0  0  0
    0.6990   -0.1345    0.2036 H   0  0  0  0  0  0  0  0  0  0  0  0
   -0.0822   -1.5203   -0.9249 H   0  0  0  0  0  0  0  0  0  0  0  0
  1  2  1  0  0  0  0
  1  3  1  0  0  0  0
  1  5  1  0  0  0  0
  2  8  1  0  0  0  0
  4  1  1  0  0  0  0
  6  9  1  0  0  0  0
  6  2  1  0  0  0  0
  6 10  1  0  0  0  0
  7  2  1  0  0  0  0
  9 13  1  0  0  0  0
  9 12  1  0  0  0  0
 11  6  1  0  0  0  0
 14  9  1  0  0  0  0
M  END
$$$$
