14
butane_opt
C  -3.933414   0.282100  -0.012834
C  -2.693227  -0.624244   0.087710
H  -4.848149  -0.308984  -0.047535
H  -3.882778   0.940880  -0.955027
H  -4.058161   0.896160   0.789759
C  -1.387264   0.162769   0.041700
H  -2.666622  -1.372000  -0.834902
H  -2.743586  -1.252656   0.999947
C  -0.198006  -0.681325  -0.002782
H  -1.352239   0.909554   0.985491
H  -1.405952   0.727359  -0.788954
H  -0.020087  -1.322866   0.900285
H   0.710675  -0.079669  -0.099116
H  -0.224488  -1.273718  -0.870758
