14
butane_opt
C  -3.957237   0.250397   0.066147
C  -2.711884  -0.613346  -0.033653
H  -4.875481  -0.342357   0.051710
H  -4.082749   0.843670  -0.850908
H  -3.907310   0.976071   0.961591
C  -1.401796   0.216665   0.004563
H  -2.702341  -1.375285  -0.951182
H  -2.678630  -1.172865   0.790146
C  -0.154650  -0.696571   0.078453
H  -1.383586   0.744000   0.789075
H  -1.371909   0.894466  -0.933762
H   0.064110  -1.541763   1.081298
H   0.736904  -0.154326  -0.198222
H  -0.116620  -1.214456  -0.661900
