14
butane_opt
C  -3.944570   0.282499   0.009650
C  -2.670469  -0.643227   0.058395
H  -4.785530  -0.234832   0.111350
H  -3.990828   0.885807  -0.939953
H  -4.032124   0.887367   0.835929
C  -1.402218   0.161613  -0.004366
H  -2.747968  -1.248864  -0.758311
H  -2.668073  -1.278840   0.953746
C  -0.178205  -0.666168   0.030412
H  -1.372730   0.879271   0.844844
H  -1.448551   0.743741  -0.854421
H  -0.266965  -1.160055   0.855507
H   0.760356  -0.050995   0.174956
H  -0.136128  -1.503440  -0.925815
