butane_opt
 OpenBabel08242015383D

 14 13  0  0  0  0  0  0  0  0999 V2000
   -3.9502    0.2615   -0.0133 C   0  0  0  0  0  0  0  0  0  0  0  0
   -2.7140   -0.6091    0.0670 C   0  0  0  0  0  0  0  0  0  0  0  0
   -4.8758   -0.3703    0.0588 H   0  0  0  0  0  0  0  0  0  0  0  0
   -3.9866    0.9109   -0.9320 H   0  0  0  0  0  0  0  0  0  0  0  0
   -3.9414    0.8940    0.8360 H   0  0  0  0  0  0  0  0  0  0  0  0
   -1.3956    0.2000    0.0368 C   0  0  0  0  0  0  0  0  0  0  0  0
   -2.7146   -1.2217   -0.7472 H   0  0  0  0  0  0  0  0  0  0  0  0
   -2.7463   -1.3305    1.0163 H   0  0  0  0  0  0  0  0  0  0  0  0
   -0.1505   -0.7118    0.0049 C   0  0  0  0  0  0  0  0  0  0  0  0
   -1.3706    0.8937    0.9194 H   0  0  0  0  0  0  0  0  0  0  0  0
   -1.3950    0.8269   -0.8604 H   0  0  0  0  0  0  0  0  0  0  0  0
   -0.1536   -1.1866    0.8164 H   0  0  0  0  0  0  0  0  0  0  0  0
    0.7534   -0.1326    0.0832 H   0  0  0  0  0  0  0  0  0  0  0  0
   -0.0623   -1.4466   -0.9150 H   0  0  0  0  0  0  0  0  0  0  0  0
  1  3  1  0  0  0  0
  1  2  1  0  0  0  0
  1  5  1  0  0  0  0
  2  8  1  0  0  0  0
  4  1  1  0  0  0  0
  6  2  1  0  0  0  0
  6 10  1  0  0  0  0
  7  2  1  0  0  0  0
  9  6  1  0  0  0  0
  9 13  1  0  0  0  0
  9 12  1  0  0  0  0
 11  6  1  0  0  0  0
 14  9  1  0  0  0  0
M  END
$$$$
