butane_opt
 OpenBabel08242015383D

 14 13  0  0  0  0  0  0  0  0999 V2000
   -3.9609    0.2386   -0.0254 C   0  0  0  0  0  0  0  0  0  0  0  0
   -2.7068   -0.5969    0.1084 C   0  0  0  0  0  0  0  0  0  0  0  0
   -4.8675   -0.3319   -0.1529 H   0  0  0  0  0  0  0  0  0  0  0  0
   -3.9090    0.8384   -0.9292 H   0  0  0  0  0  0  0  0  0  0  0  0
   -3.9806    0.9448    0.8631 H   0  0  0  0  0  0  0  0  0  0  0  0
   -1.3943    0.2161    0.0367 C   0  0  0  0  0  0  0  0  0  0  0  0
   -2.7390   -1.2219   -0.7099 H   0  0  0  0  0  0  0  0  0  0  0  0
   -2.8102   -1.2268    1.0123 H   0  0  0  0  0  0  0  0  0  0  0  0
   -0.1456   -0.7149   -0.0134 C   0  0  0  0  0  0  0  0  0  0  0  0
   -1.3326    0.9155    0.9392 H   0  0  0  0  0  0  0  0  0  0  0  0
   -1.4392    0.7795   -0.8065 H   0  0  0  0  0  0  0  0  0  0  0  0
   -0.0726   -1.2914    0.7988 H   0  0  0  0  0  0  0  0  0  0  0  0
    0.6857   -0.2234    0.0118 H   0  0  0  0  0  0  0  0  0  0  0  0
   -0.0563   -1.3775   -0.8686 H   0  0  0  0  0  0  0  0  0  0  0  0
  1  2  1  0  0  0  0
  1  5  1  0  0  0  0
  2  8  1  0  0  0  0
  3  1  1  0  0  0  0
  4  1  1  0  0  0  0
  6  2  1  0  0  0  0
  6 10  1  0  0  0  0
  7  2  1  0  0  0  0
  9 13  1  0  0  0  0
  9  6  1  0  0  0  0
  9 12  1  0  0  0  0
 11  6  1  0  0  0  0
 14  9  1  0  0  0  0
M  END
$$$$
