14
butane_opt
C  -3.935580   0.244272   0.081484
C  -2.705658  -0.575841  -0.015533
H  -4.916141  -0.404644   0.133973
H  -3.886800   0.928714  -0.857965
H  -3.892880   0.910633   0.917346
C  -1.418254   0.183162  -0.050806
H  -2.815312  -1.319794  -0.943138
H  -2.630003  -1.166623   0.830702
C  -0.155107  -0.706137   0.088667
H  -1.365738   0.789427   0.742857
H  -1.328050   0.893617  -0.962889
H  -0.233939  -1.281007   0.955287
H   0.699373  -0.158308   0.159988
H  -0.059181  -1.428387  -0.789374
