butane_opt
 OpenBabel08242015383D

 14 13  0  0  0  0  0  0  0  0999 V2000
   -3.9583    0.2876   -0.0199 C   0  0  0  0  0  0  0  0  0  0  0  0
   -2.6898   -0.6544    0.1065 C   0  0  0  0  0  0  0  0  0  0  0  0
   -4.8394   -0.2511   -0.1886 H   0  0  0  0  0  0  0  0  0  0  0  0
   -3.9162    0.7904   -0.8390 H   0  0  0  0  0  0  0  0  0  0  0  0
   -4.1536    1.0352    0.8868 H   0  0  0  0  0  0  0  0  0  0  0  0
   -1.3850    0.1762    0.0251 C   0  0  0  0  0  0  0  0  0  0  0  0
   -2.6632   -1.2337   -0.6991 H   0  0  0  0  0  0  0  0  0  0  0  0
   -2.8117   -1.3023    1.0004 H   0  0  0  0  0  0  0  0  0  0  0  0
   -0.1652   -0.6781   -0.0055 C   0  0  0  0  0  0  0  0  0  0  0  0
   -1.2927    0.9050    0.8848 H   0  0  0  0  0  0  0  0  0  0  0  0
   -1.4180    0.7455   -0.7968 H   0  0  0  0  0  0  0  0  0  0  0  0
   -0.2187   -1.2938    0.9053 H   0  0  0  0  0  0  0  0  0  0  0  0
    0.7697   -0.0576   -0.0450 H   0  0  0  0  0  0  0  0  0  0  0  0
   -0.1065   -1.3910   -0.9345 H   0  0  0  0  0  0  0  0  0  0  0  0
  1  2  1  0  0  0  0
  1  5  1  0  0  0  0
  2  8  1  0  0  0  0
  3  1  1  0  0  0  0
  4  1  1  0  0  0  0
  6  2  1  0  0  0  0
  6 10  1  0  0  0  0
  7  2  1  0  0  0  0
  9  6  1  0  0  0  0
  9 12  1  0  0  0  0
 11  6  1  0  0  0  0
 13  9  1  0  0  0  0
 14  9  1  0  0  0  0
M  END
$$$$
