butane_opt
 OpenBabel08242015383D

 14 13  0  0  0  0  0  0  0  0999 V2000
   -3.9363    0.2527    0.0188 C   0  0  0  0  0  0  0  0  0  0  0  0
   -2.7045   -0.5971    0.0579 C   0  0  0  0  0  0  0  0  0  0  0  0
   -4.8542   -0.3653    0.0646 H   0  0  0  0  0  0  0  0  0  0  0  0
   -3.9298    0.8894   -0.8956 H   0  0  0  0  0  0  0  0  0  0  0  0
   -3.9509    0.8700    0.8235 H   0  0  0  0  0  0  0  0  0  0  0  0
   -1.4071    0.1912   -0.0035 C   0  0  0  0  0  0  0  0  0  0  0  0
   -2.7616   -1.2605   -0.7929 H   0  0  0  0  0  0  0  0  0  0  0  0
   -2.6797   -1.2081    0.8981 H   0  0  0  0  0  0  0  0  0  0  0  0
   -0.1612   -0.7107    0.0311 C   0  0  0  0  0  0  0  0  0  0  0  0
   -1.4449    0.8747    0.8424 H   0  0  0  0  0  0  0  0  0  0  0  0
   -1.4112    0.8469   -0.9063 H   0  0  0  0  0  0  0  0  0  0  0  0
   -0.1578   -1.1959    0.8494 H   0  0  0  0  0  0  0  0  0  0  0  0
    0.7512   -0.0942    0.1716 H   0  0  0  0  0  0  0  0  0  0  0  0
   -0.0761   -1.4711   -0.8811 H   0  0  0  0  0  0  0  0  0  0  0  0
  1  2  1  0  0  0  0
  1  3  1  0  0  0  0
  1  5  1  0  0  0  0
  2  8  1  0  0  0  0
  4  1  1  0  0  0  0
  6  9  1  0  0  0  0
  6  2  1  0  0  0  0
  6 10  1  0  0  0  0
  7  2  1  0  0  0  0
  9 13  1  0  0  0  0
  9 12  1  0  0  0  0
 11  6  1  0  0  0  0
 14  9  1  0  0  0  0
M  END
$$$$
