14
butane_opt
C  -3.939238   0.249595   0.075845
C  -2.685994  -0.582626  -0.012206
H  -4.897793  -0.410252   0.149718
H  -3.960354   0.723451  -0.768904
H  -3.867405   0.925308   0.968333
C  -1.417085   0.203317  -0.086374
H  -2.752478  -1.264697  -0.878522
H  -2.654482  -1.187928   0.854262
C  -0.157475  -0.709786   0.091220
H  -1.415543   0.842325   0.800746
H  -1.437201   0.828154  -0.976517
H  -0.318311  -1.301396   0.999878
H   0.700733  -0.158870   0.256304
H  -0.008504  -1.408361  -0.775596
