14
butane_opt
C  -3.939638   0.277096  -0.012265
C  -2.679225  -0.627888   0.100351
H  -4.859096  -0.308826  -0.082041
H  -3.865108   0.851490  -0.937413
H  -4.097086   1.021322   0.882326
C  -1.412206   0.155751   0.024287
H  -2.658801  -1.317937  -0.776914
H  -2.725703  -1.249264   0.948867
C  -0.165920  -0.675475   0.007092
H  -1.295192   0.865826   0.898550
H  -1.480421   0.823594  -0.875751
H  -0.249692  -1.247117   0.868757
H   0.819697  -0.045338  -0.005849
H  -0.245266  -1.417543  -0.900896
