butane_opt
 OpenBabel08242015383D

 14 13  0  0  0  0  0  0  0  0999 V2000
   -3.9223    0.2754   -0.0071 C   0  0  0  0  0  0  0  0  0  0  0  0
   -2.6922   -0.6248    0.0546 C   0  0  0  0  0  0  0  0  0  0  0  0
   -4.8340   -0.3300    0.2396 H   0  0  0  0  0  0  0  0  0  0  0  0
   -4.0960    1.1421   -1.0617 H   0  0  0  0  0  0  0  0  0  0  0  0
   -3.8743    0.6746    0.6843 H   0  0  0  0  0  0  0  0  0  0  0  0
   -1.4155    0.1645    0.0624 C   0  0  0  0  0  0  0  0  0  0  0  0
   -2.6142   -1.3549   -0.8157 H   0  0  0  0  0  0  0  0  0  0  0  0
   -2.6606   -1.2033    0.9163 H   0  0  0  0  0  0  0  0  0  0  0  0
   -0.1916   -0.6794   -0.0105 C   0  0  0  0  0  0  0  0  0  0  0  0
   -1.3738    0.8749    0.9415 H   0  0  0  0  0  0  0  0  0  0  0  0
   -1.3650    0.7749   -0.7509 H   0  0  0  0  0  0  0  0  0  0  0  0
   -0.1631   -1.1951    0.8531 H   0  0  0  0  0  0  0  0  0  0  0  0
    0.7346   -0.1190    0.0665 H   0  0  0  0  0  0  0  0  0  0  0  0
   -0.1158   -1.3599   -0.8682 H   0  0  0  0  0  0  0  0  0  0  0  0
  1  2  1  0  0  0  0
  1  3  1  0  0  0  0
  1  5  1  0  0  0  0
  2  6  1  0  0  0  0
  2  8  1  0  0  0  0
  4  1  1  0  0  0  0
  6 10  1  0  0  0  0
  7  2  1  0  0  0  0
  9  6  1  0  0  0  0
  9 13  1  0  0  0  0
  9 12  1  0  0  0  0
 11  6  1  0  0  0  0
 14  9  1  0  0  0  0
M  END
$$$$
