14
butane_opt
C  -3.951764   0.250235   0.038887
C  -2.698684  -0.604881   0.009724
H  -4.879493  -0.353211  -0.006261
H  -3.983085   0.805640  -0.836424
H  -3.972933   0.972536   0.931628
C  -1.402500   0.205442   0.002400
H  -2.758598  -1.330581  -0.882678
H  -2.714742  -1.195064   0.861619
C  -0.154346  -0.705365   0.062658
H  -1.401633   0.852591   0.858079
H  -1.382241   0.880560  -0.928256
H   0.002117  -1.415210   0.997103
H   0.721032  -0.172917  -0.177373
H  -0.159180  -1.262416  -0.728122
