butane_opt
 OpenBabel08242015383D

 14 13  0  0  0  0  0  0  0  0999 V2000
   -3.9372    0.2540    0.0086 C   0  0  0  0  0  0  0  0  0  0  0  0
   -2.7027   -0.5961    0.0378 C   0  0  0  0  0  0  0  0  0  0  0  0
   -4.8931   -0.3750    0.0138 H   0  0  0  0  0  0  0  0  0  0  0  0
   -3.9731    0.8241   -0.8676 H   0  0  0  0  0  0  0  0  0  0  0  0
   -3.8852    0.9657    0.9162 H   0  0  0  0  0  0  0  0  0  0  0  0
   -1.4175    0.1904    0.0222 C   0  0  0  0  0  0  0  0  0  0  0  0
   -2.6795   -1.2938   -0.8218 H   0  0  0  0  0  0  0  0  0  0  0  0
   -2.7039   -1.2215    0.9208 H   0  0  0  0  0  0  0  0  0  0  0  0
   -0.1532   -0.6968    0.0331 C   0  0  0  0  0  0  0  0  0  0  0  0
   -1.4007    0.8366    0.8478 H   0  0  0  0  0  0  0  0  0  0  0  0
   -1.4065    0.8035   -0.8416 H   0  0  0  0  0  0  0  0  0  0  0  0
   -0.0905   -1.4065    0.9715 H   0  0  0  0  0  0  0  0  0  0  0  0
    0.7218   -0.1276   -0.0992 H   0  0  0  0  0  0  0  0  0  0  0  0
   -0.1770   -1.3005   -0.8119 H   0  0  0  0  0  0  0  0  0  0  0  0
  1  3  1  0  0  0  0
  1  2  1  0  0  0  0
  1  5  1  0  0  0  0
  2  8  1  0  0  0  0
  4  1  1  0  0  0  0
  6  9  1  0  0  0  0
  6  2  1  0  0  0  0
  6 10  1  0  0  0  0
  7  2  1  0  0  0  0
  9 12  1  0  0  0  0
 11  6  1  0  0  0  0
 13  9  1  0  0  0  0
 14  9  1  0  0  0  0
M  END
$$$$
