14
butane_opt
C  -3.933101   0.282307   0.073328
C  -2.674579  -0.631812  -0.037016
H  -4.842111  -0.339356   0.253779
H  -4.095662   0.972407  -0.870836
H  -3.790545   0.795320   0.856685
C  -1.418331   0.183040  -0.025086
H  -2.752933  -1.419829  -0.946241
H  -2.615610  -1.200439   0.782668
C  -0.175720  -0.673658   0.073826
H  -1.427806   0.792484   0.804805
H  -1.365583   0.808951  -0.886802
H  -0.280203  -1.371239   1.036469
H   0.676677  -0.126151   0.068763
H  -0.110464  -1.290190  -0.695303
