butane_opt
 OpenBabel08242015383D

 14 13  0  0  0  0  0  0  0  0999 V2000
   -3.9601    0.2864    0.0386 C   0  0  0  0  0  0  0  0  0  0  0  0
   -2.7020   -0.6446    0.0033 C   0  0  0  0  0  0  0  0  0  0  0  0
   -4.8545   -0.3526   -0.0277 H   0  0  0  0  0  0  0  0  0  0  0  0
   -4.0025    0.8249   -0.7734 H   0  0  0  0  0  0  0  0  0  0  0  0
   -4.0177    1.0401    0.9595 H   0  0  0  0  0  0  0  0  0  0  0  0
   -1.3945    0.1815   -0.0012 C   0  0  0  0  0  0  0  0  0  0  0  0
   -2.7703   -1.3796   -0.8721 H   0  0  0  0  0  0  0  0  0  0  0  0
   -2.6120   -1.1380    0.8218 H   0  0  0  0  0  0  0  0  0  0  0  0
   -0.1627   -0.6846    0.0692 C   0  0  0  0  0  0  0  0  0  0  0  0
   -1.3484    0.8140    0.8545 H   0  0  0  0  0  0  0  0  0  0  0  0
   -1.2491    0.8183   -0.9326 H   0  0  0  0  0  0  0  0  0  0  0  0
   -0.0599   -1.4792    1.0772 H   0  0  0  0  0  0  0  0  0  0  0  0
    0.7574   -0.0970   -0.2719 H   0  0  0  0  0  0  0  0  0  0  0  0
   -0.2362   -1.1831   -0.7048 H   0  0  0  0  0  0  0  0  0  0  0  0
  1  5  1  0  0  0  0
  2  1  1  0  0  0  0
  2  8  1  0  0  0  0
  3  1  1  0  0  0  0
  4  1  1  0  0  0  0
  6  2  1  0  0  0  0
  6  9  1  0  0  0  0
  6 10  1  0  0  0  0
  7  2  1  0  0  0  0
  9 12  1  0  0  0  0
 11  6  1  0  0  0  0
 13  9  1  0  0  0  0
 14  9  1  0  0  0  0
M  END
$$$$
