butane_opt
 OpenBabel08242015383D

 14 13  0  0  0  0  0  0  0  0999 V2000
   -3.9408    0.2721   -0.0180 C   0  0  0  0  0  0  0  0  0  0  0  0
   -2.6725   -0.6133    0.0794 C   0  0  0  0  0  0  0  0  0  0  0  0
   -4.8202   -0.3266    0.0731 H   0  0  0  0  0  0  0  0  0  0  0  0
   -3.9386    0.9276   -0.9182 H   0  0  0  0  0  0  0  0  0  0  0  0
   -4.0153    0.9014    0.8619 H   0  0  0  0  0  0  0  0  0  0  0  0
   -1.4119    0.1506    0.0123 C   0  0  0  0  0  0  0  0  0  0  0  0
   -2.7486   -1.1826   -0.6982 H   0  0  0  0  0  0  0  0  0  0  0  0
   -2.6704   -1.3613    1.0153 H   0  0  0  0  0  0  0  0  0  0  0  0
   -0.1750   -0.6727    0.0118 C   0  0  0  0  0  0  0  0  0  0  0  0
   -1.3971    0.8923    0.9011 H   0  0  0  0  0  0  0  0  0  0  0  0
   -1.4158    0.7831   -0.8561 H   0  0  0  0  0  0  0  0  0  0  0  0
   -0.2422   -1.1203    0.8252 H   0  0  0  0  0  0  0  0  0  0  0  0
    0.8012   -0.0432    0.2172 H   0  0  0  0  0  0  0  0  0  0  0  0
   -0.1816   -1.5809   -1.0316 H   0  0  0  0  0  0  0  0  0  0  0  0
  1  3  1  0  0  0  0
  1  2  1  0  0  0  0
  1  5  1  0  0  0  0
  2  8  1  0  0  0  0
  4  1  1  0  0  0  0
  6  2  1  0  0  0  0
  6 10  1  0  0  0  0
  7  2  1  0  0  0  0
  9  6  1  0  0  0  0
  9 13  1  0  0  0  0
  9 12  1  0  0  0  0
 11  6  1  0  0  0  0
 14  9  1  0  0  0  0
M  END
$$$$
