butane_opt
 OpenBabel08242015383D

 14 13  0  0  0  0  0  0  0  0999 V2000
   -3.9241    0.2511   -0.0189 C   0  0  0  0  0  0  0  0  0  0  0  0
   -2.7190   -0.5877    0.0796 C   0  0  0  0  0  0  0  0  0  0  0  0
   -4.9150   -0.3907    0.0695 H   0  0  0  0  0  0  0  0  0  0  0  0
   -3.8203    0.9658   -0.9893 H   0  0  0  0  0  0  0  0  0  0  0  0
   -3.9142    0.7539    0.7141 H   0  0  0  0  0  0  0  0  0  0  0  0
   -1.4132    0.2056    0.0748 C   0  0  0  0  0  0  0  0  0  0  0  0
   -2.6323   -1.3095   -0.7879 H   0  0  0  0  0  0  0  0  0  0  0  0
   -2.7318   -1.1613    0.9091 H   0  0  0  0  0  0  0  0  0  0  0  0
   -0.1618   -0.7071   -0.0144 C   0  0  0  0  0  0  0  0  0  0  0  0
   -1.3290    0.9081    0.9107 H   0  0  0  0  0  0  0  0  0  0  0  0
   -1.4864    0.7780   -0.7716 H   0  0  0  0  0  0  0  0  0  0  0  0
   -0.0598   -1.4088    0.9288 H   0  0  0  0  0  0  0  0  0  0  0  0
    0.7195   -0.1707   -0.0698 H   0  0  0  0  0  0  0  0  0  0  0  0
   -0.2307   -1.3913   -0.9195 H   0  0  0  0  0  0  0  0  0  0  0  0
  1  3  1  0  0  0  0
  1  2  1  0  0  0  0
  1  5  1  0  0  0  0
  2  8  1  0  0  0  0
  4  1  1  0  0  0  0
  6  2  1  0  0  0  0
  6 10  1  0  0  0  0
  7  2  1  0  0  0  0
  9  6  1  0  0  0  0
  9 12  1  0  0  0  0
 11  6  1  0  0  0  0
 13  9  1  0  0  0  0
 14  9  1  0  0  0  0
M  END
$$$$
