butane_opt
 OpenBabel08242015383D

 14 13  0  0  0  0  0  0  0  0999 V2000
   -3.9258    0.2488   -0.0246 C   0  0  0  0  0  0  0  0  0  0  0  0
   -2.7182   -0.5834    0.0526 C   0  0  0  0  0  0  0  0  0  0  0  0
   -4.9116   -0.4035    0.0717 H   0  0  0  0  0  0  0  0  0  0  0  0
   -3.9507    0.8885   -0.9636 H   0  0  0  0  0  0  0  0  0  0  0  0
   -3.8271    0.8985    0.8275 H   0  0  0  0  0  0  0  0  0  0  0  0
   -1.4126    0.1920    0.0685 C   0  0  0  0  0  0  0  0  0  0  0  0
   -2.7010   -1.2393   -0.7612 H   0  0  0  0  0  0  0  0  0  0  0  0
   -2.7161   -1.2967    1.0318 H   0  0  0  0  0  0  0  0  0  0  0  0
   -0.1543   -0.7102   -0.0028 C   0  0  0  0  0  0  0  0  0  0  0  0
   -1.3592    0.9323    0.9535 H   0  0  0  0  0  0  0  0  0  0  0  0
   -1.4218    0.8339   -0.7943 H   0  0  0  0  0  0  0  0  0  0  0  0
   -0.0809   -1.3331    0.9180 H   0  0  0  0  0  0  0  0  0  0  0  0
    0.6669   -0.1746   -0.1311 H   0  0  0  0  0  0  0  0  0  0  0  0
   -0.1736   -1.3628   -0.8491 H   0  0  0  0  0  0  0  0  0  0  0  0
  1  2  1  0  0  0  0
  1  3  1  0  0  0  0
  1  5  1  0  0  0  0
  2  6  1  0  0  0  0
  2  8  1  0  0  0  0
  4  1  1  0  0  0  0
  6 10  1  0  0  0  0
  7  2  1  0  0  0  0
  9  6  1  0  0  0  0
  9 12  1  0  0  0  0
 11  6  1  0  0  0  0
 13  9  1  0  0  0  0
 14  9  1  0  0  0  0
M  END
$$$$
