14
butane_opt
C  -3.963435   0.276143  -0.006707
C  -2.698390  -0.650917   0.080492
H  -4.800125  -0.234209   0.106976
H  -4.001039   1.079167  -1.008757
H  -4.083607   0.857919   0.815126
C  -1.369988   0.172887   0.003658
H  -2.723145  -1.224788  -0.682811
H  -2.758654  -1.320649   1.021788
C  -0.159434  -0.680793   0.005387
H  -1.377401   0.952719   0.890124
H  -1.410706   0.686327  -0.780343
H  -0.208939  -1.073534   0.760294
H   0.730871  -0.044545   0.274838
H  -0.097859  -1.556588  -0.982303
