butane_opt
 OpenBabel08242015383D

 14 13  0  0  0  0  0  0  0  0999 V2000
   -3.9189    0.2595   -0.0421 C   0  0  0  0  0  0  0  0  0  0  0  0
   -2.7080   -0.5905    0.1336 C   0  0  0  0  0  0  0  0  0  0  0  0
   -4.9571   -0.4631   -0.1177 H   0  0  0  0  0  0  0  0  0  0  0  0
   -3.8409    0.8850   -0.9168 H   0  0  0  0  0  0  0  0  0  0  0  0
   -3.9829    0.8898    0.8078 H   0  0  0  0  0  0  0  0  0  0  0  0
   -1.4038    0.1910    0.0457 C   0  0  0  0  0  0  0  0  0  0  0  0
   -2.6938   -1.2542   -0.7310 H   0  0  0  0  0  0  0  0  0  0  0  0
   -2.7640   -1.2434    1.0265 H   0  0  0  0  0  0  0  0  0  0  0  0
   -0.1680   -0.7125   -0.0218 C   0  0  0  0  0  0  0  0  0  0  0  0
   -1.3015    0.9082    0.9056 H   0  0  0  0  0  0  0  0  0  0  0  0
   -1.5379    0.8838   -0.8380 H   0  0  0  0  0  0  0  0  0  0  0  0
   -0.1507   -1.1957    0.7938 H   0  0  0  0  0  0  0  0  0  0  0  0
    0.7256   -0.1170    0.1118 H   0  0  0  0  0  0  0  0  0  0  0  0
   -0.1200   -1.5664   -0.9990 H   0  0  0  0  0  0  0  0  0  0  0  0
  1  2  1  0  0  0  0
  1  5  1  0  0  0  0
  2  8  1  0  0  0  0
  3  1  1  0  0  0  0
  4  1  1  0  0  0  0
  6  2  1  0  0  0  0
  6 10  1  0  0  0  0
  7  2  1  0  0  0  0
  9  6  1  0  0  0  0
  9 13  1  0  0  0  0
  9 12  1  0  0  0  0
 11  6  1  0  0  0  0
 14  9  1  0  0  0  0
M  END
$$$$
