14
butane_opt
C  -3.978631   0.291731   0.085862
C  -2.697765  -0.633882  -0.044747
H  -4.847597  -0.295582   0.161474
H  -4.018896   0.922730  -0.798619
H  -3.925645   0.904041   0.919894
C  -1.367599   0.163034  -0.048825
H  -2.766392  -1.376498  -0.946737
H  -2.655634  -1.270317   0.800706
C  -0.163096  -0.679950   0.090207
H  -1.429024   0.911517   0.842054
H  -1.317174   0.778610  -0.915003
H  -0.238632  -1.415121   1.106597
H   0.782261  -0.054611  -0.040653
H  -0.136029  -1.251795  -0.678513
