14
butane_opt
C  -3.960853   0.238586  -0.025414
C  -2.706838  -0.596909   0.108444
H  -4.867523  -0.331868  -0.152851
H  -3.909005   0.838443  -0.929186
H  -3.980597   0.944806   0.863147
C  -1.394255   0.216092   0.036673
H  -2.739044  -1.221868  -0.709906
H  -2.810167  -1.226753   1.012253
C  -0.145622  -0.714856  -0.013353
H  -1.332650   0.915530   0.939190
H  -1.439195   0.779518  -0.806539
H  -0.072607  -1.291363   0.798783
H   0.685745  -0.223439   0.011750
H  -0.056314  -1.377541  -0.868568
