butane_opt
 OpenBabel08242015383D

 14 13  0  0  0  0  0  0  0  0999 V2000
   -3.9629    0.2756    0.0521 C   0  0  0  0  0  0  0  0  0  0  0  0
   -2.7021   -0.6210   -0.0031 C   0  0  0  0  0  0  0  0  0  0  0  0
   -4.8530   -0.3032    0.2314 H   0  0  0  0  0  0  0  0  0  0  0  0
   -4.0528    0.9370   -0.8914 H   0  0  0  0  0  0  0  0  0  0  0  0
   -3.9255    0.8160    0.8826 H   0  0  0  0  0  0  0  0  0  0  0  0
   -1.3877    0.1766   -0.0217 C   0  0  0  0  0  0  0  0  0  0  0  0
   -2.7547   -1.3695   -0.9214 H   0  0  0  0  0  0  0  0  0  0  0  0
   -2.7771   -1.1107    0.7699 H   0  0  0  0  0  0  0  0  0  0  0  0
   -0.1378   -0.7001    0.0663 C   0  0  0  0  0  0  0  0  0  0  0  0
   -1.3768    0.8950    0.8478 H   0  0  0  0  0  0  0  0  0  0  0  0
   -1.3756    0.8232   -0.8960 H   0  0  0  0  0  0  0  0  0  0  0  0
   -0.2148   -1.3433    1.0224 H   0  0  0  0  0  0  0  0  0  0  0  0
    0.7902   -0.1042    0.0024 H   0  0  0  0  0  0  0  0  0  0  0  0
   -0.1911   -1.2820   -0.7234 H   0  0  0  0  0  0  0  0  0  0  0  0
  1  3  1  0  0  0  0
  1  5  1  0  0  0  0
  2  1  1  0  0  0  0
  2  8  1  0  0  0  0
  4  1  1  0  0  0  0
  6  2  1  0  0  0  0
  6  9  1  0  0  0  0
  6 10  1  0  0  0  0
  7  2  1  0  0  0  0
  9 12  1  0  0  0  0
 11  6  1  0  0  0  0
 13  9  1  0  0  0  0
 14  9  1  0  0  0  0
M  END
$$$$
