butane_opt
 OpenBabel08242015383D

 14 13  0  0  0  0  0  0  0  0999 V2000
   -3.9421    0.2668   -0.0245 C   0  0  0  0  0  0  0  0  0  0  0  0
   -2.7066   -0.6265    0.0917 C   0  0  0  0  0  0  0  0  0  0  0  0
   -4.9154   -0.3701   -0.1650 H   0  0  0  0  0  0  0  0  0  0  0  0
   -3.8394    0.7702   -0.8394 H   0  0  0  0  0  0  0  0  0  0  0  0
   -4.0268    1.0438    0.9366 H   0  0  0  0  0  0  0  0  0  0  0  0
   -1.4010    0.2111    0.0356 C   0  0  0  0  0  0  0  0  0  0  0  0
   -2.6667   -1.2001   -0.6765 H   0  0  0  0  0  0  0  0  0  0  0  0
   -2.8696   -1.3330    1.0652 H   0  0  0  0  0  0  0  0  0  0  0  0
   -0.1579   -0.7044   -0.0104 C   0  0  0  0  0  0  0  0  0  0  0  0
   -1.3378    0.8520    0.8790 H   0  0  0  0  0  0  0  0  0  0  0  0
   -1.4151    0.8558   -0.8170 H   0  0  0  0  0  0  0  0  0  0  0  0
   -0.0750   -1.2956    0.8390 H   0  0  0  0  0  0  0  0  0  0  0  0
    0.6756   -0.1317    0.0195 H   0  0  0  0  0  0  0  0  0  0  0  0
   -0.0609   -1.4439   -0.9004 H   0  0  0  0  0  0  0  0  0  0  0  0
  1  2  1  0  0  0  0
  1  5  1  0  0  0  0
  2  8  1  0  0  0  0
  3  1  1  0  0  0  0
  4  1  1  0  0  0  0
  6  2  1  0  0  0  0
  6 10  1  0  0  0  0
  7  2  1  0  0  0  0
  9 13  1  0  0  0  0
  9  6  1  0  0  0  0
  9 12  1  0  0  0  0
 11  6  1  0  0  0  0
 14  9  1  0  0  0  0
M  END
$$$$
