butane_opt
 OpenBabel08242015383D

 14 13  0  0  0  0  0  0  0  0999 V2000
   -3.9279    0.2534    0.0136 C   0  0  0  0  0  0  0  0  0  0  0  0
   -2.7022   -0.5829    0.0142 C   0  0  0  0  0  0  0  0  0  0  0  0
   -4.9357   -0.4419    0.0308 H   0  0  0  0  0  0  0  0  0  0  0  0
   -3.9820    0.7118   -0.7978 H   0  0  0  0  0  0  0  0  0  0  0  0
   -3.8453    1.0032    0.9347 H   0  0  0  0  0  0  0  0  0  0  0  0
   -1.4332    0.2045    0.0195 C   0  0  0  0  0  0  0  0  0  0  0  0
   -2.7029   -1.3302   -0.8836 H   0  0  0  0  0  0  0  0  0  0  0  0
   -2.6527   -1.2518    0.9000 H   0  0  0  0  0  0  0  0  0  0  0  0
   -0.1527   -0.7149    0.0487 C   0  0  0  0  0  0  0  0  0  0  0  0
   -1.3816    0.8782    0.8900 H   0  0  0  0  0  0  0  0  0  0  0  0
   -1.3981    0.8356   -0.8420 H   0  0  0  0  0  0  0  0  0  0  0  0
   -0.0652   -1.5003    1.0720 H   0  0  0  0  0  0  0  0  0  0  0  0
    0.7303   -0.1403   -0.2774 H   0  0  0  0  0  0  0  0  0  0  0  0
   -0.1834   -1.1660   -0.7187 H   0  0  0  0  0  0  0  0  0  0  0  0
  1  2  1  0  0  0  0
  1  3  1  0  0  0  0
  1  5  1  0  0  0  0
  2  6  1  0  0  0  0
  2  8  1  0  0  0  0
  4  1  1  0  0  0  0
  6  9  1  0  0  0  0
  6 10  1  0  0  0  0
  7  2  1  0  0  0  0
  9 12  1  0  0  0  0
 11  6  1  0  0  0  0
 13  9  1  0  0  0  0
 14  9  1  0  0  0  0
M  END
$$$$
