butane_opt
 OpenBabel08242015383D

 14 13  0  0  0  0  0  0  0  0999 V2000
   -3.9766    0.2690    0.0317 C   0  0  0  0  0  0  0  0  0  0  0  0
   -2.6979   -0.6392    0.0021 C   0  0  0  0  0  0  0  0  0  0  0  0
   -4.8439   -0.2405    0.1144 H   0  0  0  0  0  0  0  0  0  0  0  0
   -4.0777    0.8520   -0.8721 H   0  0  0  0  0  0  0  0  0  0  0  0
   -3.9487    0.9643    0.9299 H   0  0  0  0  0  0  0  0  0  0  0  0
   -1.3819    0.1811    0.0118 C   0  0  0  0  0  0  0  0  0  0  0  0
   -2.7168   -1.2958   -0.8690 H   0  0  0  0  0  0  0  0  0  0  0  0
   -2.6262   -1.2316    0.8309 H   0  0  0  0  0  0  0  0  0  0  0  0
   -0.1596   -0.6785    0.0399 C   0  0  0  0  0  0  0  0  0  0  0  0
   -1.3328    0.9093    0.8660 H   0  0  0  0  0  0  0  0  0  0  0  0
   -1.3724    0.8058   -0.8674 H   0  0  0  0  0  0  0  0  0  0  0  0
   -0.1008   -1.5020    1.0641 H   0  0  0  0  0  0  0  0  0  0  0  0
    0.7362   -0.1231   -0.0522 H   0  0  0  0  0  0  0  0  0  0  0  0
   -0.1491   -1.1963   -0.7043 H   0  0  0  0  0  0  0  0  0  0  0  0
  1  3  1  0  0  0  0
  1  5  1  0  0  0  0
  2  6  1  0  0  0  0
  2  1  1  0  0  0  0
  2  8  1  0  0  0  0
  4  1  1  0  0  0  0
  6  9  1  0  0  0  0
  6 10  1  0  0  0  0
  7  2  1  0  0  0  0
  9 12  1  0  0  0  0
 11  6  1  0  0  0  0
 13  9  1  0  0  0  0
 14  9  1  0  0  0  0
M  END
$$$$
