butane_opt
 OpenBabel08242015383D

 14 13  0  0  0  0  0  0  0  0999 V2000
   -3.9496    0.2904   -0.0030 C   0  0  0  0  0  0  0  0  0  0  0  0
   -2.6839   -0.6432    0.0494 C   0  0  0  0  0  0  0  0  0  0  0  0
   -4.8668   -0.2848    0.2179 H   0  0  0  0  0  0  0  0  0  0  0  0
   -3.9744    1.1067   -1.0610 H   0  0  0  0  0  0  0  0  0  0  0  0
   -3.9165    0.7107    0.6916 H   0  0  0  0  0  0  0  0  0  0  0  0
   -1.4027    0.1498    0.0496 C   0  0  0  0  0  0  0  0  0  0  0  0
   -2.6858   -1.3588   -0.8130 H   0  0  0  0  0  0  0  0  0  0  0  0
   -2.6345   -1.2389    0.9385 H   0  0  0  0  0  0  0  0  0  0  0  0
   -0.1819   -0.6695    0.0118 C   0  0  0  0  0  0  0  0  0  0  0  0
   -1.3342    0.9791    0.9862 H   0  0  0  0  0  0  0  0  0  0  0  0
   -1.4385    0.7663   -0.8043 H   0  0  0  0  0  0  0  0  0  0  0  0
   -0.1030   -1.2322    0.8534 H   0  0  0  0  0  0  0  0  0  0  0  0
    0.7875   -0.0715    0.0126 H   0  0  0  0  0  0  0  0  0  0  0  0
   -0.2564   -1.3694   -0.8992 H   0  0  0  0  0  0  0  0  0  0  0  0
  1  2  1  0  0  0  0
  1  3  1  0  0  0  0
  1  5  1  0  0  0  0
  2  6  1  0  0  0  0
  2  8  1  0  0  0  0
  4  1  1  0  0  0  0
  6 10  1  0  0  0  0
  7  2  1  0  0  0  0
  9 13  1  0  0  0  0
  9  6  1  0  0  0  0
  9 12  1  0  0  0  0
 11  6  1  0  0  0  0
 14  9  1  0  0  0  0
M  END
$$$$
