butane_opt
 OpenBabel08242015383D

 14 13  0  0  0  0  0  0  0  0999 V2000
   -3.9469    0.2732    0.0498 C   0  0  0  0  0  0  0  0  0  0  0  0
   -2.6835   -0.6162    0.0157 C   0  0  0  0  0  0  0  0  0  0  0  0
   -4.8717   -0.3470    0.0121 H   0  0  0  0  0  0  0  0  0  0  0  0
   -4.0430    0.8153   -0.8040 H   0  0  0  0  0  0  0  0  0  0  0  0
   -3.8882    1.0076    1.0245 H   0  0  0  0  0  0  0  0  0  0  0  0
   -1.4064    0.1705   -0.0594 C   0  0  0  0  0  0  0  0  0  0  0  0
   -2.7816   -1.3049   -0.8576 H   0  0  0  0  0  0  0  0  0  0  0  0
   -2.5955   -1.2652    0.9310 H   0  0  0  0  0  0  0  0  0  0  0  0
   -0.1604   -0.6928    0.0680 C   0  0  0  0  0  0  0  0  0  0  0  0
   -1.3890    0.8255    0.8150 H   0  0  0  0  0  0  0  0  0  0  0  0
   -1.3845    0.8420   -0.9587 H   0  0  0  0  0  0  0  0  0  0  0  0
   -0.3785   -1.2259    0.9315 H   0  0  0  0  0  0  0  0  0  0  0  0
    0.7767   -0.0705    0.2167 H   0  0  0  0  0  0  0  0  0  0  0  0
   -0.0874   -1.3675   -0.7725 H   0  0  0  0  0  0  0  0  0  0  0  0
  1  5  1  0  0  0  0
  2  1  1  0  0  0  0
  2  8  1  0  0  0  0
  3  1  1  0  0  0  0
  4  1  1  0  0  0  0
  6  2  1  0  0  0  0
  6  9  1  0  0  0  0
  6 10  1  0  0  0  0
  7  2  1  0  0  0  0
  9 13  1  0  0  0  0
  9 12  1  0  0  0  0
 11  6  1  0  0  0  0
 14  9  1  0  0  0  0
M  END
$$$$
