butane_opt
 OpenBabel08242015383D

 14 13  0  0  0  0  0  0  0  0999 V2000
   -3.9258    0.2415   -0.0277 C   0  0  0  0  0  0  0  0  0  0  0  0
   -2.7119   -0.6024    0.0854 C   0  0  0  0  0  0  0  0  0  0  0  0
   -4.7973   -0.3190   -0.0609 H   0  0  0  0  0  0  0  0  0  0  0  0
   -3.8554    0.8910   -0.9488 H   0  0  0  0  0  0  0  0  0  0  0  0
   -3.9821    0.9393    0.8250 H   0  0  0  0  0  0  0  0  0  0  0  0
   -1.4126    0.2124    0.0480 C   0  0  0  0  0  0  0  0  0  0  0  0
   -2.6771   -1.1737   -0.6413 H   0  0  0  0  0  0  0  0  0  0  0  0
   -2.7678   -1.3779    1.0947 H   0  0  0  0  0  0  0  0  0  0  0  0
   -0.1651   -0.7200   -0.0119 C   0  0  0  0  0  0  0  0  0  0  0  0
   -1.3606    0.9578    0.9684 H   0  0  0  0  0  0  0  0  0  0  0  0
   -1.4733    0.8180   -0.8271 H   0  0  0  0  0  0  0  0  0  0  0  0
   -0.0832   -1.1828    0.7621 H   0  0  0  0  0  0  0  0  0  0  0  0
    0.7704   -0.1604    0.0810 H   0  0  0  0  0  0  0  0  0  0  0  0
   -0.2053   -1.4413   -0.9430 H   0  0  0  0  0  0  0  0  0  0  0  0
  1  2  1  0  0  0  0
  1  5  1  0  0  0  0
  2  8  1  0  0  0  0
  3  1  1  0  0  0  0
  4  1  1  0  0  0  0
  6  2  1  0  0  0  0
  6 10  1  0  0  0  0
  7  2  1  0  0  0  0
  9  6  1  0  0  0  0
  9 13  1  0  0  0  0
  9 12  1  0  0  0  0
 11  6  1  0  0  0  0
 14  9  1  0  0  0  0
M  END
$$$$
