butane_opt
 OpenBabel08242015383D

 14 13  0  0  0  0  0  0  0  0999 V2000
   -3.9726    0.2878   -0.0443 C   0  0  0  0  0  0  0  0  0  0  0  0
   -2.7031   -0.6572    0.0714 C   0  0  0  0  0  0  0  0  0  0  0  0
   -4.7931   -0.2316    0.1125 H   0  0  0  0  0  0  0  0  0  0  0  0
   -4.0395    0.9648   -0.9770 H   0  0  0  0  0  0  0  0  0  0  0  0
   -4.0689    0.8166    0.7394 H   0  0  0  0  0  0  0  0  0  0  0  0
   -1.3859    0.1878    0.1077 C   0  0  0  0  0  0  0  0  0  0  0  0
   -2.5809   -1.3228   -0.7403 H   0  0  0  0  0  0  0  0  0  0  0  0
   -2.7185   -1.2818    0.9937 H   0  0  0  0  0  0  0  0  0  0  0  0
   -0.1470   -0.6767   -0.0287 C   0  0  0  0  0  0  0  0  0  0  0  0
   -1.3637    0.8527    0.9750 H   0  0  0  0  0  0  0  0  0  0  0  0
   -1.3704    0.7516   -0.7712 H   0  0  0  0  0  0  0  0  0  0  0  0
   -0.0553   -1.3303    0.8960 H   0  0  0  0  0  0  0  0  0  0  0  0
    0.7743   -0.0742   -0.1835 H   0  0  0  0  0  0  0  0  0  0  0  0
   -0.3094   -1.2978   -0.8812 H   0  0  0  0  0  0  0  0  0  0  0  0
  1  2  1  0  0  0  0
  1  3  1  0  0  0  0
  1  5  1  0  0  0  0
  2  6  1  0  0  0  0
  2  8  1  0  0  0  0
  4  1  1  0  0  0  0
  6 10  1  0  0  0  0
  7  2  1  0  0  0  0
  9  6  1  0  0  0  0
  9 12  1  0  0  0  0
 11  6  1  0  0  0  0
 13  9  1  0  0  0  0
 14  9  1  0  0  0  0
M  END
$$$$
