butane_opt
 OpenBabel08242015383D

 14 13  0  0  0  0  0  0  0  0999 V2000
   -3.9361    0.2572   -0.0448 C   0  0  0  0  0  0  0  0  0  0  0  0
   -2.6992   -0.5948    0.1231 C   0  0  0  0  0  0  0  0  0  0  0  0
   -4.8358   -0.3671   -0.2252 H   0  0  0  0  0  0  0  0  0  0  0  0
   -3.7058    0.7441   -0.8875 H   0  0  0  0  0  0  0  0  0  0  0  0
   -4.0271    0.9185    0.8318 H   0  0  0  0  0  0  0  0  0  0  0  0
   -1.3980    0.2035    0.0675 C   0  0  0  0  0  0  0  0  0  0  0  0
   -2.6613   -1.2300   -0.6654 H   0  0  0  0  0  0  0  0  0  0  0  0
   -2.7504   -1.2429    1.0734 H   0  0  0  0  0  0  0  0  0  0  0  0
   -0.1849   -0.7100   -0.0291 C   0  0  0  0  0  0  0  0  0  0  0  0
   -1.2964    0.8657    0.9328 H   0  0  0  0  0  0  0  0  0  0  0  0
   -1.5776    0.8248   -0.8197 H   0  0  0  0  0  0  0  0  0  0  0  0
   -0.1223   -1.2712    0.8524 H   0  0  0  0  0  0  0  0  0  0  0  0
    0.7049   -0.1516   -0.0886 H   0  0  0  0  0  0  0  0  0  0  0  0
   -0.1405   -1.4393   -0.9619 H   0  0  0  0  0  0  0  0  0  0  0  0
  1  2  1  0  0  0  0
  1  5  1  0  0  0  0
  2  8  1  0  0  0  0
  3  1  1  0  0  0  0
  4  1  1  0  0  0  0
  6  2  1  0  0  0  0
  6 10  1  0  0  0  0
  7  2  1  0  0  0  0
  9  6  1  0  0  0  0
  9 12  1  0  0  0  0
 11  6  1  0  0  0  0
 13  9  1  0  0  0  0
 14  9  1  0  0  0  0
M  END
$$$$
