14
butane_opt
C  -3.942635   0.249190   0.002732
C  -2.702205  -0.608440   0.057285
H  -4.895424  -0.363080  -0.047045
H  -3.984090   0.832963  -0.855446
H  -3.995405   0.876130   0.779005
C  -1.400522   0.214883   0.047927
H  -2.677665  -1.251072  -0.815142
H  -2.725866  -1.270958   0.958046
C  -0.155873  -0.707024   0.008273
H  -1.487274   0.938284   0.889408
H  -1.356456   0.885919  -0.851333
H   0.005419  -1.384547   0.923018
H   0.692758  -0.179271  -0.087645
H  -0.169804  -1.364590  -0.851470
