butane_opt
 OpenBabel08242015383D

 14 13  0  0  0  0  0  0  0  0999 V2000
   -3.9334    0.2821   -0.0128 C   0  0  0  0  0  0  0  0  0  0  0  0
   -2.6932   -0.6242    0.0877 C   0  0  0  0  0  0  0  0  0  0  0  0
   -4.8481   -0.3090   -0.0475 H   0  0  0  0  0  0  0  0  0  0  0  0
   -3.8828    0.9409   -0.9550 H   0  0  0  0  0  0  0  0  0  0  0  0
   -4.0582    0.8962    0.7898 H   0  0  0  0  0  0  0  0  0  0  0  0
   -1.3873    0.1628    0.0417 C   0  0  0  0  0  0  0  0  0  0  0  0
   -2.6666   -1.3720   -0.8349 H   0  0  0  0  0  0  0  0  0  0  0  0
   -2.7436   -1.2527    0.9999 H   0  0  0  0  0  0  0  0  0  0  0  0
   -0.1980   -0.6813   -0.0028 C   0  0  0  0  0  0  0  0  0  0  0  0
   -1.3522    0.9096    0.9855 H   0  0  0  0  0  0  0  0  0  0  0  0
   -1.4060    0.7274   -0.7890 H   0  0  0  0  0  0  0  0  0  0  0  0
   -0.0201   -1.3229    0.9003 H   0  0  0  0  0  0  0  0  0  0  0  0
    0.7107   -0.0797   -0.0991 H   0  0  0  0  0  0  0  0  0  0  0  0
   -0.2245   -1.2737   -0.8708 H   0  0  0  0  0  0  0  0  0  0  0  0
  1  2  1  0  0  0  0
  1  5  1  0  0  0  0
  2  8  1  0  0  0  0
  3  1  1  0  0  0  0
  4  1  1  0  0  0  0
  6  2  1  0  0  0  0
  6 10  1  0  0  0  0
  7  2  1  0  0  0  0
  9  6  1  0  0  0  0
  9 12  1  0  0  0  0
 11  6  1  0  0  0  0
 13  9  1  0  0  0  0
 14  9  1  0  0  0  0
M  END
$$$$
