14
butane_opt
C  -3.947835   0.291385  -0.057399
C  -2.689940  -0.622960   0.125714
H  -4.828663  -0.288989  -0.195032
H  -3.867678   0.789954  -0.845995
H  -4.068276   0.994577   0.808686
C  -1.396269   0.138759   0.086544
H  -2.684774  -1.227372  -0.692055
H  -2.774637  -1.330985   1.050207
C  -0.168529  -0.668471  -0.036566
H  -1.292669   0.786221   0.902552
H  -1.430758   0.839010  -0.807458
H  -0.133462  -1.234767   0.847252
H   0.753883  -0.047374  -0.090006
H  -0.279055  -1.420224  -0.957346
