14
butane_opt
C  -3.922287   0.275422  -0.007058
C  -2.692181  -0.624796   0.054627
H  -4.833956  -0.330015   0.239561
H  -4.095981   1.142143  -1.061683
H  -3.874322   0.674605   0.684272
C  -1.415456   0.164537   0.062402
H  -2.614226  -1.354903  -0.815686
H  -2.660588  -1.203320   0.916261
C  -0.191639  -0.679409  -0.010516
H  -1.373757   0.874878   0.941455
H  -1.365001   0.774924  -0.750853
H  -0.163075  -1.195113   0.853071
H   0.734647  -0.119027   0.066474
H  -0.115765  -1.359891  -0.868189
