14
butane_opt
C  -3.964734   0.265365   0.045753
C  -2.687194  -0.630017   0.001135
H  -4.828116  -0.303612   0.233768
H  -4.126183   1.066716  -0.937619
H  -3.885528   0.812418   0.798530
C  -1.408220   0.186193   0.002667
H  -2.755117  -1.403009  -0.906131
H  -2.645353  -1.173294   0.846514
C  -0.158850  -0.696079   0.047532
H  -1.330156   0.846826   0.855789
H  -1.392212   0.860705  -0.942846
H  -0.196603  -1.291882   0.980285
H   0.829536   0.003196   0.141956
H  -0.075313  -1.383466  -0.813202
