butane_opt
 OpenBabel08242015383D

 14 13  0  0  0  0  0  0  0  0999 V2000
   -3.9773    0.2776    0.0291 C   0  0  0  0  0  0  0  0  0  0  0  0
   -2.6962   -0.6324    0.0019 C   0  0  0  0  0  0  0  0  0  0  0  0
   -4.8603   -0.2886    0.0100 H   0  0  0  0  0  0  0  0  0  0  0  0
   -4.0403    0.8966   -0.8477 H   0  0  0  0  0  0  0  0  0  0  0  0
   -4.0495    0.9767    0.9377 H   0  0  0  0  0  0  0  0  0  0  0  0
   -1.3804    0.1591    0.0298 C   0  0  0  0  0  0  0  0  0  0  0  0
   -2.6857   -1.3736   -0.9103 H   0  0  0  0  0  0  0  0  0  0  0  0
   -2.6394   -1.2547    0.8644 H   0  0  0  0  0  0  0  0  0  0  0  0
   -0.1612   -0.6770    0.0487 C   0  0  0  0  0  0  0  0  0  0  0  0
   -1.3227    0.8633    0.8819 H   0  0  0  0  0  0  0  0  0  0  0  0
   -1.3560    0.8480   -0.8738 H   0  0  0  0  0  0  0  0  0  0  0  0
   -0.0005   -1.4366    1.0644 H   0  0  0  0  0  0  0  0  0  0  0  0
    0.7382   -0.0964   -0.2800 H   0  0  0  0  0  0  0  0  0  0  0  0
   -0.2235   -1.1292   -0.7030 H   0  0  0  0  0  0  0  0  0  0  0  0
  1  5  1  0  0  0  0
  2  1  1  0  0  0  0
  2  6  1  0  0  0  0
  2  8  1  0  0  0  0
  3  1  1  0  0  0  0
  4  1  1  0  0  0  0
  6  9  1  0  0  0  0
  6 10  1  0  0  0  0
  7  2  1  0  0  0  0
  9 12  1  0  0  0  0
 11  6  1  0  0  0  0
 13  9  1  0  0  0  0
 14  9  1  0  0  0  0
M  END
$$$$
