14
butane_opt
C  -3.960058   0.286428   0.038647
C  -2.701996  -0.644645   0.003327
H  -4.854475  -0.352580  -0.027721
H  -4.002490   0.824881  -0.773431
H  -4.017686   1.040057   0.959501
C  -1.394481   0.181498  -0.001204
H  -2.770338  -1.379554  -0.872123
H  -2.612022  -1.137994   0.821810
C  -0.162675  -0.684610   0.069201
H  -1.348393   0.813991   0.854492
H  -1.249079   0.818322  -0.932575
H  -0.059899  -1.479237   1.077244
H   0.757427  -0.097040  -0.271884
H  -0.236187  -1.183111  -0.704831
