butane_opt
 OpenBabel08242015383D

 14 13  0  0  0  0  0  0  0  0999 V2000
   -3.9590    0.2786   -0.0190 C   0  0  0  0  0  0  0  0  0  0  0  0
   -2.6998   -0.6264    0.0495 C   0  0  0  0  0  0  0  0  0  0  0  0
   -4.8784   -0.3314   -0.0354 H   0  0  0  0  0  0  0  0  0  0  0  0
   -3.9122    0.9586   -0.9295 H   0  0  0  0  0  0  0  0  0  0  0  0
   -3.9778    0.9756    0.8310 H   0  0  0  0  0  0  0  0  0  0  0  0
   -1.3921    0.1706    0.0698 C   0  0  0  0  0  0  0  0  0  0  0  0
   -2.7329   -1.2873   -0.7491 H   0  0  0  0  0  0  0  0  0  0  0  0
   -2.7890   -1.3338    1.0316 H   0  0  0  0  0  0  0  0  0  0  0  0
   -0.1477   -0.6860   -0.0029 C   0  0  0  0  0  0  0  0  0  0  0  0
   -1.3330    0.9241    1.0106 H   0  0  0  0  0  0  0  0  0  0  0  0
   -1.4547    0.7145   -0.7625 H   0  0  0  0  0  0  0  0  0  0  0  0
   -0.0965   -1.4069    0.9673 H   0  0  0  0  0  0  0  0  0  0  0  0
    0.7959   -0.0570   -0.2834 H   0  0  0  0  0  0  0  0  0  0  0  0
   -0.2723   -1.2546   -0.8109 H   0  0  0  0  0  0  0  0  0  0  0  0
  1  2  1  0  0  0  0
  1  5  1  0  0  0  0
  2  6  1  0  0  0  0
  2  8  1  0  0  0  0
  3  1  1  0  0  0  0
  4  1  1  0  0  0  0
  6 10  1  0  0  0  0
  7  2  1  0  0  0  0
  9  6  1  0  0  0  0
  9 12  1  0  0  0  0
 11  6  1  0  0  0  0
 13  9  1  0  0  0  0
 14  9  1  0  0  0  0
M  END
$$$$
