14
butane_opt
C  -3.936082   0.257232  -0.044817
C  -2.699170  -0.594770   0.123072
H  -4.835817  -0.367069  -0.225226
H  -3.705768   0.744141  -0.887503
H  -4.027119   0.918524   0.831775
C  -1.398023   0.203455   0.067520
H  -2.661330  -1.230001  -0.665397
H  -2.750394  -1.242900   1.073389
C  -0.184930  -0.710040  -0.029100
H  -1.296429   0.865727   0.932772
H  -1.577574   0.824840  -0.819727
H  -0.122285  -1.271249   0.852426
H   0.704870  -0.151602  -0.088581
H  -0.140470  -1.439283  -0.961911
