butane_opt
 OpenBabel08242015383D

 14 13  0  0  0  0  0  0  0  0999 V2000
   -3.9426    0.2492    0.0027 C   0  0  0  0  0  0  0  0  0  0  0  0
   -2.7022   -0.6084    0.0573 C   0  0  0  0  0  0  0  0  0  0  0  0
   -4.8954   -0.3631   -0.0470 H   0  0  0  0  0  0  0  0  0  0  0  0
   -3.9841    0.8330   -0.8554 H   0  0  0  0  0  0  0  0  0  0  0  0
   -3.9954    0.8761    0.7790 H   0  0  0  0  0  0  0  0  0  0  0  0
   -1.4005    0.2149    0.0479 C   0  0  0  0  0  0  0  0  0  0  0  0
   -2.6777   -1.2511   -0.8151 H   0  0  0  0  0  0  0  0  0  0  0  0
   -2.7259   -1.2710    0.9580 H   0  0  0  0  0  0  0  0  0  0  0  0
   -0.1559   -0.7070    0.0083 C   0  0  0  0  0  0  0  0  0  0  0  0
   -1.4873    0.9383    0.8894 H   0  0  0  0  0  0  0  0  0  0  0  0
   -1.3565    0.8859   -0.8513 H   0  0  0  0  0  0  0  0  0  0  0  0
    0.0054   -1.3845    0.9230 H   0  0  0  0  0  0  0  0  0  0  0  0
    0.6928   -0.1793   -0.0876 H   0  0  0  0  0  0  0  0  0  0  0  0
   -0.1698   -1.3646   -0.8515 H   0  0  0  0  0  0  0  0  0  0  0  0
  1  2  1  0  0  0  0
  1  5  1  0  0  0  0
  2  8  1  0  0  0  0
  3  1  1  0  0  0  0
  4  1  1  0  0  0  0
  6  2  1  0  0  0  0
  6 10  1  0  0  0  0
  7  2  1  0  0  0  0
  9  6  1  0  0  0  0
  9 12  1  0  0  0  0
 11  6  1  0  0  0  0
 13  9  1  0  0  0  0
 14  9  1  0  0  0  0
M  END
$$$$
