butane_opt
 OpenBabel08242015383D

 14 13  0  0  0  0  0  0  0  0999 V2000
   -3.9786    0.2917    0.0859 C   0  0  0  0  0  0  0  0  0  0  0  0
   -2.6978   -0.6339   -0.0447 C   0  0  0  0  0  0  0  0  0  0  0  0
   -4.8476   -0.2956    0.1615 H   0  0  0  0  0  0  0  0  0  0  0  0
   -4.0189    0.9227   -0.7986 H   0  0  0  0  0  0  0  0  0  0  0  0
   -3.9256    0.9040    0.9199 H   0  0  0  0  0  0  0  0  0  0  0  0
   -1.3676    0.1630   -0.0488 C   0  0  0  0  0  0  0  0  0  0  0  0
   -2.7664   -1.3765   -0.9467 H   0  0  0  0  0  0  0  0  0  0  0  0
   -2.6556   -1.2703    0.8007 H   0  0  0  0  0  0  0  0  0  0  0  0
   -0.1631   -0.6800    0.0902 C   0  0  0  0  0  0  0  0  0  0  0  0
   -1.4290    0.9115    0.8421 H   0  0  0  0  0  0  0  0  0  0  0  0
   -1.3172    0.7786   -0.9150 H   0  0  0  0  0  0  0  0  0  0  0  0
   -0.2386   -1.4151    1.1066 H   0  0  0  0  0  0  0  0  0  0  0  0
    0.7823   -0.0546   -0.0407 H   0  0  0  0  0  0  0  0  0  0  0  0
   -0.1360   -1.2518   -0.6785 H   0  0  0  0  0  0  0  0  0  0  0  0
  1  3  1  0  0  0  0
  1  5  1  0  0  0  0
  2  1  1  0  0  0  0
  2  8  1  0  0  0  0
  4  1  1  0  0  0  0
  6  2  1  0  0  0  0
  6  9  1  0  0  0  0
  6 10  1  0  0  0  0
  7  2  1  0  0  0  0
  9 12  1  0  0  0  0
 11  6  1  0  0  0  0
 13  9  1  0  0  0  0
 14  9  1  0  0  0  0
M  END
$$$$
