butane_opt
 OpenBabel08242015383D

 14 13  0  0  0  0  0  0  0  0999 V2000
   -3.9356    0.2570    0.0244 C   0  0  0  0  0  0  0  0  0  0  0  0
   -2.6749   -0.6077    0.0082 C   0  0  0  0  0  0  0  0  0  0  0  0
   -4.8335   -0.3644    0.0786 H   0  0  0  0  0  0  0  0  0  0  0  0
   -4.0004    0.8408   -0.8089 H   0  0  0  0  0  0  0  0  0  0  0  0
   -3.8393    0.9713    0.9486 H   0  0  0  0  0  0  0  0  0  0  0  0
   -1.4097    0.1861    0.0172 C   0  0  0  0  0  0  0  0  0  0  0  0
   -2.7552   -1.3637   -0.9061 H   0  0  0  0  0  0  0  0  0  0  0  0
   -2.6946   -1.1353    0.8280 H   0  0  0  0  0  0  0  0  0  0  0  0
   -0.1876   -0.6963    0.0546 C   0  0  0  0  0  0  0  0  0  0  0  0
   -1.4198    0.7961    0.8316 H   0  0  0  0  0  0  0  0  0  0  0  0
   -1.3942    0.8626   -0.9519 H   0  0  0  0  0  0  0  0  0  0  0  0
   -0.0156   -1.4269    1.0065 H   0  0  0  0  0  0  0  0  0  0  0  0
    0.6589   -0.1446   -0.1328 H   0  0  0  0  0  0  0  0  0  0  0  0
   -0.2348   -1.1726   -0.6837 H   0  0  0  0  0  0  0  0  0  0  0  0
  1  3  1  0  0  0  0
  1  5  1  0  0  0  0
  2  6  1  0  0  0  0
  2  1  1  0  0  0  0
  2  8  1  0  0  0  0
  4  1  1  0  0  0  0
  6  9  1  0  0  0  0
  6 10  1  0  0  0  0
  7  2  1  0  0  0  0
  9 12  1  0  0  0  0
 11  6  1  0  0  0  0
 13  9  1  0  0  0  0
 14  9  1  0  0  0  0
M  END
$$$$
