butane_opt
 OpenBabel08242015383D

 14 13  0  0  0  0  0  0  0  0999 V2000
   -3.9399    0.2774   -0.0421 C   0  0  0  0  0  0  0  0  0  0  0  0
   -2.6951   -0.6201    0.0857 C   0  0  0  0  0  0  0  0  0  0  0  0
   -4.8706   -0.3250    0.0410 H   0  0  0  0  0  0  0  0  0  0  0  0
   -3.9760    1.0225   -0.9439 H   0  0  0  0  0  0  0  0  0  0  0  0
   -3.9218    0.8581    0.7508 H   0  0  0  0  0  0  0  0  0  0  0  0
   -1.3945    0.1719    0.0962 C   0  0  0  0  0  0  0  0  0  0  0  0
   -2.6211   -1.3398   -0.7799 H   0  0  0  0  0  0  0  0  0  0  0  0
   -2.6775   -1.2543    0.9873 H   0  0  0  0  0  0  0  0  0  0  0  0
   -0.1789   -0.6864   -0.0259 C   0  0  0  0  0  0  0  0  0  0  0  0
   -1.3123    0.7972    0.9137 H   0  0  0  0  0  0  0  0  0  0  0  0
   -1.4284    0.7562   -0.8127 H   0  0  0  0  0  0  0  0  0  0  0  0
   -0.1523   -1.2972    0.8816 H   0  0  0  0  0  0  0  0  0  0  0  0
    0.7752   -0.0442   -0.0725 H   0  0  0  0  0  0  0  0  0  0  0  0
   -0.3350   -1.3508   -0.9024 H   0  0  0  0  0  0  0  0  0  0  0  0
  1  3  1  0  0  0  0
  1  2  1  0  0  0  0
  1  5  1  0  0  0  0
  2  6  1  0  0  0  0
  2  8  1  0  0  0  0
  4  1  1  0  0  0  0
  6 10  1  0  0  0  0
  7  2  1  0  0  0  0
  9  6  1  0  0  0  0
  9 12  1  0  0  0  0
 11  6  1  0  0  0  0
 13  9  1  0  0  0  0
 14  9  1  0  0  0  0
M  END
$$$$
