14
butane_opt
C  -3.964689   0.260548   0.029467
C  -2.695340  -0.611275   0.017907
H  -4.832601  -0.319430   0.218022
H  -4.098567   1.048737  -0.980491
H  -3.958405   0.768009   0.747646
C  -1.395030   0.188644   0.031158
H  -2.773800  -1.338191  -0.891004
H  -2.754803  -1.209249   0.829450
C  -0.129316  -0.692692   0.036765
H  -1.362345   0.831594   0.864480
H  -1.457438   0.785898  -0.837598
H  -0.184362  -1.285601   0.927176
H   0.750661  -0.116313  -0.025484
H  -0.131696  -1.368943  -0.811745
