butane_opt
 OpenBabel08242015383D

 14 13  0  0  0  0  0  0  0  0999 V2000
   -3.9356    0.2443    0.0815 C   0  0  0  0  0  0  0  0  0  0  0  0
   -2.7057   -0.5758   -0.0155 C   0  0  0  0  0  0  0  0  0  0  0  0
   -4.9161   -0.4046    0.1340 H   0  0  0  0  0  0  0  0  0  0  0  0
   -3.8868    0.9287   -0.8580 H   0  0  0  0  0  0  0  0  0  0  0  0
   -3.8929    0.9106    0.9173 H   0  0  0  0  0  0  0  0  0  0  0  0
   -1.4183    0.1832   -0.0508 C   0  0  0  0  0  0  0  0  0  0  0  0
   -2.8153   -1.3198   -0.9431 H   0  0  0  0  0  0  0  0  0  0  0  0
   -2.6300   -1.1666    0.8307 H   0  0  0  0  0  0  0  0  0  0  0  0
   -0.1551   -0.7061    0.0887 C   0  0  0  0  0  0  0  0  0  0  0  0
   -1.3657    0.7894    0.7429 H   0  0  0  0  0  0  0  0  0  0  0  0
   -1.3280    0.8936   -0.9629 H   0  0  0  0  0  0  0  0  0  0  0  0
   -0.2339   -1.2810    0.9553 H   0  0  0  0  0  0  0  0  0  0  0  0
    0.6994   -0.1583    0.1600 H   0  0  0  0  0  0  0  0  0  0  0  0
   -0.0592   -1.4284   -0.7894 H   0  0  0  0  0  0  0  0  0  0  0  0
  1  3  1  0  0  0  0
  1  5  1  0  0  0  0
  2  1  1  0  0  0  0
  2  8  1  0  0  0  0
  4  1  1  0  0  0  0
  6  2  1  0  0  0  0
  6  9  1  0  0  0  0
  6 10  1  0  0  0  0
  7  2  1  0  0  0  0
  9 13  1  0  0  0  0
  9 12  1  0  0  0  0
 11  6  1  0  0  0  0
 14  9  1  0  0  0  0
M  END
$$$$
