butane_opt
 OpenBabel08242015383D

 14 13  0  0  0  0  0  0  0  0999 V2000
   -3.9351    0.2690    0.0474 C   0  0  0  0  0  0  0  0  0  0  0  0
   -2.6812   -0.6349    0.0043 C   0  0  0  0  0  0  0  0  0  0  0  0
   -4.8054   -0.2428   -0.1623 H   0  0  0  0  0  0  0  0  0  0  0  0
   -4.0030    0.7363   -0.7245 H   0  0  0  0  0  0  0  0  0  0  0  0
   -3.9450    1.2487    1.1101 H   0  0  0  0  0  0  0  0  0  0  0  0
   -1.3858    0.1537   -0.0192 C   0  0  0  0  0  0  0  0  0  0  0  0
   -2.7441   -1.2675   -0.8210 H   0  0  0  0  0  0  0  0  0  0  0  0
   -2.6915   -1.2650    0.8822 H   0  0  0  0  0  0  0  0  0  0  0  0
   -0.1904   -0.6741    0.0618 C   0  0  0  0  0  0  0  0  0  0  0  0
   -1.4352    0.7656    0.7311 H   0  0  0  0  0  0  0  0  0  0  0  0
   -1.4019    0.8618   -0.9663 H   0  0  0  0  0  0  0  0  0  0  0  0
   -0.2380   -1.4494    1.0264 H   0  0  0  0  0  0  0  0  0  0  0  0
    0.7471   -0.0324   -0.0423 H   0  0  0  0  0  0  0  0  0  0  0  0
   -0.2010   -1.1863   -0.6914 H   0  0  0  0  0  0  0  0  0  0  0  0
  1  5  1  0  0  0  0
  2  1  1  0  0  0  0
  2  8  1  0  0  0  0
  3  1  1  0  0  0  0
  4  1  1  0  0  0  0
  6  2  1  0  0  0  0
  6  9  1  0  0  0  0
  6 10  1  0  0  0  0
  7  2  1  0  0  0  0
  9 12  1  0  0  0  0
 11  6  1  0  0  0  0
 13  9  1  0  0  0  0
 14  9  1  0  0  0  0
M  END
$$$$
