14
butane_opt
C  -3.943899   0.248485  -0.034078
C  -2.721526  -0.598493   0.117276
H  -4.885071  -0.388452  -0.244934
H  -3.787386   0.780658  -0.872320
H  -4.118703   1.041135   0.898450
C  -1.390893   0.209270   0.051752
H  -2.692516  -1.266566  -0.702242
H  -2.817671  -1.282897   1.079834
C  -0.140514  -0.704524  -0.012602
H  -1.391449   0.866774   0.841383
H  -1.400231   0.875705  -0.837365
H   0.044861  -1.298579   0.840806
H   0.634404  -0.216979  -0.045845
H  -0.227981  -1.467108  -0.974786
