14
butane_opt
C  -3.977314   0.277612   0.029119
C  -2.696165  -0.632421   0.001875
H  -4.860346  -0.288647   0.010029
H  -4.040323   0.896619  -0.847697
H  -4.049469   0.976666   0.937730
C  -1.380442   0.159080   0.029840
H  -2.685655  -1.373553  -0.910328
H  -2.639422  -1.254712   0.864389
C  -0.161202  -0.677034   0.048700
H  -1.322684   0.863297   0.881921
H  -1.355957   0.847967  -0.873796
H  -0.000489  -1.436614   1.064434
H   0.738181  -0.096444  -0.280025
H  -0.223459  -1.129244  -0.703004
