14
butane_opt
C  -3.939129   0.259203  -0.016418
C  -2.707087  -0.588599   0.102605
H  -4.875186  -0.375543  -0.116149
H  -3.765633   0.826535  -0.934375
H  -4.011094   0.928829   0.815961
C  -1.401935   0.184338   0.049285
H  -2.703887  -1.266372  -0.779889
H  -2.796341  -1.265633   1.060984
C  -0.163698  -0.698402  -0.017470
H  -1.302610   0.844601   0.863665
H  -1.508137   0.820646  -0.872562
H  -0.119722  -1.239258   0.830304
H   0.722153  -0.188093   0.092856
H  -0.120478  -1.441812  -0.924371
