butane_opt
 OpenBabel08242015383D

 14 13  0  0  0  0  0  0  0  0999 V2000
   -3.9332    0.2824    0.0322 C   0  0  0  0  0  0  0  0  0  0  0  0
   -2.6922   -0.6330    0.0540 C   0  0  0  0  0  0  0  0  0  0  0  0
   -4.8379   -0.3513   -0.1688 H   0  0  0  0  0  0  0  0  0  0  0  0
   -3.9132    0.6822   -0.7453 H   0  0  0  0  0  0  0  0  0  0  0  0
   -4.1264    1.1883    1.0057 H   0  0  0  0  0  0  0  0  0  0  0  0
   -1.3922    0.1744   -0.0313 C   0  0  0  0  0  0  0  0  0  0  0  0
   -2.6966   -1.3424   -0.8572 H   0  0  0  0  0  0  0  0  0  0  0  0
   -2.6036   -1.1988    0.9131 H   0  0  0  0  0  0  0  0  0  0  0  0
   -0.1940   -0.6810    0.0506 C   0  0  0  0  0  0  0  0  0  0  0  0
   -1.2927    0.7330    0.7591 H   0  0  0  0  0  0  0  0  0  0  0  0
   -1.3832    0.8253   -0.9289 H   0  0  0  0  0  0  0  0  0  0  0  0
   -0.2094   -1.3680    0.9998 H   0  0  0  0  0  0  0  0  0  0  0  0
    0.7494   -0.0621    0.0113 H   0  0  0  0  0  0  0  0  0  0  0  0
   -0.1599   -1.2959   -0.7805 H   0  0  0  0  0  0  0  0  0  0  0  0
  1  2  1  0  0  0  0
  1  5  1  0  0  0  0
  2  8  1  0  0  0  0
  3  1  1  0  0  0  0
  4  1  1  0  0  0  0
  6  9  1  0  0  0  0
  6  2  1  0  0  0  0
  6 10  1  0  0  0  0
  7  2  1  0  0  0  0
  9 12  1  0  0  0  0
 11  6  1  0  0  0  0
 13  9  1  0  0  0  0
 14  9  1  0  0  0  0
M  END
$$$$
