14
butane_opt
C  -3.923412   0.247806   0.017966
C  -2.692327  -0.599016   0.031498
H  -4.804054  -0.334314  -0.130393
H  -3.872652   0.639444  -0.745815
H  -3.974407   1.150498   1.095975
C  -1.429010   0.197375  -0.012870
H  -2.743644  -1.285530  -0.783873
H  -2.791098  -1.294298   0.945385
C  -0.163065  -0.692291   0.052183
H  -1.399624   0.812725   0.809162
H  -1.511967   0.887815  -0.930853
H  -0.043353  -1.441887   1.024735
H   0.729372  -0.124421  -0.073444
H  -0.134039  -1.316714  -0.792875
