butane_opt
 OpenBabel08242015383D

 14 13  0  0  0  0  0  0  0  0999 V2000
   -3.9481    0.2830    0.0607 C   0  0  0  0  0  0  0  0  0  0  0  0
   -2.6645   -0.6410    0.0156 C   0  0  0  0  0  0  0  0  0  0  0  0
   -4.8584   -0.2919   -0.1631 H   0  0  0  0  0  0  0  0  0  0  0  0
   -3.9012    0.7138   -0.7552 H   0  0  0  0  0  0  0  0  0  0  0  0
   -4.0615    1.1302    0.9921 H   0  0  0  0  0  0  0  0  0  0  0  0
   -1.4046    0.1730   -0.0423 C   0  0  0  0  0  0  0  0  0  0  0  0
   -2.7156   -1.3619   -0.8212 H   0  0  0  0  0  0  0  0  0  0  0  0
   -2.6133   -1.3174    0.9251 H   0  0  0  0  0  0  0  0  0  0  0  0
   -0.1972   -0.6840    0.0527 C   0  0  0  0  0  0  0  0  0  0  0  0
   -1.4085    0.8810    0.8322 H   0  0  0  0  0  0  0  0  0  0  0  0
   -1.2921    0.8012   -0.9459 H   0  0  0  0  0  0  0  0  0  0  0  0
   -0.1773   -1.3866    1.0032 H   0  0  0  0  0  0  0  0  0  0  0  0
    0.7235   -0.0407    0.0377 H   0  0  0  0  0  0  0  0  0  0  0  0
   -0.1501   -1.1663   -0.6795 H   0  0  0  0  0  0  0  0  0  0  0  0
  1  5  1  0  0  0  0
  2  1  1  0  0  0  0
  2  8  1  0  0  0  0
  3  1  1  0  0  0  0
  4  1  1  0  0  0  0
  6  2  1  0  0  0  0
  6  9  1  0  0  0  0
  6 10  1  0  0  0  0
  7  2  1  0  0  0  0
  9 12  1  0  0  0  0
 11  6  1  0  0  0  0
 13  9  1  0  0  0  0
 14  9  1  0  0  0  0
M  END
$$$$
