14
butane_opt
C  -3.931099   0.247607  -0.031518
C  -2.692462  -0.601474   0.085472
H  -4.902755  -0.399439   0.109828
H  -4.000177   0.910446  -0.939726
H  -3.920604   0.846439   0.784465
C  -1.427686   0.222896   0.035308
H  -2.666932  -1.198912  -0.729877
H  -2.720329  -1.347859   1.051949
C  -0.165381  -0.710411   0.000581
H  -1.306369   0.920184   0.954972
H  -1.431355   0.805874  -0.830387
H  -0.166032  -1.160978   0.823603
H   0.765761  -0.154271   0.110725
H  -0.061651  -1.608803  -1.002274
