14
butane_opt
C  -3.946863   0.273201   0.049793
C  -2.683526  -0.616160   0.015713
H  -4.871668  -0.346982   0.012127
H  -4.043009   0.815275  -0.803995
H  -3.888249   1.007565   1.024472
C  -1.406374   0.170523  -0.059386
H  -2.781635  -1.304871  -0.857552
H  -2.595535  -1.265221   0.931047
C  -0.160381  -0.692798   0.067978
H  -1.388956   0.825450   0.815041
H  -1.384502   0.842050  -0.958743
H  -0.378492  -1.225933   0.931455
H   0.776681  -0.070495   0.216730
H  -0.087425  -1.367493  -0.772515
