14
butane_opt
C  -3.933224   0.282401   0.032227
C  -2.692165  -0.633018   0.054027
H  -4.837910  -0.351328  -0.168780
H  -3.913240   0.682173  -0.745332
H  -4.126364   1.188259   1.005679
C  -1.392244   0.174420  -0.031259
H  -2.696587  -1.342382  -0.857178
H  -2.603630  -1.198812   0.913084
C  -0.193972  -0.681048   0.050617
H  -1.292695   0.733001   0.759075
H  -1.383153   0.825262  -0.928902
H  -0.209450  -1.367953   0.999848
H   0.749448  -0.062080   0.011271
H  -0.159912  -1.295889  -0.780484
