14
butane_opt
C  -3.965160   0.271641   0.034112
C  -2.690413  -0.628160   0.006423
H  -4.872244  -0.305664   0.150994
H  -4.069221   0.911507  -0.861470
H  -3.896485   0.957852   0.893116
C  -1.397761   0.181496  -0.010861
H  -2.702102  -1.322559  -0.866050
H  -2.675607  -1.291374   0.911892
C  -0.162597  -0.687657   0.061764
H  -1.354594   0.842133   0.848884
H  -1.364996   0.802520  -0.899421
H  -0.164409  -1.283431   0.950001
H   0.773177  -0.065407   0.018132
H  -0.109825  -1.356997  -0.806653
