butane_opt
 OpenBabel08242015383D

 14 13  0  0  0  0  0  0  0  0999 V2000
   -3.9504    0.2578   -0.0225 C   0  0  0  0  0  0  0  0  0  0  0  0
   -2.7149   -0.6025    0.0927 C   0  0  0  0  0  0  0  0  0  0  0  0
   -4.8639   -0.3709   -0.1121 H   0  0  0  0  0  0  0  0  0  0  0  0
   -3.8534    0.8608   -0.9503 H   0  0  0  0  0  0  0  0  0  0  0  0
   -4.0643    0.8986    0.8508 H   0  0  0  0  0  0  0  0  0  0  0  0
   -1.4229    0.2138    0.0568 C   0  0  0  0  0  0  0  0  0  0  0  0
   -2.6837   -1.2945   -0.7238 H   0  0  0  0  0  0  0  0  0  0  0  0
   -2.8257   -1.2594    1.0434 H   0  0  0  0  0  0  0  0  0  0  0  0
   -0.1289   -0.7150   -0.0113 C   0  0  0  0  0  0  0  0  0  0  0  0
   -1.3823    0.8089    0.8862 H   0  0  0  0  0  0  0  0  0  0  0  0
   -1.4336    0.7994   -0.8222 H   0  0  0  0  0  0  0  0  0  0  0  0
    0.0309   -1.2561    0.8174 H   0  0  0  0  0  0  0  0  0  0  0  0
    0.8284   -0.0731   -0.0262 H   0  0  0  0  0  0  0  0  0  0  0  0
   -0.1772   -1.4167   -0.9101 H   0  0  0  0  0  0  0  0  0  0  0  0
  1  2  1  0  0  0  0
  1  5  1  0  0  0  0
  2  8  1  0  0  0  0
  3  1  1  0  0  0  0
  4  1  1  0  0  0  0
  6  2  1  0  0  0  0
  6 10  1  0  0  0  0
  7  2  1  0  0  0  0
  9  6  1  0  0  0  0
  9 12  1  0  0  0  0
 11  6  1  0  0  0  0
 13  9  1  0  0  0  0
 14  9  1  0  0  0  0
M  END
$$$$
