14
butane_opt
C  -3.953396   0.253923   0.031369
C  -2.696607  -0.594093  -0.002284
H  -4.956961  -0.410934   0.236829
H  -4.025565   0.870842  -0.799547
H  -3.829491   0.875575   0.879146
C  -1.410011   0.210911  -0.000456
H  -2.772263  -1.349766  -0.911801
H  -2.692439  -1.166292   0.829806
C  -0.149319  -0.715540   0.058404
H  -1.402737   0.788353   0.812482
H  -1.390666   0.863996  -0.921194
H  -0.092583  -1.364248   0.968183
H   0.738861  -0.136614   0.027425
H  -0.081162  -1.307587  -0.718154
