14
butane_opt
C  -3.950616   0.245354  -0.032556
C  -2.737613  -0.594816   0.066184
H  -4.876741  -0.342068   0.028850
H  -3.924103   0.859113  -0.971441
H  -3.939950   0.937285   0.854328
C  -1.397660   0.196441   0.070129
H  -2.766128  -1.136501  -0.714485
H  -2.751979  -1.252627   0.991955
C  -0.126855  -0.705969  -0.006258
H  -1.426592   0.965832   0.971581
H  -1.421107   0.743324  -0.796436
H   0.077833  -1.422963   0.927838
H   0.793234  -0.152550  -0.153782
H  -0.239622  -1.362022  -0.861891
