butane_opt
 OpenBabel08242015383D

 14 13  0  0  0  0  0  0  0  0999 V2000
   -3.9391    0.2592   -0.0164 C   0  0  0  0  0  0  0  0  0  0  0  0
   -2.7071   -0.5886    0.1026 C   0  0  0  0  0  0  0  0  0  0  0  0
   -4.8752   -0.3755   -0.1161 H   0  0  0  0  0  0  0  0  0  0  0  0
   -3.7656    0.8265   -0.9344 H   0  0  0  0  0  0  0  0  0  0  0  0
   -4.0111    0.9288    0.8160 H   0  0  0  0  0  0  0  0  0  0  0  0
   -1.4019    0.1843    0.0493 C   0  0  0  0  0  0  0  0  0  0  0  0
   -2.7039   -1.2664   -0.7799 H   0  0  0  0  0  0  0  0  0  0  0  0
   -2.7963   -1.2656    1.0610 H   0  0  0  0  0  0  0  0  0  0  0  0
   -0.1637   -0.6984   -0.0175 C   0  0  0  0  0  0  0  0  0  0  0  0
   -1.3026    0.8446    0.8637 H   0  0  0  0  0  0  0  0  0  0  0  0
   -1.5081    0.8206   -0.8726 H   0  0  0  0  0  0  0  0  0  0  0  0
   -0.1197   -1.2393    0.8303 H   0  0  0  0  0  0  0  0  0  0  0  0
    0.7222   -0.1881    0.0929 H   0  0  0  0  0  0  0  0  0  0  0  0
   -0.1205   -1.4418   -0.9244 H   0  0  0  0  0  0  0  0  0  0  0  0
  1  2  1  0  0  0  0
  1  5  1  0  0  0  0
  2  8  1  0  0  0  0
  3  1  1  0  0  0  0
  4  1  1  0  0  0  0
  6  2  1  0  0  0  0
  6 10  1  0  0  0  0
  7  2  1  0  0  0  0
  9  6  1  0  0  0  0
  9 13  1  0  0  0  0
  9 12  1  0  0  0  0
 11  6  1  0  0  0  0
 14  9  1  0  0  0  0
M  END
$$$$
