butane_opt
 OpenBabel08242015383D

 14 13  0  0  0  0  0  0  0  0999 V2000
   -3.9616    0.2956    0.0823 C   0  0  0  0  0  0  0  0  0  0  0  0
   -2.6943   -0.6426   -0.0241 C   0  0  0  0  0  0  0  0  0  0  0  0
   -4.8391   -0.2711    0.1157 H   0  0  0  0  0  0  0  0  0  0  0  0
   -4.0229    0.7897   -0.7878 H   0  0  0  0  0  0  0  0  0  0  0  0
   -4.0525    0.9798    0.9513 H   0  0  0  0  0  0  0  0  0  0  0  0
   -1.3980    0.1644   -0.0701 C   0  0  0  0  0  0  0  0  0  0  0  0
   -2.7917   -1.3577   -0.8815 H   0  0  0  0  0  0  0  0  0  0  0  0
   -2.6159   -1.3054    0.9017 H   0  0  0  0  0  0  0  0  0  0  0  0
   -0.1639   -0.6663    0.0868 C   0  0  0  0  0  0  0  0  0  0  0  0
   -1.3514    0.8464    0.8163 H   0  0  0  0  0  0  0  0  0  0  0  0
   -1.2551    0.7744   -0.9943 H   0  0  0  0  0  0  0  0  0  0  0  0
   -0.2366   -1.3141    1.0141 H   0  0  0  0  0  0  0  0  0  0  0  0
    0.7235   -0.0808    0.1794 H   0  0  0  0  0  0  0  0  0  0  0  0
    0.0168   -1.3366   -0.7671 H   0  0  0  0  0  0  0  0  0  0  0  0
  1  3  1  0  0  0  0
  1  5  1  0  0  0  0
  2  1  1  0  0  0  0
  2  8  1  0  0  0  0
  4  1  1  0  0  0  0
  6  2  1  0  0  0  0
  6  9  1  0  0  0  0
  6 10  1  0  0  0  0
  7  2  1  0  0  0  0
  9 13  1  0  0  0  0
  9 12  1  0  0  0  0
 11  6  1  0  0  0  0
 14  9  1  0  0  0  0
M  END
$$$$
