14
butane_opt
C  -3.962506   0.290893   0.006473
C  -2.697187  -0.646910   0.071628
H  -4.828919  -0.281197  -0.028371
H  -3.902576   0.861454  -0.917576
H  -4.113185   0.900650   0.795436
C  -1.394730   0.172944   0.015362
H  -2.712555  -1.262406  -0.707741
H  -2.760002  -1.320459   1.022965
C  -0.153472  -0.667879   0.004069
H  -1.316446   0.919168   0.887468
H  -1.349486   0.752238  -0.825484
H  -0.191555  -1.241104   0.852099
H   0.677775  -0.116246   0.107824
H  -0.042657  -1.478058  -0.927354
