14
butane_opt
C  -3.976798   0.278550   0.056092
C  -2.693085  -0.635536   0.013460
H  -4.809079  -0.275580   0.060584
H  -4.042385   0.938635  -0.880865
H  -4.036100   0.947154   0.914565
C  -1.397627   0.160050  -0.045406
H  -2.734458  -1.303878  -0.801616
H  -2.699708  -1.239387   0.915524
C  -0.144653  -0.683934   0.061051
H  -1.402374   0.841041   0.837230
H  -1.340397   0.729244  -0.931884
H  -0.175243  -1.153745   0.899966
H   0.837171  -0.029632   0.195006
H  -0.086808  -1.334854  -0.798295
