14
butane_opt
C  -3.925806   0.241480  -0.027724
C  -2.711945  -0.602390   0.085363
H  -4.797331  -0.319034  -0.060884
H  -3.855439   0.890960  -0.948780
H  -3.982099   0.939340   0.824976
C  -1.412601   0.212421   0.048027
H  -2.677147  -1.173717  -0.641280
H  -2.767796  -1.377860   1.094735
C  -0.165149  -0.719959  -0.011927
H  -1.360558   0.957812   0.968428
H  -1.473275   0.818017  -0.827112
H  -0.083157  -1.182768   0.762142
H   0.770443  -0.160431   0.080996
H  -0.205326  -1.441265  -0.943014
