14
butane_opt
C  -3.912563   0.236238   0.000644
C  -2.718708  -0.568050   0.050621
H  -4.863603  -0.390252   0.171124
H  -3.986275   1.012631  -1.021307
H  -3.892388   0.814244   0.779952
C  -1.409553   0.189668   0.040317
H  -2.727749  -1.238245  -0.796614
H  -2.731604  -1.257467   0.985935
C  -0.164901  -0.726304   0.000838
H  -1.428816   0.969438   0.959249
H  -1.436714   0.748723  -0.843397
H  -0.219442  -1.230643   0.867348
H   0.771448  -0.101305   0.065127
H  -0.025904  -1.379029  -0.862771
