butane_opt
 OpenBabel08242015383D

 14 13  0  0  0  0  0  0  0  0999 V2000
   -3.9572    0.2504    0.0661 C   0  0  0  0  0  0  0  0  0  0  0  0
   -2.7119   -0.6133   -0.0337 C   0  0  0  0  0  0  0  0  0  0  0  0
   -4.8755   -0.3424    0.0517 H   0  0  0  0  0  0  0  0  0  0  0  0
   -4.0827    0.8437   -0.8509 H   0  0  0  0  0  0  0  0  0  0  0  0
   -3.9073    0.9761    0.9616 H   0  0  0  0  0  0  0  0  0  0  0  0
   -1.4018    0.2167    0.0046 C   0  0  0  0  0  0  0  0  0  0  0  0
   -2.7023   -1.3753   -0.9512 H   0  0  0  0  0  0  0  0  0  0  0  0
   -2.6786   -1.1729    0.7901 H   0  0  0  0  0  0  0  0  0  0  0  0
   -0.1547   -0.6966    0.0785 C   0  0  0  0  0  0  0  0  0  0  0  0
   -1.3836    0.7440    0.7891 H   0  0  0  0  0  0  0  0  0  0  0  0
   -1.3719    0.8945   -0.9338 H   0  0  0  0  0  0  0  0  0  0  0  0
    0.0641   -1.5418    1.0813 H   0  0  0  0  0  0  0  0  0  0  0  0
    0.7369   -0.1543   -0.1982 H   0  0  0  0  0  0  0  0  0  0  0  0
   -0.1166   -1.2145   -0.6619 H   0  0  0  0  0  0  0  0  0  0  0  0
  1  5  1  0  0  0  0
  2  6  1  0  0  0  0
  2  1  1  0  0  0  0
  2  8  1  0  0  0  0
  3  1  1  0  0  0  0
  4  1  1  0  0  0  0
  6  9  1  0  0  0  0
  6 10  1  0  0  0  0
  7  2  1  0  0  0  0
  9 12  1  0  0  0  0
 11  6  1  0  0  0  0
 13  9  1  0  0  0  0
 14  9  1  0  0  0  0
M  END
$$$$
