butane_opt
 OpenBabel08242015383D

 14 13  0  0  0  0  0  0  0  0999 V2000
   -3.9401    0.2749    0.0728 C   0  0  0  0  0  0  0  0  0  0  0  0
   -2.6800   -0.6192   -0.0223 C   0  0  0  0  0  0  0  0  0  0  0  0
   -4.8642   -0.4073    0.1913 H   0  0  0  0  0  0  0  0  0  0  0  0
   -4.0349    0.9414   -0.8426 H   0  0  0  0  0  0  0  0  0  0  0  0
   -3.8240    0.9149    0.9073 H   0  0  0  0  0  0  0  0  0  0  0  0
   -1.4039    0.1793   -0.0394 C   0  0  0  0  0  0  0  0  0  0  0  0
   -2.7906   -1.4334   -0.9359 H   0  0  0  0  0  0  0  0  0  0  0  0
   -2.6531   -1.0856    0.7447 H   0  0  0  0  0  0  0  0  0  0  0  0
   -0.1779   -0.6918    0.0943 C   0  0  0  0  0  0  0  0  0  0  0  0
   -1.3393    0.7967    0.7661 H   0  0  0  0  0  0  0  0  0  0  0  0
   -1.4136    0.8458   -0.9629 H   0  0  0  0  0  0  0  0  0  0  0  0
   -0.2878   -1.3694    1.0272 H   0  0  0  0  0  0  0  0  0  0  0  0
    0.7222   -0.1129    0.0206 H   0  0  0  0  0  0  0  0  0  0  0  0
   -0.1106   -1.2799   -0.7375 H   0  0  0  0  0  0  0  0  0  0  0  0
  1  3  1  0  0  0  0
  1  5  1  0  0  0  0
  2  1  1  0  0  0  0
  2  8  1  0  0  0  0
  4  1  1  0  0  0  0
  6  2  1  0  0  0  0
  6  9  1  0  0  0  0
  6 10  1  0  0  0  0
  7  2  1  0  0  0  0
  9 12  1  0  0  0  0
 11  6  1  0  0  0  0
 13  9  1  0  0  0  0
 14  9  1  0  0  0  0
M  END
$$$$
