butane_opt
 OpenBabel08242015383D

 14 13  0  0  0  0  0  0  0  0999 V2000
   -3.9514    0.2465    0.0515 C   0  0  0  0  0  0  0  0  0  0  0  0
   -2.6965   -0.5995   -0.0213 C   0  0  0  0  0  0  0  0  0  0  0  0
   -4.9012   -0.3514    0.1075 H   0  0  0  0  0  0  0  0  0  0  0  0
   -4.0050    0.7685   -0.7694 H   0  0  0  0  0  0  0  0  0  0  0  0
   -3.9376    0.9477    0.9347 H   0  0  0  0  0  0  0  0  0  0  0  0
   -1.4149    0.2193    0.0080 C   0  0  0  0  0  0  0  0  0  0  0  0
   -2.7293   -1.3902   -0.9901 H   0  0  0  0  0  0  0  0  0  0  0  0
   -2.6597   -1.1796    0.8223 H   0  0  0  0  0  0  0  0  0  0  0  0
   -0.1450   -0.7075    0.0705 C   0  0  0  0  0  0  0  0  0  0  0  0
   -1.3940    0.8184    0.8008 H   0  0  0  0  0  0  0  0  0  0  0  0
   -1.3352    0.9367   -0.9616 H   0  0  0  0  0  0  0  0  0  0  0  0
   -0.0695   -1.5702    1.0766 H   0  0  0  0  0  0  0  0  0  0  0  0
    0.7044   -0.1653   -0.1716 H   0  0  0  0  0  0  0  0  0  0  0  0
   -0.1824   -1.2020   -0.6806 H   0  0  0  0  0  0  0  0  0  0  0  0
  1  3  1  0  0  0  0
  1  5  1  0  0  0  0
  2  6  1  0  0  0  0
  2  1  1  0  0  0  0
  2  8  1  0  0  0  0
  4  1  1  0  0  0  0
  6  9  1  0  0  0  0
  6 10  1  0  0  0  0
  7  2  1  0  0  0  0
  9 12  1  0  0  0  0
 11  6  1  0  0  0  0
 13  9  1  0  0  0  0
 14  9  1  0  0  0  0
M  END
$$$$
