butane_opt
 OpenBabel08242015383D

 14 13  0  0  0  0  0  0  0  0999 V2000
   -3.9816    0.2841   -0.0106 C   0  0  0  0  0  0  0  0  0  0  0  0
   -2.6921   -0.6477    0.0746 C   0  0  0  0  0  0  0  0  0  0  0  0
   -4.8545   -0.2630    0.0699 H   0  0  0  0  0  0  0  0  0  0  0  0
   -4.0252    0.8869   -0.8893 H   0  0  0  0  0  0  0  0  0  0  0  0
   -3.9408    0.9400    0.8500 H   0  0  0  0  0  0  0  0  0  0  0  0
   -1.3826    0.1620    0.0055 C   0  0  0  0  0  0  0  0  0  0  0  0
   -2.6434   -1.2416   -0.7255 H   0  0  0  0  0  0  0  0  0  0  0  0
   -2.7209   -1.3423    1.0268 H   0  0  0  0  0  0  0  0  0  0  0  0
   -0.1569   -0.6795    0.0105 C   0  0  0  0  0  0  0  0  0  0  0  0
   -1.3625    0.9288    0.9298 H   0  0  0  0  0  0  0  0  0  0  0  0
   -1.3966    0.8463   -0.8878 H   0  0  0  0  0  0  0  0  0  0  0  0
   -0.2030   -1.1594    0.7782 H   0  0  0  0  0  0  0  0  0  0  0  0
    0.7423   -0.0340    0.2527 H   0  0  0  0  0  0  0  0  0  0  0  0
   -0.0735   -1.4669   -0.9342 H   0  0  0  0  0  0  0  0  0  0  0  0
  1  3  1  0  0  0  0
  1  2  1  0  0  0  0
  1  5  1  0  0  0  0
  2  8  1  0  0  0  0
  4  1  1  0  0  0  0
  6  9  1  0  0  0  0
  6  2  1  0  0  0  0
  6 10  1  0  0  0  0
  7  2  1  0  0  0  0
  9 13  1  0  0  0  0
  9 12  1  0  0  0  0
 11  6  1  0  0  0  0
 14  9  1  0  0  0  0
M  END
$$$$
