14
butane_opt
C  -3.981577   0.284142  -0.010597
C  -2.692125  -0.647714   0.074580
H  -4.854451  -0.262994   0.069917
H  -4.025250   0.886893  -0.889283
H  -3.940829   0.940036   0.850050
C  -1.382554   0.161975   0.005456
H  -2.643434  -1.241644  -0.725478
H  -2.720872  -1.342303   1.026795
C  -0.156945  -0.679484   0.010538
H  -1.362467   0.928751   0.929799
H  -1.396568   0.846319  -0.887788
H  -0.202966  -1.159372   0.778197
H   0.742315  -0.034026   0.252702
H  -0.073519  -1.466854  -0.934234
