14
butane_opt
C  -3.938047   0.256557   0.004306
C  -2.697497  -0.614290   0.042321
H  -4.854773  -0.305176   0.153122
H  -3.887493   0.907125  -0.885975
H  -3.893542   0.835304   0.817618
C  -1.429003   0.200175   0.012000
H  -2.696699  -1.180331  -0.721203
H  -2.669045  -1.328646   0.991713
C  -0.161114  -0.696032   0.022792
H  -1.421652   0.863292   0.878630
H  -1.335491   0.806856  -0.858379
H  -0.178695  -1.178371   0.785395
H   0.698982  -0.134515   0.203611
H  -0.082212  -1.520335  -0.924866
