14
butane_opt
C  -3.969520   0.260318   0.064567
C  -2.704993  -0.613625  -0.019557
H  -4.916609  -0.338328  -0.094906
H  -3.964415   0.766004  -0.786868
H  -3.925039   1.069133   1.041267
C  -1.392920   0.184871  -0.020496
H  -2.723127  -1.285502  -0.874755
H  -2.735109  -1.244807   0.847179
C  -0.145108  -0.687384   0.071227
H  -1.471053   0.895555   0.879226
H  -1.324200   0.827905  -0.955639
H  -0.003762  -1.549328   1.132192
H   0.745693  -0.150910  -0.215797
H  -0.164789  -1.187214  -0.655469
