14
butane_opt
C  -3.983592   0.289372  -0.024319
C  -2.702702  -0.637012   0.076789
H  -4.903778  -0.291422  -0.062033
H  -3.864154   0.967620  -0.946193
H  -3.995142   0.883626   0.777891
C  -1.384661   0.167300   0.085066
H  -2.770122  -1.356606  -0.807295
H  -2.720021  -1.251756   0.952015
C  -0.149892  -0.678342  -0.016996
H  -1.275817   0.868576   0.982202
H  -1.400766   0.800944  -0.788023
H  -0.044202  -1.416789   0.975876
H   0.791307  -0.073718  -0.234787
H  -0.216543  -1.287212  -0.863481
