14
butane_opt
C  -3.982737   0.288699  -0.021257
C  -2.700772  -0.643432   0.072068
H  -4.858607  -0.331065  -0.023566
H  -3.992781   0.918971  -0.948606
H  -3.986592   0.934597   0.787203
C  -1.385483   0.162575   0.066042
H  -2.569335  -1.286069  -0.707919
H  -2.757149  -1.282370   0.939413
C  -0.142122  -0.673606  -0.011691
H  -1.308969   0.958321   0.980032
H  -1.451781   0.705384  -0.779341
H  -0.069294  -1.362309   0.938503
H   0.753530  -0.089538  -0.177583
H  -0.257705  -1.240523  -0.816463
