butane_opt
 OpenBabel08242015383D

 14 13  0  0  0  0  0  0  0  0999 V2000
   -3.9398    0.2693    0.0301 C   0  0  0  0  0  0  0  0  0  0  0  0
   -2.6974   -0.6156    0.0142 C   0  0  0  0  0  0  0  0  0  0  0  0
   -4.8360   -0.3149    0.1084 H   0  0  0  0  0  0  0  0  0  0  0  0
   -4.0245    0.9203   -0.8912 H   0  0  0  0  0  0  0  0  0  0  0  0
   -3.9201    0.8911    0.8773 H   0  0  0  0  0  0  0  0  0  0  0  0
   -1.4056    0.1734    0.0136 C   0  0  0  0  0  0  0  0  0  0  0  0
   -2.7474   -1.3759   -0.8885 H   0  0  0  0  0  0  0  0  0  0  0  0
   -2.6778   -1.2151    0.9048 H   0  0  0  0  0  0  0  0  0  0  0  0
   -0.1651   -0.6873    0.0431 C   0  0  0  0  0  0  0  0  0  0  0  0
   -1.4102    0.8276    0.8456 H   0  0  0  0  0  0  0  0  0  0  0  0
   -1.4304    0.8315   -0.8942 H   0  0  0  0  0  0  0  0  0  0  0  0
   -0.1467   -1.3399    0.9671 H   0  0  0  0  0  0  0  0  0  0  0  0
    0.7659   -0.0780   -0.0202 H   0  0  0  0  0  0  0  0  0  0  0  0
   -0.1088   -1.2837   -0.7848 H   0  0  0  0  0  0  0  0  0  0  0  0
  1  3  1  0  0  0  0
  1  5  1  0  0  0  0
  2  1  1  0  0  0  0
  2  8  1  0  0  0  0
  4  1  1  0  0  0  0
  6  2  1  0  0  0  0
  6  9  1  0  0  0  0
  6 10  1  0  0  0  0
  7  2  1  0  0  0  0
  9 12  1  0  0  0  0
 11  6  1  0  0  0  0
 13  9  1  0  0  0  0
 14  9  1  0  0  0  0
M  END
$$$$
