butane_opt
 OpenBabel08242015383D

 14 13  0  0  0  0  0  0  0  0999 V2000
   -3.9396    0.2771   -0.0123 C   0  0  0  0  0  0  0  0  0  0  0  0
   -2.6792   -0.6279    0.1004 C   0  0  0  0  0  0  0  0  0  0  0  0
   -4.8591   -0.3088   -0.0820 H   0  0  0  0  0  0  0  0  0  0  0  0
   -3.8651    0.8515   -0.9374 H   0  0  0  0  0  0  0  0  0  0  0  0
   -4.0971    1.0213    0.8823 H   0  0  0  0  0  0  0  0  0  0  0  0
   -1.4122    0.1558    0.0243 C   0  0  0  0  0  0  0  0  0  0  0  0
   -2.6588   -1.3179   -0.7769 H   0  0  0  0  0  0  0  0  0  0  0  0
   -2.7257   -1.2493    0.9489 H   0  0  0  0  0  0  0  0  0  0  0  0
   -0.1659   -0.6755    0.0071 C   0  0  0  0  0  0  0  0  0  0  0  0
   -1.2952    0.8658    0.8985 H   0  0  0  0  0  0  0  0  0  0  0  0
   -1.4804    0.8236   -0.8758 H   0  0  0  0  0  0  0  0  0  0  0  0
   -0.2497   -1.2471    0.8688 H   0  0  0  0  0  0  0  0  0  0  0  0
    0.8197   -0.0453   -0.0058 H   0  0  0  0  0  0  0  0  0  0  0  0
   -0.2453   -1.4175   -0.9009 H   0  0  0  0  0  0  0  0  0  0  0  0
  1  2  1  0  0  0  0
  1  5  1  0  0  0  0
  2  8  1  0  0  0  0
  3  1  1  0  0  0  0
  4  1  1  0  0  0  0
  6  2  1  0  0  0  0
  6 10  1  0  0  0  0
  7  2  1  0  0  0  0
  9  6  1  0  0  0  0
  9 12  1  0  0  0  0
 11  6  1  0  0  0  0
 13  9  1  0  0  0  0
 14  9  1  0  0  0  0
M  END
$$$$
