14
butane_opt
C  -3.949560   0.290442  -0.002986
C  -2.683904  -0.643245   0.049438
H  -4.866786  -0.284772   0.217907
H  -3.974445   1.106730  -1.060963
H  -3.916546   0.710734   0.691591
C  -1.402651   0.149764   0.049611
H  -2.685825  -1.358841  -0.813016
H  -2.634526  -1.238875   0.938549
C  -0.181928  -0.669492   0.011834
H  -1.334182   0.979137   0.986192
H  -1.438477   0.766339  -0.804258
H  -0.102987  -1.232234   0.853379
H   0.787451  -0.071459   0.012563
H  -0.256365  -1.369419  -0.899177
