butane_opt
 OpenBabel08242015383D

 14 13  0  0  0  0  0  0  0  0999 V2000
   -3.9571    0.2769    0.0115 C   0  0  0  0  0  0  0  0  0  0  0  0
   -2.7050   -0.6275    0.0245 C   0  0  0  0  0  0  0  0  0  0  0  0
   -4.8387   -0.2850    0.1407 H   0  0  0  0  0  0  0  0  0  0  0  0
   -4.0459    0.9999   -0.9248 H   0  0  0  0  0  0  0  0  0  0  0  0
   -3.9352    0.8649    0.7926 H   0  0  0  0  0  0  0  0  0  0  0  0
   -1.3997    0.1674    0.0335 C   0  0  0  0  0  0  0  0  0  0  0  0
   -2.7584   -1.2886   -0.8074 H   0  0  0  0  0  0  0  0  0  0  0  0
   -2.6849   -1.2951    0.9590 H   0  0  0  0  0  0  0  0  0  0  0  0
   -0.1542   -0.6823    0.0274 C   0  0  0  0  0  0  0  0  0  0  0  0
   -1.3621    0.8820    0.9239 H   0  0  0  0  0  0  0  0  0  0  0  0
   -1.3416    0.7623   -0.8639 H   0  0  0  0  0  0  0  0  0  0  0  0
   -0.1362   -1.2972    0.9133 H   0  0  0  0  0  0  0  0  0  0  0  0
    0.8020   -0.0455   -0.0131 H   0  0  0  0  0  0  0  0  0  0  0  0
   -0.1438   -1.3698   -0.8629 H   0  0  0  0  0  0  0  0  0  0  0  0
  1  2  1  0  0  0  0
  1  3  1  0  0  0  0
  1  5  1  0  0  0  0
  2  6  1  0  0  0  0
  2  8  1  0  0  0  0
  4  1  1  0  0  0  0
  6 10  1  0  0  0  0
  7  2  1  0  0  0  0
  9  6  1  0  0  0  0
  9 12  1  0  0  0  0
 11  6  1  0  0  0  0
 13  9  1  0  0  0  0
 14  9  1  0  0  0  0
M  END
$$$$
