14
butane_opt
C  -3.955640   0.250517   0.055580
C  -2.700547  -0.601568  -0.009577
H  -4.870167  -0.370121   0.244055
H  -4.023019   1.013700  -0.971675
H  -3.828049   0.776711   0.862311
C  -1.403545   0.210042  -0.005146
H  -2.796112  -1.362994  -0.960913
H  -2.721856  -1.166069   0.842546
C  -0.156398  -0.706058   0.066411
H  -1.331790   0.836808   0.830568
H  -1.409353   0.891166  -0.912461
H  -0.150759  -1.354327   0.942192
H   0.700112  -0.164423   0.078045
H   0.004674  -1.405264  -0.814154
