14
butane_opt
C  -3.944617   0.254865  -0.010797
C  -2.709982  -0.612013   0.063258
H  -4.835643  -0.336670   0.007039
H  -3.905782   0.895145  -0.936713
H  -3.987074   0.898010   0.806583
C  -1.409748   0.203834   0.042974
H  -2.748336  -1.250484  -0.749421
H  -2.748121  -1.261328   0.953396
C  -0.141947  -0.701230   0.008828
H  -1.380837   0.937888   0.947276
H  -1.474910   0.757241  -0.768491
H  -0.042827  -1.368480   0.933256
H   0.746131  -0.121211  -0.131395
H  -0.177007  -1.364898  -0.874726
