14
butane_opt
C  -3.955869   0.252973  -0.011984
C  -2.704222  -0.597968   0.101449
H  -4.869659  -0.355867  -0.202666
H  -3.831463   0.826740  -0.900984
H  -4.138182   0.965991   0.831590
C  -1.387828   0.188212   0.041431
H  -2.752219  -1.247953  -0.736976
H  -2.667329  -1.249103   1.012366
C  -0.144504  -0.696644  -0.009689
H  -1.376143   0.825372   0.891929
H  -1.478183   0.818339  -0.866857
H  -0.095621  -1.273734   0.802973
H   0.710840  -0.166833   0.054521
H  -0.200399  -1.383185  -0.896563
