butane_opt
 OpenBabel08242015383D

 14 13  0  0  0  0  0  0  0  0999 V2000
   -3.9452    0.2723   -0.0299 C   0  0  0  0  0  0  0  0  0  0  0  0
   -2.7101   -0.6209    0.0734 C   0  0  0  0  0  0  0  0  0  0  0  0
   -4.8143   -0.3126    0.1211 H   0  0  0  0  0  0  0  0  0  0  0  0
   -3.9064    0.9659   -1.0069 H   0  0  0  0  0  0  0  0  0  0  0  0
   -3.9846    0.9028    0.7897 H   0  0  0  0  0  0  0  0  0  0  0  0
   -1.4109    0.1742    0.0787 C   0  0  0  0  0  0  0  0  0  0  0  0
   -2.6772   -1.2550   -0.7744 H   0  0  0  0  0  0  0  0  0  0  0  0
   -2.7734   -1.2312    0.9886 H   0  0  0  0  0  0  0  0  0  0  0  0
   -0.1550   -0.6916   -0.0079 C   0  0  0  0  0  0  0  0  0  0  0  0
   -1.3835    0.8427    0.8972 H   0  0  0  0  0  0  0  0  0  0  0  0
   -1.3195    0.7208   -0.7980 H   0  0  0  0  0  0  0  0  0  0  0  0
   -0.0511   -1.2803    0.8827 H   0  0  0  0  0  0  0  0  0  0  0  0
    0.8085   -0.0466   -0.1157 H   0  0  0  0  0  0  0  0  0  0  0  0
   -0.2764   -1.3727   -0.9171 H   0  0  0  0  0  0  0  0  0  0  0  0
  1  2  1  0  0  0  0
  1  3  1  0  0  0  0
  1  5  1  0  0  0  0
  2  6  1  0  0  0  0
  2  8  1  0  0  0  0
  4  1  1  0  0  0  0
  6 10  1  0  0  0  0
  7  2  1  0  0  0  0
  9  6  1  0  0  0  0
  9 12  1  0  0  0  0
 11  6  1  0  0  0  0
 13  9  1  0  0  0  0
 14  9  1  0  0  0  0
M  END
$$$$
