butane_opt
 OpenBabel08242015383D

 14 13  0  0  0  0  0  0  0  0999 V2000
   -3.9553    0.2526    0.0281 C   0  0  0  0  0  0  0  0  0  0  0  0
   -2.7033   -0.6059    0.0201 C   0  0  0  0  0  0  0  0  0  0  0  0
   -4.8523   -0.3410    0.0088 H   0  0  0  0  0  0  0  0  0  0  0  0
   -4.0017    0.7698   -0.8019 H   0  0  0  0  0  0  0  0  0  0  0  0
   -3.9260    1.0197    0.9289 H   0  0  0  0  0  0  0  0  0  0  0  0
   -1.3904    0.2153    0.0190 C   0  0  0  0  0  0  0  0  0  0  0  0
   -2.7402   -1.4102   -0.9365 H   0  0  0  0  0  0  0  0  0  0  0  0
   -2.8002   -1.1495    0.8539 H   0  0  0  0  0  0  0  0  0  0  0  0
   -0.1650   -0.7090    0.0456 C   0  0  0  0  0  0  0  0  0  0  0  0
   -1.4099    0.8473    0.8272 H   0  0  0  0  0  0  0  0  0  0  0  0
   -1.3093    0.8693   -0.9517 H   0  0  0  0  0  0  0  0  0  0  0  0
    0.0729   -1.5417    1.0601 H   0  0  0  0  0  0  0  0  0  0  0  0
    0.7097   -0.1674   -0.1935 H   0  0  0  0  0  0  0  0  0  0  0  0
   -0.1991   -1.1971   -0.6703 H   0  0  0  0  0  0  0  0  0  0  0  0
  1  5  1  0  0  0  0
  2  1  1  0  0  0  0
  2  8  1  0  0  0  0
  3  1  1  0  0  0  0
  4  1  1  0  0  0  0
  6  2  1  0  0  0  0
  6  9  1  0  0  0  0
  6 10  1  0  0  0  0
  7  2  1  0  0  0  0
  9 12  1  0  0  0  0
 11  6  1  0  0  0  0
 13  9  1  0  0  0  0
 14  9  1  0  0  0  0
M  END
$$$$
