butane_opt
 OpenBabel08242015383D

 14 13  0  0  0  0  0  0  0  0999 V2000
   -3.9474    0.2500    0.0811 C   0  0  0  0  0  0  0  0  0  0  0  0
   -2.7344   -0.6027   -0.0347 C   0  0  0  0  0  0  0  0  0  0  0  0
   -4.8196   -0.2915    0.2288 H   0  0  0  0  0  0  0  0  0  0  0  0
   -3.9803    0.9160   -0.8833 H   0  0  0  0  0  0  0  0  0  0  0  0
   -3.9005    0.7953    0.8742 H   0  0  0  0  0  0  0  0  0  0  0  0
   -1.3975    0.2146   -0.0287 C   0  0  0  0  0  0  0  0  0  0  0  0
   -2.7731   -1.3835   -0.9772 H   0  0  0  0  0  0  0  0  0  0  0  0
   -2.6674   -1.1274    0.7765 H   0  0  0  0  0  0  0  0  0  0  0  0
   -0.1458   -0.7120    0.0746 C   0  0  0  0  0  0  0  0  0  0  0  0
   -1.4338    0.8636    0.8022 H   0  0  0  0  0  0  0  0  0  0  0  0
   -1.2998    0.8535   -0.8945 H   0  0  0  0  0  0  0  0  0  0  0  0
   -0.0779   -1.4498    1.0807 H   0  0  0  0  0  0  0  0  0  0  0  0
    0.6848   -0.1759    0.0326 H   0  0  0  0  0  0  0  0  0  0  0  0
   -0.0539   -1.2709   -0.7018 H   0  0  0  0  0  0  0  0  0  0  0  0
  1  3  1  0  0  0  0
  1  5  1  0  0  0  0
  2  6  1  0  0  0  0
  2  1  1  0  0  0  0
  2  8  1  0  0  0  0
  4  1  1  0  0  0  0
  6  9  1  0  0  0  0
  6 10  1  0  0  0  0
  7  2  1  0  0  0  0
  9 12  1  0  0  0  0
 11  6  1  0  0  0  0
 13  9  1  0  0  0  0
 14  9  1  0  0  0  0
M  END
$$$$
