butane_opt
 OpenBabel08242015383D

 14 13  0  0  0  0  0  0  0  0999 V2000
   -3.9194    0.2431    0.0288 C   0  0  0  0  0  0  0  0  0  0  0  0
   -2.6918   -0.5987    0.0250 C   0  0  0  0  0  0  0  0  0  0  0  0
   -4.9250   -0.4049   -0.0054 H   0  0  0  0  0  0  0  0  0  0  0  0
   -3.9679    0.8051   -0.8545 H   0  0  0  0  0  0  0  0  0  0  0  0
   -3.9700    0.9855    0.9542 H   0  0  0  0  0  0  0  0  0  0  0  0
   -1.4123    0.2028    0.0034 C   0  0  0  0  0  0  0  0  0  0  0  0
   -2.6726   -1.3748   -0.8967 H   0  0  0  0  0  0  0  0  0  0  0  0
   -2.7314   -1.1169    0.8689 H   0  0  0  0  0  0  0  0  0  0  0  0
   -0.1729   -0.7027    0.0433 C   0  0  0  0  0  0  0  0  0  0  0  0
   -1.4044    0.9204    0.9100 H   0  0  0  0  0  0  0  0  0  0  0  0
   -1.4457    0.8789   -0.8899 H   0  0  0  0  0  0  0  0  0  0  0  0
   -0.0694   -1.5172    1.0979 H   0  0  0  0  0  0  0  0  0  0  0  0
    0.6540   -0.1584   -0.2199 H   0  0  0  0  0  0  0  0  0  0  0  0
   -0.1148   -1.2482   -0.7109 H   0  0  0  0  0  0  0  0  0  0  0  0
  1  5  1  0  0  0  0
  2  1  1  0  0  0  0
  2  8  1  0  0  0  0
  3  1  1  0  0  0  0
  4  1  1  0  0  0  0
  6  2  1  0  0  0  0
  6  9  1  0  0  0  0
  6 10  1  0  0  0  0
  7  2  1  0  0  0  0
  9 12  1  0  0  0  0
 11  6  1  0  0  0  0
 13  9  1  0  0  0  0
 14  9  1  0  0  0  0
M  END
$$$$
