butane_opt
 OpenBabel08242015383D

 14 13  0  0  0  0  0  0  0  0999 V2000
   -3.9335    0.2810   -0.0251 C   0  0  0  0  0  0  0  0  0  0  0  0
   -2.7045   -0.6207    0.0696 C   0  0  0  0  0  0  0  0  0  0  0  0
   -4.8041   -0.2687    0.0046 H   0  0  0  0  0  0  0  0  0  0  0  0
   -3.9286    0.8971   -0.9381 H   0  0  0  0  0  0  0  0  0  0  0  0
   -4.0464    0.9218    0.7741 H   0  0  0  0  0  0  0  0  0  0  0  0
   -1.4050    0.1476    0.0783 C   0  0  0  0  0  0  0  0  0  0  0  0
   -2.6278   -1.2455   -0.7424 H   0  0  0  0  0  0  0  0  0  0  0  0
   -2.7158   -1.3100    0.9369 H   0  0  0  0  0  0  0  0  0  0  0  0
   -0.1731   -0.6825   -0.0190 C   0  0  0  0  0  0  0  0  0  0  0  0
   -1.2758    0.8884    0.9974 H   0  0  0  0  0  0  0  0  0  0  0  0
   -1.4829    0.7263   -0.7779 H   0  0  0  0  0  0  0  0  0  0  0  0
   -0.0837   -1.3660    0.9190 H   0  0  0  0  0  0  0  0  0  0  0  0
    0.7933    0.0254   -0.1582 H   0  0  0  0  0  0  0  0  0  0  0  0
   -0.2762   -1.2266   -0.7984 H   0  0  0  0  0  0  0  0  0  0  0  0
  1  3  1  0  0  0  0
  1  2  1  0  0  0  0
  1  5  1  0  0  0  0
  2  6  1  0  0  0  0
  2  8  1  0  0  0  0
  4  1  1  0  0  0  0
  6 10  1  0  0  0  0
  7  2  1  0  0  0  0
  9  6  1  0  0  0  0
  9 12  1  0  0  0  0
 11  6  1  0  0  0  0
 13  9  1  0  0  0  0
 14  9  1  0  0  0  0
M  END
$$$$
