butane_opt
 OpenBabel08242015383D

 14 13  0  0  0  0  0  0  0  0999 V2000
   -3.9346    0.2859   -0.0206 C   0  0  0  0  0  0  0  0  0  0  0  0
   -2.6857   -0.6400    0.0833 C   0  0  0  0  0  0  0  0  0  0  0  0
   -4.8733   -0.3107   -0.1402 H   0  0  0  0  0  0  0  0  0  0  0  0
   -3.9263    0.7330   -0.7940 H   0  0  0  0  0  0  0  0  0  0  0  0
   -4.0555    1.0689    0.9071 H   0  0  0  0  0  0  0  0  0  0  0  0
   -1.4015    0.1586    0.0236 C   0  0  0  0  0  0  0  0  0  0  0  0
   -2.6568   -1.2086   -0.6393 H   0  0  0  0  0  0  0  0  0  0  0  0
   -2.6847   -1.3405    0.9961 H   0  0  0  0  0  0  0  0  0  0  0  0
   -0.1814   -0.6689   -0.0035 C   0  0  0  0  0  0  0  0  0  0  0  0
   -1.3568    0.8387    0.9111 H   0  0  0  0  0  0  0  0  0  0  0  0
   -1.4458    0.8145   -0.8556 H   0  0  0  0  0  0  0  0  0  0  0  0
   -0.1336   -1.2561    0.8741 H   0  0  0  0  0  0  0  0  0  0  0  0
    0.6841   -0.0814    0.0546 H   0  0  0  0  0  0  0  0  0  0  0  0
   -0.1474   -1.3657   -0.8561 H   0  0  0  0  0  0  0  0  0  0  0  0
  1  2  1  0  0  0  0
  1  5  1  0  0  0  0
  2  8  1  0  0  0  0
  3  1  1  0  0  0  0
  4  1  1  0  0  0  0
  6  2  1  0  0  0  0
  6 10  1  0  0  0  0
  7  2  1  0  0  0  0
  9  6  1  0  0  0  0
  9 13  1  0  0  0  0
  9 12  1  0  0  0  0
 11  6  1  0  0  0  0
 14  9  1  0  0  0  0
M  END
$$$$
