butane_opt
 OpenBabel08242015383D

 14 13  0  0  0  0  0  0  0  0999 V2000
   -3.9394    0.2812   -0.0248 C   0  0  0  0  0  0  0  0  0  0  0  0
   -2.6877   -0.6226    0.1035 C   0  0  0  0  0  0  0  0  0  0  0  0
   -4.8980   -0.3780   -0.1119 H   0  0  0  0  0  0  0  0  0  0  0  0
   -3.8279    0.9826   -0.9967 H   0  0  0  0  0  0  0  0  0  0  0  0
   -3.9588    0.8851    0.7569 H   0  0  0  0  0  0  0  0  0  0  0  0
   -1.4071    0.1586    0.0798 C   0  0  0  0  0  0  0  0  0  0  0  0
   -2.6296   -1.3034   -0.7835 H   0  0  0  0  0  0  0  0  0  0  0  0
   -2.8121   -1.2354    0.9604 H   0  0  0  0  0  0  0  0  0  0  0  0
   -0.1762   -0.6855   -0.0311 C   0  0  0  0  0  0  0  0  0  0  0  0
   -1.3039    0.9426    0.9770 H   0  0  0  0  0  0  0  0  0  0  0  0
   -1.4409    0.7900   -0.7732 H   0  0  0  0  0  0  0  0  0  0  0  0
   -0.1141   -1.3761    0.9213 H   0  0  0  0  0  0  0  0  0  0  0  0
    0.7390   -0.0421   -0.1449 H   0  0  0  0  0  0  0  0  0  0  0  0
   -0.2611   -1.3273   -0.8928 H   0  0  0  0  0  0  0  0  0  0  0  0
  1  2  1  0  0  0  0
  1  5  1  0  0  0  0
  2  8  1  0  0  0  0
  3  1  1  0  0  0  0
  4  1  1  0  0  0  0
  6  2  1  0  0  0  0
  6 10  1  0  0  0  0
  7  2  1  0  0  0  0
  9  6  1  0  0  0  0
  9 12  1  0  0  0  0
 11  6  1  0  0  0  0
 13  9  1  0  0  0  0
 14  9  1  0  0  0  0
M  END
$$$$
