14
butane_opt
C  -3.930630   0.249557   0.017354
C  -2.708244  -0.591090   0.021525
H  -4.915709  -0.430934   0.204063
H  -3.931239   1.104910  -0.994177
H  -3.763206   0.755441   0.780967
C  -1.408982   0.197525   0.042160
H  -2.715184  -1.295940  -0.841192
H  -2.693813  -1.170317   0.883932
C  -0.169230  -0.709038   0.024634
H  -1.512115   0.836020   0.901887
H  -1.363574   0.811609  -0.838803
H  -0.104148  -1.303105   0.897306
H   0.743933  -0.147573  -0.002877
H  -0.162834  -1.392944  -0.854509
