14
butane_opt
C  -3.966031   0.271542   0.052363
C  -2.697965  -0.620576  -0.002267
H  -4.842448  -0.251011  -0.103999
H  -3.963209   0.658682  -0.661151
H  -4.015611   1.176154   1.062786
C  -1.389857   0.171624  -0.024797
H  -2.704598  -1.353634  -0.871600
H  -2.629879  -1.255269   0.869666
C  -0.162753  -0.690439   0.071664
H  -1.409335   0.691993   0.691088
H  -1.383070   0.878335  -1.004266
H  -0.151728  -1.356336   1.063512
H   0.832925  -0.032648  -0.061438
H  -0.167383  -1.197870  -0.671022
