14
butane_opt
C  -3.960788   0.275041   0.053874
C  -2.693834  -0.629618   0.030698
H  -4.851826  -0.279343  -0.126527
H  -3.898338   0.768221  -0.771129
H  -4.082569   1.035041   0.939206
C  -1.404260   0.169629  -0.030016
H  -2.764878  -1.337782  -0.855259
H  -2.626970  -1.252578   0.894438
C  -0.166368  -0.680101   0.052418
H  -1.388206   0.808865   0.839601
H  -1.272191   0.882882  -0.997793
H  -0.152819  -1.308633   0.952187
H   0.709786  -0.070161   0.037040
H  -0.007472  -1.338613  -0.756567
