14
butane_opt
C  -3.987975   0.282828   0.050852
C  -2.696370  -0.627075   0.002288
H  -4.841148  -0.268591   0.123900
H  -4.066054   0.861810  -0.798550
H  -3.917987   0.960496   0.943222
C  -1.370186   0.162086  -0.039903
H  -2.791579  -1.311858  -0.865712
H  -2.683789  -1.236210   0.877375
C  -0.153127  -0.684773   0.076345
H  -1.421831   0.768875   0.711922
H  -1.276382   0.815373  -0.951101
H  -0.141124  -1.198605   0.917931
H   0.748662  -0.053283   0.179885
H  -0.147640  -1.399021  -0.777962
