butane_opt
 OpenBabel08242015383D

 14 13  0  0  0  0  0  0  0  0999 V2000
   -3.9560    0.2859    0.0489 C   0  0  0  0  0  0  0  0  0  0  0  0
   -2.6723   -0.6420    0.0184 C   0  0  0  0  0  0  0  0  0  0  0  0
   -4.8775   -0.3189   -0.1040 H   0  0  0  0  0  0  0  0  0  0  0  0
   -3.8912    0.6956   -0.7160 H   0  0  0  0  0  0  0  0  0  0  0  0
   -4.0684    1.1193    1.0307 H   0  0  0  0  0  0  0  0  0  0  0  0
   -1.3980    0.1603   -0.0592 C   0  0  0  0  0  0  0  0  0  0  0  0
   -2.7167   -1.2589   -0.7837 H   0  0  0  0  0  0  0  0  0  0  0  0
   -2.6055   -1.2280    0.9170 H   0  0  0  0  0  0  0  0  0  0  0  0
   -0.1785   -0.6709    0.0751 C   0  0  0  0  0  0  0  0  0  0  0  0
   -1.3362    0.8491    0.8033 H   0  0  0  0  0  0  0  0  0  0  0  0
   -1.3944    0.7897   -0.9365 H   0  0  0  0  0  0  0  0  0  0  0  0
   -0.2477   -1.3399    1.0200 H   0  0  0  0  0  0  0  0  0  0  0  0
    0.7546   -0.0878    0.0390 H   0  0  0  0  0  0  0  0  0  0  0  0
   -0.1827   -1.3037   -0.8007 H   0  0  0  0  0  0  0  0  0  0  0  0
  1  5  1  0  0  0  0
  2  1  1  0  0  0  0
  2  8  1  0  0  0  0
  3  1  1  0  0  0  0
  4  1  1  0  0  0  0
  6  2  1  0  0  0  0
  6  9  1  0  0  0  0
  6 10  1  0  0  0  0
  7  2  1  0  0  0  0
  9 12  1  0  0  0  0
 11  6  1  0  0  0  0
 13  9  1  0  0  0  0
 14  9  1  0  0  0  0
M  END
$$$$
