butane_opt
 OpenBabel08242015383D

 14 13  0  0  0  0  0  0  0  0999 V2000
   -3.9392    0.2805    0.0461 C   0  0  0  0  0  0  0  0  0  0  0  0
   -2.6983   -0.6206    0.0141 C   0  0  0  0  0  0  0  0  0  0  0  0
   -4.7789   -0.2844   -0.1512 H   0  0  0  0  0  0  0  0  0  0  0  0
   -3.9014    0.7269   -0.7461 H   0  0  0  0  0  0  0  0  0  0  0  0
   -4.0451    1.1080    1.0137 H   0  0  0  0  0  0  0  0  0  0  0  0
   -1.3965    0.1494   -0.0319 C   0  0  0  0  0  0  0  0  0  0  0  0
   -2.7200   -1.2646   -0.8205 H   0  0  0  0  0  0  0  0  0  0  0  0
   -2.6315   -1.2700    0.9024 H   0  0  0  0  0  0  0  0  0  0  0  0
   -0.1736   -0.6745    0.0669 C   0  0  0  0  0  0  0  0  0  0  0  0
   -1.4018    0.8093    0.8118 H   0  0  0  0  0  0  0  0  0  0  0  0
   -1.4073    0.7749   -0.8627 H   0  0  0  0  0  0  0  0  0  0  0  0
   -0.2188   -1.3889    1.0638 H   0  0  0  0  0  0  0  0  0  0  0  0
    0.8171   -0.0164   -0.1519 H   0  0  0  0  0  0  0  0  0  0  0  0
   -0.2531   -1.2723   -0.7468 H   0  0  0  0  0  0  0  0  0  0  0  0
  1  5  1  0  0  0  0
  2  1  1  0  0  0  0
  2  8  1  0  0  0  0
  3  1  1  0  0  0  0
  4  1  1  0  0  0  0
  6  2  1  0  0  0  0
  6  9  1  0  0  0  0
  6 10  1  0  0  0  0
  7  2  1  0  0  0  0
  9 12  1  0  0  0  0
 11  6  1  0  0  0  0
 13  9  1  0  0  0  0
 14  9  1  0  0  0  0
M  END
$$$$
