14
butane_opt
C  -3.919393   0.243137   0.028823
C  -2.691811  -0.598654   0.025045
H  -4.925017  -0.404901  -0.005374
H  -3.967861   0.805118  -0.854513
H  -3.970048   0.985513   0.954227
C  -1.412283   0.202848   0.003355
H  -2.672564  -1.374810  -0.896728
H  -2.731409  -1.116905   0.868893
C  -0.172918  -0.702651   0.043285
H  -1.404448   0.920393   0.909991
H  -1.445699   0.878864  -0.889850
H  -0.069361  -1.517243   1.097856
H   0.654005  -0.158425  -0.219916
H  -0.114797  -1.248204  -0.710926
