butane_opt
 OpenBabel08242015383D

 14 13  0  0  0  0  0  0  0  0999 V2000
   -3.9373    0.2603    0.0409 C   0  0  0  0  0  0  0  0  0  0  0  0
   -2.7031   -0.6300    0.0369 C   0  0  0  0  0  0  0  0  0  0  0  0
   -4.7665   -0.2662   -0.1978 H   0  0  0  0  0  0  0  0  0  0  0  0
   -3.8656    0.6737   -0.7336 H   0  0  0  0  0  0  0  0  0  0  0  0
   -4.0792    1.2065    1.0147 H   0  0  0  0  0  0  0  0  0  0  0  0
   -1.4148    0.1806   -0.0178 C   0  0  0  0  0  0  0  0  0  0  0  0
   -2.7353   -1.3646   -0.8419 H   0  0  0  0  0  0  0  0  0  0  0  0
   -2.6067   -1.2349    0.9053 H   0  0  0  0  0  0  0  0  0  0  0  0
   -0.1637   -0.6871    0.0436 C   0  0  0  0  0  0  0  0  0  0  0  0
   -1.3685    0.8000    0.8055 H   0  0  0  0  0  0  0  0  0  0  0  0
   -1.4393    0.9228   -1.0120 H   0  0  0  0  0  0  0  0  0  0  0  0
   -0.1893   -1.4033    1.0446 H   0  0  0  0  0  0  0  0  0  0  0  0
    0.7395   -0.0709   -0.0180 H   0  0  0  0  0  0  0  0  0  0  0  0
   -0.0960   -1.2204   -0.7332 H   0  0  0  0  0  0  0  0  0  0  0  0
  1  5  1  0  0  0  0
  2  1  1  0  0  0  0
  2  8  1  0  0  0  0
  3  1  1  0  0  0  0
  4  1  1  0  0  0  0
  6  2  1  0  0  0  0
  6  9  1  0  0  0  0
  6 10  1  0  0  0  0
  7  2  1  0  0  0  0
  9 12  1  0  0  0  0
 11  6  1  0  0  0  0
 13  9  1  0  0  0  0
 14  9  1  0  0  0  0
M  END
$$$$
