butane_opt
 OpenBabel08242015383D

 14 13  0  0  0  0  0  0  0  0999 V2000
   -3.9588    0.2888    0.0108 C   0  0  0  0  0  0  0  0  0  0  0  0
   -2.6879   -0.6361    0.0152 C   0  0  0  0  0  0  0  0  0  0  0  0
   -4.8710   -0.3191    0.2444 H   0  0  0  0  0  0  0  0  0  0  0  0
   -4.0640    1.0125   -1.0108 H   0  0  0  0  0  0  0  0  0  0  0  0
   -3.8610    0.7789    0.7944 H   0  0  0  0  0  0  0  0  0  0  0  0
   -1.4135    0.1638    0.0382 C   0  0  0  0  0  0  0  0  0  0  0  0
   -2.6219   -1.2922   -0.7869 H   0  0  0  0  0  0  0  0  0  0  0  0
   -2.6937   -1.3160    0.9536 H   0  0  0  0  0  0  0  0  0  0  0  0
   -0.1697   -0.6829    0.0114 C   0  0  0  0  0  0  0  0  0  0  0  0
   -1.3388    0.9366    0.9535 H   0  0  0  0  0  0  0  0  0  0  0  0
   -1.3413    0.7569   -0.8088 H   0  0  0  0  0  0  0  0  0  0  0  0
   -0.1081   -1.2684    0.8991 H   0  0  0  0  0  0  0  0  0  0  0  0
    0.7917   -0.0409    0.0748 H   0  0  0  0  0  0  0  0  0  0  0  0
   -0.1675   -1.3066   -0.7892 H   0  0  0  0  0  0  0  0  0  0  0  0
  1  2  1  0  0  0  0
  1  3  1  0  0  0  0
  1  5  1  0  0  0  0
  2  6  1  0  0  0  0
  2  8  1  0  0  0  0
  4  1  1  0  0  0  0
  6 10  1  0  0  0  0
  7  2  1  0  0  0  0
  9  6  1  0  0  0  0
  9 13  1  0  0  0  0
  9 12  1  0  0  0  0
 11  6  1  0  0  0  0
 14  9  1  0  0  0  0
M  END
$$$$
