butane_opt
 OpenBabel08242015383D

 14 13  0  0  0  0  0  0  0  0999 V2000
   -3.9387    0.2690   -0.0061 C   0  0  0  0  0  0  0  0  0  0  0  0
   -2.6697   -0.6089    0.0894 C   0  0  0  0  0  0  0  0  0  0  0  0
   -4.9210   -0.3411    0.0690 H   0  0  0  0  0  0  0  0  0  0  0  0
   -3.9157    0.9735   -0.9733 H   0  0  0  0  0  0  0  0  0  0  0  0
   -4.0585    0.8501    0.7957 H   0  0  0  0  0  0  0  0  0  0  0  0
   -1.4146    0.1719    0.0132 C   0  0  0  0  0  0  0  0  0  0  0  0
   -2.6262   -1.2961   -0.7418 H   0  0  0  0  0  0  0  0  0  0  0  0
   -2.6891   -1.2760    0.9948 H   0  0  0  0  0  0  0  0  0  0  0  0
   -0.1859   -0.6857    0.0084 C   0  0  0  0  0  0  0  0  0  0  0  0
   -1.3153    0.8089    0.8600 H   0  0  0  0  0  0  0  0  0  0  0  0
   -1.3902    0.7400   -0.8177 H   0  0  0  0  0  0  0  0  0  0  0  0
   -0.2603   -1.1043    0.7757 H   0  0  0  0  0  0  0  0  0  0  0  0
    0.7694   -0.0397    0.2064 H   0  0  0  0  0  0  0  0  0  0  0  0
   -0.1007   -1.5453   -1.0110 H   0  0  0  0  0  0  0  0  0  0  0  0
  1  3  1  0  0  0  0
  1  2  1  0  0  0  0
  1  5  1  0  0  0  0
  2  8  1  0  0  0  0
  4  1  1  0  0  0  0
  6  2  1  0  0  0  0
  6 10  1  0  0  0  0
  7  2  1  0  0  0  0
  9  6  1  0  0  0  0
  9 13  1  0  0  0  0
  9 12  1  0  0  0  0
 11  6  1  0  0  0  0
 14  9  1  0  0  0  0
M  END
$$$$
