butane_opt
 OpenBabel08242015383D

 14 13  0  0  0  0  0  0  0  0999 V2000
   -3.9475    0.2593    0.0406 C   0  0  0  0  0  0  0  0  0  0  0  0
   -2.7105   -0.6084    0.0187 C   0  0  0  0  0  0  0  0  0  0  0  0
   -4.8850   -0.3640   -0.0977 H   0  0  0  0  0  0  0  0  0  0  0  0
   -3.9621    0.7378   -0.7448 H   0  0  0  0  0  0  0  0  0  0  0  0
   -4.0158    1.0660    0.9937 H   0  0  0  0  0  0  0  0  0  0  0  0
   -1.4095    0.1955   -0.0171 C   0  0  0  0  0  0  0  0  0  0  0  0
   -2.6946   -1.2658   -0.8317 H   0  0  0  0  0  0  0  0  0  0  0  0
   -2.7427   -1.2450    0.9387 H   0  0  0  0  0  0  0  0  0  0  0  0
   -0.1440   -0.6974    0.0522 C   0  0  0  0  0  0  0  0  0  0  0  0
   -1.3860    0.8173    0.7777 H   0  0  0  0  0  0  0  0  0  0  0  0
   -1.3519    0.8275   -0.9349 H   0  0  0  0  0  0  0  0  0  0  0  0
   -0.0890   -1.4099    1.0007 H   0  0  0  0  0  0  0  0  0  0  0  0
    0.7612   -0.1216   -0.0047 H   0  0  0  0  0  0  0  0  0  0  0  0
   -0.1129   -1.3100   -0.7632 H   0  0  0  0  0  0  0  0  0  0  0  0
  1  5  1  0  0  0  0
  2  1  1  0  0  0  0
  2  8  1  0  0  0  0
  3  1  1  0  0  0  0
  4  1  1  0  0  0  0
  6  2  1  0  0  0  0
  6  9  1  0  0  0  0
  6 10  1  0  0  0  0
  7  2  1  0  0  0  0
  9 12  1  0  0  0  0
 11  6  1  0  0  0  0
 13  9  1  0  0  0  0
 14  9  1  0  0  0  0
M  END
$$$$
