14
butane_opt
C  -3.921640   0.235920  -0.029609
C  -2.718261  -0.561263   0.074489
H  -4.796496  -0.355489   0.270183
H  -3.926445   1.050568  -1.073624
H  -3.901169   0.661774   0.672024
C  -1.410616   0.198413   0.085778
H  -2.688623  -1.295317  -0.799636
H  -2.737366  -1.174250   0.939363
C  -0.159737  -0.720865  -0.016584
H  -1.421232   0.910829   0.945987
H  -1.433548   0.733990  -0.797141
H  -0.122770  -1.280048   0.813868
H   0.742899  -0.099119  -0.002934
H  -0.207826  -1.439407  -0.917324
