14
butane_opt
C  -3.963879   0.268463   0.001867
C  -2.712580  -0.628386   0.058560
H  -4.864041  -0.294851  -0.065102
H  -3.940758   0.926339  -0.928161
H  -4.014963   0.915501   0.766740
C  -1.397094   0.184838   0.053661
H  -2.711539  -1.355092  -0.843262
H  -2.707221  -1.181200   0.931403
C  -0.126231  -0.686438   0.010419
H  -1.366009   0.881453   0.909804
H  -1.506836   0.727531  -0.777947
H  -0.012145  -1.432623   0.982122
H   0.787854  -0.088604  -0.231205
H  -0.294909  -1.225822  -0.787158
