14
butane_opt
C  -3.968778   0.254293   0.073599
C  -2.699391  -0.608748  -0.011908
H  -4.873609  -0.368802   0.196822
H  -3.974061   0.889757  -0.872473
H  -3.892568   0.885516   0.947412
C  -1.400330   0.200919  -0.069072
H  -2.791313  -1.281432  -0.870265
H  -2.688636  -1.226131   0.862732
C  -0.144353  -0.702812   0.087110
H  -1.475790   0.973927   0.847378
H  -1.355822   0.809819  -1.001540
H  -0.196849  -1.302532   0.966805
H   0.748454  -0.132452   0.225944
H   0.024061  -1.444124  -0.824389
