14
butane_opt
C  -3.978602   0.272604   0.043147
C  -2.708828  -0.611469  -0.002153
H  -4.891542  -0.361145   0.041206
H  -3.963207   0.753815  -0.781952
H  -3.906975   1.003173   0.972113
C  -1.387348   0.194571  -0.002905
H  -2.739262  -1.428743  -0.927867
H  -2.749958  -1.145782   0.802043
C  -0.146024  -0.703005   0.065841
H  -1.312077   0.833263   0.805937
H  -1.379856   0.900949  -0.963610
H   0.006704  -1.523111   1.151329
H   0.776778  -0.115175  -0.168653
H  -0.224584  -1.214821  -0.693235
