14
butane_opt
C  -3.900797   0.246986   0.038969
C  -2.719891  -0.571059  -0.023500
H  -4.889859  -0.385536   0.163205
H  -4.077470   0.797669  -0.813491
H  -3.815211   0.958884   0.941604
C  -1.427725   0.196891  -0.002618
H  -2.795640  -1.357688  -0.893858
H  -2.738104  -1.195501   0.858827
C  -0.153268  -0.715635   0.071622
H  -1.396238   0.848554   0.847581
H  -1.402827   0.813641  -0.887588
H  -0.096855  -1.473146   1.074045
H   0.770908  -0.138510  -0.193277
H  -0.152116  -1.218057  -0.657798
