butane_opt
 OpenBabel08242015383D

 14 13  0  0  0  0  0  0  0  0999 V2000
   -3.9392    0.2707    0.0422 C   0  0  0  0  0  0  0  0  0  0  0  0
   -2.6983   -0.6221    0.0228 C   0  0  0  0  0  0  0  0  0  0  0  0
   -4.8333   -0.3016   -0.0613 H   0  0  0  0  0  0  0  0  0  0  0  0
   -3.9210    0.7792   -0.7917 H   0  0  0  0  0  0  0  0  0  0  0  0
   -4.0332    1.0469    0.9588 H   0  0  0  0  0  0  0  0  0  0  0  0
   -1.4087    0.1683   -0.0168 C   0  0  0  0  0  0  0  0  0  0  0  0
   -2.7134   -1.2870   -0.8283 H   0  0  0  0  0  0  0  0  0  0  0  0
   -2.6385   -1.2573    0.8851 H   0  0  0  0  0  0  0  0  0  0  0  0
   -0.1632   -0.6829    0.0491 C   0  0  0  0  0  0  0  0  0  0  0  0
   -1.4231    0.8492    0.8303 H   0  0  0  0  0  0  0  0  0  0  0  0
   -1.3631    0.8126   -0.9342 H   0  0  0  0  0  0  0  0  0  0  0  0
   -0.2026   -1.3647    1.0097 H   0  0  0  0  0  0  0  0  0  0  0  0
    0.7834   -0.0872   -0.0110 H   0  0  0  0  0  0  0  0  0  0  0  0
   -0.1679   -1.2684   -0.7687 H   0  0  0  0  0  0  0  0  0  0  0  0
  1  5  1  0  0  0  0
  2  1  1  0  0  0  0
  2  8  1  0  0  0  0
  3  1  1  0  0  0  0
  4  1  1  0  0  0  0
  6  2  1  0  0  0  0
  6  9  1  0  0  0  0
  6 10  1  0  0  0  0
  7  2  1  0  0  0  0
  9 12  1  0  0  0  0
 11  6  1  0  0  0  0
 13  9  1  0  0  0  0
 14  9  1  0  0  0  0
M  END
$$$$
