14
butane_opt
C  -3.932846   0.246379  -0.005156
C  -2.699141  -0.607067   0.062887
H  -4.882377  -0.371288  -0.100475
H  -3.935868   0.802664  -0.892676
H  -3.971422   1.033327   0.906784
C  -1.420576   0.206042   0.029987
H  -2.748941  -1.193790  -0.744763
H  -2.664889  -1.272117   0.972781
C  -0.146347  -0.711644   0.017111
H  -1.415515   0.883293   0.863630
H  -1.402690   0.826638  -0.808072
H  -0.100397  -1.318114   0.903377
H   0.773314  -0.161070  -0.074788
H  -0.261179  -1.321222  -0.842670
