14
butane_opt
C  -3.938521   0.272173   0.009337
C  -2.689316  -0.615725   0.055214
H  -4.871556  -0.340549   0.071679
H  -3.979643   0.932067  -0.911119
H  -3.984670   0.878296   0.851006
C  -1.400771   0.172174   0.005097
H  -2.705145  -1.278564  -0.781104
H  -2.734544  -1.266653   0.976657
C  -0.174440  -0.688017   0.029850
H  -1.381756   0.848417   0.858317
H  -1.354547   0.844589  -0.892709
H  -0.164730  -1.182554   0.840333
H   0.766205  -0.090292   0.162668
H  -0.172495  -1.509567  -0.945549
