14
butane_opt
C  -3.939147   0.287781   0.011859
C  -2.689931  -0.645082   0.024761
H  -4.781175  -0.285944   0.295466
H  -4.106306   1.105988  -1.017964
H  -3.934918   0.754327   0.743602
C  -1.393754   0.162199   0.039763
H  -2.727955  -1.358561  -0.866132
H  -2.684215  -1.209746   0.897205
C  -0.185682  -0.667949   0.017629
H  -1.372840   0.806580   0.896709
H  -1.416438   0.808682  -0.817574
H  -0.136273  -1.284571   0.910339
H   0.776989   0.004568   0.115248
H  -0.157709  -1.434518  -0.865634
