14
butane_opt
C  -3.932660   0.267429   0.061003
C  -2.707132  -0.619370   0.001226
H  -4.861889  -0.422967  -0.016891
H  -3.956938   0.751012  -0.735871
H  -3.956218   1.053566   0.985553
C  -1.416052   0.205947  -0.033696
H  -2.653213  -1.408510  -0.952793
H  -2.638940  -1.126707   0.768262
C  -0.164894  -0.695658   0.080423
H  -1.378194   0.784998   0.781263
H  -1.409691   0.834630  -0.950669
H  -0.091084  -1.543601   1.104426
H   0.735768  -0.107119  -0.120639
H  -0.161281  -1.184919  -0.684873
