butane_opt
 OpenBabel08242015383D

 14 13  0  0  0  0  0  0  0  0999 V2000
   -3.9462    0.2873   -0.0283 C   0  0  0  0  0  0  0  0  0  0  0  0
   -2.6686   -0.6402    0.0705 C   0  0  0  0  0  0  0  0  0  0  0  0
   -4.8674   -0.3103   -0.0964 H   0  0  0  0  0  0  0  0  0  0  0  0
   -3.9710    0.8160   -0.8836 H   0  0  0  0  0  0  0  0  0  0  0  0
   -3.9232    1.0503    0.8678 H   0  0  0  0  0  0  0  0  0  0  0  0
   -1.4104    0.1502    0.0617 C   0  0  0  0  0  0  0  0  0  0  0  0
   -2.6474   -1.2731   -0.7252 H   0  0  0  0  0  0  0  0  0  0  0  0
   -2.7223   -1.3142    1.0216 H   0  0  0  0  0  0  0  0  0  0  0  0
   -0.1899   -0.6763   -0.0057 C   0  0  0  0  0  0  0  0  0  0  0  0
   -1.3350    0.9014    0.9952 H   0  0  0  0  0  0  0  0  0  0  0  0
   -1.4400    0.7909   -0.8472 H   0  0  0  0  0  0  0  0  0  0  0  0
   -0.0787   -1.3413    0.9549 H   0  0  0  0  0  0  0  0  0  0  0  0
    0.7920   -0.0104   -0.1881 H   0  0  0  0  0  0  0  0  0  0  0  0
   -0.2692   -1.2243   -0.8263 H   0  0  0  0  0  0  0  0  0  0  0  0
  1  2  1  0  0  0  0
  1  5  1  0  0  0  0
  2  8  1  0  0  0  0
  3  1  1  0  0  0  0
  4  1  1  0  0  0  0
  6  2  1  0  0  0  0
  6 10  1  0  0  0  0
  7  2  1  0  0  0  0
  9  6  1  0  0  0  0
  9 12  1  0  0  0  0
 11  6  1  0  0  0  0
 13  9  1  0  0  0  0
 14  9  1  0  0  0  0
M  END
$$$$
