butane_opt
 OpenBabel08242015383D

 14 13  0  0  0  0  0  0  0  0999 V2000
   -3.9348    0.2533    0.0392 C   0  0  0  0  0  0  0  0  0  0  0  0
   -2.7053   -0.5942    0.0143 C   0  0  0  0  0  0  0  0  0  0  0  0
   -4.8721   -0.3638    0.0830 H   0  0  0  0  0  0  0  0  0  0  0  0
   -4.0032    0.8673   -0.8488 H   0  0  0  0  0  0  0  0  0  0  0  0
   -3.8934    0.9504    0.9538 H   0  0  0  0  0  0  0  0  0  0  0  0
   -1.3991    0.1887   -0.0222 C   0  0  0  0  0  0  0  0  0  0  0  0
   -2.7798   -1.2698   -0.8379 H   0  0  0  0  0  0  0  0  0  0  0  0
   -2.7218   -1.2470    0.9590 H   0  0  0  0  0  0  0  0  0  0  0  0
   -0.1628   -0.7067    0.0532 C   0  0  0  0  0  0  0  0  0  0  0  0
   -1.4533    0.8382    0.8011 H   0  0  0  0  0  0  0  0  0  0  0  0
   -1.4007    0.8583   -0.9480 H   0  0  0  0  0  0  0  0  0  0  0  0
   -0.2325   -1.2649    0.9159 H   0  0  0  0  0  0  0  0  0  0  0  0
    0.7772   -0.0912    0.1625 H   0  0  0  0  0  0  0  0  0  0  0  0
   -0.0161   -1.4423   -0.8265 H   0  0  0  0  0  0  0  0  0  0  0  0
  1  3  1  0  0  0  0
  1  5  1  0  0  0  0
  2  1  1  0  0  0  0
  2  8  1  0  0  0  0
  4  1  1  0  0  0  0
  6  2  1  0  0  0  0
  6  9  1  0  0  0  0
  6 10  1  0  0  0  0
  7  2  1  0  0  0  0
  9 13  1  0  0  0  0
  9 12  1  0  0  0  0
 11  6  1  0  0  0  0
 14  9  1  0  0  0  0
M  END
$$$$
