butane_opt
 OpenBabel08242015383D

 14 13  0  0  0  0  0  0  0  0999 V2000
   -3.9216    0.2359   -0.0296 C   0  0  0  0  0  0  0  0  0  0  0  0
   -2.7183   -0.5613    0.0745 C   0  0  0  0  0  0  0  0  0  0  0  0
   -4.7965   -0.3555    0.2702 H   0  0  0  0  0  0  0  0  0  0  0  0
   -3.9264    1.0506   -1.0736 H   0  0  0  0  0  0  0  0  0  0  0  0
   -3.9012    0.6618    0.6720 H   0  0  0  0  0  0  0  0  0  0  0  0
   -1.4106    0.1984    0.0858 C   0  0  0  0  0  0  0  0  0  0  0  0
   -2.6886   -1.2953   -0.7996 H   0  0  0  0  0  0  0  0  0  0  0  0
   -2.7374   -1.1743    0.9394 H   0  0  0  0  0  0  0  0  0  0  0  0
   -0.1597   -0.7209   -0.0166 C   0  0  0  0  0  0  0  0  0  0  0  0
   -1.4212    0.9108    0.9460 H   0  0  0  0  0  0  0  0  0  0  0  0
   -1.4335    0.7340   -0.7971 H   0  0  0  0  0  0  0  0  0  0  0  0
   -0.1228   -1.2800    0.8139 H   0  0  0  0  0  0  0  0  0  0  0  0
    0.7429   -0.0991   -0.0029 H   0  0  0  0  0  0  0  0  0  0  0  0
   -0.2078   -1.4394   -0.9173 H   0  0  0  0  0  0  0  0  0  0  0  0
  1  2  1  0  0  0  0
  1  3  1  0  0  0  0
  1  5  1  0  0  0  0
  2  6  1  0  0  0  0
  2  8  1  0  0  0  0
  4  1  1  0  0  0  0
  6 10  1  0  0  0  0
  7  2  1  0  0  0  0
  9 13  1  0  0  0  0
  9  6  1  0  0  0  0
  9 12  1  0  0  0  0
 11  6  1  0  0  0  0
 14  9  1  0  0  0  0
M  END
$$$$
