butane_opt
 OpenBabel08242015383D

 14 13  0  0  0  0  0  0  0  0999 V2000
   -3.9377    0.2713   -0.0360 C   0  0  0  0  0  0  0  0  0  0  0  0
   -2.7174   -0.6114    0.1052 C   0  0  0  0  0  0  0  0  0  0  0  0
   -4.8963   -0.3863   -0.1473 H   0  0  0  0  0  0  0  0  0  0  0  0
   -3.8338    0.8232   -0.8526 H   0  0  0  0  0  0  0  0  0  0  0  0
   -4.0879    0.9536    0.8200 H   0  0  0  0  0  0  0  0  0  0  0  0
   -1.4014    0.1974    0.0506 C   0  0  0  0  0  0  0  0  0  0  0  0
   -2.7796   -1.1952   -0.7094 H   0  0  0  0  0  0  0  0  0  0  0  0
   -2.7823   -1.3336    1.0442 H   0  0  0  0  0  0  0  0  0  0  0  0
   -0.1361   -0.7118   -0.0262 C   0  0  0  0  0  0  0  0  0  0  0  0
   -1.4196    0.9394    0.9661 H   0  0  0  0  0  0  0  0  0  0  0  0
   -1.4259    0.6941   -0.7530 H   0  0  0  0  0  0  0  0  0  0  0  0
   -0.0330   -1.3124    0.8742 H   0  0  0  0  0  0  0  0  0  0  0  0
    0.7555   -0.1007   -0.0536 H   0  0  0  0  0  0  0  0  0  0  0  0
   -0.2073   -1.3037   -0.8673 H   0  0  0  0  0  0  0  0  0  0  0  0
  1  2  1  0  0  0  0
  1  5  1  0  0  0  0
  2  8  1  0  0  0  0
  3  1  1  0  0  0  0
  4  1  1  0  0  0  0
  6  2  1  0  0  0  0
  6 10  1  0  0  0  0
  7  2  1  0  0  0  0
  9  6  1  0  0  0  0
  9 12  1  0  0  0  0
 11  6  1  0  0  0  0
 13  9  1  0  0  0  0
 14  9  1  0  0  0  0
M  END
$$$$
