butane_opt
 OpenBabel08242015383D

 14 13  0  0  0  0  0  0  0  0999 V2000
   -3.9570    0.2880   -0.0199 C   0  0  0  0  0  0  0  0  0  0  0  0
   -2.7127   -0.6421    0.1050 C   0  0  0  0  0  0  0  0  0  0  0  0
   -4.8458   -0.2794    0.0522 H   0  0  0  0  0  0  0  0  0  0  0  0
   -4.0025    0.9868   -0.9615 H   0  0  0  0  0  0  0  0  0  0  0  0
   -4.0668    0.8407    0.7495 H   0  0  0  0  0  0  0  0  0  0  0  0
   -1.3967    0.1734    0.0305 C   0  0  0  0  0  0  0  0  0  0  0  0
   -2.7043   -1.2896   -0.7481 H   0  0  0  0  0  0  0  0  0  0  0  0
   -2.7403   -1.2830    1.0178 H   0  0  0  0  0  0  0  0  0  0  0  0
   -0.1415   -0.6920    0.0003 C   0  0  0  0  0  0  0  0  0  0  0  0
   -1.2289    0.8651    0.8721 H   0  0  0  0  0  0  0  0  0  0  0  0
   -1.4256    0.8005   -0.8884 H   0  0  0  0  0  0  0  0  0  0  0  0
   -0.2626   -1.0591    0.7451 H   0  0  0  0  0  0  0  0  0  0  0  0
    0.8313   -0.0147    0.2378 H   0  0  0  0  0  0  0  0  0  0  0  0
   -0.0852   -1.5712   -1.0510 H   0  0  0  0  0  0  0  0  0  0  0  0
  1  3  1  0  0  0  0
  1  2  1  0  0  0  0
  1  5  1  0  0  0  0
  2  8  1  0  0  0  0
  4  1  1  0  0  0  0
  6  2  1  0  0  0  0
  6 10  1  0  0  0  0
  7  2  1  0  0  0  0
  9  6  1  0  0  0  0
  9 13  1  0  0  0  0
  9 12  1  0  0  0  0
 11  6  1  0  0  0  0
 14  9  1  0  0  0  0
M  END
$$$$
