14
butane_opt
C  -3.938632   0.255373   0.041357
C  -2.709121  -0.611686   0.024285
H  -4.845910  -0.309585  -0.114707
H  -3.925790   0.715769  -0.748937
H  -4.013776   1.080624   0.987418
C  -1.404188   0.198975  -0.017931
H  -2.749234  -1.305507  -0.814611
H  -2.727051  -1.240106   0.919916
C  -0.154646  -0.701660   0.052206
H  -1.462993   0.805274   0.763776
H  -1.383531   0.871982  -0.948406
H  -0.084968  -1.369521   0.975848
H   0.744669  -0.139639   0.017674
H  -0.098317  -1.274750  -0.773892
