butane_opt
 OpenBabel08242015383D

 14 13  0  0  0  0  0  0  0  0999 V2000
   -3.9675    0.2861    0.0547 C   0  0  0  0  0  0  0  0  0  0  0  0
   -2.6960   -0.6404    0.0152 C   0  0  0  0  0  0  0  0  0  0  0  0
   -4.8824   -0.3057    0.0847 H   0  0  0  0  0  0  0  0  0  0  0  0
   -4.0438    0.7974   -0.7652 H   0  0  0  0  0  0  0  0  0  0  0  0
   -3.9078    1.0017    0.9126 H   0  0  0  0  0  0  0  0  0  0  0  0
   -1.3942    0.1638   -0.0555 C   0  0  0  0  0  0  0  0  0  0  0  0
   -2.6508   -1.2967   -0.8262 H   0  0  0  0  0  0  0  0  0  0  0  0
   -2.6725   -1.2506    0.8929 H   0  0  0  0  0  0  0  0  0  0  0  0
   -0.1525   -0.6704    0.0752 C   0  0  0  0  0  0  0  0  0  0  0  0
   -1.4144    0.8218    0.7338 H   0  0  0  0  0  0  0  0  0  0  0  0
   -1.3885    0.8092   -0.9758 H   0  0  0  0  0  0  0  0  0  0  0  0
   -0.2873   -1.1907    0.9335 H   0  0  0  0  0  0  0  0  0  0  0  0
    0.7512   -0.0842    0.2086 H   0  0  0  0  0  0  0  0  0  0  0  0
   -0.0148   -1.4506   -0.8345 H   0  0  0  0  0  0  0  0  0  0  0  0
  1  3  1  0  0  0  0
  1  5  1  0  0  0  0
  2  1  1  0  0  0  0
  2  8  1  0  0  0  0
  4  1  1  0  0  0  0
  6  2  1  0  0  0  0
  6  9  1  0  0  0  0
  6 10  1  0  0  0  0
  7  2  1  0  0  0  0
  9 13  1  0  0  0  0
  9 12  1  0  0  0  0
 11  6  1  0  0  0  0
 14  9  1  0  0  0  0
M  END
$$$$
