14
butane_opt
C  -3.947407   0.250037   0.081063
C  -2.734369  -0.602729  -0.034670
H  -4.819619  -0.291519   0.228793
H  -3.980343   0.915962  -0.883271
H  -3.900502   0.795323   0.874241
C  -1.397498   0.214580  -0.028659
H  -2.773084  -1.383514  -0.977198
H  -2.667396  -1.127371   0.776510
C  -0.145823  -0.712048   0.074561
H  -1.433768   0.863624   0.802165
H  -1.299803   0.853465  -0.894497
H  -0.077856  -1.449813   1.080744
H   0.684755  -0.175870   0.032559
H  -0.053908  -1.270916  -0.701772
