14
butane_opt
C  -3.965930   0.267822  -0.029612
C  -2.706575  -0.612548   0.068072
H  -4.920742  -0.353155   0.009745
H  -4.045883   0.860086  -0.930189
H  -3.974798   0.912762   0.803509
C  -1.389701   0.178893   0.070480
H  -2.643092  -1.274488  -0.743233
H  -2.686115  -1.286763   0.957643
C  -0.146862  -0.696439  -0.014107
H  -1.326112   0.951041   1.015309
H  -1.417070   0.823350  -0.788028
H  -0.009468  -1.403400   0.916251
H   0.759607  -0.107895  -0.145459
H  -0.240952  -1.250703  -0.785332
