butane_opt
 OpenBabel08242015383D

 14 13  0  0  0  0  0  0  0  0999 V2000
   -3.9484    0.2697   -0.0030 C   0  0  0  0  0  0  0  0  0  0  0  0
   -2.6870   -0.6178    0.0442 C   0  0  0  0  0  0  0  0  0  0  0  0
   -4.8859   -0.3409    0.0512 H   0  0  0  0  0  0  0  0  0  0  0  0
   -3.9458    0.9038   -0.9069 H   0  0  0  0  0  0  0  0  0  0  0  0
   -3.9654    0.9587    0.8468 H   0  0  0  0  0  0  0  0  0  0  0  0
   -1.4084    0.1622    0.0376 C   0  0  0  0  0  0  0  0  0  0  0  0
   -2.6990   -1.2642   -0.7846 H   0  0  0  0  0  0  0  0  0  0  0  0
   -2.7169   -1.2569    0.9440 H   0  0  0  0  0  0  0  0  0  0  0  0
   -0.1672   -0.6808    0.0176 C   0  0  0  0  0  0  0  0  0  0  0  0
   -1.3420    0.9176    0.9287 H   0  0  0  0  0  0  0  0  0  0  0  0
   -1.4110    0.7585   -0.8133 H   0  0  0  0  0  0  0  0  0  0  0  0
   -0.0644   -1.3656    0.9656 H   0  0  0  0  0  0  0  0  0  0  0  0
    0.7581   -0.0828   -0.1297 H   0  0  0  0  0  0  0  0  0  0  0  0
   -0.2246   -1.2994   -0.8095 H   0  0  0  0  0  0  0  0  0  0  0  0
  1  2  1  0  0  0  0
  1  3  1  0  0  0  0
  1  5  1  0  0  0  0
  2  8  1  0  0  0  0
  4  1  1  0  0  0  0
  6  2  1  0  0  0  0
  6 10  1  0  0  0  0
  7  2  1  0  0  0  0
  9  6  1  0  0  0  0
  9 12  1  0  0  0  0
 11  6  1  0  0  0  0
 13  9  1  0  0  0  0
 14  9  1  0  0  0  0
M  END
$$$$
