14
butane_opt
C  -3.907398   0.234775   0.084931
C  -2.699147  -0.587879  -0.018442
H  -4.807818  -0.375654   0.115231
H  -3.982485   0.866799  -0.773339
H  -3.896692   0.934382   0.984887
C  -1.428647   0.210798  -0.078625
H  -2.820833  -1.230293  -0.905334
H  -2.677961  -1.207844   0.879984
C  -0.183000  -0.721965   0.087815
H  -1.470394   0.891805   0.760352
H  -1.281181   0.865781  -0.998606
H  -0.303116  -1.297641   0.975178
H   0.751109  -0.095402   0.264057
H   0.094471  -1.465667  -0.787114
