14
butane_opt
C  -3.929383   0.249810  -0.024931
C  -2.687367  -0.606572   0.093853
H  -4.818583  -0.374851  -0.177357
H  -3.859868   0.772450  -0.856670
H  -4.013138   1.007027   0.904037
C  -1.423607   0.209581   0.032875
H  -2.692251  -1.228587  -0.714791
H  -2.688696  -1.268456   1.008194
C  -0.166493  -0.711246  -0.010511
H  -1.335593   0.928314   0.969538
H  -1.466769   0.744723  -0.801382
H  -0.120716  -1.351908   0.903381
H   0.698834  -0.155720  -0.065385
H  -0.227174  -1.249212  -0.810346
