14
butane_opt
C  -3.970779   0.274659   0.001436
C  -2.693393  -0.635624   0.043530
H  -4.836461  -0.261726  -0.014244
H  -3.965626   0.887089  -0.866609
H  -4.064985   0.956483   0.817153
C  -1.403711   0.164159   0.038079
H  -2.737406  -1.280514  -0.794585
H  -2.642138  -1.297275   0.964945
C  -0.135258  -0.684601   0.008370
H  -1.330643   0.957640   0.993508
H  -1.368713   0.800352  -0.806799
H  -0.194276  -1.372280   0.982106
H   0.798227  -0.057858  -0.163676
H  -0.238682  -1.231797  -0.772044
