14
butane_opt
C  -3.964440   0.273496  -0.033146
C  -2.691012  -0.646880   0.115094
H  -4.836065  -0.290392  -0.266461
H  -3.913232   0.879702  -0.918137
H  -4.147326   1.057747   0.845515
C  -1.399693   0.173011   0.050957
H  -2.654971  -1.253621  -0.674825
H  -2.682532  -1.299264   1.067644
C  -0.156350  -0.664810  -0.019063
H  -1.238945   0.883270   0.929184
H  -1.437319   0.700547  -0.757755
H  -0.054079  -1.284931   0.839998
H   0.712253  -0.140855  -0.100413
H  -0.226222  -1.345750  -0.889014
