14
butane_opt
C  -3.955954   0.285879   0.048869
C  -2.672259  -0.642044   0.018351
H  -4.877454  -0.318904  -0.104031
H  -3.891187   0.695606  -0.716012
H  -4.068386   1.119282   1.030659
C  -1.397991   0.160267  -0.059250
H  -2.716669  -1.258910  -0.783704
H  -2.605527  -1.228047   0.916955
C  -0.178457  -0.670916   0.075131
H  -1.336176   0.849105   0.803318
H  -1.394376   0.789681  -0.936474
H  -0.247676  -1.339943   1.019990
H   0.754641  -0.087772   0.038997
H  -0.182712  -1.303700  -0.800657
