butane_opt
 OpenBabel08242015383D

 14 13  0  0  0  0  0  0  0  0999 V2000
   -3.9521    0.2522   -0.0244 C   0  0  0  0  0  0  0  0  0  0  0  0
   -2.7292   -0.5885    0.0536 C   0  0  0  0  0  0  0  0  0  0  0  0
   -4.9137   -0.3980    0.1376 H   0  0  0  0  0  0  0  0  0  0  0  0
   -3.9925    0.8931   -0.9479 H   0  0  0  0  0  0  0  0  0  0  0  0
   -3.8445    0.8791    0.8275 H   0  0  0  0  0  0  0  0  0  0  0  0
   -1.3906    0.1946    0.0543 C   0  0  0  0  0  0  0  0  0  0  0  0
   -2.7366   -1.2499   -0.8074 H   0  0  0  0  0  0  0  0  0  0  0  0
   -2.7525   -1.2321    0.9829 H   0  0  0  0  0  0  0  0  0  0  0  0
   -0.1416   -0.7122    0.0062 C   0  0  0  0  0  0  0  0  0  0  0  0
   -1.3508    0.9218    0.9779 H   0  0  0  0  0  0  0  0  0  0  0  0
   -1.4573    0.8010   -0.7910 H   0  0  0  0  0  0  0  0  0  0  0  0
   -0.0125   -1.3413    0.8995 H   0  0  0  0  0  0  0  0  0  0  0  0
    0.6746   -0.1570   -0.1422 H   0  0  0  0  0  0  0  0  0  0  0  0
   -0.0714   -1.3480   -0.7812 H   0  0  0  0  0  0  0  0  0  0  0  0
  1  2  1  0  0  0  0
  1  3  1  0  0  0  0
  1  5  1  0  0  0  0
  2  6  1  0  0  0  0
  2  8  1  0  0  0  0
  4  1  1  0  0  0  0
  6 10  1  0  0  0  0
  7  2  1  0  0  0  0
  9  6  1  0  0  0  0
  9 12  1  0  0  0  0
 11  6  1  0  0  0  0
 13  9  1  0  0  0  0
 14  9  1  0  0  0  0
M  END
$$$$
