butane_opt
 OpenBabel08242015383D

 14 13  0  0  0  0  0  0  0  0999 V2000
   -3.9880    0.2828    0.0509 C   0  0  0  0  0  0  0  0  0  0  0  0
   -2.6964   -0.6271    0.0023 C   0  0  0  0  0  0  0  0  0  0  0  0
   -4.8411   -0.2686    0.1239 H   0  0  0  0  0  0  0  0  0  0  0  0
   -4.0661    0.8618   -0.7985 H   0  0  0  0  0  0  0  0  0  0  0  0
   -3.9180    0.9605    0.9432 H   0  0  0  0  0  0  0  0  0  0  0  0
   -1.3702    0.1621   -0.0399 C   0  0  0  0  0  0  0  0  0  0  0  0
   -2.7916   -1.3119   -0.8657 H   0  0  0  0  0  0  0  0  0  0  0  0
   -2.6838   -1.2362    0.8774 H   0  0  0  0  0  0  0  0  0  0  0  0
   -0.1531   -0.6848    0.0763 C   0  0  0  0  0  0  0  0  0  0  0  0
   -1.4218    0.7689    0.7119 H   0  0  0  0  0  0  0  0  0  0  0  0
   -1.2764    0.8154   -0.9511 H   0  0  0  0  0  0  0  0  0  0  0  0
   -0.1411   -1.1986    0.9179 H   0  0  0  0  0  0  0  0  0  0  0  0
    0.7487   -0.0533    0.1799 H   0  0  0  0  0  0  0  0  0  0  0  0
   -0.1476   -1.3990   -0.7780 H   0  0  0  0  0  0  0  0  0  0  0  0
  1  3  1  0  0  0  0
  1  5  1  0  0  0  0
  2  1  1  0  0  0  0
  2  8  1  0  0  0  0
  4  1  1  0  0  0  0
  6  2  1  0  0  0  0
  6  9  1  0  0  0  0
  6 10  1  0  0  0  0
  7  2  1  0  0  0  0
  9 13  1  0  0  0  0
  9 12  1  0  0  0  0
 11  6  1  0  0  0  0
 14  9  1  0  0  0  0
M  END
$$$$
