butane_opt
 OpenBabel08242015383D

 14 13  0  0  0  0  0  0  0  0999 V2000
   -3.9608    0.2750    0.0539 C   0  0  0  0  0  0  0  0  0  0  0  0
   -2.6938   -0.6296    0.0307 C   0  0  0  0  0  0  0  0  0  0  0  0
   -4.8518   -0.2793   -0.1265 H   0  0  0  0  0  0  0  0  0  0  0  0
   -3.8983    0.7682   -0.7711 H   0  0  0  0  0  0  0  0  0  0  0  0
   -4.0826    1.0350    0.9392 H   0  0  0  0  0  0  0  0  0  0  0  0
   -1.4043    0.1696   -0.0300 C   0  0  0  0  0  0  0  0  0  0  0  0
   -2.7649   -1.3378   -0.8553 H   0  0  0  0  0  0  0  0  0  0  0  0
   -2.6270   -1.2526    0.8944 H   0  0  0  0  0  0  0  0  0  0  0  0
   -0.1664   -0.6801    0.0524 C   0  0  0  0  0  0  0  0  0  0  0  0
   -1.3882    0.8089    0.8396 H   0  0  0  0  0  0  0  0  0  0  0  0
   -1.2722    0.8829   -0.9978 H   0  0  0  0  0  0  0  0  0  0  0  0
   -0.1528   -1.3086    0.9522 H   0  0  0  0  0  0  0  0  0  0  0  0
    0.7098   -0.0702    0.0370 H   0  0  0  0  0  0  0  0  0  0  0  0
   -0.0075   -1.3386   -0.7566 H   0  0  0  0  0  0  0  0  0  0  0  0
  1  5  1  0  0  0  0
  2  1  1  0  0  0  0
  2  8  1  0  0  0  0
  3  1  1  0  0  0  0
  4  1  1  0  0  0  0
  6  2  1  0  0  0  0
  6  9  1  0  0  0  0
  6 10  1  0  0  0  0
  7  2  1  0  0  0  0
  9 12  1  0  0  0  0
 11  6  1  0  0  0  0
 13  9  1  0  0  0  0
 14  9  1  0  0  0  0
M  END
$$$$
