14
butane_opt
C  -3.903149   0.252204   0.069979
C  -2.712244  -0.597472  -0.024053
H  -4.822361  -0.376019  -0.044810
H  -3.892328   0.732902  -0.756475
H  -4.031168   1.014182   0.983642
C  -1.423809   0.208075  -0.030288
H  -2.814015  -1.331433  -0.862304
H  -2.669982  -1.209170   0.840925
C  -0.164479  -0.722422   0.077816
H  -1.381414   0.953448   0.874742
H  -1.381807   0.867272  -0.963435
H  -0.125565  -1.538736   1.064633
H   0.745585  -0.126256  -0.153217
H  -0.192112  -1.144597  -0.630639
