butane_opt
 OpenBabel08242015383D

 14 13  0  0  0  0  0  0  0  0999 V2000
   -3.9556    0.2812   -0.0090 C   0  0  0  0  0  0  0  0  0  0  0  0
   -2.6961   -0.6346    0.0597 C   0  0  0  0  0  0  0  0  0  0  0  0
   -4.8708   -0.2944    0.2479 H   0  0  0  0  0  0  0  0  0  0  0  0
   -4.0936    1.1017   -1.0962 H   0  0  0  0  0  0  0  0  0  0  0  0
   -3.9624    0.7042    0.6802 H   0  0  0  0  0  0  0  0  0  0  0  0
   -1.3814    0.1783    0.0473 C   0  0  0  0  0  0  0  0  0  0  0  0
   -2.7586   -1.3054   -0.7637 H   0  0  0  0  0  0  0  0  0  0  0  0
   -2.7257   -1.2458    0.9643 H   0  0  0  0  0  0  0  0  0  0  0  0
   -0.1626   -0.6847    0.0003 C   0  0  0  0  0  0  0  0  0  0  0  0
   -1.3457    0.9661    0.9495 H   0  0  0  0  0  0  0  0  0  0  0  0
   -1.3387    0.6701   -0.7230 H   0  0  0  0  0  0  0  0  0  0  0  0
   -0.1688   -1.1921    0.8400 H   0  0  0  0  0  0  0  0  0  0  0  0
    0.6816   -0.1180    0.0370 H   0  0  0  0  0  0  0  0  0  0  0  0
   -0.0863   -1.4433   -0.9227 H   0  0  0  0  0  0  0  0  0  0  0  0
  1  2  1  0  0  0  0
  1  3  1  0  0  0  0
  1  5  1  0  0  0  0
  2  8  1  0  0  0  0
  4  1  1  0  0  0  0
  6  2  1  0  0  0  0
  6 10  1  0  0  0  0
  7  2  1  0  0  0  0
  9 13  1  0  0  0  0
  9  6  1  0  0  0  0
  9 12  1  0  0  0  0
 11  6  1  0  0  0  0
 14  9  1  0  0  0  0
M  END
$$$$
