14
butane_opt
C  -3.974005   0.279880  -0.024614
C  -2.705416  -0.633691   0.086976
H  -4.836980  -0.298992  -0.070116
H  -3.932066   1.022145  -1.029225
H  -4.079634   0.863111   0.766640
C  -1.383227   0.183281   0.088780
H  -2.723580  -1.323932  -0.758180
H  -2.757857  -1.242117   0.976015
C  -0.135360  -0.691206  -0.019806
H  -1.297305   0.830639   0.954745
H  -1.439194   0.735578  -0.783452
H  -0.105090  -1.334123   0.849614
H   0.816272  -0.031141  -0.162192
H  -0.294525  -1.329978  -0.889987
