butane_opt
 OpenBabel08242015383D

 14 13  0  0  0  0  0  0  0  0999 V2000
   -3.9437    0.2689    0.0549 C   0  0  0  0  0  0  0  0  0  0  0  0
   -2.6953   -0.6224   -0.0040 C   0  0  0  0  0  0  0  0  0  0  0  0
   -4.8533   -0.3072    0.1543 H   0  0  0  0  0  0  0  0  0  0  0  0
   -4.0522    0.9948   -0.9051 H   0  0  0  0  0  0  0  0  0  0  0  0
   -3.9104    0.8881    0.8637 H   0  0  0  0  0  0  0  0  0  0  0  0
   -1.4041    0.1653   -0.0076 C   0  0  0  0  0  0  0  0  0  0  0  0
   -2.7397   -1.3602   -0.8912 H   0  0  0  0  0  0  0  0  0  0  0  0
   -2.6596   -1.1886    0.8194 H   0  0  0  0  0  0  0  0  0  0  0  0
   -0.1565   -0.6798    0.0605 C   0  0  0  0  0  0  0  0  0  0  0  0
   -1.4105    0.8168    0.8065 H   0  0  0  0  0  0  0  0  0  0  0  0
   -1.4258    0.8139   -0.9272 H   0  0  0  0  0  0  0  0  0  0  0  0
   -0.1990   -1.3150    1.0009 H   0  0  0  0  0  0  0  0  0  0  0  0
    0.7726   -0.0708    0.0652 H   0  0  0  0  0  0  0  0  0  0  0  0
   -0.1539   -1.3215   -0.7948 H   0  0  0  0  0  0  0  0  0  0  0  0
  1  3  1  0  0  0  0
  1  5  1  0  0  0  0
  2  1  1  0  0  0  0
  2  8  1  0  0  0  0
  4  1  1  0  0  0  0
  6  2  1  0  0  0  0
  6  9  1  0  0  0  0
  6 10  1  0  0  0  0
  7  2  1  0  0  0  0
  9 13  1  0  0  0  0
  9 12  1  0  0  0  0
 11  6  1  0  0  0  0
 14  9  1  0  0  0  0
M  END
$$$$
