14
butane_opt
C  -3.947335   0.248890   0.038386
C  -2.711790  -0.594734   0.017611
H  -4.866059  -0.337038  -0.021555
H  -3.972876   0.834056  -0.843623
H  -3.967729   0.943815   0.941609
C  -1.406016   0.196308  -0.002827
H  -2.742603  -1.318346  -0.871551
H  -2.741724  -1.157764   0.865772
C  -0.139297  -0.709607   0.054850
H  -1.405530   0.852256   0.836389
H  -1.350027   0.839147  -0.887637
H  -0.064288  -1.413959   0.981625
H   0.760380  -0.149561  -0.119513
H  -0.204709  -1.256640  -0.726611
