14
butane_opt
C  -3.968530   0.252410  -0.050451
C  -2.711417  -0.607181   0.091791
H  -4.952533  -0.382803   0.014649
H  -3.945123   0.945248  -1.025633
H  -3.897093   0.809112   0.747485
C  -1.405375   0.207638   0.095545
H  -2.700365  -1.243942  -0.717434
H  -2.706958  -1.200314   0.993419
C  -0.130462  -0.705803  -0.039418
H  -1.323045   1.003021   1.023083
H  -1.496562   0.739143  -0.689064
H   0.034455  -1.436320   0.948187
H   0.753025  -0.144268  -0.187763
H  -0.196635  -1.336016  -0.846626
