butane_opt
 OpenBabel08242015383D

 14 13  0  0  0  0  0  0  0  0999 V2000
   -3.9524    0.2816    0.0658 C   0  0  0  0  0  0  0  0  0  0  0  0
   -2.6828   -0.6363    0.0043 C   0  0  0  0  0  0  0  0  0  0  0  0
   -4.8129   -0.2566    0.0574 H   0  0  0  0  0  0  0  0  0  0  0  0
   -4.0380    0.8413   -0.7719 H   0  0  0  0  0  0  0  0  0  0  0  0
   -3.8773    1.0129    0.9858 H   0  0  0  0  0  0  0  0  0  0  0  0
   -1.3970    0.1536   -0.0635 C   0  0  0  0  0  0  0  0  0  0  0  0
   -2.7805   -1.2922   -0.8535 H   0  0  0  0  0  0  0  0  0  0  0  0
   -2.6340   -1.2873    0.8821 H   0  0  0  0  0  0  0  0  0  0  0  0
   -0.1888   -0.6670    0.0711 C   0  0  0  0  0  0  0  0  0  0  0  0
   -1.3502    0.8128    0.7819 H   0  0  0  0  0  0  0  0  0  0  0  0
   -1.3295    0.8568   -1.0402 H   0  0  0  0  0  0  0  0  0  0  0  0
   -0.3498   -1.2322    0.9474 H   0  0  0  0  0  0  0  0  0  0  0  0
    0.7397   -0.1232    0.3489 H   0  0  0  0  0  0  0  0  0  0  0  0
    0.0427   -1.3832   -0.8321 H   0  0  0  0  0  0  0  0  0  0  0  0
  1  5  1  0  0  0  0
  2  1  1  0  0  0  0
  2  8  1  0  0  0  0
  3  1  1  0  0  0  0
  4  1  1  0  0  0  0
  6  2  1  0  0  0  0
  6  9  1  0  0  0  0
  6 10  1  0  0  0  0
  7  2  1  0  0  0  0
  9 13  1  0  0  0  0
  9 12  1  0  0  0  0
 11  6  1  0  0  0  0
 14  9  1  0  0  0  0
M  END
$$$$
