14
butane_opt
C  -3.958796   0.288774   0.010841
C  -2.687925  -0.636139   0.015223
H  -4.870963  -0.319096   0.244363
H  -4.063996   1.012497  -1.010809
H  -3.861047   0.778908   0.794397
C  -1.413516   0.163845   0.038161
H  -2.621939  -1.292245  -0.786935
H  -2.693696  -1.315955   0.953582
C  -0.169663  -0.682858   0.011377
H  -1.338807   0.936618   0.953461
H  -1.341336   0.756910  -0.808783
H  -0.108073  -1.268400   0.899075
H   0.791710  -0.040942   0.074757
H  -0.167524  -1.306596  -0.789174
