butane_opt
 OpenBabel08242015383D

 14 13  0  0  0  0  0  0  0  0999 V2000
   -3.9148    0.2556    0.0577 C   0  0  0  0  0  0  0  0  0  0  0  0
   -2.7094   -0.6037    0.0222 C   0  0  0  0  0  0  0  0  0  0  0  0
   -4.9119   -0.4367    0.0476 H   0  0  0  0  0  0  0  0  0  0  0  0
   -3.8920    0.8664   -0.8476 H   0  0  0  0  0  0  0  0  0  0  0  0
   -3.9412    0.9146    0.9013 H   0  0  0  0  0  0  0  0  0  0  0  0
   -1.4085    0.2228   -0.0372 C   0  0  0  0  0  0  0  0  0  0  0  0
   -2.7749   -1.3662   -0.9305 H   0  0  0  0  0  0  0  0  0  0  0  0
   -2.7097   -1.1839    0.9066 H   0  0  0  0  0  0  0  0  0  0  0  0
   -0.1731   -0.7108    0.0758 C   0  0  0  0  0  0  0  0  0  0  0  0
   -1.4481    0.8551    0.7552 H   0  0  0  0  0  0  0  0  0  0  0  0
   -1.3914    0.8684   -0.9764 H   0  0  0  0  0  0  0  0  0  0  0  0
   -0.1626   -1.2923    0.9341 H   0  0  0  0  0  0  0  0  0  0  0  0
    0.7104   -0.2005    0.0824 H   0  0  0  0  0  0  0  0  0  0  0  0
   -0.0206   -1.4763   -0.8613 H   0  0  0  0  0  0  0  0  0  0  0  0
  1  5  1  0  0  0  0
  2  1  1  0  0  0  0
  2  8  1  0  0  0  0
  3  1  1  0  0  0  0
  4  1  1  0  0  0  0
  6  2  1  0  0  0  0
  6  9  1  0  0  0  0
  6 10  1  0  0  0  0
  7  2  1  0  0  0  0
  9 13  1  0  0  0  0
  9 12  1  0  0  0  0
 11  6  1  0  0  0  0
 14  9  1  0  0  0  0
M  END
$$$$
