butane_opt
 OpenBabel08242015383D

 14 13  0  0  0  0  0  0  0  0999 V2000
   -3.9461    0.2696   -0.0026 C   0  0  0  0  0  0  0  0  0  0  0  0
   -2.7067   -0.6369    0.0808 C   0  0  0  0  0  0  0  0  0  0  0  0
   -4.7966   -0.2550   -0.2028 H   0  0  0  0  0  0  0  0  0  0  0  0
   -3.9362    0.8056   -0.8546 H   0  0  0  0  0  0  0  0  0  0  0  0
   -4.1596    1.1137    0.9342 H   0  0  0  0  0  0  0  0  0  0  0  0
   -1.3870    0.1747    0.0198 C   0  0  0  0  0  0  0  0  0  0  0  0
   -2.6333   -1.2527   -0.6716 H   0  0  0  0  0  0  0  0  0  0  0  0
   -2.7791   -1.3312    1.0162 H   0  0  0  0  0  0  0  0  0  0  0  0
   -0.1722   -0.6918   -0.0032 C   0  0  0  0  0  0  0  0  0  0  0  0
   -1.3025    0.9069    0.9035 H   0  0  0  0  0  0  0  0  0  0  0  0
   -1.4135    0.8187   -0.8831 H   0  0  0  0  0  0  0  0  0  0  0  0
   -0.1166   -1.3214    0.9089 H   0  0  0  0  0  0  0  0  0  0  0  0
    0.8002   -0.0209    0.0671 H   0  0  0  0  0  0  0  0  0  0  0  0
   -0.1481   -1.3212   -0.8882 H   0  0  0  0  0  0  0  0  0  0  0  0
  1  2  1  0  0  0  0
  1  5  1  0  0  0  0
  2  8  1  0  0  0  0
  3  1  1  0  0  0  0
  4  1  1  0  0  0  0
  6  2  1  0  0  0  0
  6 10  1  0  0  0  0
  7  2  1  0  0  0  0
  9  6  1  0  0  0  0
  9 13  1  0  0  0  0
  9 12  1  0  0  0  0
 11  6  1  0  0  0  0
 14  9  1  0  0  0  0
M  END
$$$$
