14
butane_opt
C  -3.907711   0.259522  -0.023007
C  -2.713084  -0.613582   0.064205
H  -4.901426  -0.365624   0.168727
H  -4.026109   1.104755  -1.062402
H  -3.869259   0.703411   0.710649
C  -1.409710   0.205354   0.067563
H  -2.769328  -1.276232  -0.778171
H  -2.765220  -1.263551   1.007657
C  -0.160784  -0.711500   0.006371
H  -1.399136   0.938034   0.961642
H  -1.464485   0.829409  -0.795169
H  -0.044836  -1.179026   0.778854
H   0.732585  -0.132775  -0.007469
H  -0.211479  -1.516503  -0.971711
