14
butane_opt
C  -3.967508   0.286107   0.054681
C  -2.695989  -0.640434   0.015243
H  -4.882402  -0.305700   0.084694
H  -4.043775   0.797424  -0.765152
H  -3.907777   1.001735   0.912604
C  -1.394222   0.163755  -0.055539
H  -2.650838  -1.296739  -0.826183
H  -2.672495  -1.250580   0.892949
C  -0.152482  -0.670355   0.075224
H  -1.414415   0.821838   0.733824
H  -1.388508   0.809186  -0.975844
H  -0.287343  -1.190722   0.933537
H   0.751161  -0.084244   0.208618
H  -0.014809  -1.450607  -0.834497
