butane_opt
 OpenBabel08242015383D

 14 13  0  0  0  0  0  0  0  0999 V2000
   -3.9360    0.2486    0.0236 C   0  0  0  0  0  0  0  0  0  0  0  0
   -2.7104   -0.6014    0.0427 C   0  0  0  0  0  0  0  0  0  0  0  0
   -4.8491   -0.3524    0.0779 H   0  0  0  0  0  0  0  0  0  0  0  0
   -3.9603    0.8634   -0.8732 H   0  0  0  0  0  0  0  0  0  0  0  0
   -3.8513    0.9492    0.9173 H   0  0  0  0  0  0  0  0  0  0  0  0
   -1.4147    0.1950   -0.0120 C   0  0  0  0  0  0  0  0  0  0  0  0
   -2.7635   -1.2662   -0.8288 H   0  0  0  0  0  0  0  0  0  0  0  0
   -2.7358   -1.2288    0.9307 H   0  0  0  0  0  0  0  0  0  0  0  0
   -0.1453   -0.7071    0.0500 C   0  0  0  0  0  0  0  0  0  0  0  0
   -1.4565    0.7926    0.8047 H   0  0  0  0  0  0  0  0  0  0  0  0
   -1.4449    0.9562   -0.9921 H   0  0  0  0  0  0  0  0  0  0  0  0
   -0.1697   -1.1911    0.8760 H   0  0  0  0  0  0  0  0  0  0  0  0
    0.7559   -0.1164    0.2357 H   0  0  0  0  0  0  0  0  0  0  0  0
   -0.0765   -1.5105   -0.9680 H   0  0  0  0  0  0  0  0  0  0  0  0
  1  2  1  0  0  0  0
  1  3  1  0  0  0  0
  1  5  1  0  0  0  0
  2  8  1  0  0  0  0
  4  1  1  0  0  0  0
  6  2  1  0  0  0  0
  6  9  1  0  0  0  0
  6 10  1  0  0  0  0
  7  2  1  0  0  0  0
  9 13  1  0  0  0  0
  9 12  1  0  0  0  0
 11  6  1  0  0  0  0
 14  9  1  0  0  0  0
M  END
$$$$
