14
butane_opt
C  -3.935992   0.248595   0.023623
C  -2.710391  -0.601419   0.042739
H  -4.849079  -0.352353   0.077930
H  -3.960294   0.863375  -0.873216
H  -3.851259   0.949181   0.917275
C  -1.414737   0.195043  -0.012017
H  -2.763485  -1.266157  -0.828846
H  -2.735823  -1.228818   0.930727
C  -0.145326  -0.707060   0.050000
H  -1.456471   0.792596   0.804681
H  -1.444851   0.956192  -0.992137
H  -0.169717  -1.191061   0.875983
H   0.755874  -0.116354   0.235683
H  -0.076525  -1.510529  -0.967988
