butane_opt
 OpenBabel08242015383D

 14 13  0  0  0  0  0  0  0  0999 V2000
   -3.9484    0.2748   -0.0024 C   0  0  0  0  0  0  0  0  0  0  0  0
   -2.6916   -0.6436    0.0459 C   0  0  0  0  0  0  0  0  0  0  0  0
   -4.8438   -0.2692   -0.0037 H   0  0  0  0  0  0  0  0  0  0  0  0
   -4.0591    0.8983   -0.9367 H   0  0  0  0  0  0  0  0  0  0  0  0
   -4.0371    0.9466    0.8597 H   0  0  0  0  0  0  0  0  0  0  0  0
   -1.3921    0.1911    0.0444 C   0  0  0  0  0  0  0  0  0  0  0  0
   -2.6871   -1.3431   -0.7938 H   0  0  0  0  0  0  0  0  0  0  0  0
   -2.7603   -1.3287    0.9950 H   0  0  0  0  0  0  0  0  0  0  0  0
   -0.1582   -0.6864    0.0050 C   0  0  0  0  0  0  0  0  0  0  0  0
   -1.3465    0.9393    0.9376 H   0  0  0  0  0  0  0  0  0  0  0  0
   -1.5111    0.7890   -0.7730 H   0  0  0  0  0  0  0  0  0  0  0  0
   -0.1262   -1.3983    0.9838 H   0  0  0  0  0  0  0  0  0  0  0  0
    0.7796   -0.0435   -0.1395 H   0  0  0  0  0  0  0  0  0  0  0  0
   -0.1523   -1.2827   -0.7986 H   0  0  0  0  0  0  0  0  0  0  0  0
  1  2  1  0  0  0  0
  1  5  1  0  0  0  0
  2  8  1  0  0  0  0
  3  1  1  0  0  0  0
  4  1  1  0  0  0  0
  6  2  1  0  0  0  0
  6 10  1  0  0  0  0
  7  2  1  0  0  0  0
  9  6  1  0  0  0  0
  9 12  1  0  0  0  0
 11  6  1  0  0  0  0
 13  9  1  0  0  0  0
 14  9  1  0  0  0  0
M  END
$$$$
