14
butane_opt
C  -3.914814   0.255592   0.057735
C  -2.709367  -0.603747   0.022151
H  -4.911887  -0.436676   0.047566
H  -3.892004   0.866408  -0.847598
H  -3.941190   0.914559   0.901275
C  -1.408548   0.222775  -0.037215
H  -2.774856  -1.366250  -0.930504
H  -2.709656  -1.183948   0.906643
C  -0.173137  -0.710814   0.075809
H  -1.448067   0.855112   0.755220
H  -1.391361   0.868448  -0.976398
H  -0.162615  -1.292327   0.934065
H   0.710390  -0.200471   0.082439
H  -0.020560  -1.476332  -0.861310
