butane_opt
 OpenBabel08242015383D

 14 13  0  0  0  0  0  0  0  0999 V2000
   -3.9463    0.2422    0.0593 C   0  0  0  0  0  0  0  0  0  0  0  0
   -2.7100   -0.5805   -0.0357 C   0  0  0  0  0  0  0  0  0  0  0  0
   -4.8928   -0.4078    0.3421 H   0  0  0  0  0  0  0  0  0  0  0  0
   -4.1426    0.9233   -0.9134 H   0  0  0  0  0  0  0  0  0  0  0  0
   -3.8834    0.8312    0.8978 H   0  0  0  0  0  0  0  0  0  0  0  0
   -1.4192    0.2086   -0.0230 C   0  0  0  0  0  0  0  0  0  0  0  0
   -2.8272   -1.3147   -0.9663 H   0  0  0  0  0  0  0  0  0  0  0  0
   -2.6877   -1.2047    0.8531 H   0  0  0  0  0  0  0  0  0  0  0  0
   -0.1255   -0.7158    0.0682 C   0  0  0  0  0  0  0  0  0  0  0  0
   -1.3620    0.9026    0.8656 H   0  0  0  0  0  0  0  0  0  0  0  0
   -1.3920    0.8168   -0.8878 H   0  0  0  0  0  0  0  0  0  0  0  0
   -0.1798   -1.4329    1.0517 H   0  0  0  0  0  0  0  0  0  0  0  0
    0.7788   -0.1352    0.0952 H   0  0  0  0  0  0  0  0  0  0  0  0
   -0.0005   -1.3051   -0.7174 H   0  0  0  0  0  0  0  0  0  0  0  0
  1  3  1  0  0  0  0
  1  5  1  0  0  0  0
  2  6  1  0  0  0  0
  2  1  1  0  0  0  0
  2  8  1  0  0  0  0
  4  1  1  0  0  0  0
  6  9  1  0  0  0  0
  6 10  1  0  0  0  0
  7  2  1  0  0  0  0
  9 13  1  0  0  0  0
  9 12  1  0  0  0  0
 11  6  1  0  0  0  0
 14  9  1  0  0  0  0
M  END
$$$$
