14
butane_opt
C  -3.937251   0.260346   0.040874
C  -2.703064  -0.629978   0.036885
H  -4.766550  -0.266184  -0.197784
H  -3.865569   0.673712  -0.733607
H  -4.079233   1.206507   1.014662
C  -1.414810   0.180598  -0.017779
H  -2.735254  -1.364575  -0.841864
H  -2.606714  -1.234912   0.905319
C  -0.163745  -0.687096   0.043600
H  -1.368491   0.800043   0.805540
H  -1.439281   0.922824  -1.011977
H  -0.189299  -1.403308   1.044642
H   0.739471  -0.070934  -0.017977
H  -0.096019  -1.220439  -0.733183
