butane_opt
 OpenBabel08242015383D

 14 13  0  0  0  0  0  0  0  0999 V2000
   -3.9708    0.2747    0.0014 C   0  0  0  0  0  0  0  0  0  0  0  0
   -2.6934   -0.6356    0.0435 C   0  0  0  0  0  0  0  0  0  0  0  0
   -4.8365   -0.2617   -0.0142 H   0  0  0  0  0  0  0  0  0  0  0  0
   -3.9656    0.8871   -0.8666 H   0  0  0  0  0  0  0  0  0  0  0  0
   -4.0650    0.9565    0.8172 H   0  0  0  0  0  0  0  0  0  0  0  0
   -1.4037    0.1642    0.0381 C   0  0  0  0  0  0  0  0  0  0  0  0
   -2.7374   -1.2805   -0.7946 H   0  0  0  0  0  0  0  0  0  0  0  0
   -2.6421   -1.2973    0.9649 H   0  0  0  0  0  0  0  0  0  0  0  0
   -0.1353   -0.6846    0.0084 C   0  0  0  0  0  0  0  0  0  0  0  0
   -1.3306    0.9576    0.9935 H   0  0  0  0  0  0  0  0  0  0  0  0
   -1.3687    0.8004   -0.8068 H   0  0  0  0  0  0  0  0  0  0  0  0
   -0.1943   -1.3723    0.9821 H   0  0  0  0  0  0  0  0  0  0  0  0
    0.7982   -0.0579   -0.1637 H   0  0  0  0  0  0  0  0  0  0  0  0
   -0.2387   -1.2318   -0.7720 H   0  0  0  0  0  0  0  0  0  0  0  0
  1  2  1  0  0  0  0
  1  5  1  0  0  0  0
  2  8  1  0  0  0  0
  3  1  1  0  0  0  0
  4  1  1  0  0  0  0
  6  2  1  0  0  0  0
  6 10  1  0  0  0  0
  7  2  1  0  0  0  0
  9  6  1  0  0  0  0
  9 12  1  0  0  0  0
 11  6  1  0  0  0  0
 13  9  1  0  0  0  0
 14  9  1  0  0  0  0
M  END
$$$$
