butane_opt
 OpenBabel08242015383D

 14 13  0  0  0  0  0  0  0  0999 V2000
   -3.9454    0.2574    0.0644 C   0  0  0  0  0  0  0  0  0  0  0  0
   -2.7022   -0.5835   -0.0193 C   0  0  0  0  0  0  0  0  0  0  0  0
   -4.8697   -0.3856    0.0122 H   0  0  0  0  0  0  0  0  0  0  0  0
   -3.8732    0.6685   -0.7594 H   0  0  0  0  0  0  0  0  0  0  0  0
   -3.8872    0.9704    0.9646 H   0  0  0  0  0  0  0  0  0  0  0  0
   -1.4125    0.1936   -0.0120 C   0  0  0  0  0  0  0  0  0  0  0  0
   -2.7636   -1.3456   -0.9409 H   0  0  0  0  0  0  0  0  0  0  0  0
   -2.7317   -1.0991    0.7808 H   0  0  0  0  0  0  0  0  0  0  0  0
   -0.1591   -0.7089    0.0644 C   0  0  0  0  0  0  0  0  0  0  0  0
   -1.4432    0.8228    0.7943 H   0  0  0  0  0  0  0  0  0  0  0  0
   -1.3527    0.8701   -0.8919 H   0  0  0  0  0  0  0  0  0  0  0  0
   -0.0467   -1.6281    1.1465 H   0  0  0  0  0  0  0  0  0  0  0  0
    0.7213   -0.1231   -0.1935 H   0  0  0  0  0  0  0  0  0  0  0  0
   -0.1522   -1.1248   -0.5988 H   0  0  0  0  0  0  0  0  0  0  0  0
  1  5  1  0  0  0  0
  2  6  1  0  0  0  0
  2  1  1  0  0  0  0
  2  8  1  0  0  0  0
  3  1  1  0  0  0  0
  4  1  1  0  0  0  0
  6  9  1  0  0  0  0
  6 10  1  0  0  0  0
  7  2  1  0  0  0  0
  9 12  1  0  0  0  0
 11  6  1  0  0  0  0
 13  9  1  0  0  0  0
 14  9  1  0  0  0  0
M  END
$$$$
