butane_opt
 OpenBabel08242015383D

 14 13  0  0  0  0  0  0  0  0999 V2000
   -3.9077    0.2595   -0.0230 C   0  0  0  0  0  0  0  0  0  0  0  0
   -2.7131   -0.6136    0.0642 C   0  0  0  0  0  0  0  0  0  0  0  0
   -4.9014   -0.3656    0.1687 H   0  0  0  0  0  0  0  0  0  0  0  0
   -4.0261    1.1048   -1.0624 H   0  0  0  0  0  0  0  0  0  0  0  0
   -3.8693    0.7034    0.7106 H   0  0  0  0  0  0  0  0  0  0  0  0
   -1.4097    0.2054    0.0676 C   0  0  0  0  0  0  0  0  0  0  0  0
   -2.7693   -1.2762   -0.7782 H   0  0  0  0  0  0  0  0  0  0  0  0
   -2.7652   -1.2636    1.0077 H   0  0  0  0  0  0  0  0  0  0  0  0
   -0.1608   -0.7115    0.0064 C   0  0  0  0  0  0  0  0  0  0  0  0
   -1.3991    0.9380    0.9616 H   0  0  0  0  0  0  0  0  0  0  0  0
   -1.4645    0.8294   -0.7952 H   0  0  0  0  0  0  0  0  0  0  0  0
   -0.0448   -1.1790    0.7789 H   0  0  0  0  0  0  0  0  0  0  0  0
    0.7326   -0.1328   -0.0075 H   0  0  0  0  0  0  0  0  0  0  0  0
   -0.2115   -1.5165   -0.9717 H   0  0  0  0  0  0  0  0  0  0  0  0
  1  2  1  0  0  0  0
  1  3  1  0  0  0  0
  1  5  1  0  0  0  0
  2  6  1  0  0  0  0
  2  8  1  0  0  0  0
  4  1  1  0  0  0  0
  6 10  1  0  0  0  0
  7  2  1  0  0  0  0
  9  6  1  0  0  0  0
  9 12  1  0  0  0  0
 11  6  1  0  0  0  0
 13  9  1  0  0  0  0
 14  9  1  0  0  0  0
M  END
$$$$
