14
butane_opt
C  -3.944122   0.252521  -0.000634
C  -2.696010  -0.605995   0.064797
H  -4.908342  -0.363421  -0.075355
H  -3.936575   0.837961  -0.875221
H  -4.046747   0.974895   0.887142
C  -1.406430   0.200759   0.023257
H  -2.734278  -1.243021  -0.760602
H  -2.745779  -1.289154   0.995245
C  -0.154451  -0.701063   0.010716
H  -1.328958   0.898836   0.918102
H  -1.423997   0.811162  -0.859725
H  -0.128096  -1.328203   0.911630
H   0.721361  -0.147103  -0.018194
H  -0.068298  -1.390830  -0.860859
