14
butane_opt
C  -3.925941   0.252354   0.075170
C  -2.722916  -0.584607  -0.026093
H  -4.965087  -0.478833   0.044559
H  -3.871470   0.831918  -0.821493
H  -3.949262   1.005220   0.966352
C  -1.410571   0.203225  -0.021623
H  -2.793283  -1.378288  -0.974750
H  -2.628508  -1.164887   0.752396
C  -0.153100  -0.723629   0.083490
H  -1.384810   0.862485   0.813755
H  -1.388042   0.885804  -0.942573
H  -0.044990  -1.512887   1.141118
H   0.729346  -0.140338  -0.185427
H  -0.160053  -1.163291  -0.653175
