14
butane_opt
C  -3.955300   0.252595   0.028052
C  -2.703292  -0.605946   0.020055
H  -4.852308  -0.341024   0.008788
H  -4.001697   0.769769  -0.801949
H  -3.925974   1.019713   0.928911
C  -1.390356   0.215344   0.019015
H  -2.740224  -1.410239  -0.936488
H  -2.800170  -1.149469   0.853946
C  -0.164993  -0.708986   0.045596
H  -1.409861   0.847301   0.827246
H  -1.309311   0.869280  -0.951673
H   0.072853  -1.541685   1.060150
H   0.709652  -0.167448  -0.193538
H  -0.199060  -1.197078  -0.670293
