14
butane_opt
C  -3.953325   0.277687  -0.000859
C  -2.700773  -0.627481   0.052023
H  -4.854457  -0.314705  -0.025187
H  -3.949997   0.815484  -0.826487
H  -4.000613   1.017801   0.923042
C  -1.399747   0.177259   0.014857
H  -2.681914  -1.285890  -0.764458
H  -2.741589  -1.308283   0.971172
C  -0.158202  -0.686410   0.026368
H  -1.358868   0.833151   0.868550
H  -1.451662   0.798364  -0.854291
H  -0.114761  -1.302578   0.920984
H   0.820901  -0.057047  -0.029675
H  -0.160123  -1.346634  -0.839346
