butane_opt
 OpenBabel08242015383D

 14 13  0  0  0  0  0  0  0  0999 V2000
   -3.9367    0.2510   -0.0151 C   0  0  0  0  0  0  0  0  0  0  0  0
   -2.7107   -0.5952    0.0785 C   0  0  0  0  0  0  0  0  0  0  0  0
   -4.8391   -0.3423   -0.0620 H   0  0  0  0  0  0  0  0  0  0  0  0
   -3.8907    0.8396   -0.9015 H   0  0  0  0  0  0  0  0  0  0  0  0
   -3.9852    0.9350    0.8821 H   0  0  0  0  0  0  0  0  0  0  0  0
   -1.4170    0.1944    0.0390 C   0  0  0  0  0  0  0  0  0  0  0  0
   -2.6901   -1.2787   -0.7537 H   0  0  0  0  0  0  0  0  0  0  0  0
   -2.7256   -1.2633    0.9814 H   0  0  0  0  0  0  0  0  0  0  0  0
   -0.1497   -0.7035    0.0083 C   0  0  0  0  0  0  0  0  0  0  0  0
   -1.4382    0.8580    0.8767 H   0  0  0  0  0  0  0  0  0  0  0  0
   -1.4133    0.8024   -0.8490 H   0  0  0  0  0  0  0  0  0  0  0  0
   -0.0442   -1.2694    0.8601 H   0  0  0  0  0  0  0  0  0  0  0  0
    0.7557   -0.1212   -0.0590 H   0  0  0  0  0  0  0  0  0  0  0  0
   -0.1848   -1.3855   -0.8685 H   0  0  0  0  0  0  0  0  0  0  0  0
  1  2  1  0  0  0  0
  1  5  1  0  0  0  0
  2  8  1  0  0  0  0
  3  1  1  0  0  0  0
  4  1  1  0  0  0  0
  6  2  1  0  0  0  0
  6 10  1  0  0  0  0
  7  2  1  0  0  0  0
  9  6  1  0  0  0  0
  9 12  1  0  0  0  0
 11  6  1  0  0  0  0
 13  9  1  0  0  0  0
 14  9  1  0  0  0  0
M  END
$$$$
