14
butane_opt
C  -3.946213   0.287344  -0.028344
C  -2.668580  -0.640197   0.070497
H  -4.867428  -0.310262  -0.096395
H  -3.970995   0.815978  -0.883593
H  -3.923174   1.050317   0.867803
C  -1.410401   0.150151   0.061665
H  -2.647446  -1.273119  -0.725189
H  -2.722288  -1.314151   1.021572
C  -0.189928  -0.676347  -0.005683
H  -1.335039   0.901444   0.995177
H  -1.440020   0.790906  -0.847210
H  -0.078690  -1.341320   0.954940
H   0.792014  -0.010382  -0.188097
H  -0.269240  -1.224318  -0.826282
