14
butane_opt
C  -3.930557   0.254166   0.058242
C  -2.689685  -0.587795  -0.026534
H  -4.926874  -0.413718   0.279615
H  -4.132640   0.964550  -0.879475
H  -3.806652   0.854099   0.888476
C  -1.412664   0.188305  -0.032289
H  -2.723206  -1.390133  -0.947412
H  -2.633870  -1.217768   0.848480
C  -0.168842  -0.704863   0.076179
H  -1.397218   0.886778   0.841173
H  -1.428588   0.802685  -0.866326
H  -0.255257  -1.354890   1.069356
H   0.774001  -0.081506   0.036109
H  -0.055348  -1.321934  -0.748830
