butane_opt
 OpenBabel08242015383D

 14 13  0  0  0  0  0  0  0  0999 V2000
   -3.9269    0.2896   -0.0369 C   0  0  0  0  0  0  0  0  0  0  0  0
   -2.6842   -0.6503    0.0773 C   0  0  0  0  0  0  0  0  0  0  0  0
   -4.9098   -0.3106    0.0366 H   0  0  0  0  0  0  0  0  0  0  0  0
   -3.9071    0.9658   -0.9855 H   0  0  0  0  0  0  0  0  0  0  0  0
   -4.0502    0.9240    0.7908 H   0  0  0  0  0  0  0  0  0  0  0  0
   -1.4019    0.1736    0.0928 C   0  0  0  0  0  0  0  0  0  0  0  0
   -2.6587   -1.3382   -0.7989 H   0  0  0  0  0  0  0  0  0  0  0  0
   -2.6855   -1.2872    1.0017 H   0  0  0  0  0  0  0  0  0  0  0  0
   -0.1909   -0.6715   -0.0105 C   0  0  0  0  0  0  0  0  0  0  0  0
   -1.3241    0.8509    0.9357 H   0  0  0  0  0  0  0  0  0  0  0  0
   -1.3913    0.7712   -0.8079 H   0  0  0  0  0  0  0  0  0  0  0  0
   -0.0156   -1.3177    0.9095 H   0  0  0  0  0  0  0  0  0  0  0  0
    0.7201   -0.0798   -0.2293 H   0  0  0  0  0  0  0  0  0  0  0  0
   -0.3541   -1.3461   -0.8839 H   0  0  0  0  0  0  0  0  0  0  0  0
  1  3  1  0  0  0  0
  1  2  1  0  0  0  0
  1  5  1  0  0  0  0
  2  6  1  0  0  0  0
  2  8  1  0  0  0  0
  4  1  1  0  0  0  0
  6 10  1  0  0  0  0
  7  2  1  0  0  0  0
  9  6  1  0  0  0  0
  9 12  1  0  0  0  0
 11  6  1  0  0  0  0
 13  9  1  0  0  0  0
 14  9  1  0  0  0  0
M  END
$$$$
