14
butane_opt
C  -3.905119   0.255298   0.059500
C  -2.709623  -0.610530   0.008370
H  -4.846213  -0.392147  -0.171015
H  -3.864342   0.664047  -0.677288
H  -3.967830   1.165735   1.078837
C  -1.418548   0.200792  -0.043882
H  -2.765065  -1.287546  -0.859060
H  -2.712970  -1.213985   0.897211
C  -0.175544  -0.708157   0.053169
H  -1.467377   0.886027   0.799839
H  -1.454448   0.883955  -1.009799
H  -0.161490  -1.510276   1.100994
H   0.785576  -0.099246   0.035862
H  -0.069482  -1.219891  -0.637255
