14
butane_opt
C  -3.936348   0.267081   0.055980
C  -2.690849  -0.611972   0.006005
H  -4.884933  -0.390598   0.046307
H  -3.985533   0.862767  -0.828445
H  -3.913020   0.934428   0.911941
C  -1.415543   0.178089  -0.030952
H  -2.753330  -1.290459  -0.842889
H  -2.666132  -1.224008   0.892898
C  -0.162641  -0.694742   0.073227
H  -1.428432   0.825441   0.778768
H  -1.386230   0.912454  -0.982857
H  -0.194878  -1.253925   0.915109
H   0.768777  -0.077877   0.140988
H  -0.113020  -1.441898  -0.851403
