14
butane_opt
C  -3.945421   0.257392   0.064387
C  -2.702211  -0.583455  -0.019301
H  -4.869697  -0.385567   0.012222
H  -3.873174   0.668498  -0.759352
H  -3.887188   0.970392   0.964576
C  -1.412539   0.193622  -0.012015
H  -2.763626  -1.345554  -0.940894
H  -2.731721  -1.099053   0.780764
C  -0.159101  -0.708860   0.064407
H  -1.443159   0.822801   0.794276
H  -1.352695   0.870051  -0.891912
H  -0.046683  -1.628099   1.146523
H   0.721294  -0.123059  -0.193539
H  -0.152244  -1.124756  -0.598804
