14
butane_opt
C  -3.943932   0.253595   0.024002
C  -2.720395  -0.590698   0.033751
H  -4.851219  -0.358339  -0.106748
H  -3.912649   0.694157  -0.770169
H  -4.010593   1.032103   1.006888
C  -1.401441   0.208402  -0.005821
H  -2.789359  -1.364800  -0.839501
H  -2.678081  -1.227732   0.901183
C  -0.134727  -0.719331   0.034331
H  -1.380684   0.905128   0.859079
H  -1.444714   0.857957  -0.912973
H  -0.128030  -1.510584   1.072258
H   0.782894  -0.111475  -0.062563
H  -0.195079  -1.208942  -0.708179
