butane_opt
 OpenBabel08242015383D

 14 13  0  0  0  0  0  0  0  0999 V2000
   -3.9644    0.2735   -0.0331 C   0  0  0  0  0  0  0  0  0  0  0  0
   -2.6910   -0.6469    0.1151 C   0  0  0  0  0  0  0  0  0  0  0  0
   -4.8361   -0.2904   -0.2665 H   0  0  0  0  0  0  0  0  0  0  0  0
   -3.9132    0.8797   -0.9181 H   0  0  0  0  0  0  0  0  0  0  0  0
   -4.1473    1.0577    0.8455 H   0  0  0  0  0  0  0  0  0  0  0  0
   -1.3997    0.1730    0.0510 C   0  0  0  0  0  0  0  0  0  0  0  0
   -2.6550   -1.2536   -0.6748 H   0  0  0  0  0  0  0  0  0  0  0  0
   -2.6825   -1.2993    1.0676 H   0  0  0  0  0  0  0  0  0  0  0  0
   -0.1563   -0.6648   -0.0191 C   0  0  0  0  0  0  0  0  0  0  0  0
   -1.2389    0.8833    0.9292 H   0  0  0  0  0  0  0  0  0  0  0  0
   -1.4373    0.7005   -0.7578 H   0  0  0  0  0  0  0  0  0  0  0  0
   -0.0541   -1.2849    0.8400 H   0  0  0  0  0  0  0  0  0  0  0  0
    0.7123   -0.1409   -0.1004 H   0  0  0  0  0  0  0  0  0  0  0  0
   -0.2262   -1.3458   -0.8890 H   0  0  0  0  0  0  0  0  0  0  0  0
  1  2  1  0  0  0  0
  1  5  1  0  0  0  0
  2  8  1  0  0  0  0
  3  1  1  0  0  0  0
  4  1  1  0  0  0  0
  6  2  1  0  0  0  0
  6 10  1  0  0  0  0
  7  2  1  0  0  0  0
  9  6  1  0  0  0  0
  9 12  1  0  0  0  0
 11  6  1  0  0  0  0
 13  9  1  0  0  0  0
 14  9  1  0  0  0  0
M  END
$$$$
