14
butane_opt
C  -3.932657   0.247699   0.043378
C  -2.689683  -0.599029   0.021726
H  -4.839038  -0.343869   0.033498
H  -4.021006   0.736636  -0.755198
H  -3.846778   0.919708   0.974524
C  -1.420926   0.225532  -0.044709
H  -2.814031  -1.345616  -0.873521
H  -2.709114  -1.212114   0.926847
C  -0.163862  -0.719533   0.070782
H  -1.448816   0.789740   0.759762
H  -1.411552   0.983658  -1.028955
H  -0.193403  -1.239405   0.914654
H   0.744028  -0.139017   0.230031
H   0.001122  -1.480976  -0.846137
