butane_opt
 OpenBabel08242015383D

 14 13  0  0  0  0  0  0  0  0999 V2000
   -3.9280    0.2769   -0.0267 C   0  0  0  0  0  0  0  0  0  0  0  0
   -2.6986   -0.6210    0.0630 C   0  0  0  0  0  0  0  0  0  0  0  0
   -4.8119   -0.2590    0.3305 H   0  0  0  0  0  0  0  0  0  0  0  0
   -3.9734    1.1395   -1.1123 H   0  0  0  0  0  0  0  0  0  0  0  0
   -3.9488    0.6693    0.6472 H   0  0  0  0  0  0  0  0  0  0  0  0
   -1.3941    0.1640    0.0814 C   0  0  0  0  0  0  0  0  0  0  0  0
   -2.7586   -1.3416   -0.7733 H   0  0  0  0  0  0  0  0  0  0  0  0
   -2.6955   -1.2505    0.9411 H   0  0  0  0  0  0  0  0  0  0  0  0
   -0.1840   -0.6805   -0.0170 C   0  0  0  0  0  0  0  0  0  0  0  0
   -1.3957    0.8923    0.9642 H   0  0  0  0  0  0  0  0  0  0  0  0
   -1.4591    0.7051   -0.7483 H   0  0  0  0  0  0  0  0  0  0  0  0
   -0.1194   -1.1775    0.8232 H   0  0  0  0  0  0  0  0  0  0  0  0
    0.7392   -0.0707    0.0395 H   0  0  0  0  0  0  0  0  0  0  0  0
   -0.1642   -1.4271   -0.9139 H   0  0  0  0  0  0  0  0  0  0  0  0
  1  2  1  0  0  0  0
  1  3  1  0  0  0  0
  1  5  1  0  0  0  0
  2  6  1  0  0  0  0
  2  8  1  0  0  0  0
  4  1  1  0  0  0  0
  6 10  1  0  0  0  0
  7  2  1  0  0  0  0
  9 13  1  0  0  0  0
  9  6  1  0  0  0  0
  9 12  1  0  0  0  0
 11  6  1  0  0  0  0
 14  9  1  0  0  0  0
M  END
$$$$
