butane_opt
 OpenBabel08242015383D

 14 13  0  0  0  0  0  0  0  0999 V2000
   -3.9031    0.2522    0.0700 C   0  0  0  0  0  0  0  0  0  0  0  0
   -2.7122   -0.5975   -0.0241 C   0  0  0  0  0  0  0  0  0  0  0  0
   -4.8224   -0.3760   -0.0448 H   0  0  0  0  0  0  0  0  0  0  0  0
   -3.8923    0.7329   -0.7565 H   0  0  0  0  0  0  0  0  0  0  0  0
   -4.0312    1.0142    0.9836 H   0  0  0  0  0  0  0  0  0  0  0  0
   -1.4238    0.2081   -0.0303 C   0  0  0  0  0  0  0  0  0  0  0  0
   -2.8140   -1.3314   -0.8623 H   0  0  0  0  0  0  0  0  0  0  0  0
   -2.6700   -1.2092    0.8409 H   0  0  0  0  0  0  0  0  0  0  0  0
   -0.1645   -0.7224    0.0778 C   0  0  0  0  0  0  0  0  0  0  0  0
   -1.3814    0.9534    0.8747 H   0  0  0  0  0  0  0  0  0  0  0  0
   -1.3818    0.8673   -0.9634 H   0  0  0  0  0  0  0  0  0  0  0  0
   -0.1256   -1.5387    1.0646 H   0  0  0  0  0  0  0  0  0  0  0  0
    0.7456   -0.1263   -0.1532 H   0  0  0  0  0  0  0  0  0  0  0  0
   -0.1921   -1.1446   -0.6306 H   0  0  0  0  0  0  0  0  0  0  0  0
  1  5  1  0  0  0  0
  2  1  1  0  0  0  0
  2  8  1  0  0  0  0
  3  1  1  0  0  0  0
  4  1  1  0  0  0  0
  6  2  1  0  0  0  0
  6  9  1  0  0  0  0
  6 10  1  0  0  0  0
  7  2  1  0  0  0  0
  9 12  1  0  0  0  0
 11  6  1  0  0  0  0
 13  9  1  0  0  0  0
 14  9  1  0  0  0  0
M  END
$$$$
