butane_opt
 OpenBabel08242015383D

 14 13  0  0  0  0  0  0  0  0999 V2000
   -3.9439    0.2328    0.0647 C   0  0  0  0  0  0  0  0  0  0  0  0
   -2.7065   -0.5987   -0.0296 C   0  0  0  0  0  0  0  0  0  0  0  0
   -4.8136   -0.2751    0.2534 H   0  0  0  0  0  0  0  0  0  0  0  0
   -4.1402    0.9499   -0.8795 H   0  0  0  0  0  0  0  0  0  0  0  0
   -3.8453    0.7714    0.8489 H   0  0  0  0  0  0  0  0  0  0  0  0
   -1.4233    0.2234   -0.0309 C   0  0  0  0  0  0  0  0  0  0  0  0
   -2.7693   -1.3033   -0.8766 H   0  0  0  0  0  0  0  0  0  0  0  0
   -2.7298   -1.1767    0.8446 H   0  0  0  0  0  0  0  0  0  0  0  0
   -0.1395   -0.7159    0.0831 C   0  0  0  0  0  0  0  0  0  0  0  0
   -1.4537    0.9354    0.8253 H   0  0  0  0  0  0  0  0  0  0  0  0
   -1.3154    0.8066   -0.8793 H   0  0  0  0  0  0  0  0  0  0  0  0
   -0.1030   -1.3665    0.9445 H   0  0  0  0  0  0  0  0  0  0  0  0
    0.7503   -0.1422    0.0537 H   0  0  0  0  0  0  0  0  0  0  0  0
   -0.0382   -1.3681   -0.7599 H   0  0  0  0  0  0  0  0  0  0  0  0
  1  3  1  0  0  0  0
  1  5  1  0  0  0  0
  2  1  1  0  0  0  0
  2  8  1  0  0  0  0
  4  1  1  0  0  0  0
  6  2  1  0  0  0  0
  6  9  1  0  0  0  0
  6 10  1  0  0  0  0
  7  2  1  0  0  0  0
  9 12  1  0  0  0  0
 11  6  1  0  0  0  0
 13  9  1  0  0  0  0
 14  9  1  0  0  0  0
M  END
$$$$
