14
butane_opt
C  -3.960013   0.292241   0.046292
C  -2.704807  -0.642910   0.019872
H  -4.835320  -0.249660  -0.164826
H  -3.953407   0.660163  -0.633959
H  -4.030822   1.177551   1.005579
C  -1.389425   0.161693  -0.022609
H  -2.786541  -1.368928  -0.882848
H  -2.718703  -1.268213   0.901499
C  -0.147880  -0.677853   0.064598
H  -1.383377   0.702344   0.743365
H  -1.361264   0.969717  -1.048673
H  -0.168746  -1.405500   1.008035
H   0.818438  -0.026369   0.032752
H  -0.199197  -1.256261  -0.779610
