butane_opt
 OpenBabel08242015383D

 14 13  0  0  0  0  0  0  0  0999 V2000
   -3.9687    0.2716    0.0455 C   0  0  0  0  0  0  0  0  0  0  0  0
   -2.7063   -0.6238    0.0311 C   0  0  0  0  0  0  0  0  0  0  0  0
   -4.8587   -0.3280   -0.1001 H   0  0  0  0  0  0  0  0  0  0  0  0
   -3.9388    0.7757   -0.7942 H   0  0  0  0  0  0  0  0  0  0  0  0
   -3.9884    1.0628    0.9847 H   0  0  0  0  0  0  0  0  0  0  0  0
   -1.3996    0.1781   -0.0315 C   0  0  0  0  0  0  0  0  0  0  0  0
   -2.6677   -1.3507   -0.8501 H   0  0  0  0  0  0  0  0  0  0  0  0
   -2.6868   -1.2276    0.9017 H   0  0  0  0  0  0  0  0  0  0  0  0
   -0.1477   -0.6827    0.0542 C   0  0  0  0  0  0  0  0  0  0  0  0
   -1.3650    0.8345    0.8035 H   0  0  0  0  0  0  0  0  0  0  0  0
   -1.3786    0.8376   -0.9248 H   0  0  0  0  0  0  0  0  0  0  0  0
   -0.1639   -1.3903    1.0109 H   0  0  0  0  0  0  0  0  0  0  0  0
    0.7659   -0.0817    0.0186 H   0  0  0  0  0  0  0  0  0  0  0  0
   -0.0810   -1.3204   -0.7820 H   0  0  0  0  0  0  0  0  0  0  0  0
  1  5  1  0  0  0  0
  2  1  1  0  0  0  0
  2  8  1  0  0  0  0
  3  1  1  0  0  0  0
  4  1  1  0  0  0  0
  6  2  1  0  0  0  0
  6  9  1  0  0  0  0
  6 10  1  0  0  0  0
  7  2  1  0  0  0  0
  9 12  1  0  0  0  0
 11  6  1  0  0  0  0
 13  9  1  0  0  0  0
 14  9  1  0  0  0  0
M  END
$$$$
