14
butane_opt
C  -3.983419   0.256513  -0.024364
C  -2.701963  -0.608640   0.068209
H  -4.888718  -0.345144  -0.064848
H  -3.960170   0.939276  -0.991653
H  -3.954820   0.920684   0.787019
C  -1.386505   0.192360   0.083585
H  -2.656344  -1.257354  -0.733508
H  -2.744080  -1.341889   1.059873
C  -0.142406  -0.697563  -0.023220
H  -1.440562   0.976985   0.970963
H  -1.368665   0.734479  -0.717075
H   0.015773  -1.422100   0.941574
H   0.770476  -0.089296  -0.205393
H  -0.225305  -1.295469  -0.868705
