14
butane_opt
C  -3.928220   0.258662   0.070701
C  -2.723908  -0.593091   0.009438
H  -4.877681  -0.390413   0.048743
H  -3.937444   0.745466  -0.771606
H  -3.858799   0.992631   0.969081
C  -1.406784   0.207869  -0.065945
H  -2.785662  -1.370265  -0.929498
H  -2.621172  -1.155080   0.837415
C  -0.149647  -0.710047   0.085262
H  -1.415715   0.734393   0.681618
H  -1.418012   0.866095  -1.033339
H  -0.234901  -1.286166   0.993647
H   0.722466  -0.165066   0.254773
H  -0.084993  -1.410122  -0.788225
