butane_opt
 OpenBabel08242015383D

 14 13  0  0  0  0  0  0  0  0999 V2000
   -3.9322    0.2394    0.0370 C   0  0  0  0  0  0  0  0  0  0  0  0
   -2.7198   -0.5911    0.0168 C   0  0  0  0  0  0  0  0  0  0  0  0
   -4.8707   -0.3327    0.1726 H   0  0  0  0  0  0  0  0  0  0  0  0
   -4.0631    0.8895   -0.8613 H   0  0  0  0  0  0  0  0  0  0  0  0
   -3.9361    0.8748    0.8760 H   0  0  0  0  0  0  0  0  0  0  0  0
   -1.4077    0.2222   -0.0104 C   0  0  0  0  0  0  0  0  0  0  0  0
   -2.7716   -1.3670   -0.9078 H   0  0  0  0  0  0  0  0  0  0  0  0
   -2.7391   -1.1951    0.8797 H   0  0  0  0  0  0  0  0  0  0  0  0
   -0.1393   -0.7223    0.0585 C   0  0  0  0  0  0  0  0  0  0  0  0
   -1.4241    0.8385    0.7830 H   0  0  0  0  0  0  0  0  0  0  0  0
   -1.3226    0.9134   -0.9176 H   0  0  0  0  0  0  0  0  0  0  0  0
   -0.1167   -1.3191    0.8912 H   0  0  0  0  0  0  0  0  0  0  0  0
    0.7210   -0.1704    0.1125 H   0  0  0  0  0  0  0  0  0  0  0  0
   -0.0867   -1.3932   -0.8116 H   0  0  0  0  0  0  0  0  0  0  0  0
  1  3  1  0  0  0  0
  1  5  1  0  0  0  0
  2  1  1  0  0  0  0
  2  8  1  0  0  0  0
  4  1  1  0  0  0  0
  6  2  1  0  0  0  0
  6  9  1  0  0  0  0
  6 10  1  0  0  0  0
  7  2  1  0  0  0  0
  9 13  1  0  0  0  0
  9 12  1  0  0  0  0
 11  6  1  0  0  0  0
 14  9  1  0  0  0  0
M  END
$$$$
