butane_opt
 OpenBabel08242015383D

 14 13  0  0  0  0  0  0  0  0999 V2000
   -3.9502    0.2534    0.0370 C   0  0  0  0  0  0  0  0  0  0  0  0
   -2.7191   -0.5976    0.0084 C   0  0  0  0  0  0  0  0  0  0  0  0
   -4.9323   -0.4254    0.2565 H   0  0  0  0  0  0  0  0  0  0  0  0
   -4.0517    0.9528   -0.9352 H   0  0  0  0  0  0  0  0  0  0  0  0
   -3.8023    0.7963    0.8898 H   0  0  0  0  0  0  0  0  0  0  0  0
   -1.4137    0.2059   -0.0142 C   0  0  0  0  0  0  0  0  0  0  0  0
   -2.7093   -1.3002   -0.8820 H   0  0  0  0  0  0  0  0  0  0  0  0
   -2.6846   -1.2004    0.8455 H   0  0  0  0  0  0  0  0  0  0  0  0
   -0.1412   -0.7179    0.0545 C   0  0  0  0  0  0  0  0  0  0  0  0
   -1.4257    1.0026    0.8909 H   0  0  0  0  0  0  0  0  0  0  0  0
   -1.3389    0.8296   -0.8944 H   0  0  0  0  0  0  0  0  0  0  0  0
   -0.1903   -1.3494    0.9624 H   0  0  0  0  0  0  0  0  0  0  0  0
    0.7695   -0.1240    0.0606 H   0  0  0  0  0  0  0  0  0  0  0  0
    0.0410   -1.3890   -0.8010 H   0  0  0  0  0  0  0  0  0  0  0  0
  1  3  1  0  0  0  0
  1  5  1  0  0  0  0
  2  1  1  0  0  0  0
  2  8  1  0  0  0  0
  4  1  1  0  0  0  0
  6  2  1  0  0  0  0
  6  9  1  0  0  0  0
  6 10  1  0  0  0  0
  7  2  1  0  0  0  0
  9 13  1  0  0  0  0
  9 12  1  0  0  0  0
 11  6  1  0  0  0  0
 14  9  1  0  0  0  0
M  END
$$$$
