14
butane_opt
C  -3.920214   0.263505   0.041790
C  -2.705504  -0.606244   0.017702
H  -4.868405  -0.378988  -0.140828
H  -3.885607   0.627969  -0.672523
H  -3.921598   1.090696   1.032987
C  -1.424454   0.198630  -0.043083
H  -2.700531  -1.252086  -0.806841
H  -2.680909  -1.272595   0.976651
C  -0.179988  -0.707197   0.061384
H  -1.342943   0.858702   0.794555
H  -1.391087   0.897249  -0.964778
H  -0.134590  -1.378635   0.997635
H   0.768833  -0.129783   0.071114
H  -0.104654  -1.330541  -0.752409
