14
butane_opt
C  -3.962516   0.282367  -0.040722
C  -2.711353  -0.640001   0.077558
H  -4.855068  -0.219813   0.050302
H  -3.992694   0.875596  -0.956077
H  -4.046347   0.932968   0.782732
C  -1.387846   0.174084   0.074922
H  -2.666577  -1.262156  -0.710501
H  -2.757045  -1.354546   1.045547
C  -0.141208  -0.686182  -0.012683
H  -1.314845   0.976697   0.996372
H  -1.354751   0.749450  -0.777026
H  -0.091960  -1.322904   0.888456
H   0.799535  -0.066154  -0.164164
H  -0.309118  -1.341967  -0.902680
