butane_opt
 OpenBabel08242015383D

 14 13  0  0  0  0  0  0  0  0999 V2000
   -3.9465    0.2798   -0.0482 C   0  0  0  0  0  0  0  0  0  0  0  0
   -2.6843   -0.6283    0.0908 C   0  0  0  0  0  0  0  0  0  0  0  0
   -4.8221   -0.2981   -0.0349 H   0  0  0  0  0  0  0  0  0  0  0  0
   -3.9633    0.9919   -0.9758 H   0  0  0  0  0  0  0  0  0  0  0  0
   -3.9817    0.8682    0.7874 H   0  0  0  0  0  0  0  0  0  0  0  0
   -1.4019    0.1677    0.1132 C   0  0  0  0  0  0  0  0  0  0  0  0
   -2.6133   -1.2759   -0.7801 H   0  0  0  0  0  0  0  0  0  0  0  0
   -2.7740   -1.2529    0.9906 H   0  0  0  0  0  0  0  0  0  0  0  0
   -0.1678   -0.6848   -0.0321 C   0  0  0  0  0  0  0  0  0  0  0  0
   -1.2712    0.7709    0.9252 H   0  0  0  0  0  0  0  0  0  0  0  0
   -1.4526    0.7718   -0.7489 H   0  0  0  0  0  0  0  0  0  0  0  0
   -0.1165   -1.3368    0.8842 H   0  0  0  0  0  0  0  0  0  0  0  0
    0.7758    0.0038   -0.1969 H   0  0  0  0  0  0  0  0  0  0  0  0
   -0.3941   -1.3178   -0.8940 H   0  0  0  0  0  0  0  0  0  0  0  0
  1  3  1  0  0  0  0
  1  2  1  0  0  0  0
  1  5  1  0  0  0  0
  2  6  1  0  0  0  0
  2  8  1  0  0  0  0
  4  1  1  0  0  0  0
  6 10  1  0  0  0  0
  7  2  1  0  0  0  0
  9  6  1  0  0  0  0
  9 12  1  0  0  0  0
 11  6  1  0  0  0  0
 13  9  1  0  0  0  0
 14  9  1  0  0  0  0
M  END
$$$$
