14
butane_opt
C  -3.935327   0.255902   0.027295
C  -2.698474  -0.612063   0.020400
H  -4.881955  -0.347149  -0.008167
H  -3.957047   0.806067  -0.806897
H  -3.935182   1.014458   0.958389
C  -1.417312   0.191031  -0.002967
H  -2.699472  -1.288604  -0.824644
H  -2.725379  -1.182982   0.902529
C  -0.166209  -0.697857   0.046736
H  -1.357062   0.858096   0.840215
H  -1.396831   0.824114  -0.897664
H  -0.043181  -1.429258   0.992011
H   0.730745  -0.104077  -0.053709
H  -0.149693  -1.272333  -0.734930
