14
butane_opt
C  -3.949992   0.249085   0.045435
C  -2.695219  -0.592939   0.025309
H  -4.904125  -0.370177  -0.062568
H  -3.846266   0.809227  -0.788039
H  -3.976093   1.024215   0.947535
C  -1.388881   0.188307  -0.014099
H  -2.714428  -1.362965  -0.918003
H  -2.737753  -1.137053   0.842232
C  -0.165670  -0.704626   0.052091
H  -1.433697   0.843272   0.847265
H  -1.393046   0.853789  -0.958017
H  -0.062459  -1.432665   1.039668
H   0.683783  -0.170096  -0.092554
H  -0.231581  -1.217844  -0.689397
