butane_opt
 OpenBabel08242015383D

 14 13  0  0  0  0  0  0  0  0999 V2000
   -3.9564    0.2583    0.0638 C   0  0  0  0  0  0  0  0  0  0  0  0
   -2.7174   -0.6204   -0.0026 C   0  0  0  0  0  0  0  0  0  0  0  0
   -4.8943   -0.3614    0.0616 H   0  0  0  0  0  0  0  0  0  0  0  0
   -3.9987    0.8751   -0.8355 H   0  0  0  0  0  0  0  0  0  0  0  0
   -3.8215    0.9527    0.9651 H   0  0  0  0  0  0  0  0  0  0  0  0
   -1.3931    0.2204   -0.0577 C   0  0  0  0  0  0  0  0  0  0  0  0
   -2.8144   -1.2554   -0.8609 H   0  0  0  0  0  0  0  0  0  0  0  0
   -2.7068   -1.3183    0.9722 H   0  0  0  0  0  0  0  0  0  0  0  0
   -0.1495   -0.7017    0.0838 C   0  0  0  0  0  0  0  0  0  0  0  0
   -1.4395    0.8735    0.7566 H   0  0  0  0  0  0  0  0  0  0  0  0
   -1.3469    0.8716   -0.9885 H   0  0  0  0  0  0  0  0  0  0  0  0
   -0.1368   -1.2117    0.9411 H   0  0  0  0  0  0  0  0  0  0  0  0
    0.7231   -0.2120    0.2404 H   0  0  0  0  0  0  0  0  0  0  0  0
    0.0078   -1.5741   -0.8826 H   0  0  0  0  0  0  0  0  0  0  0  0
  1  5  1  0  0  0  0
  2  1  1  0  0  0  0
  2  8  1  0  0  0  0
  3  1  1  0  0  0  0
  4  1  1  0  0  0  0
  6  2  1  0  0  0  0
  6  9  1  0  0  0  0
  6 10  1  0  0  0  0
  7  2  1  0  0  0  0
  9 13  1  0  0  0  0
  9 12  1  0  0  0  0
 11  6  1  0  0  0  0
 14  9  1  0  0  0  0
M  END
$$$$
