butane_opt
 OpenBabel08242015383D

 14 13  0  0  0  0  0  0  0  0999 V2000
   -3.9293    0.2580   -0.0044 C   0  0  0  0  0  0  0  0  0  0  0  0
   -2.7200   -0.6127    0.0646 C   0  0  0  0  0  0  0  0  0  0  0  0
   -4.8804   -0.3980   -0.0183 H   0  0  0  0  0  0  0  0  0  0  0  0
   -3.9230    1.0114   -0.9767 H   0  0  0  0  0  0  0  0  0  0  0  0
   -3.9979    0.7779    0.7409 H   0  0  0  0  0  0  0  0  0  0  0  0
   -1.4099    0.2021    0.0626 C   0  0  0  0  0  0  0  0  0  0  0  0
   -2.7467   -1.2618   -0.7600 H   0  0  0  0  0  0  0  0  0  0  0  0
   -2.7713   -1.1602    0.9247 H   0  0  0  0  0  0  0  0  0  0  0  0
   -0.1380   -0.7094   -0.0042 C   0  0  0  0  0  0  0  0  0  0  0  0
   -1.4277    0.9387    0.9460 H   0  0  0  0  0  0  0  0  0  0  0  0
   -1.4496    0.8226   -0.7609 H   0  0  0  0  0  0  0  0  0  0  0  0
   -0.0440   -1.3722    0.8986 H   0  0  0  0  0  0  0  0  0  0  0  0
    0.7899   -0.1322   -0.1250 H   0  0  0  0  0  0  0  0  0  0  0  0
   -0.2017   -1.3652   -0.8727 H   0  0  0  0  0  0  0  0  0  0  0  0
  1  2  1  0  0  0  0
  1  5  1  0  0  0  0
  2  8  1  0  0  0  0
  3  1  1  0  0  0  0
  4  1  1  0  0  0  0
  6  2  1  0  0  0  0
  6 10  1  0  0  0  0
  7  2  1  0  0  0  0
  9  6  1  0  0  0  0
  9 12  1  0  0  0  0
 11  6  1  0  0  0  0
 13  9  1  0  0  0  0
 14  9  1  0  0  0  0
M  END
$$$$
