14
butane_opt
C  -3.937936   0.259631   0.001282
C  -2.717660  -0.619043   0.068704
H  -4.811662  -0.302768   0.097280
H  -3.974858   0.905137  -0.936772
H  -3.893395   0.870755   0.824166
C  -1.402389   0.207815   0.009863
H  -2.754979  -1.250724  -0.785936
H  -2.793643  -1.284484   1.015739
C  -0.144164  -0.708974   0.024504
H  -1.376658   0.826860   0.774115
H  -1.502662   0.850915  -0.903220
H  -0.129891  -1.061376   0.780296
H   0.715913  -0.146736   0.294326
H  -0.078453  -1.558233  -0.983215
