butane_opt
 OpenBabel08242015383D

 14 13  0  0  0  0  0  0  0  0999 V2000
   -3.9278    0.2554   -0.0193 C   0  0  0  0  0  0  0  0  0  0  0  0
   -2.7098   -0.5931    0.0911 C   0  0  0  0  0  0  0  0  0  0  0  0
   -4.8705   -0.3833   -0.0790 H   0  0  0  0  0  0  0  0  0  0  0  0
   -3.8731    0.8010   -0.8869 H   0  0  0  0  0  0  0  0  0  0  0  0
   -4.0357    0.9734    0.8411 H   0  0  0  0  0  0  0  0  0  0  0  0
   -1.4064    0.1927    0.0389 C   0  0  0  0  0  0  0  0  0  0  0  0
   -2.7048   -1.2502   -0.7610 H   0  0  0  0  0  0  0  0  0  0  0  0
   -2.7427   -1.2637    1.0109 H   0  0  0  0  0  0  0  0  0  0  0  0
   -0.1592   -0.7049    0.0013 C   0  0  0  0  0  0  0  0  0  0  0  0
   -1.4010    0.8312    0.8852 H   0  0  0  0  0  0  0  0  0  0  0  0
   -1.4486    0.8103   -0.8422 H   0  0  0  0  0  0  0  0  0  0  0  0
   -0.0622   -1.2635    0.8524 H   0  0  0  0  0  0  0  0  0  0  0  0
    0.7331   -0.1222   -0.0168 H   0  0  0  0  0  0  0  0  0  0  0  0
   -0.1734   -1.4121   -0.9021 H   0  0  0  0  0  0  0  0  0  0  0  0
  1  2  1  0  0  0  0
  1  5  1  0  0  0  0
  2  8  1  0  0  0  0
  3  1  1  0  0  0  0
  4  1  1  0  0  0  0
  6  2  1  0  0  0  0
  6 10  1  0  0  0  0
  7  2  1  0  0  0  0
  9  6  1  0  0  0  0
  9 12  1  0  0  0  0
 11  6  1  0  0  0  0
 13  9  1  0  0  0  0
 14  9  1  0  0  0  0
M  END
$$$$
