butane_opt
 OpenBabel08242015383D

 14 13  0  0  0  0  0  0  0  0999 V2000
   -3.9527    0.2692    0.0335 C   0  0  0  0  0  0  0  0  0  0  0  0
   -2.7023   -0.6427    0.0027 C   0  0  0  0  0  0  0  0  0  0  0  0
   -4.8517   -0.2732    0.0615 H   0  0  0  0  0  0  0  0  0  0  0  0
   -4.0913    0.8622   -0.8150 H   0  0  0  0  0  0  0  0  0  0  0  0
   -4.0085    1.0777    0.9608 H   0  0  0  0  0  0  0  0  0  0  0  0
   -1.3763    0.1796   -0.0037 C   0  0  0  0  0  0  0  0  0  0  0  0
   -2.7908   -1.3418   -0.8775 H   0  0  0  0  0  0  0  0  0  0  0  0
   -2.6806   -1.1859    0.8292 H   0  0  0  0  0  0  0  0  0  0  0  0
   -0.1628   -0.6878    0.0508 C   0  0  0  0  0  0  0  0  0  0  0  0
   -1.3832    0.8910    0.8417 H   0  0  0  0  0  0  0  0  0  0  0  0
   -1.4275    0.7815   -0.8561 H   0  0  0  0  0  0  0  0  0  0  0  0
   -0.0526   -1.4784    1.1061 H   0  0  0  0  0  0  0  0  0  0  0  0
    0.7778   -0.0868   -0.1304 H   0  0  0  0  0  0  0  0  0  0  0  0
   -0.1845   -1.1330   -0.6486 H   0  0  0  0  0  0  0  0  0  0  0  0
  1  3  1  0  0  0  0
  1  5  1  0  0  0  0
  2  1  1  0  0  0  0
  2  8  1  0  0  0  0
  4  1  1  0  0  0  0
  6  2  1  0  0  0  0
  6  9  1  0  0  0  0
  6 10  1  0  0  0  0
  7  2  1  0  0  0  0
  9 12  1  0  0  0  0
 11  6  1  0  0  0  0
 13  9  1  0  0  0  0
 14  9  1  0  0  0  0
M  END
$$$$
