butane_opt
 OpenBabel08242015383D

 14 13  0  0  0  0  0  0  0  0999 V2000
   -3.9205    0.2450   -0.0203 C   0  0  0  0  0  0  0  0  0  0  0  0
   -2.7079   -0.5939    0.0712 C   0  0  0  0  0  0  0  0  0  0  0  0
   -4.8614   -0.3520   -0.0101 H   0  0  0  0  0  0  0  0  0  0  0  0
   -3.7923    0.9595   -0.9749 H   0  0  0  0  0  0  0  0  0  0  0  0
   -3.9977    0.8487    0.8022 H   0  0  0  0  0  0  0  0  0  0  0  0
   -1.4235    0.2033    0.0792 C   0  0  0  0  0  0  0  0  0  0  0  0
   -2.7143   -1.3631   -0.8235 H   0  0  0  0  0  0  0  0  0  0  0  0
   -2.7478   -1.1960    0.9227 H   0  0  0  0  0  0  0  0  0  0  0  0
   -0.1679   -0.7094   -0.0036 C   0  0  0  0  0  0  0  0  0  0  0  0
   -1.2961    0.9512    0.9612 H   0  0  0  0  0  0  0  0  0  0  0  0
   -1.4457    0.7944   -0.7917 H   0  0  0  0  0  0  0  0  0  0  0  0
    0.0437   -1.4063    0.9464 H   0  0  0  0  0  0  0  0  0  0  0  0
    0.6831   -0.2127   -0.2961 H   0  0  0  0  0  0  0  0  0  0  0  0
   -0.2510   -1.2378   -0.8055 H   0  0  0  0  0  0  0  0  0  0  0  0
  1  3  1  0  0  0  0
  1  2  1  0  0  0  0
  1  5  1  0  0  0  0
  2  6  1  0  0  0  0
  2  8  1  0  0  0  0
  4  1  1  0  0  0  0
  6 10  1  0  0  0  0
  7  2  1  0  0  0  0
  9  6  1  0  0  0  0
  9 12  1  0  0  0  0
 11  6  1  0  0  0  0
 13  9  1  0  0  0  0
 14  9  1  0  0  0  0
M  END
$$$$
