14
butane_opt
C  -3.961525   0.273025   0.019741
C  -2.720799  -0.612698   0.029442
H  -4.868689  -0.327165   0.146754
H  -4.030272   1.097622  -0.978218
H  -3.902214   0.744793   0.778414
C  -1.388608   0.173181   0.027371
H  -2.731001  -1.273998  -0.799807
H  -2.679175  -1.301874   0.911766
C  -0.150538  -0.689382   0.032415
H  -1.349137   0.816654   0.872284
H  -1.385234   0.790647  -0.866283
H  -0.106166  -1.134254   0.791835
H   0.773958  -0.111850   0.111551
H  -0.096985  -1.485034  -0.876067
