butane_opt
 OpenBabel08242015383D

 14 13  0  0  0  0  0  0  0  0999 V2000
   -3.9286    0.2788    0.0418 C   0  0  0  0  0  0  0  0  0  0  0  0
   -2.6854   -0.6469    0.0117 C   0  0  0  0  0  0  0  0  0  0  0  0
   -4.8091   -0.2321    0.1564 H   0  0  0  0  0  0  0  0  0  0  0  0
   -4.0503    0.9551   -0.8574 H   0  0  0  0  0  0  0  0  0  0  0  0
   -3.8592    1.0067    0.9521 H   0  0  0  0  0  0  0  0  0  0  0  0
   -1.4119    0.1631   -0.0310 C   0  0  0  0  0  0  0  0  0  0  0  0
   -2.7776   -1.3917   -0.8563 H   0  0  0  0  0  0  0  0  0  0  0  0
   -2.6586   -1.2301    0.8920 H   0  0  0  0  0  0  0  0  0  0  0  0
   -0.1860   -0.6800    0.0703 C   0  0  0  0  0  0  0  0  0  0  0  0
   -1.3860    0.7566    0.7775 H   0  0  0  0  0  0  0  0  0  0  0  0
   -1.3348    0.9073   -1.0269 H   0  0  0  0  0  0  0  0  0  0  0  0
   -0.2576   -1.1721    0.8741 H   0  0  0  0  0  0  0  0  0  0  0  0
    0.7850   -0.0059    0.2390 H   0  0  0  0  0  0  0  0  0  0  0  0
   -0.1473   -1.4321   -0.8360 H   0  0  0  0  0  0  0  0  0  0  0  0
  1  3  1  0  0  0  0
  1  5  1  0  0  0  0
  2  1  1  0  0  0  0
  2  8  1  0  0  0  0
  4  1  1  0  0  0  0
  6  2  1  0  0  0  0
  6  9  1  0  0  0  0
  6 10  1  0  0  0  0
  7  2  1  0  0  0  0
  9 13  1  0  0  0  0
  9 12  1  0  0  0  0
 11  6  1  0  0  0  0
 14  9  1  0  0  0  0
M  END
$$$$
