14
butane_opt
C  -3.926773   0.244820   0.033131
C  -2.707609  -0.588738   0.022401
H  -4.821833  -0.376084   0.105780
H  -3.947630   0.852971  -0.862804
H  -3.831326   0.928686   0.910364
C  -1.419378   0.199430  -0.025555
H  -2.714428  -1.236868  -0.831908
H  -2.723567  -1.267179   0.982311
C  -0.176828  -0.710961   0.045647
H  -1.418031   0.913605   0.860683
H  -1.276156   0.836701  -0.914629
H  -0.107955  -1.250589   0.897001
H   0.674630  -0.195955   0.187672
H  -0.080495  -1.421938  -0.807078
