14
butane_opt
C  -3.953353   0.259030   0.056022
C  -2.702383  -0.600597   0.007049
H  -4.879435  -0.367393   0.075487
H  -3.944381   0.863432  -0.825170
H  -3.908588   0.940039   0.928744
C  -1.404899   0.187267  -0.032680
H  -2.767803  -1.312904  -0.862069
H  -2.716977  -1.211946   0.869991
C  -0.155319  -0.696616   0.066604
H  -1.377986   0.802089   0.775021
H  -1.388526   0.892214  -0.973042
H  -0.170965  -1.316353   0.945884
H   0.758505  -0.116943   0.178067
H  -0.042361  -1.433921  -0.831364
