butane_opt
 OpenBabel08242015383D

 14 13  0  0  0  0  0  0  0  0999 V2000
   -3.9356    0.2465   -0.0325 C   0  0  0  0  0  0  0  0  0  0  0  0
   -2.6986   -0.6048    0.0838 C   0  0  0  0  0  0  0  0  0  0  0  0
   -4.8265   -0.2800   -0.0227 H   0  0  0  0  0  0  0  0  0  0  0  0
   -3.9110    0.9752   -1.0247 H   0  0  0  0  0  0  0  0  0  0  0  0
   -3.9986    0.8883    0.8007 H   0  0  0  0  0  0  0  0  0  0  0  0
   -1.4113    0.1920    0.0881 C   0  0  0  0  0  0  0  0  0  0  0  0
   -2.7393   -1.2549   -0.7209 H   0  0  0  0  0  0  0  0  0  0  0  0
   -2.7563   -1.2308    0.9451 H   0  0  0  0  0  0  0  0  0  0  0  0
   -0.1626   -0.7038   -0.0284 C   0  0  0  0  0  0  0  0  0  0  0  0
   -1.3091    0.8835    0.9794 H   0  0  0  0  0  0  0  0  0  0  0  0
   -1.4408    0.7569   -0.7420 H   0  0  0  0  0  0  0  0  0  0  0  0
   -0.0508   -1.3810    0.8789 H   0  0  0  0  0  0  0  0  0  0  0  0
    0.7535   -0.1307   -0.1213 H   0  0  0  0  0  0  0  0  0  0  0  0
   -0.2434   -1.2457   -0.8619 H   0  0  0  0  0  0  0  0  0  0  0  0
  1  3  1  0  0  0  0
  1  2  1  0  0  0  0
  1  5  1  0  0  0  0
  2  6  1  0  0  0  0
  2  8  1  0  0  0  0
  4  1  1  0  0  0  0
  6 10  1  0  0  0  0
  7  2  1  0  0  0  0
  9  6  1  0  0  0  0
  9 12  1  0  0  0  0
 11  6  1  0  0  0  0
 13  9  1  0  0  0  0
 14  9  1  0  0  0  0
M  END
$$$$
