14
butane_opt
C  -3.969489   0.273026   0.072180
C  -2.695861  -0.624351  -0.010817
H  -4.814461  -0.233795   0.079628
H  -4.047319   0.791672  -0.753818
H  -4.039763   0.987949   1.001355
C  -1.400582   0.164646  -0.052048
H  -2.777450  -1.371243  -0.914373
H  -2.596683  -1.148468   0.835532
C  -0.139652  -0.675404   0.079608
H  -1.378172   0.695546   0.703370
H  -1.348252   0.867476  -1.024524
H  -0.320800  -1.317620   1.009213
H   0.827878  -0.050771   0.194209
H  -0.062812  -1.337110  -0.746576
