butane_opt
 OpenBabel08242015383D

 14 13  0  0  0  0  0  0  0  0999 V2000
   -3.9470    0.2858    0.0759 C   0  0  0  0  0  0  0  0  0  0  0  0
   -2.6890   -0.6295   -0.0047 C   0  0  0  0  0  0  0  0  0  0  0  0
   -4.8068   -0.2768    0.0425 H   0  0  0  0  0  0  0  0  0  0  0  0
   -4.0486    0.8308   -0.8026 H   0  0  0  0  0  0  0  0  0  0  0  0
   -3.9427    0.9908    0.9508 H   0  0  0  0  0  0  0  0  0  0  0  0
   -1.4182    0.1408   -0.0621 C   0  0  0  0  0  0  0  0  0  0  0  0
   -2.7643   -1.2955   -0.8391 H   0  0  0  0  0  0  0  0  0  0  0  0
   -2.6149   -1.2514    0.8371 H   0  0  0  0  0  0  0  0  0  0  0  0
   -0.1688   -0.6769    0.0795 C   0  0  0  0  0  0  0  0  0  0  0  0
   -1.4655    0.7942    0.7776 H   0  0  0  0  0  0  0  0  0  0  0  0
   -1.2655    0.8181   -0.9715 H   0  0  0  0  0  0  0  0  0  0  0  0
   -0.2723   -1.1960    0.9498 H   0  0  0  0  0  0  0  0  0  0  0  0
    0.8412   -0.0080    0.1934 H   0  0  0  0  0  0  0  0  0  0  0  0
   -0.0302   -1.3060   -0.7737 H   0  0  0  0  0  0  0  0  0  0  0  0
  1  5  1  0  0  0  0
  2  1  1  0  0  0  0
  2  8  1  0  0  0  0
  3  1  1  0  0  0  0
  4  1  1  0  0  0  0
  6  2  1  0  0  0  0
  6  9  1  0  0  0  0
  6 10  1  0  0  0  0
  7  2  1  0  0  0  0
  9 13  1  0  0  0  0
  9 12  1  0  0  0  0
 11  6  1  0  0  0  0
 14  9  1  0  0  0  0
M  END
$$$$
