14
butane_opt
C  -3.929190   0.259511   0.007275
C  -2.716190  -0.589796   0.074633
H  -4.911126  -0.413222   0.016139
H  -3.827727   0.890976  -0.950448
H  -3.970591   0.838976   0.783412
C  -1.412707   0.201016   0.026293
H  -2.760516  -1.303504  -0.829721
H  -2.622941  -1.288750   0.997061
C  -0.162971  -0.715551   0.006592
H  -1.392981   0.866620   0.837904
H  -1.417368   0.859517  -0.896556
H  -0.127172  -1.203835   0.803979
H   0.722641  -0.083533   0.188330
H  -0.059457  -1.505841  -0.903947
