butane_opt
 OpenBabel08242015383D

 14 13  0  0  0  0  0  0  0  0999 V2000
   -3.9379    0.2596    0.0013 C   0  0  0  0  0  0  0  0  0  0  0  0
   -2.7177   -0.6190    0.0687 C   0  0  0  0  0  0  0  0  0  0  0  0
   -4.8117   -0.3028    0.0973 H   0  0  0  0  0  0  0  0  0  0  0  0
   -3.9749    0.9051   -0.9368 H   0  0  0  0  0  0  0  0  0  0  0  0
   -3.8934    0.8708    0.8242 H   0  0  0  0  0  0  0  0  0  0  0  0
   -1.4024    0.2078    0.0099 C   0  0  0  0  0  0  0  0  0  0  0  0
   -2.7550   -1.2507   -0.7859 H   0  0  0  0  0  0  0  0  0  0  0  0
   -2.7936   -1.2845    1.0157 H   0  0  0  0  0  0  0  0  0  0  0  0
   -0.1442   -0.7090    0.0245 C   0  0  0  0  0  0  0  0  0  0  0  0
   -1.3767    0.8269    0.7741 H   0  0  0  0  0  0  0  0  0  0  0  0
   -1.5027    0.8509   -0.9032 H   0  0  0  0  0  0  0  0  0  0  0  0
   -0.1299   -1.0614    0.7803 H   0  0  0  0  0  0  0  0  0  0  0  0
    0.7159   -0.1467    0.2943 H   0  0  0  0  0  0  0  0  0  0  0  0
   -0.0785   -1.5582   -0.9832 H   0  0  0  0  0  0  0  0  0  0  0  0
  1  2  1  0  0  0  0
  1  3  1  0  0  0  0
  1  5  1  0  0  0  0
  2  8  1  0  0  0  0
  4  1  1  0  0  0  0
  6  9  1  0  0  0  0
  6  2  1  0  0  0  0
  6 10  1  0  0  0  0
  7  2  1  0  0  0  0
  9 13  1  0  0  0  0
  9 12  1  0  0  0  0
 11  6  1  0  0  0  0
 14  9  1  0  0  0  0
M  END
$$$$
