butane_opt
 OpenBabel08242015383D

 14 13  0  0  0  0  0  0  0  0999 V2000
   -3.9332    0.2350    0.0409 C   0  0  0  0  0  0  0  0  0  0  0  0
   -2.7184   -0.6097    0.0471 C   0  0  0  0  0  0  0  0  0  0  0  0
   -4.8881   -0.3457   -0.2065 H   0  0  0  0  0  0  0  0  0  0  0  0
   -3.8922    0.7308   -0.8060 H   0  0  0  0  0  0  0  0  0  0  0  0
   -4.1477    1.1349    1.0185 H   0  0  0  0  0  0  0  0  0  0  0  0
   -1.4121    0.2251   -0.0143 C   0  0  0  0  0  0  0  0  0  0  0  0
   -2.7076   -1.2886   -0.8536 H   0  0  0  0  0  0  0  0  0  0  0  0
   -2.7544   -1.2086    0.9148 H   0  0  0  0  0  0  0  0  0  0  0  0
   -0.1323   -0.7178    0.0348 C   0  0  0  0  0  0  0  0  0  0  0  0
   -1.4051    0.8652    0.8001 H   0  0  0  0  0  0  0  0  0  0  0  0
   -1.3974    0.9024   -0.9456 H   0  0  0  0  0  0  0  0  0  0  0  0
   -0.0783   -1.4363    1.0016 H   0  0  0  0  0  0  0  0  0  0  0  0
    0.7389   -0.1483   -0.0122 H   0  0  0  0  0  0  0  0  0  0  0  0
   -0.1103   -1.2900   -0.7347 H   0  0  0  0  0  0  0  0  0  0  0  0
  1  2  1  0  0  0  0
  1  5  1  0  0  0  0
  2  8  1  0  0  0  0
  3  1  1  0  0  0  0
  4  1  1  0  0  0  0
  6  9  1  0  0  0  0
  6  2  1  0  0  0  0
  6 10  1  0  0  0  0
  7  2  1  0  0  0  0
  9 12  1  0  0  0  0
 11  6  1  0  0  0  0
 13  9  1  0  0  0  0
 14  9  1  0  0  0  0
M  END
$$$$
