butane_opt
 OpenBabel08242015383D

 14 13  0  0  0  0  0  0  0  0999 V2000
   -3.9349    0.2634    0.0707 C   0  0  0  0  0  0  0  0  0  0  0  0
   -2.7177   -0.6151   -0.0629 C   0  0  0  0  0  0  0  0  0  0  0  0
   -4.8769   -0.3436    0.3585 H   0  0  0  0  0  0  0  0  0  0  0  0
   -4.0789    0.9422   -0.8532 H   0  0  0  0  0  0  0  0  0  0  0  0
   -3.7944    0.8322    0.9294 H   0  0  0  0  0  0  0  0  0  0  0  0
   -1.4010    0.2017   -0.0296 C   0  0  0  0  0  0  0  0  0  0  0  0
   -2.7333   -1.3300   -0.9204 H   0  0  0  0  0  0  0  0  0  0  0  0
   -2.7235   -1.2073    0.8570 H   0  0  0  0  0  0  0  0  0  0  0  0
   -0.1520   -0.6942    0.0896 C   0  0  0  0  0  0  0  0  0  0  0  0
   -1.4266    0.8726    0.8166 H   0  0  0  0  0  0  0  0  0  0  0  0
   -1.3848    0.8524   -0.9425 H   0  0  0  0  0  0  0  0  0  0  0  0
   -0.1793   -1.4306    1.0681 H   0  0  0  0  0  0  0  0  0  0  0  0
    0.7303   -0.1535    0.0710 H   0  0  0  0  0  0  0  0  0  0  0  0
   -0.0899   -1.3762   -0.7540 H   0  0  0  0  0  0  0  0  0  0  0  0
  1  3  1  0  0  0  0
  1  5  1  0  0  0  0
  2  6  1  0  0  0  0
  2  1  1  0  0  0  0
  2  8  1  0  0  0  0
  4  1  1  0  0  0  0
  6  9  1  0  0  0  0
  6 10  1  0  0  0  0
  7  2  1  0  0  0  0
  9 12  1  0  0  0  0
 11  6  1  0  0  0  0
 13  9  1  0  0  0  0
 14  9  1  0  0  0  0
M  END
$$$$
