butane_opt
 OpenBabel08242015383D

 14 13  0  0  0  0  0  0  0  0999 V2000
   -3.9381    0.2735    0.0348 C   0  0  0  0  0  0  0  0  0  0  0  0
   -2.6978   -0.6159    0.0413 C   0  0  0  0  0  0  0  0  0  0  0  0
   -4.8440   -0.3164   -0.1225 H   0  0  0  0  0  0  0  0  0  0  0  0
   -3.9021    0.7526   -0.7548 H   0  0  0  0  0  0  0  0  0  0  0  0
   -4.0634    1.0241    0.9525 H   0  0  0  0  0  0  0  0  0  0  0  0
   -1.4111    0.1694   -0.0179 C   0  0  0  0  0  0  0  0  0  0  0  0
   -2.7174   -1.3282   -0.8411 H   0  0  0  0  0  0  0  0  0  0  0  0
   -2.6885   -1.2101    0.8941 H   0  0  0  0  0  0  0  0  0  0  0  0
   -0.1598   -0.6872    0.0507 C   0  0  0  0  0  0  0  0  0  0  0  0
   -1.3905    0.7968    0.8113 H   0  0  0  0  0  0  0  0  0  0  0  0
   -1.3760    0.8393   -0.9408 H   0  0  0  0  0  0  0  0  0  0  0  0
   -0.1697   -1.3411    0.9681 H   0  0  0  0  0  0  0  0  0  0  0  0
    0.7629   -0.0468   -0.0391 H   0  0  0  0  0  0  0  0  0  0  0  0
   -0.1582   -1.3191   -0.7818 H   0  0  0  0  0  0  0  0  0  0  0  0
  1  2  1  0  0  0  0
  1  5  1  0  0  0  0
  2  8  1  0  0  0  0
  3  1  1  0  0  0  0
  4  1  1  0  0  0  0
  6  2  1  0  0  0  0
  6  9  1  0  0  0  0
  6 10  1  0  0  0  0
  7  2  1  0  0  0  0
  9 12  1  0  0  0  0
 11  6  1  0  0  0  0
 13  9  1  0  0  0  0
 14  9  1  0  0  0  0
M  END
$$$$
