14
butane_opt
C  -3.937198   0.233950  -0.008131
C  -2.689822  -0.573134   0.080585
H  -4.877918  -0.388405   0.054009
H  -3.872039   0.968030  -0.990274
H  -3.898554   0.826612   0.810821
C  -1.421276   0.199006   0.028354
H  -2.767998  -1.189357  -0.749955
H  -2.774527  -1.302055   1.029665
C  -0.153247  -0.715502   0.019579
H  -1.411719   0.843679   0.882497
H  -1.490310   0.873539  -0.927343
H  -0.191461  -1.054247   0.663414
H   0.762661  -0.133420   0.188105
H  -0.077424  -1.648242  -1.003519
