butane_opt
 OpenBabel08242015383D

 14 13  0  0  0  0  0  0  0  0999 V2000
   -3.9336    0.2595   -0.0223 C   0  0  0  0  0  0  0  0  0  0  0  0
   -2.6914   -0.6061    0.0745 C   0  0  0  0  0  0  0  0  0  0  0  0
   -4.8841   -0.3343   -0.0369 H   0  0  0  0  0  0  0  0  0  0  0  0
   -3.9485    0.9246   -0.9585 H   0  0  0  0  0  0  0  0  0  0  0  0
   -3.9757    0.8014    0.7831 H   0  0  0  0  0  0  0  0  0  0  0  0
   -1.4153    0.2011    0.0691 C   0  0  0  0  0  0  0  0  0  0  0  0
   -2.7157   -1.3129   -0.7985 H   0  0  0  0  0  0  0  0  0  0  0  0
   -2.7423   -1.2959    1.0033 H   0  0  0  0  0  0  0  0  0  0  0  0
   -0.1727   -0.6952    0.0038 C   0  0  0  0  0  0  0  0  0  0  0  0
   -1.3439    0.8593    0.9734 H   0  0  0  0  0  0  0  0  0  0  0  0
   -1.4357    0.8361   -0.8355 H   0  0  0  0  0  0  0  0  0  0  0  0
    0.0747   -1.2877    0.8421 H   0  0  0  0  0  0  0  0  0  0  0  0
    0.7132   -0.1559   -0.1488 H   0  0  0  0  0  0  0  0  0  0  0  0
   -0.2155   -1.4111   -0.9007 H   0  0  0  0  0  0  0  0  0  0  0  0
  1  2  1  0  0  0  0
  1  5  1  0  0  0  0
  2  8  1  0  0  0  0
  3  1  1  0  0  0  0
  4  1  1  0  0  0  0
  6  2  1  0  0  0  0
  6 10  1  0  0  0  0
  7  2  1  0  0  0  0
  9  6  1  0  0  0  0
  9 12  1  0  0  0  0
 11  6  1  0  0  0  0
 13  9  1  0  0  0  0
 14  9  1  0  0  0  0
M  END
$$$$
