14
butane_opt
C  -3.955361   0.270248   0.075383
C  -2.712126  -0.610250  -0.009888
H  -4.887247  -0.394062   0.154035
H  -4.021623   0.875740  -0.835390
H  -3.858133   0.929797   0.934910
C  -1.389005   0.188460  -0.062229
H  -2.783054  -1.316491  -0.936828
H  -2.590179  -1.242535   0.869376
C  -0.167721  -0.710848   0.077899
H  -1.386639   0.867842   0.780603
H  -1.339845   0.866315  -1.002928
H  -0.246930  -1.237601   0.942911
H   0.770671  -0.106835   0.299774
H   0.016500  -1.368617  -0.742872
