14
butane_opt
C  -3.933814   0.255236  -0.023566
C  -2.712196  -0.601067   0.094559
H  -4.917987  -0.404292  -0.133332
H  -3.818241   0.729976  -0.842592
H  -4.088618   0.975649   0.855435
C  -1.392845   0.217138   0.041079
H  -2.704053  -1.230489  -0.720785
H  -2.776396  -1.279432   1.058900
C  -0.161437  -0.716172  -0.023486
H  -1.379000   0.990541   0.947752
H  -1.444733   0.822605  -0.836627
H  -0.102607  -1.386176   0.938198
H   0.722527  -0.182877  -0.028763
H  -0.097229  -1.392062  -0.846846
