butane_opt
 OpenBabel08242015383D

 14 13  0  0  0  0  0  0  0  0999 V2000
   -3.9423    0.2490    0.0481 C   0  0  0  0  0  0  0  0  0  0  0  0
   -2.7238   -0.5970    0.0382 C   0  0  0  0  0  0  0  0  0  0  0  0
   -4.9130   -0.3810   -0.0981 H   0  0  0  0  0  0  0  0  0  0  0  0
   -3.9112    0.7532   -0.8129 H   0  0  0  0  0  0  0  0  0  0  0  0
   -4.0938    1.0165    0.9600 H   0  0  0  0  0  0  0  0  0  0  0  0
   -1.4071    0.2177   -0.0237 C   0  0  0  0  0  0  0  0  0  0  0  0
   -2.7610   -1.3194   -0.8735 H   0  0  0  0  0  0  0  0  0  0  0  0
   -2.6636   -1.2259    0.8948 H   0  0  0  0  0  0  0  0  0  0  0  0
   -0.1325   -0.7122    0.0521 C   0  0  0  0  0  0  0  0  0  0  0  0
   -1.4540    0.7701    0.7480 H   0  0  0  0  0  0  0  0  0  0  0  0
   -1.3370    0.8752   -0.9628 H   0  0  0  0  0  0  0  0  0  0  0  0
   -0.0728   -1.3412    0.9606 H   0  0  0  0  0  0  0  0  0  0  0  0
    0.7221   -0.1248    0.0887 H   0  0  0  0  0  0  0  0  0  0  0  0
   -0.0556   -1.3960   -0.8295 H   0  0  0  0  0  0  0  0  0  0  0  0
  1  5  1  0  0  0  0
  2  1  1  0  0  0  0
  2  8  1  0  0  0  0
  3  1  1  0  0  0  0
  4  1  1  0  0  0  0
  6  2  1  0  0  0  0
  6  9  1  0  0  0  0
  6 10  1  0  0  0  0
  7  2  1  0  0  0  0
  9 13  1  0  0  0  0
  9 12  1  0  0  0  0
 11  6  1  0  0  0  0
 14  9  1  0  0  0  0
M  END
$$$$
