butane_opt
 OpenBabel08242015383D

 14 13  0  0  0  0  0  0  0  0999 V2000
   -3.9500    0.2491    0.0454 C   0  0  0  0  0  0  0  0  0  0  0  0
   -2.6952   -0.5929    0.0253 C   0  0  0  0  0  0  0  0  0  0  0  0
   -4.9041   -0.3702   -0.0626 H   0  0  0  0  0  0  0  0  0  0  0  0
   -3.8463    0.8092   -0.7880 H   0  0  0  0  0  0  0  0  0  0  0  0
   -3.9761    1.0242    0.9475 H   0  0  0  0  0  0  0  0  0  0  0  0
   -1.3889    0.1883   -0.0141 C   0  0  0  0  0  0  0  0  0  0  0  0
   -2.7144   -1.3630   -0.9180 H   0  0  0  0  0  0  0  0  0  0  0  0
   -2.7378   -1.1371    0.8422 H   0  0  0  0  0  0  0  0  0  0  0  0
   -0.1657   -0.7046    0.0521 C   0  0  0  0  0  0  0  0  0  0  0  0
   -1.4337    0.8433    0.8473 H   0  0  0  0  0  0  0  0  0  0  0  0
   -1.3930    0.8538   -0.9580 H   0  0  0  0  0  0  0  0  0  0  0  0
   -0.0625   -1.4327    1.0397 H   0  0  0  0  0  0  0  0  0  0  0  0
    0.6838   -0.1701   -0.0926 H   0  0  0  0  0  0  0  0  0  0  0  0
   -0.2316   -1.2178   -0.6894 H   0  0  0  0  0  0  0  0  0  0  0  0
  1  5  1  0  0  0  0
  2  1  1  0  0  0  0
  2  8  1  0  0  0  0
  3  1  1  0  0  0  0
  4  1  1  0  0  0  0
  6  2  1  0  0  0  0
  6  9  1  0  0  0  0
  6 10  1  0  0  0  0
  7  2  1  0  0  0  0
  9 12  1  0  0  0  0
 11  6  1  0  0  0  0
 13  9  1  0  0  0  0
 14  9  1  0  0  0  0
M  END
$$$$
