14
butane_opt
C  -3.964681   0.236948   0.055585
C  -2.703519  -0.586773  -0.030818
H  -4.937012  -0.402367   0.020821
H  -4.088249   0.774468  -0.759580
H  -3.862259   1.064061   1.037148
C  -1.397845   0.202649  -0.005350
H  -2.734843  -1.307338  -0.918360
H  -2.723882  -1.173210   0.832807
C  -0.143452  -0.708801   0.075428
H  -1.466338   0.870681   0.767471
H  -1.371550   0.854465  -0.925240
H   0.011560  -1.602337   1.096007
H   0.760342  -0.139323  -0.212713
H  -0.085568  -1.141620  -0.604553
