butane_opt
 OpenBabel08242015383D

 14 13  0  0  0  0  0  0  0  0999 V2000
   -3.9438    0.2521    0.0413 C   0  0  0  0  0  0  0  0  0  0  0  0
   -2.7111   -0.6078    0.0271 C   0  0  0  0  0  0  0  0  0  0  0  0
   -4.8516   -0.3502   -0.1749 H   0  0  0  0  0  0  0  0  0  0  0  0
   -3.8943    0.6693   -0.7817 H   0  0  0  0  0  0  0  0  0  0  0  0
   -3.9653    1.0753    0.9968 H   0  0  0  0  0  0  0  0  0  0  0  0
   -1.4182    0.2176   -0.0203 C   0  0  0  0  0  0  0  0  0  0  0  0
   -2.7340   -1.2610   -0.8046 H   0  0  0  0  0  0  0  0  0  0  0  0
   -2.7200   -1.2347    0.8952 H   0  0  0  0  0  0  0  0  0  0  0  0
   -0.1475   -0.6978    0.0428 C   0  0  0  0  0  0  0  0  0  0  0  0
   -1.3064    0.8369    0.8478 H   0  0  0  0  0  0  0  0  0  0  0  0
   -1.4526    0.7972   -0.8711 H   0  0  0  0  0  0  0  0  0  0  0  0
   -0.1022   -1.5303    1.0960 H   0  0  0  0  0  0  0  0  0  0  0  0
    0.6950   -0.1810   -0.0601 H   0  0  0  0  0  0  0  0  0  0  0  0
   -0.0491   -1.2649   -0.7604 H   0  0  0  0  0  0  0  0  0  0  0  0
  1  5  1  0  0  0  0
  2  1  1  0  0  0  0
  2  8  1  0  0  0  0
  3  1  1  0  0  0  0
  4  1  1  0  0  0  0
  6  2  1  0  0  0  0
  6  9  1  0  0  0  0
  6 10  1  0  0  0  0
  7  2  1  0  0  0  0
  9 12  1  0  0  0  0
 11  6  1  0  0  0  0
 13  9  1  0  0  0  0
 14  9  1  0  0  0  0
M  END
$$$$
