butane_opt
 OpenBabel08242015383D

 14 13  0  0  0  0  0  0  0  0999 V2000
   -3.9512    0.2706    0.0578 C   0  0  0  0  0  0  0  0  0  0  0  0
   -2.7194   -0.6155   -0.0344 C   0  0  0  0  0  0  0  0  0  0  0  0
   -4.9015   -0.3566    0.3123 H   0  0  0  0  0  0  0  0  0  0  0  0
   -4.0652    1.0010   -0.9015 H   0  0  0  0  0  0  0  0  0  0  0  0
   -3.8730    0.7154    0.8406 H   0  0  0  0  0  0  0  0  0  0  0  0
   -1.3973    0.1998   -0.0110 C   0  0  0  0  0  0  0  0  0  0  0  0
   -2.8073   -1.2526   -0.8718 H   0  0  0  0  0  0  0  0  0  0  0  0
   -2.7731   -1.1910    0.8564 H   0  0  0  0  0  0  0  0  0  0  0  0
   -0.1318   -0.7139    0.0724 C   0  0  0  0  0  0  0  0  0  0  0  0
   -1.4717    0.9180    0.8459 H   0  0  0  0  0  0  0  0  0  0  0  0
   -1.3474    0.7829   -0.8993 H   0  0  0  0  0  0  0  0  0  0  0  0
   -0.1484   -1.2856    0.9473 H   0  0  0  0  0  0  0  0  0  0  0  0
    0.8249   -0.1102    0.0365 H   0  0  0  0  0  0  0  0  0  0  0  0
   -0.0675   -1.3799   -0.7676 H   0  0  0  0  0  0  0  0  0  0  0  0
  1  3  1  0  0  0  0
  1  5  1  0  0  0  0
  2  6  1  0  0  0  0
  2  1  1  0  0  0  0
  2  8  1  0  0  0  0
  4  1  1  0  0  0  0
  6  9  1  0  0  0  0
  6 10  1  0  0  0  0
  7  2  1  0  0  0  0
  9 12  1  0  0  0  0
 11  6  1  0  0  0  0
 13  9  1  0  0  0  0
 14  9  1  0  0  0  0
M  END
$$$$
