14
butane_opt
C  -3.939298   0.290114   0.060831
C  -2.693337  -0.629688  -0.014224
H  -4.845081  -0.295384   0.087574
H  -3.982395   0.780854  -0.768004
H  -3.883186   0.986135   0.925796
C  -1.413261   0.162856  -0.014945
H  -2.689067  -1.436422  -0.989408
H  -2.670612  -1.161440   0.794161
C  -0.183013  -0.687227   0.082317
H  -1.428921   0.780447   0.821596
H  -1.264525   0.861126  -0.984008
H  -0.128863  -1.452451   1.066816
H   0.784611   0.014437  -0.195777
H  -0.191299  -1.164807  -0.666330
