14
butane_opt
C  -3.924326   0.288078   0.076353
C  -2.699144  -0.618968  -0.028488
H  -4.824715  -0.280980   0.331345
H  -4.171731   0.958743  -0.862142
H  -3.847457   0.804590   0.844210
C  -1.413939   0.146047  -0.040959
H  -2.743213  -1.495515  -1.027598
H  -2.631223  -1.114190   0.748099
C  -0.173092  -0.674442   0.091336
H  -1.436455   0.813317   0.798555
H  -1.291892   0.834725  -0.963035
H  -0.304907  -1.347869   1.031721
H   0.841977  -0.015346   0.056055
H  -0.098405  -1.297679  -0.708865
