butane_opt
 OpenBabel08242015383D

 14 13  0  0  0  0  0  0  0  0999 V2000
   -3.9433    0.2724    0.0391 C   0  0  0  0  0  0  0  0  0  0  0  0
   -2.6859   -0.6285    0.0251 C   0  0  0  0  0  0  0  0  0  0  0  0
   -4.8301   -0.2909    0.0329 H   0  0  0  0  0  0  0  0  0  0  0  0
   -4.0215    0.8587   -0.8055 H   0  0  0  0  0  0  0  0  0  0  0  0
   -3.9430    1.0004    0.9345 H   0  0  0  0  0  0  0  0  0  0  0  0
   -1.4095    0.1679   -0.0226 C   0  0  0  0  0  0  0  0  0  0  0  0
   -2.7298   -1.3437   -0.8403 H   0  0  0  0  0  0  0  0  0  0  0  0
   -2.7247   -1.2184    0.9096 H   0  0  0  0  0  0  0  0  0  0  0  0
   -0.1603   -0.6752    0.0543 C   0  0  0  0  0  0  0  0  0  0  0  0
   -1.4388    0.7653    0.7537 H   0  0  0  0  0  0  0  0  0  0  0  0
   -1.3629    0.8574   -0.9353 H   0  0  0  0  0  0  0  0  0  0  0  0
   -0.2424   -1.2545    0.9414 H   0  0  0  0  0  0  0  0  0  0  0  0
    0.7606   -0.0851    0.1236 H   0  0  0  0  0  0  0  0  0  0  0  0
   -0.1075   -1.3994   -0.8282 H   0  0  0  0  0  0  0  0  0  0  0  0
  1  5  1  0  0  0  0
  2  1  1  0  0  0  0
  2  8  1  0  0  0  0
  3  1  1  0  0  0  0
  4  1  1  0  0  0  0
  6  2  1  0  0  0  0
  6  9  1  0  0  0  0
  6 10  1  0  0  0  0
  7  2  1  0  0  0  0
  9 13  1  0  0  0  0
  9 12  1  0  0  0  0
 11  6  1  0  0  0  0
 14  9  1  0  0  0  0
M  END
$$$$
