butane_opt
 OpenBabel08242015383D

 14 13  0  0  0  0  0  0  0  0999 V2000
   -3.9202    0.2635    0.0418 C   0  0  0  0  0  0  0  0  0  0  0  0
   -2.7055   -0.6062    0.0177 C   0  0  0  0  0  0  0  0  0  0  0  0
   -4.8684   -0.3790   -0.1408 H   0  0  0  0  0  0  0  0  0  0  0  0
   -3.8856    0.6280   -0.6725 H   0  0  0  0  0  0  0  0  0  0  0  0
   -3.9216    1.0907    1.0330 H   0  0  0  0  0  0  0  0  0  0  0  0
   -1.4245    0.1986   -0.0431 C   0  0  0  0  0  0  0  0  0  0  0  0
   -2.7005   -1.2521   -0.8068 H   0  0  0  0  0  0  0  0  0  0  0  0
   -2.6809   -1.2726    0.9767 H   0  0  0  0  0  0  0  0  0  0  0  0
   -0.1800   -0.7072    0.0614 C   0  0  0  0  0  0  0  0  0  0  0  0
   -1.3429    0.8587    0.7946 H   0  0  0  0  0  0  0  0  0  0  0  0
   -1.3911    0.8972   -0.9648 H   0  0  0  0  0  0  0  0  0  0  0  0
   -0.1346   -1.3786    0.9976 H   0  0  0  0  0  0  0  0  0  0  0  0
    0.7688   -0.1298    0.0711 H   0  0  0  0  0  0  0  0  0  0  0  0
   -0.1047   -1.3305   -0.7524 H   0  0  0  0  0  0  0  0  0  0  0  0
  1  5  1  0  0  0  0
  2  1  1  0  0  0  0
  2  8  1  0  0  0  0
  3  1  1  0  0  0  0
  4  1  1  0  0  0  0
  6  2  1  0  0  0  0
  6  9  1  0  0  0  0
  6 10  1  0  0  0  0
  7  2  1  0  0  0  0
  9 13  1  0  0  0  0
  9 12  1  0  0  0  0
 11  6  1  0  0  0  0
 14  9  1  0  0  0  0
M  END
$$$$
