14
butane_opt
C  -3.953815   0.277436   0.041389
C  -2.697093  -0.633076   0.023331
H  -4.818281  -0.300599  -0.063707
H  -4.007915   0.745812  -0.744527
H  -4.045886   1.073264   0.982048
C  -1.389350   0.179600  -0.027083
H  -2.722109  -1.308003  -0.856369
H  -2.743983  -1.240806   0.905421
C  -0.157531  -0.687298   0.065246
H  -1.397949   0.795916   0.770596
H  -1.375703   0.836345  -0.945274
H  -0.169320  -1.323103   0.966054
H   0.765827  -0.076443  -0.025662
H  -0.134618  -1.310983  -0.764178
