14
butane_opt
C  -3.917371   0.247189   0.006000
C  -2.691473  -0.578764   0.013658
H  -4.949628  -0.427743   0.314501
H  -4.017733   1.039395  -0.979654
H  -3.826740   0.701071   0.739301
C  -1.428660   0.185886   0.039970
H  -2.727209  -1.188681  -0.816512
H  -2.738941  -1.267081   0.924711
C  -0.163749  -0.709722   0.024136
H  -1.384956   0.944676   0.935120
H  -1.439911   0.771622  -0.775835
H  -0.087699  -1.225842   0.874277
H   0.709695  -0.177209   0.023015
H  -0.127232  -1.393247  -0.825796
