14
butane_opt
C  -3.965214   0.288740  -0.022587
C  -2.699080  -0.665648   0.076234
H  -4.811219  -0.260777   0.276714
H  -4.060338   1.202803  -1.116006
H  -3.980964   0.704437   0.629460
C  -1.393184   0.183304   0.067651
H  -2.690310  -1.391825  -0.817021
H  -2.745362  -1.235682   0.941821
C  -0.154276  -0.672242  -0.013236
H  -1.316901   0.895718   0.958791
H  -1.484641   0.723015  -0.705280
H  -0.064284  -1.203898   0.789281
H   0.812812  -0.054593   0.077603
H  -0.161463  -1.433316  -0.916617
