butane_opt
 OpenBabel08242015383D

 14 13  0  0  0  0  0  0  0  0999 V2000
   -3.9372    0.2339   -0.0081 C   0  0  0  0  0  0  0  0  0  0  0  0
   -2.6898   -0.5731    0.0806 C   0  0  0  0  0  0  0  0  0  0  0  0
   -4.8779   -0.3884    0.0540 H   0  0  0  0  0  0  0  0  0  0  0  0
   -3.8720    0.9680   -0.9903 H   0  0  0  0  0  0  0  0  0  0  0  0
   -3.8986    0.8266    0.8108 H   0  0  0  0  0  0  0  0  0  0  0  0
   -1.4213    0.1990    0.0284 C   0  0  0  0  0  0  0  0  0  0  0  0
   -2.7680   -1.1894   -0.7500 H   0  0  0  0  0  0  0  0  0  0  0  0
   -2.7745   -1.3021    1.0297 H   0  0  0  0  0  0  0  0  0  0  0  0
   -0.1532   -0.7155    0.0196 C   0  0  0  0  0  0  0  0  0  0  0  0
   -1.4117    0.8437    0.8825 H   0  0  0  0  0  0  0  0  0  0  0  0
   -1.4903    0.8735   -0.9273 H   0  0  0  0  0  0  0  0  0  0  0  0
   -0.1915   -1.0542    0.6634 H   0  0  0  0  0  0  0  0  0  0  0  0
    0.7627   -0.1334    0.1881 H   0  0  0  0  0  0  0  0  0  0  0  0
   -0.0774   -1.6482   -1.0035 H   0  0  0  0  0  0  0  0  0  0  0  0
  1  3  1  0  0  0  0
  1  2  1  0  0  0  0
  1  5  1  0  0  0  0
  2  8  1  0  0  0  0
  4  1  1  0  0  0  0
  6  2  1  0  0  0  0
  6 10  1  0  0  0  0
  7  2  1  0  0  0  0
  9  6  1  0  0  0  0
  9 13  1  0  0  0  0
  9 12  1  0  0  0  0
 11  6  1  0  0  0  0
 14  9  1  0  0  0  0
M  END
$$$$
