butane_opt
 OpenBabel08242015383D

 14 13  0  0  0  0  0  0  0  0999 V2000
   -3.9629    0.2733   -0.0032 C   0  0  0  0  0  0  0  0  0  0  0  0
   -2.6924   -0.6416    0.0705 C   0  0  0  0  0  0  0  0  0  0  0  0
   -4.8402   -0.2850   -0.0714 H   0  0  0  0  0  0  0  0  0  0  0  0
   -3.9280    0.8416   -0.8669 H   0  0  0  0  0  0  0  0  0  0  0  0
   -4.0218    1.0227    0.8964 H   0  0  0  0  0  0  0  0  0  0  0  0
   -1.3928    0.1867    0.0286 C   0  0  0  0  0  0  0  0  0  0  0  0
   -2.6857   -1.2659   -0.7446 H   0  0  0  0  0  0  0  0  0  0  0  0
   -2.7455   -1.2668    0.9353 H   0  0  0  0  0  0  0  0  0  0  0  0
   -0.1636   -0.6882    0.0068 C   0  0  0  0  0  0  0  0  0  0  0  0
   -1.3485    0.8378    0.8661 H   0  0  0  0  0  0  0  0  0  0  0  0
   -1.3656    0.8368   -0.8766 H   0  0  0  0  0  0  0  0  0  0  0  0
   -0.1166   -1.3092    0.9187 H   0  0  0  0  0  0  0  0  0  0  0  0
    0.7465   -0.0827    0.0230 H   0  0  0  0  0  0  0  0  0  0  0  0
   -0.1833   -1.3658   -0.8611 H   0  0  0  0  0  0  0  0  0  0  0  0
  1  2  1  0  0  0  0
  1  5  1  0  0  0  0
  2  8  1  0  0  0  0
  3  1  1  0  0  0  0
  4  1  1  0  0  0  0
  6  2  1  0  0  0  0
  6 10  1  0  0  0  0
  7  2  1  0  0  0  0
  9 13  1  0  0  0  0
  9  6  1  0  0  0  0
  9 12  1  0  0  0  0
 11  6  1  0  0  0  0
 14  9  1  0  0  0  0
M  END
$$$$
