14
butane_opt
C  -3.942444   0.276554   0.035536
C  -2.691852  -0.637994   0.043791
H  -4.847671  -0.299998  -0.116669
H  -3.915073   0.822655  -0.830447
H  -4.017231   1.005609   0.915688
C  -1.408430   0.182617  -0.007048
H  -2.680000  -1.323635  -0.802804
H  -2.651907  -1.251188   0.914936
C  -0.175303  -0.681794   0.039847
H  -1.386263   0.808354   0.810425
H  -1.377023   0.828550  -0.945146
H  -0.160217  -1.302950   0.938404
H   0.744521  -0.054002   0.040101
H  -0.127397  -1.374556  -0.826990
