butane_opt
 OpenBabel08242015383D

 14 13  0  0  0  0  0  0  0  0999 V2000
   -3.9625    0.2824   -0.0407 C   0  0  0  0  0  0  0  0  0  0  0  0
   -2.7114   -0.6400    0.0776 C   0  0  0  0  0  0  0  0  0  0  0  0
   -4.8551   -0.2198    0.0503 H   0  0  0  0  0  0  0  0  0  0  0  0
   -3.9927    0.8756   -0.9561 H   0  0  0  0  0  0  0  0  0  0  0  0
   -4.0463    0.9330    0.7827 H   0  0  0  0  0  0  0  0  0  0  0  0
   -1.3878    0.1741    0.0749 C   0  0  0  0  0  0  0  0  0  0  0  0
   -2.6666   -1.2622   -0.7105 H   0  0  0  0  0  0  0  0  0  0  0  0
   -2.7570   -1.3545    1.0455 H   0  0  0  0  0  0  0  0  0  0  0  0
   -0.1412   -0.6862   -0.0127 C   0  0  0  0  0  0  0  0  0  0  0  0
   -1.3148    0.9767    0.9964 H   0  0  0  0  0  0  0  0  0  0  0  0
   -1.3548    0.7494   -0.7770 H   0  0  0  0  0  0  0  0  0  0  0  0
   -0.0920   -1.3229    0.8885 H   0  0  0  0  0  0  0  0  0  0  0  0
    0.7995   -0.0662   -0.1642 H   0  0  0  0  0  0  0  0  0  0  0  0
   -0.3091   -1.3420   -0.9027 H   0  0  0  0  0  0  0  0  0  0  0  0
  1  3  1  0  0  0  0
  1  2  1  0  0  0  0
  1  5  1  0  0  0  0
  2  8  1  0  0  0  0
  4  1  1  0  0  0  0
  6  2  1  0  0  0  0
  6 10  1  0  0  0  0
  7  2  1  0  0  0  0
  9  6  1  0  0  0  0
  9 12  1  0  0  0  0
 11  6  1  0  0  0  0
 13  9  1  0  0  0  0
 14  9  1  0  0  0  0
M  END
$$$$
