butane_opt
 OpenBabel08242015383D

 14 13  0  0  0  0  0  0  0  0999 V2000
   -3.9174    0.2472    0.0060 C   0  0  0  0  0  0  0  0  0  0  0  0
   -2.6915   -0.5788    0.0137 C   0  0  0  0  0  0  0  0  0  0  0  0
   -4.9496   -0.4277    0.3145 H   0  0  0  0  0  0  0  0  0  0  0  0
   -4.0177    1.0394   -0.9797 H   0  0  0  0  0  0  0  0  0  0  0  0
   -3.8267    0.7011    0.7393 H   0  0  0  0  0  0  0  0  0  0  0  0
   -1.4287    0.1859    0.0400 C   0  0  0  0  0  0  0  0  0  0  0  0
   -2.7272   -1.1887   -0.8165 H   0  0  0  0  0  0  0  0  0  0  0  0
   -2.7389   -1.2671    0.9247 H   0  0  0  0  0  0  0  0  0  0  0  0
   -0.1637   -0.7097    0.0241 C   0  0  0  0  0  0  0  0  0  0  0  0
   -1.3850    0.9447    0.9351 H   0  0  0  0  0  0  0  0  0  0  0  0
   -1.4399    0.7716   -0.7758 H   0  0  0  0  0  0  0  0  0  0  0  0
   -0.0877   -1.2258    0.8743 H   0  0  0  0  0  0  0  0  0  0  0  0
    0.7097   -0.1772    0.0230 H   0  0  0  0  0  0  0  0  0  0  0  0
   -0.1272   -1.3932   -0.8258 H   0  0  0  0  0  0  0  0  0  0  0  0
  1  2  1  0  0  0  0
  1  3  1  0  0  0  0
  1  5  1  0  0  0  0
  2  6  1  0  0  0  0
  2  8  1  0  0  0  0
  4  1  1  0  0  0  0
  6 10  1  0  0  0  0
  7  2  1  0  0  0  0
  9  6  1  0  0  0  0
  9 12  1  0  0  0  0
 11  6  1  0  0  0  0
 13  9  1  0  0  0  0
 14  9  1  0  0  0  0
M  END
$$$$
