14
butane_opt
C  -3.962178   0.280537  -0.022383
C  -2.715273  -0.635531   0.055223
H  -4.793381  -0.247552   0.255859
H  -4.034233   1.161520  -1.061091
H  -3.938501   0.696122   0.696006
C  -1.389024   0.161562   0.085930
H  -2.676145  -1.287345  -0.739100
H  -2.744776  -1.254786   0.931334
C  -0.148843  -0.686099  -0.011085
H  -1.391763   0.869730   0.938429
H  -1.330987   0.778987  -0.816553
H  -0.069543  -1.143994   0.815932
H   0.786274  -0.070069   0.054552
H  -0.260668  -1.405106  -0.960217
