14
butane_opt
C  -3.946967   0.285848   0.075864
C  -2.688974  -0.629458  -0.004697
H  -4.806751  -0.276818   0.042490
H  -4.048558   0.830833  -0.802587
H  -3.942692   0.990814   0.950778
C  -1.418173   0.140779  -0.062067
H  -2.764326  -1.295546  -0.839053
H  -2.614916  -1.251402   0.837141
C  -0.168779  -0.676867   0.079463
H  -1.465498   0.794214   0.777568
H  -1.265454   0.818081  -0.971490
H  -0.272318  -1.196028   0.949769
H   0.841246  -0.008010   0.193414
H  -0.030233  -1.306043  -0.773736
