butane_opt
 OpenBabel08242015383D

 14 13  0  0  0  0  0  0  0  0999 V2000
   -3.9245    0.2491    0.0656 C   0  0  0  0  0  0  0  0  0  0  0  0
   -2.6969   -0.6047    0.0084 C   0  0  0  0  0  0  0  0  0  0  0  0
   -4.8548   -0.4134   -0.0694 H   0  0  0  0  0  0  0  0  0  0  0  0
   -3.8843    0.8088   -0.7953 H   0  0  0  0  0  0  0  0  0  0  0  0
   -3.8601    0.9990    1.0212 H   0  0  0  0  0  0  0  0  0  0  0  0
   -1.4228    0.2100   -0.0574 C   0  0  0  0  0  0  0  0  0  0  0  0
   -2.7581   -1.3383   -0.8573 H   0  0  0  0  0  0  0  0  0  0  0  0
   -2.6299   -1.2065    0.8873 H   0  0  0  0  0  0  0  0  0  0  0  0
   -0.1726   -0.7046    0.0903 C   0  0  0  0  0  0  0  0  0  0  0  0
   -1.4771    0.7983    0.7617 H   0  0  0  0  0  0  0  0  0  0  0  0
   -1.4457    0.9384   -1.0393 H   0  0  0  0  0  0  0  0  0  0  0  0
   -0.1191   -1.2531    0.9352 H   0  0  0  0  0  0  0  0  0  0  0  0
    0.6893   -0.1496    0.1177 H   0  0  0  0  0  0  0  0  0  0  0  0
   -0.0847   -1.4565   -0.8099 H   0  0  0  0  0  0  0  0  0  0  0  0
  1  5  1  0  0  0  0
  2  1  1  0  0  0  0
  2  8  1  0  0  0  0
  3  1  1  0  0  0  0
  4  1  1  0  0  0  0
  6  2  1  0  0  0  0
  6  9  1  0  0  0  0
  6 10  1  0  0  0  0
  7  2  1  0  0  0  0
  9 13  1  0  0  0  0
  9 12  1  0  0  0  0
 11  6  1  0  0  0  0
 14  9  1  0  0  0  0
M  END
$$$$
