14
butane_opt
C  -3.959126   0.246536   0.061735
C  -2.702774  -0.594947  -0.004571
H  -4.937554  -0.407866   0.096805
H  -3.993211   0.877307  -0.846792
H  -3.929980   0.847219   0.873154
C  -1.413287   0.210428  -0.020642
H  -2.790362  -1.339647  -0.882926
H  -2.666091  -1.149240   0.867181
C  -0.130320  -0.723822   0.060641
H  -1.460073   0.913481   0.814660
H  -1.277580   0.935742  -0.961754
H  -0.132267  -1.328151   0.997091
H   0.730777  -0.169968   0.081532
H  -0.076572  -1.338281  -0.777948
