butane_opt
 OpenBabel08242015383D

 14 13  0  0  0  0  0  0  0  0999 V2000
   -3.9411    0.2665    0.0009 C   0  0  0  0  0  0  0  0  0  0  0  0
   -2.6928   -0.6125    0.0759 C   0  0  0  0  0  0  0  0  0  0  0  0
   -4.8431   -0.2818    0.0023 H   0  0  0  0  0  0  0  0  0  0  0  0
   -3.9054    0.9052   -0.9395 H   0  0  0  0  0  0  0  0  0  0  0  0
   -4.0038    0.9233    0.8447 H   0  0  0  0  0  0  0  0  0  0  0  0
   -1.3962    0.1666    0.0173 C   0  0  0  0  0  0  0  0  0  0  0  0
   -2.7227   -1.2837   -0.7700 H   0  0  0  0  0  0  0  0  0  0  0  0
   -2.7293   -1.2418    0.9759 H   0  0  0  0  0  0  0  0  0  0  0  0
   -0.1736   -0.6865    0.0123 C   0  0  0  0  0  0  0  0  0  0  0  0
   -1.4149    0.8658    0.8571 H   0  0  0  0  0  0  0  0  0  0  0  0
   -1.3967    0.7808   -0.8660 H   0  0  0  0  0  0  0  0  0  0  0  0
   -0.1676   -1.2324    0.8618 H   0  0  0  0  0  0  0  0  0  0  0  0
    0.7794   -0.0488    0.1076 H   0  0  0  0  0  0  0  0  0  0  0  0
   -0.1827   -1.4648   -0.9189 H   0  0  0  0  0  0  0  0  0  0  0  0
  1  3  1  0  0  0  0
  1  2  1  0  0  0  0
  1  5  1  0  0  0  0
  2  8  1  0  0  0  0
  4  1  1  0  0  0  0
  6  2  1  0  0  0  0
  6 10  1  0  0  0  0
  7  2  1  0  0  0  0
  9  6  1  0  0  0  0
  9 13  1  0  0  0  0
  9 12  1  0  0  0  0
 11  6  1  0  0  0  0
 14  9  1  0  0  0  0
M  END
$$$$
