butane_opt
 OpenBabel08242015383D

 14 13  0  0  0  0  0  0  0  0999 V2000
   -3.9212    0.2807   -0.0479 C   0  0  0  0  0  0  0  0  0  0  0  0
   -2.6767   -0.6387    0.0846 C   0  0  0  0  0  0  0  0  0  0  0  0
   -4.8306   -0.3222    0.0396 H   0  0  0  0  0  0  0  0  0  0  0  0
   -4.0334    0.9604   -0.9924 H   0  0  0  0  0  0  0  0  0  0  0  0
   -3.9673    0.9636    0.7983 H   0  0  0  0  0  0  0  0  0  0  0  0
   -1.4144    0.1574    0.0920 C   0  0  0  0  0  0  0  0  0  0  0  0
   -2.6833   -1.2051   -0.7025 H   0  0  0  0  0  0  0  0  0  0  0  0
   -2.7830   -1.3332    0.9859 H   0  0  0  0  0  0  0  0  0  0  0  0
   -0.1828   -0.6677   -0.0294 C   0  0  0  0  0  0  0  0  0  0  0  0
   -1.3390    0.8790    0.9886 H   0  0  0  0  0  0  0  0  0  0  0  0
   -1.4412    0.7083   -0.7563 H   0  0  0  0  0  0  0  0  0  0  0  0
   -0.0786   -1.3018    0.8914 H   0  0  0  0  0  0  0  0  0  0  0  0
    0.7528   -0.1036   -0.1162 H   0  0  0  0  0  0  0  0  0  0  0  0
   -0.2840   -1.2863   -0.8841 H   0  0  0  0  0  0  0  0  0  0  0  0
  1  3  1  0  0  0  0
  1  2  1  0  0  0  0
  1  5  1  0  0  0  0
  2  6  1  0  0  0  0
  2  8  1  0  0  0  0
  4  1  1  0  0  0  0
  6 10  1  0  0  0  0
  7  2  1  0  0  0  0
  9  6  1  0  0  0  0
  9 12  1  0  0  0  0
 11  6  1  0  0  0  0
 13  9  1  0  0  0  0
 14  9  1  0  0  0  0
M  END
$$$$
