14
butane_opt
C  -3.969909   0.288678   0.078250
C  -2.705545  -0.632110  -0.027582
H  -4.844451  -0.282646   0.112792
H  -3.972463   0.808796  -0.703722
H  -3.905789   0.992667   0.979954
C  -1.392449   0.166647  -0.067738
H  -2.775481  -1.296747  -0.902565
H  -2.742113  -1.312088   0.895188
C  -0.143862  -0.684264   0.093811
H  -1.455232   0.806803   0.768844
H  -1.298713   0.853457  -1.020875
H  -0.264344  -1.261057   1.011723
H   0.800109  -0.044211   0.169342
H  -0.049162  -1.396176  -0.788810
