14
butane_opt
C  -3.954482   0.273855  -0.026463
C  -2.711387  -0.613739   0.047972
H  -4.845149  -0.349850   0.294216
H  -4.099326   1.018437  -1.010263
H  -3.829682   0.750956   0.735637
C  -1.398097   0.189271   0.057866
H  -2.749073  -1.307589  -0.760330
H  -2.772998  -1.297192   0.991154
C  -0.157183  -0.690617   0.007235
H  -1.322281   0.927050   0.970562
H  -1.373104   0.775078  -0.799891
H  -0.062530  -1.243057   0.885475
H   0.740038  -0.127942  -0.001429
H  -0.072382  -1.509569  -0.939656
