butane_opt
 OpenBabel08242015383D

 14 13  0  0  0  0  0  0  0  0999 V2000
   -3.9700    0.2840   -0.0383 C   0  0  0  0  0  0  0  0  0  0  0  0
   -2.6976   -0.6510    0.1201 C   0  0  0  0  0  0  0  0  0  0  0  0
   -4.8665   -0.2920   -0.1530 H   0  0  0  0  0  0  0  0  0  0  0  0
   -3.8405    0.8998   -0.9234 H   0  0  0  0  0  0  0  0  0  0  0  0
   -4.1639    1.0557    0.8404 H   0  0  0  0  0  0  0  0  0  0  0  0
   -1.3942    0.1582    0.0534 C   0  0  0  0  0  0  0  0  0  0  0  0
   -2.7632   -1.2751   -0.7293 H   0  0  0  0  0  0  0  0  0  0  0  0
   -2.7066   -1.2762    1.0257 H   0  0  0  0  0  0  0  0  0  0  0  0
   -0.1338   -0.6710   -0.0218 C   0  0  0  0  0  0  0  0  0  0  0  0
   -1.3458    0.8332    0.9195 H   0  0  0  0  0  0  0  0  0  0  0  0
   -1.4378    0.8010   -0.7956 H   0  0  0  0  0  0  0  0  0  0  0  0
   -0.0905   -1.2128    0.8382 H   0  0  0  0  0  0  0  0  0  0  0  0
    0.7796   -0.0650   -0.0302 H   0  0  0  0  0  0  0  0  0  0  0  0
   -0.2462   -1.3870   -0.9154 H   0  0  0  0  0  0  0  0  0  0  0  0
  1  2  1  0  0  0  0
  1  5  1  0  0  0  0
  2  8  1  0  0  0  0
  3  1  1  0  0  0  0
  4  1  1  0  0  0  0
  6  2  1  0  0  0  0
  6 10  1  0  0  0  0
  7  2  1  0  0  0  0
  9  6  1  0  0  0  0
  9 12  1  0  0  0  0
 11  6  1  0  0  0  0
 13  9  1  0  0  0  0
 14  9  1  0  0  0  0
M  END
$$$$
