butane_opt
 OpenBabel08242015383D

 14 13  0  0  0  0  0  0  0  0999 V2000
   -3.9626    0.2652   -0.0349 C   0  0  0  0  0  0  0  0  0  0  0  0
   -2.6881   -0.6244    0.0630 C   0  0  0  0  0  0  0  0  0  0  0  0
   -4.8532   -0.2699   -0.0179 H   0  0  0  0  0  0  0  0  0  0  0  0
   -3.9121    0.8805   -0.9500 H   0  0  0  0  0  0  0  0  0  0  0  0
   -4.0473    0.9940    0.8514 H   0  0  0  0  0  0  0  0  0  0  0  0
   -1.3952    0.1654    0.0831 C   0  0  0  0  0  0  0  0  0  0  0  0
   -2.7081   -1.1917   -0.7032 H   0  0  0  0  0  0  0  0  0  0  0  0
   -2.7207   -1.3117    1.0113 H   0  0  0  0  0  0  0  0  0  0  0  0
   -0.1543   -0.6846   -0.0136 C   0  0  0  0  0  0  0  0  0  0  0  0
   -1.4146    0.8883    0.9845 H   0  0  0  0  0  0  0  0  0  0  0  0
   -1.4462    0.7235   -0.7622 H   0  0  0  0  0  0  0  0  0  0  0  0
    0.0159   -1.3380    0.9081 H   0  0  0  0  0  0  0  0  0  0  0  0
    0.7854   -0.0740   -0.2379 H   0  0  0  0  0  0  0  0  0  0  0  0
   -0.3270   -1.2181   -0.8042 H   0  0  0  0  0  0  0  0  0  0  0  0
  1  3  1  0  0  0  0
  1  2  1  0  0  0  0
  1  5  1  0  0  0  0
  2  6  1  0  0  0  0
  2  8  1  0  0  0  0
  4  1  1  0  0  0  0
  6 10  1  0  0  0  0
  7  2  1  0  0  0  0
  9  6  1  0  0  0  0
  9 12  1  0  0  0  0
 11  6  1  0  0  0  0
 13  9  1  0  0  0  0
 14  9  1  0  0  0  0
M  END
$$$$
