14
butane_opt
C  -3.944965   0.241414  -0.006452
C  -2.708863  -0.589865   0.069414
H  -4.879955  -0.318345   0.123384
H  -3.938601   0.949887  -1.024618
H  -3.981581   0.821437   0.771774
C  -1.406055   0.195102   0.034390
H  -2.766865  -1.197305  -0.724935
H  -2.809342  -1.244783   0.992126
C  -0.138472  -0.717591  -0.001686
H  -1.302655   0.948602   0.914313
H  -1.483018   0.805507  -0.812448
H  -0.171168  -1.181256   0.797935
H   0.738779  -0.135523   0.156132
H  -0.036556  -1.482727  -0.914236
