butane_opt
 OpenBabel08242015383D

 14 13  0  0  0  0  0  0  0  0999 V2000
   -3.9622    0.2805   -0.0224 C   0  0  0  0  0  0  0  0  0  0  0  0
   -2.7153   -0.6355    0.0552 C   0  0  0  0  0  0  0  0  0  0  0  0
   -4.7934   -0.2476    0.2559 H   0  0  0  0  0  0  0  0  0  0  0  0
   -4.0342    1.1615   -1.0611 H   0  0  0  0  0  0  0  0  0  0  0  0
   -3.9385    0.6961    0.6960 H   0  0  0  0  0  0  0  0  0  0  0  0
   -1.3890    0.1616    0.0859 C   0  0  0  0  0  0  0  0  0  0  0  0
   -2.6761   -1.2873   -0.7391 H   0  0  0  0  0  0  0  0  0  0  0  0
   -2.7448   -1.2548    0.9313 H   0  0  0  0  0  0  0  0  0  0  0  0
   -0.1488   -0.6861   -0.0111 C   0  0  0  0  0  0  0  0  0  0  0  0
   -1.3918    0.8697    0.9384 H   0  0  0  0  0  0  0  0  0  0  0  0
   -1.3310    0.7790   -0.8166 H   0  0  0  0  0  0  0  0  0  0  0  0
   -0.0695   -1.1440    0.8159 H   0  0  0  0  0  0  0  0  0  0  0  0
    0.7863   -0.0701    0.0546 H   0  0  0  0  0  0  0  0  0  0  0  0
   -0.2607   -1.4051   -0.9602 H   0  0  0  0  0  0  0  0  0  0  0  0
  1  2  1  0  0  0  0
  1  3  1  0  0  0  0
  1  5  1  0  0  0  0
  2  6  1  0  0  0  0
  2  8  1  0  0  0  0
  4  1  1  0  0  0  0
  6 10  1  0  0  0  0
  7  2  1  0  0  0  0
  9 13  1  0  0  0  0
  9  6  1  0  0  0  0
  9 12  1  0  0  0  0
 11  6  1  0  0  0  0
 14  9  1  0  0  0  0
M  END
$$$$
