14
butane_opt
C  -3.942293   0.248960   0.048118
C  -2.723802  -0.597024   0.038230
H  -4.912964  -0.380981  -0.098095
H  -3.911196   0.753186  -0.812870
H  -4.093830   1.016522   0.960039
C  -1.407117   0.217725  -0.023729
H  -2.761006  -1.319378  -0.873456
H  -2.663594  -1.225904   0.894751
C  -0.132543  -0.712245   0.052075
H  -1.454034   0.770137   0.748048
H  -1.337034   0.875220  -0.962795
H  -0.072806  -1.341227   0.960613
H   0.722139  -0.124824   0.088737
H  -0.055583  -1.395990  -0.829485
