butane_opt
 OpenBabel08242015383D

 14 13  0  0  0  0  0  0  0  0999 V2000
   -3.9295    0.2753    0.0447 C   0  0  0  0  0  0  0  0  0  0  0  0
   -2.6756   -0.6348    0.0279 C   0  0  0  0  0  0  0  0  0  0  0  0
   -4.8506   -0.2665   -0.1620 H   0  0  0  0  0  0  0  0  0  0  0  0
   -3.8942    0.7176   -0.7593 H   0  0  0  0  0  0  0  0  0  0  0  0
   -4.0452    1.1262    1.0175 H   0  0  0  0  0  0  0  0  0  0  0  0
   -1.4162    0.1652   -0.0367 C   0  0  0  0  0  0  0  0  0  0  0  0
   -2.7811   -1.3194   -0.8770 H   0  0  0  0  0  0  0  0  0  0  0  0
   -2.6108   -1.2316    0.9169 H   0  0  0  0  0  0  0  0  0  0  0  0
   -0.1791   -0.6631    0.0608 C   0  0  0  0  0  0  0  0  0  0  0  0
   -1.4013    0.8040    0.8077 H   0  0  0  0  0  0  0  0  0  0  0  0
   -1.3967    0.7485   -0.8814 H   0  0  0  0  0  0  0  0  0  0  0  0
   -0.1354   -1.4706    1.0483 H   0  0  0  0  0  0  0  0  0  0  0  0
    0.7118   -0.0862   -0.0446 H   0  0  0  0  0  0  0  0  0  0  0  0
   -0.2213   -1.2058   -0.7555 H   0  0  0  0  0  0  0  0  0  0  0  0
  1  5  1  0  0  0  0
  2  1  1  0  0  0  0
  2  8  1  0  0  0  0
  3  1  1  0  0  0  0
  4  1  1  0  0  0  0
  6  2  1  0  0  0  0
  6  9  1  0  0  0  0
  6 10  1  0  0  0  0
  7  2  1  0  0  0  0
  9 12  1  0  0  0  0
 11  6  1  0  0  0  0
 13  9  1  0  0  0  0
 14  9  1  0  0  0  0
M  END
$$$$
