butane_opt
 OpenBabel08242015383D

 14 13  0  0  0  0  0  0  0  0999 V2000
   -3.9344    0.2482    0.0573 C   0  0  0  0  0  0  0  0  0  0  0  0
   -2.6867   -0.6058   -0.0099 C   0  0  0  0  0  0  0  0  0  0  0  0
   -4.8495   -0.3778    0.3281 H   0  0  0  0  0  0  0  0  0  0  0  0
   -3.9447    1.0348   -0.9804 H   0  0  0  0  0  0  0  0  0  0  0  0
   -3.8618    0.7445    0.7976 H   0  0  0  0  0  0  0  0  0  0  0  0
   -1.4148    0.2132   -0.0037 C   0  0  0  0  0  0  0  0  0  0  0  0
   -2.7471   -1.3690   -0.9681 H   0  0  0  0  0  0  0  0  0  0  0  0
   -2.7350   -1.1697    0.8280 H   0  0  0  0  0  0  0  0  0  0  0  0
   -0.1704   -0.7125    0.0569 C   0  0  0  0  0  0  0  0  0  0  0  0
   -1.4601    0.9255    0.8687 H   0  0  0  0  0  0  0  0  0  0  0  0
   -1.4097    0.8625   -0.8983 H   0  0  0  0  0  0  0  0  0  0  0  0
   -0.1681   -1.3306    0.9181 H   0  0  0  0  0  0  0  0  0  0  0  0
    0.7054   -0.1633    0.0830 H   0  0  0  0  0  0  0  0  0  0  0  0
   -0.0706   -1.3429   -0.7480 H   0  0  0  0  0  0  0  0  0  0  0  0
  1  3  1  0  0  0  0
  1  5  1  0  0  0  0
  2  6  1  0  0  0  0
  2  1  1  0  0  0  0
  2  8  1  0  0  0  0
  4  1  1  0  0  0  0
  6  9  1  0  0  0  0
  6 10  1  0  0  0  0
  7  2  1  0  0  0  0
  9 13  1  0  0  0  0
  9 12  1  0  0  0  0
 11  6  1  0  0  0  0
 14  9  1  0  0  0  0
M  END
$$$$
