butane_opt
 OpenBabel08242015383D

 14 13  0  0  0  0  0  0  0  0999 V2000
   -3.9281    0.2553    0.0313 C   0  0  0  0  0  0  0  0  0  0  0  0
   -2.7090   -0.6065    0.0591 C   0  0  0  0  0  0  0  0  0  0  0  0
   -4.8481   -0.3487   -0.2861 H   0  0  0  0  0  0  0  0  0  0  0  0
   -3.8489    0.6640   -0.7357 H   0  0  0  0  0  0  0  0  0  0  0  0
   -4.0169    1.0820    1.0115 H   0  0  0  0  0  0  0  0  0  0  0  0
   -1.4164    0.2157   -0.0198 C   0  0  0  0  0  0  0  0  0  0  0  0
   -2.7218   -1.2702   -0.8377 H   0  0  0  0  0  0  0  0  0  0  0  0
   -2.7697   -1.2405    0.9508 H   0  0  0  0  0  0  0  0  0  0  0  0
   -0.1630   -0.7192    0.0521 C   0  0  0  0  0  0  0  0  0  0  0  0
   -1.3712    0.8261    0.7898 H   0  0  0  0  0  0  0  0  0  0  0  0
   -1.3595    0.8954   -0.9653 H   0  0  0  0  0  0  0  0  0  0  0  0
   -0.0759   -1.3792    0.9521 H   0  0  0  0  0  0  0  0  0  0  0  0
    0.7479   -0.0780   -0.0620 H   0  0  0  0  0  0  0  0  0  0  0  0
   -0.1594   -1.3778   -0.8287 H   0  0  0  0  0  0  0  0  0  0  0  0
  1  2  1  0  0  0  0
  1  5  1  0  0  0  0
  2  8  1  0  0  0  0
  3  1  1  0  0  0  0
  4  1  1  0  0  0  0
  6  9  1  0  0  0  0
  6  2  1  0  0  0  0
  6 10  1  0  0  0  0
  7  2  1  0  0  0  0
  9 12  1  0  0  0  0
 11  6  1  0  0  0  0
 13  9  1  0  0  0  0
 14  9  1  0  0  0  0
M  END
$$$$
