butane_opt
 OpenBabel08242015383D

 14 13  0  0  0  0  0  0  0  0999 V2000
   -3.9274    0.2759    0.0455 C   0  0  0  0  0  0  0  0  0  0  0  0
   -2.6778   -0.6285    0.0314 C   0  0  0  0  0  0  0  0  0  0  0  0
   -4.8249   -0.2736   -0.1707 H   0  0  0  0  0  0  0  0  0  0  0  0
   -3.9798    0.6148   -0.6780 H   0  0  0  0  0  0  0  0  0  0  0  0
   -3.9686    1.1117    1.0296 H   0  0  0  0  0  0  0  0  0  0  0  0
   -1.4061    0.1860   -0.0380 C   0  0  0  0  0  0  0  0  0  0  0  0
   -2.7285   -1.3641   -0.8412 H   0  0  0  0  0  0  0  0  0  0  0  0
   -2.7260   -1.1619    0.8787 H   0  0  0  0  0  0  0  0  0  0  0  0
   -0.1912   -0.6944    0.0622 C   0  0  0  0  0  0  0  0  0  0  0  0
   -1.4557    0.7306    0.7350 H   0  0  0  0  0  0  0  0  0  0  0  0
   -1.3453    0.8949   -1.0012 H   0  0  0  0  0  0  0  0  0  0  0  0
   -0.2022   -1.3611    1.0421 H   0  0  0  0  0  0  0  0  0  0  0  0
    0.7657   -0.0346   -0.0112 H   0  0  0  0  0  0  0  0  0  0  0  0
   -0.1405   -1.2945   -0.7377 H   0  0  0  0  0  0  0  0  0  0  0  0
  1  5  1  0  0  0  0
  2  1  1  0  0  0  0
  2  8  1  0  0  0  0
  3  1  1  0  0  0  0
  4  1  1  0  0  0  0
  6  2  1  0  0  0  0
  6  9  1  0  0  0  0
  6 10  1  0  0  0  0
  7  2  1  0  0  0  0
  9 12  1  0  0  0  0
 11  6  1  0  0  0  0
 13  9  1  0  0  0  0
 14  9  1  0  0  0  0
M  END
$$$$
