butane_opt
 OpenBabel08242015383D

 14 13  0  0  0  0  0  0  0  0999 V2000
   -3.9588    0.2725    0.0648 C   0  0  0  0  0  0  0  0  0  0  0  0
   -2.6957   -0.6356   -0.0233 C   0  0  0  0  0  0  0  0  0  0  0  0
   -4.8114   -0.2236    0.0307 H   0  0  0  0  0  0  0  0  0  0  0  0
   -4.1298    0.8728   -0.7807 H   0  0  0  0  0  0  0  0  0  0  0  0
   -3.9595    1.0259    0.9863 H   0  0  0  0  0  0  0  0  0  0  0  0
   -1.3914    0.1682   -0.0286 C   0  0  0  0  0  0  0  0  0  0  0  0
   -2.7997   -1.4004   -0.9253 H   0  0  0  0  0  0  0  0  0  0  0  0
   -2.6940   -1.1781    0.8340 H   0  0  0  0  0  0  0  0  0  0  0  0
   -0.1654   -0.6838    0.0863 C   0  0  0  0  0  0  0  0  0  0  0  0
   -1.4378    0.8462    0.7936 H   0  0  0  0  0  0  0  0  0  0  0  0
   -1.2037    0.8424   -0.9441 H   0  0  0  0  0  0  0  0  0  0  0  0
   -0.0602   -1.4716    1.0594 H   0  0  0  0  0  0  0  0  0  0  0  0
    0.8054   -0.0087   -0.1372 H   0  0  0  0  0  0  0  0  0  0  0  0
   -0.2060   -1.2193   -0.6637 H   0  0  0  0  0  0  0  0  0  0  0  0
  1  5  1  0  0  0  0
  2  1  1  0  0  0  0
  2  8  1  0  0  0  0
  3  1  1  0  0  0  0
  4  1  1  0  0  0  0
  6  2  1  0  0  0  0
  6  9  1  0  0  0  0
  6 10  1  0  0  0  0
  7  2  1  0  0  0  0
  9 12  1  0  0  0  0
 11  6  1  0  0  0  0
 13  9  1  0  0  0  0
 14  9  1  0  0  0  0
M  END
$$$$
