butane_opt
 OpenBabel08242015383D

 14 13  0  0  0  0  0  0  0  0999 V2000
   -3.9450    0.2414   -0.0065 C   0  0  0  0  0  0  0  0  0  0  0  0
   -2.7089   -0.5899    0.0694 C   0  0  0  0  0  0  0  0  0  0  0  0
   -4.8800   -0.3183    0.1234 H   0  0  0  0  0  0  0  0  0  0  0  0
   -3.9386    0.9499   -1.0246 H   0  0  0  0  0  0  0  0  0  0  0  0
   -3.9816    0.8214    0.7718 H   0  0  0  0  0  0  0  0  0  0  0  0
   -1.4061    0.1951    0.0344 C   0  0  0  0  0  0  0  0  0  0  0  0
   -2.7669   -1.1973   -0.7249 H   0  0  0  0  0  0  0  0  0  0  0  0
   -2.8093   -1.2448    0.9921 H   0  0  0  0  0  0  0  0  0  0  0  0
   -0.1385   -0.7176   -0.0017 C   0  0  0  0  0  0  0  0  0  0  0  0
   -1.3027    0.9486    0.9143 H   0  0  0  0  0  0  0  0  0  0  0  0
   -1.4830    0.8055   -0.8124 H   0  0  0  0  0  0  0  0  0  0  0  0
   -0.1712   -1.1813    0.7979 H   0  0  0  0  0  0  0  0  0  0  0  0
    0.7388   -0.1355    0.1561 H   0  0  0  0  0  0  0  0  0  0  0  0
   -0.0366   -1.4827   -0.9142 H   0  0  0  0  0  0  0  0  0  0  0  0
  1  2  1  0  0  0  0
  1  3  1  0  0  0  0
  1  5  1  0  0  0  0
  2  8  1  0  0  0  0
  4  1  1  0  0  0  0
  6  2  1  0  0  0  0
  6 10  1  0  0  0  0
  7  2  1  0  0  0  0
  9  6  1  0  0  0  0
  9 13  1  0  0  0  0
  9 12  1  0  0  0  0
 11  6  1  0  0  0  0
 14  9  1  0  0  0  0
M  END
$$$$
