14
butane_opt
C  -3.929281   0.257973  -0.004400
C  -2.719955  -0.612666   0.064633
H  -4.880393  -0.397990  -0.018306
H  -3.922984   1.011391  -0.976731
H  -3.997925   0.777911   0.740918
C  -1.409859   0.202105   0.062554
H  -2.746680  -1.261761  -0.760021
H  -2.771292  -1.160186   0.924656
C  -0.137990  -0.709376  -0.004249
H  -1.427661   0.938706   0.945967
H  -1.449598   0.822604  -0.760902
H  -0.044020  -1.372186   0.898636
H   0.789883  -0.132189  -0.124969
H  -0.201696  -1.365172  -0.872674
