14
butane_opt
C  -3.954451   0.286929   0.006139
C  -2.676910  -0.631399   0.045124
H  -4.868155  -0.359459   0.075743
H  -4.060873   0.991198  -0.956535
H  -3.985294   0.815033   0.743987
C  -1.392755   0.166269   0.061086
H  -2.643314  -1.382252  -0.921832
H  -2.695909  -1.248209   0.923734
C  -0.172722  -0.680280   0.010083
H  -1.312950   0.867270   0.923741
H  -1.466606   0.810875  -0.838670
H  -0.117772  -1.349577   0.930212
H   0.756561  -0.055762  -0.112901
H  -0.259099  -1.253910  -0.792408
