butane_opt
 OpenBabel08242015383D

 14 13  0  0  0  0  0  0  0  0999 V2000
   -3.9492    0.2838   -0.0256 C   0  0  0  0  0  0  0  0  0  0  0  0
   -2.6880   -0.6368    0.0791 C   0  0  0  0  0  0  0  0  0  0  0  0
   -4.8189   -0.2873   -0.0019 H   0  0  0  0  0  0  0  0  0  0  0  0
   -3.8594    0.9826   -1.0260 H   0  0  0  0  0  0  0  0  0  0  0  0
   -4.0252    0.8775    0.8251 H   0  0  0  0  0  0  0  0  0  0  0  0
   -1.3947    0.1686    0.0828 C   0  0  0  0  0  0  0  0  0  0  0  0
   -2.6192   -1.3269   -0.8041 H   0  0  0  0  0  0  0  0  0  0  0  0
   -2.7112   -1.2348    0.9429 H   0  0  0  0  0  0  0  0  0  0  0  0
   -0.1896   -0.6867   -0.0216 C   0  0  0  0  0  0  0  0  0  0  0  0
   -1.3287    0.8919    0.9838 H   0  0  0  0  0  0  0  0  0  0  0  0
   -1.3487    0.7074   -0.7420 H   0  0  0  0  0  0  0  0  0  0  0  0
   -0.0505   -1.3831    0.9000 H   0  0  0  0  0  0  0  0  0  0  0  0
    0.7442   -0.0659   -0.2041 H   0  0  0  0  0  0  0  0  0  0  0  0
   -0.3488   -1.1603   -0.7972 H   0  0  0  0  0  0  0  0  0  0  0  0
  1  3  1  0  0  0  0
  1  2  1  0  0  0  0
  1  5  1  0  0  0  0
  2  6  1  0  0  0  0
  2  8  1  0  0  0  0
  4  1  1  0  0  0  0
  6 10  1  0  0  0  0
  7  2  1  0  0  0  0
  9  6  1  0  0  0  0
  9 12  1  0  0  0  0
 11  6  1  0  0  0  0
 13  9  1  0  0  0  0
 14  9  1  0  0  0  0
M  END
$$$$
