14
butane_opt
C  -3.935567   0.246456  -0.032468
C  -2.698585  -0.604845   0.083801
H  -4.826494  -0.280019  -0.022718
H  -3.911008   0.975154  -1.024725
H  -3.998588   0.888316   0.800654
C  -1.411341   0.191964   0.088098
H  -2.739265  -1.254918  -0.720942
H  -2.756315  -1.230835   0.945073
C  -0.162645  -0.703825  -0.028384
H  -1.309052   0.883471   0.979413
H  -1.440842   0.756871  -0.741984
H  -0.050821  -1.381044   0.878850
H   0.753533  -0.130665  -0.121346
H  -0.243389  -1.245655  -0.861939
