butane_opt
 OpenBabel08242015383D

 14 13  0  0  0  0  0  0  0  0999 V2000
   -3.9379    0.2718   -0.0567 C   0  0  0  0  0  0  0  0  0  0  0  0
   -2.6922   -0.6397    0.1194 C   0  0  0  0  0  0  0  0  0  0  0  0
   -4.7992   -0.2541   -0.0970 H   0  0  0  0  0  0  0  0  0  0  0  0
   -3.9223    0.8416   -0.9617 H   0  0  0  0  0  0  0  0  0  0  0  0
   -4.0176    1.1067    0.8901 H   0  0  0  0  0  0  0  0  0  0  0  0
   -1.4012    0.1753    0.0684 C   0  0  0  0  0  0  0  0  0  0  0  0
   -2.6357   -1.2528   -0.6737 H   0  0  0  0  0  0  0  0  0  0  0  0
   -2.8175   -1.3408    1.1101 H   0  0  0  0  0  0  0  0  0  0  0  0
   -0.1734   -0.6913   -0.0339 C   0  0  0  0  0  0  0  0  0  0  0  0
   -1.3320    0.8990    0.9748 H   0  0  0  0  0  0  0  0  0  0  0  0
   -1.3899    0.7772   -0.8315 H   0  0  0  0  0  0  0  0  0  0  0  0
   -0.1332   -1.2451    0.8243 H   0  0  0  0  0  0  0  0  0  0  0  0
    0.7719   -0.0467   -0.0161 H   0  0  0  0  0  0  0  0  0  0  0  0
   -0.2920   -1.3448   -0.9309 H   0  0  0  0  0  0  0  0  0  0  0  0
  1  2  1  0  0  0  0
  1  5  1  0  0  0  0
  2  8  1  0  0  0  0
  3  1  1  0  0  0  0
  4  1  1  0  0  0  0
  6  2  1  0  0  0  0
  6 10  1  0  0  0  0
  7  2  1  0  0  0  0
  9 13  1  0  0  0  0
  9  6  1  0  0  0  0
  9 12  1  0  0  0  0
 11  6  1  0  0  0  0
 14  9  1  0  0  0  0
M  END
$$$$
