14
butane_opt
C  -3.924610   0.247923   0.005121
C  -2.702542  -0.600856   0.038457
H  -4.860427  -0.355456   0.049067
H  -3.971369   0.876533  -0.874738
H  -3.905360   0.962357   0.882635
C  -1.407215   0.201251   0.025784
H  -2.748765  -1.299590  -0.864927
H  -2.732671  -1.236790   0.936707
C  -0.162047  -0.705180   0.022890
H  -1.398434   0.921963   0.907929
H  -1.461715   0.799742  -0.831265
H  -0.099558  -1.442810   1.009982
H   0.725768  -0.130718  -0.103576
H  -0.203654  -1.289558  -0.766163
