butane_opt
 OpenBabel08242015383D

 14 13  0  0  0  0  0  0  0  0999 V2000
   -3.9601    0.2736   -0.0231 C   0  0  0  0  0  0  0  0  0  0  0  0
   -2.7074   -0.6268    0.0948 C   0  0  0  0  0  0  0  0  0  0  0  0
   -4.8404   -0.3197    0.1050 H   0  0  0  0  0  0  0  0  0  0  0  0
   -3.9909    0.9538   -0.9927 H   0  0  0  0  0  0  0  0  0  0  0  0
   -3.9879    0.7787    0.7230 H   0  0  0  0  0  0  0  0  0  0  0  0
   -1.3750    0.1980    0.0350 C   0  0  0  0  0  0  0  0  0  0  0  0
   -2.6966   -1.1930   -0.7063 H   0  0  0  0  0  0  0  0  0  0  0  0
   -2.7832   -1.3696    1.0421 H   0  0  0  0  0  0  0  0  0  0  0  0
   -0.1685   -0.7000   -0.0153 C   0  0  0  0  0  0  0  0  0  0  0  0
   -1.2744    0.9671    0.9432 H   0  0  0  0  0  0  0  0  0  0  0  0
   -1.4919    0.8090   -0.8109 H   0  0  0  0  0  0  0  0  0  0  0  0
   -0.1702   -1.1160    0.7359 H   0  0  0  0  0  0  0  0  0  0  0  0
    0.7269   -0.1153    0.2761 H   0  0  0  0  0  0  0  0  0  0  0  0
    0.0114   -1.6088   -0.9943 H   0  0  0  0  0  0  0  0  0  0  0  0
  1  2  1  0  0  0  0
  1  3  1  0  0  0  0
  1  5  1  0  0  0  0
  2  8  1  0  0  0  0
  4  1  1  0  0  0  0
  6  2  1  0  0  0  0
  6 10  1  0  0  0  0
  7  2  1  0  0  0  0
  9  6  1  0  0  0  0
  9 13  1  0  0  0  0
  9 12  1  0  0  0  0
 11  6  1  0  0  0  0
 14  9  1  0  0  0  0
M  END
$$$$
