14
butane_opt
C  -3.922847   0.250211   0.052848
C  -2.713876  -0.594800  -0.023953
H  -4.794336  -0.305759   0.086287
H  -3.935864   0.728395  -0.770713
H  -3.886101   1.000388   0.958011
C  -1.404933   0.197646  -0.001109
H  -2.776584  -1.355210  -0.926236
H  -2.762344  -1.192205   0.805805
C  -0.164210  -0.702861   0.076204
H  -1.431158   0.812163   0.815528
H  -1.432502   0.966709  -0.960322
H  -0.037353  -1.535427   1.075082
H   0.693414  -0.151131  -0.180669
H  -0.199831  -1.235132  -0.671572
