14
butane_opt
C  -3.956184   0.247395  -0.033665
C  -2.700440  -0.613093   0.083980
H  -4.851235  -0.333943  -0.006279
H  -3.905310   0.887463  -0.993604
H  -4.000915   0.829356   0.740804
C  -1.413691   0.209607   0.078610
H  -2.705091  -1.225651  -0.745227
H  -2.760783  -1.179245   0.986679
C  -0.145954  -0.702839  -0.016459
H  -1.276525   1.008625   1.025856
H  -1.483127   0.724608  -0.724315
H   0.026447  -1.396821   0.917242
H   0.658227  -0.212096  -0.270947
H  -0.125036  -1.280943  -0.840692
