14
butane_opt
C  -3.962593   0.265170  -0.034872
C  -2.688138  -0.624423   0.062972
H  -4.853164  -0.269941  -0.017869
H  -3.912130   0.880496  -0.950032
H  -4.047299   0.993959   0.851416
C  -1.395180   0.165382   0.083097
H  -2.708147  -1.191659  -0.703156
H  -2.720681  -1.311689   1.011267
C  -0.154294  -0.684571  -0.013644
H  -1.414565   0.888340   0.984488
H  -1.446202   0.723470  -0.762177
H   0.015925  -1.338050   0.908124
H   0.785424  -0.074036  -0.237867
H  -0.327020  -1.218108  -0.804236
