butane_opt
 OpenBabel08242015383D

 14 13  0  0  0  0  0  0  0  0999 V2000
   -3.9600    0.2394   -0.0426 C   0  0  0  0  0  0  0  0  0  0  0  0
   -2.7213   -0.5994    0.0968 C   0  0  0  0  0  0  0  0  0  0  0  0
   -4.8707   -0.3309   -0.1339 H   0  0  0  0  0  0  0  0  0  0  0  0
   -3.8869    0.8375   -0.9270 H   0  0  0  0  0  0  0  0  0  0  0  0
   -4.0031    1.0031    0.8598 H   0  0  0  0  0  0  0  0  0  0  0  0
   -1.4083    0.2063    0.0754 C   0  0  0  0  0  0  0  0  0  0  0  0
   -2.6315   -1.1594   -0.6689 H   0  0  0  0  0  0  0  0  0  0  0  0
   -2.7843   -1.3611    1.0955 H   0  0  0  0  0  0  0  0  0  0  0  0
   -0.1281   -0.7138   -0.0269 C   0  0  0  0  0  0  0  0  0  0  0  0
   -1.3304    0.9321    0.9557 H   0  0  0  0  0  0  0  0  0  0  0  0
   -1.5148    0.7948   -0.8311 H   0  0  0  0  0  0  0  0  0  0  0  0
   -0.0050   -1.2724    0.8301 H   0  0  0  0  0  0  0  0  0  0  0  0
    0.7908   -0.1522   -0.0443 H   0  0  0  0  0  0  0  0  0  0  0  0
   -0.1704   -1.3572   -0.9147 H   0  0  0  0  0  0  0  0  0  0  0  0
  1  2  1  0  0  0  0
  1  5  1  0  0  0  0
  2  8  1  0  0  0  0
  3  1  1  0  0  0  0
  4  1  1  0  0  0  0
  6  2  1  0  0  0  0
  6 10  1  0  0  0  0
  7  2  1  0  0  0  0
  9  6  1  0  0  0  0
  9 12  1  0  0  0  0
 11  6  1  0  0  0  0
 13  9  1  0  0  0  0
 14  9  1  0  0  0  0
M  END
$$$$
