14
butane_opt
C  -3.941296   0.255982   0.042566
C  -2.718815  -0.618808   0.038797
H  -4.852128  -0.375497   0.077608
H  -3.981567   0.960110  -0.926673
H  -4.031450   0.930508   0.891008
C  -1.403238   0.219884  -0.032339
H  -2.824329  -1.348044  -0.814251
H  -2.690515  -1.242957   0.902871
C  -0.138191  -0.718219   0.056756
H  -1.356146   0.874533   0.789011
H  -1.348595   0.873808  -0.951696
H  -0.242308  -1.141109   0.847587
H   0.746452  -0.116490   0.195441
H  -0.005043  -1.558735  -0.868653
