14
butane_opt
C  -3.956233   0.286986  -0.005593
C  -2.680719  -0.642413   0.084888
H  -4.818509  -0.269558  -0.204078
H  -3.883905   0.806110  -0.901688
H  -4.054573   1.063348   0.917366
C  -1.388999   0.173793   0.025999
H  -2.701778  -1.277966  -0.773560
H  -2.800975  -1.341639   1.042828
C  -0.174840  -0.681708  -0.007170
H  -1.288268   0.882078   0.945045
H  -1.460818   0.736460  -0.803072
H  -0.212028  -1.375024   0.945631
H   0.801778  -0.026551  -0.045349
H  -0.206856  -1.291718  -0.841130
