14
butane_opt
C  -3.947347   0.273835  -0.044632
C  -2.666928  -0.649902   0.111461
H  -4.832966  -0.231012  -0.064310
H  -3.905892   0.965753  -1.002568
H  -4.045261   0.984524   0.847182
C  -1.408002   0.167331   0.064302
H  -2.698659  -1.310768  -0.740468
H  -2.756576  -1.299940   1.007724
C  -0.175253  -0.672522  -0.026886
H  -1.288113   0.922350   1.012799
H  -1.528247   0.732107  -0.767258
H  -0.111328  -1.311881   0.859676
H   0.774300  -0.044547  -0.055237
H  -0.272917  -1.287962  -0.896355
