14
butane_opt
C  -3.952725   0.232519   0.061325
C  -2.724655  -0.590628   0.017428
H  -4.832579  -0.325826  -0.191587
H  -3.925076   0.707155  -0.723510
H  -4.045251   1.036492   1.026887
C  -1.410232   0.202840  -0.031108
H  -2.799636  -1.277265  -0.890255
H  -2.601733  -1.122744   0.824192
C  -0.120704  -0.709990   0.062969
H  -1.425728   0.814181   0.752987
H  -1.411987   0.951310  -1.000604
H  -0.133156  -1.428075   1.040681
H   0.761391  -0.203753  -0.005513
H  -0.090495  -1.259013  -0.701816
