14
butane_opt
C  -3.940906   0.244863   0.044801
C  -2.702669  -0.603642  -0.003027
H  -4.906756  -0.434231   0.167570
H  -4.108626   1.000960  -0.925520
H  -3.865665   0.837645   0.837042
C  -1.402852   0.209132   0.015427
H  -2.769815  -1.312931  -0.932465
H  -2.663771  -1.173802   0.834671
C  -0.154813  -0.702183   0.054388
H  -1.460106   0.861647   0.845085
H  -1.387276   0.897517  -0.930025
H  -0.042811  -1.370520   0.974245
H   0.702508  -0.205153  -0.013408
H  -0.087974  -1.362958  -0.771585
