butane_opt
 OpenBabel08242015383D

 14 13  0  0  0  0  0  0  0  0999 V2000
   -3.9544    0.2800   -0.0426 C   0  0  0  0  0  0  0  0  0  0  0  0
   -2.7007   -0.6216    0.0869 C   0  0  0  0  0  0  0  0  0  0  0  0
   -4.8437   -0.2747    0.0370 H   0  0  0  0  0  0  0  0  0  0  0  0
   -3.9780    1.0072   -0.9816 H   0  0  0  0  0  0  0  0  0  0  0  0
   -4.1525    0.8882    0.7034 H   0  0  0  0  0  0  0  0  0  0  0  0
   -1.3824    0.1549    0.0983 C   0  0  0  0  0  0  0  0  0  0  0  0
   -2.6428   -1.3465   -0.7961 H   0  0  0  0  0  0  0  0  0  0  0  0
   -2.7995   -1.2819    1.0320 H   0  0  0  0  0  0  0  0  0  0  0  0
   -0.1583   -0.6838   -0.0210 C   0  0  0  0  0  0  0  0  0  0  0  0
   -1.3041    0.9157    1.0138 H   0  0  0  0  0  0  0  0  0  0  0  0
   -1.3635    0.6926   -0.7637 H   0  0  0  0  0  0  0  0  0  0  0  0
    0.0027   -1.3018    0.8856 H   0  0  0  0  0  0  0  0  0  0  0  0
    0.8035   -0.0255   -0.3010 H   0  0  0  0  0  0  0  0  0  0  0  0
   -0.3905   -1.2874   -0.8465 H   0  0  0  0  0  0  0  0  0  0  0  0
  1  3  1  0  0  0  0
  1  2  1  0  0  0  0
  1  5  1  0  0  0  0
  2  6  1  0  0  0  0
  2  8  1  0  0  0  0
  4  1  1  0  0  0  0
  6 10  1  0  0  0  0
  7  2  1  0  0  0  0
  9  6  1  0  0  0  0
  9 12  1  0  0  0  0
 11  6  1  0  0  0  0
 13  9  1  0  0  0  0
 14  9  1  0  0  0  0
M  END
$$$$
