butane_opt
 OpenBabel08242015383D

 14 13  0  0  0  0  0  0  0  0999 V2000
   -3.9332    0.2698    0.0412 C   0  0  0  0  0  0  0  0  0  0  0  0
   -2.6992   -0.6242    0.0133 C   0  0  0  0  0  0  0  0  0  0  0  0
   -4.8204   -0.2935    0.1262 H   0  0  0  0  0  0  0  0  0  0  0  0
   -4.0002    0.9670   -0.8917 H   0  0  0  0  0  0  0  0  0  0  0  0
   -3.9055    0.9049    0.8412 H   0  0  0  0  0  0  0  0  0  0  0  0
   -1.4004    0.1744   -0.0142 C   0  0  0  0  0  0  0  0  0  0  0  0
   -2.7472   -1.3186   -0.8655 H   0  0  0  0  0  0  0  0  0  0  0  0
   -2.6933   -1.2435    0.8950 H   0  0  0  0  0  0  0  0  0  0  0  0
   -0.1735   -0.6832    0.0550 C   0  0  0  0  0  0  0  0  0  0  0  0
   -1.4309    0.8747    0.8667 H   0  0  0  0  0  0  0  0  0  0  0  0
   -1.4025    0.7411   -0.8588 H   0  0  0  0  0  0  0  0  0  0  0  0
   -0.1877   -1.3028    0.9597 H   0  0  0  0  0  0  0  0  0  0  0  0
    0.7513   -0.0754    0.0182 H   0  0  0  0  0  0  0  0  0  0  0  0
   -0.1226   -1.3576   -0.8069 H   0  0  0  0  0  0  0  0  0  0  0  0
  1  3  1  0  0  0  0
  1  5  1  0  0  0  0
  2  1  1  0  0  0  0
  2  8  1  0  0  0  0
  4  1  1  0  0  0  0
  6  2  1  0  0  0  0
  6  9  1  0  0  0  0
  6 10  1  0  0  0  0
  7  2  1  0  0  0  0
  9 12  1  0  0  0  0
 11  6  1  0  0  0  0
 13  9  1  0  0  0  0
 14  9  1  0  0  0  0
M  END
$$$$
