butane_opt
 OpenBabel08242015383D

 14 13  0  0  0  0  0  0  0  0999 V2000
   -3.9273    0.2438    0.0531 C   0  0  0  0  0  0  0  0  0  0  0  0
   -2.6951   -0.5763   -0.0043 C   0  0  0  0  0  0  0  0  0  0  0  0
   -4.8241   -0.3695    0.1141 H   0  0  0  0  0  0  0  0  0  0  0  0
   -4.0680    0.8244   -0.7744 H   0  0  0  0  0  0  0  0  0  0  0  0
   -3.7973    0.9125    0.9098 H   0  0  0  0  0  0  0  0  0  0  0  0
   -1.4116    0.1885   -0.0412 C   0  0  0  0  0  0  0  0  0  0  0  0
   -2.7844   -1.2152   -0.8264 H   0  0  0  0  0  0  0  0  0  0  0  0
   -2.6876   -1.2349    0.9100 H   0  0  0  0  0  0  0  0  0  0  0  0
   -0.1714   -0.7076    0.0645 C   0  0  0  0  0  0  0  0  0  0  0  0
   -1.5226    0.7637    0.7855 H   0  0  0  0  0  0  0  0  0  0  0  0
   -1.4297    0.8614   -0.9453 H   0  0  0  0  0  0  0  0  0  0  0  0
   -0.2431   -1.2441    0.9301 H   0  0  0  0  0  0  0  0  0  0  0  0
    0.8100   -0.0844    0.2548 H   0  0  0  0  0  0  0  0  0  0  0  0
   -0.0179   -1.4590   -0.8031 H   0  0  0  0  0  0  0  0  0  0  0  0
  1  3  1  0  0  0  0
  1  5  1  0  0  0  0
  2  1  1  0  0  0  0
  2  8  1  0  0  0  0
  4  1  1  0  0  0  0
  6  2  1  0  0  0  0
  6  9  1  0  0  0  0
  6 10  1  0  0  0  0
  7  2  1  0  0  0  0
  9 13  1  0  0  0  0
  9 12  1  0  0  0  0
 11  6  1  0  0  0  0
 14  9  1  0  0  0  0
M  END
$$$$
