butane_opt
 OpenBabel08242015383D

 14 13  0  0  0  0  0  0  0  0999 V2000
   -3.9452    0.2733    0.0267 C   0  0  0  0  0  0  0  0  0  0  0  0
   -2.6981   -0.6101    0.0123 C   0  0  0  0  0  0  0  0  0  0  0  0
   -4.8298   -0.3359    0.0380 H   0  0  0  0  0  0  0  0  0  0  0  0
   -3.9966    0.8071   -0.8037 H   0  0  0  0  0  0  0  0  0  0  0  0
   -3.9235    0.9725    0.9077 H   0  0  0  0  0  0  0  0  0  0  0  0
   -1.3929    0.1695    0.0031 C   0  0  0  0  0  0  0  0  0  0  0  0
   -2.6917   -1.3029   -0.8485 H   0  0  0  0  0  0  0  0  0  0  0  0
   -2.6999   -1.2235    0.8813 H   0  0  0  0  0  0  0  0  0  0  0  0
   -0.1789   -0.6904    0.0473 C   0  0  0  0  0  0  0  0  0  0  0  0
   -1.3675    0.8437    0.8699 H   0  0  0  0  0  0  0  0  0  0  0  0
   -1.4206    0.7866   -0.8564 H   0  0  0  0  0  0  0  0  0  0  0  0
   -0.0644   -1.4259    1.0323 H   0  0  0  0  0  0  0  0  0  0  0  0
    0.7673   -0.0611   -0.1082 H   0  0  0  0  0  0  0  0  0  0  0  0
   -0.2257   -1.2287   -0.7207 H   0  0  0  0  0  0  0  0  0  0  0  0
  1  3  1  0  0  0  0
  1  5  1  0  0  0  0
  2  1  1  0  0  0  0
  2  8  1  0  0  0  0
  4  1  1  0  0  0  0
  6  2  1  0  0  0  0
  6  9  1  0  0  0  0
  6 10  1  0  0  0  0
  7  2  1  0  0  0  0
  9 12  1  0  0  0  0
 11  6  1  0  0  0  0
 13  9  1  0  0  0  0
 14  9  1  0  0  0  0
M  END
$$$$
