14
butane_opt
C  -3.945988   0.241962  -0.000053
C  -2.702652  -0.601145   0.040454
H  -4.820426  -0.324305   0.332500
H  -4.091281   1.063393  -1.036235
H  -3.900731   0.692821   0.745483
C  -1.416109   0.206169   0.042727
H  -2.679741  -1.333289  -0.855228
H  -2.810584  -1.181124   0.877918
C  -0.132253  -0.707262   0.024161
H  -1.377426   0.953034   0.919955
H  -1.380192   0.859983  -0.842576
H  -0.095113  -1.271844   0.848256
H   0.687656  -0.168961   0.046875
H  -0.171175  -1.447104  -0.898689
