14
butane_opt
C  -3.935774   0.247894  -0.021187
C  -2.723413  -0.610343   0.064116
H  -4.874933  -0.326610   0.149677
H  -4.015650   0.950049  -0.989094
H  -3.975562   0.788043   0.709645
C  -1.391498   0.227947   0.074257
H  -2.749486  -1.256254  -0.722046
H  -2.824222  -1.209829   0.940030
C  -0.138435  -0.724900  -0.007433
H  -1.337461   0.892406   0.910295
H  -1.499743   0.879219  -0.821329
H  -0.042976  -1.273226   0.845766
H   0.736335  -0.188187   0.034537
H  -0.157625  -1.428509  -0.937714
