14
butane_opt
C  -3.933791   0.249925  -0.036494
C  -2.710502  -0.608534   0.086516
H  -4.849629  -0.348314   0.015321
H  -3.976974   0.928149  -0.979864
H  -4.070443   0.807834   0.770967
C  -1.406829   0.204003   0.067513
H  -2.724431  -1.253128  -0.711154
H  -2.761321  -1.222493   1.009429
C  -0.142199  -0.706556  -0.022144
H  -1.402031   1.048057   1.062601
H  -1.456461   0.749801  -0.782454
H   0.014444  -1.363100   0.894795
H   0.731076  -0.160704  -0.126835
H  -0.197995  -1.331765  -0.865937
