14
butane_opt
C  -3.933714   0.260686  -0.031665
C  -2.700600  -0.585729   0.113609
H  -4.879603  -0.353198  -0.194419
H  -3.678449   0.698985  -0.882717
H  -4.048283   1.016880   0.906263
C  -1.420200   0.175309   0.035956
H  -2.685844  -1.208218  -0.689455
H  -2.750477  -1.344698   1.046011
C  -0.169196  -0.702315  -0.017871
H  -1.337786   0.950351   0.966467
H  -1.381897   0.780381  -0.827280
H  -0.093317  -1.286355   0.883160
H   0.697094  -0.124370  -0.065988
H  -0.185185  -1.385348  -0.888507
