14
butane_opt
C  -3.957904   0.278381  -0.002262
C  -2.701026  -0.621359   0.070121
H  -4.863739  -0.330876   0.064384
H  -3.939403   0.913341  -0.949484
H  -4.025649   0.849129   0.774868
C  -1.396037   0.172376   0.024242
H  -2.730341  -1.233490  -0.740668
H  -2.711389  -1.290772   1.000597
C  -0.152049  -0.685347   0.006883
H  -1.322867   0.893516   0.897901
H  -1.416411   0.759545  -0.847921
H  -0.181084  -1.172465   0.839184
H   0.744710  -0.109971   0.145944
H  -0.096337  -1.483444  -0.947459
