butane_opt
 OpenBabel08242015383D

 14 13  0  0  0  0  0  0  0  0999 V2000
   -3.9205    0.2482   -0.0259 C   0  0  0  0  0  0  0  0  0  0  0  0
   -2.7128   -0.5944    0.0875 C   0  0  0  0  0  0  0  0  0  0  0  0
   -4.8714   -0.3880   -0.0088 H   0  0  0  0  0  0  0  0  0  0  0  0
   -3.8510    0.7748   -0.8429 H   0  0  0  0  0  0  0  0  0  0  0  0
   -4.0028    0.9286    0.7895 H   0  0  0  0  0  0  0  0  0  0  0  0
   -1.4034    0.2218    0.0339 C   0  0  0  0  0  0  0  0  0  0  0  0
   -2.6425   -1.2240   -0.7334 H   0  0  0  0  0  0  0  0  0  0  0  0
   -2.7296   -1.3131    1.0779 H   0  0  0  0  0  0  0  0  0  0  0  0
   -0.1752   -0.7207   -0.0014 C   0  0  0  0  0  0  0  0  0  0  0  0
   -1.4031    0.9867    0.9530 H   0  0  0  0  0  0  0  0  0  0  0  0
   -1.3743    0.8224   -0.8273 H   0  0  0  0  0  0  0  0  0  0  0  0
   -0.1203   -1.3237    0.8431 H   0  0  0  0  0  0  0  0  0  0  0  0
    0.6904   -0.1663    0.0018 H   0  0  0  0  0  0  0  0  0  0  0  0
   -0.1569   -1.4536   -0.9422 H   0  0  0  0  0  0  0  0  0  0  0  0
  1  3  1  0  0  0  0
  1  2  1  0  0  0  0
  1  5  1  0  0  0  0
  2  8  1  0  0  0  0
  4  1  1  0  0  0  0
  6  2  1  0  0  0  0
  6 10  1  0  0  0  0
  7  2  1  0  0  0  0
  9 13  1  0  0  0  0
  9  6  1  0  0  0  0
  9 12  1  0  0  0  0
 11  6  1  0  0  0  0
 14  9  1  0  0  0  0
M  END
$$$$
