14
butane_opt
C  -3.948787   0.246030   0.001486
C  -2.716718  -0.592698   0.076284
H  -4.880748  -0.380132  -0.141393
H  -3.971916   0.834085  -0.883458
H  -4.042390   0.977611   0.896287
C  -1.406946   0.191592   0.003889
H  -2.700491  -1.208569  -0.746447
H  -2.729516  -1.301017   1.053237
C  -0.123435  -0.708450   0.015682
H  -1.384879   0.962558   0.899865
H  -1.438657   0.758777  -0.865208
H  -0.099227  -1.222669   0.846121
H   0.725199  -0.120911   0.038965
H  -0.126111  -1.426072  -0.834360
