butane_opt
 OpenBabel08242015383D

 14 13  0  0  0  0  0  0  0  0999 V2000
   -3.9314    0.2710    0.0715 C   0  0  0  0  0  0  0  0  0  0  0  0
   -2.6821   -0.6184    0.0041 C   0  0  0  0  0  0  0  0  0  0  0  0
   -4.8382   -0.2809    0.0659 H   0  0  0  0  0  0  0  0  0  0  0  0
   -3.9752    0.8933   -0.8315 H   0  0  0  0  0  0  0  0  0  0  0  0
   -3.8956    0.8842    0.9292 H   0  0  0  0  0  0  0  0  0  0  0  0
   -1.3997    0.1704   -0.0625 C   0  0  0  0  0  0  0  0  0  0  0  0
   -2.7796   -1.3316   -0.8822 H   0  0  0  0  0  0  0  0  0  0  0  0
   -2.6554   -1.1907    0.8812 H   0  0  0  0  0  0  0  0  0  0  0  0
   -0.1962   -0.6853    0.0887 C   0  0  0  0  0  0  0  0  0  0  0  0
   -1.4051    0.7543    0.7390 H   0  0  0  0  0  0  0  0  0  0  0  0
   -1.3567    0.8775   -0.9861 H   0  0  0  0  0  0  0  0  0  0  0  0
   -0.2442   -1.1449    0.8979 H   0  0  0  0  0  0  0  0  0  0  0  0
    0.6914   -0.1040    0.2450 H   0  0  0  0  0  0  0  0  0  0  0  0
   -0.0587   -1.4851   -0.8625 H   0  0  0  0  0  0  0  0  0  0  0  0
  1  5  1  0  0  0  0
  2  1  1  0  0  0  0
  2  8  1  0  0  0  0
  3  1  1  0  0  0  0
  4  1  1  0  0  0  0
  6  2  1  0  0  0  0
  6  9  1  0  0  0  0
  6 10  1  0  0  0  0
  7  2  1  0  0  0  0
  9 13  1  0  0  0  0
  9 12  1  0  0  0  0
 11  6  1  0  0  0  0
 14  9  1  0  0  0  0
M  END
$$$$
