14
butane_opt
C  -3.930046   0.247322  -0.022450
C  -2.730295  -0.600295   0.080410
H  -4.897177  -0.359982   0.085786
H  -3.948849   0.958613  -0.964778
H  -3.896724   0.856747   0.786269
C  -1.406515   0.211941   0.035803
H  -2.646405  -1.188134  -0.710354
H  -2.774721  -1.384888   1.076517
C  -0.144418  -0.714922  -0.003070
H  -1.308756   0.949516   0.921733
H  -1.434994   0.832980  -0.815166
H  -0.205333  -1.075491   0.775360
H   0.678469  -0.235523   0.145923
H  -0.030638  -1.580527  -0.982173
