14
butane_opt
C  -3.939549   0.248054   0.005411
C  -2.702444  -0.581702   0.063677
H  -4.846601  -0.369660   0.093246
H  -3.918318   0.894398  -0.915962
H  -3.846472   0.876069   0.795015
C  -1.416399   0.185227   0.018307
H  -2.613719  -1.251738  -0.756748
H  -2.700649  -1.268427   0.995991
C  -0.169504  -0.696470   0.006945
H  -1.440616   0.779424   0.828958
H  -1.416381   0.819507  -0.900111
H  -0.194416  -1.163594   0.794154
H   0.744391  -0.133417   0.289748
H  -0.060845  -1.511195  -0.928139
