butane_opt
 OpenBabel08242015383D

 14 13  0  0  0  0  0  0  0  0999 V2000
   -3.9245    0.2386    0.0604 C   0  0  0  0  0  0  0  0  0  0  0  0
   -2.6965   -0.5892   -0.0094 C   0  0  0  0  0  0  0  0  0  0  0  0
   -4.8611   -0.4190   -0.0576 H   0  0  0  0  0  0  0  0  0  0  0  0
   -3.9086    0.7636   -0.7863 H   0  0  0  0  0  0  0  0  0  0  0  0
   -3.9691    1.0284    1.0135 H   0  0  0  0  0  0  0  0  0  0  0  0
   -1.4184    0.2054   -0.0138 C   0  0  0  0  0  0  0  0  0  0  0  0
   -2.7139   -1.3613   -0.8659 H   0  0  0  0  0  0  0  0  0  0  0  0
   -2.7093   -1.1482    0.8335 H   0  0  0  0  0  0  0  0  0  0  0  0
   -0.1757   -0.7109    0.0772 C   0  0  0  0  0  0  0  0  0  0  0  0
   -1.5201    0.8531    0.7952 H   0  0  0  0  0  0  0  0  0  0  0  0
   -1.3634    0.9521   -0.9968 H   0  0  0  0  0  0  0  0  0  0  0  0
    0.0119   -1.4705    1.0638 H   0  0  0  0  0  0  0  0  0  0  0  0
    0.7241   -0.1608   -0.1809 H   0  0  0  0  0  0  0  0  0  0  0  0
   -0.1300   -1.2410   -0.7301 H   0  0  0  0  0  0  0  0  0  0  0  0
  1  5  1  0  0  0  0
  2  1  1  0  0  0  0
  2  8  1  0  0  0  0
  3  1  1  0  0  0  0
  4  1  1  0  0  0  0
  6  2  1  0  0  0  0
  6  9  1  0  0  0  0
  6 10  1  0  0  0  0
  7  2  1  0  0  0  0
  9 12  1  0  0  0  0
 11  6  1  0  0  0  0
 13  9  1  0  0  0  0
 14  9  1  0  0  0  0
M  END
$$$$
