butane_opt
 OpenBabel08242015383D

 14 13  0  0  0  0  0  0  0  0999 V2000
   -3.9428    0.2417    0.0571 C   0  0  0  0  0  0  0  0  0  0  0  0
   -2.7168   -0.5904   -0.0152 C   0  0  0  0  0  0  0  0  0  0  0  0
   -4.9032   -0.3655    0.1060 H   0  0  0  0  0  0  0  0  0  0  0  0
   -4.0520    0.7871   -0.8076 H   0  0  0  0  0  0  0  0  0  0  0  0
   -3.8778    1.0086    0.9899 H   0  0  0  0  0  0  0  0  0  0  0  0
   -1.3918    0.2077   -0.0362 C   0  0  0  0  0  0  0  0  0  0  0  0
   -2.8387   -1.3207   -0.9295 H   0  0  0  0  0  0  0  0  0  0  0  0
   -2.7302   -1.1508    0.8558 H   0  0  0  0  0  0  0  0  0  0  0  0
   -0.1479   -0.7213    0.0792 C   0  0  0  0  0  0  0  0  0  0  0  0
   -1.4013    0.9456    0.8429 H   0  0  0  0  0  0  0  0  0  0  0  0
   -1.4360    0.8468   -0.9605 H   0  0  0  0  0  0  0  0  0  0  0  0
   -0.1405   -1.4922    1.0874 H   0  0  0  0  0  0  0  0  0  0  0  0
    0.7640   -0.1202   -0.0736 H   0  0  0  0  0  0  0  0  0  0  0  0
   -0.0082   -1.2697   -0.6719 H   0  0  0  0  0  0  0  0  0  0  0  0
  1  3  1  0  0  0  0
  1  5  1  0  0  0  0
  2  1  1  0  0  0  0
  2  8  1  0  0  0  0
  4  1  1  0  0  0  0
  6  2  1  0  0  0  0
  6  9  1  0  0  0  0
  6 10  1  0  0  0  0
  7  2  1  0  0  0  0
  9 12  1  0  0  0  0
 11  6  1  0  0  0  0
 13  9  1  0  0  0  0
 14  9  1  0  0  0  0
M  END
$$$$
