butane_opt
 OpenBabel08242015383D

 14 13  0  0  0  0  0  0  0  0999 V2000
   -3.9210    0.2425    0.0639 C   0  0  0  0  0  0  0  0  0  0  0  0
   -2.6944   -0.5965   -0.0036 C   0  0  0  0  0  0  0  0  0  0  0  0
   -4.9001   -0.3728    0.1423 H   0  0  0  0  0  0  0  0  0  0  0  0
   -4.0318    0.7995   -0.7579 H   0  0  0  0  0  0  0  0  0  0  0  0
   -3.8349    1.0008    1.0026 H   0  0  0  0  0  0  0  0  0  0  0  0
   -1.4161    0.2007   -0.0563 C   0  0  0  0  0  0  0  0  0  0  0  0
   -2.7548   -1.3183   -0.9336 H   0  0  0  0  0  0  0  0  0  0  0  0
   -2.7104   -1.1324    0.8223 H   0  0  0  0  0  0  0  0  0  0  0  0
   -0.1733   -0.7052    0.0963 C   0  0  0  0  0  0  0  0  0  0  0  0
   -1.4579    0.8192    0.7331 H   0  0  0  0  0  0  0  0  0  0  0  0
   -1.2792    0.9661   -1.0676 H   0  0  0  0  0  0  0  0  0  0  0  0
   -0.2519   -1.3340    1.0075 H   0  0  0  0  0  0  0  0  0  0  0  0
    0.6881   -0.1775    0.1316 H   0  0  0  0  0  0  0  0  0  0  0  0
   -0.0164   -1.4513   -0.8433 H   0  0  0  0  0  0  0  0  0  0  0  0
  1  3  1  0  0  0  0
  1  5  1  0  0  0  0
  2  1  1  0  0  0  0
  2  8  1  0  0  0  0
  4  1  1  0  0  0  0
  6  2  1  0  0  0  0
  6  9  1  0  0  0  0
  6 10  1  0  0  0  0
  7  2  1  0  0  0  0
  9 13  1  0  0  0  0
  9 12  1  0  0  0  0
 11  6  1  0  0  0  0
 14  9  1  0  0  0  0
M  END
$$$$
