14
butane_opt
C  -3.924535   0.238605   0.060366
C  -2.696523  -0.589183  -0.009388
H  -4.861110  -0.418991  -0.057577
H  -3.908561   0.763570  -0.786280
H  -3.969060   1.028400   1.013489
C  -1.418358   0.205442  -0.013829
H  -2.713932  -1.361303  -0.865947
H  -2.709269  -1.148193   0.833523
C  -0.175669  -0.710940   0.077162
H  -1.520139   0.853063   0.795236
H  -1.363364   0.952123  -0.996762
H   0.011918  -1.470470   1.063846
H   0.724074  -0.160797  -0.180858
H  -0.130035  -1.240985  -0.730062
