butane_opt
 OpenBabel08242015383D

 14 13  0  0  0  0  0  0  0  0999 V2000
   -3.9175    0.2435   -0.0213 C   0  0  0  0  0  0  0  0  0  0  0  0
   -2.7231   -0.5815    0.0511 C   0  0  0  0  0  0  0  0  0  0  0  0
   -4.8634   -0.4159    0.2022 H   0  0  0  0  0  0  0  0  0  0  0  0
   -3.9739    1.0279   -1.0508 H   0  0  0  0  0  0  0  0  0  0  0  0
   -3.8361    0.8025    0.7670 H   0  0  0  0  0  0  0  0  0  0  0  0
   -1.4159    0.2005    0.0735 C   0  0  0  0  0  0  0  0  0  0  0  0
   -2.6770   -1.1833   -0.7698 H   0  0  0  0  0  0  0  0  0  0  0  0
   -2.7102   -1.2910    0.9565 H   0  0  0  0  0  0  0  0  0  0  0  0
   -0.1549   -0.7068   -0.0044 C   0  0  0  0  0  0  0  0  0  0  0  0
   -1.4178    0.9118    0.9781 H   0  0  0  0  0  0  0  0  0  0  0  0
   -1.3940    0.7156   -0.7608 H   0  0  0  0  0  0  0  0  0  0  0  0
   -0.1130   -1.3237    0.8824 H   0  0  0  0  0  0  0  0  0  0  0  0
    0.6967   -0.1499   -0.0924 H   0  0  0  0  0  0  0  0  0  0  0  0
   -0.1840   -1.4334   -0.8831 H   0  0  0  0  0  0  0  0  0  0  0  0
  1  2  1  0  0  0  0
  1  3  1  0  0  0  0
  1  5  1  0  0  0  0
  2  6  1  0  0  0  0
  2  8  1  0  0  0  0
  4  1  1  0  0  0  0
  6 10  1  0  0  0  0
  7  2  1  0  0  0  0
  9  6  1  0  0  0  0
  9 12  1  0  0  0  0
 11  6  1  0  0  0  0
 13  9  1  0  0  0  0
 14  9  1  0  0  0  0
M  END
$$$$
