butane_opt
 OpenBabel08242015383D

 14 13  0  0  0  0  0  0  0  0999 V2000
   -3.9527    0.2325    0.0613 C   0  0  0  0  0  0  0  0  0  0  0  0
   -2.7247   -0.5906    0.0174 C   0  0  0  0  0  0  0  0  0  0  0  0
   -4.8326   -0.3258   -0.1916 H   0  0  0  0  0  0  0  0  0  0  0  0
   -3.9251    0.7072   -0.7235 H   0  0  0  0  0  0  0  0  0  0  0  0
   -4.0453    1.0365    1.0269 H   0  0  0  0  0  0  0  0  0  0  0  0
   -1.4102    0.2028   -0.0311 C   0  0  0  0  0  0  0  0  0  0  0  0
   -2.7996   -1.2773   -0.8903 H   0  0  0  0  0  0  0  0  0  0  0  0
   -2.6017   -1.1227    0.8242 H   0  0  0  0  0  0  0  0  0  0  0  0
   -0.1207   -0.7100    0.0630 C   0  0  0  0  0  0  0  0  0  0  0  0
   -1.4257    0.8142    0.7530 H   0  0  0  0  0  0  0  0  0  0  0  0
   -1.4120    0.9513   -1.0006 H   0  0  0  0  0  0  0  0  0  0  0  0
   -0.1332   -1.4281    1.0407 H   0  0  0  0  0  0  0  0  0  0  0  0
    0.7614   -0.2038   -0.0055 H   0  0  0  0  0  0  0  0  0  0  0  0
   -0.0905   -1.2590   -0.7018 H   0  0  0  0  0  0  0  0  0  0  0  0
  1  5  1  0  0  0  0
  2  1  1  0  0  0  0
  2  8  1  0  0  0  0
  3  1  1  0  0  0  0
  4  1  1  0  0  0  0
  6  2  1  0  0  0  0
  6  9  1  0  0  0  0
  6 10  1  0  0  0  0
  7  2  1  0  0  0  0
  9 12  1  0  0  0  0
 11  6  1  0  0  0  0
 13  9  1  0  0  0  0
 14  9  1  0  0  0  0
M  END
$$$$
