14
butane_opt
C  -3.964504   0.244453   0.070626
C  -2.703452  -0.624847  -0.013623
H  -4.823301  -0.265867  -0.083014
H  -3.912302   0.759741  -0.718048
H  -3.988719   1.030991   0.992052
C  -1.411391   0.215265  -0.042074
H  -2.763171  -1.282701  -0.868310
H  -2.696442  -1.169680   0.820730
C  -0.137063  -0.709302   0.067491
H  -1.444735   0.909283   0.863796
H  -1.351967   0.838032  -0.921705
H  -0.065872  -1.517918   1.102058
H   0.742715  -0.148928  -0.079973
H  -0.126296  -1.135858  -0.626067
