14
butane_opt
C  -3.920547   0.248210  -0.025913
C  -2.712820  -0.594414   0.087540
H  -4.871437  -0.387966  -0.008844
H  -3.851033   0.774828  -0.842886
H  -4.002830   0.928616   0.789456
C  -1.403362   0.221768   0.033948
H  -2.642480  -1.224023  -0.733359
H  -2.729615  -1.313075   1.077873
C  -0.175188  -0.720728  -0.001379
H  -1.403062   0.986654   0.953016
H  -1.374339   0.822393  -0.827300
H  -0.120298  -1.323746   0.843104
H   0.690385  -0.166328   0.001777
H  -0.156933  -1.453617  -0.942155
