butane_opt
 OpenBabel08242015383D

 14 13  0  0  0  0  0  0  0  0999 V2000
   -3.9611    0.2844   -0.0153 C   0  0  0  0  0  0  0  0  0  0  0  0
   -2.7097   -0.6318    0.0709 C   0  0  0  0  0  0  0  0  0  0  0  0
   -4.8743   -0.3165    0.0586 H   0  0  0  0  0  0  0  0  0  0  0  0
   -3.9887    1.0280   -1.0181 H   0  0  0  0  0  0  0  0  0  0  0  0
   -4.0187    0.7696    0.7674 H   0  0  0  0  0  0  0  0  0  0  0  0
   -1.3922    0.1795    0.0628 C   0  0  0  0  0  0  0  0  0  0  0  0
   -2.6924   -1.3055   -0.7359 H   0  0  0  0  0  0  0  0  0  0  0  0
   -2.8085   -1.2621    0.9981 H   0  0  0  0  0  0  0  0  0  0  0  0
   -0.1290   -0.6876   -0.0012 C   0  0  0  0  0  0  0  0  0  0  0  0
   -1.3828    0.8284    0.8811 H   0  0  0  0  0  0  0  0  0  0  0  0
   -1.4035    0.7974   -0.7837 H   0  0  0  0  0  0  0  0  0  0  0  0
   -0.1083   -1.1730    0.7959 H   0  0  0  0  0  0  0  0  0  0  0  0
    0.7937   -0.0975    0.0021 H   0  0  0  0  0  0  0  0  0  0  0  0
   -0.2342   -1.4669   -0.9597 H   0  0  0  0  0  0  0  0  0  0  0  0
  1  3  1  0  0  0  0
  1  2  1  0  0  0  0
  1  5  1  0  0  0  0
  2  8  1  0  0  0  0
  4  1  1  0  0  0  0
  6  2  1  0  0  0  0
  6 10  1  0  0  0  0
  7  2  1  0  0  0  0
  9 13  1  0  0  0  0
  9  6  1  0  0  0  0
  9 12  1  0  0  0  0
 11  6  1  0  0  0  0
 14  9  1  0  0  0  0
M  END
$$$$
