14
butane_opt
C  -3.940042   0.267094  -0.013360
C  -2.698960  -0.609921   0.057405
H  -4.854711  -0.352327   0.015365
H  -3.927190   0.876158  -0.914474
H  -3.976919   0.880768   0.810018
C  -1.413249   0.182696   0.068067
H  -2.682553  -1.293132  -0.798286
H  -2.794140  -1.232250   0.946127
C  -0.155689  -0.697126   0.002450
H  -1.368374   0.874343   0.906603
H  -1.460074   0.830175  -0.818167
H  -0.031700  -1.371010   0.925133
H   0.779986  -0.075031  -0.185563
H  -0.219685  -1.316251  -0.813041
