14
butane_opt
C  -3.933401   0.277068   0.043921
C  -2.674150  -0.638484   0.017825
H  -4.845306  -0.295105   0.153920
H  -4.039612   0.838387  -0.767512
H  -3.936434   1.009294   0.940170
C  -1.408123   0.167904  -0.058803
H  -2.759546  -1.314415  -0.849511
H  -2.614346  -1.247086   0.871402
C  -0.191243  -0.675243   0.066107
H  -1.390565   0.797195   0.795070
H  -1.403385   0.812430  -0.954152
H  -0.278097  -1.182515   0.917150
H   0.698523  -0.072672   0.270745
H   0.019643  -1.392692  -0.766258
