butane_opt
 OpenBabel08242015383D

 14 13  0  0  0  0  0  0  0  0999 V2000
   -3.9452    0.2553    0.0057 C   0  0  0  0  0  0  0  0  0  0  0  0
   -2.7133   -0.6158    0.0283 C   0  0  0  0  0  0  0  0  0  0  0  0
   -4.8720   -0.3595    0.0310 H   0  0  0  0  0  0  0  0  0  0  0  0
   -3.9072    0.8508   -0.8746 H   0  0  0  0  0  0  0  0  0  0  0  0
   -3.8646    0.9320    0.8761 H   0  0  0  0  0  0  0  0  0  0  0  0
   -1.4066    0.2229    0.0477 C   0  0  0  0  0  0  0  0  0  0  0  0
   -2.7704   -1.3013   -0.8452 H   0  0  0  0  0  0  0  0  0  0  0  0
   -2.7153   -1.1699    0.8813 H   0  0  0  0  0  0  0  0  0  0  0  0
   -0.1607   -0.7070    0.0329 C   0  0  0  0  0  0  0  0  0  0  0  0
   -1.4091    0.8683    0.8391 H   0  0  0  0  0  0  0  0  0  0  0  0
   -1.3400    0.8309   -0.8334 H   0  0  0  0  0  0  0  0  0  0  0  0
    0.0529   -1.4890    1.0242 H   0  0  0  0  0  0  0  0  0  0  0  0
    0.7284   -0.1704   -0.2785 H   0  0  0  0  0  0  0  0  0  0  0  0
   -0.2209   -1.3281   -0.7516 H   0  0  0  0  0  0  0  0  0  0  0  0
  1  2  1  0  0  0  0
  1  3  1  0  0  0  0
  1  5  1  0  0  0  0
  2  6  1  0  0  0  0
  2  8  1  0  0  0  0
  4  1  1  0  0  0  0
  6 10  1  0  0  0  0
  7  2  1  0  0  0  0
  9  6  1  0  0  0  0
  9 12  1  0  0  0  0
 11  6  1  0  0  0  0
 13  9  1  0  0  0  0
 14  9  1  0  0  0  0
M  END
$$$$
