14
butane_opt
C  -3.918709   0.287397   0.012232
C  -2.697373  -0.644640   0.060274
H  -4.799434  -0.273506  -0.015479
H  -4.002087   0.939900  -0.920297
H  -4.015943   0.884561   0.812955
C  -1.398264   0.159288   0.021124
H  -2.726528  -1.237234  -0.747718
H  -2.704105  -1.306277   0.973649
C  -0.180032  -0.672470   0.023783
H  -1.402951   0.799656   0.806463
H  -1.449434   0.842564  -0.908780
H  -0.197250  -1.090698   0.748301
H   0.748103  -0.066924   0.168235
H  -0.149274  -1.514456  -0.911333
