14
butane_opt
C  -3.929038   0.254077   0.003309
C  -2.696654  -0.610123   0.071682
H  -4.849360  -0.335094  -0.155715
H  -3.899405   0.835330  -0.879527
H  -4.072155   0.993160   0.875814
C  -1.409162   0.188539   0.018141
H  -2.723985  -1.250497  -0.737942
H  -2.715600  -1.290193   1.020512
C  -0.162642  -0.697709   0.008473
H  -1.377017   0.912433   0.921545
H  -1.463267   0.810669  -0.867472
H  -0.119865  -1.282548   0.887963
H   0.722496  -0.106620  -0.002711
H  -0.147807  -1.384495  -0.843693
