14
butane_opt
C  -3.958812   0.273177  -0.041631
C  -2.693539  -0.644972   0.125160
H  -4.853328  -0.317346  -0.174825
H  -3.858803   0.789352  -0.908739
H  -4.127579   1.077051   0.865192
C  -1.408504   0.203032   0.045467
H  -2.665696  -1.252585  -0.672810
H  -2.716071  -1.334795   1.058174
C  -0.161300  -0.688411  -0.027894
H  -1.294788   0.919396   0.950598
H  -1.405787   0.691056  -0.799031
H  -0.113422  -1.273406   0.818157
H   0.756258  -0.101448  -0.054427
H  -0.082938  -1.372795  -0.848785
