14
butane_opt
C  -3.936723   0.269255  -0.007538
C  -2.687705  -0.625797   0.058587
H  -4.811569  -0.299543   0.015665
H  -3.957356   0.890492  -0.908703
H  -3.988594   0.911184   0.826675
C  -1.412404   0.180359   0.040985
H  -2.693256  -1.297652  -0.774761
H  -2.697434  -1.246389   0.944153
C  -0.169650  -0.690078   0.010840
H  -1.396308   0.909011   0.943881
H  -1.360825   0.789275  -0.824584
H  -0.125208  -1.321748   0.934067
H   0.762852  -0.098539  -0.124759
H  -0.275949  -1.309317  -0.832115
