14
butane_opt
C  -3.958880   0.250239  -0.026796
C  -2.734497  -0.594256   0.058160
H  -4.880621  -0.380643   0.341675
H  -4.011814   1.078711  -1.049485
H  -3.861532   0.684332   0.673972
C  -1.392555   0.198135   0.071478
H  -2.662790  -1.259367  -0.807849
H  -2.771821  -1.154567   0.933754
C  -0.140844  -0.711622   0.005442
H  -1.305666   0.881280   0.955520
H  -1.467704   0.835814  -0.794923
H   0.007138  -1.222121   0.762841
H   0.749227  -0.167388   0.029296
H  -0.095074  -1.480553  -0.921233
