butane_opt
 OpenBabel08242015383D

 14 13  0  0  0  0  0  0  0  0999 V2000
   -3.9588    0.2732   -0.0416 C   0  0  0  0  0  0  0  0  0  0  0  0
   -2.6935   -0.6450    0.1252 C   0  0  0  0  0  0  0  0  0  0  0  0
   -4.8533   -0.3173   -0.1748 H   0  0  0  0  0  0  0  0  0  0  0  0
   -3.8588    0.7894   -0.9087 H   0  0  0  0  0  0  0  0  0  0  0  0
   -4.1276    1.0771    0.8652 H   0  0  0  0  0  0  0  0  0  0  0  0
   -1.4085    0.2030    0.0455 C   0  0  0  0  0  0  0  0  0  0  0  0
   -2.6657   -1.2526   -0.6728 H   0  0  0  0  0  0  0  0  0  0  0  0
   -2.7161   -1.3348    1.0582 H   0  0  0  0  0  0  0  0  0  0  0  0
   -0.1613   -0.6884   -0.0279 C   0  0  0  0  0  0  0  0  0  0  0  0
   -1.2948    0.9194    0.9506 H   0  0  0  0  0  0  0  0  0  0  0  0
   -1.4058    0.6911   -0.7990 H   0  0  0  0  0  0  0  0  0  0  0  0
   -0.1134   -1.2734    0.8182 H   0  0  0  0  0  0  0  0  0  0  0  0
    0.7563   -0.1014   -0.0544 H   0  0  0  0  0  0  0  0  0  0  0  0
   -0.0829   -1.3728   -0.8488 H   0  0  0  0  0  0  0  0  0  0  0  0
  1  2  1  0  0  0  0
  1  5  1  0  0  0  0
  2  8  1  0  0  0  0
  3  1  1  0  0  0  0
  4  1  1  0  0  0  0
  6  2  1  0  0  0  0
  6 10  1  0  0  0  0
  7  2  1  0  0  0  0
  9  6  1  0  0  0  0
  9 12  1  0  0  0  0
 11  6  1  0  0  0  0
 13  9  1  0  0  0  0
 14  9  1  0  0  0  0
M  END
$$$$
