14
butane_opt
C  -3.946260   0.250962   0.002621
C  -2.725789  -0.600400   0.021983
H  -4.864958  -0.375766   0.073676
H  -3.893502   0.866937  -0.888954
H  -3.981679   0.888721   0.821202
C  -1.416941   0.216352   0.047296
H  -2.761341  -1.286832  -0.812151
H  -2.679318  -1.267279   0.971129
C  -0.132955  -0.706053   0.018866
H  -1.336546   0.989388   0.945046
H  -1.370860   0.787727  -0.769092
H   0.002652  -1.527884   1.023462
H   0.745814  -0.194537  -0.228178
H  -0.210809  -1.287923  -0.775595
