butane_opt
 OpenBabel08242015383D

 14 13  0  0  0  0  0  0  0  0999 V2000
   -3.9279    0.2491   -0.0259 C   0  0  0  0  0  0  0  0  0  0  0  0
   -2.7024   -0.5969    0.1010 C   0  0  0  0  0  0  0  0  0  0  0  0
   -4.9367   -0.3852   -0.1575 H   0  0  0  0  0  0  0  0  0  0  0  0
   -3.8779    0.7003   -0.8306 H   0  0  0  0  0  0  0  0  0  0  0  0
   -4.0556    1.0377    0.9134 H   0  0  0  0  0  0  0  0  0  0  0  0
   -1.4017    0.2264    0.0224 C   0  0  0  0  0  0  0  0  0  0  0  0
   -2.7714   -1.2113   -0.7423 H   0  0  0  0  0  0  0  0  0  0  0  0
   -2.7431   -1.3099    1.0295 H   0  0  0  0  0  0  0  0  0  0  0  0
   -0.1646   -0.7182   -0.0062 C   0  0  0  0  0  0  0  0  0  0  0  0
   -1.3054    0.9060    0.8684 H   0  0  0  0  0  0  0  0  0  0  0  0
   -1.4533    0.7917   -0.7806 H   0  0  0  0  0  0  0  0  0  0  0  0
   -0.0986   -1.3480    0.9101 H   0  0  0  0  0  0  0  0  0  0  0  0
    0.7008   -0.1827   -0.0011 H   0  0  0  0  0  0  0  0  0  0  0  0
   -0.0988   -1.4184   -0.8512 H   0  0  0  0  0  0  0  0  0  0  0  0
  1  2  1  0  0  0  0
  1  5  1  0  0  0  0
  2  8  1  0  0  0  0
  3  1  1  0  0  0  0
  4  1  1  0  0  0  0
  6  2  1  0  0  0  0
  6 10  1  0  0  0  0
  7  2  1  0  0  0  0
  9 13  1  0  0  0  0
  9  6  1  0  0  0  0
  9 12  1  0  0  0  0
 11  6  1  0  0  0  0
 14  9  1  0  0  0  0
M  END
$$$$
