butane_opt
 OpenBabel08242015383D

 14 13  0  0  0  0  0  0  0  0999 V2000
   -3.9500    0.2457   -0.0349 C   0  0  0  0  0  0  0  0  0  0  0  0
   -2.7182   -0.5944    0.1171 C   0  0  0  0  0  0  0  0  0  0  0  0
   -4.8691   -0.3437   -0.1721 H   0  0  0  0  0  0  0  0  0  0  0  0
   -3.8230    0.8557   -0.9250 H   0  0  0  0  0  0  0  0  0  0  0  0
   -4.0823    0.9528    0.7808 H   0  0  0  0  0  0  0  0  0  0  0  0
   -1.3893    0.1955    0.0661 C   0  0  0  0  0  0  0  0  0  0  0  0
   -2.7118   -1.1843   -0.6744 H   0  0  0  0  0  0  0  0  0  0  0  0
   -2.6917   -1.2464    1.0717 H   0  0  0  0  0  0  0  0  0  0  0  0
   -0.1552   -0.7031   -0.0234 C   0  0  0  0  0  0  0  0  0  0  0  0
   -1.3477    0.8243    0.8819 H   0  0  0  0  0  0  0  0  0  0  0  0
   -1.4055    0.8543   -0.8439 H   0  0  0  0  0  0  0  0  0  0  0  0
   -0.1140   -1.2145    0.8055 H   0  0  0  0  0  0  0  0  0  0  0  0
    0.7301   -0.1323    0.0058 H   0  0  0  0  0  0  0  0  0  0  0  0
   -0.1458   -1.5848   -1.0137 H   0  0  0  0  0  0  0  0  0  0  0  0
  1  2  1  0  0  0  0
  1  5  1  0  0  0  0
  2  8  1  0  0  0  0
  3  1  1  0  0  0  0
  4  1  1  0  0  0  0
  6  2  1  0  0  0  0
  6 10  1  0  0  0  0
  7  2  1  0  0  0  0
  9 13  1  0  0  0  0
  9  6  1  0  0  0  0
  9 12  1  0  0  0  0
 11  6  1  0  0  0  0
 14  9  1  0  0  0  0
M  END
$$$$
