14
butane_opt
C  -3.951976   0.276925   0.060562
C  -2.696218  -0.626654   0.031111
H  -4.885213  -0.287492  -0.173229
H  -3.836707   0.698663  -0.714442
H  -4.126837   1.183200   1.060275
C  -1.401287   0.144635  -0.057984
H  -2.644651  -1.353534  -0.902666
H  -2.617754  -1.207539   0.862343
C  -0.154637  -0.665560   0.076939
H  -1.422172   0.774875   0.765052
H  -1.357656   0.811300  -0.999740
H  -0.198709  -1.346465   0.985676
H   0.722083  -0.084286  -0.023492
H  -0.200785  -1.219520  -0.706054
