butane_opt
 OpenBabel08242015383D

 14 13  0  0  0  0  0  0  0  0999 V2000
   -3.9434    0.2448   -0.0172 C   0  0  0  0  0  0  0  0  0  0  0  0
   -2.7156   -0.6075    0.1010 C   0  0  0  0  0  0  0  0  0  0  0  0
   -4.8724   -0.3872    0.0475 H   0  0  0  0  0  0  0  0  0  0  0  0
   -3.8961    0.9967   -1.0279 H   0  0  0  0  0  0  0  0  0  0  0  0
   -4.0052    0.8067    0.7553 H   0  0  0  0  0  0  0  0  0  0  0  0
   -1.4273    0.2176    0.0364 C   0  0  0  0  0  0  0  0  0  0  0  0
   -2.7521   -1.2232   -0.6745 H   0  0  0  0  0  0  0  0  0  0  0  0
   -2.7670   -1.2941    1.0495 H   0  0  0  0  0  0  0  0  0  0  0  0
   -0.1192   -0.7132   -0.0100 C   0  0  0  0  0  0  0  0  0  0  0  0
   -1.4247    0.9572    0.9035 H   0  0  0  0  0  0  0  0  0  0  0  0
   -1.3907    0.8650   -0.8557 H   0  0  0  0  0  0  0  0  0  0  0  0
   -0.2054   -1.1132    0.7097 H   0  0  0  0  0  0  0  0  0  0  0  0
    0.7336   -0.1265    0.2333 H   0  0  0  0  0  0  0  0  0  0  0  0
    0.0300   -1.6729   -1.0714 H   0  0  0  0  0  0  0  0  0  0  0  0
  1  3  1  0  0  0  0
  1  2  1  0  0  0  0
  1  5  1  0  0  0  0
  2  8  1  0  0  0  0
  4  1  1  0  0  0  0
  6  2  1  0  0  0  0
  6 10  1  0  0  0  0
  7  2  1  0  0  0  0
  9  6  1  0  0  0  0
  9 13  1  0  0  0  0
  9 12  1  0  0  0  0
 11  6  1  0  0  0  0
 14  9  1  0  0  0  0
M  END
$$$$
