14
butane_opt
C  -3.974836   0.272170  -0.052306
C  -2.699635  -0.643256   0.112918
H  -4.840337  -0.213861  -0.074633
H  -3.968631   0.813363  -0.903218
H  -4.005955   1.029378   0.864630
C  -1.385301   0.177332   0.058915
H  -2.614538  -1.204604  -0.660400
H  -2.685288  -1.373899   1.016791
C  -0.165417  -0.680101  -0.018017
H  -1.287344   0.902469   0.940643
H  -1.422553   0.784987  -0.807747
H  -0.123149  -1.223158   0.820610
H   0.753918  -0.096073  -0.032290
H  -0.138188  -1.402539  -0.942892
