butane_opt
 OpenBabel08242015383D

 14 13  0  0  0  0  0  0  0  0999 V2000
   -3.9503    0.2576   -0.0014 C   0  0  0  0  0  0  0  0  0  0  0  0
   -2.7302   -0.5998    0.0259 C   0  0  0  0  0  0  0  0  0  0  0  0
   -4.9313   -0.3941    0.3259 H   0  0  0  0  0  0  0  0  0  0  0  0
   -4.0469    1.0418   -0.9846 H   0  0  0  0  0  0  0  0  0  0  0  0
   -3.7995    0.7120    0.7476 H   0  0  0  0  0  0  0  0  0  0  0  0
   -1.3905    0.1990    0.0285 C   0  0  0  0  0  0  0  0  0  0  0  0
   -2.7145   -1.2561   -0.7988 H   0  0  0  0  0  0  0  0  0  0  0  0
   -2.7700   -1.1865    0.9328 H   0  0  0  0  0  0  0  0  0  0  0  0
   -0.1281   -0.7118    0.0254 C   0  0  0  0  0  0  0  0  0  0  0  0
   -1.3449    0.9928    0.9524 H   0  0  0  0  0  0  0  0  0  0  0  0
   -1.4873    0.7446   -0.7544 H   0  0  0  0  0  0  0  0  0  0  0  0
   -0.1600   -1.2719    0.8940 H   0  0  0  0  0  0  0  0  0  0  0  0
    0.7239   -0.2284    0.0139 H   0  0  0  0  0  0  0  0  0  0  0  0
   -0.0883   -1.3819   -0.8503 H   0  0  0  0  0  0  0  0  0  0  0  0
  1  2  1  0  0  0  0
  1  3  1  0  0  0  0
  1  5  1  0  0  0  0
  2  6  1  0  0  0  0
  2  8  1  0  0  0  0
  4  1  1  0  0  0  0
  6 10  1  0  0  0  0
  7  2  1  0  0  0  0
  9  6  1  0  0  0  0
  9 12  1  0  0  0  0
 11  6  1  0  0  0  0
 13  9  1  0  0  0  0
 14  9  1  0  0  0  0
M  END
$$$$
