14
butane_opt
C  -3.945195   0.281795  -0.043021
C  -2.677595  -0.634581   0.110569
H  -4.842062  -0.307537   0.018593
H  -3.930234   0.868814  -0.970337
H  -4.025473   0.907439   0.818341
C  -1.409826   0.188359   0.052128
H  -2.609738  -1.323486  -0.738822
H  -2.741723  -1.341461   1.074155
C  -0.188659  -0.691996  -0.016330
H  -1.265129   0.820169   0.921740
H  -1.406682   0.841221  -0.825484
H  -0.110422  -1.098320   0.748877
H   0.738009  -0.071701   0.096634
H  -0.174947  -1.481663  -0.950614
