14
butane_opt
C  -3.944121   0.286935   0.075167
C  -2.674993  -0.633544   0.008518
H  -4.915734  -0.336957  -0.167749
H  -3.803773   0.673546  -0.724948
H  -4.060887   1.104770   1.027207
C  -1.414038   0.154110  -0.051045
H  -2.723584  -1.305566  -0.851166
H  -2.640122  -1.191785   0.821012
C  -0.168098  -0.674039   0.073221
H  -1.450764   0.772842   0.754035
H  -1.331415   0.875142  -0.980010
H  -0.216784  -1.374351   1.050044
H   0.708099  -0.076928  -0.007656
H  -0.176779  -1.229886  -0.721936
