14
butane_opt
C  -3.960686   0.272575   0.066029
C  -2.698751  -0.645015  -0.051379
H  -4.827552  -0.318316   0.293693
H  -4.095270   0.945532  -0.839970
H  -3.870218   0.901666   0.936030
C  -1.413383   0.195942  -0.027288
H  -2.750782  -1.331254  -0.899628
H  -2.658541  -1.248641   0.826779
C  -0.137769  -0.687987   0.085811
H  -1.501905   0.867871   0.809827
H  -1.224631   0.828250  -0.877224
H  -0.128357  -1.355345   1.006905
H   0.697595  -0.160678  -0.003979
H  -0.130101  -1.224368  -0.695866
