14
butane_opt
C  -3.913344   0.248485  -0.017399
C  -2.687070  -0.603142   0.095833
H  -4.883609  -0.397441  -0.246230
H  -3.844328   0.809718  -0.895699
H  -4.065260   1.008824   0.902224
C  -1.437753   0.204423   0.038992
H  -2.740875  -1.259820  -0.704124
H  -2.717293  -1.280576   1.045348
C  -0.158022  -0.712345  -0.011773
H  -1.375769   0.958385   0.932192
H  -1.454700   0.809006  -0.822682
H  -0.120914  -1.359873   0.897480
H   0.747038  -0.072622  -0.077964
H  -0.196666  -1.350725  -0.859795
