14
butane_opt
C  -3.927317   0.243803   0.053139
C  -2.695096  -0.576322  -0.004280
H  -4.824079  -0.369481   0.114073
H  -4.067953   0.824356  -0.774353
H  -3.797339   0.912550   0.909827
C  -1.411614   0.188514  -0.041185
H  -2.784431  -1.215222  -0.826378
H  -2.687567  -1.234944   0.910028
C  -0.171388  -0.707576   0.064531
H  -1.522640   0.763716   0.785537
H  -1.429745   0.861445  -0.945309
H  -0.243133  -1.244104   0.930054
H   0.809959  -0.084427   0.254841
H  -0.017906  -1.458961  -0.803133
