butane_opt
 OpenBabel08242015383D

 14 13  0  0  0  0  0  0  0  0999 V2000
   -3.9029    0.2509    0.0429 C   0  0  0  0  0  0  0  0  0  0  0  0
   -2.7169   -0.5917   -0.0084 C   0  0  0  0  0  0  0  0  0  0  0  0
   -4.8545   -0.3360    0.0521 H   0  0  0  0  0  0  0  0  0  0  0  0
   -3.9810    0.8697   -0.8355 H   0  0  0  0  0  0  0  0  0  0  0  0
   -3.8191    0.9280    0.9524 H   0  0  0  0  0  0  0  0  0  0  0  0
   -1.4205    0.2042    0.0142 C   0  0  0  0  0  0  0  0  0  0  0  0
   -2.7745   -1.4193   -0.9389 H   0  0  0  0  0  0  0  0  0  0  0  0
   -2.6909   -1.1922    0.8347 H   0  0  0  0  0  0  0  0  0  0  0  0
   -0.1772   -0.7138    0.0517 C   0  0  0  0  0  0  0  0  0  0  0  0
   -1.4052    0.8465    0.8280 H   0  0  0  0  0  0  0  0  0  0  0  0
   -1.4332    0.8655   -0.9104 H   0  0  0  0  0  0  0  0  0  0  0  0
   -0.0977   -1.5341    1.0983 H   0  0  0  0  0  0  0  0  0  0  0  0
    0.7768   -0.0930   -0.1525 H   0  0  0  0  0  0  0  0  0  0  0  0
   -0.1409   -1.1859   -0.6778 H   0  0  0  0  0  0  0  0  0  0  0  0
  1  3  1  0  0  0  0
  1  5  1  0  0  0  0
  2  6  1  0  0  0  0
  2  1  1  0  0  0  0
  2  8  1  0  0  0  0
  4  1  1  0  0  0  0
  6  9  1  0  0  0  0
  6 10  1  0  0  0  0
  7  2  1  0  0  0  0
  9 12  1  0  0  0  0
 11  6  1  0  0  0  0
 13  9  1  0  0  0  0
 14  9  1  0  0  0  0
M  END
$$$$
