butane_opt
 OpenBabel08242015383D

 14 13  0  0  0  0  0  0  0  0999 V2000
   -3.9362    0.2856    0.0613 C   0  0  0  0  0  0  0  0  0  0  0  0
   -2.7090   -0.6256    0.0169 C   0  0  0  0  0  0  0  0  0  0  0  0
   -4.9383   -0.3602   -0.1189 H   0  0  0  0  0  0  0  0  0  0  0  0
   -3.9411    0.7852   -0.7524 H   0  0  0  0  0  0  0  0  0  0  0  0
   -4.0001    1.0346    0.9790 H   0  0  0  0  0  0  0  0  0  0  0  0
   -1.3951    0.1686   -0.0407 C   0  0  0  0  0  0  0  0  0  0  0  0
   -2.7388   -1.3591   -0.9173 H   0  0  0  0  0  0  0  0  0  0  0  0
   -2.5729   -1.1955    0.8288 H   0  0  0  0  0  0  0  0  0  0  0  0
   -0.1712   -0.6935    0.0808 C   0  0  0  0  0  0  0  0  0  0  0  0
   -1.3319    0.8080    0.8015 H   0  0  0  0  0  0  0  0  0  0  0  0
   -1.3569    0.8541   -1.0153 H   0  0  0  0  0  0  0  0  0  0  0  0
   -0.1613   -1.3542    0.9897 H   0  0  0  0  0  0  0  0  0  0  0  0
    0.7569   -0.0661   -0.0217 H   0  0  0  0  0  0  0  0  0  0  0  0
   -0.1940   -1.2509   -0.7355 H   0  0  0  0  0  0  0  0  0  0  0  0
  1  5  1  0  0  0  0
  2  1  1  0  0  0  0
  2  8  1  0  0  0  0
  3  1  1  0  0  0  0
  4  1  1  0  0  0  0
  6  2  1  0  0  0  0
  6  9  1  0  0  0  0
  6 10  1  0  0  0  0
  7  2  1  0  0  0  0
  9 12  1  0  0  0  0
 11  6  1  0  0  0  0
 13  9  1  0  0  0  0
 14  9  1  0  0  0  0
M  END
$$$$
