14
butane_opt
C  -3.917981   0.278259   0.082166
C  -2.689667  -0.639295  -0.042555
H  -4.863815  -0.304979   0.246274
H  -4.123902   0.970262  -0.852378
H  -3.835028   0.919767   0.951431
C  -1.428306   0.167111  -0.038259
H  -2.675942  -1.394690  -0.957003
H  -2.698003  -1.175790   0.765519
C  -0.171991  -0.681036   0.097831
H  -1.414763   0.777522   0.754902
H  -1.315735   0.920648  -1.020091
H  -0.253823  -1.302184   1.015307
H   0.797384  -0.029827   0.076839
H  -0.145772  -1.348407  -0.731382
