14
butane_opt
C  -3.968236   0.265829  -0.037963
C  -2.686167  -0.621337   0.112217
H  -4.854321  -0.298587  -0.002738
H  -3.938458   0.976200  -1.010267
H  -4.096907   0.924207   0.799212
C  -1.391675   0.176270   0.065172
H  -2.605138  -1.384774  -0.750828
H  -2.736456  -1.285907   1.032021
C  -0.174700  -0.682176  -0.024313
H  -1.317452   0.881086   0.924486
H  -1.393298   0.772132  -0.796624
H  -0.075973  -1.242880   0.847749
H   0.752777  -0.052807  -0.005137
H  -0.114324  -1.415245  -0.986139
