butane_opt
 OpenBabel08242015383D

 14 13  0  0  0  0  0  0  0  0999 V2000
   -3.9337    0.2607   -0.0317 C   0  0  0  0  0  0  0  0  0  0  0  0
   -2.7006   -0.5857    0.1136 C   0  0  0  0  0  0  0  0  0  0  0  0
   -4.8796   -0.3532   -0.1944 H   0  0  0  0  0  0  0  0  0  0  0  0
   -3.6784    0.6990   -0.8827 H   0  0  0  0  0  0  0  0  0  0  0  0
   -4.0483    1.0169    0.9063 H   0  0  0  0  0  0  0  0  0  0  0  0
   -1.4202    0.1753    0.0360 C   0  0  0  0  0  0  0  0  0  0  0  0
   -2.6858   -1.2082   -0.6895 H   0  0  0  0  0  0  0  0  0  0  0  0
   -2.7505   -1.3447    1.0460 H   0  0  0  0  0  0  0  0  0  0  0  0
   -0.1692   -0.7023   -0.0179 C   0  0  0  0  0  0  0  0  0  0  0  0
   -1.3378    0.9504    0.9665 H   0  0  0  0  0  0  0  0  0  0  0  0
   -1.3819    0.7804   -0.8273 H   0  0  0  0  0  0  0  0  0  0  0  0
   -0.0933   -1.2864    0.8832 H   0  0  0  0  0  0  0  0  0  0  0  0
    0.6971   -0.1244   -0.0660 H   0  0  0  0  0  0  0  0  0  0  0  0
   -0.1852   -1.3853   -0.8885 H   0  0  0  0  0  0  0  0  0  0  0  0
  1  2  1  0  0  0  0
  1  5  1  0  0  0  0
  2  8  1  0  0  0  0
  3  1  1  0  0  0  0
  4  1  1  0  0  0  0
  6  2  1  0  0  0  0
  6 10  1  0  0  0  0
  7  2  1  0  0  0  0
  9  6  1  0  0  0  0
  9 12  1  0  0  0  0
 11  6  1  0  0  0  0
 13  9  1  0  0  0  0
 14  9  1  0  0  0  0
M  END
$$$$
