butane_opt
 OpenBabel08242015383D

 14 13  0  0  0  0  0  0  0  0999 V2000
   -3.9233    0.2498    0.0572 C   0  0  0  0  0  0  0  0  0  0  0  0
   -2.7169   -0.5771    0.0111 C   0  0  0  0  0  0  0  0  0  0  0  0
   -4.8909   -0.4105   -0.1714 H   0  0  0  0  0  0  0  0  0  0  0  0
   -3.8620    0.6442   -0.7080 H   0  0  0  0  0  0  0  0  0  0  0  0
   -3.9818    1.1361    1.0496 H   0  0  0  0  0  0  0  0  0  0  0  0
   -1.4092    0.1925   -0.0318 C   0  0  0  0  0  0  0  0  0  0  0  0
   -2.7665   -1.2718   -0.8554 H   0  0  0  0  0  0  0  0  0  0  0  0
   -2.5922   -1.2129    0.8741 H   0  0  0  0  0  0  0  0  0  0  0  0
   -0.1670   -0.7030    0.0694 C   0  0  0  0  0  0  0  0  0  0  0  0
   -1.4256    0.7319    0.7084 H   0  0  0  0  0  0  0  0  0  0  0  0
   -1.3723    0.8503   -0.9971 H   0  0  0  0  0  0  0  0  0  0  0  0
   -0.1492   -1.4403    1.0349 H   0  0  0  0  0  0  0  0  0  0  0  0
    0.7452   -0.1252   -0.0326 H   0  0  0  0  0  0  0  0  0  0  0  0
   -0.1213   -1.3239   -0.7082 H   0  0  0  0  0  0  0  0  0  0  0  0
  1  5  1  0  0  0  0
  2  1  1  0  0  0  0
  2  8  1  0  0  0  0
  3  1  1  0  0  0  0
  4  1  1  0  0  0  0
  6  2  1  0  0  0  0
  6  9  1  0  0  0  0
  6 10  1  0  0  0  0
  7  2  1  0  0  0  0
  9 12  1  0  0  0  0
 11  6  1  0  0  0  0
 13  9  1  0  0  0  0
 14  9  1  0  0  0  0
M  END
$$$$
