14
butane_opt
C  -3.920963   0.242471   0.063928
C  -2.694389  -0.596476  -0.003636
H  -4.900072  -0.372812   0.142292
H  -4.031774   0.799470  -0.757888
H  -3.834939   1.000769   1.002567
C  -1.416129   0.200729  -0.056313
H  -2.754822  -1.318300  -0.933601
H  -2.710439  -1.132355   0.822260
C  -0.173267  -0.705194   0.096265
H  -1.457884   0.819217   0.733070
H  -1.279208   0.966068  -1.067638
H  -0.251916  -1.333964   1.007528
H   0.688086  -0.177524   0.131608
H  -0.016375  -1.451268  -0.843295
