butane_opt
 OpenBabel08242015383D

 14 13  0  0  0  0  0  0  0  0999 V2000
   -3.9496    0.2629   -0.0063 C   0  0  0  0  0  0  0  0  0  0  0  0
   -2.6986   -0.6088    0.0690 C   0  0  0  0  0  0  0  0  0  0  0  0
   -4.8962   -0.3991   -0.0273 H   0  0  0  0  0  0  0  0  0  0  0  0
   -3.8928    0.8057   -0.8991 H   0  0  0  0  0  0  0  0  0  0  0  0
   -4.0340    1.0462    0.9069 H   0  0  0  0  0  0  0  0  0  0  0  0
   -1.3983    0.1939    0.0258 C   0  0  0  0  0  0  0  0  0  0  0  0
   -2.7610   -1.2256   -0.7527 H   0  0  0  0  0  0  0  0  0  0  0  0
   -2.7880   -1.3030    1.0088 H   0  0  0  0  0  0  0  0  0  0  0  0
   -0.1525   -0.7147    0.0117 C   0  0  0  0  0  0  0  0  0  0  0  0
   -1.4429    0.9268    0.9075 H   0  0  0  0  0  0  0  0  0  0  0  0
   -1.3445    0.8017   -0.9141 H   0  0  0  0  0  0  0  0  0  0  0  0
   -0.0928   -1.2866    0.8714 H   0  0  0  0  0  0  0  0  0  0  0  0
    0.7890   -0.0534   -0.0103 H   0  0  0  0  0  0  0  0  0  0  0  0
   -0.1679   -1.3847   -0.8458 H   0  0  0  0  0  0  0  0  0  0  0  0
  1  2  1  0  0  0  0
  1  5  1  0  0  0  0
  2  8  1  0  0  0  0
  3  1  1  0  0  0  0
  4  1  1  0  0  0  0
  6  2  1  0  0  0  0
  6 10  1  0  0  0  0
  7  2  1  0  0  0  0
  9  6  1  0  0  0  0
  9 12  1  0  0  0  0
 11  6  1  0  0  0  0
 13  9  1  0  0  0  0
 14  9  1  0  0  0  0
M  END
$$$$
