14
butane_opt
C  -3.950030   0.245701  -0.034879
C  -2.718204  -0.594361   0.117084
H  -4.869140  -0.343693  -0.172066
H  -3.823033   0.855718  -0.925042
H  -4.082307   0.952803   0.780839
C  -1.389266   0.195468   0.066060
H  -2.711755  -1.184281  -0.674429
H  -2.691671  -1.246408   1.071743
C  -0.155162  -0.703100  -0.023396
H  -1.347747   0.824261   0.881896
H  -1.405536   0.854268  -0.843940
H  -0.114012  -1.214501   0.805517
H   0.730124  -0.132254   0.005818
H  -0.145774  -1.584792  -1.013684
