butane_opt
 OpenBabel08242015383D

 14 13  0  0  0  0  0  0  0  0999 V2000
   -3.9493    0.2566   -0.0360 C   0  0  0  0  0  0  0  0  0  0  0  0
   -2.7408   -0.5949    0.1181 C   0  0  0  0  0  0  0  0  0  0  0  0
   -4.8805   -0.3482   -0.1913 H   0  0  0  0  0  0  0  0  0  0  0  0
   -3.7835    0.7766   -0.9048 H   0  0  0  0  0  0  0  0  0  0  0  0
   -4.0900    0.8680    0.8401 H   0  0  0  0  0  0  0  0  0  0  0  0
   -1.4065    0.2136    0.0561 C   0  0  0  0  0  0  0  0  0  0  0  0
   -2.6889   -1.2351   -0.6919 H   0  0  0  0  0  0  0  0  0  0  0  0
   -2.7240   -1.3224    1.0801 H   0  0  0  0  0  0  0  0  0  0  0  0
   -0.1245   -0.7111   -0.0306 C   0  0  0  0  0  0  0  0  0  0  0  0
   -1.3572    0.9715    0.9403 H   0  0  0  0  0  0  0  0  0  0  0  0
   -1.3987    0.8034   -0.7971 H   0  0  0  0  0  0  0  0  0  0  0  0
   -0.1141   -1.3064    0.8406 H   0  0  0  0  0  0  0  0  0  0  0  0
    0.7447   -0.1881   -0.0451 H   0  0  0  0  0  0  0  0  0  0  0  0
   -0.0703   -1.4734   -0.9364 H   0  0  0  0  0  0  0  0  0  0  0  0
  1  2  1  0  0  0  0
  1  5  1  0  0  0  0
  2  8  1  0  0  0  0
  3  1  1  0  0  0  0
  4  1  1  0  0  0  0
  6  2  1  0  0  0  0
  6 10  1  0  0  0  0
  7  2  1  0  0  0  0
  9  6  1  0  0  0  0
  9 12  1  0  0  0  0
 11  6  1  0  0  0  0
 13  9  1  0  0  0  0
 14  9  1  0  0  0  0
M  END
$$$$
