14
butane_opt
C  -3.961093   0.284370  -0.015330
C  -2.709680  -0.631779   0.070853
H  -4.874251  -0.316464   0.058567
H  -3.988708   1.027979  -1.018115
H  -4.018738   0.769583   0.767402
C  -1.392215   0.179490   0.062751
H  -2.692402  -1.305508  -0.735894
H  -2.808472  -1.262119   0.998073
C  -0.129023  -0.687624  -0.001193
H  -1.382812   0.828437   0.881136
H  -1.403486   0.797411  -0.783726
H  -0.108317  -1.173044   0.795887
H   0.793704  -0.097506   0.002095
H  -0.234233  -1.466896  -0.959659
