14
butane_opt
C  -3.951434   0.236635  -0.034502
C  -2.704685  -0.583837   0.107211
H  -4.884883  -0.394793   0.038867
H  -3.936576   0.940777  -0.994170
H  -4.005475   0.905192   0.808730
C  -1.419109   0.203546   0.034578
H  -2.776667  -1.218854  -0.673906
H  -2.779288  -1.297106   1.064347
C  -0.132417  -0.721426  -0.019945
H  -1.333386   0.943833   0.946210
H  -1.490126   0.789889  -0.820233
H  -0.169643  -1.111029   0.779888
H   0.806274  -0.094461   0.181533
H   0.043387  -1.558015  -0.968146
