butane_opt
 OpenBabel08242015383D

 14 13  0  0  0  0  0  0  0  0999 V2000
   -3.9412    0.2691    0.0890 C   0  0  0  0  0  0  0  0  0  0  0  0
   -2.7086   -0.6272   -0.0594 C   0  0  0  0  0  0  0  0  0  0  0  0
   -4.8662   -0.3064    0.3018 H   0  0  0  0  0  0  0  0  0  0  0  0
   -4.1525    0.9772   -0.8582 H   0  0  0  0  0  0  0  0  0  0  0  0
   -3.8295    0.8201    0.9066 H   0  0  0  0  0  0  0  0  0  0  0  0
   -1.4011    0.2035   -0.0467 C   0  0  0  0  0  0  0  0  0  0  0  0
   -2.8071   -1.3706   -1.0067 H   0  0  0  0  0  0  0  0  0  0  0  0
   -2.7652   -1.2408    0.8288 H   0  0  0  0  0  0  0  0  0  0  0  0
   -0.1388   -0.6981    0.0979 C   0  0  0  0  0  0  0  0  0  0  0  0
   -1.5023    0.8743    0.8087 H   0  0  0  0  0  0  0  0  0  0  0  0
   -1.2916    0.8407   -0.9432 H   0  0  0  0  0  0  0  0  0  0  0  0
   -0.1491   -1.3497    1.0374 H   0  0  0  0  0  0  0  0  0  0  0  0
    0.7458   -0.1668    0.0808 H   0  0  0  0  0  0  0  0  0  0  0  0
   -0.1229   -1.3110   -0.6930 H   0  0  0  0  0  0  0  0  0  0  0  0
  1  3  1  0  0  0  0
  1  5  1  0  0  0  0
  2  6  1  0  0  0  0
  2  1  1  0  0  0  0
  2  8  1  0  0  0  0
  4  1  1  0  0  0  0
  6  9  1  0  0  0  0
  6 10  1  0  0  0  0
  7  2  1  0  0  0  0
  9 12  1  0  0  0  0
 11  6  1  0  0  0  0
 13  9  1  0  0  0  0
 14  9  1  0  0  0  0
M  END
$$$$
