14
butane_opt
C  -3.944990   0.275493  -0.048751
C  -2.681594  -0.640174   0.097152
H  -4.809123  -0.316508  -0.042307
H  -3.982826   0.974005  -1.004846
H  -4.077447   0.981079   0.814915
C  -1.411716   0.158539   0.099833
H  -2.706225  -1.298888  -0.754166
H  -2.765515  -1.278322   1.008622
C  -0.162635  -0.670920  -0.026533
H  -1.303129   0.858960   0.979905
H  -1.441381   0.822787  -0.761456
H  -0.067545  -1.321753   0.855099
H   0.763342  -0.066214  -0.226663
H  -0.224397  -1.293977  -0.894289
