14
butane_opt
C  -3.949299   0.251351   0.081608
C  -2.711666  -0.609675  -0.029560
H  -4.836910  -0.358746   0.146240
H  -4.044963   0.836087  -0.798982
H  -3.857702   0.919923   0.983601
C  -1.427694   0.212881  -0.067436
H  -2.816390  -1.279264  -0.889032
H  -2.699670  -1.264341   0.877331
C  -0.124352  -0.703369   0.099745
H  -1.504042   0.874752   0.746485
H  -1.264227   0.924574  -0.978591
H  -0.225779  -1.308510   0.989856
H   0.755026  -0.173836   0.189841
H   0.031064  -1.467243  -0.857676
