14
butane_opt
C  -3.952685   0.274951  -0.010779
C  -2.706210  -0.633864   0.060040
H  -4.860914  -0.284520   0.134976
H  -3.987296   0.994772  -0.975072
H  -3.968319   0.920904   0.833665
C  -1.392956   0.170150   0.035514
H  -2.726837  -1.277518  -0.789658
H  -2.710005  -1.299930   0.963865
C  -0.155678  -0.686917   0.007545
H  -1.335457   0.916965   0.922621
H  -1.420949   0.758438  -0.809549
H  -0.173484  -1.254958   0.875547
H   0.793995  -0.065639   0.048165
H  -0.147861  -1.366166  -0.878079
