14
butane_opt
C  -3.960026   0.239365  -0.042573
C  -2.721327  -0.599373   0.096773
H  -4.870712  -0.330896  -0.133935
H  -3.886905   0.837480  -0.927049
H  -4.003058   1.003089   0.859787
C  -1.408256   0.206307   0.075387
H  -2.631519  -1.159367  -0.668873
H  -2.784307  -1.361121   1.095474
C  -0.128116  -0.713751  -0.026883
H  -1.330431   0.932134   0.955698
H  -1.514769   0.794822  -0.831128
H  -0.005029  -1.272356   0.830147
H   0.790819  -0.152229  -0.044311
H  -0.170424  -1.357150  -0.914670
