butane_opt
 OpenBabel08242015383D

 14 13  0  0  0  0  0  0  0  0999 V2000
   -3.9180    0.2783    0.0822 C   0  0  0  0  0  0  0  0  0  0  0  0
   -2.6897   -0.6393   -0.0426 C   0  0  0  0  0  0  0  0  0  0  0  0
   -4.8638   -0.3050    0.2463 H   0  0  0  0  0  0  0  0  0  0  0  0
   -4.1239    0.9703   -0.8524 H   0  0  0  0  0  0  0  0  0  0  0  0
   -3.8350    0.9198    0.9514 H   0  0  0  0  0  0  0  0  0  0  0  0
   -1.4283    0.1671   -0.0383 C   0  0  0  0  0  0  0  0  0  0  0  0
   -2.6759   -1.3947   -0.9570 H   0  0  0  0  0  0  0  0  0  0  0  0
   -2.6980   -1.1758    0.7655 H   0  0  0  0  0  0  0  0  0  0  0  0
   -0.1720   -0.6810    0.0978 C   0  0  0  0  0  0  0  0  0  0  0  0
   -1.4148    0.7775    0.7549 H   0  0  0  0  0  0  0  0  0  0  0  0
   -1.3157    0.9206   -1.0201 H   0  0  0  0  0  0  0  0  0  0  0  0
   -0.2538   -1.3022    1.0153 H   0  0  0  0  0  0  0  0  0  0  0  0
    0.7974   -0.0298    0.0768 H   0  0  0  0  0  0  0  0  0  0  0  0
   -0.1458   -1.3484   -0.7314 H   0  0  0  0  0  0  0  0  0  0  0  0
  1  3  1  0  0  0  0
  1  5  1  0  0  0  0
  2  6  1  0  0  0  0
  2  1  1  0  0  0  0
  2  8  1  0  0  0  0
  4  1  1  0  0  0  0
  6  9  1  0  0  0  0
  6 10  1  0  0  0  0
  7  2  1  0  0  0  0
  9 12  1  0  0  0  0
 11  6  1  0  0  0  0
 13  9  1  0  0  0  0
 14  9  1  0  0  0  0
M  END
$$$$
