butane_opt
 OpenBabel08242015383D

 14 13  0  0  0  0  0  0  0  0999 V2000
   -3.9361    0.2525    0.0685 C   0  0  0  0  0  0  0  0  0  0  0  0
   -2.7106   -0.6035   -0.0015 C   0  0  0  0  0  0  0  0  0  0  0  0
   -4.8679   -0.3798   -0.0952 H   0  0  0  0  0  0  0  0  0  0  0  0
   -3.8906    0.7087   -0.7181 H   0  0  0  0  0  0  0  0  0  0  0  0
   -3.9805    1.0442    1.0556 H   0  0  0  0  0  0  0  0  0  0  0  0
   -1.4140    0.2147   -0.0490 C   0  0  0  0  0  0  0  0  0  0  0  0
   -2.8159   -1.3367   -0.9122 H   0  0  0  0  0  0  0  0  0  0  0  0
   -2.7433   -1.1646    0.8561 H   0  0  0  0  0  0  0  0  0  0  0  0
   -0.1444   -0.7015    0.0755 C   0  0  0  0  0  0  0  0  0  0  0  0
   -1.3388    0.7915    0.7568 H   0  0  0  0  0  0  0  0  0  0  0  0
   -1.3974    0.9530   -0.9902 H   0  0  0  0  0  0  0  0  0  0  0  0
   -0.1223   -1.5229    1.0758 H   0  0  0  0  0  0  0  0  0  0  0  0
    0.6776   -0.1826    0.0609 H   0  0  0  0  0  0  0  0  0  0  0  0
   -0.0772   -1.3444   -0.7350 H   0  0  0  0  0  0  0  0  0  0  0  0
  1  5  1  0  0  0  0
  2  1  1  0  0  0  0
  2  8  1  0  0  0  0
  3  1  1  0  0  0  0
  4  1  1  0  0  0  0
  6  2  1  0  0  0  0
  6  9  1  0  0  0  0
  6 10  1  0  0  0  0
  7  2  1  0  0  0  0
  9 12  1  0  0  0  0
 11  6  1  0  0  0  0
 13  9  1  0  0  0  0
 14  9  1  0  0  0  0
M  END
$$$$
