butane_opt
 OpenBabel08242015383D

 14 13  0  0  0  0  0  0  0  0999 V2000
   -3.9617    0.2779   -0.0417 C   0  0  0  0  0  0  0  0  0  0  0  0
   -2.7070   -0.6468    0.0800 C   0  0  0  0  0  0  0  0  0  0  0  0
   -4.8164   -0.2435    0.0603 H   0  0  0  0  0  0  0  0  0  0  0  0
   -4.0015    1.0247   -0.9688 H   0  0  0  0  0  0  0  0  0  0  0  0
   -4.0076    0.8388    0.7197 H   0  0  0  0  0  0  0  0  0  0  0  0
   -1.3940    0.1757    0.0926 C   0  0  0  0  0  0  0  0  0  0  0  0
   -2.6877   -1.2493   -0.7336 H   0  0  0  0  0  0  0  0  0  0  0  0
   -2.7174   -1.2794    0.9685 H   0  0  0  0  0  0  0  0  0  0  0  0
   -0.1542   -0.6796   -0.0379 C   0  0  0  0  0  0  0  0  0  0  0  0
   -1.2287    0.9578    1.0637 H   0  0  0  0  0  0  0  0  0  0  0  0
   -1.3577    0.7024   -0.7452 H   0  0  0  0  0  0  0  0  0  0  0  0
   -0.0597   -1.3795    0.9093 H   0  0  0  0  0  0  0  0  0  0  0  0
    0.6987   -0.1340   -0.1092 H   0  0  0  0  0  0  0  0  0  0  0  0
   -0.2454   -1.2369   -0.8416 H   0  0  0  0  0  0  0  0  0  0  0  0
  1  3  1  0  0  0  0
  1  2  1  0  0  0  0
  1  5  1  0  0  0  0
  2  6  1  0  0  0  0
  2  8  1  0  0  0  0
  4  1  1  0  0  0  0
  6 10  1  0  0  0  0
  7  2  1  0  0  0  0
  9  6  1  0  0  0  0
  9 12  1  0  0  0  0
 11  6  1  0  0  0  0
 13  9  1  0  0  0  0
 14  9  1  0  0  0  0
M  END
$$$$
