14
butane_opt
C  -3.958841   0.277196   0.054059
C  -2.701516  -0.625045   0.009463
H  -4.861719  -0.313598  -0.078826
H  -4.006509   0.753379  -0.718407
H  -4.003508   1.122651   1.065183
C  -1.393053   0.165339  -0.036317
H  -2.720949  -1.312944  -0.885672
H  -2.725303  -1.243719   0.887997
C  -0.154563  -0.679678   0.058511
H  -1.473667   0.720129   0.738120
H  -1.351428   0.812003  -0.970455
H  -0.131612  -1.387921   1.061100
H   0.799140  -0.029904   0.089824
H  -0.069005  -1.233874  -0.747686
