butane_opt
 OpenBabel08242015383D

 14 13  0  0  0  0  0  0  0  0999 V2000
   -3.9231    0.2767   -0.0181 C   0  0  0  0  0  0  0  0  0  0  0  0
   -2.7085   -0.6309    0.0682 C   0  0  0  0  0  0  0  0  0  0  0  0
   -4.8154   -0.2656    0.1617 H   0  0  0  0  0  0  0  0  0  0  0  0
   -4.0095    1.0814   -1.0026 H   0  0  0  0  0  0  0  0  0  0  0  0
   -4.0387    0.8458    0.7775 H   0  0  0  0  0  0  0  0  0  0  0  0
   -1.4065    0.1613    0.0504 C   0  0  0  0  0  0  0  0  0  0  0  0
   -2.6690   -1.3102   -0.7776 H   0  0  0  0  0  0  0  0  0  0  0  0
   -2.7164   -1.3514    1.0287 H   0  0  0  0  0  0  0  0  0  0  0  0
   -0.1728   -0.6734    0.0077 C   0  0  0  0  0  0  0  0  0  0  0  0
   -1.3354    0.7921    0.8679 H   0  0  0  0  0  0  0  0  0  0  0  0
   -1.4015    0.8435   -0.8277 H   0  0  0  0  0  0  0  0  0  0  0  0
   -0.1259   -1.0996    0.7724 H   0  0  0  0  0  0  0  0  0  0  0  0
    0.8087   -0.0523    0.1549 H   0  0  0  0  0  0  0  0  0  0  0  0
   -0.1958   -1.5506   -1.0381 H   0  0  0  0  0  0  0  0  0  0  0  0
  1  2  1  0  0  0  0
  1  3  1  0  0  0  0
  1  5  1  0  0  0  0
  2  8  1  0  0  0  0
  4  1  1  0  0  0  0
  6  2  1  0  0  0  0
  6 10  1  0  0  0  0
  7  2  1  0  0  0  0
  9  6  1  0  0  0  0
  9 13  1  0  0  0  0
  9 12  1  0  0  0  0
 11  6  1  0  0  0  0
 14  9  1  0  0  0  0
M  END
$$$$
