14
butane_opt
C  -3.946566   0.254009  -0.012697
C  -2.710709  -0.612819   0.062241
H  -4.903961  -0.362982   0.042057
H  -3.976286   0.924931  -0.957914
H  -3.973939   0.874867   0.811195
C  -1.407368   0.207550   0.059784
H  -2.688691  -1.308319  -0.776202
H  -2.711374  -1.230420   0.951429
C  -0.147613  -0.705074  -0.003098
H  -1.337325   0.898169   0.928928
H  -1.426209   0.872503  -0.852904
H  -0.030434  -1.354564   0.917144
H   0.734050  -0.134764  -0.037297
H  -0.154010  -1.384818  -0.862857
