14
butane_opt
C  -3.946992   0.275908  -0.011832
C  -2.699204  -0.621151   0.058889
H  -4.836802  -0.317574   0.023762
H  -3.978068   0.910011  -0.948743
H  -3.970408   0.920325   0.829618
C  -1.391547   0.164038   0.055302
H  -2.619379  -1.242369  -0.770698
H  -2.726759  -1.274614   0.976981
C  -0.180316  -0.689533   0.004296
H  -1.342810   0.880119   0.929586
H  -1.394994   0.761697  -0.813480
H  -0.104514  -1.285347   0.889286
H   0.776719  -0.061678  -0.116865
H  -0.211767  -1.306202  -0.839889
