butane_opt
 OpenBabel08242015383D

 14 13  0  0  0  0  0  0  0  0999 V2000
   -3.9438    0.2652   -0.0196 C   0  0  0  0  0  0  0  0  0  0  0  0
   -2.7246   -0.5942    0.0567 C   0  0  0  0  0  0  0  0  0  0  0  0
   -4.9263   -0.4029    0.0608 H   0  0  0  0  0  0  0  0  0  0  0  0
   -3.9836    0.8556   -0.8778 H   0  0  0  0  0  0  0  0  0  0  0  0
   -3.8806    0.8327    0.8225 H   0  0  0  0  0  0  0  0  0  0  0  0
   -1.3952    0.1962    0.0592 C   0  0  0  0  0  0  0  0  0  0  0  0
   -2.6799   -1.3305   -0.8257 H   0  0  0  0  0  0  0  0  0  0  0  0
   -2.7911   -1.1973    0.9416 H   0  0  0  0  0  0  0  0  0  0  0  0
   -0.1443   -0.7105    0.0124 C   0  0  0  0  0  0  0  0  0  0  0  0
   -1.4121    0.9010    0.9211 H   0  0  0  0  0  0  0  0  0  0  0  0
   -1.4054    0.8688   -0.8061 H   0  0  0  0  0  0  0  0  0  0  0  0
   -0.0157   -1.4016    0.9359 H   0  0  0  0  0  0  0  0  0  0  0  0
    0.7668   -0.1653   -0.2128 H   0  0  0  0  0  0  0  0  0  0  0  0
   -0.1959   -1.3202   -0.8279 H   0  0  0  0  0  0  0  0  0  0  0  0
  1  2  1  0  0  0  0
  1  3  1  0  0  0  0
  1  5  1  0  0  0  0
  2  6  1  0  0  0  0
  2  8  1  0  0  0  0
  4  1  1  0  0  0  0
  6 10  1  0  0  0  0
  7  2  1  0  0  0  0
  9  6  1  0  0  0  0
  9 12  1  0  0  0  0
 11  6  1  0  0  0  0
 13  9  1  0  0  0  0
 14  9  1  0  0  0  0
M  END
$$$$
