butane_opt
 OpenBabel08242015383D

 14 13  0  0  0  0  0  0  0  0999 V2000
   -3.9374    0.2803   -0.0425 C   0  0  0  0  0  0  0  0  0  0  0  0
   -2.6831   -0.6379    0.0745 C   0  0  0  0  0  0  0  0  0  0  0  0
   -4.7742   -0.2622    0.0473 H   0  0  0  0  0  0  0  0  0  0  0  0
   -3.8914    0.9265   -0.9605 H   0  0  0  0  0  0  0  0  0  0  0  0
   -4.0074    0.9564    0.8557 H   0  0  0  0  0  0  0  0  0  0  0  0
   -1.3995    0.1625    0.0800 C   0  0  0  0  0  0  0  0  0  0  0  0
   -2.6747   -1.2754   -0.7405 H   0  0  0  0  0  0  0  0  0  0  0  0
   -2.7934   -1.3101    1.0021 H   0  0  0  0  0  0  0  0  0  0  0  0
   -0.1884   -0.6811   -0.0183 C   0  0  0  0  0  0  0  0  0  0  0  0
   -1.3976    0.9560    1.0128 H   0  0  0  0  0  0  0  0  0  0  0  0
   -1.3623    0.7611   -0.7412 H   0  0  0  0  0  0  0  0  0  0  0  0
   -0.0798   -1.3938    0.9382 H   0  0  0  0  0  0  0  0  0  0  0  0
    0.7945   -0.0395   -0.2335 H   0  0  0  0  0  0  0  0  0  0  0  0
   -0.3508   -1.2581   -0.8556 H   0  0  0  0  0  0  0  0  0  0  0  0
  1  3  1  0  0  0  0
  1  2  1  0  0  0  0
  1  5  1  0  0  0  0
  2  6  1  0  0  0  0
  2  8  1  0  0  0  0
  4  1  1  0  0  0  0
  6 10  1  0  0  0  0
  7  2  1  0  0  0  0
  9  6  1  0  0  0  0
  9 12  1  0  0  0  0
 11  6  1  0  0  0  0
 13  9  1  0  0  0  0
 14  9  1  0  0  0  0
M  END
$$$$
