14
butane_opt
C  -3.945825   0.244219  -0.003141
C  -2.704194  -0.611691   0.030221
H  -4.821340  -0.291282   0.012834
H  -3.915396   0.902312  -0.909491
H  -3.986116   0.895207   0.845377
C  -1.425440   0.203573   0.054614
H  -2.733872  -1.212244  -0.697425
H  -2.736428  -1.263709   0.945618
C  -0.140418  -0.701635   0.016215
H  -1.345984   0.927883   0.949126
H  -1.410483   0.788005  -0.798003
H   0.001398  -1.377924   0.915761
H   0.705875  -0.159117  -0.206873
H  -0.191442  -1.293457  -0.794152
