14
butane_opt
C  -3.938435   0.250976   0.014029
C  -2.711259  -0.594395   0.059275
H  -4.908742  -0.397095   0.045453
H  -3.881837   0.933221  -0.939270
H  -3.977726   0.831583   0.806000
C  -1.411093   0.206994  -0.002892
H  -2.831440  -1.214576  -0.728186
H  -2.759111  -1.329916   1.051800
C  -0.140595  -0.720757   0.016990
H  -1.366648   0.958785   0.880716
H  -1.480082   0.853170  -0.866760
H  -0.223689  -1.087643   0.741027
H   0.761775  -0.151971   0.255505
H   0.068440  -1.592573  -0.891602
