14
butane_opt
C  -3.933338   0.232133  -0.030605
C  -2.697910  -0.599477   0.087519
H  -4.816371  -0.326211  -0.026528
H  -3.876445   0.920458  -0.982912
H  -3.978009   0.851607   0.797999
C  -1.432353   0.228486   0.074843
H  -2.626418  -1.226682  -0.765361
H  -2.842356  -1.232408   1.004073
C  -0.155302  -0.717279  -0.030647
H  -1.316877   0.990935   1.004864
H  -1.483028   0.733325  -0.735731
H  -0.025907  -1.464802   0.916256
H   0.778822  -0.150528  -0.113140
H  -0.203611  -1.290249  -0.852708
