butane_opt
 OpenBabel08242015383D

 14 13  0  0  0  0  0  0  0  0999 V2000
   -3.9593    0.2858   -0.0296 C   0  0  0  0  0  0  0  0  0  0  0  0
   -2.7049   -0.6276    0.1053 C   0  0  0  0  0  0  0  0  0  0  0  0
   -4.8580   -0.3025   -0.1201 H   0  0  0  0  0  0  0  0  0  0  0  0
   -3.8707    0.8284   -0.8351 H   0  0  0  0  0  0  0  0  0  0  0  0
   -4.0545    0.9610    0.8395 H   0  0  0  0  0  0  0  0  0  0  0  0
   -1.3980    0.1663    0.0305 C   0  0  0  0  0  0  0  0  0  0  0  0
   -2.6125   -1.2749   -0.6862 H   0  0  0  0  0  0  0  0  0  0  0  0
   -2.7632   -1.3177    1.0273 H   0  0  0  0  0  0  0  0  0  0  0  0
   -0.1652   -0.6825   -0.0119 C   0  0  0  0  0  0  0  0  0  0  0  0
   -1.2890    0.9301    0.9371 H   0  0  0  0  0  0  0  0  0  0  0  0
   -1.4148    0.7085   -0.7957 H   0  0  0  0  0  0  0  0  0  0  0  0
   -0.1648   -1.2513    0.8427 H   0  0  0  0  0  0  0  0  0  0  0  0
    0.8061   -0.0618   -0.0333 H   0  0  0  0  0  0  0  0  0  0  0  0
   -0.0902   -1.3861   -0.8688 H   0  0  0  0  0  0  0  0  0  0  0  0
  1  2  1  0  0  0  0
  1  5  1  0  0  0  0
  2  8  1  0  0  0  0
  3  1  1  0  0  0  0
  4  1  1  0  0  0  0
  6  2  1  0  0  0  0
  6 10  1  0  0  0  0
  7  2  1  0  0  0  0
  9  6  1  0  0  0  0
  9 12  1  0  0  0  0
 11  6  1  0  0  0  0
 13  9  1  0  0  0  0
 14  9  1  0  0  0  0
M  END
$$$$
