butane_opt
 OpenBabel08242015383D

 14 13  0  0  0  0  0  0  0  0999 V2000
   -3.9433    0.2546    0.0441 C   0  0  0  0  0  0  0  0  0  0  0  0
   -2.6970   -0.6069    0.0272 C   0  0  0  0  0  0  0  0  0  0  0  0
   -4.8671   -0.3905   -0.1869 H   0  0  0  0  0  0  0  0  0  0  0  0
   -3.8894    0.5429   -0.6189 H   0  0  0  0  0  0  0  0  0  0  0  0
   -4.0398    1.1257    1.0785 H   0  0  0  0  0  0  0  0  0  0  0  0
   -1.4131    0.2287   -0.0361 C   0  0  0  0  0  0  0  0  0  0  0  0
   -2.7374   -1.3530   -0.8543 H   0  0  0  0  0  0  0  0  0  0  0  0
   -2.7321   -1.1900    0.9019 H   0  0  0  0  0  0  0  0  0  0  0  0
   -0.1516   -0.7159    0.0661 C   0  0  0  0  0  0  0  0  0  0  0  0
   -1.4529    0.7968    0.7326 H   0  0  0  0  0  0  0  0  0  0  0  0
   -1.3578    0.9554   -1.0514 H   0  0  0  0  0  0  0  0  0  0  0  0
   -0.1353   -1.4447    1.0232 H   0  0  0  0  0  0  0  0  0  0  0  0
    0.7054   -0.1492   -0.0542 H   0  0  0  0  0  0  0  0  0  0  0  0
   -0.0498   -1.3030   -0.7112 H   0  0  0  0  0  0  0  0  0  0  0  0
  1  5  1  0  0  0  0
  2  1  1  0  0  0  0
  2  8  1  0  0  0  0
  3  1  1  0  0  0  0
  4  1  1  0  0  0  0
  6  2  1  0  0  0  0
  6  9  1  0  0  0  0
  6 10  1  0  0  0  0
  7  2  1  0  0  0  0
  9 12  1  0  0  0  0
 11  6  1  0  0  0  0
 13  9  1  0  0  0  0
 14  9  1  0  0  0  0
M  END
$$$$
