14
butane_opt
C  -3.951788   0.269057   0.009701
C  -2.674981  -0.621387   0.072183
H  -4.793489  -0.288351   0.090288
H  -3.949343   1.013175  -0.992941
H  -4.013495   0.793131   0.784192
C  -1.395887   0.174300   0.002484
H  -2.723035  -1.353899  -0.790577
H  -2.701532  -1.273143   0.972807
C  -0.182988  -0.680488   0.023123
H  -1.401612   0.877798   0.883012
H  -1.403858   0.796540  -0.835650
H  -0.220029  -1.070313   0.805064
H   0.706856  -0.117357   0.150065
H  -0.061781  -1.539134  -0.959485
