butane_opt
 OpenBabel08242015383D

 14 13  0  0  0  0  0  0  0  0999 V2000
   -3.9111    0.2597   -0.0023 C   0  0  0  0  0  0  0  0  0  0  0  0
   -2.7079   -0.5859    0.0647 C   0  0  0  0  0  0  0  0  0  0  0  0
   -4.8876   -0.3863    0.1519 H   0  0  0  0  0  0  0  0  0  0  0  0
   -3.8890    0.8473   -0.8998 H   0  0  0  0  0  0  0  0  0  0  0  0
   -3.9073    0.8102    0.7675 H   0  0  0  0  0  0  0  0  0  0  0  0
   -1.4202    0.1937    0.0264 C   0  0  0  0  0  0  0  0  0  0  0  0
   -2.7167   -1.1865   -0.7527 H   0  0  0  0  0  0  0  0  0  0  0  0
   -2.8060   -1.2728    0.9565 H   0  0  0  0  0  0  0  0  0  0  0  0
   -0.1586   -0.7095    0.0152 C   0  0  0  0  0  0  0  0  0  0  0  0
   -1.3630    0.8001    0.8088 H   0  0  0  0  0  0  0  0  0  0  0  0
   -1.4895    0.8913   -0.8956 H   0  0  0  0  0  0  0  0  0  0  0  0
   -0.2400   -1.1413    0.7643 H   0  0  0  0  0  0  0  0  0  0  0  0
    0.7465   -0.1227    0.2454 H   0  0  0  0  0  0  0  0  0  0  0  0
   -0.0932   -1.6205   -0.9619 H   0  0  0  0  0  0  0  0  0  0  0  0
  1  2  1  0  0  0  0
  1  3  1  0  0  0  0
  1  5  1  0  0  0  0
  2  8  1  0  0  0  0
  4  1  1  0  0  0  0
  6  2  1  0  0  0  0
  6 10  1  0  0  0  0
  7  2  1  0  0  0  0
  9  6  1  0  0  0  0
  9 13  1  0  0  0  0
  9 12  1  0  0  0  0
 11  6  1  0  0  0  0
 14  9  1  0  0  0  0
M  END
$$$$
