14
butane_opt
C  -3.952923   0.295029   0.056490
C  -2.711057  -0.651796   0.009220
H  -4.833950  -0.304097   0.101262
H  -3.997551   0.834410  -0.801186
H  -3.969161   0.969506   0.945199
C  -1.378472   0.187561  -0.048675
H  -2.772934  -1.332923  -0.904371
H  -2.681644  -1.280958   0.879491
C  -0.168437  -0.688326   0.092820
H  -1.430823   0.753595   0.704202
H  -1.355239   0.867646  -0.981059
H  -0.129099  -1.148544   0.879884
H   0.747638  -0.099902   0.163861
H  -0.083771  -1.432511  -0.865166
