14
butane_opt
C  -3.935777   0.255887  -0.021015
C  -2.696199  -0.593077   0.075182
H  -4.949744  -0.438777  -0.051033
H  -3.903973   0.827137  -0.917438
H  -3.973962   0.864418   0.798729
C  -1.404939   0.217328   0.052835
H  -2.733175  -1.135062  -0.649362
H  -2.735801  -1.303134   1.057467
C  -0.165839  -0.714457  -0.009107
H  -1.399464   0.878476   0.907965
H  -1.403175   0.784619  -0.819851
H  -0.063966  -1.297462   0.833273
H   0.762673  -0.152125   0.076626
H  -0.178634  -1.502254  -0.983886
