butane_opt
 OpenBabel08242015383D

 14 13  0  0  0  0  0  0  0  0999 V2000
   -3.9529    0.2950    0.0565 C   0  0  0  0  0  0  0  0  0  0  0  0
   -2.7111   -0.6518    0.0092 C   0  0  0  0  0  0  0  0  0  0  0  0
   -4.8339   -0.3041    0.1013 H   0  0  0  0  0  0  0  0  0  0  0  0
   -3.9976    0.8344   -0.8012 H   0  0  0  0  0  0  0  0  0  0  0  0
   -3.9692    0.9695    0.9452 H   0  0  0  0  0  0  0  0  0  0  0  0
   -1.3785    0.1876   -0.0487 C   0  0  0  0  0  0  0  0  0  0  0  0
   -2.7729   -1.3329   -0.9044 H   0  0  0  0  0  0  0  0  0  0  0  0
   -2.6816   -1.2810    0.8795 H   0  0  0  0  0  0  0  0  0  0  0  0
   -0.1684   -0.6883    0.0928 C   0  0  0  0  0  0  0  0  0  0  0  0
   -1.4308    0.7536    0.7042 H   0  0  0  0  0  0  0  0  0  0  0  0
   -1.3552    0.8676   -0.9811 H   0  0  0  0  0  0  0  0  0  0  0  0
   -0.1291   -1.1485    0.8799 H   0  0  0  0  0  0  0  0  0  0  0  0
    0.7476   -0.0999    0.1639 H   0  0  0  0  0  0  0  0  0  0  0  0
   -0.0838   -1.4325   -0.8652 H   0  0  0  0  0  0  0  0  0  0  0  0
  1  3  1  0  0  0  0
  1  5  1  0  0  0  0
  2  1  1  0  0  0  0
  2  8  1  0  0  0  0
  4  1  1  0  0  0  0
  6  2  1  0  0  0  0
  6  9  1  0  0  0  0
  6 10  1  0  0  0  0
  7  2  1  0  0  0  0
  9 13  1  0  0  0  0
  9 12  1  0  0  0  0
 11  6  1  0  0  0  0
 14  9  1  0  0  0  0
M  END
$$$$
