butane_opt
 OpenBabel08242015383D

 14 13  0  0  0  0  0  0  0  0999 V2000
   -3.9577    0.2863   -0.0174 C   0  0  0  0  0  0  0  0  0  0  0  0
   -2.7220   -0.6294    0.0602 C   0  0  0  0  0  0  0  0  0  0  0  0
   -4.8253   -0.2898    0.2864 H   0  0  0  0  0  0  0  0  0  0  0  0
   -4.0734    1.1522   -1.0985 H   0  0  0  0  0  0  0  0  0  0  0  0
   -3.9516    0.7274    0.7063 H   0  0  0  0  0  0  0  0  0  0  0  0
   -1.3859    0.1641    0.0698 C   0  0  0  0  0  0  0  0  0  0  0  0
   -2.6969   -1.3421   -0.8123 H   0  0  0  0  0  0  0  0  0  0  0  0
   -2.7119   -1.2486    0.9414 H   0  0  0  0  0  0  0  0  0  0  0  0
   -0.1521   -0.6825   -0.0091 C   0  0  0  0  0  0  0  0  0  0  0  0
   -1.3076    0.7968    0.8964 H   0  0  0  0  0  0  0  0  0  0  0  0
   -1.4258    0.7358   -0.7446 H   0  0  0  0  0  0  0  0  0  0  0  0
   -0.1207   -1.2123    0.7811 H   0  0  0  0  0  0  0  0  0  0  0  0
    0.8302    0.0036    0.1352 H   0  0  0  0  0  0  0  0  0  0  0  0
   -0.1406   -1.4282   -0.9154 H   0  0  0  0  0  0  0  0  0  0  0  0
  1  2  1  0  0  0  0
  1  3  1  0  0  0  0
  1  5  1  0  0  0  0
  2  6  1  0  0  0  0
  2  8  1  0  0  0  0
  4  1  1  0  0  0  0
  6 10  1  0  0  0  0
  7  2  1  0  0  0  0
  9  6  1  0  0  0  0
  9 13  1  0  0  0  0
  9 12  1  0  0  0  0
 11  6  1  0  0  0  0
 14  9  1  0  0  0  0
M  END
$$$$
