butane_opt
 OpenBabel08242015383D

 14 13  0  0  0  0  0  0  0  0999 V2000
   -3.9673    0.2831   -0.0167 C   0  0  0  0  0  0  0  0  0  0  0  0
   -2.6971   -0.6451    0.0889 C   0  0  0  0  0  0  0  0  0  0  0  0
   -4.8483   -0.2537    0.0022 H   0  0  0  0  0  0  0  0  0  0  0  0
   -4.0023    1.0044   -1.0185 H   0  0  0  0  0  0  0  0  0  0  0  0
   -4.0293    0.8612    0.7570 H   0  0  0  0  0  0  0  0  0  0  0  0
   -1.3979    0.1689    0.0464 C   0  0  0  0  0  0  0  0  0  0  0  0
   -2.6975   -1.2223   -0.7119 H   0  0  0  0  0  0  0  0  0  0  0  0
   -2.7013   -1.3838    1.0919 H   0  0  0  0  0  0  0  0  0  0  0  0
   -0.1576   -0.6652   -0.0055 C   0  0  0  0  0  0  0  0  0  0  0  0
   -1.2815    0.8092    0.8956 H   0  0  0  0  0  0  0  0  0  0  0  0
   -1.2990    0.8244   -0.8402 H   0  0  0  0  0  0  0  0  0  0  0  0
   -0.1440   -1.0783    0.7589 H   0  0  0  0  0  0  0  0  0  0  0  0
    0.7316   -0.1016    0.2063 H   0  0  0  0  0  0  0  0  0  0  0  0
   -0.1200   -1.6368   -1.1013 H   0  0  0  0  0  0  0  0  0  0  0  0
  1  3  1  0  0  0  0
  1  2  1  0  0  0  0
  1  5  1  0  0  0  0
  2  8  1  0  0  0  0
  4  1  1  0  0  0  0
  6  2  1  0  0  0  0
  6 10  1  0  0  0  0
  7  2  1  0  0  0  0
  9  6  1  0  0  0  0
  9 13  1  0  0  0  0
  9 12  1  0  0  0  0
 11  6  1  0  0  0  0
 14  9  1  0  0  0  0
M  END
$$$$
