butane_opt
 OpenBabel08242015383D

 14 13  0  0  0  0  0  0  0  0999 V2000
   -3.9693    0.2718   -0.0163 C   0  0  0  0  0  0  0  0  0  0  0  0
   -2.6965   -0.6292    0.0770 C   0  0  0  0  0  0  0  0  0  0  0  0
   -4.8580   -0.3315    0.0507 H   0  0  0  0  0  0  0  0  0  0  0  0
   -4.0611    0.9043   -0.9135 H   0  0  0  0  0  0  0  0  0  0  0  0
   -3.9073    0.9534    0.9003 H   0  0  0  0  0  0  0  0  0  0  0  0
   -1.4128    0.1639    0.0112 C   0  0  0  0  0  0  0  0  0  0  0  0
   -2.6485   -1.1965   -0.7059 H   0  0  0  0  0  0  0  0  0  0  0  0
   -2.7567   -1.2640    1.0204 H   0  0  0  0  0  0  0  0  0  0  0  0
   -0.1363   -0.6762    0.0098 C   0  0  0  0  0  0  0  0  0  0  0  0
   -1.3799    0.8459    0.9061 H   0  0  0  0  0  0  0  0  0  0  0  0
   -1.3217    0.7977   -0.8672 H   0  0  0  0  0  0  0  0  0  0  0  0
   -0.2099   -1.1521    0.8425 H   0  0  0  0  0  0  0  0  0  0  0  0
    0.7604   -0.0914    0.1714 H   0  0  0  0  0  0  0  0  0  0  0  0
   -0.0640   -1.5106   -0.9724 H   0  0  0  0  0  0  0  0  0  0  0  0
  1  3  1  0  0  0  0
  1  2  1  0  0  0  0
  1  5  1  0  0  0  0
  2  8  1  0  0  0  0
  4  1  1  0  0  0  0
  6  2  1  0  0  0  0
  6 10  1  0  0  0  0
  7  2  1  0  0  0  0
  9  6  1  0  0  0  0
  9 13  1  0  0  0  0
  9 12  1  0  0  0  0
 11  6  1  0  0  0  0
 14  9  1  0  0  0  0
M  END
$$$$
