butane_opt
 OpenBabel08242015383D

 14 13  0  0  0  0  0  0  0  0999 V2000
   -3.9515    0.2626    0.0001 C   0  0  0  0  0  0  0  0  0  0  0  0
   -2.7002   -0.6011    0.0539 C   0  0  0  0  0  0  0  0  0  0  0  0
   -4.8881   -0.3582    0.0721 H   0  0  0  0  0  0  0  0  0  0  0  0
   -3.9551    0.8956   -0.9288 H   0  0  0  0  0  0  0  0  0  0  0  0
   -3.9554    0.8628    0.8149 H   0  0  0  0  0  0  0  0  0  0  0  0
   -1.4044    0.1841    0.0344 C   0  0  0  0  0  0  0  0  0  0  0  0
   -2.7322   -1.3027   -0.8194 H   0  0  0  0  0  0  0  0  0  0  0  0
   -2.6913   -1.2622    0.9632 H   0  0  0  0  0  0  0  0  0  0  0  0
   -0.1497   -0.6893    0.0222 C   0  0  0  0  0  0  0  0  0  0  0  0
   -1.4035    0.8612    0.8883 H   0  0  0  0  0  0  0  0  0  0  0  0
   -1.4135    0.7974   -0.8773 H   0  0  0  0  0  0  0  0  0  0  0  0
   -0.0852   -1.2672    0.8944 H   0  0  0  0  0  0  0  0  0  0  0  0
    0.7335   -0.1514   -0.0240 H   0  0  0  0  0  0  0  0  0  0  0  0
   -0.1626   -1.4214   -0.8818 H   0  0  0  0  0  0  0  0  0  0  0  0
  1  2  1  0  0  0  0
  1  3  1  0  0  0  0
  1  5  1  0  0  0  0
  2  8  1  0  0  0  0
  4  1  1  0  0  0  0
  6  2  1  0  0  0  0
  6 10  1  0  0  0  0
  7  2  1  0  0  0  0
  9  6  1  0  0  0  0
  9 12  1  0  0  0  0
 11  6  1  0  0  0  0
 13  9  1  0  0  0  0
 14  9  1  0  0  0  0
M  END
$$$$
