14
butane_opt
C  -3.929818   0.261647  -0.027064
C  -2.680487  -0.625708   0.069675
H  -4.768816  -0.296641   0.056590
H  -3.894385   1.008805  -1.048438
H  -4.001431   0.838917   0.780494
C  -1.423143   0.194211   0.094695
H  -2.752543  -1.302048  -0.793126
H  -2.669816  -1.240733   0.946669
C  -0.179199  -0.695894  -0.017550
H  -1.369708   0.869048   0.905387
H  -1.421234   0.761841  -0.731123
H  -0.077143  -1.319120   0.923342
H   0.776682  -0.065614  -0.207345
H  -0.294091  -1.318678  -0.844983
