butane_opt
 OpenBabel08242015383D

 14 13  0  0  0  0  0  0  0  0999 V2000
   -3.9685    0.2712    0.0013 C   0  0  0  0  0  0  0  0  0  0  0  0
   -2.6980   -0.6227    0.0641 C   0  0  0  0  0  0  0  0  0  0  0  0
   -4.8508   -0.3079    0.0053 H   0  0  0  0  0  0  0  0  0  0  0  0
   -3.9857    0.8757   -0.8866 H   0  0  0  0  0  0  0  0  0  0  0  0
   -4.0198    0.9635    0.8602 H   0  0  0  0  0  0  0  0  0  0  0  0
   -1.3923    0.1722    0.0096 C   0  0  0  0  0  0  0  0  0  0  0  0
   -2.6714   -1.2815   -0.7720 H   0  0  0  0  0  0  0  0  0  0  0  0
   -2.6949   -1.2821    0.9869 H   0  0  0  0  0  0  0  0  0  0  0  0
   -0.1559   -0.6872    0.0158 C   0  0  0  0  0  0  0  0  0  0  0  0
   -1.3157    0.8473    0.8747 H   0  0  0  0  0  0  0  0  0  0  0  0
   -1.4171    0.7870   -0.8345 H   0  0  0  0  0  0  0  0  0  0  0  0
   -0.1323   -1.2185    0.8726 H   0  0  0  0  0  0  0  0  0  0  0  0
    0.7563   -0.0729    0.1020 H   0  0  0  0  0  0  0  0  0  0  0  0
   -0.1161   -1.3834   -0.8572 H   0  0  0  0  0  0  0  0  0  0  0  0
  1  3  1  0  0  0  0
  1  2  1  0  0  0  0
  1  5  1  0  0  0  0
  2  8  1  0  0  0  0
  4  1  1  0  0  0  0
  6  9  1  0  0  0  0
  6  2  1  0  0  0  0
  6 10  1  0  0  0  0
  7  2  1  0  0  0  0
  9 13  1  0  0  0  0
  9 12  1  0  0  0  0
 11  6  1  0  0  0  0
 14  9  1  0  0  0  0
M  END
$$$$
