butane_opt
 OpenBabel08242015383D

 14 13  0  0  0  0  0  0  0  0999 V2000
   -3.9279    0.2524    0.0675 C   0  0  0  0  0  0  0  0  0  0  0  0
   -2.7114   -0.5868   -0.0074 C   0  0  0  0  0  0  0  0  0  0  0  0
   -4.9184   -0.4395    0.0876 H   0  0  0  0  0  0  0  0  0  0  0  0
   -4.0073    0.7921   -0.8032 H   0  0  0  0  0  0  0  0  0  0  0  0
   -3.7502    0.9761    1.0389 H   0  0  0  0  0  0  0  0  0  0  0  0
   -1.4062    0.1908   -0.0743 C   0  0  0  0  0  0  0  0  0  0  0  0
   -2.7585   -1.2110   -0.8062 H   0  0  0  0  0  0  0  0  0  0  0  0
   -2.6865   -1.2140    0.8948 H   0  0  0  0  0  0  0  0  0  0  0  0
   -0.1614   -0.7074    0.0853 C   0  0  0  0  0  0  0  0  0  0  0  0
   -1.5302    0.8684    0.7180 H   0  0  0  0  0  0  0  0  0  0  0  0
   -1.3131    0.8572   -0.9873 H   0  0  0  0  0  0  0  0  0  0  0  0
   -0.2521   -1.2319    0.9723 H   0  0  0  0  0  0  0  0  0  0  0  0
    0.6913   -0.1787    0.2730 H   0  0  0  0  0  0  0  0  0  0  0  0
   -0.0031   -1.5016   -0.8174 H   0  0  0  0  0  0  0  0  0  0  0  0
  1  3  1  0  0  0  0
  1  5  1  0  0  0  0
  2  1  1  0  0  0  0
  2  8  1  0  0  0  0
  4  1  1  0  0  0  0
  6  2  1  0  0  0  0
  6  9  1  0  0  0  0
  6 10  1  0  0  0  0
  7  2  1  0  0  0  0
  9 13  1  0  0  0  0
  9 12  1  0  0  0  0
 11  6  1  0  0  0  0
 14  9  1  0  0  0  0
M  END
$$$$
