14
butane_opt
C  -3.959348   0.285782  -0.029605
C  -2.704937  -0.627552   0.105336
H  -4.857954  -0.302484  -0.120064
H  -3.870736   0.828409  -0.835099
H  -4.054505   0.961018   0.839500
C  -1.398015   0.166305   0.030490
H  -2.612548  -1.274944  -0.686249
H  -2.763169  -1.317723   1.027255
C  -0.165244  -0.682509  -0.011880
H  -1.288969   0.930114   0.937075
H  -1.414783   0.708549  -0.795667
H  -0.164820  -1.251325   0.842733
H   0.806086  -0.061784  -0.033290
H  -0.090159  -1.386108  -0.868796
