butane_opt
 OpenBabel08242015383D

 14 13  0  0  0  0  0  0  0  0999 V2000
   -3.9612    0.2581    0.0622 C   0  0  0  0  0  0  0  0  0  0  0  0
   -2.7143   -0.6026    0.0143 C   0  0  0  0  0  0  0  0  0  0  0  0
   -4.9301   -0.3573   -0.2288 H   0  0  0  0  0  0  0  0  0  0  0  0
   -3.8316    0.6860   -0.7015 H   0  0  0  0  0  0  0  0  0  0  0  0
   -4.0737    1.1663    1.0661 H   0  0  0  0  0  0  0  0  0  0  0  0
   -1.3861    0.1910   -0.0457 C   0  0  0  0  0  0  0  0  0  0  0  0
   -2.7764   -1.2631   -0.8826 H   0  0  0  0  0  0  0  0  0  0  0  0
   -2.7475   -1.2778    0.9603 H   0  0  0  0  0  0  0  0  0  0  0  0
   -0.1531   -0.6998    0.0671 C   0  0  0  0  0  0  0  0  0  0  0  0
   -1.3933    0.8399    0.7665 H   0  0  0  0  0  0  0  0  0  0  0  0
   -1.3465    0.8265   -0.9570 H   0  0  0  0  0  0  0  0  0  0  0  0
   -0.0439   -1.4528    1.0470 H   0  0  0  0  0  0  0  0  0  0  0  0
    0.7479   -0.1405   -0.0284 H   0  0  0  0  0  0  0  0  0  0  0  0
   -0.0526   -1.2688   -0.7399 H   0  0  0  0  0  0  0  0  0  0  0  0
  1  5  1  0  0  0  0
  2  1  1  0  0  0  0
  2  8  1  0  0  0  0
  3  1  1  0  0  0  0
  4  1  1  0  0  0  0
  6  2  1  0  0  0  0
  6  9  1  0  0  0  0
  6 10  1  0  0  0  0
  7  2  1  0  0  0  0
  9 12  1  0  0  0  0
 11  6  1  0  0  0  0
 13  9  1  0  0  0  0
 14  9  1  0  0  0  0
M  END
$$$$
