14
butane_opt
C  -3.966734   0.246047  -0.014570
C  -2.696535  -0.597805   0.104314
H  -4.927867  -0.351273   0.039088
H  -3.932773   0.970453  -0.962456
H  -3.976818   0.769373   0.753226
C  -1.406112   0.203362   0.035379
H  -2.735840  -1.266597  -0.749084
H  -2.788086  -1.228476   0.966076
C  -0.121977  -0.714865  -0.020607
H  -1.409131   0.909051   0.906465
H  -1.431509   0.888995  -0.881369
H  -0.227947  -1.120571   0.789539
H   0.756433  -0.177392   0.280606
H  -0.039534  -1.529460  -0.985881
