14
butane_opt
C  -3.944495   0.250637   0.074640
C  -2.722796  -0.608433  -0.032796
H  -4.876187  -0.353896   0.226429
H  -4.048448   0.937847  -0.862504
H  -3.872540   0.847833   0.890281
C  -1.394460   0.226479  -0.047554
H  -2.768860  -1.338195  -0.947862
H  -2.666228  -1.216414   0.850133
C  -0.156915  -0.716327   0.093421
H  -1.427737   0.961828   0.863850
H  -1.310072   0.815653  -0.903484
H  -0.155177  -1.441004   1.023781
H   0.754234  -0.127133  -0.007022
H  -0.021462  -1.388413  -0.758481
