14
butane_opt
C  -3.959161   0.271872  -0.003840
C  -2.704788  -0.628842   0.093184
H  -4.898372  -0.309440  -0.146896
H  -3.898660   0.872228  -0.880495
H  -4.143340   1.019948   0.883134
C  -1.395715   0.172426   0.028896
H  -2.729488  -1.291104  -0.739392
H  -2.755229  -1.259663   0.941737
C  -0.140293  -0.686647  -0.006264
H  -1.412713   0.830066   0.856470
H  -1.415648   0.805274  -0.864009
H  -0.173163  -1.230398   0.895893
H   0.830841  -0.068136   0.007410
H  -0.037643  -1.383068  -0.864830
