14
butane_opt
C  -3.937392   0.280324  -0.042538
C  -2.683113  -0.637934   0.074467
H  -4.774197  -0.262207   0.047304
H  -3.891389   0.926493  -0.960499
H  -4.007389   0.956407   0.855716
C  -1.399480   0.162532   0.079978
H  -2.674688  -1.275357  -0.740461
H  -2.793376  -1.310058   1.002111
C  -0.188429  -0.681110  -0.018308
H  -1.397631   0.956050   1.012848
H  -1.362253   0.761103  -0.741250
H  -0.079800  -1.393757   0.938229
H   0.794480  -0.039505  -0.233547
H  -0.350762  -1.258111  -0.855642
