14
butane_opt
C  -3.945810   0.279460  -0.044399
C  -2.681676  -0.614220   0.119207
H  -4.834633  -0.325776  -0.242536
H  -3.906060   0.852904  -0.920611
H  -4.056685   1.038443   0.861632
C  -1.398446   0.154984   0.077931
H  -2.539397  -1.274433  -0.665780
H  -2.818751  -1.307362   1.068491
C  -0.179972  -0.673177  -0.032389
H  -1.271769   0.765036   0.884859
H  -1.386498   0.736343  -0.782653
H  -0.150154  -1.274537   0.845067
H   0.757904  -0.040783  -0.121977
H  -0.340346  -1.396684  -0.925449
