butane_opt
 OpenBabel08242015383D

 14 13  0  0  0  0  0  0  0  0999 V2000
   -3.9334    0.2787    0.0578 C   0  0  0  0  0  0  0  0  0  0  0  0
   -2.7004   -0.6309    0.0238 C   0  0  0  0  0  0  0  0  0  0  0  0
   -4.8129   -0.3184   -0.1745 H   0  0  0  0  0  0  0  0  0  0  0  0
   -3.9507    0.6891   -0.6957 H   0  0  0  0  0  0  0  0  0  0  0  0
   -4.0924    1.1638    1.0452 H   0  0  0  0  0  0  0  0  0  0  0  0
   -1.3942    0.1802   -0.0553 C   0  0  0  0  0  0  0  0  0  0  0  0
   -2.7181   -1.4118   -0.8969 H   0  0  0  0  0  0  0  0  0  0  0  0
   -2.6340   -1.2044    0.8621 H   0  0  0  0  0  0  0  0  0  0  0  0
   -0.1818   -0.6872    0.0824 C   0  0  0  0  0  0  0  0  0  0  0  0
   -1.3092    0.7475    0.7889 H   0  0  0  0  0  0  0  0  0  0  0  0
   -1.4038    0.9266   -1.0158 H   0  0  0  0  0  0  0  0  0  0  0  0
   -0.2366   -1.3884    1.0389 H   0  0  0  0  0  0  0  0  0  0  0  0
    0.7875   -0.0202   -0.0612 H   0  0  0  0  0  0  0  0  0  0  0  0
   -0.1369   -1.3407   -0.7317 H   0  0  0  0  0  0  0  0  0  0  0  0
  1  5  1  0  0  0  0
  2  1  1  0  0  0  0
  2  8  1  0  0  0  0
  3  1  1  0  0  0  0
  4  1  1  0  0  0  0
  6  2  1  0  0  0  0
  6  9  1  0  0  0  0
  6 10  1  0  0  0  0
  7  2  1  0  0  0  0
  9 12  1  0  0  0  0
 11  6  1  0  0  0  0
 13  9  1  0  0  0  0
 14  9  1  0  0  0  0
M  END
$$$$
