14
butane_opt
C  -3.933355   0.278715   0.057806
C  -2.700392  -0.630863   0.023824
H  -4.812880  -0.318432  -0.174472
H  -3.950735   0.689070  -0.695670
H  -4.092390   1.163849   1.045206
C  -1.394247   0.180244  -0.055272
H  -2.718126  -1.411804  -0.896898
H  -2.634000  -1.204445   0.862060
C  -0.181757  -0.687193   0.082396
H  -1.309214   0.747461   0.788878
H  -1.403807   0.926588  -1.015829
H  -0.236590  -1.388393   1.038857
H   0.787487  -0.020239  -0.061158
H  -0.136950  -1.340675  -0.731671
