butane_opt
 OpenBabel08242015383D

 14 13  0  0  0  0  0  0  0  0999 V2000
   -3.9376    0.2560    0.0284 C   0  0  0  0  0  0  0  0  0  0  0  0
   -2.7047   -0.6060    0.0357 C   0  0  0  0  0  0  0  0  0  0  0  0
   -4.8174   -0.3279   -0.1054 H   0  0  0  0  0  0  0  0  0  0  0  0
   -3.9473    0.7265   -0.7707 H   0  0  0  0  0  0  0  0  0  0  0  0
   -3.9365    1.0492    0.9981 H   0  0  0  0  0  0  0  0  0  0  0  0
   -1.4028    0.1912   -0.0133 C   0  0  0  0  0  0  0  0  0  0  0  0
   -2.7000   -1.2825   -0.8030 H   0  0  0  0  0  0  0  0  0  0  0  0
   -2.7144   -1.2289    0.9222 H   0  0  0  0  0  0  0  0  0  0  0  0
   -0.1685   -0.7014    0.0445 C   0  0  0  0  0  0  0  0  0  0  0  0
   -1.4146    0.8529    0.7947 H   0  0  0  0  0  0  0  0  0  0  0  0
   -1.3724    0.8692   -0.9405 H   0  0  0  0  0  0  0  0  0  0  0  0
   -0.1430   -1.3518    0.9870 H   0  0  0  0  0  0  0  0  0  0  0  0
    0.7210   -0.1422    0.0018 H   0  0  0  0  0  0  0  0  0  0  0  0
   -0.1315   -1.3206   -0.7732 H   0  0  0  0  0  0  0  0  0  0  0  0
  1  2  1  0  0  0  0
  1  5  1  0  0  0  0
  2  8  1  0  0  0  0
  3  1  1  0  0  0  0
  4  1  1  0  0  0  0
  6  2  1  0  0  0  0
  6  9  1  0  0  0  0
  6 10  1  0  0  0  0
  7  2  1  0  0  0  0
  9 12  1  0  0  0  0
 11  6  1  0  0  0  0
 13  9  1  0  0  0  0
 14  9  1  0  0  0  0
M  END
$$$$
