14
butane_opt
C  -3.946302   0.260871   0.069593
C  -2.704736  -0.598477  -0.051270
H  -4.882609  -0.351995   0.143417
H  -3.958843   0.782921  -0.812381
H  -3.779276   0.905679   0.971293
C  -1.417393   0.188587  -0.024791
H  -2.718257  -1.292678  -0.928589
H  -2.556580  -1.225431   0.848921
C  -0.161636  -0.698124   0.081349
H  -1.495490   0.850134   0.838019
H  -1.343907   0.825143  -0.894286
H  -0.047492  -1.491275   1.103064
H   0.736567  -0.118571  -0.075648
H  -0.221321  -1.183307  -0.636204
