14
butane_opt
C  -3.926991   0.276378  -0.011579
C  -2.694725  -0.634722   0.087757
H  -4.785928  -0.256220  -0.053987
H  -3.941189   1.029742  -0.983191
H  -4.001503   0.951491   0.865595
C  -1.408269   0.155153   0.015159
H  -2.750553  -1.230504  -0.668507
H  -2.679390  -1.397780   1.054851
C  -0.187187  -0.676459  -0.003668
H  -1.317156   0.877409   0.944981
H  -1.405188   0.747145  -0.817306
H  -0.279029  -1.081716   0.770730
H   0.804439  -0.045749   0.224011
H  -0.076972  -1.492903  -0.988811
