butane_opt
 OpenBabel08242015383D

 14 13  0  0  0  0  0  0  0  0999 V2000
   -3.9562    0.2586    0.0529 C   0  0  0  0  0  0  0  0  0  0  0  0
   -2.7217   -0.6131   -0.0025 C   0  0  0  0  0  0  0  0  0  0  0  0
   -4.8668   -0.3512    0.0034 H   0  0  0  0  0  0  0  0  0  0  0  0
   -3.9655    0.8016   -0.8062 H   0  0  0  0  0  0  0  0  0  0  0  0
   -4.0384    1.0345    0.9539 H   0  0  0  0  0  0  0  0  0  0  0  0
   -1.3842    0.1995    0.0063 C   0  0  0  0  0  0  0  0  0  0  0  0
   -2.7099   -1.3312   -0.9281 H   0  0  0  0  0  0  0  0  0  0  0  0
   -2.6843   -1.1504    0.8004 H   0  0  0  0  0  0  0  0  0  0  0  0
   -0.1598   -0.7011    0.0608 C   0  0  0  0  0  0  0  0  0  0  0  0
   -1.4274    0.7935    0.7757 H   0  0  0  0  0  0  0  0  0  0  0  0
   -1.2567    0.8674   -0.9276 H   0  0  0  0  0  0  0  0  0  0  0  0
    0.0024   -1.5073    1.0566 H   0  0  0  0  0  0  0  0  0  0  0  0
    0.7479   -0.1534   -0.2023 H   0  0  0  0  0  0  0  0  0  0  0  0
   -0.1532   -1.2011   -0.6664 H   0  0  0  0  0  0  0  0  0  0  0  0
  1  5  1  0  0  0  0
  2  6  1  0  0  0  0
  2  1  1  0  0  0  0
  2  8  1  0  0  0  0
  3  1  1  0  0  0  0
  4  1  1  0  0  0  0
  6  9  1  0  0  0  0
  6 10  1  0  0  0  0
  7  2  1  0  0  0  0
  9 12  1  0  0  0  0
 11  6  1  0  0  0  0
 13  9  1  0  0  0  0
 14  9  1  0  0  0  0
M  END
$$$$
