butane_opt
 OpenBabel08242015383D

 14 13  0  0  0  0  0  0  0  0999 V2000
   -3.9384    0.2510    0.0140 C   0  0  0  0  0  0  0  0  0  0  0  0
   -2.7113   -0.5944    0.0593 C   0  0  0  0  0  0  0  0  0  0  0  0
   -4.9087   -0.3971    0.0455 H   0  0  0  0  0  0  0  0  0  0  0  0
   -3.8818    0.9332   -0.9393 H   0  0  0  0  0  0  0  0  0  0  0  0
   -3.9777    0.8316    0.8060 H   0  0  0  0  0  0  0  0  0  0  0  0
   -1.4111    0.2070   -0.0029 C   0  0  0  0  0  0  0  0  0  0  0  0
   -2.8314   -1.2146   -0.7282 H   0  0  0  0  0  0  0  0  0  0  0  0
   -2.7591   -1.3299    1.0518 H   0  0  0  0  0  0  0  0  0  0  0  0
   -0.1406   -0.7208    0.0170 C   0  0  0  0  0  0  0  0  0  0  0  0
   -1.3666    0.9588    0.8807 H   0  0  0  0  0  0  0  0  0  0  0  0
   -1.4801    0.8532   -0.8668 H   0  0  0  0  0  0  0  0  0  0  0  0
   -0.2237   -1.0876    0.7410 H   0  0  0  0  0  0  0  0  0  0  0  0
    0.7618   -0.1520    0.2555 H   0  0  0  0  0  0  0  0  0  0  0  0
    0.0684   -1.5926   -0.8916 H   0  0  0  0  0  0  0  0  0  0  0  0
  1  3  1  0  0  0  0
  1  2  1  0  0  0  0
  1  5  1  0  0  0  0
  2  8  1  0  0  0  0
  4  1  1  0  0  0  0
  6  9  1  0  0  0  0
  6  2  1  0  0  0  0
  6 10  1  0  0  0  0
  7  2  1  0  0  0  0
  9 13  1  0  0  0  0
  9 12  1  0  0  0  0
 11  6  1  0  0  0  0
 14  9  1  0  0  0  0
M  END
$$$$
