14
butane_opt
C  -3.957325   0.249083  -0.025528
C  -2.705847  -0.603733   0.072212
H  -4.906879  -0.348198  -0.057060
H  -3.997398   0.801428  -0.924052
H  -3.952342   0.949378   0.848110
C  -1.413867   0.216674   0.056382
H  -2.671550  -1.266223  -0.761986
H  -2.792316  -1.280982   0.990994
C  -0.127328  -0.709388  -0.003673
H  -1.308423   0.960699   0.971488
H  -1.459617   0.801905  -0.748408
H  -0.003262  -1.482851   0.971757
H   0.779621  -0.124202  -0.195709
H  -0.246651  -1.319719  -0.830829
