14
butane_opt
C  -3.957895   0.269368   0.048673
C  -2.704829  -0.629978   0.000304
H  -4.780983  -0.275467   0.118500
H  -4.063019   0.853461  -0.822138
H  -3.911365   0.957473   0.904167
C  -1.400494   0.181185  -0.024637
H  -2.751784  -1.297400  -0.848730
H  -2.686352  -1.257498   0.883307
C  -0.149433  -0.681058   0.059245
H  -1.412099   0.825542   0.812896
H  -1.396533   0.832285  -0.933168
H  -0.178171  -1.321066   0.979419
H   0.753020  -0.099876   0.143097
H  -0.059844  -1.352885  -0.795212
