14
butane_opt
C  -3.955290   0.244556   0.071751
C  -2.713650  -0.586019  -0.037457
H  -4.925888  -0.419396   0.030259
H  -4.047854   0.781617  -0.794820
H  -3.874765   0.967224   0.942567
C  -1.394925   0.208677  -0.023530
H  -2.767762  -1.268442  -0.875296
H  -2.686801  -1.172847   0.812583
C  -0.135870  -0.709828   0.089711
H  -1.479730   0.875658   0.820022
H  -1.382726   0.811076  -0.930868
H   0.016608  -1.553162   1.114979
H   0.704188  -0.123952  -0.176624
H  -0.174495  -1.267072  -0.692118
