butane_opt
 OpenBabel08242015383D

 14 13  0  0  0  0  0  0  0  0999 V2000
   -3.9658    0.2620    0.0260 C   0  0  0  0  0  0  0  0  0  0  0  0
   -2.7239   -0.6120    0.0457 C   0  0  0  0  0  0  0  0  0  0  0  0
   -4.8030   -0.2957    0.1175 H   0  0  0  0  0  0  0  0  0  0  0  0
   -3.9833    0.9335   -0.9397 H   0  0  0  0  0  0  0  0  0  0  0  0
   -3.9475    0.8879    0.8574 H   0  0  0  0  0  0  0  0  0  0  0  0
   -1.3982    0.1781   -0.0143 C   0  0  0  0  0  0  0  0  0  0  0  0
   -2.6812   -1.2293   -0.7813 H   0  0  0  0  0  0  0  0  0  0  0  0
   -2.7443   -1.2752    0.9408 H   0  0  0  0  0  0  0  0  0  0  0  0
   -0.1325   -0.6953    0.0282 C   0  0  0  0  0  0  0  0  0  0  0  0
   -1.3754    0.8667    0.8919 H   0  0  0  0  0  0  0  0  0  0  0  0
   -1.4436    0.7440   -0.8817 H   0  0  0  0  0  0  0  0  0  0  0  0
   -0.2793   -1.1424    0.8506 H   0  0  0  0  0  0  0  0  0  0  0  0
    0.7992   -0.1098    0.2137 H   0  0  0  0  0  0  0  0  0  0  0  0
    0.0677   -1.4307   -0.8711 H   0  0  0  0  0  0  0  0  0  0  0  0
  1  2  1  0  0  0  0
  1  3  1  0  0  0  0
  1  5  1  0  0  0  0
  2  8  1  0  0  0  0
  4  1  1  0  0  0  0
  6  9  1  0  0  0  0
  6  2  1  0  0  0  0
  6 10  1  0  0  0  0
  7  2  1  0  0  0  0
  9 13  1  0  0  0  0
  9 12  1  0  0  0  0
 11  6  1  0  0  0  0
 14  9  1  0  0  0  0
M  END
$$$$
