14
butane_opt
C  -3.965780   0.262006   0.026013
C  -2.723893  -0.611961   0.045691
H  -4.803020  -0.295658   0.117499
H  -3.983279   0.933544  -0.939697
H  -3.947455   0.887914   0.857374
C  -1.398195   0.178092  -0.014297
H  -2.681235  -1.229340  -0.781292
H  -2.744322  -1.275168   0.940761
C  -0.132527  -0.695346   0.028164
H  -1.375382   0.866734   0.891940
H  -1.443576   0.744026  -0.881699
H  -0.279347  -1.142402   0.850617
H   0.799195  -0.109812   0.213717
H   0.067658  -1.430685  -0.871099
