butane_opt
 OpenBabel08242015383D

 14 13  0  0  0  0  0  0  0  0999 V2000
   -3.9252    0.2795   -0.0341 C   0  0  0  0  0  0  0  0  0  0  0  0
   -2.6919   -0.6476    0.1107 C   0  0  0  0  0  0  0  0  0  0  0  0
   -4.8160   -0.3505   -0.0071 H   0  0  0  0  0  0  0  0  0  0  0  0
   -3.9576    1.0021   -0.9972 H   0  0  0  0  0  0  0  0  0  0  0  0
   -4.0692    0.9084    0.7801 H   0  0  0  0  0  0  0  0  0  0  0  0
   -1.4161    0.1755    0.0650 C   0  0  0  0  0  0  0  0  0  0  0  0
   -2.6173   -1.3085   -0.7463 H   0  0  0  0  0  0  0  0  0  0  0  0
   -2.7001   -1.2810    1.0337 H   0  0  0  0  0  0  0  0  0  0  0  0
   -0.1739   -0.6798   -0.0328 C   0  0  0  0  0  0  0  0  0  0  0  0
   -1.3667    0.8701    0.9229 H   0  0  0  0  0  0  0  0  0  0  0  0
   -1.4343    0.8199   -0.8433 H   0  0  0  0  0  0  0  0  0  0  0  0
   -0.1705   -1.1501    0.7973 H   0  0  0  0  0  0  0  0  0  0  0  0
    0.7652   -0.0632    0.1140 H   0  0  0  0  0  0  0  0  0  0  0  0
   -0.1688   -1.4509   -0.9357 H   0  0  0  0  0  0  0  0  0  0  0  0
  1  3  1  0  0  0  0
  1  2  1  0  0  0  0
  1  5  1  0  0  0  0
  2  8  1  0  0  0  0
  4  1  1  0  0  0  0
  6  2  1  0  0  0  0
  6 10  1  0  0  0  0
  7  2  1  0  0  0  0
  9  6  1  0  0  0  0
  9 13  1  0  0  0  0
  9 12  1  0  0  0  0
 11  6  1  0  0  0  0
 14  9  1  0  0  0  0
M  END
$$$$
