butane_opt
 OpenBabel08242015383D

 14 13  0  0  0  0  0  0  0  0999 V2000
   -3.9465    0.2670   -0.0242 C   0  0  0  0  0  0  0  0  0  0  0  0
   -2.6815   -0.6057    0.0559 C   0  0  0  0  0  0  0  0  0  0  0  0
   -4.8563   -0.3534    0.2614 H   0  0  0  0  0  0  0  0  0  0  0  0
   -3.9965    1.1114   -1.0167 H   0  0  0  0  0  0  0  0  0  0  0  0
   -3.8564    0.7123    0.6896 H   0  0  0  0  0  0  0  0  0  0  0  0
   -1.4228    0.1644    0.0618 C   0  0  0  0  0  0  0  0  0  0  0  0
   -2.6159   -1.2386   -0.7826 H   0  0  0  0  0  0  0  0  0  0  0  0
   -2.7075   -1.2933    0.9745 H   0  0  0  0  0  0  0  0  0  0  0  0
   -0.1671   -0.6783    0.0008 C   0  0  0  0  0  0  0  0  0  0  0  0
   -1.3519    0.9019    0.9821 H   0  0  0  0  0  0  0  0  0  0  0  0
   -1.3845    0.6450   -0.7351 H   0  0  0  0  0  0  0  0  0  0  0  0
   -0.0842   -1.2169    0.8515 H   0  0  0  0  0  0  0  0  0  0  0  0
    0.7100   -0.0814    0.0017 H   0  0  0  0  0  0  0  0  0  0  0  0
   -0.2688   -1.4220   -0.9428 H   0  0  0  0  0  0  0  0  0  0  0  0
  1  2  1  0  0  0  0
  1  3  1  0  0  0  0
  1  5  1  0  0  0  0
  2  6  1  0  0  0  0
  2  8  1  0  0  0  0
  4  1  1  0  0  0  0
  6 10  1  0  0  0  0
  7  2  1  0  0  0  0
  9 13  1  0  0  0  0
  9  6  1  0  0  0  0
  9 12  1  0  0  0  0
 11  6  1  0  0  0  0
 14  9  1  0  0  0  0
M  END
$$$$
