14
butane_opt
C  -3.969134   0.238118   0.054890
C  -2.697527  -0.578602   0.011237
H  -4.908304  -0.373041  -0.124364
H  -3.892241   0.779580  -0.837601
H  -3.958523   0.950171   0.959190
C  -1.405650   0.209620  -0.010006
H  -2.790243  -1.295904  -0.900166
H  -2.684712  -1.181986   0.843214
C  -0.138165  -0.707000   0.059719
H  -1.404610   0.833732   0.836462
H  -1.410265   0.798545  -0.891566
H  -0.019740  -1.489755   1.051693
H   0.717953  -0.198491  -0.165442
H  -0.139921  -1.238042  -0.706265
