14
butane_opt
C  -3.943251   0.254643   0.044071
C  -2.697000  -0.606915   0.027173
H  -4.867143  -0.390532  -0.186874
H  -3.889380   0.542857  -0.618918
H  -4.039824   1.125729   1.078486
C  -1.413076   0.228713  -0.036081
H  -2.737369  -1.353017  -0.854260
H  -2.732057  -1.190029   0.901867
C  -0.151590  -0.715898   0.066091
H  -1.452858   0.796836   0.732588
H  -1.357820   0.955410  -1.051389
H  -0.135318  -1.444676   1.023247
H   0.705434  -0.149219  -0.054172
H  -0.049806  -1.302990  -0.711225
