14
butane_opt
C  -3.961674   0.253372  -0.040840
C  -2.715419  -0.594243   0.082207
H  -4.918939  -0.382581   0.016616
H  -3.889766   0.850107  -0.927365
H  -3.994241   0.876543   0.802625
C  -1.395129   0.221001   0.086718
H  -2.723827  -1.337071  -0.811896
H  -2.744205  -1.165203   0.958929
C  -0.133247  -0.726978  -0.021541
H  -1.278939   0.871885   0.958166
H  -1.450125   0.779489  -0.749688
H  -0.008314  -1.438834   0.963512
H   0.720838  -0.163607  -0.245985
H  -0.249484  -1.207191  -0.786079
