14
butane_opt
C  -3.908981   0.249146  -0.000760
C  -2.708537  -0.596974   0.047345
H  -4.831366  -0.347009  -0.044932
H  -3.899896   0.819818  -0.884266
H  -4.030891   0.857680   0.814979
C  -1.425564   0.206776   0.063759
H  -2.695517  -1.273482  -0.803197
H  -2.790421  -1.206834   0.934880
C  -0.155430  -0.706866   0.013404
H  -1.469431   0.877120   0.910066
H  -1.443786   0.816362  -0.854196
H   0.045716  -1.396864   0.979269
H   0.699741  -0.127637  -0.292274
H  -0.226936  -1.318068  -0.801855
