14
butane_opt
C  -3.961284   0.276617   0.068798
C  -2.700546  -0.645920  -0.020315
H  -4.870265  -0.268040   0.143261
H  -4.157854   0.972377  -0.855586
H  -3.914207   0.923296   0.904063
C  -1.397127   0.169160  -0.019088
H  -2.765920  -1.413491  -0.960663
H  -2.583858  -1.219932   0.817491
C  -0.144143  -0.667526   0.071721
H  -1.383000   0.805634   0.778348
H  -1.330828   0.885167  -0.997093
H  -0.187853  -1.318116   1.005187
H   0.687457  -0.129442   0.089609
H  -0.074664  -1.300829  -0.707160
