butane_opt
 OpenBabel08242015383D

 14 13  0  0  0  0  0  0  0  0999 V2000
   -3.9139    0.2438    0.0531 C   0  0  0  0  0  0  0  0  0  0  0  0
   -2.6889   -0.5981    0.0144 C   0  0  0  0  0  0  0  0  0  0  0  0
   -4.8302   -0.3488   -0.0790 H   0  0  0  0  0  0  0  0  0  0  0  0
   -3.9629    0.7920   -0.8130 H   0  0  0  0  0  0  0  0  0  0  0  0
   -3.9165    1.0007    0.9567 H   0  0  0  0  0  0  0  0  0  0  0  0
   -1.4349    0.2119   -0.0121 C   0  0  0  0  0  0  0  0  0  0  0  0
   -2.6738   -1.3285   -0.8710 H   0  0  0  0  0  0  0  0  0  0  0  0
   -2.7956   -1.2177    0.8948 H   0  0  0  0  0  0  0  0  0  0  0  0
   -0.1646   -0.7062    0.0593 C   0  0  0  0  0  0  0  0  0  0  0  0
   -1.4416    0.7733    0.7740 H   0  0  0  0  0  0  0  0  0  0  0  0
   -1.3702    0.9374   -0.9571 H   0  0  0  0  0  0  0  0  0  0  0  0
   -0.1730   -1.3946    0.9994 H   0  0  0  0  0  0  0  0  0  0  0  0
    0.7812   -0.1371   -0.0018 H   0  0  0  0  0  0  0  0  0  0  0  0
   -0.2030   -1.3666   -0.8269 H   0  0  0  0  0  0  0  0  0  0  0  0
  1  5  1  0  0  0  0
  2  1  1  0  0  0  0
  2  8  1  0  0  0  0
  3  1  1  0  0  0  0
  4  1  1  0  0  0  0
  6  2  1  0  0  0  0
  6  9  1  0  0  0  0
  6 10  1  0  0  0  0
  7  2  1  0  0  0  0
  9 12  1  0  0  0  0
 11  6  1  0  0  0  0
 13  9  1  0  0  0  0
 14  9  1  0  0  0  0
M  END
$$$$
