14
butane_opt
C  -3.925195   0.279462  -0.034059
C  -2.691869  -0.647574   0.110722
H  -4.815969  -0.350456  -0.007134
H  -3.957649   1.002145  -0.997152
H  -4.069159   0.908396   0.780093
C  -1.416055   0.175522   0.064997
H  -2.617263  -1.308522  -0.746299
H  -2.700072  -1.281049   1.033667
C  -0.173857  -0.679811  -0.032844
H  -1.366675   0.870061   0.922894
H  -1.434299   0.819926  -0.843250
H  -0.170517  -1.150093   0.797289
H   0.765174  -0.063238   0.113988
H  -0.168827  -1.450897  -0.935698
