14
butane_opt
C  -3.911555   0.263572   0.021552
C  -2.698618  -0.606470   0.040315
H  -4.926542  -0.407099  -0.028287
H  -3.899090   0.763290  -0.808740
H  -3.915732   1.000524   0.920368
C  -1.417880   0.206394  -0.010283
H  -2.743757  -1.228920  -0.819737
H  -2.768172  -1.323650   1.029805
C  -0.173951  -0.706316   0.029499
H  -1.326144   0.819541   0.825270
H  -1.446601   0.877915  -0.895261
H  -0.166558  -1.265448   0.927543
H   0.687675  -0.190948   0.190192
H  -0.081295  -1.426202  -0.859789
