14
butane_opt
C  -3.939471   0.272639  -0.028178
C  -2.683700  -0.626775   0.090860
H  -4.809952  -0.326502   0.118080
H  -3.979048   0.912401  -0.945833
H  -3.973195   0.888293   0.793866
C  -1.401341   0.165700   0.025657
H  -2.542526  -1.226158  -0.674437
H  -2.741251  -1.321040   1.096918
C  -0.200996  -0.681289  -0.006421
H  -1.352589   0.906591   0.918280
H  -1.416705   0.828896  -0.868364
H  -0.177208  -1.037956   0.728468
H   0.729398  -0.085422   0.260297
H  -0.059526  -1.579640  -0.988639
