butane_opt
 OpenBabel08242015383D

 14 13  0  0  0  0  0  0  0  0999 V2000
   -3.9424    0.2797   -0.0065 C   0  0  0  0  0  0  0  0  0  0  0  0
   -2.6947   -0.6282    0.0715 C   0  0  0  0  0  0  0  0  0  0  0  0
   -4.8843   -0.3424   -0.0727 H   0  0  0  0  0  0  0  0  0  0  0  0
   -3.9173    0.9117   -0.9398 H   0  0  0  0  0  0  0  0  0  0  0  0
   -3.9198    0.9287    0.8252 H   0  0  0  0  0  0  0  0  0  0  0  0
   -1.4002    0.1664    0.0399 C   0  0  0  0  0  0  0  0  0  0  0  0
   -2.6873   -1.1871   -0.6950 H   0  0  0  0  0  0  0  0  0  0  0  0
   -2.6953   -1.3785    1.0391 H   0  0  0  0  0  0  0  0  0  0  0  0
   -0.1824   -0.6820   -0.0010 C   0  0  0  0  0  0  0  0  0  0  0  0
   -1.4224    0.9283    0.9418 H   0  0  0  0  0  0  0  0  0  0  0  0
   -1.4053    0.7857   -0.8958 H   0  0  0  0  0  0  0  0  0  0  0  0
   -0.1403   -1.2173    0.8518 H   0  0  0  0  0  0  0  0  0  0  0  0
    0.7883   -0.0586    0.0773 H   0  0  0  0  0  0  0  0  0  0  0  0
   -0.1257   -1.4704   -0.9613 H   0  0  0  0  0  0  0  0  0  0  0  0
  1  2  1  0  0  0  0
  1  5  1  0  0  0  0
  2  8  1  0  0  0  0
  3  1  1  0  0  0  0
  4  1  1  0  0  0  0
  6  2  1  0  0  0  0
  6 10  1  0  0  0  0
  7  2  1  0  0  0  0
  9  6  1  0  0  0  0
  9 13  1  0  0  0  0
  9 12  1  0  0  0  0
 11  6  1  0  0  0  0
 14  9  1  0  0  0  0
M  END
$$$$
