butane_opt
 OpenBabel08242015383D

 14 13  0  0  0  0  0  0  0  0999 V2000
   -3.9592    0.2719   -0.0038 C   0  0  0  0  0  0  0  0  0  0  0  0
   -2.7048   -0.6288    0.0932 C   0  0  0  0  0  0  0  0  0  0  0  0
   -4.8984   -0.3094   -0.1469 H   0  0  0  0  0  0  0  0  0  0  0  0
   -3.8987    0.8722   -0.8805 H   0  0  0  0  0  0  0  0  0  0  0  0
   -4.1433    1.0199    0.8831 H   0  0  0  0  0  0  0  0  0  0  0  0
   -1.3957    0.1724    0.0289 C   0  0  0  0  0  0  0  0  0  0  0  0
   -2.7295   -1.2911   -0.7394 H   0  0  0  0  0  0  0  0  0  0  0  0
   -2.7552   -1.2597    0.9417 H   0  0  0  0  0  0  0  0  0  0  0  0
   -0.1403   -0.6866   -0.0063 C   0  0  0  0  0  0  0  0  0  0  0  0
   -1.4127    0.8301    0.8565 H   0  0  0  0  0  0  0  0  0  0  0  0
   -1.4156    0.8053   -0.8640 H   0  0  0  0  0  0  0  0  0  0  0  0
   -0.1732   -1.2304    0.8959 H   0  0  0  0  0  0  0  0  0  0  0  0
    0.8308   -0.0681    0.0074 H   0  0  0  0  0  0  0  0  0  0  0  0
   -0.0376   -1.3831   -0.8648 H   0  0  0  0  0  0  0  0  0  0  0  0
  1  2  1  0  0  0  0
  1  5  1  0  0  0  0
  2  8  1  0  0  0  0
  3  1  1  0  0  0  0
  4  1  1  0  0  0  0
  6  2  1  0  0  0  0
  6 10  1  0  0  0  0
  7  2  1  0  0  0  0
  9 13  1  0  0  0  0
  9  6  1  0  0  0  0
  9 12  1  0  0  0  0
 11  6  1  0  0  0  0
 14  9  1  0  0  0  0
M  END
$$$$
