14
butane_opt
C  -3.975629   0.274265   0.080623
C  -2.687067  -0.635079  -0.018651
H  -4.836893  -0.230870   0.155197
H  -4.086484   0.931705  -0.816775
H  -3.868594   0.832202   0.873406
C  -1.393387   0.181559  -0.057000
H  -2.858799  -1.347121  -0.945161
H  -2.647373  -1.173645   0.782404
C  -0.147541  -0.691858   0.095121
H  -1.425744   0.810127   0.750309
H  -1.388570   0.848184  -0.951867
H  -0.228314  -1.245570   0.991292
H   0.833446  -0.052288   0.165769
H  -0.089587  -1.381773  -0.783801
