14
butane_opt
C  -3.940105   0.252719   0.007423
C  -2.719109  -0.611930   0.025565
H  -4.812312  -0.292906   0.262445
H  -4.098405   0.983487  -0.947991
H  -3.853731   0.735013   0.772109
C  -1.403018   0.205059   0.026805
H  -2.735784  -1.244469  -0.835055
H  -2.770466  -1.234788   0.917067
C  -0.133673  -0.697631   0.030212
H  -1.395591   0.895290   0.892128
H  -1.493429   0.790365  -0.817432
H  -0.122270  -1.258844   0.916260
H   0.674605  -0.158932   0.049500
H  -0.065953  -1.469169  -0.870483
