butane_opt
 OpenBabel08242015383D

 14 13  0  0  0  0  0  0  0  0999 V2000
   -3.9735    0.2788    0.0691 C   0  0  0  0  0  0  0  0  0  0  0  0
   -2.6862   -0.6206   -0.0130 C   0  0  0  0  0  0  0  0  0  0  0  0
   -4.8707   -0.3310    0.1017 H   0  0  0  0  0  0  0  0  0  0  0  0
   -4.0342    0.7714   -0.7607 H   0  0  0  0  0  0  0  0  0  0  0  0
   -3.9700    1.0215    1.0073 H   0  0  0  0  0  0  0  0  0  0  0  0
   -1.4001    0.1745   -0.0494 C   0  0  0  0  0  0  0  0  0  0  0  0
   -2.7942   -1.3894   -0.9308 H   0  0  0  0  0  0  0  0  0  0  0  0
   -2.6650   -1.2774    0.8818 H   0  0  0  0  0  0  0  0  0  0  0  0
   -0.1399   -0.6725    0.0903 C   0  0  0  0  0  0  0  0  0  0  0  0
   -1.4153    0.6655    0.7131 H   0  0  0  0  0  0  0  0  0  0  0  0
   -1.3211    0.9394   -1.0603 H   0  0  0  0  0  0  0  0  0  0  0  0
   -0.2474   -1.2517    0.9607 H   0  0  0  0  0  0  0  0  0  0  0  0
    0.7054   -0.1389    0.1947 H   0  0  0  0  0  0  0  0  0  0  0  0
   -0.0177   -1.3988   -0.8258 H   0  0  0  0  0  0  0  0  0  0  0  0
  1  3  1  0  0  0  0
  1  5  1  0  0  0  0
  2  1  1  0  0  0  0
  2  8  1  0  0  0  0
  4  1  1  0  0  0  0
  6  2  1  0  0  0  0
  6  9  1  0  0  0  0
  6 10  1  0  0  0  0
  7  2  1  0  0  0  0
  9 13  1  0  0  0  0
  9 12  1  0  0  0  0
 11  6  1  0  0  0  0
 14  9  1  0  0  0  0
M  END
$$$$
