14
butane_opt
C  -3.951961   0.274774   0.062144
C  -2.700722  -0.626767  -0.011305
H  -4.844704  -0.286297   0.244053
H  -4.119072   0.979412  -0.903731
H  -3.906411   0.913904   0.891976
C  -1.407179   0.153477  -0.032726
H  -2.714312  -1.364542  -0.936281
H  -2.662902  -1.225882   0.863625
C  -0.139794  -0.671634   0.077572
H  -1.492912   0.772521   0.796252
H  -1.290932   0.853587  -0.971564
H  -0.201319  -1.219602   0.906173
H   0.780957  -0.061141   0.187800
H  -0.173830  -1.383288  -0.796335
