14
butane_opt
C  -3.938510   0.298405   0.078329
C  -2.686452  -0.644286  -0.017333
H  -4.822705  -0.314894   0.052489
H  -3.965652   0.771417  -0.707563
H  -4.025856   1.018647   0.987822
C  -1.397021   0.171854  -0.072059
H  -2.751894  -1.335686  -0.870754
H  -2.596609  -1.287256   0.921048
C  -0.190850  -0.678331   0.081019
H  -1.425965   0.803347   0.740474
H  -1.226442   0.771230  -0.979159
H  -0.319655  -1.294987   0.979018
H   0.728254  -0.053097   0.209216
H  -0.064519  -1.316879  -0.726052
