butane_opt
 OpenBabel08242015383D

 14 13  0  0  0  0  0  0  0  0999 V2000
   -3.9429    0.2958    0.0310 C   0  0  0  0  0  0  0  0  0  0  0  0
   -2.6885   -0.6361    0.0149 C   0  0  0  0  0  0  0  0  0  0  0  0
   -4.8672   -0.3396    0.0538 H   0  0  0  0  0  0  0  0  0  0  0  0
   -4.0155    0.8343   -0.8394 H   0  0  0  0  0  0  0  0  0  0  0  0
   -3.9291    0.9972    0.9028 H   0  0  0  0  0  0  0  0  0  0  0  0
   -1.4044    0.1590    0.0080 C   0  0  0  0  0  0  0  0  0  0  0  0
   -2.6604   -1.3951   -0.8790 H   0  0  0  0  0  0  0  0  0  0  0  0
   -2.6614   -1.1712    0.8533 H   0  0  0  0  0  0  0  0  0  0  0  0
   -0.1797   -0.6805    0.0433 C   0  0  0  0  0  0  0  0  0  0  0  0
   -1.3524    0.8192    0.8826 H   0  0  0  0  0  0  0  0  0  0  0  0
   -1.2970    0.7106   -0.8722 H   0  0  0  0  0  0  0  0  0  0  0  0
   -0.2021   -1.4069    1.0601 H   0  0  0  0  0  0  0  0  0  0  0  0
    0.7494   -0.0753   -0.1963 H   0  0  0  0  0  0  0  0  0  0  0  0
   -0.2031   -1.0913   -0.6772 H   0  0  0  0  0  0  0  0  0  0  0  0
  1  3  1  0  0  0  0
  1  5  1  0  0  0  0
  2  1  1  0  0  0  0
  2  8  1  0  0  0  0
  4  1  1  0  0  0  0
  6  2  1  0  0  0  0
  6  9  1  0  0  0  0
  6 10  1  0  0  0  0
  7  2  1  0  0  0  0
  9 12  1  0  0  0  0
 11  6  1  0  0  0  0
 13  9  1  0  0  0  0
 14  9  1  0  0  0  0
M  END
$$$$
