14
butane_opt
C  -3.929009   0.248131   0.050512
C  -2.688610  -0.600459  -0.012341
H  -4.868277  -0.370636   0.026935
H  -4.032650   0.798190  -0.741564
H  -3.931258   1.046548   1.033029
C  -1.419460   0.198513  -0.011923
H  -2.644287  -1.416464  -0.993807
H  -2.746734  -1.153387   0.816419
C  -0.170227  -0.691580   0.080413
H  -1.406888   0.803555   0.764457
H  -1.350228   0.862076  -0.917620
H  -0.054927  -1.566198   1.121894
H   0.716830  -0.145029  -0.265761
H  -0.200103  -1.186367  -0.646996
