butane_opt
 OpenBabel08242015383D

 14 13  0  0  0  0  0  0  0  0999 V2000
   -3.9612    0.2826   -0.0054 C   0  0  0  0  0  0  0  0  0  0  0  0
   -2.6628   -0.6478    0.0940 C   0  0  0  0  0  0  0  0  0  0  0  0
   -4.8448   -0.2974   -0.2720 H   0  0  0  0  0  0  0  0  0  0  0  0
   -3.8716    0.7664   -0.8217 H   0  0  0  0  0  0  0  0  0  0  0  0
   -4.0914    1.0665    0.9141 H   0  0  0  0  0  0  0  0  0  0  0  0
   -1.3986    0.1854    0.0085 C   0  0  0  0  0  0  0  0  0  0  0  0
   -2.6637   -1.2518   -0.7124 H   0  0  0  0  0  0  0  0  0  0  0  0
   -2.7252   -1.3418    1.0406 H   0  0  0  0  0  0  0  0  0  0  0  0
   -0.1759   -0.6766    0.0028 C   0  0  0  0  0  0  0  0  0  0  0  0
   -1.3783    0.8442    0.9088 H   0  0  0  0  0  0  0  0  0  0  0  0
   -1.3731    0.7272   -0.8165 H   0  0  0  0  0  0  0  0  0  0  0  0
   -0.1751   -1.2705    0.9321 H   0  0  0  0  0  0  0  0  0  0  0  0
    0.7039   -0.0878   -0.0274 H   0  0  0  0  0  0  0  0  0  0  0  0
   -0.2234   -1.3532   -0.9047 H   0  0  0  0  0  0  0  0  0  0  0  0
  1  2  1  0  0  0  0
  1  5  1  0  0  0  0
  2  8  1  0  0  0  0
  3  1  1  0  0  0  0
  4  1  1  0  0  0  0
  6  2  1  0  0  0  0
  6 10  1  0  0  0  0
  7  2  1  0  0  0  0
  9  6  1  0  0  0  0
  9 12  1  0  0  0  0
 11  6  1  0  0  0  0
 13  9  1  0  0  0  0
 14  9  1  0  0  0  0
M  END
$$$$
