butane_opt
 OpenBabel08242015383D

 14 13  0  0  0  0  0  0  0  0999 V2000
   -3.9456    0.2780   -0.0269 C   0  0  0  0  0  0  0  0  0  0  0  0
   -2.6846   -0.6117    0.0736 C   0  0  0  0  0  0  0  0  0  0  0  0
   -4.8501   -0.3419    0.2225 H   0  0  0  0  0  0  0  0  0  0  0  0
   -4.0023    1.1573   -1.0818 H   0  0  0  0  0  0  0  0  0  0  0  0
   -3.9878    0.7212    0.7293 H   0  0  0  0  0  0  0  0  0  0  0  0
   -1.3971    0.1578    0.0716 C   0  0  0  0  0  0  0  0  0  0  0  0
   -2.6831   -1.3063   -0.8347 H   0  0  0  0  0  0  0  0  0  0  0  0
   -2.7241   -1.2851    1.0193 H   0  0  0  0  0  0  0  0  0  0  0  0
   -0.1805   -0.6791   -0.0132 C   0  0  0  0  0  0  0  0  0  0  0  0
   -1.2208    0.8409    0.9561 H   0  0  0  0  0  0  0  0  0  0  0  0
   -1.4163    0.7379   -0.7712 H   0  0  0  0  0  0  0  0  0  0  0  0
   -0.2319   -1.1726    0.8225 H   0  0  0  0  0  0  0  0  0  0  0  0
    0.7714   -0.0542    0.0720 H   0  0  0  0  0  0  0  0  0  0  0  0
   -0.1764   -1.5004   -0.9860 H   0  0  0  0  0  0  0  0  0  0  0  0
  1  2  1  0  0  0  0
  1  3  1  0  0  0  0
  1  5  1  0  0  0  0
  2  8  1  0  0  0  0
  4  1  1  0  0  0  0
  6  2  1  0  0  0  0
  6 10  1  0  0  0  0
  7  2  1  0  0  0  0
  9  6  1  0  0  0  0
  9 13  1  0  0  0  0
  9 12  1  0  0  0  0
 11  6  1  0  0  0  0
 14  9  1  0  0  0  0
M  END
$$$$
