14
butane_opt
C  -3.943469   0.253861   0.058035
C  -2.716107  -0.627583  -0.023090
H  -4.873197  -0.378569   0.179017
H  -3.994158   0.908333  -0.852649
H  -3.912184   0.933938   0.904429
C  -1.413027   0.216587  -0.020230
H  -2.705299  -1.224163  -0.841827
H  -2.661466  -1.256718   0.837126
C  -0.155189  -0.710856   0.075915
H  -1.429764   0.909251   0.797088
H  -1.342887   0.852369  -0.887794
H  -0.043725  -1.328822   0.986566
H   0.714372  -0.117613   0.001302
H  -0.039115  -1.367219  -0.769361
