butane_opt
 OpenBabel08242015383D

 14 13  0  0  0  0  0  0  0  0999 V2000
   -3.9590    0.2764    0.0283 C   0  0  0  0  0  0  0  0  0  0  0  0
   -2.7083   -0.6141    0.0452 C   0  0  0  0  0  0  0  0  0  0  0  0
   -4.9185   -0.3985    0.1103 H   0  0  0  0  0  0  0  0  0  0  0  0
   -4.0112    0.9268   -0.8854 H   0  0  0  0  0  0  0  0  0  0  0  0
   -3.8586    0.8610    0.8658 H   0  0  0  0  0  0  0  0  0  0  0  0
   -1.3979    0.1975   -0.0187 C   0  0  0  0  0  0  0  0  0  0  0  0
   -2.7989   -1.3395   -0.8825 H   0  0  0  0  0  0  0  0  0  0  0  0
   -2.6996   -1.2146    0.9111 H   0  0  0  0  0  0  0  0  0  0  0  0
   -0.1401   -0.6970    0.0474 C   0  0  0  0  0  0  0  0  0  0  0  0
   -1.3408    0.7660    0.7897 H   0  0  0  0  0  0  0  0  0  0  0  0
   -1.3791    0.8177   -0.9123 H   0  0  0  0  0  0  0  0  0  0  0  0
   -0.2603   -1.2187    0.8545 H   0  0  0  0  0  0  0  0  0  0  0  0
    0.7159   -0.1214    0.2242 H   0  0  0  0  0  0  0  0  0  0  0  0
   -0.0033   -1.5071   -0.8852 H   0  0  0  0  0  0  0  0  0  0  0  0
  1  2  1  0  0  0  0
  1  3  1  0  0  0  0
  1  5  1  0  0  0  0
  2  8  1  0  0  0  0
  4  1  1  0  0  0  0
  6  2  1  0  0  0  0
  6  9  1  0  0  0  0
  6 10  1  0  0  0  0
  7  2  1  0  0  0  0
  9 13  1  0  0  0  0
  9 12  1  0  0  0  0
 11  6  1  0  0  0  0
 14  9  1  0  0  0  0
M  END
$$$$
