14
butane_opt
C  -3.944627   0.276372   0.018183
C  -2.691924  -0.638411   0.060918
H  -4.867043  -0.294169  -0.165789
H  -3.857923   0.766917  -0.822032
H  -4.026090   1.146275   1.022404
C  -1.404517   0.174309  -0.019138
H  -2.730926  -1.306969  -0.800952
H  -2.650419  -1.287237   0.984908
C  -0.178953  -0.683710   0.038041
H  -1.393931   0.843504   0.868713
H  -1.319395   0.818121  -0.922703
H  -0.197117  -1.295298   0.946135
H   0.757128  -0.049167  -0.038182
H  -0.106229  -1.354214  -0.809421
