14
butane_opt
C  -3.927879   0.252446   0.067493
C  -2.711373  -0.586829  -0.007429
H  -4.918397  -0.439475   0.087619
H  -4.007256   0.792083  -0.803247
H  -3.750248   0.976087   1.038867
C  -1.406241   0.190797  -0.074334
H  -2.758543  -1.210958  -0.806155
H  -2.686540  -1.214040   0.894818
C  -0.161357  -0.707410   0.085250
H  -1.530245   0.868392   0.717987
H  -1.313075   0.857185  -0.987271
H  -0.252136  -1.231890   0.972335
H   0.691319  -0.178688   0.272964
H  -0.003086  -1.501646  -0.817361
