14
butane_opt
C  -3.935956   0.264153   0.056503
C  -2.695413  -0.603670   0.009781
H  -4.904009  -0.411968   0.079501
H  -3.995128   0.754018  -0.788645
H  -3.882597   0.945257   0.985903
C  -1.398798   0.207506  -0.046382
H  -2.745442  -1.329043  -0.865668
H  -2.753957  -1.171288   0.856310
C  -0.168280  -0.716088   0.081081
H  -1.449155   0.780950   0.682323
H  -1.349081   0.941243  -1.019505
H  -0.194982  -1.187190   0.916157
H   0.692702  -0.167977   0.156147
H  -0.044448  -1.462634  -0.776030
