butane_opt
 OpenBabel08242015383D

 14 13  0  0  0  0  0  0  0  0999 V2000
   -3.9275    0.2629   -0.0304 C   0  0  0  0  0  0  0  0  0  0  0  0
   -2.7070   -0.5891    0.0669 C   0  0  0  0  0  0  0  0  0  0  0  0
   -4.8305   -0.3196    0.0143 H   0  0  0  0  0  0  0  0  0  0  0  0
   -3.9392    0.9423   -0.9708 H   0  0  0  0  0  0  0  0  0  0  0  0
   -3.8742    0.8033    0.7398 H   0  0  0  0  0  0  0  0  0  0  0  0
   -1.4126    0.1654    0.0709 C   0  0  0  0  0  0  0  0  0  0  0  0
   -2.7286   -1.2025   -0.7134 H   0  0  0  0  0  0  0  0  0  0  0  0
   -2.8200   -1.3332    1.0321 H   0  0  0  0  0  0  0  0  0  0  0  0
   -0.1620   -0.6928   -0.0076 C   0  0  0  0  0  0  0  0  0  0  0  0
   -1.3999    0.9666    1.0583 H   0  0  0  0  0  0  0  0  0  0  0  0
   -1.4417    0.7402   -0.7401 H   0  0  0  0  0  0  0  0  0  0  0  0
   -0.0032   -1.3303    0.8522 H   0  0  0  0  0  0  0  0  0  0  0  0
    0.7884   -0.0779   -0.1848 H   0  0  0  0  0  0  0  0  0  0  0  0
   -0.2860   -1.4003   -0.8677 H   0  0  0  0  0  0  0  0  0  0  0  0
  1  3  1  0  0  0  0
  1  2  1  0  0  0  0
  1  5  1  0  0  0  0
  2  6  1  0  0  0  0
  2  8  1  0  0  0  0
  4  1  1  0  0  0  0
  6 10  1  0  0  0  0
  7  2  1  0  0  0  0
  9  6  1  0  0  0  0
  9 12  1  0  0  0  0
 11  6  1  0  0  0  0
 13  9  1  0  0  0  0
 14  9  1  0  0  0  0
M  END
$$$$
