14
butane_opt
C  -3.927501   0.262875  -0.030428
C  -2.706992  -0.589060   0.066882
H  -4.830498  -0.319592   0.014317
H  -3.939158   0.942324  -0.970787
H  -3.874235   0.803291   0.739751
C  -1.412604   0.165444   0.070922
H  -2.728625  -1.202520  -0.713438
H  -2.819977  -1.333174   1.032103
C  -0.161966  -0.692845  -0.007569
H  -1.399891   0.966602   1.058344
H  -1.441664   0.740219  -0.740111
H  -0.003236  -1.330328   0.852222
H   0.788376  -0.077864  -0.184798
H  -0.285972  -1.400289  -0.867676
