butane_opt
 OpenBabel08242015383D

 14 13  0  0  0  0  0  0  0  0999 V2000
   -3.9333    0.2321   -0.0306 C   0  0  0  0  0  0  0  0  0  0  0  0
   -2.6979   -0.5995    0.0875 C   0  0  0  0  0  0  0  0  0  0  0  0
   -4.8164   -0.3262   -0.0265 H   0  0  0  0  0  0  0  0  0  0  0  0
   -3.8764    0.9205   -0.9829 H   0  0  0  0  0  0  0  0  0  0  0  0
   -3.9780    0.8516    0.7980 H   0  0  0  0  0  0  0  0  0  0  0  0
   -1.4324    0.2285    0.0748 C   0  0  0  0  0  0  0  0  0  0  0  0
   -2.6264   -1.2267   -0.7654 H   0  0  0  0  0  0  0  0  0  0  0  0
   -2.8424   -1.2324    1.0041 H   0  0  0  0  0  0  0  0  0  0  0  0
   -0.1553   -0.7173   -0.0306 C   0  0  0  0  0  0  0  0  0  0  0  0
   -1.3169    0.9909    1.0049 H   0  0  0  0  0  0  0  0  0  0  0  0
   -1.4830    0.7333   -0.7357 H   0  0  0  0  0  0  0  0  0  0  0  0
   -0.0259   -1.4648    0.9163 H   0  0  0  0  0  0  0  0  0  0  0  0
    0.7788   -0.1505   -0.1131 H   0  0  0  0  0  0  0  0  0  0  0  0
   -0.2036   -1.2902   -0.8527 H   0  0  0  0  0  0  0  0  0  0  0  0
  1  3  1  0  0  0  0
  1  2  1  0  0  0  0
  1  5  1  0  0  0  0
  2  8  1  0  0  0  0
  4  1  1  0  0  0  0
  6  2  1  0  0  0  0
  6 10  1  0  0  0  0
  7  2  1  0  0  0  0
  9  6  1  0  0  0  0
  9 12  1  0  0  0  0
 11  6  1  0  0  0  0
 13  9  1  0  0  0  0
 14  9  1  0  0  0  0
M  END
$$$$
