14
butane_opt
C  -3.955202   0.290839   0.020073
C  -2.708535  -0.652895   0.021478
H  -4.915364  -0.295236   0.120200
H  -4.068628   0.958738  -0.936943
H  -3.990387   0.977191   0.869504
C  -1.384815   0.171099   0.008336
H  -2.747166  -1.271128  -0.767885
H  -2.724622  -1.308393   0.903574
C  -0.149756  -0.685154   0.051074
H  -1.360161   0.839123   0.877600
H  -1.351906   0.786607  -0.842665
H  -0.120645  -1.222570   0.881908
H   0.805540  -0.037675  -0.040956
H  -0.174805  -1.378112  -0.848196
