14
butane_opt
C  -3.945587   0.278014  -0.026925
C  -2.684561  -0.611703   0.073572
H  -4.850094  -0.341871   0.222540
H  -4.002341   1.157276  -1.081755
H  -3.987750   0.721184   0.729344
C  -1.397120   0.157842   0.071583
H  -2.683073  -1.306267  -0.834684
H  -2.724085  -1.285128   1.019306
C  -0.180548  -0.679127  -0.013243
H  -1.220788   0.840940   0.956121
H  -1.416332   0.737897  -0.771217
H  -0.231879  -1.172559   0.822476
H   0.771387  -0.054222   0.071978
H  -0.176404  -1.500418  -0.986019
