butane_opt
 OpenBabel08242015383D

 14 13  0  0  0  0  0  0  0  0999 V2000
   -3.9520    0.2748    0.0621 C   0  0  0  0  0  0  0  0  0  0  0  0
   -2.7007   -0.6268   -0.0113 C   0  0  0  0  0  0  0  0  0  0  0  0
   -4.8447   -0.2863    0.2441 H   0  0  0  0  0  0  0  0  0  0  0  0
   -4.1191    0.9794   -0.9037 H   0  0  0  0  0  0  0  0  0  0  0  0
   -3.9064    0.9139    0.8920 H   0  0  0  0  0  0  0  0  0  0  0  0
   -1.4072    0.1535   -0.0327 C   0  0  0  0  0  0  0  0  0  0  0  0
   -2.7143   -1.3645   -0.9363 H   0  0  0  0  0  0  0  0  0  0  0  0
   -2.6629   -1.2259    0.8636 H   0  0  0  0  0  0  0  0  0  0  0  0
   -0.1398   -0.6716    0.0776 C   0  0  0  0  0  0  0  0  0  0  0  0
   -1.4929    0.7725    0.7963 H   0  0  0  0  0  0  0  0  0  0  0  0
   -1.2909    0.8536   -0.9716 H   0  0  0  0  0  0  0  0  0  0  0  0
   -0.2013   -1.2196    0.9062 H   0  0  0  0  0  0  0  0  0  0  0  0
    0.7810   -0.0611    0.1878 H   0  0  0  0  0  0  0  0  0  0  0  0
   -0.1738   -1.3833   -0.7963 H   0  0  0  0  0  0  0  0  0  0  0  0
  1  3  1  0  0  0  0
  1  5  1  0  0  0  0
  2  1  1  0  0  0  0
  2  8  1  0  0  0  0
  4  1  1  0  0  0  0
  6  2  1  0  0  0  0
  6  9  1  0  0  0  0
  6 10  1  0  0  0  0
  7  2  1  0  0  0  0
  9 13  1  0  0  0  0
  9 12  1  0  0  0  0
 11  6  1  0  0  0  0
 14  9  1  0  0  0  0
M  END
$$$$
