butane_opt
 OpenBabel08242015383D

 14 13  0  0  0  0  0  0  0  0999 V2000
   -3.9458    0.2442   -0.0031 C   0  0  0  0  0  0  0  0  0  0  0  0
   -2.7042   -0.6117    0.0302 C   0  0  0  0  0  0  0  0  0  0  0  0
   -4.8213   -0.2913    0.0128 H   0  0  0  0  0  0  0  0  0  0  0  0
   -3.9154    0.9023   -0.9095 H   0  0  0  0  0  0  0  0  0  0  0  0
   -3.9861    0.8952    0.8454 H   0  0  0  0  0  0  0  0  0  0  0  0
   -1.4254    0.2036    0.0546 C   0  0  0  0  0  0  0  0  0  0  0  0
   -2.7339   -1.2122   -0.6974 H   0  0  0  0  0  0  0  0  0  0  0  0
   -2.7364   -1.2637    0.9456 H   0  0  0  0  0  0  0  0  0  0  0  0
   -0.1404   -0.7016    0.0162 C   0  0  0  0  0  0  0  0  0  0  0  0
   -1.3460    0.9279    0.9491 H   0  0  0  0  0  0  0  0  0  0  0  0
   -1.4105    0.7880   -0.7980 H   0  0  0  0  0  0  0  0  0  0  0  0
    0.0014   -1.3779    0.9158 H   0  0  0  0  0  0  0  0  0  0  0  0
    0.7059   -0.1591   -0.2069 H   0  0  0  0  0  0  0  0  0  0  0  0
   -0.1914   -1.2935   -0.7942 H   0  0  0  0  0  0  0  0  0  0  0  0
  1  3  1  0  0  0  0
  1  2  1  0  0  0  0
  1  5  1  0  0  0  0
  2  6  1  0  0  0  0
  2  8  1  0  0  0  0
  4  1  1  0  0  0  0
  6 10  1  0  0  0  0
  7  2  1  0  0  0  0
  9  6  1  0  0  0  0
  9 12  1  0  0  0  0
 11  6  1  0  0  0  0
 13  9  1  0  0  0  0
 14  9  1  0  0  0  0
M  END
$$$$
