butane_opt
 OpenBabel08242015383D

 14 13  0  0  0  0  0  0  0  0999 V2000
   -3.9358    0.2559   -0.0210 C   0  0  0  0  0  0  0  0  0  0  0  0
   -2.6962   -0.5931    0.0752 C   0  0  0  0  0  0  0  0  0  0  0  0
   -4.9497   -0.4388   -0.0510 H   0  0  0  0  0  0  0  0  0  0  0  0
   -3.9040    0.8271   -0.9174 H   0  0  0  0  0  0  0  0  0  0  0  0
   -3.9740    0.8644    0.7987 H   0  0  0  0  0  0  0  0  0  0  0  0
   -1.4049    0.2173    0.0528 C   0  0  0  0  0  0  0  0  0  0  0  0
   -2.7332   -1.1351   -0.6494 H   0  0  0  0  0  0  0  0  0  0  0  0
   -2.7358   -1.3031    1.0575 H   0  0  0  0  0  0  0  0  0  0  0  0
   -0.1658   -0.7145   -0.0091 C   0  0  0  0  0  0  0  0  0  0  0  0
   -1.3995    0.8785    0.9080 H   0  0  0  0  0  0  0  0  0  0  0  0
   -1.4032    0.7846   -0.8199 H   0  0  0  0  0  0  0  0  0  0  0  0
   -0.0640   -1.2975    0.8333 H   0  0  0  0  0  0  0  0  0  0  0  0
    0.7627   -0.1521    0.0766 H   0  0  0  0  0  0  0  0  0  0  0  0
   -0.1786   -1.5023   -0.9839 H   0  0  0  0  0  0  0  0  0  0  0  0
  1  2  1  0  0  0  0
  1  5  1  0  0  0  0
  2  8  1  0  0  0  0
  3  1  1  0  0  0  0
  4  1  1  0  0  0  0
  6  2  1  0  0  0  0
  6 10  1  0  0  0  0
  7  2  1  0  0  0  0
  9  6  1  0  0  0  0
  9 13  1  0  0  0  0
  9 12  1  0  0  0  0
 11  6  1  0  0  0  0
 14  9  1  0  0  0  0
M  END
$$$$
