butane_opt
 OpenBabel08242015383D

 14 13  0  0  0  0  0  0  0  0999 V2000
   -3.9401    0.2527    0.0074 C   0  0  0  0  0  0  0  0  0  0  0  0
   -2.7191   -0.6119    0.0256 C   0  0  0  0  0  0  0  0  0  0  0  0
   -4.8123   -0.2929    0.2624 H   0  0  0  0  0  0  0  0  0  0  0  0
   -4.0984    0.9835   -0.9480 H   0  0  0  0  0  0  0  0  0  0  0  0
   -3.8537    0.7350    0.7721 H   0  0  0  0  0  0  0  0  0  0  0  0
   -1.4030    0.2051    0.0268 C   0  0  0  0  0  0  0  0  0  0  0  0
   -2.7358   -1.2445   -0.8351 H   0  0  0  0  0  0  0  0  0  0  0  0
   -2.7705   -1.2348    0.9171 H   0  0  0  0  0  0  0  0  0  0  0  0
   -0.1337   -0.6976    0.0302 C   0  0  0  0  0  0  0  0  0  0  0  0
   -1.3956    0.8953    0.8921 H   0  0  0  0  0  0  0  0  0  0  0  0
   -1.4934    0.7904   -0.8174 H   0  0  0  0  0  0  0  0  0  0  0  0
   -0.1223   -1.2588    0.9163 H   0  0  0  0  0  0  0  0  0  0  0  0
    0.6746   -0.1589    0.0495 H   0  0  0  0  0  0  0  0  0  0  0  0
   -0.0660   -1.4692   -0.8705 H   0  0  0  0  0  0  0  0  0  0  0  0
  1  2  1  0  0  0  0
  1  3  1  0  0  0  0
  1  5  1  0  0  0  0
  2  6  1  0  0  0  0
  2  8  1  0  0  0  0
  4  1  1  0  0  0  0
  6  9  1  0  0  0  0
  6 10  1  0  0  0  0
  7  2  1  0  0  0  0
  9 13  1  0  0  0  0
  9 12  1  0  0  0  0
 11  6  1  0  0  0  0
 14  9  1  0  0  0  0
M  END
$$$$
