butane_opt
 OpenBabel08242015383D

 14 13  0  0  0  0  0  0  0  0999 V2000
   -3.9324    0.2744    0.0692 C   0  0  0  0  0  0  0  0  0  0  0  0
   -2.6737   -0.6288    0.0107 C   0  0  0  0  0  0  0  0  0  0  0  0
   -4.7986   -0.2689   -0.1407 H   0  0  0  0  0  0  0  0  0  0  0  0
   -3.9298    0.7594   -0.7395 H   0  0  0  0  0  0  0  0  0  0  0  0
   -4.0523    1.1544    1.0710 H   0  0  0  0  0  0  0  0  0  0  0  0
   -1.3985    0.1633   -0.0739 C   0  0  0  0  0  0  0  0  0  0  0  0
   -2.7480   -1.3216   -0.8408 H   0  0  0  0  0  0  0  0  0  0  0  0
   -2.7089   -1.2714    0.8575 H   0  0  0  0  0  0  0  0  0  0  0  0
   -0.1953   -0.6762    0.0749 C   0  0  0  0  0  0  0  0  0  0  0  0
   -1.4023    0.8456    0.8006 H   0  0  0  0  0  0  0  0  0  0  0  0
   -1.3323    0.7440   -0.9260 H   0  0  0  0  0  0  0  0  0  0  0  0
   -0.2104   -1.3837    1.0496 H   0  0  0  0  0  0  0  0  0  0  0  0
    0.7573   -0.0630    0.0455 H   0  0  0  0  0  0  0  0  0  0  0  0
   -0.2037   -1.2423   -0.6771 H   0  0  0  0  0  0  0  0  0  0  0  0
  1  5  1  0  0  0  0
  2  1  1  0  0  0  0
  2  8  1  0  0  0  0
  3  1  1  0  0  0  0
  4  1  1  0  0  0  0
  6  2  1  0  0  0  0
  6  9  1  0  0  0  0
  6 10  1  0  0  0  0
  7  2  1  0  0  0  0
  9 12  1  0  0  0  0
 11  6  1  0  0  0  0
 13  9  1  0  0  0  0
 14  9  1  0  0  0  0
M  END
$$$$
