14
butane_opt
C  -3.921161   0.268286  -0.012770
C  -2.694977  -0.608228   0.097551
H  -4.846741  -0.375028  -0.202905
H  -3.747089   0.792490  -0.873962
H  -4.110789   0.952324   0.857943
C  -1.418563   0.192541   0.039932
H  -2.741499  -1.308732  -0.765828
H  -2.751450  -1.292360   1.039689
C  -0.180906  -0.697661  -0.004596
H  -1.322379   0.885921   0.883452
H  -1.447605   0.835262  -0.851027
H  -0.070898  -1.272824   0.873760
H   0.717158  -0.142868  -0.076431
H  -0.119837  -1.407919  -0.883985
