14
butane_opt
C  -3.945438   0.268862   0.071788
C  -2.695910  -0.625533  -0.015312
H  -4.832038  -0.310189   0.137079
H  -4.122296   0.773177  -0.788861
H  -3.824993   1.058399   1.044927
C  -1.386806   0.187803  -0.084369
H  -2.786908  -1.284151  -0.835497
H  -2.663491  -1.279028   0.884551
C  -0.175419  -0.688057   0.095517
H  -1.477353   0.781808   0.710392
H  -1.348499   0.861984  -1.016978
H  -0.255709  -1.214480   0.951014
H   0.715210  -0.123584   0.352003
H   0.010823  -1.448235  -0.810901
