butane_opt
 OpenBabel08242015383D

 14 13  0  0  0  0  0  0  0  0999 V2000
   -3.9435    0.2539    0.0580 C   0  0  0  0  0  0  0  0  0  0  0  0
   -2.7161   -0.6276   -0.0231 C   0  0  0  0  0  0  0  0  0  0  0  0
   -4.8732   -0.3786    0.1790 H   0  0  0  0  0  0  0  0  0  0  0  0
   -3.9942    0.9083   -0.8526 H   0  0  0  0  0  0  0  0  0  0  0  0
   -3.9122    0.9339    0.9044 H   0  0  0  0  0  0  0  0  0  0  0  0
   -1.4130    0.2166   -0.0202 C   0  0  0  0  0  0  0  0  0  0  0  0
   -2.7053   -1.2242   -0.8418 H   0  0  0  0  0  0  0  0  0  0  0  0
   -2.6615   -1.2567    0.8371 H   0  0  0  0  0  0  0  0  0  0  0  0
   -0.1552   -0.7109    0.0759 C   0  0  0  0  0  0  0  0  0  0  0  0
   -1.4298    0.9093    0.7971 H   0  0  0  0  0  0  0  0  0  0  0  0
   -1.3429    0.8524   -0.8878 H   0  0  0  0  0  0  0  0  0  0  0  0
   -0.0437   -1.3288    0.9866 H   0  0  0  0  0  0  0  0  0  0  0  0
    0.7144   -0.1176    0.0013 H   0  0  0  0  0  0  0  0  0  0  0  0
   -0.0391   -1.3672   -0.7694 H   0  0  0  0  0  0  0  0  0  0  0  0
  1  3  1  0  0  0  0
  1  5  1  0  0  0  0
  2  6  1  0  0  0  0
  2  1  1  0  0  0  0
  2  8  1  0  0  0  0
  4  1  1  0  0  0  0
  6  9  1  0  0  0  0
  6 10  1  0  0  0  0
  7  2  1  0  0  0  0
  9 12  1  0  0  0  0
 11  6  1  0  0  0  0
 13  9  1  0  0  0  0
 14  9  1  0  0  0  0
M  END
$$$$
