butane_opt
 OpenBabel08242015383D

 14 13  0  0  0  0  0  0  0  0999 V2000
   -3.9537    0.2824    0.0794 C   0  0  0  0  0  0  0  0  0  0  0  0
   -2.6841   -0.6250   -0.0278 C   0  0  0  0  0  0  0  0  0  0  0  0
   -4.8580   -0.2890    0.1182 H   0  0  0  0  0  0  0  0  0  0  0  0
   -4.0360    0.7887   -0.7150 H   0  0  0  0  0  0  0  0  0  0  0  0
   -3.9030    0.9989    0.9265 H   0  0  0  0  0  0  0  0  0  0  0  0
   -1.3956    0.1529   -0.0665 C   0  0  0  0  0  0  0  0  0  0  0  0
   -2.7119   -1.3150   -0.8581 H   0  0  0  0  0  0  0  0  0  0  0  0
   -2.5004   -1.2682    0.8703 H   0  0  0  0  0  0  0  0  0  0  0  0
   -0.1791   -0.6711    0.0983 C   0  0  0  0  0  0  0  0  0  0  0  0
   -1.4448    0.7701    0.7052 H   0  0  0  0  0  0  0  0  0  0  0  0
   -1.2995    0.8646   -1.0033 H   0  0  0  0  0  0  0  0  0  0  0  0
   -0.3557   -1.2338    0.9837 H   0  0  0  0  0  0  0  0  0  0  0  0
    0.7554   -0.0528    0.2024 H   0  0  0  0  0  0  0  0  0  0  0  0
   -0.1191   -1.4127   -0.8006 H   0  0  0  0  0  0  0  0  0  0  0  0
  1  3  1  0  0  0  0
  1  5  1  0  0  0  0
  2  1  1  0  0  0  0
  2  8  1  0  0  0  0
  4  1  1  0  0  0  0
  6  2  1  0  0  0  0
  6  9  1  0  0  0  0
  6 10  1  0  0  0  0
  7  2  1  0  0  0  0
  9 13  1  0  0  0  0
  9 12  1  0  0  0  0
 11  6  1  0  0  0  0
 14  9  1  0  0  0  0
M  END
$$$$
