butane_opt
 OpenBabel08242015383D

 14 13  0  0  0  0  0  0  0  0999 V2000
   -3.9549    0.2893   -0.0133 C   0  0  0  0  0  0  0  0  0  0  0  0
   -2.6799   -0.6578    0.0977 C   0  0  0  0  0  0  0  0  0  0  0  0
   -4.8279   -0.3085   -0.1228 H   0  0  0  0  0  0  0  0  0  0  0  0
   -3.9002    0.8184   -0.8546 H   0  0  0  0  0  0  0  0  0  0  0  0
   -4.0422    1.0343    0.9071 H   0  0  0  0  0  0  0  0  0  0  0  0
   -1.4045    0.1758    0.0312 C   0  0  0  0  0  0  0  0  0  0  0  0
   -2.6109   -1.3141   -0.7315 H   0  0  0  0  0  0  0  0  0  0  0  0
   -2.7200   -1.2584    0.9636 H   0  0  0  0  0  0  0  0  0  0  0  0
   -0.1855   -0.6792    0.0072 C   0  0  0  0  0  0  0  0  0  0  0  0
   -1.3646    0.7965    0.7938 H   0  0  0  0  0  0  0  0  0  0  0  0
   -1.3498    0.8484   -0.9242 H   0  0  0  0  0  0  0  0  0  0  0  0
   -0.1604   -1.1646    0.7922 H   0  0  0  0  0  0  0  0  0  0  0  0
    0.7348   -0.0709    0.0395 H   0  0  0  0  0  0  0  0  0  0  0  0
   -0.0952   -1.3870   -0.8969 H   0  0  0  0  0  0  0  0  0  0  0  0
  1  2  1  0  0  0  0
  1  5  1  0  0  0  0
  2  8  1  0  0  0  0
  3  1  1  0  0  0  0
  4  1  1  0  0  0  0
  6  2  1  0  0  0  0
  6 10  1  0  0  0  0
  7  2  1  0  0  0  0
  9  6  1  0  0  0  0
  9 13  1  0  0  0  0
  9 12  1  0  0  0  0
 11  6  1  0  0  0  0
 14  9  1  0  0  0  0
M  END
$$$$
