14
butane_opt
C  -3.942862   0.295817   0.031008
C  -2.688516  -0.636092   0.014910
H  -4.867170  -0.339589   0.053823
H  -4.015521   0.834319  -0.839351
H  -3.929127   0.997180   0.902807
C  -1.404362   0.158950   0.007965
H  -2.660406  -1.395126  -0.878977
H  -2.661402  -1.171183   0.853256
C  -0.179682  -0.680516   0.043297
H  -1.352418   0.819232   0.882620
H  -1.297025   0.710619  -0.872202
H  -0.202093  -1.406860   1.060139
H   0.749419  -0.075294  -0.196284
H  -0.203106  -1.091281  -0.677186
