butane_opt
 OpenBabel08242015383D

 14 13  0  0  0  0  0  0  0  0999 V2000
   -3.9400    0.2434    0.0774 C   0  0  0  0  0  0  0  0  0  0  0  0
   -2.7193   -0.6022   -0.0469 C   0  0  0  0  0  0  0  0  0  0  0  0
   -4.8448   -0.3370    0.1710 H   0  0  0  0  0  0  0  0  0  0  0  0
   -4.1473    0.8645   -0.8038 H   0  0  0  0  0  0  0  0  0  0  0  0
   -3.8415    0.8548    0.9773 H   0  0  0  0  0  0  0  0  0  0  0  0
   -1.4027    0.2289   -0.0310 C   0  0  0  0  0  0  0  0  0  0  0  0
   -2.7858   -1.3146   -0.9610 H   0  0  0  0  0  0  0  0  0  0  0  0
   -2.7348   -1.1851    0.8120 H   0  0  0  0  0  0  0  0  0  0  0  0
   -0.1323   -0.7157    0.0962 C   0  0  0  0  0  0  0  0  0  0  0  0
   -1.4425    0.7703    0.7242 H   0  0  0  0  0  0  0  0  0  0  0  0
   -1.4286    0.9304   -0.9718 H   0  0  0  0  0  0  0  0  0  0  0  0
   -0.1182   -1.3804    1.0229 H   0  0  0  0  0  0  0  0  0  0  0  0
    0.7113   -0.1872    0.0533 H   0  0  0  0  0  0  0  0  0  0  0  0
   -0.0449   -1.3423   -0.7286 H   0  0  0  0  0  0  0  0  0  0  0  0
  1  3  1  0  0  0  0
  1  5  1  0  0  0  0
  2  6  1  0  0  0  0
  2  1  1  0  0  0  0
  2  8  1  0  0  0  0
  4  1  1  0  0  0  0
  6  9  1  0  0  0  0
  6 10  1  0  0  0  0
  7  2  1  0  0  0  0
  9 12  1  0  0  0  0
 11  6  1  0  0  0  0
 13  9  1  0  0  0  0
 14  9  1  0  0  0  0
M  END
$$$$
