butane_opt
 OpenBabel08242015383D

 14 13  0  0  0  0  0  0  0  0999 V2000
   -3.9618    0.2528    0.0559 C   0  0  0  0  0  0  0  0  0  0  0  0
   -2.7021   -0.6128   -0.0025 C   0  0  0  0  0  0  0  0  0  0  0  0
   -4.8747   -0.3395    0.0776 H   0  0  0  0  0  0  0  0  0  0  0  0
   -3.9961    0.8759   -0.8769 H   0  0  0  0  0  0  0  0  0  0  0  0
   -3.8607    0.9241    0.8967 H   0  0  0  0  0  0  0  0  0  0  0  0
   -1.3887    0.2267   -0.0064 C   0  0  0  0  0  0  0  0  0  0  0  0
   -2.7500   -1.3772   -0.9325 H   0  0  0  0  0  0  0  0  0  0  0  0
   -2.7875   -1.1256    0.8066 H   0  0  0  0  0  0  0  0  0  0  0  0
   -0.1587   -0.7108    0.0586 C   0  0  0  0  0  0  0  0  0  0  0  0
   -1.3694    0.8270    0.8353 H   0  0  0  0  0  0  0  0  0  0  0  0
   -1.3849    0.8162   -0.8846 H   0  0  0  0  0  0  0  0  0  0  0  0
   -0.0817   -1.5026    1.0832 H   0  0  0  0  0  0  0  0  0  0  0  0
    0.7319   -0.1912   -0.0998 H   0  0  0  0  0  0  0  0  0  0  0  0
   -0.1145   -1.2398   -0.7125 H   0  0  0  0  0  0  0  0  0  0  0  0
  1  3  1  0  0  0  0
  1  5  1  0  0  0  0
  2  1  1  0  0  0  0
  2  8  1  0  0  0  0
  4  1  1  0  0  0  0
  6  2  1  0  0  0  0
  6  9  1  0  0  0  0
  6 10  1  0  0  0  0
  7  2  1  0  0  0  0
  9 12  1  0  0  0  0
 11  6  1  0  0  0  0
 13  9  1  0  0  0  0
 14  9  1  0  0  0  0
M  END
$$$$
