butane_opt
 OpenBabel08242015383D

 14 13  0  0  0  0  0  0  0  0999 V2000
   -3.9508    0.2852    0.0625 C   0  0  0  0  0  0  0  0  0  0  0  0
   -2.6801   -0.6148    0.0264 C   0  0  0  0  0  0  0  0  0  0  0  0
   -4.8861   -0.3105   -0.0326 H   0  0  0  0  0  0  0  0  0  0  0  0
   -4.0210    0.7934   -0.7872 H   0  0  0  0  0  0  0  0  0  0  0  0
   -3.9890    0.9615    0.9362 H   0  0  0  0  0  0  0  0  0  0  0  0
   -1.3873    0.1505   -0.0555 C   0  0  0  0  0  0  0  0  0  0  0  0
   -2.7496   -1.3930   -0.8830 H   0  0  0  0  0  0  0  0  0  0  0  0
   -2.6146   -1.2026    0.8937 H   0  0  0  0  0  0  0  0  0  0  0  0
   -0.1806   -0.6747    0.0780 C   0  0  0  0  0  0  0  0  0  0  0  0
   -1.4357    0.7723    0.7617 H   0  0  0  0  0  0  0  0  0  0  0  0
   -1.2940    0.8511   -1.0504 H   0  0  0  0  0  0  0  0  0  0  0  0
   -0.2794   -1.2377    0.9429 H   0  0  0  0  0  0  0  0  0  0  0  0
    0.7272   -0.0325    0.1898 H   0  0  0  0  0  0  0  0  0  0  0  0
   -0.0993   -1.4331   -0.8803 H   0  0  0  0  0  0  0  0  0  0  0  0
  1  5  1  0  0  0  0
  2  1  1  0  0  0  0
  2  8  1  0  0  0  0
  3  1  1  0  0  0  0
  4  1  1  0  0  0  0
  6  2  1  0  0  0  0
  6  9  1  0  0  0  0
  6 10  1  0  0  0  0
  7  2  1  0  0  0  0
  9 13  1  0  0  0  0
  9 12  1  0  0  0  0
 11  6  1  0  0  0  0
 14  9  1  0  0  0  0
M  END
$$$$
