butane_opt
 OpenBabel08242015383D

 14 13  0  0  0  0  0  0  0  0999 V2000
   -3.9279    0.2488    0.0172 C   0  0  0  0  0  0  0  0  0  0  0  0
   -2.7103   -0.5906    0.0565 C   0  0  0  0  0  0  0  0  0  0  0  0
   -4.9169   -0.4571    0.0487 H   0  0  0  0  0  0  0  0  0  0  0  0
   -3.9060    0.9668   -0.9594 H   0  0  0  0  0  0  0  0  0  0  0  0
   -3.8661    0.8592    0.8077 H   0  0  0  0  0  0  0  0  0  0  0  0
   -1.4087    0.2051    0.0097 C   0  0  0  0  0  0  0  0  0  0  0  0
   -2.6761   -1.2075   -0.7809 H   0  0  0  0  0  0  0  0  0  0  0  0
   -2.6866   -1.2214    0.9557 H   0  0  0  0  0  0  0  0  0  0  0  0
   -0.1717   -0.7258    0.0179 C   0  0  0  0  0  0  0  0  0  0  0  0
   -1.3306    0.8397    0.8617 H   0  0  0  0  0  0  0  0  0  0  0  0
   -1.4747    0.8448   -0.8616 H   0  0  0  0  0  0  0  0  0  0  0  0
   -0.2032   -1.1759    0.8229 H   0  0  0  0  0  0  0  0  0  0  0  0
    0.7299   -0.0928    0.2189 H   0  0  0  0  0  0  0  0  0  0  0  0
   -0.0549   -1.4967   -0.9068 H   0  0  0  0  0  0  0  0  0  0  0  0
  1  3  1  0  0  0  0
  1  2  1  0  0  0  0
  1  5  1  0  0  0  0
  2  8  1  0  0  0  0
  4  1  1  0  0  0  0
  6  9  1  0  0  0  0
  6  2  1  0  0  0  0
  6 10  1  0  0  0  0
  7  2  1  0  0  0  0
  9 13  1  0  0  0  0
  9 12  1  0  0  0  0
 11  6  1  0  0  0  0
 14  9  1  0  0  0  0
M  END
$$$$
