butane_opt
 OpenBabel08242015383D

 14 13  0  0  0  0  0  0  0  0999 V2000
   -3.9446    0.2764    0.0182 C   0  0  0  0  0  0  0  0  0  0  0  0
   -2.6919   -0.6384    0.0609 C   0  0  0  0  0  0  0  0  0  0  0  0
   -4.8670   -0.2942   -0.1658 H   0  0  0  0  0  0  0  0  0  0  0  0
   -3.8579    0.7669   -0.8220 H   0  0  0  0  0  0  0  0  0  0  0  0
   -4.0261    1.1463    1.0224 H   0  0  0  0  0  0  0  0  0  0  0  0
   -1.4045    0.1743   -0.0191 C   0  0  0  0  0  0  0  0  0  0  0  0
   -2.7309   -1.3070   -0.8010 H   0  0  0  0  0  0  0  0  0  0  0  0
   -2.6504   -1.2872    0.9849 H   0  0  0  0  0  0  0  0  0  0  0  0
   -0.1790   -0.6837    0.0380 C   0  0  0  0  0  0  0  0  0  0  0  0
   -1.3939    0.8435    0.8687 H   0  0  0  0  0  0  0  0  0  0  0  0
   -1.3194    0.8181   -0.9227 H   0  0  0  0  0  0  0  0  0  0  0  0
   -0.1971   -1.2953    0.9461 H   0  0  0  0  0  0  0  0  0  0  0  0
    0.7571   -0.0492   -0.0382 H   0  0  0  0  0  0  0  0  0  0  0  0
   -0.1062   -1.3542   -0.8094 H   0  0  0  0  0  0  0  0  0  0  0  0
  1  2  1  0  0  0  0
  1  5  1  0  0  0  0
  2  8  1  0  0  0  0
  3  1  1  0  0  0  0
  4  1  1  0  0  0  0
  6  9  1  0  0  0  0
  6  2  1  0  0  0  0
  6 10  1  0  0  0  0
  7  2  1  0  0  0  0
  9 12  1  0  0  0  0
 11  6  1  0  0  0  0
 13  9  1  0  0  0  0
 14  9  1  0  0  0  0
M  END
$$$$
