butane_opt
 OpenBabel08242015383D

 14 13  0  0  0  0  0  0  0  0999 V2000
   -3.9270    0.2764   -0.0116 C   0  0  0  0  0  0  0  0  0  0  0  0
   -2.6947   -0.6347    0.0878 C   0  0  0  0  0  0  0  0  0  0  0  0
   -4.7859   -0.2562   -0.0540 H   0  0  0  0  0  0  0  0  0  0  0  0
   -3.9412    1.0297   -0.9832 H   0  0  0  0  0  0  0  0  0  0  0  0
   -4.0015    0.9515    0.8656 H   0  0  0  0  0  0  0  0  0  0  0  0
   -1.4083    0.1552    0.0152 C   0  0  0  0  0  0  0  0  0  0  0  0
   -2.7506   -1.2305   -0.6685 H   0  0  0  0  0  0  0  0  0  0  0  0
   -2.6794   -1.3978    1.0549 H   0  0  0  0  0  0  0  0  0  0  0  0
   -0.1872   -0.6765   -0.0037 C   0  0  0  0  0  0  0  0  0  0  0  0
   -1.3172    0.8774    0.9450 H   0  0  0  0  0  0  0  0  0  0  0  0
   -1.4052    0.7471   -0.8173 H   0  0  0  0  0  0  0  0  0  0  0  0
   -0.2790   -1.0817    0.7707 H   0  0  0  0  0  0  0  0  0  0  0  0
    0.8044   -0.0457    0.2240 H   0  0  0  0  0  0  0  0  0  0  0  0
   -0.0770   -1.4929   -0.9888 H   0  0  0  0  0  0  0  0  0  0  0  0
  1  2  1  0  0  0  0
  1  5  1  0  0  0  0
  2  8  1  0  0  0  0
  3  1  1  0  0  0  0
  4  1  1  0  0  0  0
  6  2  1  0  0  0  0
  6 10  1  0  0  0  0
  7  2  1  0  0  0  0
  9  6  1  0  0  0  0
  9 13  1  0  0  0  0
  9 12  1  0  0  0  0
 11  6  1  0  0  0  0
 14  9  1  0  0  0  0
M  END
$$$$
