butane_opt
 OpenBabel08242015383D

 14 13  0  0  0  0  0  0  0  0999 V2000
   -3.9589    0.2367   -0.0318 C   0  0  0  0  0  0  0  0  0  0  0  0
   -2.7108   -0.5968    0.1183 C   0  0  0  0  0  0  0  0  0  0  0  0
   -4.8581   -0.3338   -0.1343 H   0  0  0  0  0  0  0  0  0  0  0  0
   -3.8027    0.8233   -0.9152 H   0  0  0  0  0  0  0  0  0  0  0  0
   -4.0640    1.0182    0.8650 H   0  0  0  0  0  0  0  0  0  0  0  0
   -1.4178    0.2066    0.0295 C   0  0  0  0  0  0  0  0  0  0  0  0
   -2.6700   -1.2289   -0.7097 H   0  0  0  0  0  0  0  0  0  0  0  0
   -2.8236   -1.2867    1.1027 H   0  0  0  0  0  0  0  0  0  0  0  0
   -0.1245   -0.7196   -0.0167 C   0  0  0  0  0  0  0  0  0  0  0  0
   -1.3065    0.9607    0.9422 H   0  0  0  0  0  0  0  0  0  0  0  0
   -1.5056    0.8119   -0.8170 H   0  0  0  0  0  0  0  0  0  0  0  0
   -0.1448   -1.2146    0.7759 H   0  0  0  0  0  0  0  0  0  0  0  0
    0.7897   -0.1375    0.0663 H   0  0  0  0  0  0  0  0  0  0  0  0
   -0.0817   -1.4176   -0.9168 H   0  0  0  0  0  0  0  0  0  0  0  0
  1  2  1  0  0  0  0
  1  5  1  0  0  0  0
  2  8  1  0  0  0  0
  3  1  1  0  0  0  0
  4  1  1  0  0  0  0
  6  2  1  0  0  0  0
  6 10  1  0  0  0  0
  7  2  1  0  0  0  0
  9  6  1  0  0  0  0
  9 13  1  0  0  0  0
  9 12  1  0  0  0  0
 11  6  1  0  0  0  0
 14  9  1  0  0  0  0
M  END
$$$$
