14
butane_opt
C  -3.937420   0.255800   0.035089
C  -2.701631  -0.601503   0.027109
H  -4.821527  -0.335992  -0.032795
H  -3.902178   0.810021  -0.837946
H  -3.960746   0.980324   0.927714
C  -1.401306   0.196102  -0.006460
H  -2.727529  -1.303112  -0.825853
H  -2.674450  -1.244225   0.925324
C  -0.176670  -0.703153   0.053687
H  -1.382936   0.802140   0.800494
H  -1.386469   0.847788  -0.926152
H  -0.140344  -1.293552   0.930685
H   0.710039  -0.138954  -0.000852
H  -0.129993  -1.361669  -0.830722
