butane_opt
 OpenBabel08242015383D

 14 13  0  0  0  0  0  0  0  0999 V2000
   -3.9435    0.2507   -0.0080 C   0  0  0  0  0  0  0  0  0  0  0  0
   -2.7081   -0.6135    0.0628 C   0  0  0  0  0  0  0  0  0  0  0  0
   -4.8502   -0.3342   -0.0059 H   0  0  0  0  0  0  0  0  0  0  0  0
   -3.9346    0.9386   -0.9569 H   0  0  0  0  0  0  0  0  0  0  0  0
   -4.0409    0.9202    0.8343 H   0  0  0  0  0  0  0  0  0  0  0  0
   -1.3979    0.2044    0.0594 C   0  0  0  0  0  0  0  0  0  0  0  0
   -2.7464   -1.3102   -0.7813 H   0  0  0  0  0  0  0  0  0  0  0  0
   -2.7571   -1.2020    0.9187 H   0  0  0  0  0  0  0  0  0  0  0  0
   -0.1455   -0.7020    0.0024 C   0  0  0  0  0  0  0  0  0  0  0  0
   -1.4140    0.9062    0.9122 H   0  0  0  0  0  0  0  0  0  0  0  0
   -1.4116    0.7978   -0.8181 H   0  0  0  0  0  0  0  0  0  0  0  0
   -0.0605   -1.3898    0.9425 H   0  0  0  0  0  0  0  0  0  0  0  0
    0.7452   -0.1648   -0.1749 H   0  0  0  0  0  0  0  0  0  0  0  0
   -0.2033   -1.3077   -0.8311 H   0  0  0  0  0  0  0  0  0  0  0  0
  1  3  1  0  0  0  0
  1  2  1  0  0  0  0
  1  5  1  0  0  0  0
  2  8  1  0  0  0  0
  4  1  1  0  0  0  0
  6  2  1  0  0  0  0
  6 10  1  0  0  0  0
  7  2  1  0  0  0  0
  9  6  1  0  0  0  0
  9 12  1  0  0  0  0
 11  6  1  0  0  0  0
 13  9  1  0  0  0  0
 14  9  1  0  0  0  0
M  END
$$$$
