butane_opt
 OpenBabel08242015383D

 14 13  0  0  0  0  0  0  0  0999 V2000
   -3.9535    0.2459   -0.0332 C   0  0  0  0  0  0  0  0  0  0  0  0
   -2.7198   -0.5940    0.1203 C   0  0  0  0  0  0  0  0  0  0  0  0
   -4.8994   -0.4008    0.0259 H   0  0  0  0  0  0  0  0  0  0  0  0
   -3.9277    0.9418   -1.0481 H   0  0  0  0  0  0  0  0  0  0  0  0
   -3.9038    0.8545    0.8104 H   0  0  0  0  0  0  0  0  0  0  0  0
   -1.4126    0.2014    0.0438 C   0  0  0  0  0  0  0  0  0  0  0  0
   -2.6717   -1.2010   -0.7330 H   0  0  0  0  0  0  0  0  0  0  0  0
   -2.7256   -1.2415    1.0174 H   0  0  0  0  0  0  0  0  0  0  0  0
   -0.1376   -0.7113   -0.0138 C   0  0  0  0  0  0  0  0  0  0  0  0
   -1.3680    0.8238    0.8712 H   0  0  0  0  0  0  0  0  0  0  0  0
   -1.4528    0.8477   -0.8574 H   0  0  0  0  0  0  0  0  0  0  0  0
   -0.0959   -1.0554    0.7011 H   0  0  0  0  0  0  0  0  0  0  0  0
    0.7371   -0.1511    0.2407 H   0  0  0  0  0  0  0  0  0  0  0  0
   -0.0253   -1.6051   -1.0244 H   0  0  0  0  0  0  0  0  0  0  0  0
  1  3  1  0  0  0  0
  1  2  1  0  0  0  0
  1  5  1  0  0  0  0
  2  8  1  0  0  0  0
  4  1  1  0  0  0  0
  6  2  1  0  0  0  0
  6 10  1  0  0  0  0
  7  2  1  0  0  0  0
  9  6  1  0  0  0  0
  9 13  1  0  0  0  0
  9 12  1  0  0  0  0
 11  6  1  0  0  0  0
 14  9  1  0  0  0  0
M  END
$$$$
