butane_opt
 OpenBabel08242015383D

 14 13  0  0  0  0  0  0  0  0999 V2000
   -3.9431    0.2496   -0.0279 C   0  0  0  0  0  0  0  0  0  0  0  0
   -2.7215   -0.5873    0.0997 C   0  0  0  0  0  0  0  0  0  0  0  0
   -4.9089   -0.3805    0.0778 H   0  0  0  0  0  0  0  0  0  0  0  0
   -3.9075    0.9981   -0.9799 H   0  0  0  0  0  0  0  0  0  0  0  0
   -3.9746    0.7750    0.7351 H   0  0  0  0  0  0  0  0  0  0  0  0
   -1.3938    0.2061    0.0482 C   0  0  0  0  0  0  0  0  0  0  0  0
   -2.7585   -1.2588   -0.7804 H   0  0  0  0  0  0  0  0  0  0  0  0
   -2.7434   -1.2351    0.9834 H   0  0  0  0  0  0  0  0  0  0  0  0
   -0.1413   -0.7041   -0.0090 C   0  0  0  0  0  0  0  0  0  0  0  0
   -1.4129    0.8701    0.9274 H   0  0  0  0  0  0  0  0  0  0  0  0
   -1.3922    0.7384   -0.7986 H   0  0  0  0  0  0  0  0  0  0  0  0
   -0.0590   -1.2183    0.8226 H   0  0  0  0  0  0  0  0  0  0  0  0
    0.6994   -0.2049    0.0814 H   0  0  0  0  0  0  0  0  0  0  0  0
   -0.1596   -1.5379   -0.9890 H   0  0  0  0  0  0  0  0  0  0  0  0
  1  3  1  0  0  0  0
  1  2  1  0  0  0  0
  1  5  1  0  0  0  0
  2  8  1  0  0  0  0
  4  1  1  0  0  0  0
  6  2  1  0  0  0  0
  6 10  1  0  0  0  0
  7  2  1  0  0  0  0
  9  6  1  0  0  0  0
  9 13  1  0  0  0  0
  9 12  1  0  0  0  0
 11  6  1  0  0  0  0
 14  9  1  0  0  0  0
M  END
$$$$
