14
butane_opt
C  -3.940257   0.283037   0.074081
C  -2.695954  -0.635649  -0.022048
H  -4.881340  -0.299611   0.156800
H  -4.136294   0.894522  -0.779820
H  -3.950288   1.032969   0.984559
C  -1.382070   0.150531  -0.046972
H  -2.769866  -1.344854  -0.908953
H  -2.648190  -1.164364   0.803347
C  -0.172097  -0.673938   0.084453
H  -1.415716   0.682422   0.707804
H  -1.349864   0.903682  -1.075498
H  -0.282161  -1.268092   0.986030
H   0.788269  -0.020729   0.250703
H  -0.093849  -1.374860  -0.750833
