butane_opt
 OpenBabel08242015383D

 14 13  0  0  0  0  0  0  0  0999 V2000
   -3.9426    0.2923    0.0518 C   0  0  0  0  0  0  0  0  0  0  0  0
   -2.6922   -0.6387    0.0131 C   0  0  0  0  0  0  0  0  0  0  0  0
   -4.8320   -0.3006    0.1569 H   0  0  0  0  0  0  0  0  0  0  0  0
   -3.9410    0.9121   -0.8452 H   0  0  0  0  0  0  0  0  0  0  0  0
   -3.9593    0.9162    0.8841 H   0  0  0  0  0  0  0  0  0  0  0  0
   -1.3900    0.1429   -0.0290 C   0  0  0  0  0  0  0  0  0  0  0  0
   -2.6861   -1.3477   -0.8612 H   0  0  0  0  0  0  0  0  0  0  0  0
   -2.6949   -1.2117    0.8692 H   0  0  0  0  0  0  0  0  0  0  0  0
   -0.1854   -0.6754    0.0616 C   0  0  0  0  0  0  0  0  0  0  0  0
   -1.4206    0.8178    0.7930 H   0  0  0  0  0  0  0  0  0  0  0  0
   -1.3850    0.9153   -0.9723 H   0  0  0  0  0  0  0  0  0  0  0  0
   -0.2796   -1.2120    0.8922 H   0  0  0  0  0  0  0  0  0  0  0  0
    0.7565   -0.0218    0.2167 H   0  0  0  0  0  0  0  0  0  0  0  0
   -0.0761   -1.3951   -0.8610 H   0  0  0  0  0  0  0  0  0  0  0  0
  1  3  1  0  0  0  0
  1  5  1  0  0  0  0
  2  1  1  0  0  0  0
  2  8  1  0  0  0  0
  4  1  1  0  0  0  0
  6  2  1  0  0  0  0
  6  9  1  0  0  0  0
  6 10  1  0  0  0  0
  7  2  1  0  0  0  0
  9 13  1  0  0  0  0
  9 12  1  0  0  0  0
 11  6  1  0  0  0  0
 14  9  1  0  0  0  0
M  END
$$$$
