14
butane_opt
C  -3.975087   0.280431  -0.004077
C  -2.701327  -0.619306   0.044933
H  -4.838283  -0.254673   0.242515
H  -4.055675   1.150268  -1.081155
H  -3.913417   0.717329   0.694328
C  -1.373229   0.155345   0.041753
H  -2.697469  -1.320048  -0.808678
H  -2.635500  -1.345226   0.983038
C  -0.170475  -0.680928   0.014907
H  -1.269477   0.962233   1.007148
H  -1.378969   0.646833  -0.724993
H  -0.169737  -1.204847   0.822831
H   0.739806  -0.032881   0.001128
H  -0.169060  -1.398132  -0.906901
