14
butane_opt
C  -3.917453   0.248234   0.076346
C  -2.702882  -0.580650  -0.014257
H  -4.905839  -0.403279   0.162922
H  -4.005063   0.813211  -0.800708
H  -3.796612   0.953400   1.001243
C  -1.441030   0.201432  -0.070287
H  -2.760292  -1.402447  -0.906775
H  -2.705433  -1.179577   0.859377
C  -0.156390  -0.714739   0.096373
H  -1.522287   0.762233   0.703260
H  -1.332835   0.938864  -1.054520
H  -0.246599  -1.234531   0.951603
H   0.836796  -0.074443   0.239114
H   0.023844  -1.487593  -0.785549
