14
butane_opt
C  -3.942761   0.274576   0.040150
C  -2.687856  -0.630085   0.018875
H  -4.826589  -0.312217   0.055090
H  -4.013102   0.833945  -0.812045
H  -3.943121   1.010909   0.951561
C  -1.403698   0.176101  -0.030457
H  -2.685987  -1.320130  -0.807593
H  -2.656299  -1.257180   0.909013
C  -0.178728  -0.689019   0.058667
H  -1.411940   0.831090   0.794668
H  -1.368940   0.812415  -0.933793
H  -0.263723  -1.256446   0.915593
H   0.767389  -0.042996   0.115767
H  -0.068205  -1.342619  -0.794885
