14
butane_opt
C  -3.926940   0.270869   0.049434
C  -2.685033  -0.626805  -0.014573
H  -4.864538  -0.367170   0.223413
H  -4.104054   0.913115  -0.855042
H  -3.869519   0.852267   0.862992
C  -1.404625   0.185742  -0.015530
H  -2.714535  -1.299870  -0.842605
H  -2.631772  -1.172995   0.842949
C  -0.181870  -0.694370   0.054334
H  -1.450438   0.897496   0.885244
H  -1.405455   0.802228  -0.928964
H  -0.283977  -1.322575   1.034919
H   0.736630  -0.104217   0.058683
H  -0.049492  -1.300785  -0.739041
