butane_opt
 OpenBabel08242015383D

 14 13  0  0  0  0  0  0  0  0999 V2000
   -3.9463    0.2827    0.0592 C   0  0  0  0  0  0  0  0  0  0  0  0
   -2.7007   -0.6306    0.0326 C   0  0  0  0  0  0  0  0  0  0  0  0
   -4.8644   -0.3308   -0.0168 H   0  0  0  0  0  0  0  0  0  0  0  0
   -3.9244    0.8185   -0.8274 H   0  0  0  0  0  0  0  0  0  0  0  0
   -4.0127    1.0297    0.9486 H   0  0  0  0  0  0  0  0  0  0  0  0
   -1.3866    0.1648   -0.0579 C   0  0  0  0  0  0  0  0  0  0  0  0
   -2.6865   -1.3176   -0.8698 H   0  0  0  0  0  0  0  0  0  0  0  0
   -2.6138   -1.1754    0.8743 H   0  0  0  0  0  0  0  0  0  0  0  0
   -0.1869   -0.6942    0.0705 C   0  0  0  0  0  0  0  0  0  0  0  0
   -1.3765    0.7821    0.7664 H   0  0  0  0  0  0  0  0  0  0  0  0
   -1.3301    0.8462   -0.9753 H   0  0  0  0  0  0  0  0  0  0  0  0
   -0.2161   -1.1990    0.8880 H   0  0  0  0  0  0  0  0  0  0  0  0
    0.7838   -0.0350    0.2117 H   0  0  0  0  0  0  0  0  0  0  0  0
   -0.1326   -1.3667   -0.8014 H   0  0  0  0  0  0  0  0  0  0  0  0
  1  5  1  0  0  0  0
  2  1  1  0  0  0  0
  2  8  1  0  0  0  0
  3  1  1  0  0  0  0
  4  1  1  0  0  0  0
  6  2  1  0  0  0  0
  6  9  1  0  0  0  0
  6 10  1  0  0  0  0
  7  2  1  0  0  0  0
  9 13  1  0  0  0  0
  9 12  1  0  0  0  0
 11  6  1  0  0  0  0
 14  9  1  0  0  0  0
M  END
$$$$
