14
butane_opt
C  -3.915563   0.243975  -0.025721
C  -2.703924  -0.573193   0.070614
H  -4.856325  -0.341623   0.196478
H  -4.049988   0.994832  -1.017850
H  -3.926225   0.692366   0.698842
C  -1.419675   0.187351   0.058908
H  -2.661463  -1.243846  -0.759951
H  -2.692796  -1.250591   0.936873
C  -0.161715  -0.706576  -0.008563
H  -1.337952   0.955639   0.984196
H  -1.544891   0.688185  -0.741360
H  -0.125649  -1.291452   0.838738
H   0.796738  -0.100438   0.042906
H  -0.202608  -1.385755  -0.891155
