14
butane_opt
C  -3.950959   0.245641  -0.054092
C  -2.736585  -0.595436   0.107642
H  -4.784409  -0.306502  -0.069343
H  -3.901598   0.844806  -0.936340
H  -3.967494   0.901236   0.781092
C  -1.400031   0.209297   0.097393
H  -2.658773  -1.257521  -0.750634
H  -2.837314  -1.236465   0.977674
C  -0.132963  -0.715818  -0.021298
H  -1.288883   0.887805   0.922985
H  -1.499192   0.830131  -0.751154
H   0.086435  -1.373304   0.862049
H   0.725908  -0.148651  -0.229745
H  -0.253944  -1.336843  -0.905154
