14
butane_opt
C  -3.949554   0.247861   0.075854
C  -2.700032  -0.587822  -0.024292
H  -4.892584  -0.416245   0.095299
H  -3.953895   0.769667  -0.735811
H  -3.888456   0.951806   0.950752
C  -1.403050   0.202592  -0.060834
H  -2.761188  -1.296612  -0.844964
H  -2.679438  -1.215638   0.862822
C  -0.161106  -0.718816   0.082517
H  -1.411779   0.890842   0.792517
H  -1.477911   0.949305  -1.011620
H  -0.209501  -1.325312   0.993514
H   0.785724  -0.133080   0.193268
H   0.030388  -1.380386  -0.721330
