butane_opt
 OpenBabel08242015383D

 14 13  0  0  0  0  0  0  0  0999 V2000
   -3.9447    0.2705    0.0410 C   0  0  0  0  0  0  0  0  0  0  0  0
   -2.7077   -0.6326    0.0054 C   0  0  0  0  0  0  0  0  0  0  0  0
   -4.8143   -0.2983    0.0677 H   0  0  0  0  0  0  0  0  0  0  0  0
   -4.0510    0.8588   -0.8117 H   0  0  0  0  0  0  0  0  0  0  0  0
   -4.0001    0.9760    0.9499 H   0  0  0  0  0  0  0  0  0  0  0  0
   -1.4038    0.1814   -0.0148 C   0  0  0  0  0  0  0  0  0  0  0  0
   -2.7045   -1.3326   -0.8768 H   0  0  0  0  0  0  0  0  0  0  0  0
   -2.7055   -1.2009    0.8506 H   0  0  0  0  0  0  0  0  0  0  0  0
   -0.1516   -0.6869    0.0558 C   0  0  0  0  0  0  0  0  0  0  0  0
   -1.3727    0.8948    0.8689 H   0  0  0  0  0  0  0  0  0  0  0  0
   -1.3648    0.7914   -0.8963 H   0  0  0  0  0  0  0  0  0  0  0  0
   -0.1503   -1.4365    1.0358 H   0  0  0  0  0  0  0  0  0  0  0  0
    0.7482   -0.0774   -0.0814 H   0  0  0  0  0  0  0  0  0  0  0  0
   -0.1149   -1.2316   -0.7007 H   0  0  0  0  0  0  0  0  0  0  0  0
  1  3  1  0  0  0  0
  1  5  1  0  0  0  0
  2  1  1  0  0  0  0
  2  8  1  0  0  0  0
  4  1  1  0  0  0  0
  6  2  1  0  0  0  0
  6  9  1  0  0  0  0
  6 10  1  0  0  0  0
  7  2  1  0  0  0  0
  9 12  1  0  0  0  0
 11  6  1  0  0  0  0
 13  9  1  0  0  0  0
 14  9  1  0  0  0  0
M  END
$$$$
