14
butane_opt
C  -3.962455   0.279321  -0.024794
C  -2.704235  -0.626444   0.080423
H  -4.851318  -0.279136  -0.045925
H  -4.003771   0.948327  -0.953651
H  -4.040513   0.917493   0.806527
C  -1.400644   0.162586   0.066094
H  -2.645512  -1.342018  -0.820136
H  -2.808589  -1.296379   0.997523
C  -0.143217  -0.686082  -0.020550
H  -1.321378   0.938519   0.999884
H  -1.430541   0.685234  -0.712951
H  -0.046037  -1.368181   0.974746
H   0.832448  -0.019566  -0.232262
H  -0.193078  -1.189703  -0.783246
