14
butane_opt
C  -3.924379   0.245554  -0.007071
C  -2.700087  -0.572237   0.071014
H  -4.910925  -0.439545  -0.102072
H  -3.793824   0.813729  -0.911950
H  -4.068879   1.007821   0.890848
C  -1.400064   0.183841   0.027429
H  -2.738241  -1.237762  -0.727529
H  -2.699055  -1.242900   0.996775
C  -0.180100  -0.712877   0.011905
H  -1.326418   0.937513   0.933055
H  -1.502826   0.757822  -0.817789
H  -0.063789  -1.368932   0.881808
H   0.738642  -0.121551  -0.102634
H  -0.186815  -1.315741  -0.820999
