14
butane_opt
C  -3.914877   0.270163  -0.019445
C  -2.695595  -0.634231   0.069724
H  -4.812669  -0.256517   0.033706
H  -3.884077   0.979677  -1.018943
H  -4.062401   0.922105   0.779617
C  -1.417291   0.162201   0.079088
H  -2.686546  -1.249190  -0.753268
H  -2.732912  -1.264855   0.951963
C  -0.175128  -0.676758  -0.005336
H  -1.330065   0.860035   0.957443
H  -1.385865   0.834808  -0.811055
H  -0.098523  -1.304841   0.881127
H   0.741502  -0.066200  -0.148327
H  -0.337521  -1.386206  -0.922432
