14
butane_opt
C  -3.941476   0.256585   0.029042
C  -2.711615  -0.612845   0.010520
H  -4.839125  -0.327017   0.171215
H  -4.049001   0.895913  -0.862641
H  -3.889758   0.890716   0.895634
C  -1.409078   0.203325  -0.003231
H  -2.735782  -1.306845  -0.856235
H  -2.762446  -1.210105   0.884876
C  -0.148832  -0.709726   0.051529
H  -1.401404   0.894458   0.839935
H  -1.350373   0.821011  -0.876480
H  -0.104716  -1.327743   0.959780
H   0.735727  -0.139779   0.013699
H  -0.089868  -1.312320  -0.782224
