14
butane_opt
C  -3.929527   0.261741   0.054777
C  -2.706145  -0.612413   0.002141
H  -4.829335  -0.337717   0.122791
H  -3.960155   0.885660  -0.836679
H  -3.928918   0.899955   0.899361
C  -1.409713   0.186944  -0.024984
H  -2.721589  -1.330376  -0.883573
H  -2.649899  -1.172273   0.852438
C  -0.177083  -0.696522   0.064193
H  -1.435976   0.830817   0.803082
H  -1.330991   0.857553  -0.944923
H  -0.151157  -1.319804   0.959087
H   0.723514  -0.112024   0.090378
H  -0.072016  -1.352181  -0.776469
