14
butane_opt
C  -3.945842   0.281992   0.056948
C  -2.691224  -0.627809   0.020632
H  -4.808573  -0.280108  -0.199552
H  -3.924378   0.668286  -0.747264
H  -4.070540   1.181857   1.052145
C  -1.384159   0.152080  -0.028980
H  -2.724603  -1.315892  -0.833115
H  -2.696871  -1.254664   0.924937
C  -0.171968  -0.681569   0.067584
H  -1.510678   0.737173   0.738742
H  -1.303840   0.899523  -1.049459
H  -0.222868  -1.278995   0.956110
H   0.763112  -0.050344  -0.029416
H  -0.207130  -1.268991  -0.750121
