butane_opt
 OpenBabel08242015383D

 14 13  0  0  0  0  0  0  0  0999 V2000
   -3.9092    0.2548   -0.0382 C   0  0  0  0  0  0  0  0  0  0  0  0
   -2.7184   -0.6108    0.1247 C   0  0  0  0  0  0  0  0  0  0  0  0
   -4.8174   -0.3759   -0.1735 H   0  0  0  0  0  0  0  0  0  0  0  0
   -3.7265    0.7315   -0.8994 H   0  0  0  0  0  0  0  0  0  0  0  0
   -4.0995    1.0040    0.8699 H   0  0  0  0  0  0  0  0  0  0  0  0
   -1.4158    0.2085    0.0526 C   0  0  0  0  0  0  0  0  0  0  0  0
   -2.7125   -1.2142   -0.6717 H   0  0  0  0  0  0  0  0  0  0  0  0
   -2.7605   -1.2156    1.0070 H   0  0  0  0  0  0  0  0  0  0  0  0
   -0.1595   -0.7159   -0.0229 C   0  0  0  0  0  0  0  0  0  0  0  0
   -1.4126    0.9250    0.8643 H   0  0  0  0  0  0  0  0  0  0  0  0
   -1.4881    0.8648   -0.8407 H   0  0  0  0  0  0  0  0  0  0  0  0
   -0.0962   -1.2425    0.8580 H   0  0  0  0  0  0  0  0  0  0  0  0
    0.7352   -0.1727   -0.0356 H   0  0  0  0  0  0  0  0  0  0  0  0
   -0.2019   -1.4348   -0.9201 H   0  0  0  0  0  0  0  0  0  0  0  0
  1  2  1  0  0  0  0
  1  5  1  0  0  0  0
  2  8  1  0  0  0  0
  3  1  1  0  0  0  0
  4  1  1  0  0  0  0
  6  2  1  0  0  0  0
  6 10  1  0  0  0  0
  7  2  1  0  0  0  0
  9  6  1  0  0  0  0
  9 12  1  0  0  0  0
 11  6  1  0  0  0  0
 13  9  1  0  0  0  0
 14  9  1  0  0  0  0
M  END
$$$$
