14
butane_opt
C  -3.963927   0.291186  -0.041309
C  -2.705209  -0.631930   0.127157
H  -4.872110  -0.327245  -0.191787
H  -3.895793   0.780109  -0.868295
H  -4.138888   1.078030   0.813239
C  -1.381667   0.156671   0.055652
H  -2.608257  -1.300905  -0.692769
H  -2.809663  -1.305255   1.074523
C  -0.156925  -0.671350  -0.020483
H  -1.317909   0.790362   0.882885
H  -1.406111   0.783603  -0.851210
H  -0.028807  -1.200807   0.780429
H   0.777184  -0.097340  -0.013663
H  -0.238151  -1.402237  -0.927334
