14
butane_opt
C  -3.921928   0.256548  -0.001478
C  -2.715789  -0.599932   0.083000
H  -4.902739  -0.419661   0.053534
H  -3.943032   0.953218  -0.991148
H  -3.849008   0.872041   0.829572
C  -1.410771   0.191300   0.021417
H  -2.645531  -1.241013  -0.751832
H  -2.813991  -1.261012   0.970359
C  -0.149133  -0.709440   0.013626
H  -1.447771   0.864013   0.829647
H  -1.445547   0.917469  -0.907404
H  -0.211304  -1.112176   0.761027
H   0.723638  -0.106157   0.225012
H  -0.106283  -1.619859  -1.002912
