14
butane_opt
C  -3.934478   0.276374   0.042903
C  -2.697106  -0.625270   0.015380
H  -4.873709  -0.337800   0.053274
H  -4.016388   0.812043  -0.795971
H  -3.936473   1.056403   0.977505
C  -1.402359   0.162893  -0.036148
H  -2.707154  -1.276216  -0.834778
H  -2.645276  -1.245245   0.907776
C  -0.176219  -0.681848   0.064203
H  -1.396874   0.812737   0.771488
H  -1.341303   0.804371  -0.955907
H  -0.231699  -1.259355   0.965177
H   0.734058  -0.078237   0.124385
H  -0.083854  -1.354677  -0.802710
