14
butane_opt
C  -3.951320   0.280302   0.062062
C  -2.701437  -0.644334  -0.029345
H  -4.818295  -0.297357   0.190706
H  -4.137557   0.900374  -0.838493
H  -3.907287   0.930725   0.910780
C  -1.416683   0.186966  -0.020287
H  -2.718917  -1.415860  -0.895364
H  -2.701363  -1.171047   0.782438
C  -0.141128  -0.681692   0.090535
H  -1.378404   0.795788   0.775765
H  -1.346905   0.851650  -0.943352
H  -0.128282  -1.379985   1.046147
H   0.794215  -0.033149  -0.094337
H  -0.164678  -1.330795  -0.726622
