butane_opt
 OpenBabel08242015383D

 14 13  0  0  0  0  0  0  0  0999 V2000
   -3.9536    0.2750    0.0264 C   0  0  0  0  0  0  0  0  0  0  0  0
   -2.7031   -0.6366    0.0195 C   0  0  0  0  0  0  0  0  0  0  0  0
   -4.8157   -0.2432   -0.0383 H   0  0  0  0  0  0  0  0  0  0  0  0
   -4.0491    0.8643   -0.8549 H   0  0  0  0  0  0  0  0  0  0  0  0
   -3.9869    0.9634    0.9218 H   0  0  0  0  0  0  0  0  0  0  0  0
   -1.3998    0.1743    0.0404 C   0  0  0  0  0  0  0  0  0  0  0  0
   -2.7448   -1.3968   -0.9177 H   0  0  0  0  0  0  0  0  0  0  0  0
   -2.7458   -1.2236    0.8559 H   0  0  0  0  0  0  0  0  0  0  0  0
   -0.1509   -0.6769    0.0354 C   0  0  0  0  0  0  0  0  0  0  0  0
   -1.4110    0.8102    0.8107 H   0  0  0  0  0  0  0  0  0  0  0  0
   -1.4144    0.8696   -0.8858 H   0  0  0  0  0  0  0  0  0  0  0  0
    0.0080   -1.4758    1.0117 H   0  0  0  0  0  0  0  0  0  0  0  0
    0.7934   -0.0961   -0.1918 H   0  0  0  0  0  0  0  0  0  0  0  0
   -0.1851   -1.1515   -0.7100 H   0  0  0  0  0  0  0  0  0  0  0  0
  1  5  1  0  0  0  0
  2  1  1  0  0  0  0
  2  6  1  0  0  0  0
  2  8  1  0  0  0  0
  3  1  1  0  0  0  0
  4  1  1  0  0  0  0
  6 10  1  0  0  0  0
  7  2  1  0  0  0  0
  9  6  1  0  0  0  0
  9 12  1  0  0  0  0
 11  6  1  0  0  0  0
 13  9  1  0  0  0  0
 14  9  1  0  0  0  0
M  END
$$$$
