butane_opt
 OpenBabel08242015383D

 14 13  0  0  0  0  0  0  0  0999 V2000
   -3.9637    0.2750    0.0807 C   0  0  0  0  0  0  0  0  0  0  0  0
   -2.6932   -0.6356   -0.0550 C   0  0  0  0  0  0  0  0  0  0  0  0
   -4.8439   -0.2713    0.2642 H   0  0  0  0  0  0  0  0  0  0  0  0
   -4.2185    0.9086   -0.8254 H   0  0  0  0  0  0  0  0  0  0  0  0
   -3.8982    0.9191    0.9233 H   0  0  0  0  0  0  0  0  0  0  0  0
   -1.3915    0.1606   -0.0504 C   0  0  0  0  0  0  0  0  0  0  0  0
   -2.7404   -1.3027   -0.9328 H   0  0  0  0  0  0  0  0  0  0  0  0
   -2.6828   -1.2260    0.8372 H   0  0  0  0  0  0  0  0  0  0  0  0
   -0.1485   -0.6876    0.0959 C   0  0  0  0  0  0  0  0  0  0  0  0
   -1.3957    0.8982    0.8572 H   0  0  0  0  0  0  0  0  0  0  0  0
   -1.3772    0.8607   -0.9694 H   0  0  0  0  0  0  0  0  0  0  0  0
   -0.1827   -1.3465    1.0495 H   0  0  0  0  0  0  0  0  0  0  0  0
    0.7992   -0.0295    0.1178 H   0  0  0  0  0  0  0  0  0  0  0  0
   -0.1193   -1.2342   -0.7243 H   0  0  0  0  0  0  0  0  0  0  0  0
  1  3  1  0  0  0  0
  1  5  1  0  0  0  0
  2  6  1  0  0  0  0
  2  1  1  0  0  0  0
  2  8  1  0  0  0  0
  4  1  1  0  0  0  0
  6  9  1  0  0  0  0
  6 10  1  0  0  0  0
  7  2  1  0  0  0  0
  9 13  1  0  0  0  0
  9 12  1  0  0  0  0
 11  6  1  0  0  0  0
 14  9  1  0  0  0  0
M  END
$$$$
