butane_opt
 OpenBabel08242015383D

 14 13  0  0  0  0  0  0  0  0999 V2000
   -3.9092    0.2377   -0.0388 C   0  0  0  0  0  0  0  0  0  0  0  0
   -2.7157   -0.5817    0.1038 C   0  0  0  0  0  0  0  0  0  0  0  0
   -4.8155   -0.3398   -0.0208 H   0  0  0  0  0  0  0  0  0  0  0  0
   -3.9124    0.8421   -0.9366 H   0  0  0  0  0  0  0  0  0  0  0  0
   -3.9660    0.8952    0.8066 H   0  0  0  0  0  0  0  0  0  0  0  0
   -1.4194    0.2081    0.0596 C   0  0  0  0  0  0  0  0  0  0  0  0
   -2.5956   -1.2649   -0.7738 H   0  0  0  0  0  0  0  0  0  0  0  0
   -2.8166   -1.2766    1.0900 H   0  0  0  0  0  0  0  0  0  0  0  0
   -0.1588   -0.7172   -0.0175 C   0  0  0  0  0  0  0  0  0  0  0  0
   -1.3890    0.8931    0.9332 H   0  0  0  0  0  0  0  0  0  0  0  0
   -1.4485    0.8496   -0.8105 H   0  0  0  0  0  0  0  0  0  0  0  0
   -0.0848   -1.2673    0.8324 H   0  0  0  0  0  0  0  0  0  0  0  0
    0.7027   -0.1583    0.0216 H   0  0  0  0  0  0  0  0  0  0  0  0
   -0.2391   -1.4255   -0.9823 H   0  0  0  0  0  0  0  0  0  0  0  0
  1  3  1  0  0  0  0
  1  2  1  0  0  0  0
  1  5  1  0  0  0  0
  2  8  1  0  0  0  0
  4  1  1  0  0  0  0
  6  2  1  0  0  0  0
  6 10  1  0  0  0  0
  7  2  1  0  0  0  0
  9 13  1  0  0  0  0
  9  6  1  0  0  0  0
  9 12  1  0  0  0  0
 11  6  1  0  0  0  0
 14  9  1  0  0  0  0
M  END
$$$$
