butane_opt
 OpenBabel08242015383D

 14 13  0  0  0  0  0  0  0  0999 V2000
   -3.9353    0.2270    0.0470 C   0  0  0  0  0  0  0  0  0  0  0  0
   -2.7011   -0.5730    0.0086 C   0  0  0  0  0  0  0  0  0  0  0  0
   -4.8253   -0.3783    0.0549 H   0  0  0  0  0  0  0  0  0  0  0  0
   -3.9687    0.8299   -0.8323 H   0  0  0  0  0  0  0  0  0  0  0  0
   -3.8460    1.0224    0.9767 H   0  0  0  0  0  0  0  0  0  0  0  0
   -1.4204    0.2072   -0.0316 C   0  0  0  0  0  0  0  0  0  0  0  0
   -2.6510   -1.2407   -0.7960 H   0  0  0  0  0  0  0  0  0  0  0  0
   -2.7697   -1.3037    0.9745 H   0  0  0  0  0  0  0  0  0  0  0  0
   -0.1594   -0.7164    0.0572 C   0  0  0  0  0  0  0  0  0  0  0  0
   -1.4572    0.8362    0.7844 H   0  0  0  0  0  0  0  0  0  0  0  0
   -1.3985    0.8606   -0.9523 H   0  0  0  0  0  0  0  0  0  0  0  0
   -0.2608   -1.2498    0.9379 H   0  0  0  0  0  0  0  0  0  0  0  0
    0.7441   -0.1083    0.1588 H   0  0  0  0  0  0  0  0  0  0  0  0
    0.0136   -1.4787   -0.8458 H   0  0  0  0  0  0  0  0  0  0  0  0
  1  3  1  0  0  0  0
  1  5  1  0  0  0  0
  2  1  1  0  0  0  0
  2  8  1  0  0  0  0
  4  1  1  0  0  0  0
  6  2  1  0  0  0  0
  6  9  1  0  0  0  0
  6 10  1  0  0  0  0
  7  2  1  0  0  0  0
  9 13  1  0  0  0  0
  9 12  1  0  0  0  0
 11  6  1  0  0  0  0
 14  9  1  0  0  0  0
M  END
$$$$
