14
butane_opt
C  -3.939586   0.262338   0.043500
C  -2.725424  -0.608419  -0.016198
H  -4.877712  -0.356338   0.025667
H  -4.034410   0.712272  -0.717968
H  -3.956174   1.043598   0.999091
C  -1.411773   0.201666  -0.011713
H  -2.745853  -1.343727  -0.952861
H  -2.656103  -1.275815   0.891027
C  -0.129975  -0.701263   0.067725
H  -1.427686   0.894466   0.853847
H  -1.403449   0.835309  -0.903898
H  -0.049847  -1.586269   1.078388
H   0.784944  -0.110394  -0.187385
H  -0.168937  -1.130524  -0.605706
