butane_opt
 OpenBabel08242015383D

 14 13  0  0  0  0  0  0  0  0999 V2000
   -3.9735    0.2818    0.0434 C   0  0  0  0  0  0  0  0  0  0  0  0
   -2.6970   -0.6396    0.0009 C   0  0  0  0  0  0  0  0  0  0  0  0
   -4.8689   -0.3374   -0.0140 H   0  0  0  0  0  0  0  0  0  0  0  0
   -3.9411    0.7356   -0.7690 H   0  0  0  0  0  0  0  0  0  0  0  0
   -4.0066    1.0711    0.9960 H   0  0  0  0  0  0  0  0  0  0  0  0
   -1.4068    0.1754   -0.0091 C   0  0  0  0  0  0  0  0  0  0  0  0
   -2.7035   -1.3115   -0.8672 H   0  0  0  0  0  0  0  0  0  0  0  0
   -2.6432   -1.1714    0.8468 H   0  0  0  0  0  0  0  0  0  0  0  0
   -0.1516   -0.6875    0.0492 C   0  0  0  0  0  0  0  0  0  0  0  0
   -1.3539    0.8787    0.8506 H   0  0  0  0  0  0  0  0  0  0  0  0
   -1.3456    0.7855   -0.9169 H   0  0  0  0  0  0  0  0  0  0  0  0
   -0.1033   -1.5205    1.0961 H   0  0  0  0  0  0  0  0  0  0  0  0
    0.7944   -0.0177   -0.1626 H   0  0  0  0  0  0  0  0  0  0  0  0
   -0.1170   -1.1386   -0.5967 H   0  0  0  0  0  0  0  0  0  0  0  0
  1  5  1  0  0  0  0
  2  1  1  0  0  0  0
  2  8  1  0  0  0  0
  3  1  1  0  0  0  0
  4  1  1  0  0  0  0
  6  2  1  0  0  0  0
  6  9  1  0  0  0  0
  6 10  1  0  0  0  0
  7  2  1  0  0  0  0
  9 12  1  0  0  0  0
 11  6  1  0  0  0  0
 13  9  1  0  0  0  0
 14  9  1  0  0  0  0
M  END
$$$$
