14
butane_opt
C  -3.935386   0.278746   0.074585
C  -2.706190  -0.620686   0.003097
H  -4.838973  -0.310507  -0.054106
H  -3.914697   0.794197  -0.758253
H  -4.016540   1.062467   1.009770
C  -1.395406   0.149043  -0.064987
H  -2.785755  -1.344633  -0.912159
H  -2.676042  -1.175401   0.866304
C  -0.162160  -0.670720   0.084601
H  -1.436039   0.843727   0.767495
H  -1.377809   0.829098  -1.015837
H  -0.206585  -1.370555   1.078758
H   0.802487  -0.085357   0.074632
H  -0.193038  -1.352544  -0.763665
