14
butane_opt
C  -3.920550   0.239590  -0.007129
C  -2.705504  -0.590981   0.060173
H  -4.850501  -0.371240  -0.028165
H  -3.907839   0.885200  -0.875017
H  -3.933264   0.881627   0.825549
C  -1.423691   0.200536   0.054139
H  -2.702124  -1.274977  -0.805489
H  -2.645464  -1.164412   0.894071
C  -0.168035  -0.721266   0.003396
H  -1.396261   0.929566   0.887614
H  -1.488036   0.835772  -0.815090
H  -0.084241  -1.403545   0.939588
H   0.771389  -0.082225  -0.144361
H  -0.165248  -1.251444  -0.763802
