butane_opt
 OpenBabel08242015383D

 14 13  0  0  0  0  0  0  0  0999 V2000
   -3.9405    0.2561    0.0340 C   0  0  0  0  0  0  0  0  0  0  0  0
   -2.7166   -0.6112    0.0101 C   0  0  0  0  0  0  0  0  0  0  0  0
   -4.8830   -0.3853    0.0166 H   0  0  0  0  0  0  0  0  0  0  0  0
   -3.9456    0.7678   -0.7869 H   0  0  0  0  0  0  0  0  0  0  0  0
   -3.9130    1.0327    1.0072 H   0  0  0  0  0  0  0  0  0  0  0  0
   -1.4127    0.2131   -0.0031 C   0  0  0  0  0  0  0  0  0  0  0  0
   -2.6973   -1.3817   -0.9255 H   0  0  0  0  0  0  0  0  0  0  0  0
   -2.7075   -1.1790    0.8242 H   0  0  0  0  0  0  0  0  0  0  0  0
   -0.1602   -0.7107    0.0611 C   0  0  0  0  0  0  0  0  0  0  0  0
   -1.3395    0.8441    0.8520 H   0  0  0  0  0  0  0  0  0  0  0  0
   -1.4067    0.9252   -0.9782 H   0  0  0  0  0  0  0  0  0  0  0  0
    0.0361   -1.4817    1.0750 H   0  0  0  0  0  0  0  0  0  0  0  0
    0.7514   -0.1556   -0.1464 H   0  0  0  0  0  0  0  0  0  0  0  0
   -0.1599   -1.2220   -0.6822 H   0  0  0  0  0  0  0  0  0  0  0  0
  1  5  1  0  0  0  0
  2  1  1  0  0  0  0
  2  8  1  0  0  0  0
  3  1  1  0  0  0  0
  4  1  1  0  0  0  0
  6  2  1  0  0  0  0
  6  9  1  0  0  0  0
  6 10  1  0  0  0  0
  7  2  1  0  0  0  0
  9 12  1  0  0  0  0
 11  6  1  0  0  0  0
 13  9  1  0  0  0  0
 14  9  1  0  0  0  0
M  END
$$$$
