14
butane_opt
C  -3.946334   0.282692   0.059192
C  -2.700722  -0.630637   0.032601
H  -4.864412  -0.330781  -0.016775
H  -3.924409   0.818462  -0.827366
H  -4.012703   1.029671   0.948628
C  -1.386616   0.164805  -0.057942
H  -2.686461  -1.317567  -0.869779
H  -2.613809  -1.175439   0.874287
C  -0.186923  -0.694205   0.070514
H  -1.376464   0.782080   0.766368
H  -1.330107   0.846188  -0.975282
H  -0.216108  -1.198965   0.887972
H   0.783829  -0.035022   0.211676
H  -0.132580  -1.366689  -0.801399
