butane_opt
 OpenBabel08242015383D

 14 13  0  0  0  0  0  0  0  0999 V2000
   -3.9527    0.2671    0.0584 C   0  0  0  0  0  0  0  0  0  0  0  0
   -2.7079   -0.6199   -0.0372 C   0  0  0  0  0  0  0  0  0  0  0  0
   -4.9289   -0.4072    0.2833 H   0  0  0  0  0  0  0  0  0  0  0  0
   -4.1340    0.9353   -0.8596 H   0  0  0  0  0  0  0  0  0  0  0  0
   -3.8642    0.8784    0.9537 H   0  0  0  0  0  0  0  0  0  0  0  0
   -1.3868    0.2114   -0.0289 C   0  0  0  0  0  0  0  0  0  0  0  0
   -2.7683   -1.3413   -0.9167 H   0  0  0  0  0  0  0  0  0  0  0  0
   -2.7508   -1.2208    0.8252 H   0  0  0  0  0  0  0  0  0  0  0  0
   -0.1468   -0.7097    0.0884 C   0  0  0  0  0  0  0  0  0  0  0  0
   -1.4310    0.9338    0.8064 H   0  0  0  0  0  0  0  0  0  0  0  0
   -1.2989    0.8288   -0.9198 H   0  0  0  0  0  0  0  0  0  0  0  0
   -0.0598   -1.3942    1.0337 H   0  0  0  0  0  0  0  0  0  0  0  0
    0.7115   -0.1724    0.0072 H   0  0  0  0  0  0  0  0  0  0  0  0
   -0.1491   -1.3058   -0.7337 H   0  0  0  0  0  0  0  0  0  0  0  0
  1  3  1  0  0  0  0
  1  5  1  0  0  0  0
  2  6  1  0  0  0  0
  2  1  1  0  0  0  0
  2  8  1  0  0  0  0
  4  1  1  0  0  0  0
  6  9  1  0  0  0  0
  6 10  1  0  0  0  0
  7  2  1  0  0  0  0
  9 12  1  0  0  0  0
 11  6  1  0  0  0  0
 13  9  1  0  0  0  0
 14  9  1  0  0  0  0
M  END
$$$$
