14
butane_opt
C  -3.909170   0.254793  -0.038214
C  -2.718400  -0.610750   0.124658
H  -4.817410  -0.375914  -0.173514
H  -3.726535   0.731483  -0.899420
H  -4.099500   1.004008   0.869897
C  -1.415796   0.208524   0.052556
H  -2.712488  -1.214190  -0.671692
H  -2.760480  -1.215558   1.006990
C  -0.159511  -0.715946  -0.022873
H  -1.412642   0.924950   0.864317
H  -1.488144   0.864750  -0.840668
H  -0.096222  -1.242523   0.858031
H   0.735205  -0.172738  -0.035613
H  -0.201904  -1.434781  -0.920052
