butane_opt
 OpenBabel08242015383D

 14 13  0  0  0  0  0  0  0  0999 V2000
   -3.9354    0.2787    0.0746 C   0  0  0  0  0  0  0  0  0  0  0  0
   -2.7062   -0.6207    0.0031 C   0  0  0  0  0  0  0  0  0  0  0  0
   -4.8390   -0.3105   -0.0541 H   0  0  0  0  0  0  0  0  0  0  0  0
   -3.9147    0.7942   -0.7583 H   0  0  0  0  0  0  0  0  0  0  0  0
   -4.0165    1.0625    1.0098 H   0  0  0  0  0  0  0  0  0  0  0  0
   -1.3954    0.1490   -0.0650 C   0  0  0  0  0  0  0  0  0  0  0  0
   -2.7858   -1.3446   -0.9122 H   0  0  0  0  0  0  0  0  0  0  0  0
   -2.6760   -1.1754    0.8663 H   0  0  0  0  0  0  0  0  0  0  0  0
   -0.1622   -0.6707    0.0846 C   0  0  0  0  0  0  0  0  0  0  0  0
   -1.4360    0.8437    0.7675 H   0  0  0  0  0  0  0  0  0  0  0  0
   -1.3778    0.8291   -1.0158 H   0  0  0  0  0  0  0  0  0  0  0  0
   -0.2066   -1.3706    1.0788 H   0  0  0  0  0  0  0  0  0  0  0  0
    0.8025   -0.0854    0.0746 H   0  0  0  0  0  0  0  0  0  0  0  0
   -0.1930   -1.3525   -0.7637 H   0  0  0  0  0  0  0  0  0  0  0  0
  1  5  1  0  0  0  0
  2  1  1  0  0  0  0
  2  8  1  0  0  0  0
  3  1  1  0  0  0  0
  4  1  1  0  0  0  0
  6  2  1  0  0  0  0
  6  9  1  0  0  0  0
  6 10  1  0  0  0  0
  7  2  1  0  0  0  0
  9 12  1  0  0  0  0
 11  6  1  0  0  0  0
 13  9  1  0  0  0  0
 14  9  1  0  0  0  0
M  END
$$$$
