14
butane_opt
C  -3.951820   0.266502  -0.039152
C  -2.730099  -0.607104   0.118769
H  -4.882768  -0.377138  -0.144591
H  -3.783429   0.808265  -0.928132
H  -4.088515   0.878559   0.821234
C  -1.408920   0.212024   0.050943
H  -2.675849  -1.278545  -0.708505
H  -2.767330  -1.298573   1.056059
C  -0.129611  -0.709983  -0.020988
H  -1.287409   0.955787   0.965943
H  -1.374668   0.826070  -0.776083
H   0.003454  -1.296825   0.830207
H   0.714761  -0.186719  -0.045692
H  -0.225696  -1.453831  -0.943683
