butane_opt
 OpenBabel08242015383D

 14 13  0  0  0  0  0  0  0  0999 V2000
   -3.9599    0.2806   -0.0162 C   0  0  0  0  0  0  0  0  0  0  0  0
   -2.7007   -0.6377    0.0854 C   0  0  0  0  0  0  0  0  0  0  0  0
   -4.8829   -0.3137    0.1029 H   0  0  0  0  0  0  0  0  0  0  0  0
   -3.9636    1.0631   -1.0347 H   0  0  0  0  0  0  0  0  0  0  0  0
   -4.0873    0.7991    0.7633 H   0  0  0  0  0  0  0  0  0  0  0  0
   -1.3889    0.1651    0.0453 C   0  0  0  0  0  0  0  0  0  0  0  0
   -2.6971   -1.2695   -0.6940 H   0  0  0  0  0  0  0  0  0  0  0  0
   -2.6929   -1.3356    0.9928 H   0  0  0  0  0  0  0  0  0  0  0  0
   -0.1638   -0.6717   -0.0058 C   0  0  0  0  0  0  0  0  0  0  0  0
   -1.3041    0.8842    0.9220 H   0  0  0  0  0  0  0  0  0  0  0  0
   -1.4327    0.8347   -0.8887 H   0  0  0  0  0  0  0  0  0  0  0  0
   -0.1103   -1.0856    0.7537 H   0  0  0  0  0  0  0  0  0  0  0  0
    0.7262   -0.0732    0.2351 H   0  0  0  0  0  0  0  0  0  0  0  0
   -0.0334   -1.6128   -1.0488 H   0  0  0  0  0  0  0  0  0  0  0  0
  1  2  1  0  0  0  0
  1  3  1  0  0  0  0
  1  5  1  0  0  0  0
  2  8  1  0  0  0  0
  4  1  1  0  0  0  0
  6  2  1  0  0  0  0
  6 10  1  0  0  0  0
  7  2  1  0  0  0  0
  9  6  1  0  0  0  0
  9 13  1  0  0  0  0
  9 12  1  0  0  0  0
 11  6  1  0  0  0  0
 14  9  1  0  0  0  0
M  END
$$$$
