butane_opt
 OpenBabel08242015383D

 14 13  0  0  0  0  0  0  0  0999 V2000
   -3.9149    0.2702   -0.0194 C   0  0  0  0  0  0  0  0  0  0  0  0
   -2.6956   -0.6342    0.0697 C   0  0  0  0  0  0  0  0  0  0  0  0
   -4.8127   -0.2565    0.0337 H   0  0  0  0  0  0  0  0  0  0  0  0
   -3.8841    0.9797   -1.0189 H   0  0  0  0  0  0  0  0  0  0  0  0
   -4.0624    0.9221    0.7796 H   0  0  0  0  0  0  0  0  0  0  0  0
   -1.4173    0.1622    0.0791 C   0  0  0  0  0  0  0  0  0  0  0  0
   -2.6865   -1.2492   -0.7533 H   0  0  0  0  0  0  0  0  0  0  0  0
   -2.7329   -1.2649    0.9520 H   0  0  0  0  0  0  0  0  0  0  0  0
   -0.1751   -0.6768   -0.0053 C   0  0  0  0  0  0  0  0  0  0  0  0
   -1.3301    0.8600    0.9574 H   0  0  0  0  0  0  0  0  0  0  0  0
   -1.3859    0.8348   -0.8111 H   0  0  0  0  0  0  0  0  0  0  0  0
   -0.0985   -1.3048    0.8811 H   0  0  0  0  0  0  0  0  0  0  0  0
    0.7415   -0.0662   -0.1483 H   0  0  0  0  0  0  0  0  0  0  0  0
   -0.3375   -1.3862   -0.9224 H   0  0  0  0  0  0  0  0  0  0  0  0
  1  3  1  0  0  0  0
  1  2  1  0  0  0  0
  1  5  1  0  0  0  0
  2  6  1  0  0  0  0
  2  8  1  0  0  0  0
  4  1  1  0  0  0  0
  6 10  1  0  0  0  0
  7  2  1  0  0  0  0
  9  6  1  0  0  0  0
  9 12  1  0  0  0  0
 11  6  1  0  0  0  0
 13  9  1  0  0  0  0
 14  9  1  0  0  0  0
M  END
$$$$
