butane_opt
 OpenBabel08242015383D

 14 13  0  0  0  0  0  0  0  0999 V2000
   -3.9421    0.2385   -0.0167 C   0  0  0  0  0  0  0  0  0  0  0  0
   -2.7067   -0.5977    0.0587 C   0  0  0  0  0  0  0  0  0  0  0  0
   -4.8220   -0.3754    0.0249 H   0  0  0  0  0  0  0  0  0  0  0  0
   -3.9528    0.9010   -0.9255 H   0  0  0  0  0  0  0  0  0  0  0  0
   -4.0083    0.9069    0.8244 H   0  0  0  0  0  0  0  0  0  0  0  0
   -1.4022    0.2167    0.0550 C   0  0  0  0  0  0  0  0  0  0  0  0
   -2.7119   -1.1981   -0.7175 H   0  0  0  0  0  0  0  0  0  0  0  0
   -2.8141   -1.3155    0.9903 H   0  0  0  0  0  0  0  0  0  0  0  0
   -0.1387   -0.7108    0.0070 C   0  0  0  0  0  0  0  0  0  0  0  0
   -1.4142    0.9760    0.9257 H   0  0  0  0  0  0  0  0  0  0  0  0
   -1.4727    0.7641   -0.7911 H   0  0  0  0  0  0  0  0  0  0  0  0
   -0.0490   -1.3235    0.8741 H   0  0  0  0  0  0  0  0  0  0  0  0
    0.6736   -0.2095   -0.1371 H   0  0  0  0  0  0  0  0  0  0  0  0
   -0.1585   -1.3652   -0.8758 H   0  0  0  0  0  0  0  0  0  0  0  0
  1  3  1  0  0  0  0
  1  2  1  0  0  0  0
  1  5  1  0  0  0  0
  2  8  1  0  0  0  0
  4  1  1  0  0  0  0
  6  2  1  0  0  0  0
  6 10  1  0  0  0  0
  7  2  1  0  0  0  0
  9  6  1  0  0  0  0
  9 12  1  0  0  0  0
 11  6  1  0  0  0  0
 13  9  1  0  0  0  0
 14  9  1  0  0  0  0
M  END
$$$$
