butane_opt
 OpenBabel08242015383D

 14 13  0  0  0  0  0  0  0  0999 V2000
   -3.9530    0.2472    0.0422 C   0  0  0  0  0  0  0  0  0  0  0  0
   -2.7083   -0.5913    0.0050 C   0  0  0  0  0  0  0  0  0  0  0  0
   -4.8479   -0.3648   -0.0246 H   0  0  0  0  0  0  0  0  0  0  0  0
   -4.0364    0.8183   -0.8011 H   0  0  0  0  0  0  0  0  0  0  0  0
   -3.9450    1.0099    0.9414 H   0  0  0  0  0  0  0  0  0  0  0  0
   -1.4005    0.1869   -0.0100 C   0  0  0  0  0  0  0  0  0  0  0  0
   -2.7404   -1.3581   -0.8625 H   0  0  0  0  0  0  0  0  0  0  0  0
   -2.6742   -1.1442    0.8270 H   0  0  0  0  0  0  0  0  0  0  0  0
   -0.1365   -0.7071    0.0488 C   0  0  0  0  0  0  0  0  0  0  0  0
   -1.4470    0.9130    0.8761 H   0  0  0  0  0  0  0  0  0  0  0  0
   -1.3905    0.7424   -0.8296 H   0  0  0  0  0  0  0  0  0  0  0  0
   -0.0948   -1.5050    1.1193 H   0  0  0  0  0  0  0  0  0  0  0  0
    0.7375   -0.1330   -0.2110 H   0  0  0  0  0  0  0  0  0  0  0  0
   -0.1894   -1.0790   -0.6084 H   0  0  0  0  0  0  0  0  0  0  0  0
  1  5  1  0  0  0  0
  2  1  1  0  0  0  0
  2  8  1  0  0  0  0
  3  1  1  0  0  0  0
  4  1  1  0  0  0  0
  6  2  1  0  0  0  0
  6  9  1  0  0  0  0
  6 10  1  0  0  0  0
  7  2  1  0  0  0  0
  9 12  1  0  0  0  0
 11  6  1  0  0  0  0
 13  9  1  0  0  0  0
 14  9  1  0  0  0  0
M  END
$$$$
