14
butane_opt
C  -3.933638   0.285239   0.072968
C  -2.677950  -0.634487  -0.016078
H  -4.756689  -0.258277   0.150457
H  -4.083238   0.894760  -0.814127
H  -3.928094   0.956339   0.943307
C  -1.390477   0.159501  -0.056060
H  -2.764810  -1.323832  -0.886949
H  -2.722272  -1.289900   0.904720
C  -0.199632  -0.676017   0.074970
H  -1.365865   0.815284   0.728978
H  -1.403544   0.771594  -0.954662
H  -0.324925  -1.255744   0.932715
H   0.748948  -0.011818   0.297827
H  -0.016312  -1.361070  -0.763325
