butane_opt
 OpenBabel08242015383D

 14 13  0  0  0  0  0  0  0  0999 V2000
   -3.9269    0.2709    0.0494 C   0  0  0  0  0  0  0  0  0  0  0  0
   -2.6850   -0.6268   -0.0146 C   0  0  0  0  0  0  0  0  0  0  0  0
   -4.8645   -0.3672    0.2234 H   0  0  0  0  0  0  0  0  0  0  0  0
   -4.1041    0.9131   -0.8550 H   0  0  0  0  0  0  0  0  0  0  0  0
   -3.8695    0.8523    0.8630 H   0  0  0  0  0  0  0  0  0  0  0  0
   -1.4046    0.1857   -0.0155 C   0  0  0  0  0  0  0  0  0  0  0  0
   -2.7145   -1.2999   -0.8426 H   0  0  0  0  0  0  0  0  0  0  0  0
   -2.6318   -1.1730    0.8429 H   0  0  0  0  0  0  0  0  0  0  0  0
   -0.1819   -0.6944    0.0543 C   0  0  0  0  0  0  0  0  0  0  0  0
   -1.4504    0.8975    0.8852 H   0  0  0  0  0  0  0  0  0  0  0  0
   -1.4055    0.8022   -0.9290 H   0  0  0  0  0  0  0  0  0  0  0  0
   -0.2840   -1.3226    1.0349 H   0  0  0  0  0  0  0  0  0  0  0  0
    0.7366   -0.1042    0.0587 H   0  0  0  0  0  0  0  0  0  0  0  0
   -0.0495   -1.3008   -0.7390 H   0  0  0  0  0  0  0  0  0  0  0  0
  1  3  1  0  0  0  0
  1  5  1  0  0  0  0
  2  1  1  0  0  0  0
  2  8  1  0  0  0  0
  4  1  1  0  0  0  0
  6  2  1  0  0  0  0
  6  9  1  0  0  0  0
  6 10  1  0  0  0  0
  7  2  1  0  0  0  0
  9 13  1  0  0  0  0
  9 12  1  0  0  0  0
 11  6  1  0  0  0  0
 14  9  1  0  0  0  0
M  END
$$$$
