butane_opt
 OpenBabel08242015383D

 14 13  0  0  0  0  0  0  0  0999 V2000
   -3.9607    0.2599   -0.0342 C   0  0  0  0  0  0  0  0  0  0  0  0
   -2.7056   -0.6036    0.1247 C   0  0  0  0  0  0  0  0  0  0  0  0
   -4.9002   -0.3259   -0.2454 H   0  0  0  0  0  0  0  0  0  0  0  0
   -3.7560    0.7759   -0.9087 H   0  0  0  0  0  0  0  0  0  0  0  0
   -4.1221    0.9255    0.7861 H   0  0  0  0  0  0  0  0  0  0  0  0
   -1.4171    0.2012    0.0646 C   0  0  0  0  0  0  0  0  0  0  0  0
   -2.7134   -1.2621   -0.7193 H   0  0  0  0  0  0  0  0  0  0  0  0
   -2.7982   -1.3144    1.0895 H   0  0  0  0  0  0  0  0  0  0  0  0
   -0.1328   -0.7080   -0.0303 C   0  0  0  0  0  0  0  0  0  0  0  0
   -1.3831    0.8683    0.9762 H   0  0  0  0  0  0  0  0  0  0  0  0
   -1.4463    0.8455   -0.8303 H   0  0  0  0  0  0  0  0  0  0  0  0
   -0.0158   -1.2396    0.8168 H   0  0  0  0  0  0  0  0  0  0  0  0
    0.8257   -0.1005   -0.0881 H   0  0  0  0  0  0  0  0  0  0  0  0
   -0.1348   -1.4365   -0.9418 H   0  0  0  0  0  0  0  0  0  0  0  0
  1  2  1  0  0  0  0
  1  5  1  0  0  0  0
  2  8  1  0  0  0  0
  3  1  1  0  0  0  0
  4  1  1  0  0  0  0
  6  2  1  0  0  0  0
  6 10  1  0  0  0  0
  7  2  1  0  0  0  0
  9  6  1  0  0  0  0
  9 12  1  0  0  0  0
 11  6  1  0  0  0  0
 13  9  1  0  0  0  0
 14  9  1  0  0  0  0
M  END
$$$$
