butane_opt
 OpenBabel08242015383D

 14 13  0  0  0  0  0  0  0  0999 V2000
   -3.9495    0.2553    0.0435 C   0  0  0  0  0  0  0  0  0  0  0  0
   -2.7039   -0.6048    0.0215 C   0  0  0  0  0  0  0  0  0  0  0  0
   -4.8735   -0.3581    0.0634 H   0  0  0  0  0  0  0  0  0  0  0  0
   -3.9810    0.8783   -0.8601 H   0  0  0  0  0  0  0  0  0  0  0  0
   -3.9723    0.9109    0.8986 H   0  0  0  0  0  0  0  0  0  0  0  0
   -1.4119    0.2021   -0.0256 C   0  0  0  0  0  0  0  0  0  0  0  0
   -2.7466   -1.2703   -0.8379 H   0  0  0  0  0  0  0  0  0  0  0  0
   -2.7059   -1.2821    0.9609 H   0  0  0  0  0  0  0  0  0  0  0  0
   -0.1401   -0.7086    0.0532 C   0  0  0  0  0  0  0  0  0  0  0  0
   -1.4266    0.8944    0.8195 H   0  0  0  0  0  0  0  0  0  0  0  0
   -1.3564    0.8115   -0.9229 H   0  0  0  0  0  0  0  0  0  0  0  0
   -0.2202   -1.2582    0.8909 H   0  0  0  0  0  0  0  0  0  0  0  0
    0.7747   -0.0820    0.1491 H   0  0  0  0  0  0  0  0  0  0  0  0
   -0.0403   -1.4483   -0.8440 H   0  0  0  0  0  0  0  0  0  0  0  0
  1  3  1  0  0  0  0
  1  5  1  0  0  0  0
  2  1  1  0  0  0  0
  2  8  1  0  0  0  0
  4  1  1  0  0  0  0
  6  2  1  0  0  0  0
  6  9  1  0  0  0  0
  6 10  1  0  0  0  0
  7  2  1  0  0  0  0
  9 13  1  0  0  0  0
  9 12  1  0  0  0  0
 11  6  1  0  0  0  0
 14  9  1  0  0  0  0
M  END
$$$$
