14
butane_opt
C  -3.960385   0.261100   0.047371
C  -2.714502  -0.630136   0.002945
H  -4.854381  -0.329480   0.110118
H  -3.933752   0.885959  -0.878603
H  -4.027090   0.921472   0.907556
C  -1.404620   0.208372   0.005543
H  -2.768966  -1.361625  -0.947677
H  -2.588200  -1.172698   0.810915
C  -0.151809  -0.692386   0.056709
H  -1.409017   0.856480   0.836522
H  -1.330618   0.872365  -0.935054
H  -0.017397  -1.495164   1.018446
H   0.756698  -0.110266  -0.085633
H  -0.082853  -1.295003  -0.732636
