butane_opt
 OpenBabel08242015383D

 14 13  0  0  0  0  0  0  0  0999 V2000
   -3.9254    0.2853    0.0733 C   0  0  0  0  0  0  0  0  0  0  0  0
   -2.6824   -0.6494   -0.0051 C   0  0  0  0  0  0  0  0  0  0  0  0
   -4.8020   -0.2904   -0.0799 H   0  0  0  0  0  0  0  0  0  0  0  0
   -3.9324    0.6900   -0.7319 H   0  0  0  0  0  0  0  0  0  0  0  0
   -4.0306    1.1905    1.0766 H   0  0  0  0  0  0  0  0  0  0  0  0
   -1.4142    0.1768   -0.0607 C   0  0  0  0  0  0  0  0  0  0  0  0
   -2.6840   -1.3268   -0.8576 H   0  0  0  0  0  0  0  0  0  0  0  0
   -2.7160   -1.3187    0.8923 H   0  0  0  0  0  0  0  0  0  0  0  0
   -0.1715   -0.6665    0.0870 C   0  0  0  0  0  0  0  0  0  0  0  0
   -1.5029    0.7125    0.7250 H   0  0  0  0  0  0  0  0  0  0  0  0
   -1.3796    0.8506   -0.9979 H   0  0  0  0  0  0  0  0  0  0  0  0
   -0.2497   -1.3404    1.0323 H   0  0  0  0  0  0  0  0  0  0  0  0
    0.7589   -0.0567    0.0624 H   0  0  0  0  0  0  0  0  0  0  0  0
   -0.1758   -1.3215   -0.7823 H   0  0  0  0  0  0  0  0  0  0  0  0
  1  5  1  0  0  0  0
  2  1  1  0  0  0  0
  2  8  1  0  0  0  0
  3  1  1  0  0  0  0
  4  1  1  0  0  0  0
  6  2  1  0  0  0  0
  6  9  1  0  0  0  0
  6 10  1  0  0  0  0
  7  2  1  0  0  0  0
  9 12  1  0  0  0  0
 11  6  1  0  0  0  0
 13  9  1  0  0  0  0
 14  9  1  0  0  0  0
M  END
$$$$
