14
butane_opt
C  -3.959113   0.280862  -0.008797
C  -2.704852  -0.626697   0.076912
H  -4.904987  -0.314022  -0.058367
H  -3.923629   0.858113  -0.890436
H  -4.066634   0.991046   0.883746
C  -1.385603   0.167835   0.022215
H  -2.733987  -1.267641  -0.760906
H  -2.702549  -1.345382   1.014568
C  -0.155773  -0.680957   0.008832
H  -1.356093   0.892525   0.891982
H  -1.404265   0.769149  -0.832623
H  -0.137902  -1.274759   0.871879
H   0.772476  -0.069848   0.025906
H  -0.108048  -1.403138  -0.898315
