14
butane_opt
C  -3.971703   0.282339   0.057331
C  -2.691959  -0.653596  -0.006920
H  -4.909388  -0.292916   0.241756
H  -4.122967   0.912038  -0.827821
H  -3.885022   0.941307   0.907341
C  -1.397061   0.181520  -0.032172
H  -2.690249  -1.401992  -0.944331
H  -2.697594  -1.155395   0.759313
C  -0.141937  -0.668341   0.073950
H  -1.428393   0.798958   0.747961
H  -1.312747   0.846833  -0.930920
H  -0.161223  -1.383913   1.037620
H   0.724913  -0.103371   0.103029
H  -0.112264  -1.340853  -0.746374
