14
butane_opt
C  -3.940290   0.244491   0.009564
C  -2.687679  -0.588020   0.027140
H  -4.851084  -0.360212   0.255133
H  -4.037830   1.041769  -1.016329
H  -3.889957   0.706813   0.740447
C  -1.413160   0.195750   0.046360
H  -2.696965  -1.266564  -0.852905
H  -2.816521  -1.186209   0.937330
C  -0.159877  -0.711494   0.011715
H  -1.455701   0.860521   0.913991
H  -1.445645   0.790781  -0.779743
H  -0.059855  -1.267657   0.901753
H   0.787418  -0.100734   0.041002
H  -0.142070  -1.372140  -0.853586
