14
butane_opt
C  -3.953978   0.265323   0.003834
C  -2.689072  -0.613933   0.073246
H  -4.851222  -0.295033  -0.111039
H  -3.875258   0.854049  -0.874118
H  -4.044351   0.975184   0.865749
C  -1.399037   0.173251   0.025778
H  -2.637079  -1.305482  -0.789253
H  -2.687621  -1.279082   0.965204
C  -0.173734  -0.685441   0.013338
H  -1.362565   0.817604   0.854929
H  -1.411185   0.800893  -0.864990
H  -0.139077  -1.251518   0.884082
H   0.748364  -0.083394  -0.033149
H  -0.175659  -1.371271  -0.850719
