14
butane_opt
C  -3.942629   0.292268   0.051771
C  -2.692170  -0.638675   0.013080
H  -4.832044  -0.300616   0.156892
H  -3.940985   0.912122  -0.845221
H  -3.959325   0.916184   0.884114
C  -1.389995   0.142874  -0.028954
H  -2.686071  -1.347660  -0.861174
H  -2.694853  -1.211655   0.869187
C  -0.185425  -0.675366   0.061574
H  -1.420638   0.817846   0.793024
H  -1.384993   0.915274  -0.972256
H  -0.279634  -1.212034   0.892203
H   0.756501  -0.021777   0.216652
H  -0.076104  -1.395062  -0.861030
