butane_opt
 OpenBabel08242015383D

 14 13  0  0  0  0  0  0  0  0999 V2000
   -3.9350    0.2355   -0.0309 C   0  0  0  0  0  0  0  0  0  0  0  0
   -2.7029   -0.5899    0.1004 C   0  0  0  0  0  0  0  0  0  0  0  0
   -4.8199   -0.3625   -0.1360 H   0  0  0  0  0  0  0  0  0  0  0  0
   -3.8176    0.8161   -0.9270 H   0  0  0  0  0  0  0  0  0  0  0  0
   -4.0255    0.9620    0.8505 H   0  0  0  0  0  0  0  0  0  0  0  0
   -1.4138    0.2099    0.0596 C   0  0  0  0  0  0  0  0  0  0  0  0
   -2.7117   -1.1885   -0.6651 H   0  0  0  0  0  0  0  0  0  0  0  0
   -2.6856   -1.3180    1.0331 H   0  0  0  0  0  0  0  0  0  0  0  0
   -0.1728   -0.7151   -0.0159 C   0  0  0  0  0  0  0  0  0  0  0  0
   -1.3696    0.8864    0.9288 H   0  0  0  0  0  0  0  0  0  0  0  0
   -1.4069    0.9259   -0.8770 H   0  0  0  0  0  0  0  0  0  0  0  0
   -0.0192   -1.2520    0.7957 H   0  0  0  0  0  0  0  0  0  0  0  0
    0.7056   -0.1804    0.0625 H   0  0  0  0  0  0  0  0  0  0  0  0
   -0.1718   -1.4577   -0.9868 H   0  0  0  0  0  0  0  0  0  0  0  0
  1  2  1  0  0  0  0
  1  5  1  0  0  0  0
  2  8  1  0  0  0  0
  3  1  1  0  0  0  0
  4  1  1  0  0  0  0
  6  2  1  0  0  0  0
  6 10  1  0  0  0  0
  7  2  1  0  0  0  0
  9  6  1  0  0  0  0
  9 13  1  0  0  0  0
  9 12  1  0  0  0  0
 11  6  1  0  0  0  0
 14  9  1  0  0  0  0
M  END
$$$$
