14
butane_opt
C  -3.972954   0.244417   0.074910
C  -2.701383  -0.591325  -0.001525
H  -4.934239  -0.370883  -0.068245
H  -3.952603   0.697841  -0.738057
H  -3.858392   1.012571   1.023160
C  -1.403908   0.214125  -0.069534
H  -2.747855  -1.290750  -0.858178
H  -2.740558  -1.157894   0.821209
C  -0.133622  -0.717872   0.090358
H  -1.430611   0.867947   0.792367
H  -1.349301   0.876731  -0.972814
H  -0.159781  -1.444090   1.031862
H   0.732925  -0.150309   0.037891
H  -0.036174  -1.319309  -0.744119
