14
butane_opt
C  -3.938506   0.250680  -0.010455
C  -2.706718  -0.580747   0.046986
H  -4.900545  -0.443165   0.166953
H  -3.981846   1.039967  -0.996828
H  -3.827946   0.673499   0.717057
C  -1.405231   0.204990   0.062449
H  -2.712066  -1.238595  -0.840096
H  -2.652004  -1.286714   0.990614
C  -0.157394  -0.717748  -0.004184
H  -1.410662   0.997047   0.992908
H  -1.417365   0.760240  -0.766647
H  -0.131074  -1.327004   0.882151
H   0.719288  -0.161898  -0.017408
H  -0.192593  -1.381631  -0.858944
