14
butane_opt
C  -3.945776   0.285171   0.082431
C  -2.675183  -0.649281  -0.019243
H  -4.870014  -0.310730   0.074007
H  -4.063347   0.853134  -0.775665
H  -3.888799   0.991083   0.984507
C  -1.413248   0.168620  -0.059893
H  -2.674506  -1.361197  -0.869986
H  -2.675805  -1.188044   0.822954
C  -0.170770  -0.665722   0.093101
H  -1.422985   0.750311   0.679976
H  -1.310972   0.877857  -0.997832
H  -0.286752  -1.308500   0.987115
H   0.692525  -0.069620   0.189224
H  -0.066057  -1.381089  -0.808674
