butane_opt
 OpenBabel08242015383D

 14 13  0  0  0  0  0  0  0  0999 V2000
   -3.9156    0.2440   -0.0257 C   0  0  0  0  0  0  0  0  0  0  0  0
   -2.7039   -0.5732    0.0706 C   0  0  0  0  0  0  0  0  0  0  0  0
   -4.8563   -0.3416    0.1965 H   0  0  0  0  0  0  0  0  0  0  0  0
   -4.0500    0.9948   -1.0178 H   0  0  0  0  0  0  0  0  0  0  0  0
   -3.9262    0.6924    0.6988 H   0  0  0  0  0  0  0  0  0  0  0  0
   -1.4197    0.1874    0.0589 C   0  0  0  0  0  0  0  0  0  0  0  0
   -2.6615   -1.2438   -0.7600 H   0  0  0  0  0  0  0  0  0  0  0  0
   -2.6928   -1.2506    0.9369 H   0  0  0  0  0  0  0  0  0  0  0  0
   -0.1617   -0.7066   -0.0086 C   0  0  0  0  0  0  0  0  0  0  0  0
   -1.3380    0.9556    0.9842 H   0  0  0  0  0  0  0  0  0  0  0  0
   -1.5449    0.6882   -0.7414 H   0  0  0  0  0  0  0  0  0  0  0  0
   -0.1256   -1.2915    0.8387 H   0  0  0  0  0  0  0  0  0  0  0  0
    0.7967   -0.1004    0.0429 H   0  0  0  0  0  0  0  0  0  0  0  0
   -0.2026   -1.3858   -0.8912 H   0  0  0  0  0  0  0  0  0  0  0  0
  1  2  1  0  0  0  0
  1  3  1  0  0  0  0
  1  5  1  0  0  0  0
  2  8  1  0  0  0  0
  4  1  1  0  0  0  0
  6  2  1  0  0  0  0
  6 10  1  0  0  0  0
  7  2  1  0  0  0  0
  9 13  1  0  0  0  0
  9  6  1  0  0  0  0
  9 12  1  0  0  0  0
 11  6  1  0  0  0  0
 14  9  1  0  0  0  0
M  END
$$$$
