14
butane_opt
C  -3.973474   0.281845   0.043438
C  -2.697020  -0.639608   0.000950
H  -4.868878  -0.337388  -0.013988
H  -3.941101   0.735608  -0.769012
H  -4.006560   1.071128   0.995975
C  -1.406830   0.175443  -0.009105
H  -2.703465  -1.311492  -0.867178
H  -2.643189  -1.171392   0.846755
C  -0.151614  -0.687482   0.049242
H  -1.353895   0.878683   0.850622
H  -1.345558   0.785537  -0.916869
H  -0.103263  -1.520487   1.096128
H   0.794438  -0.017684  -0.162560
H  -0.117047  -1.138607  -0.596693
