14
butane_opt
C  -3.951853   0.249492  -0.019510
C  -2.717274  -0.602462   0.074465
H  -4.916017  -0.389494  -0.017052
H  -3.925764   0.944859  -0.993072
H  -3.983114   0.851579   0.779067
C  -1.400030   0.222007   0.069741
H  -2.689077  -1.299587  -0.811083
H  -2.778587  -1.321880   0.988880
C  -0.132691  -0.708124  -0.018061
H  -1.308842   0.995058   0.982623
H  -1.518526   0.765741  -0.727072
H  -0.006441  -1.440131   0.972580
H   0.675779  -0.169043  -0.163907
H  -0.139260  -1.348988  -0.846542
