14
butane_opt
C  -3.959862   0.280642  -0.016150
C  -2.700748  -0.637675   0.085425
H  -4.882925  -0.313749   0.102859
H  -3.963584   1.063062  -1.034663
H  -4.087315   0.799078   0.763335
C  -1.388950   0.165097   0.045343
H  -2.697110  -1.269483  -0.693992
H  -2.692906  -1.335602   0.992820
C  -0.163776  -0.671721  -0.005845
H  -1.304092   0.884212   0.921952
H  -1.432689   0.834674  -0.888707
H  -0.110317  -1.085553   0.753735
H   0.726156  -0.073156   0.235060
H  -0.033393  -1.612812  -1.048794
