14
butane_opt
C  -3.970913   0.286780  -0.023799
C  -2.685727  -0.659309   0.054792
H  -4.817139  -0.278958   0.266938
H  -4.180621   1.116101  -1.037709
H  -3.935111   0.739542   0.663669
C  -1.398818   0.188892   0.067461
H  -2.660836  -1.299213  -0.742597
H  -2.698912  -1.304215   0.981539
C  -0.158659  -0.672014  -0.008565
H  -1.354675   0.928707   0.993209
H  -1.279960   0.686048  -0.761743
H  -0.116092  -1.247655   0.865080
H   0.789999  -0.057376   0.020079
H  -0.207648  -1.469560  -0.928738
