butane_opt
 OpenBabel08242015383D

 14 13  0  0  0  0  0  0  0  0999 V2000
   -3.9405    0.2503    0.0542 C   0  0  0  0  0  0  0  0  0  0  0  0
   -2.7126   -0.5986   -0.0161 C   0  0  0  0  0  0  0  0  0  0  0  0
   -4.8322   -0.3712    0.0781 H   0  0  0  0  0  0  0  0  0  0  0  0
   -4.0480    0.7935   -0.8082 H   0  0  0  0  0  0  0  0  0  0  0  0
   -4.0066    1.0176    0.9655 H   0  0  0  0  0  0  0  0  0  0  0  0
   -1.3968    0.2160   -0.0125 C   0  0  0  0  0  0  0  0  0  0  0  0
   -2.8318   -1.3676   -0.9386 H   0  0  0  0  0  0  0  0  0  0  0  0
   -2.7742   -1.1656    0.8106 H   0  0  0  0  0  0  0  0  0  0  0  0
   -0.1421   -0.7133    0.0848 C   0  0  0  0  0  0  0  0  0  0  0  0
   -1.4179    0.7750    0.7766 H   0  0  0  0  0  0  0  0  0  0  0  0
   -1.3496    0.8859   -0.9091 H   0  0  0  0  0  0  0  0  0  0  0  0
    0.0069   -1.4877    1.0751 H   0  0  0  0  0  0  0  0  0  0  0  0
    0.7576   -0.1460   -0.1844 H   0  0  0  0  0  0  0  0  0  0  0  0
   -0.2096   -1.2513   -0.7230 H   0  0  0  0  0  0  0  0  0  0  0  0
  1  3  1  0  0  0  0
  1  5  1  0  0  0  0
  2  6  1  0  0  0  0
  2  1  1  0  0  0  0
  2  8  1  0  0  0  0
  4  1  1  0  0  0  0
  6  9  1  0  0  0  0
  6 10  1  0  0  0  0
  7  2  1  0  0  0  0
  9 12  1  0  0  0  0
 11  6  1  0  0  0  0
 13  9  1  0  0  0  0
 14  9  1  0  0  0  0
M  END
$$$$
