butane_opt
 OpenBabel08242015383D

 14 13  0  0  0  0  0  0  0  0999 V2000
   -3.9639    0.2714   -0.0270 C   0  0  0  0  0  0  0  0  0  0  0  0
   -2.7148   -0.6362    0.0583 C   0  0  0  0  0  0  0  0  0  0  0  0
   -4.8470   -0.2638    0.0582 H   0  0  0  0  0  0  0  0  0  0  0  0
   -4.0176    0.8960   -0.9163 H   0  0  0  0  0  0  0  0  0  0  0  0
   -4.0263    1.0244    0.8718 H   0  0  0  0  0  0  0  0  0  0  0  0
   -1.3880    0.1808    0.0635 C   0  0  0  0  0  0  0  0  0  0  0  0
   -2.6095   -1.3139   -0.7954 H   0  0  0  0  0  0  0  0  0  0  0  0
   -2.7705   -1.3056    0.9909 H   0  0  0  0  0  0  0  0  0  0  0  0
   -0.1369   -0.6865    0.0010 C   0  0  0  0  0  0  0  0  0  0  0  0
   -1.3430    0.9484    0.9221 H   0  0  0  0  0  0  0  0  0  0  0  0
   -1.3838    0.7228   -0.7627 H   0  0  0  0  0  0  0  0  0  0  0  0
   -0.0632   -1.4090    0.9899 H   0  0  0  0  0  0  0  0  0  0  0  0
    0.8048   -0.0983   -0.2444 H   0  0  0  0  0  0  0  0  0  0  0  0
   -0.3140   -1.2204   -0.8001 H   0  0  0  0  0  0  0  0  0  0  0  0
  1  3  1  0  0  0  0
  1  2  1  0  0  0  0
  1  5  1  0  0  0  0
  2  6  1  0  0  0  0
  2  8  1  0  0  0  0
  4  1  1  0  0  0  0
  6 10  1  0  0  0  0
  7  2  1  0  0  0  0
  9  6  1  0  0  0  0
  9 12  1  0  0  0  0
 11  6  1  0  0  0  0
 13  9  1  0  0  0  0
 14  9  1  0  0  0  0
M  END
$$$$
