butane_opt
 OpenBabel08242015383D

 14 13  0  0  0  0  0  0  0  0999 V2000
   -3.9709    0.2868   -0.0238 C   0  0  0  0  0  0  0  0  0  0  0  0
   -2.6857   -0.6593    0.0548 C   0  0  0  0  0  0  0  0  0  0  0  0
   -4.8171   -0.2790    0.2669 H   0  0  0  0  0  0  0  0  0  0  0  0
   -4.1806    1.1161   -1.0377 H   0  0  0  0  0  0  0  0  0  0  0  0
   -3.9351    0.7395    0.6637 H   0  0  0  0  0  0  0  0  0  0  0  0
   -1.3988    0.1889    0.0675 C   0  0  0  0  0  0  0  0  0  0  0  0
   -2.6608   -1.2992   -0.7426 H   0  0  0  0  0  0  0  0  0  0  0  0
   -2.6989   -1.3042    0.9815 H   0  0  0  0  0  0  0  0  0  0  0  0
   -0.1587   -0.6720   -0.0086 C   0  0  0  0  0  0  0  0  0  0  0  0
   -1.3547    0.9287    0.9932 H   0  0  0  0  0  0  0  0  0  0  0  0
   -1.2800    0.6860   -0.7617 H   0  0  0  0  0  0  0  0  0  0  0  0
   -0.1161   -1.2477    0.8651 H   0  0  0  0  0  0  0  0  0  0  0  0
    0.7900   -0.0574    0.0201 H   0  0  0  0  0  0  0  0  0  0  0  0
   -0.2076   -1.4696   -0.9287 H   0  0  0  0  0  0  0  0  0  0  0  0
  1  2  1  0  0  0  0
  1  3  1  0  0  0  0
  1  5  1  0  0  0  0
  2  6  1  0  0  0  0
  2  8  1  0  0  0  0
  4  1  1  0  0  0  0
  6 10  1  0  0  0  0
  7  2  1  0  0  0  0
  9 13  1  0  0  0  0
  9  6  1  0  0  0  0
  9 12  1  0  0  0  0
 11  6  1  0  0  0  0
 14  9  1  0  0  0  0
M  END
$$$$
