14
butane_opt
C  -3.941981   0.277127   0.060199
C  -2.669925  -0.630684  -0.007795
H  -4.847566  -0.330232   0.074462
H  -3.925600   0.848715  -0.844736
H  -3.982783   1.026904   0.975770
C  -1.417124   0.165449  -0.022983
H  -2.755405  -1.473568  -0.961382
H  -2.647828  -1.169130   0.829948
C  -0.178226  -0.663647   0.075427
H  -1.466073   0.817667   0.780070
H  -1.290543   0.831577  -0.909697
H  -0.101167  -1.464699   1.102077
H   0.684241  -0.096541  -0.154039
H  -0.209083  -1.233526  -0.694062
