14
butane_opt
C  -3.950438   0.252969  -0.024779
C  -2.718276  -0.610700   0.109655
H  -4.902696  -0.383213  -0.191269
H  -3.887265   0.826688  -0.931950
H  -4.130843   0.990991   0.828122
C  -1.413114   0.198356   0.066551
H  -2.611748  -1.288590  -0.754312
H  -2.776773  -1.217365   1.018548
C  -0.136917  -0.694992  -0.025668
H  -1.280390   0.901612   0.921030
H  -1.424833   0.866095  -0.875956
H   0.034291  -1.382283   0.905565
H   0.750337  -0.158002  -0.063464
H  -0.157417  -1.394441  -0.903262
