14
butane_opt
C  -3.940485   0.250272   0.054206
C  -2.712642  -0.598570  -0.016144
H  -4.832159  -0.371244   0.078062
H  -4.047959   0.793457  -0.808226
H  -4.006598   1.017618   0.965527
C  -1.396823   0.215979  -0.012478
H  -2.831795  -1.367558  -0.938557
H  -2.774167  -1.165582   0.810567
C  -0.142100  -0.713342   0.084825
H  -1.417944   0.774969   0.776629
H  -1.349578   0.885884  -0.909095
H   0.006897  -1.487670   1.075126
H   0.757603  -0.146024  -0.184409
H  -0.209566  -1.251327  -0.722987
