butane_opt
 OpenBabel08242015383D

 14 13  0  0  0  0  0  0  0  0999 V2000
   -3.9385    0.2507   -0.0105 C   0  0  0  0  0  0  0  0  0  0  0  0
   -2.7067   -0.5807    0.0470 C   0  0  0  0  0  0  0  0  0  0  0  0
   -4.9005   -0.4432    0.1670 H   0  0  0  0  0  0  0  0  0  0  0  0
   -3.9818    1.0400   -0.9968 H   0  0  0  0  0  0  0  0  0  0  0  0
   -3.8279    0.6735    0.7171 H   0  0  0  0  0  0  0  0  0  0  0  0
   -1.4052    0.2050    0.0624 C   0  0  0  0  0  0  0  0  0  0  0  0
   -2.7121   -1.2386   -0.8401 H   0  0  0  0  0  0  0  0  0  0  0  0
   -2.6520   -1.2867    0.9906 H   0  0  0  0  0  0  0  0  0  0  0  0
   -0.1574   -0.7177   -0.0042 C   0  0  0  0  0  0  0  0  0  0  0  0
   -1.4107    0.9970    0.9929 H   0  0  0  0  0  0  0  0  0  0  0  0
   -1.4174    0.7602   -0.7666 H   0  0  0  0  0  0  0  0  0  0  0  0
   -0.1311   -1.3270    0.8822 H   0  0  0  0  0  0  0  0  0  0  0  0
    0.7193   -0.1619   -0.0174 H   0  0  0  0  0  0  0  0  0  0  0  0
   -0.1926   -1.3816   -0.8589 H   0  0  0  0  0  0  0  0  0  0  0  0
  1  2  1  0  0  0  0
  1  3  1  0  0  0  0
  1  5  1  0  0  0  0
  2  6  1  0  0  0  0
  2  8  1  0  0  0  0
  4  1  1  0  0  0  0
  6 10  1  0  0  0  0
  7  2  1  0  0  0  0
  9  6  1  0  0  0  0
  9 12  1  0  0  0  0
 11  6  1  0  0  0  0
 13  9  1  0  0  0  0
 14  9  1  0  0  0  0
M  END
$$$$
