butane_opt
 OpenBabel08242015383D

 14 13  0  0  0  0  0  0  0  0999 V2000
   -3.9398    0.2613    0.0409 C   0  0  0  0  0  0  0  0  0  0  0  0
   -2.7300   -0.6164   -0.0013 C   0  0  0  0  0  0  0  0  0  0  0  0
   -4.8150   -0.3530    0.1459 H   0  0  0  0  0  0  0  0  0  0  0  0
   -4.0745    0.9488   -0.8788 H   0  0  0  0  0  0  0  0  0  0  0  0
   -3.8599    0.8064    0.8116 H   0  0  0  0  0  0  0  0  0  0  0  0
   -1.4136    0.2225   -0.0045 C   0  0  0  0  0  0  0  0  0  0  0  0
   -2.7418   -1.3129   -0.8484 H   0  0  0  0  0  0  0  0  0  0  0  0
   -2.7808   -1.2616    0.8838 H   0  0  0  0  0  0  0  0  0  0  0  0
   -0.1318   -0.7172    0.0574 C   0  0  0  0  0  0  0  0  0  0  0  0
   -1.3900    0.9815    0.9115 H   0  0  0  0  0  0  0  0  0  0  0  0
   -1.3248    0.7741   -0.8175 H   0  0  0  0  0  0  0  0  0  0  0  0
   -0.0801   -1.3991    0.9592 H   0  0  0  0  0  0  0  0  0  0  0  0
    0.7461   -0.1555   -0.0649 H   0  0  0  0  0  0  0  0  0  0  0  0
   -0.1176   -1.2985   -0.7828 H   0  0  0  0  0  0  0  0  0  0  0  0
  1  3  1  0  0  0  0
  1  5  1  0  0  0  0
  2  1  1  0  0  0  0
  2  8  1  0  0  0  0
  4  1  1  0  0  0  0
  6  2  1  0  0  0  0
  6  9  1  0  0  0  0
  6 10  1  0  0  0  0
  7  2  1  0  0  0  0
  9 12  1  0  0  0  0
 11  6  1  0  0  0  0
 13  9  1  0  0  0  0
 14  9  1  0  0  0  0
M  END
$$$$
