14
butane_opt
C  -3.934239   0.234989   0.045025
C  -2.722266  -0.599654  -0.002934
H  -4.842248  -0.331582   0.040753
H  -3.980124   0.801480  -0.855029
H  -3.893853   1.064636   1.010803
C  -1.415797   0.206215   0.005626
H  -2.714108  -1.366864  -0.919097
H  -2.779851  -1.088361   0.786679
C  -0.136694  -0.709677   0.064708
H  -1.486392   0.808672   0.798430
H  -1.394563   0.900900  -0.908767
H   0.001313  -1.544427   1.091258
H   0.720032  -0.136100  -0.250353
H  -0.143338  -1.161486  -0.670757
