butane_opt
 OpenBabel08242015383D

 14 13  0  0  0  0  0  0  0  0999 V2000
   -3.9431    0.2676    0.0753 C   0  0  0  0  0  0  0  0  0  0  0  0
   -2.6940   -0.5988    0.0106 C   0  0  0  0  0  0  0  0  0  0  0  0
   -4.9254   -0.4184    0.0387 H   0  0  0  0  0  0  0  0  0  0  0  0
   -3.9009    0.7850   -0.7449 H   0  0  0  0  0  0  0  0  0  0  0  0
   -3.9658    0.9218    0.9372 H   0  0  0  0  0  0  0  0  0  0  0  0
   -1.4117    0.1868   -0.0673 C   0  0  0  0  0  0  0  0  0  0  0  0
   -2.7710   -1.3546   -0.9177 H   0  0  0  0  0  0  0  0  0  0  0  0
   -2.6143   -1.2041    0.8635 H   0  0  0  0  0  0  0  0  0  0  0  0
   -0.1623   -0.6932    0.0808 C   0  0  0  0  0  0  0  0  0  0  0  0
   -1.5278    0.8030    0.7440 H   0  0  0  0  0  0  0  0  0  0  0  0
   -1.3313    0.8873   -1.0600 H   0  0  0  0  0  0  0  0  0  0  0  0
   -0.2270   -1.2692    0.9570 H   0  0  0  0  0  0  0  0  0  0  0  0
    0.7747   -0.1385    0.2708 H   0  0  0  0  0  0  0  0  0  0  0  0
   -0.0056   -1.4400   -0.8436 H   0  0  0  0  0  0  0  0  0  0  0  0
  1  5  1  0  0  0  0
  2  1  1  0  0  0  0
  2  8  1  0  0  0  0
  3  1  1  0  0  0  0
  4  1  1  0  0  0  0
  6  2  1  0  0  0  0
  6  9  1  0  0  0  0
  6 10  1  0  0  0  0
  7  2  1  0  0  0  0
  9 13  1  0  0  0  0
  9 12  1  0  0  0  0
 11  6  1  0  0  0  0
 14  9  1  0  0  0  0
M  END
$$$$
