14
butane_opt
C  -3.935188   0.248252   0.044777
C  -2.723662  -0.612442  -0.018300
H  -4.872281  -0.350501   0.330823
H  -4.072572   0.963243  -0.839111
H  -3.779464   0.812681   0.858350
C  -1.412750   0.215262  -0.016911
H  -2.858330  -1.293148  -0.925091
H  -2.702014  -1.106569   0.796459
C  -0.127917  -0.715333   0.077671
H  -1.425578   0.880326   0.819139
H  -1.369634   0.891982  -0.945467
H  -0.146138  -1.332563   0.986084
H   0.703350  -0.201079   0.076502
H  -0.095281  -1.386123  -0.775774
