14
butane_opt
C  -3.965772   0.285691   0.042232
C  -2.689386  -0.647483  -0.012528
H  -4.894593  -0.298377   0.030709
H  -4.133501   0.819503  -0.790407
H  -3.975285   1.103216   1.037535
C  -1.394478   0.166711  -0.004006
H  -2.737402  -1.380183  -0.924238
H  -2.732260  -1.241432   0.841216
C  -0.138896  -0.683195   0.060716
H  -1.412770   0.861627   0.819238
H  -1.332962   0.810307  -0.896696
H  -0.072131  -1.518460   1.128755
H   0.804012  -0.003633  -0.181736
H  -0.270411  -1.077118  -0.622881
