14
butane_opt
C  -3.938900   0.262148  -0.026257
C  -2.677352  -0.602385   0.095622
H  -4.900898  -0.374829  -0.031911
H  -3.927101   0.899966  -0.882537
H  -4.041007   0.889592   0.795273
C  -1.413992   0.165796   0.031660
H  -2.647068  -1.156335  -0.682333
H  -2.755666  -1.320332   1.042565
C  -0.169460  -0.692118   0.006374
H  -1.385398   0.894317   0.887136
H  -1.380117   0.770875  -0.802847
H  -0.140154  -1.071954   0.727534
H   0.727408  -0.113437   0.042572
H  -0.161057  -1.512570  -0.971407
