14
butane_opt
C  -3.940694   0.279021   0.050644
C  -2.694885  -0.618358  -0.026905
H  -4.795156  -0.268974   0.305857
H  -4.147939   0.991068  -0.892967
H  -3.820458   0.854421   0.860275
C  -1.391748   0.139146  -0.020692
H  -2.681331  -1.293149  -0.868732
H  -2.695341  -1.242102   0.843065
C  -0.183811  -0.686622   0.066847
H  -1.363834   0.882236   0.882668
H  -1.384274   0.809521  -0.877379
H  -0.216559  -1.283503   0.961426
H   0.797805   0.033239   0.117104
H  -0.191944  -1.299143  -0.729791
