14
butane_opt
C  -3.952947   0.271987  -0.009763
C  -2.695407  -0.630764   0.070947
H  -4.827195  -0.306799   0.012237
H  -3.962217   0.937986  -0.952706
H  -4.048636   0.900370   0.819895
C  -1.402821   0.185117   0.051878
H  -2.706066  -1.354035  -0.805869
H  -2.734960  -1.238998   0.926317
C  -0.150187  -0.691854  -0.001320
H  -1.360449   0.918235   0.930802
H  -1.386128   0.781084  -0.831133
H  -0.090505  -1.349951   0.909892
H   0.761731  -0.091890  -0.086233
H  -0.248952  -1.273094  -0.817729
