butane_opt
 OpenBabel08242015383D

 14 13  0  0  0  0  0  0  0  0999 V2000
   -3.9607    0.2886   -0.0553 C   0  0  0  0  0  0  0  0  0  0  0  0
   -2.6741   -0.6310    0.1062 C   0  0  0  0  0  0  0  0  0  0  0  0
   -4.8496   -0.3075   -0.0370 H   0  0  0  0  0  0  0  0  0  0  0  0
   -3.8702    0.8494   -0.9207 H   0  0  0  0  0  0  0  0  0  0  0  0
   -3.9650    1.0119    0.7982 H   0  0  0  0  0  0  0  0  0  0  0  0
   -1.4035    0.1516    0.0851 C   0  0  0  0  0  0  0  0  0  0  0  0
   -2.6235   -1.2854   -0.7072 H   0  0  0  0  0  0  0  0  0  0  0  0
   -2.7848   -1.3679    1.0610 H   0  0  0  0  0  0  0  0  0  0  0  0
   -0.1750   -0.6727   -0.0365 C   0  0  0  0  0  0  0  0  0  0  0  0
   -1.3449    0.9220    0.9670 H   0  0  0  0  0  0  0  0  0  0  0  0
   -1.4217    0.6800   -0.7638 H   0  0  0  0  0  0  0  0  0  0  0  0
   -0.1167   -1.2890    0.8875 H   0  0  0  0  0  0  0  0  0  0  0  0
    0.7280   -0.0469   -0.1589 H   0  0  0  0  0  0  0  0  0  0  0  0
   -0.2353   -1.2633   -0.8690 H   0  0  0  0  0  0  0  0  0  0  0  0
  1  3  1  0  0  0  0
  1  2  1  0  0  0  0
  1  5  1  0  0  0  0
  2  8  1  0  0  0  0
  4  1  1  0  0  0  0
  6  2  1  0  0  0  0
  6 10  1  0  0  0  0
  7  2  1  0  0  0  0
  9  6  1  0  0  0  0
  9 12  1  0  0  0  0
 11  6  1  0  0  0  0
 13  9  1  0  0  0  0
 14  9  1  0  0  0  0
M  END
$$$$
