14
butane_opt
C  -3.965744   0.281712   0.081050
C  -2.708841  -0.648371  -0.007616
H  -4.808622  -0.255797   0.057012
H  -4.048962   0.865390  -0.773447
H  -3.854813   1.005432   0.952552
C  -1.395309   0.188828  -0.068942
H  -2.815879  -1.337779  -0.898907
H  -2.602668  -1.273839   0.834047
C  -0.158992  -0.686273   0.098435
H  -1.423685   0.744530   0.652546
H  -1.216297   0.877753  -0.999277
H  -0.219101  -1.185041   0.929674
H   0.730249  -0.089411   0.252564
H  -0.030370  -1.450372  -0.821757
