butane_opt
 OpenBabel08242015383D

 14 13  0  0  0  0  0  0  0  0999 V2000
   -3.9320    0.2483    0.0625 C   0  0  0  0  0  0  0  0  0  0  0  0
   -2.6846   -0.5987   -0.0251 C   0  0  0  0  0  0  0  0  0  0  0  0
   -4.8198   -0.3843   -0.0073 H   0  0  0  0  0  0  0  0  0  0  0  0
   -3.9076    0.7789   -0.7653 H   0  0  0  0  0  0  0  0  0  0  0  0
   -3.8969    1.0372    1.0190 H   0  0  0  0  0  0  0  0  0  0  0  0
   -1.4064    0.2087   -0.0219 C   0  0  0  0  0  0  0  0  0  0  0  0
   -2.8139   -1.3152   -0.9690 H   0  0  0  0  0  0  0  0  0  0  0  0
   -2.7029   -1.1380    0.8197 H   0  0  0  0  0  0  0  0  0  0  0  0
   -0.1854   -0.7044    0.0946 C   0  0  0  0  0  0  0  0  0  0  0  0
   -1.4216    0.7753    0.7618 H   0  0  0  0  0  0  0  0  0  0  0  0
   -1.3730    0.8394   -0.8934 H   0  0  0  0  0  0  0  0  0  0  0  0
   -0.0280   -1.5202    1.1216 H   0  0  0  0  0  0  0  0  0  0  0  0
    0.6938   -0.1572   -0.2858 H   0  0  0  0  0  0  0  0  0  0  0  0
   -0.2459   -1.2312   -0.6589 H   0  0  0  0  0  0  0  0  0  0  0  0
  1  5  1  0  0  0  0
  2  6  1  0  0  0  0
  2  1  1  0  0  0  0
  2  8  1  0  0  0  0
  3  1  1  0  0  0  0
  4  1  1  0  0  0  0
  6  9  1  0  0  0  0
  6 10  1  0  0  0  0
  7  2  1  0  0  0  0
  9 12  1  0  0  0  0
 11  6  1  0  0  0  0
 13  9  1  0  0  0  0
 14  9  1  0  0  0  0
M  END
$$$$
