butane_opt
 OpenBabel08242015383D

 14 13  0  0  0  0  0  0  0  0999 V2000
   -3.9432    0.2414   -0.0022 C   0  0  0  0  0  0  0  0  0  0  0  0
   -2.7040   -0.5803    0.0762 C   0  0  0  0  0  0  0  0  0  0  0  0
   -4.8923   -0.3503   -0.0576 H   0  0  0  0  0  0  0  0  0  0  0  0
   -3.8532    0.8775   -0.9081 H   0  0  0  0  0  0  0  0  0  0  0  0
   -3.8972    0.8716    0.8122 H   0  0  0  0  0  0  0  0  0  0  0  0
   -1.4233    0.1991    0.0157 C   0  0  0  0  0  0  0  0  0  0  0  0
   -2.7473   -1.2025   -0.6927 H   0  0  0  0  0  0  0  0  0  0  0  0
   -2.6949   -1.3011    1.0441 H   0  0  0  0  0  0  0  0  0  0  0  0
   -0.1559   -0.7093   -0.0028 C   0  0  0  0  0  0  0  0  0  0  0  0
   -1.3538    0.8896    0.8858 H   0  0  0  0  0  0  0  0  0  0  0  0
   -1.3913    0.7752   -0.8139 H   0  0  0  0  0  0  0  0  0  0  0  0
   -0.1642   -1.1742    0.8420 H   0  0  0  0  0  0  0  0  0  0  0  0
    0.7089   -0.1910    0.1836 H   0  0  0  0  0  0  0  0  0  0  0  0
   -0.0190   -1.4908   -0.9276 H   0  0  0  0  0  0  0  0  0  0  0  0
  1  2  1  0  0  0  0
  1  5  1  0  0  0  0
  2  8  1  0  0  0  0
  3  1  1  0  0  0  0
  4  1  1  0  0  0  0
  6  2  1  0  0  0  0
  6 10  1  0  0  0  0
  7  2  1  0  0  0  0
  9  6  1  0  0  0  0
  9 13  1  0  0  0  0
  9 12  1  0  0  0  0
 11  6  1  0  0  0  0
 14  9  1  0  0  0  0
M  END
$$$$
