14
butane_opt
C  -3.924396   0.251255  -0.035670
C  -2.721674  -0.590448   0.088120
H  -4.869711  -0.381686  -0.072950
H  -3.837302   0.855346  -0.968806
H  -3.960175   0.886739   0.774999
C  -1.421245   0.192452   0.090808
H  -2.638733  -1.208525  -0.733517
H  -2.765977  -1.265095   1.036552
C  -0.157731  -0.718777  -0.040783
H  -1.390401   1.045694   1.033669
H  -1.435544   0.755960  -0.780158
H   0.006343  -1.448151   0.890462
H   0.794182  -0.080993  -0.180001
H  -0.226218  -1.245311  -0.776105
