14
butane_opt
C  -3.942783   0.248576   0.047780
C  -2.695905  -0.591996   0.006016
H  -4.851421  -0.390970   0.003239
H  -3.885549   0.744420  -0.751841
H  -3.936849   1.045001   1.028454
C  -1.409650   0.197929  -0.026928
H  -2.787602  -1.414787  -0.939059
H  -2.630530  -1.118799   0.810201
C  -0.167887  -0.696629   0.069294
H  -1.430525   0.777304   0.745338
H  -1.446810   0.869223  -0.897510
H  -0.083798  -1.515380   1.097939
H   0.694578  -0.149639  -0.101182
H  -0.072414  -1.209138  -0.678765
