14
butane_opt
C  -3.933498   0.275714   0.063815
C  -2.690315  -0.620721  -0.020045
H  -4.842213  -0.321441   0.212172
H  -4.103063   1.000898  -0.869884
H  -3.935821   0.880672   0.914789
C  -1.406592   0.149459  -0.030427
H  -2.745620  -1.303376  -0.893043
H  -2.637035  -1.177208   0.854867
C  -0.179701  -0.683814   0.067797
H  -1.419770   0.877077   0.841261
H  -1.269514   0.780244  -0.963659
H  -0.333392  -1.295941   1.013659
H   0.862755  -0.012201   0.101623
H  -0.076857  -1.342415  -0.766500
