butane_opt
 OpenBabel08242015383D

 14 13  0  0  0  0  0  0  0  0999 V2000
   -3.9464    0.2544    0.0492 C   0  0  0  0  0  0  0  0  0  0  0  0
   -2.6998   -0.6101   -0.0078 C   0  0  0  0  0  0  0  0  0  0  0  0
   -4.8424   -0.3387    0.1505 H   0  0  0  0  0  0  0  0  0  0  0  0
   -4.0493    0.9141   -0.8776 H   0  0  0  0  0  0  0  0  0  0  0  0
   -3.9308    0.8632    0.8762 H   0  0  0  0  0  0  0  0  0  0  0  0
   -1.4118    0.2039   -0.0123 C   0  0  0  0  0  0  0  0  0  0  0  0
   -2.8033   -1.3120   -0.8745 H   0  0  0  0  0  0  0  0  0  0  0  0
   -2.6928   -1.2402    0.8858 H   0  0  0  0  0  0  0  0  0  0  0  0
   -0.1442   -0.7002    0.0574 C   0  0  0  0  0  0  0  0  0  0  0  0
   -1.4342    0.9124    0.8599 H   0  0  0  0  0  0  0  0  0  0  0  0
   -1.3498    0.8273   -0.8718 H   0  0  0  0  0  0  0  0  0  0  0  0
   -0.1627   -1.3817    1.0249 H   0  0  0  0  0  0  0  0  0  0  0  0
    0.7503   -0.1437    0.0095 H   0  0  0  0  0  0  0  0  0  0  0  0
   -0.0750   -1.3496   -0.7934 H   0  0  0  0  0  0  0  0  0  0  0  0
  1  3  1  0  0  0  0
  1  5  1  0  0  0  0
  2  1  1  0  0  0  0
  2  8  1  0  0  0  0
  4  1  1  0  0  0  0
  6  2  1  0  0  0  0
  6  9  1  0  0  0  0
  6 10  1  0  0  0  0
  7  2  1  0  0  0  0
  9 12  1  0  0  0  0
 11  6  1  0  0  0  0
 13  9  1  0  0  0  0
 14  9  1  0  0  0  0
M  END
$$$$
