butane_opt
 OpenBabel08242015383D

 14 13  0  0  0  0  0  0  0  0999 V2000
   -3.9176    0.2489   -0.0446 C   0  0  0  0  0  0  0  0  0  0  0  0
   -2.7174   -0.5944    0.0777 C   0  0  0  0  0  0  0  0  0  0  0  0
   -4.8232   -0.3260    0.0929 H   0  0  0  0  0  0  0  0  0  0  0  0
   -3.8927    0.8901   -0.9672 H   0  0  0  0  0  0  0  0  0  0  0  0
   -3.9233    0.8153    0.8026 H   0  0  0  0  0  0  0  0  0  0  0  0
   -1.4188    0.2059    0.0820 C   0  0  0  0  0  0  0  0  0  0  0  0
   -2.6396   -1.1753   -0.7089 H   0  0  0  0  0  0  0  0  0  0  0  0
   -2.9183   -1.2601    1.0625 H   0  0  0  0  0  0  0  0  0  0  0  0
   -0.1552   -0.7114   -0.0245 C   0  0  0  0  0  0  0  0  0  0  0  0
   -1.3607    0.9417    0.9595 H   0  0  0  0  0  0  0  0  0  0  0  0
   -1.4720    0.7250   -0.7511 H   0  0  0  0  0  0  0  0  0  0  0  0
   -0.0136   -1.3422    0.8723 H   0  0  0  0  0  0  0  0  0  0  0  0
    0.6988   -0.1320   -0.0857 H   0  0  0  0  0  0  0  0  0  0  0  0
   -0.1750   -1.3978   -0.9157 H   0  0  0  0  0  0  0  0  0  0  0  0
  1  2  1  0  0  0  0
  1  3  1  0  0  0  0
  1  5  1  0  0  0  0
  2  6  1  0  0  0  0
  2  8  1  0  0  0  0
  4  1  1  0  0  0  0
  6 10  1  0  0  0  0
  7  2  1  0  0  0  0
  9  6  1  0  0  0  0
  9 12  1  0  0  0  0
 11  6  1  0  0  0  0
 13  9  1  0  0  0  0
 14  9  1  0  0  0  0
M  END
$$$$
