14
butane_opt
C  -3.940366   0.240503  -0.028628
C  -2.712833  -0.598766   0.085650
H  -4.770649  -0.311620   0.026375
H  -3.960947   0.904484  -0.959916
H  -4.013139   0.823866   0.746627
C  -1.413272   0.215439   0.051199
H  -2.725904  -1.122073  -0.630687
H  -2.724545  -1.364925   1.063696
C  -0.152888  -0.716336  -0.011930
H  -1.394724   0.913046   0.921714
H  -1.431888   0.809497  -0.792824
H  -0.044310  -1.146164   0.708717
H   0.768409  -0.108371   0.174884
H  -0.095103  -1.556930  -1.000514
