14
butane_opt
C  -3.938641   0.256502   0.037085
C  -2.707520  -0.598911   0.038857
H  -4.871576  -0.385802   0.049520
H  -3.919746   0.872624  -0.851532
H  -3.914880   0.938694   0.909724
C  -1.411268   0.188191  -0.024847
H  -2.698621  -1.299543  -0.818176
H  -2.721886  -1.176213   0.872787
C  -0.163972  -0.702163   0.048996
H  -1.374677   0.833529   0.794468
H  -1.378273   0.850911  -0.957390
H  -0.175053  -1.263708   0.913256
H   0.755236  -0.123311   0.185489
H  -0.067612  -1.448246  -0.855128
