14
butane_opt
C  -3.911037   0.241694  -0.031068
C  -2.705945  -0.587402   0.112456
H  -4.831130  -0.386904  -0.239006
H  -3.818704   0.770279  -0.897677
H  -4.090786   1.000986   0.837035
C  -1.438379   0.205051   0.062604
H  -2.660836  -1.173518  -0.670618
H  -2.813189  -1.334100   1.094191
C  -0.159596  -0.711779  -0.021073
H  -1.379144   0.920989   0.932622
H  -1.395676   0.809267  -0.870664
H  -0.058505  -1.276911   0.861636
H   0.747133  -0.107779  -0.096671
H  -0.139525  -1.477583  -0.989447
