14
butane_opt
C  -3.965219   0.274627   0.048970
C  -2.692705  -0.624243  -0.029104
H  -4.850939  -0.338199   0.039931
H  -4.093602   0.781066  -0.753791
H  -3.961579   0.975956   0.955723
C  -1.402718   0.188755   0.002687
H  -2.799564  -1.276859  -0.900836
H  -2.664741  -1.294541   0.864581
C  -0.135824  -0.695118   0.071232
H  -1.450045   0.887066   0.871117
H  -1.315301   0.813747  -0.923851
H  -0.108920  -1.515553   1.066464
H   0.795777  -0.059716  -0.230471
H  -0.214531  -1.162638  -0.662026
