14
butane_opt
C  -3.943935   0.245872   0.045991
C  -2.726308  -0.611898   0.025998
H  -4.870816  -0.326082  -0.107158
H  -3.831851   0.736728  -0.750599
H  -4.018456   1.146393   1.069609
C  -1.405162   0.217870  -0.030730
H  -2.794445  -1.378411  -0.855152
H  -2.673507  -1.193040   0.898183
C  -0.146782  -0.713439   0.055226
H  -1.338291   0.770549   0.724749
H  -1.403770   0.972985  -1.002874
H  -0.153278  -1.386169   1.010576
H   0.726761  -0.166102   0.098299
H   0.004614  -1.320319  -0.773508
