14
butane_opt
C  -3.973085   0.246818  -0.024207
C  -2.700809  -0.600042   0.093821
H  -4.914701  -0.345571  -0.075743
H  -3.860693   0.843283  -0.934849
H  -4.026707   0.865293   0.839845
C  -1.407801   0.220862   0.058739
H  -2.664364  -1.331457  -0.809920
H  -2.788495  -1.134217   0.956886
C  -0.139064  -0.712639  -0.006996
H  -1.312298   0.893524   0.926983
H  -1.423670   0.802252  -0.790444
H  -0.009936  -1.426694   0.926794
H   0.783170  -0.141955  -0.211999
H  -0.151443  -1.357533  -0.837881
