butane_opt
 OpenBabel08242015383D

 14 13  0  0  0  0  0  0  0  0999 V2000
   -3.9731    0.2468   -0.0242 C   0  0  0  0  0  0  0  0  0  0  0  0
   -2.7008   -0.6000    0.0938 C   0  0  0  0  0  0  0  0  0  0  0  0
   -4.9147   -0.3456   -0.0757 H   0  0  0  0  0  0  0  0  0  0  0  0
   -3.8607    0.8433   -0.9348 H   0  0  0  0  0  0  0  0  0  0  0  0
   -4.0267    0.8653    0.8398 H   0  0  0  0  0  0  0  0  0  0  0  0
   -1.4078    0.2209    0.0587 C   0  0  0  0  0  0  0  0  0  0  0  0
   -2.6644   -1.3315   -0.8099 H   0  0  0  0  0  0  0  0  0  0  0  0
   -2.7885   -1.1342    0.9569 H   0  0  0  0  0  0  0  0  0  0  0  0
   -0.1391   -0.7126   -0.0070 C   0  0  0  0  0  0  0  0  0  0  0  0
   -1.3123    0.8935    0.9270 H   0  0  0  0  0  0  0  0  0  0  0  0
   -1.4237    0.8023   -0.7904 H   0  0  0  0  0  0  0  0  0  0  0  0
   -0.0099   -1.4267    0.9268 H   0  0  0  0  0  0  0  0  0  0  0  0
    0.7832   -0.1420   -0.2120 H   0  0  0  0  0  0  0  0  0  0  0  0
   -0.1514   -1.3575   -0.8379 H   0  0  0  0  0  0  0  0  0  0  0  0
  1  2  1  0  0  0  0
  1  5  1  0  0  0  0
  2  8  1  0  0  0  0
  3  1  1  0  0  0  0
  4  1  1  0  0  0  0
  6  2  1  0  0  0  0
  6 10  1  0  0  0  0
  7  2  1  0  0  0  0
  9  6  1  0  0  0  0
  9 12  1  0  0  0  0
 11  6  1  0  0  0  0
 13  9  1  0  0  0  0
 14  9  1  0  0  0  0
M  END
$$$$
