14
butane_opt
C  -3.946985   0.274074   0.007362
C  -2.708480  -0.627074   0.039318
H  -4.830943  -0.284890   0.113640
H  -4.072238   0.939879  -0.915447
H  -3.981589   0.851456   0.805295
C  -1.391679   0.181463   0.025961
H  -2.692799  -1.268090  -0.790553
H  -2.715676  -1.285317   0.936528
C  -0.161218  -0.686617   0.023067
H  -1.351305   0.878810   0.878786
H  -1.368263   0.781980  -0.833043
H  -0.098265  -1.272084   0.899223
H   0.769823  -0.097732   0.043445
H  -0.181641  -1.413361  -0.854691
