14
butane_opt
C  -3.961029   0.291116   0.020648
C  -2.709956  -0.627995   0.068889
H  -4.852268  -0.291883   0.061838
H  -3.980206   0.963960  -0.936758
H  -3.992522   0.865031   0.790576
C  -1.388968   0.146442  -0.000613
H  -2.690189  -1.350699  -0.849821
H  -2.644001  -1.229751   0.960994
C  -0.175993  -0.668617   0.028795
H  -1.365482   0.828529   0.830056
H  -1.278661   0.783719  -0.944897
H  -0.213343  -1.138670   0.848525
H   0.833991  -0.037052   0.178181
H  -0.031129  -1.545998  -0.944335
