butane_opt
 OpenBabel08242015383D

 14 13  0  0  0  0  0  0  0  0999 V2000
   -3.9424    0.2372   -0.0412 C   0  0  0  0  0  0  0  0  0  0  0  0
   -2.7207   -0.5998    0.0803 C   0  0  0  0  0  0  0  0  0  0  0  0
   -4.8667   -0.3439   -0.1010 H   0  0  0  0  0  0  0  0  0  0  0  0
   -3.9416    0.9068   -0.9713 H   0  0  0  0  0  0  0  0  0  0  0  0
   -4.0231    0.9470    0.8285 H   0  0  0  0  0  0  0  0  0  0  0  0
   -1.4161    0.2210    0.0938 C   0  0  0  0  0  0  0  0  0  0  0  0
   -2.7133   -1.2430   -0.7135 H   0  0  0  0  0  0  0  0  0  0  0  0
   -2.7389   -1.3640    1.0711 H   0  0  0  0  0  0  0  0  0  0  0  0
   -0.1242   -0.7071   -0.0309 C   0  0  0  0  0  0  0  0  0  0  0  0
   -1.4069    0.9535    0.9845 H   0  0  0  0  0  0  0  0  0  0  0  0
   -1.4215    0.7744   -0.7298 H   0  0  0  0  0  0  0  0  0  0  0  0
    0.0576   -1.4236    0.9541 H   0  0  0  0  0  0  0  0  0  0  0  0
    0.7330   -0.1745   -0.2183 H   0  0  0  0  0  0  0  0  0  0  0  0
   -0.2468   -1.3242   -0.8935 H   0  0  0  0  0  0  0  0  0  0  0  0
  1  2  1  0  0  0  0
  1  5  1  0  0  0  0
  2  6  1  0  0  0  0
  2  8  1  0  0  0  0
  3  1  1  0  0  0  0
  4  1  1  0  0  0  0
  6 10  1  0  0  0  0
  7  2  1  0  0  0  0
  9  6  1  0  0  0  0
  9 12  1  0  0  0  0
 11  6  1  0  0  0  0
 13  9  1  0  0  0  0
 14  9  1  0  0  0  0
M  END
$$$$
