butane_opt
 OpenBabel08242015383D

 14 13  0  0  0  0  0  0  0  0999 V2000
   -3.9785    0.2831   -0.0167 C   0  0  0  0  0  0  0  0  0  0  0  0
   -2.6904   -0.6402    0.0821 C   0  0  0  0  0  0  0  0  0  0  0  0
   -4.8345   -0.1988    0.0808 H   0  0  0  0  0  0  0  0  0  0  0  0
   -3.9722    0.9491   -0.9623 H   0  0  0  0  0  0  0  0  0  0  0  0
   -4.0245    0.8764    0.8069 H   0  0  0  0  0  0  0  0  0  0  0  0
   -1.3953    0.1573    0.0447 C   0  0  0  0  0  0  0  0  0  0  0  0
   -2.6398   -1.2879   -0.7377 H   0  0  0  0  0  0  0  0  0  0  0  0
   -2.8132   -1.3195    1.0160 H   0  0  0  0  0  0  0  0  0  0  0  0
   -0.1402   -0.6684   -0.0064 C   0  0  0  0  0  0  0  0  0  0  0  0
   -1.3595    0.7918    0.8223 H   0  0  0  0  0  0  0  0  0  0  0  0
   -1.4321    0.7680   -0.8353 H   0  0  0  0  0  0  0  0  0  0  0  0
   -0.1920   -1.0806    0.7819 H   0  0  0  0  0  0  0  0  0  0  0  0
    0.7879   -0.0649    0.1603 H   0  0  0  0  0  0  0  0  0  0  0  0
   -0.1082   -1.4726   -0.9471 H   0  0  0  0  0  0  0  0  0  0  0  0
  1  3  1  0  0  0  0
  1  2  1  0  0  0  0
  1  5  1  0  0  0  0
  2  8  1  0  0  0  0
  4  1  1  0  0  0  0
  6  2  1  0  0  0  0
  6 10  1  0  0  0  0
  7  2  1  0  0  0  0
  9  6  1  0  0  0  0
  9 13  1  0  0  0  0
  9 12  1  0  0  0  0
 11  6  1  0  0  0  0
 14  9  1  0  0  0  0
M  END
$$$$
