butane_opt
 OpenBabel08242015383D

 14 13  0  0  0  0  0  0  0  0999 V2000
   -3.9684    0.2524    0.0466 C   0  0  0  0  0  0  0  0  0  0  0  0
   -2.7000   -0.6043    0.0258 C   0  0  0  0  0  0  0  0  0  0  0  0
   -4.9384   -0.3976   -0.1960 H   0  0  0  0  0  0  0  0  0  0  0  0
   -3.8848    0.6245   -0.7170 H   0  0  0  0  0  0  0  0  0  0  0  0
   -4.0314    1.1196    1.0273 H   0  0  0  0  0  0  0  0  0  0  0  0
   -1.4045    0.2048   -0.0378 C   0  0  0  0  0  0  0  0  0  0  0  0
   -2.7886   -1.2507   -0.7967 H   0  0  0  0  0  0  0  0  0  0  0  0
   -2.6725   -1.2322    0.9375 H   0  0  0  0  0  0  0  0  0  0  0  0
   -0.1387   -0.7199    0.0449 C   0  0  0  0  0  0  0  0  0  0  0  0
   -1.3680    0.9069    0.8053 H   0  0  0  0  0  0  0  0  0  0  0  0
   -1.4284    0.9145   -0.9349 H   0  0  0  0  0  0  0  0  0  0  0  0
   -0.1109   -1.4093    1.0487 H   0  0  0  0  0  0  0  0  0  0  0  0
    0.7618   -0.1228    0.0573 H   0  0  0  0  0  0  0  0  0  0  0  0
   -0.0133   -1.2459   -0.7147 H   0  0  0  0  0  0  0  0  0  0  0  0
  1  5  1  0  0  0  0
  2  1  1  0  0  0  0
  2  8  1  0  0  0  0
  3  1  1  0  0  0  0
  4  1  1  0  0  0  0
  6  2  1  0  0  0  0
  6  9  1  0  0  0  0
  6 10  1  0  0  0  0
  7  2  1  0  0  0  0
  9 13  1  0  0  0  0
  9 12  1  0  0  0  0
 11  6  1  0  0  0  0
 14  9  1  0  0  0  0
M  END
$$$$
