butane_opt
 OpenBabel08242015383D

 14 13  0  0  0  0  0  0  0  0999 V2000
   -3.9432    0.2345    0.0309 C   0  0  0  0  0  0  0  0  0  0  0  0
   -2.7041   -0.5978    0.0046 C   0  0  0  0  0  0  0  0  0  0  0  0
   -4.8271   -0.3289    0.2104 H   0  0  0  0  0  0  0  0  0  0  0  0
   -4.0825    1.0210   -0.9401 H   0  0  0  0  0  0  0  0  0  0  0  0
   -3.8429    0.7770    0.8385 H   0  0  0  0  0  0  0  0  0  0  0  0
   -1.4220    0.2185    0.0109 C   0  0  0  0  0  0  0  0  0  0  0  0
   -2.7867   -1.3400   -0.8693 H   0  0  0  0  0  0  0  0  0  0  0  0
   -2.7301   -1.1630    0.8414 H   0  0  0  0  0  0  0  0  0  0  0  0
   -0.1283   -0.7185    0.0573 C   0  0  0  0  0  0  0  0  0  0  0  0
   -1.4218    0.8510    0.8638 H   0  0  0  0  0  0  0  0  0  0  0  0
   -1.4010    0.8677   -0.8714 H   0  0  0  0  0  0  0  0  0  0  0  0
   -0.0594   -1.2808    0.8995 H   0  0  0  0  0  0  0  0  0  0  0  0
    0.6912   -0.1726    0.0003 H   0  0  0  0  0  0  0  0  0  0  0  0
   -0.1738   -1.3445   -0.7978 H   0  0  0  0  0  0  0  0  0  0  0  0
  1  3  1  0  0  0  0
  1  5  1  0  0  0  0
  2  6  1  0  0  0  0
  2  1  1  0  0  0  0
  2  8  1  0  0  0  0
  4  1  1  0  0  0  0
  6  9  1  0  0  0  0
  6 10  1  0  0  0  0
  7  2  1  0  0  0  0
  9 12  1  0  0  0  0
 11  6  1  0  0  0  0
 13  9  1  0  0  0  0
 14  9  1  0  0  0  0
M  END
$$$$
