butane_opt
 OpenBabel08242015383D

 14 13  0  0  0  0  0  0  0  0999 V2000
   -3.9334    0.2694   -0.0099 C   0  0  0  0  0  0  0  0  0  0  0  0
   -2.7071   -0.6215    0.0922 C   0  0  0  0  0  0  0  0  0  0  0  0
   -4.8350   -0.3271   -0.1073 H   0  0  0  0  0  0  0  0  0  0  0  0
   -3.8445    0.8783   -0.9165 H   0  0  0  0  0  0  0  0  0  0  0  0
   -4.0525    0.9575    0.8353 H   0  0  0  0  0  0  0  0  0  0  0  0
   -1.4054    0.1783    0.0290 C   0  0  0  0  0  0  0  0  0  0  0  0
   -2.6745   -1.2758   -0.7237 H   0  0  0  0  0  0  0  0  0  0  0  0
   -2.7113   -1.2292    0.9833 H   0  0  0  0  0  0  0  0  0  0  0  0
   -0.1617   -0.6945    0.0052 C   0  0  0  0  0  0  0  0  0  0  0  0
   -1.3726    0.8766    0.9088 H   0  0  0  0  0  0  0  0  0  0  0  0
   -1.4262    0.7864   -0.8552 H   0  0  0  0  0  0  0  0  0  0  0  0
   -0.1695   -1.2421    0.8515 H   0  0  0  0  0  0  0  0  0  0  0  0
    0.7594   -0.0606   -0.0190 H   0  0  0  0  0  0  0  0  0  0  0  0
   -0.2064   -1.4209   -0.9230 H   0  0  0  0  0  0  0  0  0  0  0  0
  1  2  1  0  0  0  0
  1  5  1  0  0  0  0
  2  8  1  0  0  0  0
  3  1  1  0  0  0  0
  4  1  1  0  0  0  0
  6  2  1  0  0  0  0
  6 10  1  0  0  0  0
  7  2  1  0  0  0  0
  9  6  1  0  0  0  0
  9 12  1  0  0  0  0
 11  6  1  0  0  0  0
 13  9  1  0  0  0  0
 14  9  1  0  0  0  0
M  END
$$$$
