14
butane_opt
C  -3.954660   0.291136  -0.040098
C  -2.703086  -0.634363   0.137997
H  -4.888434  -0.299160  -0.165917
H  -3.888984   0.855617  -0.919348
H  -4.172994   0.996795   0.767949
C  -1.395185   0.156722   0.056546
H  -2.630180  -1.339184  -0.729931
H  -2.777397  -1.266915   1.045995
C  -0.162113  -0.669112  -0.030422
H  -1.205565   0.849079   0.944203
H  -1.379522   0.762693  -0.870583
H  -0.078838  -1.260992   0.831374
H   0.781502  -0.040106   0.024037
H  -0.212277  -1.463115  -0.963191
