14
butane_opt
C  -3.942370   0.237194  -0.041152
C  -2.720729  -0.599831   0.080264
H  -4.866713  -0.343895  -0.101029
H  -3.941567   0.906827  -0.971348
H  -4.023073   0.947012   0.828512
C  -1.416111   0.221030   0.093784
H  -2.713316  -1.243039  -0.713464
H  -2.738880  -1.363971   1.071101
C  -0.124240  -0.707066  -0.030916
H  -1.406914   0.953505   0.984530
H  -1.421492   0.774351  -0.729846
H   0.057624  -1.423608   0.954141
H   0.733046  -0.174546  -0.218314
H  -0.246772  -1.324241  -0.893533
