14
butane_opt
C  -3.923510   0.260346  -0.028485
C  -2.698934  -0.611041   0.116143
H  -4.866051  -0.390363  -0.275281
H  -3.833310   0.784836  -0.922434
H  -4.044289   1.077385   0.946378
C  -1.399459   0.195445   0.031085
H  -2.715583  -1.275625  -0.660277
H  -2.726210  -1.307131   1.046528
C  -0.170719  -0.698228  -0.018177
H  -1.308657   0.914373   0.933661
H  -1.531887   0.819370  -0.828497
H  -0.164395  -1.292995   0.886779
H   0.683148  -0.154376  -0.002949
H  -0.190291  -1.414632  -0.886304
