butane_opt
 OpenBabel08242015383D

 14 13  0  0  0  0  0  0  0  0999 V2000
   -3.9289    0.2490   -0.0010 C   0  0  0  0  0  0  0  0  0  0  0  0
   -2.7237   -0.6091    0.0904 C   0  0  0  0  0  0  0  0  0  0  0  0
   -4.8489   -0.3836   -0.1626 H   0  0  0  0  0  0  0  0  0  0  0  0
   -3.9180    0.7695   -0.8717 H   0  0  0  0  0  0  0  0  0  0  0  0
   -4.0163    0.9799    0.9023 H   0  0  0  0  0  0  0  0  0  0  0  0
   -1.4183    0.2308    0.0108 C   0  0  0  0  0  0  0  0  0  0  0  0
   -2.6759   -1.2245   -0.7319 H   0  0  0  0  0  0  0  0  0  0  0  0
   -2.8398   -1.1939    0.9716 H   0  0  0  0  0  0  0  0  0  0  0  0
   -0.1371   -0.7271    0.0090 C   0  0  0  0  0  0  0  0  0  0  0  0
   -1.3262    0.8854    0.8591 H   0  0  0  0  0  0  0  0  0  0  0  0
   -1.4136    0.8520   -0.8687 H   0  0  0  0  0  0  0  0  0  0  0  0
   -0.1171   -1.3189    0.8599 H   0  0  0  0  0  0  0  0  0  0  0  0
    0.7579   -0.1200    0.0508 H   0  0  0  0  0  0  0  0  0  0  0  0
   -0.1124   -1.4569   -0.8701 H   0  0  0  0  0  0  0  0  0  0  0  0
  1  2  1  0  0  0  0
  1  5  1  0  0  0  0
  2  8  1  0  0  0  0
  3  1  1  0  0  0  0
  4  1  1  0  0  0  0
  6  2  1  0  0  0  0
  6 10  1  0  0  0  0
  7  2  1  0  0  0  0
  9  6  1  0  0  0  0
  9 13  1  0  0  0  0
  9 12  1  0  0  0  0
 11  6  1  0  0  0  0
 14  9  1  0  0  0  0
M  END
$$$$
