14
butane_opt
C  -3.913706   0.262797   0.043000
C  -2.716513  -0.615989  -0.016199
H  -4.866539  -0.344137   0.279960
H  -4.109850   1.021060  -0.935107
H  -3.773241   0.814508   0.873891
C  -1.415790   0.191155  -0.015900
H  -2.691667  -1.291576  -0.859906
H  -2.712235  -1.255828   0.880005
C  -0.156331  -0.700906   0.064570
H  -1.472239   0.925171   0.941562
H  -1.361884   0.805188  -0.903861
H  -0.158703  -1.316257   0.996976
H   0.752668  -0.073639   0.076773
H  -0.200858  -1.400604  -0.834478
