butane_opt
 OpenBabel08242015383D

 14 13  0  0  0  0  0  0  0  0999 V2000
   -3.9782    0.2866   -0.0008 C   0  0  0  0  0  0  0  0  0  0  0  0
   -2.6856   -0.6569    0.0799 C   0  0  0  0  0  0  0  0  0  0  0  0
   -4.8243   -0.2925    0.0952 H   0  0  0  0  0  0  0  0  0  0  0  0
   -4.0167    1.0178   -0.9627 H   0  0  0  0  0  0  0  0  0  0  0  0
   -4.0335    0.8323    0.7505 H   0  0  0  0  0  0  0  0  0  0  0  0
   -1.3861    0.1785    0.0126 C   0  0  0  0  0  0  0  0  0  0  0  0
   -2.7252   -1.3232   -0.7615 H   0  0  0  0  0  0  0  0  0  0  0  0
   -2.5863   -1.2866    0.9494 H   0  0  0  0  0  0  0  0  0  0  0  0
   -0.1716   -0.6810    0.0224 C   0  0  0  0  0  0  0  0  0  0  0  0
   -1.3483    0.8871    0.9211 H   0  0  0  0  0  0  0  0  0  0  0  0
   -1.3552    0.8262   -0.9020 H   0  0  0  0  0  0  0  0  0  0  0  0
   -0.2177   -1.0707    0.7410 H   0  0  0  0  0  0  0  0  0  0  0  0
    0.7707   -0.0555    0.1788 H   0  0  0  0  0  0  0  0  0  0  0  0
   -0.0413   -1.5274   -0.9836 H   0  0  0  0  0  0  0  0  0  0  0  0
  1  2  1  0  0  0  0
  1  3  1  0  0  0  0
  1  5  1  0  0  0  0
  2  8  1  0  0  0  0
  4  1  1  0  0  0  0
  6  9  1  0  0  0  0
  6  2  1  0  0  0  0
  6 10  1  0  0  0  0
  7  2  1  0  0  0  0
  9 13  1  0  0  0  0
  9 12  1  0  0  0  0
 11  6  1  0  0  0  0
 14  9  1  0  0  0  0
M  END
$$$$
