14
butane_opt
C  -3.929542   0.250238   0.024444
C  -2.692744  -0.581081   0.045181
H  -4.903970  -0.417459   0.088067
H  -3.900549   0.862600  -0.875162
H  -3.960757   0.813218   0.803889
C  -1.412462   0.197628  -0.016489
H  -2.751803  -1.219391  -0.789432
H  -2.654126  -1.292763   0.993962
C  -0.165273  -0.715453   0.038826
H  -1.433433   0.959788   0.882319
H  -1.501000   0.775237  -0.916988
H  -0.221601  -1.182937   0.862816
H   0.746398  -0.101315   0.214833
H  -0.036302  -1.500430  -0.943590
