butane_opt
 OpenBabel08242015383D

 14 13  0  0  0  0  0  0  0  0999 V2000
   -3.9110    0.2417   -0.0311 C   0  0  0  0  0  0  0  0  0  0  0  0
   -2.7059   -0.5874    0.1125 C   0  0  0  0  0  0  0  0  0  0  0  0
   -4.8311   -0.3869   -0.2390 H   0  0  0  0  0  0  0  0  0  0  0  0
   -3.8187    0.7703   -0.8977 H   0  0  0  0  0  0  0  0  0  0  0  0
   -4.0908    1.0010    0.8370 H   0  0  0  0  0  0  0  0  0  0  0  0
   -1.4384    0.2051    0.0626 C   0  0  0  0  0  0  0  0  0  0  0  0
   -2.6608   -1.1735   -0.6706 H   0  0  0  0  0  0  0  0  0  0  0  0
   -2.8132   -1.3341    1.0942 H   0  0  0  0  0  0  0  0  0  0  0  0
   -0.1596   -0.7118   -0.0211 C   0  0  0  0  0  0  0  0  0  0  0  0
   -1.3791    0.9210    0.9326 H   0  0  0  0  0  0  0  0  0  0  0  0
   -1.3957    0.8093   -0.8707 H   0  0  0  0  0  0  0  0  0  0  0  0
   -0.0585   -1.2769    0.8616 H   0  0  0  0  0  0  0  0  0  0  0  0
    0.7471   -0.1078   -0.0967 H   0  0  0  0  0  0  0  0  0  0  0  0
   -0.1395   -1.4776   -0.9894 H   0  0  0  0  0  0  0  0  0  0  0  0
  1  2  1  0  0  0  0
  1  5  1  0  0  0  0
  2  8  1  0  0  0  0
  3  1  1  0  0  0  0
  4  1  1  0  0  0  0
  6  2  1  0  0  0  0
  6 10  1  0  0  0  0
  7  2  1  0  0  0  0
  9  6  1  0  0  0  0
  9 12  1  0  0  0  0
 11  6  1  0  0  0  0
 13  9  1  0  0  0  0
 14  9  1  0  0  0  0
M  END
$$$$
