butane_opt
 OpenBabel08242015383D

 14 13  0  0  0  0  0  0  0  0999 V2000
   -3.9708    0.2439   -0.0387 C   0  0  0  0  0  0  0  0  0  0  0  0
   -2.7010   -0.5883    0.0810 C   0  0  0  0  0  0  0  0  0  0  0  0
   -4.8963   -0.3367   -0.0212 H   0  0  0  0  0  0  0  0  0  0  0  0
   -3.9286    0.9287   -0.9858 H   0  0  0  0  0  0  0  0  0  0  0  0
   -3.9982    0.8362    0.7584 H   0  0  0  0  0  0  0  0  0  0  0  0
   -1.4019    0.2021    0.1013 C   0  0  0  0  0  0  0  0  0  0  0  0
   -2.6716   -1.2593   -0.7979 H   0  0  0  0  0  0  0  0  0  0  0  0
   -2.7675   -1.2873    1.0022 H   0  0  0  0  0  0  0  0  0  0  0  0
   -0.1424   -0.7073   -0.0256 C   0  0  0  0  0  0  0  0  0  0  0  0
   -1.2718    0.9393    1.0272 H   0  0  0  0  0  0  0  0  0  0  0  0
   -1.4744    0.7301   -0.7446 H   0  0  0  0  0  0  0  0  0  0  0  0
    0.0289   -1.4109    0.9093 H   0  0  0  0  0  0  0  0  0  0  0  0
    0.7353   -0.1695   -0.2868 H   0  0  0  0  0  0  0  0  0  0  0  0
   -0.1783   -1.2417   -0.8328 H   0  0  0  0  0  0  0  0  0  0  0  0
  1  3  1  0  0  0  0
  1  2  1  0  0  0  0
  1  5  1  0  0  0  0
  2  6  1  0  0  0  0
  2  8  1  0  0  0  0
  4  1  1  0  0  0  0
  6 10  1  0  0  0  0
  7  2  1  0  0  0  0
  9  6  1  0  0  0  0
  9 12  1  0  0  0  0
 11  6  1  0  0  0  0
 13  9  1  0  0  0  0
 14  9  1  0  0  0  0
M  END
$$$$
