14
butane_opt
C  -3.944989   0.282202  -0.005616
C  -2.687986  -0.607656   0.062729
H  -4.842354  -0.353567   0.068737
H  -3.958027   0.917654  -0.885109
H  -4.014917   0.916647   0.845458
C  -1.402631   0.147766   0.011392
H  -2.674481  -1.312329  -0.748633
H  -2.677019  -1.318123   1.036508
C  -0.178669  -0.679006   0.031884
H  -1.291196   0.791908   0.829885
H  -1.353849   0.823225  -0.884733
H  -0.175530  -1.075926   0.760083
H   0.746334  -0.064162   0.146279
H  -0.204796  -1.515207  -0.950113
