butane_opt
 OpenBabel08242015383D

 14 13  0  0  0  0  0  0  0  0999 V2000
   -3.9423    0.2631   -0.0103 C   0  0  0  0  0  0  0  0  0  0  0  0
   -2.7072   -0.6052    0.0722 C   0  0  0  0  0  0  0  0  0  0  0  0
   -4.8584   -0.3325   -0.0576 H   0  0  0  0  0  0  0  0  0  0  0  0
   -3.9154    0.7889   -0.8801 H   0  0  0  0  0  0  0  0  0  0  0  0
   -3.9786    0.9572    0.8546 H   0  0  0  0  0  0  0  0  0  0  0  0
   -1.4089    0.1905    0.0384 C   0  0  0  0  0  0  0  0  0  0  0  0
   -2.7442   -1.2886   -0.7690 H   0  0  0  0  0  0  0  0  0  0  0  0
   -2.7762   -1.2632    0.9873 H   0  0  0  0  0  0  0  0  0  0  0  0
   -0.1515   -0.7015    0.0035 C   0  0  0  0  0  0  0  0  0  0  0  0
   -1.3749    0.8858    0.9005 H   0  0  0  0  0  0  0  0  0  0  0  0
   -1.4297    0.8321   -0.8675 H   0  0  0  0  0  0  0  0  0  0  0  0
   -0.0492   -1.3468    0.8972 H   0  0  0  0  0  0  0  0  0  0  0  0
    0.7787   -0.1110   -0.0235 H   0  0  0  0  0  0  0  0  0  0  0  0
   -0.1651   -1.3502   -0.8362 H   0  0  0  0  0  0  0  0  0  0  0  0
  1  2  1  0  0  0  0
  1  5  1  0  0  0  0
  2  8  1  0  0  0  0
  3  1  1  0  0  0  0
  4  1  1  0  0  0  0
  6  2  1  0  0  0  0
  6 10  1  0  0  0  0
  7  2  1  0  0  0  0
  9  6  1  0  0  0  0
  9 12  1  0  0  0  0
 11  6  1  0  0  0  0
 13  9  1  0  0  0  0
 14  9  1  0  0  0  0
M  END
$$$$
