14
butane_opt
C  -3.942925   0.257402   0.066698
C  -2.706684  -0.610647   0.001389
H  -4.847336  -0.311633  -0.083433
H  -3.942554   0.696920  -0.726688
H  -4.006491   1.088223   1.065537
C  -1.406767   0.192484  -0.046206
H  -2.795077  -1.360724  -0.902703
H  -2.772725  -1.175128   0.866490
C  -0.140047  -0.689532   0.066180
H  -1.417073   0.802678   0.751772
H  -1.367581   0.946293  -0.989576
H  -0.173648  -1.516439   1.088375
H   0.741091  -0.159084   0.078141
H  -0.083146  -1.286482  -0.726534
