butane_opt
 OpenBabel08242015383D

 14 13  0  0  0  0  0  0  0  0999 V2000
   -3.9425    0.2436   -0.0135 C   0  0  0  0  0  0  0  0  0  0  0  0
   -2.7058   -0.6037    0.0573 C   0  0  0  0  0  0  0  0  0  0  0  0
   -4.9146   -0.4137   -0.0023 H   0  0  0  0  0  0  0  0  0  0  0  0
   -3.9592    0.9416   -0.9716 H   0  0  0  0  0  0  0  0  0  0  0  0
   -4.0470    0.9033    0.8267 H   0  0  0  0  0  0  0  0  0  0  0  0
   -1.3895    0.2168    0.0781 C   0  0  0  0  0  0  0  0  0  0  0  0
   -2.7297   -1.2893   -0.7972 H   0  0  0  0  0  0  0  0  0  0  0  0
   -2.7642   -1.1817    0.9066 H   0  0  0  0  0  0  0  0  0  0  0  0
   -0.1545   -0.7127   -0.0087 C   0  0  0  0  0  0  0  0  0  0  0  0
   -1.4258    0.8907    0.9278 H   0  0  0  0  0  0  0  0  0  0  0  0
   -1.3743    0.8476   -0.7641 H   0  0  0  0  0  0  0  0  0  0  0  0
    0.1292   -1.4746    0.9567 H   0  0  0  0  0  0  0  0  0  0  0  0
    0.6487   -0.1828   -0.2102 H   0  0  0  0  0  0  0  0  0  0  0  0
   -0.2543   -1.2574   -0.7814 H   0  0  0  0  0  0  0  0  0  0  0  0
  1  3  1  0  0  0  0
  1  2  1  0  0  0  0
  1  5  1  0  0  0  0
  2  6  1  0  0  0  0
  2  8  1  0  0  0  0
  4  1  1  0  0  0  0
  6 10  1  0  0  0  0
  7  2  1  0  0  0  0
  9  6  1  0  0  0  0
  9 12  1  0  0  0  0
 11  6  1  0  0  0  0
 13  9  1  0  0  0  0
 14  9  1  0  0  0  0
M  END
$$$$
