butane_opt
 OpenBabel08242015383D

 14 13  0  0  0  0  0  0  0  0999 V2000
   -3.9652    0.2746    0.0490 C   0  0  0  0  0  0  0  0  0  0  0  0
   -2.6927   -0.6242   -0.0291 C   0  0  0  0  0  0  0  0  0  0  0  0
   -4.8509   -0.3382    0.0399 H   0  0  0  0  0  0  0  0  0  0  0  0
   -4.0936    0.7811   -0.7538 H   0  0  0  0  0  0  0  0  0  0  0  0
   -3.9616    0.9760    0.9557 H   0  0  0  0  0  0  0  0  0  0  0  0
   -1.4027    0.1888    0.0027 C   0  0  0  0  0  0  0  0  0  0  0  0
   -2.7996   -1.2769   -0.9008 H   0  0  0  0  0  0  0  0  0  0  0  0
   -2.6647   -1.2945    0.8646 H   0  0  0  0  0  0  0  0  0  0  0  0
   -0.1358   -0.6951    0.0712 C   0  0  0  0  0  0  0  0  0  0  0  0
   -1.4500    0.8871    0.8711 H   0  0  0  0  0  0  0  0  0  0  0  0
   -1.3153    0.8137   -0.9239 H   0  0  0  0  0  0  0  0  0  0  0  0
   -0.1089   -1.5156    1.0665 H   0  0  0  0  0  0  0  0  0  0  0  0
    0.7958   -0.0597   -0.2305 H   0  0  0  0  0  0  0  0  0  0  0  0
   -0.2145   -1.1626   -0.6620 H   0  0  0  0  0  0  0  0  0  0  0  0
  1  5  1  0  0  0  0
  2  6  1  0  0  0  0
  2  1  1  0  0  0  0
  2  8  1  0  0  0  0
  3  1  1  0  0  0  0
  4  1  1  0  0  0  0
  6  9  1  0  0  0  0
  6 10  1  0  0  0  0
  7  2  1  0  0  0  0
  9 12  1  0  0  0  0
 11  6  1  0  0  0  0
 13  9  1  0  0  0  0
 14  9  1  0  0  0  0
M  END
$$$$
