butane_opt
 OpenBabel08242015383D

 14 13  0  0  0  0  0  0  0  0999 V2000
   -3.9658    0.2857    0.0422 C   0  0  0  0  0  0  0  0  0  0  0  0
   -2.6894   -0.6475   -0.0125 C   0  0  0  0  0  0  0  0  0  0  0  0
   -4.8946   -0.2984    0.0307 H   0  0  0  0  0  0  0  0  0  0  0  0
   -4.1335    0.8195   -0.7904 H   0  0  0  0  0  0  0  0  0  0  0  0
   -3.9753    1.1032    1.0375 H   0  0  0  0  0  0  0  0  0  0  0  0
   -1.3945    0.1667   -0.0040 C   0  0  0  0  0  0  0  0  0  0  0  0
   -2.7374   -1.3802   -0.9242 H   0  0  0  0  0  0  0  0  0  0  0  0
   -2.7323   -1.2414    0.8412 H   0  0  0  0  0  0  0  0  0  0  0  0
   -0.1389   -0.6832    0.0607 C   0  0  0  0  0  0  0  0  0  0  0  0
   -1.4128    0.8616    0.8192 H   0  0  0  0  0  0  0  0  0  0  0  0
   -1.3330    0.8103   -0.8967 H   0  0  0  0  0  0  0  0  0  0  0  0
   -0.0721   -1.5185    1.1288 H   0  0  0  0  0  0  0  0  0  0  0  0
    0.8040   -0.0036   -0.1817 H   0  0  0  0  0  0  0  0  0  0  0  0
   -0.2704   -1.0771   -0.6229 H   0  0  0  0  0  0  0  0  0  0  0  0
  1  5  1  0  0  0  0
  2  6  1  0  0  0  0
  2  1  1  0  0  0  0
  2  8  1  0  0  0  0
  3  1  1  0  0  0  0
  4  1  1  0  0  0  0
  6  9  1  0  0  0  0
  6 10  1  0  0  0  0
  7  2  1  0  0  0  0
  9 12  1  0  0  0  0
 11  6  1  0  0  0  0
 13  9  1  0  0  0  0
 14  9  1  0  0  0  0
M  END
$$$$
