14
butane_opt
C  -3.926022   0.249742   0.071161
C  -2.693525  -0.597586   0.003425
H  -4.863852  -0.385786   0.076661
H  -3.875988   0.839084  -0.865432
H  -3.882938   0.875487   0.956649
C  -1.433263   0.204068  -0.063602
H  -2.827374  -1.283885  -0.858575
H  -2.588956  -1.236713   0.882896
C  -0.170075  -0.710970   0.073095
H  -1.421321   0.857291   0.781795
H  -1.383269   0.929493  -0.968894
H  -0.212507  -1.188078   0.897571
H   0.681059  -0.175529   0.319989
H   0.031677  -1.458655  -0.807048
