14
butane_opt
C  -3.942456   0.243642  -0.013452
C  -2.705751  -0.603734   0.057289
H  -4.914614  -0.413729  -0.002281
H  -3.959169   0.941566  -0.971645
H  -4.047029   0.903257   0.826723
C  -1.389466   0.216759   0.078075
H  -2.729655  -1.289345  -0.797223
H  -2.764209  -1.181686   0.906649
C  -0.154535  -0.712658  -0.008690
H  -1.425839   0.890737   0.927774
H  -1.374317   0.847589  -0.764081
H   0.129160  -1.474649   0.956652
H   0.648737  -0.182775  -0.210170
H  -0.254314  -1.257377  -0.781356
