14
butane_opt
C  -3.953815   0.261730   0.036955
C  -2.705668  -0.616022   0.016273
H  -4.857577  -0.331580   0.023323
H  -3.950391   0.844833  -0.836846
H  -4.019374   0.992335   0.939796
C  -1.407974   0.180276  -0.002686
H  -2.763415  -1.349776  -0.880660
H  -2.716886  -1.164290   0.845198
C  -0.142945  -0.695316   0.056329
H  -1.373496   0.896040   0.842329
H  -1.394577   0.840349  -0.916218
H  -0.048192  -1.451805   1.022043
H   0.776063  -0.063699  -0.127797
H  -0.155561  -1.250905  -0.729596
