14
butane_opt
C  -3.911659   0.248228   0.083604
C  -2.702429  -0.584528  -0.036286
H  -4.861166  -0.392075   0.236652
H  -4.011198   0.927656  -0.836699
H  -3.876373   0.820229   0.856710
C  -1.434983   0.205400  -0.030849
H  -2.810096  -1.439723  -1.018437
H  -2.646990  -1.177345   0.764751
C  -0.164997  -0.703857   0.083501
H  -1.474914   0.838969   0.789256
H  -1.293403   0.873120  -0.968479
H  -0.105758  -1.422902   1.054042
H   0.719850  -0.177278   0.041137
H  -0.088550  -1.299239  -0.677373
