14
butane_opt
C  -3.921691   0.252332   0.043584
C  -2.684926  -0.604133  -0.022987
H  -4.851416  -0.325359   0.309140
H  -4.122654   0.918145  -0.901985
H  -3.776059   0.793289   0.831434
C  -1.419844   0.194710  -0.000831
H  -2.688590  -1.265193  -0.894428
H  -2.709994  -1.235531   0.906204
C  -0.178485  -0.695534   0.059462
H  -1.476250   0.910908   0.892081
H  -1.329705   0.823824  -0.876635
H  -0.210157  -1.362359   0.992817
H   0.686930  -0.150631   0.018334
H  -0.077352  -1.356855  -0.805172
