14
butane_opt
C  -3.960686   0.288576  -0.055279
C  -2.674085  -0.630968   0.106220
H  -4.849626  -0.307463  -0.036962
H  -3.870170   0.849375  -0.920732
H  -3.965027   1.011941   0.798198
C  -1.403520   0.151603   0.085054
H  -2.623542  -1.285360  -0.707164
H  -2.784796  -1.367941   1.060971
C  -0.175018  -0.672720  -0.036474
H  -1.344892   0.921960   0.966963
H  -1.421677   0.679990  -0.763785
H  -0.116708  -1.289008   0.887501
H   0.728039  -0.046932  -0.158940
H  -0.235334  -1.263292  -0.868971
