butane_opt
 OpenBabel08242015383D

 14 13  0  0  0  0  0  0  0  0999 V2000
   -3.9234    0.2790   -0.0003 C   0  0  0  0  0  0  0  0  0  0  0  0
   -2.6841   -0.6368    0.0445 C   0  0  0  0  0  0  0  0  0  0  0  0
   -4.8105   -0.2751    0.1443 H   0  0  0  0  0  0  0  0  0  0  0  0
   -4.0381    1.0521   -1.0242 H   0  0  0  0  0  0  0  0  0  0  0  0
   -3.9892    0.8692    0.7922 H   0  0  0  0  0  0  0  0  0  0  0  0
   -1.3828    0.1600    0.0436 C   0  0  0  0  0  0  0  0  0  0  0  0
   -2.7250   -1.3217   -0.7909 H   0  0  0  0  0  0  0  0  0  0  0  0
   -2.7152   -1.2375    0.9423 H   0  0  0  0  0  0  0  0  0  0  0  0
   -0.2043   -0.6807    0.0273 C   0  0  0  0  0  0  0  0  0  0  0  0
   -1.3880    0.8443    0.9272 H   0  0  0  0  0  0  0  0  0  0  0  0
   -1.4416    0.7680   -0.8662 H   0  0  0  0  0  0  0  0  0  0  0  0
   -0.0434   -1.2284    0.8575 H   0  0  0  0  0  0  0  0  0  0  0  0
    0.7506   -0.0031   -0.0149 H   0  0  0  0  0  0  0  0  0  0  0  0
   -0.2989   -1.3809   -0.9190 H   0  0  0  0  0  0  0  0  0  0  0  0
  1  2  1  0  0  0  0
  1  3  1  0  0  0  0
  1  5  1  0  0  0  0
  2  8  1  0  0  0  0
  4  1  1  0  0  0  0
  6  2  1  0  0  0  0
  6 10  1  0  0  0  0
  7  2  1  0  0  0  0
  9  6  1  0  0  0  0
  9 12  1  0  0  0  0
 11  6  1  0  0  0  0
 13  9  1  0  0  0  0
 14  9  1  0  0  0  0
M  END
$$$$
