14
butane_opt
C  -3.908767   0.256334   0.040192
C  -2.700966  -0.610947  -0.011557
H  -4.858538  -0.338393   0.052086
H  -4.006753   0.762415  -0.743553
H  -3.921003   0.945553   0.919715
C  -1.410870   0.209094   0.003168
H  -2.765260  -1.246171  -0.831231
H  -2.767530  -1.194282   0.858324
C  -0.168088  -0.715927   0.051513
H  -1.487820   0.944280   0.833724
H  -1.339444   0.813665  -0.887855
H  -0.068090  -1.536612   1.043537
H   0.706459  -0.125950  -0.116217
H  -0.238625  -1.172855  -0.659825
