butane_opt
 OpenBabel08242015383D

 14 13  0  0  0  0  0  0  0  0999 V2000
   -3.9371    0.2489    0.0857 C   0  0  0  0  0  0  0  0  0  0  0  0
   -2.7062   -0.6034   -0.0443 C   0  0  0  0  0  0  0  0  0  0  0  0
   -4.9257   -0.3945    0.2403 H   0  0  0  0  0  0  0  0  0  0  0  0
   -4.0684    0.9455   -0.8534 H   0  0  0  0  0  0  0  0  0  0  0  0
   -3.8232    0.8632    0.9156 H   0  0  0  0  0  0  0  0  0  0  0  0
   -1.4111    0.2020   -0.0439 C   0  0  0  0  0  0  0  0  0  0  0  0
   -2.7732   -1.2910   -0.9402 H   0  0  0  0  0  0  0  0  0  0  0  0
   -2.7722   -1.1820    0.7903 H   0  0  0  0  0  0  0  0  0  0  0  0
   -0.1562   -0.7088    0.0881 C   0  0  0  0  0  0  0  0  0  0  0  0
   -1.4401    0.9206    0.7960 H   0  0  0  0  0  0  0  0  0  0  0  0
   -1.3146    0.9045   -0.9648 H   0  0  0  0  0  0  0  0  0  0  0  0
   -0.0742   -1.4019    1.0599 H   0  0  0  0  0  0  0  0  0  0  0  0
    0.7144   -0.1736    0.1363 H   0  0  0  0  0  0  0  0  0  0  0  0
   -0.0145   -1.3475   -0.7604 H   0  0  0  0  0  0  0  0  0  0  0  0
  1  3  1  0  0  0  0
  1  5  1  0  0  0  0
  2  6  1  0  0  0  0
  2  1  1  0  0  0  0
  2  8  1  0  0  0  0
  4  1  1  0  0  0  0
  6  9  1  0  0  0  0
  6 10  1  0  0  0  0
  7  2  1  0  0  0  0
  9 13  1  0  0  0  0
  9 12  1  0  0  0  0
 11  6  1  0  0  0  0
 14  9  1  0  0  0  0
M  END
$$$$
