butane_opt
 OpenBabel08242015383D

 14 13  0  0  0  0  0  0  0  0999 V2000
   -3.9310    0.2733   -0.0323 C   0  0  0  0  0  0  0  0  0  0  0  0
   -2.6699   -0.6301    0.0541 C   0  0  0  0  0  0  0  0  0  0  0  0
   -4.8312   -0.2806    0.2813 H   0  0  0  0  0  0  0  0  0  0  0  0
   -4.0724    1.0621   -1.0359 H   0  0  0  0  0  0  0  0  0  0  0  0
   -3.9558    0.7499    0.6891 H   0  0  0  0  0  0  0  0  0  0  0  0
   -1.4167    0.1648    0.0748 C   0  0  0  0  0  0  0  0  0  0  0  0
   -2.6040   -1.2398   -0.6914 H   0  0  0  0  0  0  0  0  0  0  0  0
   -2.7024   -1.3097    0.9617 H   0  0  0  0  0  0  0  0  0  0  0  0
   -0.1974   -0.6769   -0.0070 C   0  0  0  0  0  0  0  0  0  0  0  0
   -1.2603    0.8921    1.0140 H   0  0  0  0  0  0  0  0  0  0  0  0
   -1.4010    0.7615   -0.7671 H   0  0  0  0  0  0  0  0  0  0  0  0
   -0.1135   -1.1542    0.7801 H   0  0  0  0  0  0  0  0  0  0  0  0
    0.7223   -0.0843    0.0047 H   0  0  0  0  0  0  0  0  0  0  0  0
   -0.2240   -1.4332   -0.8949 H   0  0  0  0  0  0  0  0  0  0  0  0
  1  2  1  0  0  0  0
  1  3  1  0  0  0  0
  1  5  1  0  0  0  0
  2  6  1  0  0  0  0
  2  8  1  0  0  0  0
  4  1  1  0  0  0  0
  6 10  1  0  0  0  0
  7  2  1  0  0  0  0
  9 13  1  0  0  0  0
  9  6  1  0  0  0  0
  9 12  1  0  0  0  0
 11  6  1  0  0  0  0
 14  9  1  0  0  0  0
M  END
$$$$
