14
butane_opt
C  -3.932771   0.264666  -0.025051
C  -2.697442  -0.613006   0.110057
H  -4.877029  -0.344797  -0.140200
H  -3.797883   0.753628  -0.886316
H  -4.073063   0.962950   0.855019
C  -1.396273   0.200422   0.040827
H  -2.635677  -1.335942  -0.776859
H  -2.749311  -1.216533   1.023004
C  -0.177783  -0.703765  -0.008616
H  -1.311666   0.924201   0.909347
H  -1.474293   0.846932  -0.846432
H  -0.132462  -1.367251   0.905722
H   0.681524  -0.124977  -0.057657
H  -0.191792  -1.371235  -0.930545
