butane_opt
 OpenBabel08242015383D

 14 13  0  0  0  0  0  0  0  0999 V2000
   -3.9450    0.2607    0.0707 C   0  0  0  0  0  0  0  0  0  0  0  0
   -2.6783   -0.5907    0.0042 C   0  0  0  0  0  0  0  0  0  0  0  0
   -4.8929   -0.4295   -0.1948 H   0  0  0  0  0  0  0  0  0  0  0  0
   -3.9432    0.6229   -0.6706 H   0  0  0  0  0  0  0  0  0  0  0  0
   -3.9728    1.1152    1.0165 H   0  0  0  0  0  0  0  0  0  0  0  0
   -1.4099    0.1864   -0.0538 C   0  0  0  0  0  0  0  0  0  0  0  0
   -2.7264   -1.2781   -0.8417 H   0  0  0  0  0  0  0  0  0  0  0  0
   -2.7046   -1.2289    0.9289 H   0  0  0  0  0  0  0  0  0  0  0  0
   -0.1642   -0.7004    0.0807 C   0  0  0  0  0  0  0  0  0  0  0  0
   -1.4723    0.7497    0.7172 H   0  0  0  0  0  0  0  0  0  0  0  0
   -1.3483    0.8620   -1.0042 H   0  0  0  0  0  0  0  0  0  0  0  0
   -0.1675   -1.3589    1.0015 H   0  0  0  0  0  0  0  0  0  0  0  0
    0.7241   -0.1185    0.0414 H   0  0  0  0  0  0  0  0  0  0  0  0
   -0.1375   -1.2923   -0.7532 H   0  0  0  0  0  0  0  0  0  0  0  0
  1  5  1  0  0  0  0
  2  1  1  0  0  0  0
  2  8  1  0  0  0  0
  3  1  1  0  0  0  0
  4  1  1  0  0  0  0
  6  2  1  0  0  0  0
  6  9  1  0  0  0  0
  6 10  1  0  0  0  0
  7  2  1  0  0  0  0
  9 12  1  0  0  0  0
 11  6  1  0  0  0  0
 13  9  1  0  0  0  0
 14  9  1  0  0  0  0
M  END
$$$$
