butane_opt
 OpenBabel08242015383D

 14 13  0  0  0  0  0  0  0  0999 V2000
   -3.9328    0.2647   -0.0251 C   0  0  0  0  0  0  0  0  0  0  0  0
   -2.6974   -0.6130    0.1101 C   0  0  0  0  0  0  0  0  0  0  0  0
   -4.8770   -0.3448   -0.1402 H   0  0  0  0  0  0  0  0  0  0  0  0
   -3.7979    0.7536   -0.8863 H   0  0  0  0  0  0  0  0  0  0  0  0
   -4.0731    0.9629    0.8550 H   0  0  0  0  0  0  0  0  0  0  0  0
   -1.3963    0.2004    0.0408 C   0  0  0  0  0  0  0  0  0  0  0  0
   -2.6357   -1.3359   -0.7769 H   0  0  0  0  0  0  0  0  0  0  0  0
   -2.7493   -1.2165    1.0230 H   0  0  0  0  0  0  0  0  0  0  0  0
   -0.1778   -0.7038   -0.0086 C   0  0  0  0  0  0  0  0  0  0  0  0
   -1.3117    0.9242    0.9093 H   0  0  0  0  0  0  0  0  0  0  0  0
   -1.4743    0.8469   -0.8464 H   0  0  0  0  0  0  0  0  0  0  0  0
   -0.1325   -1.3673    0.9057 H   0  0  0  0  0  0  0  0  0  0  0  0
    0.6815   -0.1250   -0.0577 H   0  0  0  0  0  0  0  0  0  0  0  0
   -0.1918   -1.3712   -0.9305 H   0  0  0  0  0  0  0  0  0  0  0  0
  1  2  1  0  0  0  0
  1  5  1  0  0  0  0
  2  8  1  0  0  0  0
  3  1  1  0  0  0  0
  4  1  1  0  0  0  0
  6  2  1  0  0  0  0
  6 10  1  0  0  0  0
  7  2  1  0  0  0  0
  9  6  1  0  0  0  0
  9 12  1  0  0  0  0
 11  6  1  0  0  0  0
 13  9  1  0  0  0  0
 14  9  1  0  0  0  0
M  END
$$$$
