butane_opt
 OpenBabel08242015383D

 14 13  0  0  0  0  0  0  0  0999 V2000
   -3.9509    0.2621    0.0626 C   0  0  0  0  0  0  0  0  0  0  0  0
   -2.7328   -0.6053    0.0060 C   0  0  0  0  0  0  0  0  0  0  0  0
   -4.8612   -0.3429   -0.1974 H   0  0  0  0  0  0  0  0  0  0  0  0
   -3.9124    0.6355   -0.6799 H   0  0  0  0  0  0  0  0  0  0  0  0
   -3.9644    1.1461    1.0817 H   0  0  0  0  0  0  0  0  0  0  0  0
   -1.3983    0.2020   -0.0364 C   0  0  0  0  0  0  0  0  0  0  0  0
   -2.7839   -1.3381   -0.9115 H   0  0  0  0  0  0  0  0  0  0  0  0
   -2.7457   -1.2403    0.9287 H   0  0  0  0  0  0  0  0  0  0  0  0
   -0.1195   -0.7128    0.0728 C   0  0  0  0  0  0  0  0  0  0  0  0
   -1.3939    0.7368    0.6786 H   0  0  0  0  0  0  0  0  0  0  0  0
   -1.4308    0.9649   -1.0431 H   0  0  0  0  0  0  0  0  0  0  0  0
   -0.1488   -1.3701    1.0624 H   0  0  0  0  0  0  0  0  0  0  0  0
    0.7613   -0.1173    0.0124 H   0  0  0  0  0  0  0  0  0  0  0  0
   -0.1198   -1.3063   -0.7183 H   0  0  0  0  0  0  0  0  0  0  0  0
  1  5  1  0  0  0  0
  2  1  1  0  0  0  0
  2  8  1  0  0  0  0
  3  1  1  0  0  0  0
  4  1  1  0  0  0  0
  6  2  1  0  0  0  0
  6  9  1  0  0  0  0
  6 10  1  0  0  0  0
  7  2  1  0  0  0  0
  9 12  1  0  0  0  0
 11  6  1  0  0  0  0
 13  9  1  0  0  0  0
 14  9  1  0  0  0  0
M  END
$$$$
