14
butane_opt
C  -3.951642   0.264295   0.000060
C  -2.698675  -0.624735   0.065449
H  -4.809453  -0.303894   0.069138
H  -4.048930   0.901450  -0.898263
H  -4.001339   0.917056   0.839912
C  -1.405423   0.186801   0.010712
H  -2.686849  -1.266555  -0.738740
H  -2.745144  -1.305632   0.979358
C  -0.150552  -0.694864   0.017017
H  -1.382303   0.909791   0.873684
H  -1.364354   0.827809  -0.906370
H  -0.172475  -1.174300   0.820825
H   0.765339  -0.093796   0.194511
H  -0.099579  -1.463252  -0.922742
