14
butane_opt
C  -3.929474   0.249759   0.026343
C  -2.696847  -0.588129   0.048013
H  -4.839334  -0.391759  -0.192033
H  -3.900856   0.622457  -0.748626
H  -3.951564   1.067521   0.976869
C  -1.417003   0.205663  -0.005389
H  -2.745639  -1.262035  -0.824475
H  -2.724636  -1.274296   0.947715
C  -0.175901  -0.707100   0.038801
H  -1.366885   0.810396   0.815560
H  -1.433467   0.922027  -0.993269
H  -0.060877  -1.382745   0.939363
H   0.672942  -0.150273   0.014634
H  -0.045908  -1.358902  -0.763793
