butane_opt
 OpenBabel08242015383D

 14 13  0  0  0  0  0  0  0  0999 V2000
   -3.9169    0.2282    0.0705 C   0  0  0  0  0  0  0  0  0  0  0  0
   -2.6921   -0.5900   -0.0201 C   0  0  0  0  0  0  0  0  0  0  0  0
   -4.7885   -0.3236    0.1314 H   0  0  0  0  0  0  0  0  0  0  0  0
   -4.0506    0.8535   -0.8416 H   0  0  0  0  0  0  0  0  0  0  0  0
   -3.7812    0.9378    0.9939 H   0  0  0  0  0  0  0  0  0  0  0  0
   -1.4415    0.2105   -0.0485 C   0  0  0  0  0  0  0  0  0  0  0  0
   -2.8269   -1.2574   -0.8550 H   0  0  0  0  0  0  0  0  0  0  0  0
   -2.6316   -1.1615    0.7969 H   0  0  0  0  0  0  0  0  0  0  0  0
   -0.1668   -0.7145    0.0918 C   0  0  0  0  0  0  0  0  0  0  0  0
   -1.4768    0.7960    0.7192 H   0  0  0  0  0  0  0  0  0  0  0  0
   -1.3436    0.9017   -1.0206 H   0  0  0  0  0  0  0  0  0  0  0  0
   -0.1758   -1.2678    0.9883 H   0  0  0  0  0  0  0  0  0  0  0  0
    0.7306   -0.1094    0.1728 H   0  0  0  0  0  0  0  0  0  0  0  0
   -0.0675   -1.4511   -0.7858 H   0  0  0  0  0  0  0  0  0  0  0  0
  1  3  1  0  0  0  0
  1  5  1  0  0  0  0
  2  1  1  0  0  0  0
  2  8  1  0  0  0  0
  4  1  1  0  0  0  0
  6  2  1  0  0  0  0
  6  9  1  0  0  0  0
  6 10  1  0  0  0  0
  7  2  1  0  0  0  0
  9 13  1  0  0  0  0
  9 12  1  0  0  0  0
 11  6  1  0  0  0  0
 14  9  1  0  0  0  0
M  END
$$$$
