butane_opt
 OpenBabel08242015383D

 14 13  0  0  0  0  0  0  0  0999 V2000
   -3.9299    0.2517   -0.0113 C   0  0  0  0  0  0  0  0  0  0  0  0
   -2.7078   -0.6049    0.0598 C   0  0  0  0  0  0  0  0  0  0  0  0
   -4.8585   -0.3309    0.0544 H   0  0  0  0  0  0  0  0  0  0  0  0
   -3.9235    0.9132   -0.9361 H   0  0  0  0  0  0  0  0  0  0  0  0
   -3.9809    0.9215    0.8318 H   0  0  0  0  0  0  0  0  0  0  0  0
   -1.4144    0.1880    0.0488 C   0  0  0  0  0  0  0  0  0  0  0  0
   -2.6855   -1.2619   -0.7682 H   0  0  0  0  0  0  0  0  0  0  0  0
   -2.7370   -1.2341    0.9573 H   0  0  0  0  0  0  0  0  0  0  0  0
   -0.1516   -0.6969   -0.0004 C   0  0  0  0  0  0  0  0  0  0  0  0
   -1.3863    0.8667    0.9449 H   0  0  0  0  0  0  0  0  0  0  0  0
   -1.4342    0.7960   -0.8257 H   0  0  0  0  0  0  0  0  0  0  0  0
   -0.1134   -1.3304    0.9099 H   0  0  0  0  0  0  0  0  0  0  0  0
    0.7272   -0.1234   -0.0578 H   0  0  0  0  0  0  0  0  0  0  0  0
   -0.1806   -1.3468   -0.8326 H   0  0  0  0  0  0  0  0  0  0  0  0
  1  3  1  0  0  0  0
  1  2  1  0  0  0  0
  1  5  1  0  0  0  0
  2  8  1  0  0  0  0
  4  1  1  0  0  0  0
  6  2  1  0  0  0  0
  6 10  1  0  0  0  0
  7  2  1  0  0  0  0
  9  6  1  0  0  0  0
  9 12  1  0  0  0  0
 11  6  1  0  0  0  0
 13  9  1  0  0  0  0
 14  9  1  0  0  0  0
M  END
$$$$
