14
butane_opt
C  -3.950900   0.262107   0.062559
C  -2.732848  -0.605276   0.005996
H  -4.861200  -0.342878  -0.197392
H  -3.912370   0.635530  -0.679883
H  -3.964387   1.146112   1.081699
C  -1.398340   0.201999  -0.036355
H  -2.783899  -1.338106  -0.911539
H  -2.745671  -1.240325   0.928711
C  -0.119519  -0.712836   0.072769
H  -1.393890   0.736775   0.678637
H  -1.430817   0.964896  -1.043104
H  -0.148763  -1.370118   1.062425
H   0.761264  -0.117300   0.012362
H  -0.119822  -1.306284  -0.718309
