butane_opt
 OpenBabel08242015383D

 14 13  0  0  0  0  0  0  0  0999 V2000
   -3.9530    0.2469    0.0848 C   0  0  0  0  0  0  0  0  0  0  0  0
   -2.7173   -0.5998   -0.0070 C   0  0  0  0  0  0  0  0  0  0  0  0
   -4.8664   -0.3240    0.0503 H   0  0  0  0  0  0  0  0  0  0  0  0
   -4.0493    0.7577   -0.7915 H   0  0  0  0  0  0  0  0  0  0  0  0
   -3.8867    0.9432    0.9736 H   0  0  0  0  0  0  0  0  0  0  0  0
   -1.3970    0.2133   -0.0806 C   0  0  0  0  0  0  0  0  0  0  0  0
   -2.8220   -1.2641   -0.8725 H   0  0  0  0  0  0  0  0  0  0  0  0
   -2.7072   -1.1762    0.8930 H   0  0  0  0  0  0  0  0  0  0  0  0
   -0.1377   -0.7165    0.0772 C   0  0  0  0  0  0  0  0  0  0  0  0
   -1.4985    0.8553    0.7347 H   0  0  0  0  0  0  0  0  0  0  0  0
   -1.3980    0.8617   -0.9859 H   0  0  0  0  0  0  0  0  0  0  0  0
   -0.2644   -1.3291    1.0089 H   0  0  0  0  0  0  0  0  0  0  0  0
    0.7764   -0.0791    0.3268 H   0  0  0  0  0  0  0  0  0  0  0  0
    0.1470   -1.4530   -0.7961 H   0  0  0  0  0  0  0  0  0  0  0  0
  1  5  1  0  0  0  0
  2  1  1  0  0  0  0
  2  8  1  0  0  0  0
  3  1  1  0  0  0  0
  4  1  1  0  0  0  0
  6  2  1  0  0  0  0
  6  9  1  0  0  0  0
  6 10  1  0  0  0  0
  7  2  1  0  0  0  0
  9 13  1  0  0  0  0
  9 12  1  0  0  0  0
 11  6  1  0  0  0  0
 14  9  1  0  0  0  0
M  END
$$$$
