14
butane_opt
C  -3.948032   0.269477   0.053658
C  -2.711564  -0.634464   0.005352
H  -4.768449  -0.233276  -0.010237
H  -3.997425   0.891372  -0.808678
H  -3.949792   1.036704   0.988645
C  -1.396071   0.165501  -0.045549
H  -2.732501  -1.250620  -0.794758
H  -2.691182  -1.364495   0.989106
C  -0.158410  -0.684105   0.067353
H  -1.412010   0.822329   0.797299
H  -1.342191   0.882653  -0.946367
H  -0.248091  -1.151850   0.879268
H   0.737242  -0.061917   0.208551
H  -0.058027  -1.438263  -0.849713
