butane_opt
 OpenBabel08242015383D

 14 13  0  0  0  0  0  0  0  0999 V2000
   -3.9377    0.2755    0.0467 C   0  0  0  0  0  0  0  0  0  0  0  0
   -2.6912   -0.6190    0.0352 C   0  0  0  0  0  0  0  0  0  0  0  0
   -4.8339   -0.3033    0.0345 H   0  0  0  0  0  0  0  0  0  0  0  0
   -3.8896    0.8753   -0.8319 H   0  0  0  0  0  0  0  0  0  0  0  0
   -4.0014    1.0188    0.9540 H   0  0  0  0  0  0  0  0  0  0  0  0
   -1.3893    0.1526   -0.0428 C   0  0  0  0  0  0  0  0  0  0  0  0
   -2.7937   -1.3633   -0.8915 H   0  0  0  0  0  0  0  0  0  0  0  0
   -2.6366   -1.2378    0.8867 H   0  0  0  0  0  0  0  0  0  0  0  0
   -0.1806   -0.6868    0.0681 C   0  0  0  0  0  0  0  0  0  0  0  0
   -1.4516    0.8363    0.7635 H   0  0  0  0  0  0  0  0  0  0  0  0
   -1.3937    0.8691   -0.9697 H   0  0  0  0  0  0  0  0  0  0  0  0
   -0.3009   -1.2002    0.8896 H   0  0  0  0  0  0  0  0  0  0  0  0
    0.7862   -0.0401    0.1535 H   0  0  0  0  0  0  0  0  0  0  0  0
   -0.1248   -1.3912   -0.8361 H   0  0  0  0  0  0  0  0  0  0  0  0
  1  5  1  0  0  0  0
  2  1  1  0  0  0  0
  2  8  1  0  0  0  0
  3  1  1  0  0  0  0
  4  1  1  0  0  0  0
  6  2  1  0  0  0  0
  6  9  1  0  0  0  0
  6 10  1  0  0  0  0
  7  2  1  0  0  0  0
  9 13  1  0  0  0  0
  9 12  1  0  0  0  0
 11  6  1  0  0  0  0
 14  9  1  0  0  0  0
M  END
$$$$
