14
butane_opt
C  -3.946823   0.279749   0.006385
C  -2.685528  -0.630630   0.033733
H  -4.858050  -0.291052   0.220605
H  -4.057417   1.181446  -1.062225
H  -3.862218   0.701642   0.688251
C  -1.418040   0.152466   0.046249
H  -2.693881  -1.237741  -0.793224
H  -2.657446  -1.330482   0.941056
C  -0.156233  -0.674304   0.009405
H  -1.328788   0.930840   0.957904
H  -1.402007   0.672349  -0.727598
H  -0.222845  -1.161983   0.829017
H   0.770720  -0.057171   0.052284
H  -0.229968  -1.398633  -0.859437
