butane_opt
 OpenBabel08242015383D

 14 13  0  0  0  0  0  0  0  0999 V2000
   -3.9295    0.2498    0.0263 C   0  0  0  0  0  0  0  0  0  0  0  0
   -2.6968   -0.5881    0.0480 C   0  0  0  0  0  0  0  0  0  0  0  0
   -4.8393   -0.3918   -0.1920 H   0  0  0  0  0  0  0  0  0  0  0  0
   -3.9009    0.6225   -0.7486 H   0  0  0  0  0  0  0  0  0  0  0  0
   -3.9516    1.0675    0.9769 H   0  0  0  0  0  0  0  0  0  0  0  0
   -1.4170    0.2057   -0.0054 C   0  0  0  0  0  0  0  0  0  0  0  0
   -2.7456   -1.2620   -0.8245 H   0  0  0  0  0  0  0  0  0  0  0  0
   -2.7246   -1.2743    0.9477 H   0  0  0  0  0  0  0  0  0  0  0  0
   -0.1759   -0.7071    0.0388 C   0  0  0  0  0  0  0  0  0  0  0  0
   -1.3669    0.8104    0.8156 H   0  0  0  0  0  0  0  0  0  0  0  0
   -1.4335    0.9220   -0.9933 H   0  0  0  0  0  0  0  0  0  0  0  0
   -0.0609   -1.3827    0.9394 H   0  0  0  0  0  0  0  0  0  0  0  0
    0.6729   -0.1503    0.0146 H   0  0  0  0  0  0  0  0  0  0  0  0
   -0.0459   -1.3589   -0.7638 H   0  0  0  0  0  0  0  0  0  0  0  0
  1  2  1  0  0  0  0
  1  5  1  0  0  0  0
  2  8  1  0  0  0  0
  3  1  1  0  0  0  0
  4  1  1  0  0  0  0
  6  9  1  0  0  0  0
  6  2  1  0  0  0  0
  6 10  1  0  0  0  0
  7  2  1  0  0  0  0
  9 12  1  0  0  0  0
 11  6  1  0  0  0  0
 13  9  1  0  0  0  0
 14  9  1  0  0  0  0
M  END
$$$$
