14
butane_opt
C  -3.937548   0.239256   0.054788
C  -2.701505  -0.598073  -0.018074
H  -4.846127  -0.373325   0.026395
H  -3.963507   0.742530  -0.789396
H  -3.920422   1.069815   0.987898
C  -1.416442   0.231747  -0.014174
H  -2.745841  -1.358961  -0.914850
H  -2.788336  -1.195926   0.882638
C  -0.143104  -0.715730   0.064446
H  -1.427802   0.858617   0.821413
H  -1.447824   0.828791  -0.899600
H  -0.066399  -1.578815   1.142031
H   0.770403  -0.176509  -0.153115
H  -0.193974  -1.166458  -0.659228
