14
butane_opt
C  -3.958532   0.281226  -0.032235
C  -2.720423  -0.634885   0.069671
H  -4.807686  -0.268867   0.054084
H  -3.987963   0.973677  -0.936502
H  -4.052154   0.930103   0.811618
C  -1.387315   0.158308   0.079416
H  -2.666950  -1.287394  -0.795236
H  -2.757379  -1.297750   0.991460
C  -0.139003  -0.673869  -0.022975
H  -1.304391   0.935850   1.007604
H  -1.388150   0.711039  -0.773867
H  -0.135272  -1.401266   0.940268
H   0.772673  -0.106857  -0.172988
H  -0.233327  -1.219294  -0.803483
