14
butane_opt
C  -3.965221   0.293744  -0.011321
C  -2.692071  -0.651258   0.071947
H  -4.855524  -0.263972  -0.171169
H  -3.936721   0.828105  -0.846972
H  -4.123339   0.998054   0.865860
C  -1.385864   0.156983   0.034578
H  -2.765406  -1.231721  -0.667175
H  -2.683010  -1.348450   0.987645
C  -0.164538  -0.669150  -0.001932
H  -1.316122   0.893508   0.965062
H  -1.376444   0.747429  -0.800484
H  -0.053167  -1.309115   0.888170
H   0.699815  -0.069250  -0.077635
H  -0.139712  -1.277149  -0.825882
