14
butane_opt
C  -3.944227   0.256837  -0.025075
C  -2.712985  -0.613144   0.069893
H  -4.875832  -0.379185  -0.003921
H  -3.837559   0.889567  -0.976428
H  -4.007442   0.880504   0.838680
C  -1.407744   0.233613   0.066357
H  -2.800714  -1.262488  -0.754919
H  -2.796052  -1.267342   0.977060
C  -0.144123  -0.714309  -0.015810
H  -1.400187   0.961767   0.964286
H  -1.384174   0.705894  -0.669825
H   0.042376  -1.489061   0.962554
H   0.719020  -0.179211  -0.219933
H  -0.173920  -1.280621  -0.818940
