14
butane_opt
C  -3.954817   0.279812   0.016267
C  -2.698662  -0.656512   0.052001
H  -4.801682  -0.210338  -0.180387
H  -3.975398   0.846587  -0.817178
H  -4.079447   1.066334   0.966763
C  -1.383730   0.169762  -0.003128
H  -2.811441  -1.269462  -0.753732
H  -2.684193  -1.236263   0.916480
C  -0.158077  -0.675686   0.031192
H  -1.366133   0.920188   0.913186
H  -1.360120   0.723967  -0.879444
H  -0.147038  -1.390534   1.012322
H   0.759423  -0.072750  -0.111249
H  -0.223611  -1.253993  -0.780698
