butane_opt
 OpenBabel08242015383D

 14 13  0  0  0  0  0  0  0  0999 V2000
   -3.9333    0.2610    0.0437 C   0  0  0  0  0  0  0  0  0  0  0  0
   -2.6985   -0.6050    0.0141 C   0  0  0  0  0  0  0  0  0  0  0  0
   -4.9026   -0.3708    0.1035 H   0  0  0  0  0  0  0  0  0  0  0  0
   -3.9694    0.9201   -0.9057 H   0  0  0  0  0  0  0  0  0  0  0  0
   -3.9004    0.9100    0.8940 H   0  0  0  0  0  0  0  0  0  0  0  0
   -1.4087    0.1891   -0.0050 C   0  0  0  0  0  0  0  0  0  0  0  0
   -2.7676   -1.3755   -0.9130 H   0  0  0  0  0  0  0  0  0  0  0  0
   -2.7365   -1.1565    0.8487 H   0  0  0  0  0  0  0  0  0  0  0  0
   -0.1632   -0.7078    0.0528 C   0  0  0  0  0  0  0  0  0  0  0  0
   -1.4222    0.8774    0.8566 H   0  0  0  0  0  0  0  0  0  0  0  0
   -1.3840    0.8143   -0.9340 H   0  0  0  0  0  0  0  0  0  0  0  0
   -0.1081   -1.3754    0.9978 H   0  0  0  0  0  0  0  0  0  0  0  0
    0.7630   -0.0799   -0.0213 H   0  0  0  0  0  0  0  0  0  0  0  0
   -0.1503   -1.2798   -0.7458 H   0  0  0  0  0  0  0  0  0  0  0  0
  1  3  1  0  0  0  0
  1  5  1  0  0  0  0
  2  1  1  0  0  0  0
  2  8  1  0  0  0  0
  4  1  1  0  0  0  0
  6  2  1  0  0  0  0
  6  9  1  0  0  0  0
  6 10  1  0  0  0  0
  7  2  1  0  0  0  0
  9 12  1  0  0  0  0
 11  6  1  0  0  0  0
 13  9  1  0  0  0  0
 14  9  1  0  0  0  0
M  END
$$$$
