14
butane_opt
C  -3.952111   0.289658  -0.032143
C  -2.676971  -0.639004   0.120717
H  -4.889907  -0.289344  -0.268144
H  -3.842087   0.799478  -0.871851
H  -4.064341   1.056283   0.868499
C  -1.382556   0.166985   0.039442
H  -2.745849  -1.230010  -0.707523
H  -2.672496  -1.368259   1.053706
C  -0.199170  -0.683125  -0.015648
H  -1.331033   0.893641   0.890535
H  -1.408486   0.712317  -0.762561
H  -0.148347  -1.264275   0.860432
H   0.799726  -0.034063  -0.050314
H  -0.202756  -1.359029  -0.926422
