14
butane_opt
C  -3.947773   0.276398  -0.020010
C  -2.669824  -0.646155   0.062893
H  -4.807334  -0.225970   0.267114
H  -4.072481   1.135967  -1.106643
H  -3.913629   0.741673   0.713323
C  -1.395603   0.177842   0.077125
H  -2.625795  -1.363065  -0.772469
H  -2.775916  -1.277200   0.938762
C  -0.187134  -0.672434  -0.001642
H  -1.404175   0.848967   0.898470
H  -1.463495   0.764347  -0.807928
H  -0.190708  -1.152927   0.804690
H   0.799408  -0.038503   0.008552
H  -0.182981  -1.501372  -0.958702
