butane_opt
 OpenBabel08242015383D

 14 13  0  0  0  0  0  0  0  0999 V2000
   -3.9445    0.2574    0.0134 C   0  0  0  0  0  0  0  0  0  0  0  0
   -2.7024   -0.5980    0.0362 C   0  0  0  0  0  0  0  0  0  0  0  0
   -4.8705   -0.3826    0.0057 H   0  0  0  0  0  0  0  0  0  0  0  0
   -3.9132    0.8332   -0.8612 H   0  0  0  0  0  0  0  0  0  0  0  0
   -3.9057    0.9713    0.9258 H   0  0  0  0  0  0  0  0  0  0  0  0
   -1.4155    0.1956    0.0154 C   0  0  0  0  0  0  0  0  0  0  0  0
   -2.7020   -1.3346   -0.8598 H   0  0  0  0  0  0  0  0  0  0  0  0
   -2.7140   -1.2216    0.9303 H   0  0  0  0  0  0  0  0  0  0  0  0
   -0.1583   -0.7035    0.0296 C   0  0  0  0  0  0  0  0  0  0  0  0
   -1.3880    0.8707    0.8969 H   0  0  0  0  0  0  0  0  0  0  0  0
   -1.3899    0.7830   -0.8367 H   0  0  0  0  0  0  0  0  0  0  0  0
   -0.1134   -1.4386    1.0173 H   0  0  0  0  0  0  0  0  0  0  0  0
    0.7606   -0.1098   -0.1412 H   0  0  0  0  0  0  0  0  0  0  0  0
   -0.1387   -1.2526   -0.7624 H   0  0  0  0  0  0  0  0  0  0  0  0
  1  2  1  0  0  0  0
  1  5  1  0  0  0  0
  2  8  1  0  0  0  0
  3  1  1  0  0  0  0
  4  1  1  0  0  0  0
  6  9  1  0  0  0  0
  6  2  1  0  0  0  0
  6 10  1  0  0  0  0
  7  2  1  0  0  0  0
  9 12  1  0  0  0  0
 11  6  1  0  0  0  0
 13  9  1  0  0  0  0
 14  9  1  0  0  0  0
M  END
$$$$
