butane_opt
 OpenBabel08242015383D

 14 13  0  0  0  0  0  0  0  0999 V2000
   -3.9088    0.2563    0.0402 C   0  0  0  0  0  0  0  0  0  0  0  0
   -2.7010   -0.6109   -0.0116 C   0  0  0  0  0  0  0  0  0  0  0  0
   -4.8585   -0.3384    0.0521 H   0  0  0  0  0  0  0  0  0  0  0  0
   -4.0068    0.7624   -0.7436 H   0  0  0  0  0  0  0  0  0  0  0  0
   -3.9210    0.9456    0.9197 H   0  0  0  0  0  0  0  0  0  0  0  0
   -1.4109    0.2091    0.0032 C   0  0  0  0  0  0  0  0  0  0  0  0
   -2.7653   -1.2462   -0.8312 H   0  0  0  0  0  0  0  0  0  0  0  0
   -2.7675   -1.1943    0.8583 H   0  0  0  0  0  0  0  0  0  0  0  0
   -0.1681   -0.7159    0.0515 C   0  0  0  0  0  0  0  0  0  0  0  0
   -1.4878    0.9443    0.8337 H   0  0  0  0  0  0  0  0  0  0  0  0
   -1.3394    0.8137   -0.8879 H   0  0  0  0  0  0  0  0  0  0  0  0
   -0.0681   -1.5366    1.0435 H   0  0  0  0  0  0  0  0  0  0  0  0
    0.7065   -0.1260   -0.1162 H   0  0  0  0  0  0  0  0  0  0  0  0
   -0.2386   -1.1729   -0.6598 H   0  0  0  0  0  0  0  0  0  0  0  0
  1  3  1  0  0  0  0
  1  5  1  0  0  0  0
  2  6  1  0  0  0  0
  2  1  1  0  0  0  0
  2  8  1  0  0  0  0
  4  1  1  0  0  0  0
  6  9  1  0  0  0  0
  6 10  1  0  0  0  0
  7  2  1  0  0  0  0
  9 12  1  0  0  0  0
 11  6  1  0  0  0  0
 13  9  1  0  0  0  0
 14  9  1  0  0  0  0
M  END
$$$$
