butane_opt
 OpenBabel08242015383D

 14 13  0  0  0  0  0  0  0  0999 V2000
   -3.9304    0.2396   -0.0058 C   0  0  0  0  0  0  0  0  0  0  0  0
   -2.6936   -0.5995    0.0827 C   0  0  0  0  0  0  0  0  0  0  0  0
   -4.8339   -0.3279    0.0255 H   0  0  0  0  0  0  0  0  0  0  0  0
   -3.8116    0.9263   -0.9275 H   0  0  0  0  0  0  0  0  0  0  0  0
   -4.0136    0.8757    0.7950 H   0  0  0  0  0  0  0  0  0  0  0  0
   -1.4104    0.2102    0.0323 C   0  0  0  0  0  0  0  0  0  0  0  0
   -2.7742   -1.2953   -0.7940 H   0  0  0  0  0  0  0  0  0  0  0  0
   -2.6982   -1.2365    1.0012 H   0  0  0  0  0  0  0  0  0  0  0  0
   -0.1736   -0.7048   -0.0011 C   0  0  0  0  0  0  0  0  0  0  0  0
   -1.4330    0.9014    0.8780 H   0  0  0  0  0  0  0  0  0  0  0  0
   -1.4689    0.8614   -0.9028 H   0  0  0  0  0  0  0  0  0  0  0  0
   -0.1728   -1.2494    0.8810 H   0  0  0  0  0  0  0  0  0  0  0  0
    0.7404   -0.1139    0.1178 H   0  0  0  0  0  0  0  0  0  0  0  0
   -0.0682   -1.5659   -0.9493 H   0  0  0  0  0  0  0  0  0  0  0  0
  1  3  1  0  0  0  0
  1  2  1  0  0  0  0
  1  5  1  0  0  0  0
  2  8  1  0  0  0  0
  4  1  1  0  0  0  0
  6  2  1  0  0  0  0
  6 10  1  0  0  0  0
  7  2  1  0  0  0  0
  9  6  1  0  0  0  0
  9 13  1  0  0  0  0
  9 12  1  0  0  0  0
 11  6  1  0  0  0  0
 14  9  1  0  0  0  0
M  END
$$$$
