butane_opt
 OpenBabel08242015383D

 14 13  0  0  0  0  0  0  0  0999 V2000
   -3.9577    0.2547   -0.0260 C   0  0  0  0  0  0  0  0  0  0  0  0
   -2.7250   -0.5971    0.1019 C   0  0  0  0  0  0  0  0  0  0  0  0
   -4.8446   -0.2884   -0.0758 H   0  0  0  0  0  0  0  0  0  0  0  0
   -3.9259    0.7865   -0.8869 H   0  0  0  0  0  0  0  0  0  0  0  0
   -3.9474    0.9156    0.8699 H   0  0  0  0  0  0  0  0  0  0  0  0
   -1.4098    0.1922    0.0342 C   0  0  0  0  0  0  0  0  0  0  0  0
   -2.7272   -1.2178   -0.7511 H   0  0  0  0  0  0  0  0  0  0  0  0
   -2.7671   -1.2801    1.0509 H   0  0  0  0  0  0  0  0  0  0  0  0
   -0.1255   -0.7085   -0.0013 C   0  0  0  0  0  0  0  0  0  0  0  0
   -1.3279    0.8580    0.8607 H   0  0  0  0  0  0  0  0  0  0  0  0
   -1.4340    0.8518   -0.9057 H   0  0  0  0  0  0  0  0  0  0  0  0
   -0.1255   -1.2006    0.8042 H   0  0  0  0  0  0  0  0  0  0  0  0
    0.7632   -0.0919    0.1409 H   0  0  0  0  0  0  0  0  0  0  0  0
   -0.0768   -1.5086   -0.9795 H   0  0  0  0  0  0  0  0  0  0  0  0
  1  2  1  0  0  0  0
  1  5  1  0  0  0  0
  2  8  1  0  0  0  0
  3  1  1  0  0  0  0
  4  1  1  0  0  0  0
  6  2  1  0  0  0  0
  6 10  1  0  0  0  0
  7  2  1  0  0  0  0
  9  6  1  0  0  0  0
  9 13  1  0  0  0  0
  9 12  1  0  0  0  0
 11  6  1  0  0  0  0
 14  9  1  0  0  0  0
M  END
$$$$
