14
butane_opt
C  -3.937690   0.275501   0.046671
C  -2.691244  -0.619041   0.035181
H  -4.833932  -0.303264   0.034468
H  -3.889565   0.875311  -0.831944
H  -4.001448   1.018765   0.954036
C  -1.389345   0.152551  -0.042824
H  -2.793739  -1.363253  -0.891530
H  -2.636622  -1.237788   0.886688
C  -0.180600  -0.686780   0.068083
H  -1.451568   0.836286   0.763462
H  -1.393682   0.869058  -0.969676
H  -0.300927  -1.200187   0.889620
H   0.786187  -0.040139   0.153550
H  -0.124806  -1.391223  -0.836149
