butane_opt
 OpenBabel08242015383D

 14 13  0  0  0  0  0  0  0  0999 V2000
   -3.9519    0.2808    0.0604 C   0  0  0  0  0  0  0  0  0  0  0  0
   -2.6873   -0.6272   -0.0268 C   0  0  0  0  0  0  0  0  0  0  0  0
   -4.8237   -0.3142    0.2352 H   0  0  0  0  0  0  0  0  0  0  0  0
   -4.0663    0.9820   -0.8740 H   0  0  0  0  0  0  0  0  0  0  0  0
   -3.8292    0.9374    0.9054 H   0  0  0  0  0  0  0  0  0  0  0  0
   -1.3984    0.1569   -0.0278 C   0  0  0  0  0  0  0  0  0  0  0  0
   -2.8031   -1.3518   -0.8894 H   0  0  0  0  0  0  0  0  0  0  0  0
   -2.6637   -1.2273    0.8672 H   0  0  0  0  0  0  0  0  0  0  0  0
   -0.1719   -0.6671    0.0690 C   0  0  0  0  0  0  0  0  0  0  0  0
   -1.4044    0.7953    0.8208 H   0  0  0  0  0  0  0  0  0  0  0  0
   -1.3733    0.7313   -0.9044 H   0  0  0  0  0  0  0  0  0  0  0  0
   -0.2768   -1.3441    1.0381 H   0  0  0  0  0  0  0  0  0  0  0  0
    0.7499   -0.0597    0.0951 H   0  0  0  0  0  0  0  0  0  0  0  0
   -0.0400   -1.3200   -0.7621 H   0  0  0  0  0  0  0  0  0  0  0  0
  1  3  1  0  0  0  0
  1  5  1  0  0  0  0
  2  1  1  0  0  0  0
  2  8  1  0  0  0  0
  4  1  1  0  0  0  0
  6  2  1  0  0  0  0
  6  9  1  0  0  0  0
  6 10  1  0  0  0  0
  7  2  1  0  0  0  0
  9 13  1  0  0  0  0
  9 12  1  0  0  0  0
 11  6  1  0  0  0  0
 14  9  1  0  0  0  0
M  END
$$$$
