butane_opt
 OpenBabel08242015383D

 14 13  0  0  0  0  0  0  0  0999 V2000
   -3.9245    0.2445    0.0442 C   0  0  0  0  0  0  0  0  0  0  0  0
   -2.7073   -0.5707   -0.0033 C   0  0  0  0  0  0  0  0  0  0  0  0
   -4.8909   -0.3976    0.0008 H   0  0  0  0  0  0  0  0  0  0  0  0
   -3.9374    0.6281   -0.6966 H   0  0  0  0  0  0  0  0  0  0  0  0
   -3.9326    1.0873    1.0364 H   0  0  0  0  0  0  0  0  0  0  0  0
   -1.4231    0.1950   -0.0311 C   0  0  0  0  0  0  0  0  0  0  0  0
   -2.6642   -1.2913   -0.8660 H   0  0  0  0  0  0  0  0  0  0  0  0
   -2.6960   -1.2455    0.9202 H   0  0  0  0  0  0  0  0  0  0  0  0
   -0.1604   -0.7047    0.0698 C   0  0  0  0  0  0  0  0  0  0  0  0
   -1.4362    0.8260    0.7986 H   0  0  0  0  0  0  0  0  0  0  0  0
   -1.3730    0.8239   -0.9442 H   0  0  0  0  0  0  0  0  0  0  0  0
   -0.1213   -1.4971    1.0183 H   0  0  0  0  0  0  0  0  0  0  0  0
    0.7373   -0.1493   -0.0577 H   0  0  0  0  0  0  0  0  0  0  0  0
   -0.1138   -1.2255   -0.6811 H   0  0  0  0  0  0  0  0  0  0  0  0
  1  5  1  0  0  0  0
  2  1  1  0  0  0  0
  2  8  1  0  0  0  0
  3  1  1  0  0  0  0
  4  1  1  0  0  0  0
  6  2  1  0  0  0  0
  6  9  1  0  0  0  0
  6 10  1  0  0  0  0
  7  2  1  0  0  0  0
  9 12  1  0  0  0  0
 11  6  1  0  0  0  0
 13  9  1  0  0  0  0
 14  9  1  0  0  0  0
M  END
$$$$
