14
butane_opt
C  -3.970820   0.243870  -0.038737
C  -2.700972  -0.588327   0.081035
H  -4.896308  -0.336691  -0.021234
H  -3.928642   0.928679  -0.985765
H  -3.998237   0.836169   0.758376
C  -1.401946   0.202068   0.101306
H  -2.671564  -1.259336  -0.797853
H  -2.767474  -1.287281   1.002225
C  -0.142422  -0.707286  -0.025558
H  -1.271778   0.939325   1.027185
H  -1.474420   0.730104  -0.744616
H   0.028857  -1.410875   0.909276
H   0.735254  -0.169530  -0.286799
H  -0.178334  -1.241729  -0.832833
