14
butane_opt
C  -3.953313   0.275245   0.038852
C  -2.698143  -0.636500   0.021674
H  -4.865689  -0.301913   0.041786
H  -4.032163   0.873150  -0.834325
H  -4.016566   0.953520   0.927370
C  -1.398824   0.187941  -0.021680
H  -2.711081  -1.301432  -0.819146
H  -2.654121  -1.313693   0.925742
C  -0.158067  -0.684901   0.049216
H  -1.366934   0.843540   0.817939
H  -1.371684   0.842798  -0.941132
H  -0.189217  -1.263891   0.930784
H   0.773596  -0.079080   0.176580
H  -0.089200  -1.425274  -0.842705
