14
butane_opt
C  -3.928134   0.263123  -0.005515
C  -2.699660  -0.616449   0.070607
H  -4.869819  -0.354926   0.085017
H  -4.000072   0.924340  -0.948919
H  -3.919205   0.867856   0.811665
C  -1.403697   0.196632   0.027229
H  -2.650291  -1.297203  -0.773093
H  -2.720299  -1.236216   0.973085
C  -0.172848  -0.704423   0.013920
H  -1.398259   0.854757   0.852234
H  -1.394246   0.844525  -0.861254
H  -0.180229  -1.160395   0.818845
H   0.702433  -0.119998   0.106044
H  -0.126759  -1.474006  -0.919874
