butane_opt
 OpenBabel08242015383D

 14 13  0  0  0  0  0  0  0  0999 V2000
   -3.9217    0.2523    0.0436 C   0  0  0  0  0  0  0  0  0  0  0  0
   -2.6849   -0.6041   -0.0230 C   0  0  0  0  0  0  0  0  0  0  0  0
   -4.8514   -0.3254    0.3091 H   0  0  0  0  0  0  0  0  0  0  0  0
   -4.1227    0.9181   -0.9020 H   0  0  0  0  0  0  0  0  0  0  0  0
   -3.7761    0.7933    0.8314 H   0  0  0  0  0  0  0  0  0  0  0  0
   -1.4198    0.1947   -0.0008 C   0  0  0  0  0  0  0  0  0  0  0  0
   -2.6886   -1.2652   -0.8944 H   0  0  0  0  0  0  0  0  0  0  0  0
   -2.7100   -1.2355    0.9062 H   0  0  0  0  0  0  0  0  0  0  0  0
   -0.1785   -0.6955    0.0595 C   0  0  0  0  0  0  0  0  0  0  0  0
   -1.4763    0.9109    0.8921 H   0  0  0  0  0  0  0  0  0  0  0  0
   -1.3297    0.8238   -0.8766 H   0  0  0  0  0  0  0  0  0  0  0  0
   -0.2102   -1.3624    0.9928 H   0  0  0  0  0  0  0  0  0  0  0  0
    0.6869   -0.1506    0.0183 H   0  0  0  0  0  0  0  0  0  0  0  0
   -0.0774   -1.3569   -0.8052 H   0  0  0  0  0  0  0  0  0  0  0  0
  1  3  1  0  0  0  0
  1  5  1  0  0  0  0
  2  6  1  0  0  0  0
  2  1  1  0  0  0  0
  2  8  1  0  0  0  0
  4  1  1  0  0  0  0
  6  9  1  0  0  0  0
  6 10  1  0  0  0  0
  7  2  1  0  0  0  0
  9 12  1  0  0  0  0
 11  6  1  0  0  0  0
 13  9  1  0  0  0  0
 14  9  1  0  0  0  0
M  END
$$$$
