butane_opt
 OpenBabel08242015383D

 14 13  0  0  0  0  0  0  0  0999 V2000
   -3.9667    0.3150   -0.0635 C   0  0  0  0  0  0  0  0  0  0  0  0
   -2.6441   -0.6398    0.1490 C   0  0  0  0  0  0  0  0  0  0  0  0
   -4.9109   -0.3083   -0.2318 H   0  0  0  0  0  0  0  0  0  0  0  0
   -3.7416    0.6316   -0.8364 H   0  0  0  0  0  0  0  0  0  0  0  0
   -4.1881    1.1446    0.8305 H   0  0  0  0  0  0  0  0  0  0  0  0
   -1.3736    0.1284    0.0689 C   0  0  0  0  0  0  0  0  0  0  0  0
   -2.6367   -1.2906   -0.6746 H   0  0  0  0  0  0  0  0  0  0  0  0
   -2.5894   -1.4312    1.0969 H   0  0  0  0  0  0  0  0  0  0  0  0
   -0.2267   -0.6520   -0.0145 C   0  0  0  0  0  0  0  0  0  0  0  0
   -1.4051    0.7047    0.7919 H   0  0  0  0  0  0  0  0  0  0  0  0
   -1.4755    0.7665   -0.8623 H   0  0  0  0  0  0  0  0  0  0  0  0
   -0.0418   -1.0333    0.7246 H   0  0  0  0  0  0  0  0  0  0  0  0
    0.8234   -0.0265   -0.0785 H   0  0  0  0  0  0  0  0  0  0  0  0
   -0.3506   -1.4251   -0.9828 H   0  0  0  0  0  0  0  0  0  0  0  0
  1  2  1  0  0  0  0
  1  5  1  0  0  0  0
  2  8  1  0  0  0  0
  3  1  1  0  0  0  0
  4  1  1  0  0  0  0
  6  2  1  0  0  0  0
  6 10  1  0  0  0  0
  7  2  1  0  0  0  0
  9  6  1  0  0  0  0
  9 12  1  0  0  0  0
 11  6  1  0  0  0  0
 13  9  1  0  0  0  0
 14  9  1  0  0  0  0
M  END
$$$$
