14
butane_opt
C  -3.955477   0.289089  -0.021197
C  -2.691342  -0.612001   0.091532
H  -4.991569  -0.401494   0.205177
H  -3.987807   1.056901  -1.057425
H  -4.065780   0.848207   0.779558
C  -1.381930   0.123401   0.012244
H  -2.647457  -1.189536  -0.605080
H  -2.665263  -1.435791   1.059984
C  -0.168105  -0.653260  -0.024942
H  -1.272452   0.856286   0.989920
H  -1.481315   0.776075  -0.817399
H  -0.402958  -0.941728   0.708547
H   0.745225  -0.110554   0.497982
H   0.110998  -1.704831  -1.057526
