14
butane_opt
C  -3.946807   0.239756  -0.012435
C  -2.758077  -0.601998   0.023405
H  -4.787551  -0.292839   0.038534
H  -3.992417   1.004780  -0.922785
H  -4.016382   0.795337   0.746700
C  -1.392069   0.207733   0.096430
H  -2.639269  -1.181605  -0.686789
H  -2.871386  -1.276023   0.937661
C  -0.134262  -0.722696  -0.004956
H  -1.371770   1.108391   1.065461
H  -1.364257   0.726526  -0.755556
H   0.159566  -1.482333   0.944954
H   0.742224  -0.151727  -0.441634
H  -0.117917  -1.189231  -0.720491
