14
butane_opt
C  -3.927541   0.239068  -0.052597
C  -2.682700  -0.538176   0.073870
H  -4.850157  -0.430430   0.402060
H  -3.790939   1.164325  -1.189450
H  -3.850124   0.494291   0.574876
C  -1.410314   0.188286   0.108904
H  -2.817279  -1.181990  -0.690132
H  -2.772809  -1.342259   1.080813
C  -0.192681  -0.720114  -0.063362
H  -1.442751   1.148781   1.119681
H  -1.376736   0.608848  -0.653774
H  -0.138350  -1.290269   0.831960
H   0.711828  -0.095361   0.068287
H  -0.144774  -1.562439  -0.959661
