butane_opt
 OpenBabel08242015383D

 14 13  0  0  0  0  0  0  0  0999 V2000
   -3.9188    0.2254    0.0958 C   0  0  0  0  0  0  0  0  0  0  0  0
   -2.7055   -0.5703   -0.0493 C   0  0  0  0  0  0  0  0  0  0  0  0
   -4.9381   -0.5365   -0.0121 H   0  0  0  0  0  0  0  0  0  0  0  0
   -3.7596    0.6564   -0.6363 H   0  0  0  0  0  0  0  0  0  0  0  0
   -3.9417    1.2038    1.1155 H   0  0  0  0  0  0  0  0  0  0  0  0
   -1.4052    0.2353   -0.0824 C   0  0  0  0  0  0  0  0  0  0  0  0
   -2.8925   -1.3236   -0.9649 H   0  0  0  0  0  0  0  0  0  0  0  0
   -2.6131   -1.0409    0.7272 H   0  0  0  0  0  0  0  0  0  0  0  0
   -0.1805   -0.7396    0.1198 C   0  0  0  0  0  0  0  0  0  0  0  0
   -1.6083    0.9691    0.7773 H   0  0  0  0  0  0  0  0  0  0  0  0
   -1.3864    0.7086   -0.9701 H   0  0  0  0  0  0  0  0  0  0  0  0
   -0.0150   -1.7482    1.2332 H   0  0  0  0  0  0  0  0  0  0  0  0
    0.7608   -0.1593   -0.3009 H   0  0  0  0  0  0  0  0  0  0  0  0
   -0.1035   -1.0121   -0.4744 H   0  0  0  0  0  0  0  0  0  0  0  0
  1  5  1  0  0  0  0
  2  1  1  0  0  0  0
  2  8  1  0  0  0  0
  3  1  1  0  0  0  0
  4  1  1  0  0  0  0
  6  2  1  0  0  0  0
  6  9  1  0  0  0  0
  6 10  1  0  0  0  0
  7  2  1  0  0  0  0
  9 12  1  0  0  0  0
 11  6  1  0  0  0  0
 13  9  1  0  0  0  0
 14  9  1  0  0  0  0
M  END
$$$$
