butane_opt
 OpenBabel08242015383D

 14 13  0  0  0  0  0  0  0  0999 V2000
   -3.9087    0.2140    0.0358 C   0  0  0  0  0  0  0  0  0  0  0  0
   -2.6894   -0.5633   -0.0123 C   0  0  0  0  0  0  0  0  0  0  0  0
   -4.8828   -0.4094    0.4138 H   0  0  0  0  0  0  0  0  0  0  0  0
   -4.1038    0.9313   -0.8076 H   0  0  0  0  0  0  0  0  0  0  0  0
   -3.6644    0.7327    0.8132 H   0  0  0  0  0  0  0  0  0  0  0  0
   -1.4550    0.2394   -0.0078 C   0  0  0  0  0  0  0  0  0  0  0  0
   -2.6338   -1.3598   -0.9263 H   0  0  0  0  0  0  0  0  0  0  0  0
   -2.7252   -1.0119    0.8295 H   0  0  0  0  0  0  0  0  0  0  0  0
   -0.1906   -0.7292    0.0708 C   0  0  0  0  0  0  0  0  0  0  0  0
   -1.4736    0.7771    0.7371 H   0  0  0  0  0  0  0  0  0  0  0  0
   -1.3037    0.9153   -0.9673 H   0  0  0  0  0  0  0  0  0  0  0  0
   -0.0071   -1.3814    0.9656 H   0  0  0  0  0  0  0  0  0  0  0  0
    0.7462   -0.1235    0.1942 H   0  0  0  0  0  0  0  0  0  0  0  0
   -0.0477   -1.4857   -0.8537 H   0  0  0  0  0  0  0  0  0  0  0  0
  1  3  1  0  0  0  0
  1  5  1  0  0  0  0
  2  6  1  0  0  0  0
  2  1  1  0  0  0  0
  2  8  1  0  0  0  0
  4  1  1  0  0  0  0
  6  9  1  0  0  0  0
  6 10  1  0  0  0  0
  7  2  1  0  0  0  0
  9 13  1  0  0  0  0
  9 12  1  0  0  0  0
 11  6  1  0  0  0  0
 14  9  1  0  0  0  0
M  END
$$$$
