14
butane_opt
C  -3.944208   0.283279   0.117017
C  -2.680768  -0.637225  -0.052789
H  -4.795134  -0.211586   0.163879
H  -3.990798   0.936187  -0.769295
H  -3.826632   0.981019   1.007196
C  -1.401848   0.148016  -0.087889
H  -2.752214  -1.257996  -0.867828
H  -2.597429  -1.175405   0.772853
C  -0.191200  -0.689858   0.147398
H  -1.461929   0.583947   0.570739
H  -1.257727   0.923211  -1.212340
H  -0.531076  -1.036548   0.838294
H   0.905631   0.153065   0.329715
H  -0.122849  -1.600269  -0.910928
