butane_opt
 OpenBabel08242015383D

 14 13  0  0  0  0  0  0  0  0999 V2000
   -3.9468    0.2956   -0.0899 C   0  0  0  0  0  0  0  0  0  0  0  0
   -2.6859   -0.6252    0.1716 C   0  0  0  0  0  0  0  0  0  0  0  0
   -4.9072   -0.3754   -0.1976 H   0  0  0  0  0  0  0  0  0  0  0  0
   -3.9475    0.9732   -1.1262 H   0  0  0  0  0  0  0  0  0  0  0  0
   -4.0762    0.8583    0.6840 H   0  0  0  0  0  0  0  0  0  0  0  0
   -1.4067    0.1190    0.1573 C   0  0  0  0  0  0  0  0  0  0  0  0
   -2.4401   -1.3185   -0.7100 H   0  0  0  0  0  0  0  0  0  0  0  0
   -2.6972   -1.1532    0.9379 H   0  0  0  0  0  0  0  0  0  0  0  0
   -0.1905   -0.6553   -0.0943 C   0  0  0  0  0  0  0  0  0  0  0  0
   -1.2281    0.9032    1.1774 H   0  0  0  0  0  0  0  0  0  0  0  0
   -1.4465    0.6336   -0.7062 H   0  0  0  0  0  0  0  0  0  0  0  0
    0.0496   -1.4229    0.8998 H   0  0  0  0  0  0  0  0  0  0  0  0
    0.7764   -0.0164   -0.4029 H   0  0  0  0  0  0  0  0  0  0  0  0
   -0.3590   -1.1465   -0.8446 H   0  0  0  0  0  0  0  0  0  0  0  0
  1  2  1  0  0  0  0
  1  5  1  0  0  0  0
  2  8  1  0  0  0  0
  3  1  1  0  0  0  0
  4  1  1  0  0  0  0
  6  2  1  0  0  0  0
  6 10  1  0  0  0  0
  7  2  1  0  0  0  0
  9  6  1  0  0  0  0
  9 12  1  0  0  0  0
 11  6  1  0  0  0  0
 13  9  1  0  0  0  0
 14  9  1  0  0  0  0
M  END
$$$$
