14
butane_opt
C  -3.941971   0.284827  -0.099223
C  -2.702144  -0.602093   0.189370
H  -4.904630  -0.433721  -0.302862
H  -3.679991   0.785403  -0.932540
H  -4.105461   0.873702   0.775590
C  -1.371930   0.201857   0.116516
H  -2.570278  -1.212854  -0.616803
H  -2.885388  -1.326336   1.160871
C  -0.181638  -0.714347  -0.094228
H  -1.298266   0.889594   1.033128
H  -1.598880   0.650330  -0.672092
H  -0.152526  -1.258375   0.727289
H   0.708803  -0.089675  -0.158175
H  -0.165561  -1.384166  -0.921687
