14
butane_opt
C  -3.987743   0.291098  -0.069789
C  -2.686541  -0.660093   0.098733
H  -4.826281  -0.229115  -0.073010
H  -4.045555   1.032395  -1.060296
H  -4.207932   0.969723   0.814196
C  -1.367406   0.148146   0.129211
H  -2.704027  -1.255123  -0.730322
H  -2.858450  -1.235578   0.998139
C  -0.128848  -0.661750  -0.027064
H  -1.254456   0.801555   1.022565
H  -1.444985   0.675845  -0.633357
H   0.149968  -1.383710   0.861298
H   0.847763  -0.064339  -0.444371
H  -0.622836  -1.167333  -0.867187
