14
butane_opt
C  -3.939816   0.289924  -0.044370
C  -2.664143  -0.611013   0.083958
H  -4.773637  -0.235347  -0.001000
H  -3.839087   0.951142  -1.030216
H  -3.984312   0.878171   0.828636
C  -1.437157   0.112332   0.080189
H  -2.667132  -1.399394  -0.812983
H  -2.728713  -1.314845   1.039412
C  -0.176636  -0.657685  -0.028726
H  -1.363849   1.000799   1.079276
H  -1.426678   0.540917  -0.567488
H  -0.128342  -1.451203   0.969124
H   0.825517   0.028441  -0.409846
H  -0.350547  -1.025482  -0.744256
