14
butane_opt
C  -3.932606   0.217771  -0.104581
C  -2.721928  -0.588651   0.124885
H  -4.752568  -0.320919  -0.059271
H  -3.946335   0.903618  -1.017282
H  -4.005065   0.801343   0.646420
C  -1.421759   0.244712   0.208618
H  -2.586499  -1.226037  -0.725775
H  -2.764065  -1.214928   0.998433
C  -0.156107  -0.725090  -0.087134
H  -1.290997   0.924806   1.006649
H  -1.559412   0.873873  -0.639903
H   0.283434  -1.623446   0.880537
H   0.780478  -0.153316  -0.429466
H  -0.386012  -1.217214  -0.889990
