butane_opt
 OpenBabel08242015383D

 14 13  0  0  0  0  0  0  0  0999 V2000
   -3.9800    0.2838   -0.0290 C   0  0  0  0  0  0  0  0  0  0  0  0
   -2.6729   -0.6627    0.1069 C   0  0  0  0  0  0  0  0  0  0  0  0
   -4.9224   -0.3151    0.0259 H   0  0  0  0  0  0  0  0  0  0  0  0
   -4.0885    1.0059   -0.9830 H   0  0  0  0  0  0  0  0  0  0  0  0
   -4.1931    0.9708    0.8200 H   0  0  0  0  0  0  0  0  0  0  0  0
   -1.3908    0.1657    0.0344 C   0  0  0  0  0  0  0  0  0  0  0  0
   -2.7109   -1.1794   -0.6109 H   0  0  0  0  0  0  0  0  0  0  0  0
   -2.8215   -1.3187    1.0717 H   0  0  0  0  0  0  0  0  0  0  0  0
   -0.1244   -0.6797   -0.0449 C   0  0  0  0  0  0  0  0  0  0  0  0
   -1.3455    0.9320    0.8781 H   0  0  0  0  0  0  0  0  0  0  0  0
   -1.4326    0.7042   -0.7465 H   0  0  0  0  0  0  0  0  0  0  0  0
   -0.4216   -1.0234    0.7941 H   0  0  0  0  0  0  0  0  0  0  0  0
    0.8893   -0.0744    0.2697 H   0  0  0  0  0  0  0  0  0  0  0  0
    0.0631   -1.4719   -0.9213 H   0  0  0  0  0  0  0  0  0  0  0  0
  1  3  1  0  0  0  0
  1  2  1  0  0  0  0
  1  5  1  0  0  0  0
  2  8  1  0  0  0  0
  4  1  1  0  0  0  0
  6  2  1  0  0  0  0
  6 10  1  0  0  0  0
  7  2  1  0  0  0  0
  9  6  1  0  0  0  0
  9 13  1  0  0  0  0
  9 12  1  0  0  0  0
 11  6  1  0  0  0  0
 14  9  1  0  0  0  0
M  END
$$$$
