14
butane_opt
C  -3.931227   0.253187   0.065375
C  -2.704253  -0.587555  -0.020216
H  -4.874194  -0.393407   0.134197
H  -3.878572   0.901579  -0.899258
H  -3.875593   0.815145   0.872635
C  -1.413932   0.195209  -0.005937
H  -2.826214  -1.332109  -0.911931
H  -2.684982  -1.098578   0.805730
C  -0.164784  -0.708577   0.071872
H  -1.401600   0.860816   0.796988
H  -1.410919   0.850641  -0.893927
H  -0.103373  -1.460314   1.045231
H   0.732902  -0.147320  -0.069450
H  -0.132435  -1.299026  -0.768265
