14
butane_opt
C  -4.013226   0.314177  -0.081646
C  -2.720268  -0.692503   0.148141
H  -4.872215  -0.249187  -0.076929
H  -3.883398   1.012989  -1.158264
H  -4.081085   0.887329   0.735620
C  -1.369541   0.158840   0.142312
H  -2.591591  -1.348028  -0.778723
H  -2.602819  -1.139594   0.896007
C  -0.149472  -0.665307  -0.058595
H  -1.104349   0.906513   1.102821
H  -1.454094   0.698590  -0.672052
H   0.057234  -1.394212   0.917025
H   0.795090  -0.010934  -0.478858
H  -0.282673  -1.198753  -0.847936
