butane_opt
 OpenBabel08242015383D

 14 13  0  0  0  0  0  0  0  0999 V2000
   -3.9882    0.3007   -0.0127 C   0  0  0  0  0  0  0  0  0  0  0  0
   -2.6966   -0.6907    0.0369 C   0  0  0  0  0  0  0  0  0  0  0  0
   -4.8253   -0.1422   -0.0839 H   0  0  0  0  0  0  0  0  0  0  0  0
   -4.0498    0.8758   -0.8470 H   0  0  0  0  0  0  0  0  0  0  0  0
   -4.0860    1.0993    0.9031 H   0  0  0  0  0  0  0  0  0  0  0  0
   -1.3508    0.1768    0.0523 C   0  0  0  0  0  0  0  0  0  0  0  0
   -2.6763   -1.3057   -0.7449 H   0  0  0  0  0  0  0  0  0  0  0  0
   -2.8369   -1.3960    0.9959 H   0  0  0  0  0  0  0  0  0  0  0  0
   -0.1451   -0.6562   -0.0026 C   0  0  0  0  0  0  0  0  0  0  0  0
   -1.2420    0.8874    1.0525 H   0  0  0  0  0  0  0  0  0  0  0  0
   -1.4982    0.7781   -0.7912 H   0  0  0  0  0  0  0  0  0  0  0  0
   -0.0466   -1.5695    1.0814 H   0  0  0  0  0  0  0  0  0  0  0  0
    0.7937   -0.0074   -0.2039 H   0  0  0  0  0  0  0  0  0  0  0  0
   -0.4111   -1.2357   -0.7649 H   0  0  0  0  0  0  0  0  0  0  0  0
  1  2  1  0  0  0  0
  1  5  1  0  0  0  0
  2  6  1  0  0  0  0
  2  8  1  0  0  0  0
  3  1  1  0  0  0  0
  4  1  1  0  0  0  0
  6 10  1  0  0  0  0
  7  2  1  0  0  0  0
  9  6  1  0  0  0  0
  9 12  1  0  0  0  0
 11  6  1  0  0  0  0
 13  9  1  0  0  0  0
 14  9  1  0  0  0  0
M  END
$$$$
