butane_opt
 OpenBabel08242015383D

 14 13  0  0  0  0  0  0  0  0999 V2000
   -3.9183    0.2430   -0.0971 C   0  0  0  0  0  0  0  0  0  0  0  0
   -2.7191   -0.5869    0.2049 C   0  0  0  0  0  0  0  0  0  0  0  0
   -4.8212   -0.4232   -0.5158 H   0  0  0  0  0  0  0  0  0  0  0  0
   -3.6551    0.7585   -0.9478 H   0  0  0  0  0  0  0  0  0  0  0  0
   -4.0284    1.0824    0.8776 H   0  0  0  0  0  0  0  0  0  0  0  0
   -1.4087    0.2149    0.1101 C   0  0  0  0  0  0  0  0  0  0  0  0
   -2.6236   -1.2351   -0.6037 H   0  0  0  0  0  0  0  0  0  0  0  0
   -2.8108   -1.3645    1.2215 H   0  0  0  0  0  0  0  0  0  0  0  0
   -0.1894   -0.7139   -0.0694 C   0  0  0  0  0  0  0  0  0  0  0  0
   -1.4150    0.8544    0.9933 H   0  0  0  0  0  0  0  0  0  0  0  0
   -1.3635    0.9043   -0.8360 H   0  0  0  0  0  0  0  0  0  0  0  0
    0.1411   -1.1761    0.6881 H   0  0  0  0  0  0  0  0  0  0  0  0
    0.6483   -0.2525   -0.1602 H   0  0  0  0  0  0  0  0  0  0  0  0
   -0.2685   -1.5113   -1.0772 H   0  0  0  0  0  0  0  0  0  0  0  0
  1  2  1  0  0  0  0
  1  5  1  0  0  0  0
  2  8  1  0  0  0  0
  3  1  1  0  0  0  0
  4  1  1  0  0  0  0
  6  2  1  0  0  0  0
  6 10  1  0  0  0  0
  7  2  1  0  0  0  0
  9  6  1  0  0  0  0
  9 12  1  0  0  0  0
 11  6  1  0  0  0  0
 13  9  1  0  0  0  0
 14  9  1  0  0  0  0
M  END
$$$$
