14
butane_opt
C  -3.959067   0.285410  -0.080038
C  -2.648047  -0.664273   0.145699
H  -4.787936  -0.222553  -0.019587
H  -3.934912   1.128948  -1.210118
H  -3.995396   0.704878   0.631942
C  -1.421071   0.169825   0.149609
H  -2.521808  -1.362369  -0.763513
H  -2.648156  -1.146670   0.936016
C  -0.206832  -0.664897  -0.066264
H  -1.106110   0.896942   1.086684
H  -1.499504   0.656702  -0.589413
H  -0.025883  -1.383838   0.862579
H   0.725990   0.014288  -0.330168
H  -0.418988  -1.253636  -0.962332
