14
butane_opt
C  -3.937542   0.218993   0.065082
C  -2.723806  -0.541865   0.010817
H  -4.911737  -0.531863   0.027356
H  -4.027638   0.770308  -0.824148
H  -3.979321   1.048978   1.042800
C  -1.410802   0.224359  -0.100437
H  -2.989920  -1.173159  -0.792290
H  -2.658017  -1.268717   1.027497
C  -0.122752  -0.745426   0.103312
H  -1.424215   0.881180   0.773182
H  -1.368103   0.829738  -1.027829
H  -0.303339  -1.131031   0.861700
H   0.813438  -0.170498   0.324406
H   0.199487  -1.617901  -0.955223
