butane_opt
 OpenBabel08242015383D

 14 13  0  0  0  0  0  0  0  0999 V2000
   -3.9077    0.3162    0.0697 C   0  0  0  0  0  0  0  0  0  0  0  0
   -2.6791   -0.6601   -0.0104 C   0  0  0  0  0  0  0  0  0  0  0  0
   -4.8344   -0.2831   -0.1587 H   0  0  0  0  0  0  0  0  0  0  0  0
   -3.9530    0.5167   -0.5853 H   0  0  0  0  0  0  0  0  0  0  0  0
   -4.1274    1.3187    1.1842 H   0  0  0  0  0  0  0  0  0  0  0  0
   -1.3935    0.1289   -0.0782 C   0  0  0  0  0  0  0  0  0  0  0  0
   -2.7758   -1.2301   -0.7894 H   0  0  0  0  0  0  0  0  0  0  0  0
   -2.6502   -1.2286    0.8575 H   0  0  0  0  0  0  0  0  0  0  0  0
   -0.2138   -0.6462    0.0721 C   0  0  0  0  0  0  0  0  0  0  0  0
   -1.3079    0.7154    0.7414 H   0  0  0  0  0  0  0  0  0  0  0  0
   -1.4268    0.7486   -1.0550 H   0  0  0  0  0  0  0  0  0  0  0  0
   -0.3573   -1.4840    1.1963 H   0  0  0  0  0  0  0  0  0  0  0  0
    0.8124    0.0284    0.0979 H   0  0  0  0  0  0  0  0  0  0  0  0
   -0.0987   -1.2266   -0.6207 H   0  0  0  0  0  0  0  0  0  0  0  0
  1  5  1  0  0  0  0
  2  1  1  0  0  0  0
  2  8  1  0  0  0  0
  3  1  1  0  0  0  0
  4  1  1  0  0  0  0
  6  2  1  0  0  0  0
  6  9  1  0  0  0  0
  6 10  1  0  0  0  0
  7  2  1  0  0  0  0
  9 13  1  0  0  0  0
  9 12  1  0  0  0  0
 11  6  1  0  0  0  0
 14  9  1  0  0  0  0
M  END
$$$$
