14
butane_opt
C  -3.881544   0.235773   0.049237
C  -2.708508  -0.554421   0.025673
H  -4.903623  -0.442216  -0.165833
H  -3.791454   0.562074  -0.617532
H  -4.033614   1.148746   1.102799
C  -1.402469   0.222084  -0.036786
H  -2.861816  -1.364086  -0.883282
H  -2.746317  -1.121636   0.829645
C  -0.176431  -0.745877   0.061910
H  -1.484255   0.695234   0.605016
H  -1.570831   0.958628  -1.007033
H  -0.223239  -1.460789   1.109072
H   0.768858  -0.089056   0.056654
H  -0.130346  -1.264435  -0.733210
