butane_opt
 OpenBabel08242015383D

 14 13  0  0  0  0  0  0  0  0999 V2000
   -3.9398    0.2622   -0.0881 C   0  0  0  0  0  0  0  0  0  0  0  0
   -2.7554   -0.5871    0.2131 C   0  0  0  0  0  0  0  0  0  0  0  0
   -4.9253   -0.4528   -0.4735 H   0  0  0  0  0  0  0  0  0  0  0  0
   -3.6511    0.5815   -0.8668 H   0  0  0  0  0  0  0  0  0  0  0  0
   -4.2061    1.0398    0.8549 H   0  0  0  0  0  0  0  0  0  0  0  0
   -1.3965    0.2250    0.0812 C   0  0  0  0  0  0  0  0  0  0  0  0
   -2.7118   -1.1648   -0.5929 H   0  0  0  0  0  0  0  0  0  0  0  0
   -2.9394   -1.2827    1.1540 H   0  0  0  0  0  0  0  0  0  0  0  0
   -0.1016   -0.7335   -0.0749 C   0  0  0  0  0  0  0  0  0  0  0  0
   -1.4037    0.9757    0.8797 H   0  0  0  0  0  0  0  0  0  0  0  0
   -1.5705    0.7147   -0.6946 H   0  0  0  0  0  0  0  0  0  0  0  0
   -0.0837   -1.2949    0.7629 H   0  0  0  0  0  0  0  0  0  0  0  0
    0.8218   -0.1832   -0.1433 H   0  0  0  0  0  0  0  0  0  0  0  0
   -0.0284   -1.4197   -1.0020 H   0  0  0  0  0  0  0  0  0  0  0  0
  1  2  1  0  0  0  0
  1  5  1  0  0  0  0
  2  8  1  0  0  0  0
  3  1  1  0  0  0  0
  4  1  1  0  0  0  0
  6  2  1  0  0  0  0
  6 10  1  0  0  0  0
  7  2  1  0  0  0  0
  9  6  1  0  0  0  0
  9 12  1  0  0  0  0
 11  6  1  0  0  0  0
 13  9  1  0  0  0  0
 14  9  1  0  0  0  0
M  END
$$$$
