butane_opt
 OpenBabel08242015383D

 14 13  0  0  0  0  0  0  0  0999 V2000
   -3.9445    0.2234   -0.0458 C   0  0  0  0  0  0  0  0  0  0  0  0
   -2.7491   -0.5608    0.1000 C   0  0  0  0  0  0  0  0  0  0  0  0
   -4.8938   -0.3778    0.1614 H   0  0  0  0  0  0  0  0  0  0  0  0
   -3.9782    0.8475   -0.8890 H   0  0  0  0  0  0  0  0  0  0  0  0
   -3.9339    0.9121    0.8035 H   0  0  0  0  0  0  0  0  0  0  0  0
   -1.4290    0.2356    0.0596 C   0  0  0  0  0  0  0  0  0  0  0  0
   -2.7421   -1.2629   -0.7766 H   0  0  0  0  0  0  0  0  0  0  0  0
   -2.8925   -1.1910    0.9872 H   0  0  0  0  0  0  0  0  0  0  0  0
   -0.1070   -0.7350   -0.0016 C   0  0  0  0  0  0  0  0  0  0  0  0
   -1.3553    0.7623    0.8242 H   0  0  0  0  0  0  0  0  0  0  0  0
   -1.3372    0.8404   -0.8959 H   0  0  0  0  0  0  0  0  0  0  0  0
    0.0203   -1.2361    0.7483 H   0  0  0  0  0  0  0  0  0  0  0  0
    0.8120   -0.1364    0.0618 H   0  0  0  0  0  0  0  0  0  0  0  0
    0.0320   -1.5829   -0.9350 H   0  0  0  0  0  0  0  0  0  0  0  0
  1  2  1  0  0  0  0
  1  3  1  0  0  0  0
  1  5  1  0  0  0  0
  2  8  1  0  0  0  0
  4  1  1  0  0  0  0
  6  2  1  0  0  0  0
  6 10  1  0  0  0  0
  7  2  1  0  0  0  0
  9  6  1  0  0  0  0
  9 13  1  0  0  0  0
  9 12  1  0  0  0  0
 11  6  1  0  0  0  0
 14  9  1  0  0  0  0
M  END
$$$$
