butane_opt
 OpenBabel08242015383D

 14 13  0  0  0  0  0  0  0  0999 V2000
   -3.9828    0.2958    0.1343 C   0  0  0  0  0  0  0  0  0  0  0  0
   -2.6633   -0.6210   -0.0774 C   0  0  0  0  0  0  0  0  0  0  0  0
   -4.9087   -0.2863    0.1185 H   0  0  0  0  0  0  0  0  0  0  0  0
   -4.0929    1.0017   -0.8139 H   0  0  0  0  0  0  0  0  0  0  0  0
   -3.8606    0.9275    1.0346 H   0  0  0  0  0  0  0  0  0  0  0  0
   -1.3676    0.1227   -0.1126 C   0  0  0  0  0  0  0  0  0  0  0  0
   -2.9177   -1.3769   -0.9515 H   0  0  0  0  0  0  0  0  0  0  0  0
   -2.5564   -1.2714    0.8584 H   0  0  0  0  0  0  0  0  0  0  0  0
   -0.1847   -0.6592    0.1301 C   0  0  0  0  0  0  0  0  0  0  0  0
   -1.3578    0.7558    0.6539 H   0  0  0  0  0  0  0  0  0  0  0  0
   -1.2241    0.7907   -0.9918 H   0  0  0  0  0  0  0  0  0  0  0  0
   -0.3997   -1.2748    1.0138 H   0  0  0  0  0  0  0  0  0  0  0  0
    0.7182    0.0091    0.3605 H   0  0  0  0  0  0  0  0  0  0  0  0
   -0.0461   -1.4027   -0.7650 H   0  0  0  0  0  0  0  0  0  0  0  0
  1  5  1  0  0  0  0
  2  1  1  0  0  0  0
  2  8  1  0  0  0  0
  3  1  1  0  0  0  0
  4  1  1  0  0  0  0
  6  2  1  0  0  0  0
  6  9  1  0  0  0  0
  6 10  1  0  0  0  0
  7  2  1  0  0  0  0
  9 13  1  0  0  0  0
  9 12  1  0  0  0  0
 11  6  1  0  0  0  0
 14  9  1  0  0  0  0
M  END
$$$$
