14
butane_opt
C  -3.996118   0.301248  -0.084744
C  -2.686543  -0.657232   0.201670
H  -4.787537  -0.242246  -0.403713
H  -3.843148   0.669570  -0.856567
H  -4.295952   1.185038   0.930719
C  -1.366707   0.161439   0.049433
H  -2.621424  -1.180359  -0.604257
H  -2.768561  -1.322618   1.163342
C  -0.194896  -0.667155  -0.060366
H  -1.172209   0.859128   0.949306
H  -1.260312   0.609639  -0.714322
H  -0.180206  -1.275017   0.799513
H   0.840941   0.001285  -0.059643
H  -0.024104  -1.422110  -1.030845
