butane_opt
 OpenBabel08242015383D

 14 12  0  0  0  0  0  0  0  0999 V2000
   -3.9867    0.2665   -0.0116 C   0  0  0  0  0  0  0  0  0  0  0  0
   -2.6838   -0.6547    0.0749 C   0  0  0  0  0  0  0  0  0  0  0  0
   -4.8373   -0.2665    0.0953 H   0  0  0  0  0  0  0  0  0  0  0  0
   -4.0769    1.0591   -1.0202 H   0  0  0  0  0  0  0  0  0  0  0  0
   -3.9105    0.9113    0.8160 H   0  0  0  0  0  0  0  0  0  0  0  0
   -1.3867    0.2076    0.0074 C   0  0  0  0  0  0  0  0  0  0  0  0
   -2.7010   -1.2787   -0.6550 H   0  0  0  0  0  0  0  0  0  0  0  0
   -2.5066   -1.4903    1.1213 H   0  0  0  0  0  0  0  0  0  0  0  0
   -0.1742   -0.6726    0.0223 C   0  0  0  0  0  0  0  0  0  0  0  0
   -1.3904    0.9282    0.8654 H   0  0  0  0  0  0  0  0  0  0  0  0
   -1.2994    0.7811   -0.8601 H   0  0  0  0  0  0  0  0  0  0  0  0
   -0.2458   -1.0261    0.7031 H   0  0  0  0  0  0  0  0  0  0  0  0
    0.7488   -0.1416    0.3374 H   0  0  0  0  0  0  0  0  0  0  0  0
   -0.0287   -1.7037   -1.1492 H   0  0  0  0  0  0  0  0  0  0  0  0
  1  2  1  0  0  0  0
  1  3  1  0  0  0  0
  1  5  1  0  0  0  0
  2  8  1  0  0  0  0
  4  1  1  0  0  0  0
  6  9  1  0  0  0  0
  6  2  1  0  0  0  0
  6 10  1  0  0  0  0
  7  2  1  0  0  0  0
  9 13  1  0  0  0  0
  9 12  1  0  0  0  0
 11  6  1  0  0  0  0
M  RAD  2   9   2  14   2
M  END
$$$$
