14
butane_opt
C  -3.963322   0.294648  -0.068917
C  -2.683468  -0.635778   0.104492
H  -4.881875  -0.316160   0.297758
H  -4.166435   1.308985  -1.226911
H  -3.738203   0.756100   0.636470
C  -1.393768   0.122144   0.107587
H  -2.634841  -1.220456  -0.726095
H  -2.680213  -1.405771   1.147705
C  -0.189767  -0.662570  -0.043886
H  -1.251938   0.913086   1.028239
H  -1.272279   0.640050  -0.757688
H  -0.216440  -0.948775   0.678304
H   0.814866  -0.021658   0.170784
H  -0.234518  -1.584159  -1.076957
