butane_opt
 OpenBabel08242015383D

 14 13  0  0  0  0  0  0  0  0999 V2000
   -3.9266    0.2621   -0.0144 C   0  0  0  0  0  0  0  0  0  0  0  0
   -2.7003   -0.5982    0.0568 C   0  0  0  0  0  0  0  0  0  0  0  0
   -4.8694   -0.3655    0.1631 H   0  0  0  0  0  0  0  0  0  0  0  0
   -3.9887    0.9509   -0.9553 H   0  0  0  0  0  0  0  0  0  0  0  0
   -3.8792    0.8090    0.8063 H   0  0  0  0  0  0  0  0  0  0  0  0
   -1.4116    0.1902    0.0415 C   0  0  0  0  0  0  0  0  0  0  0  0
   -2.7195   -1.2821   -0.7998 H   0  0  0  0  0  0  0  0  0  0  0  0
   -2.7952   -1.2652    0.9997 H   0  0  0  0  0  0  0  0  0  0  0  0
   -0.1637   -0.7080    0.0093 C   0  0  0  0  0  0  0  0  0  0  0  0
   -1.4192    0.8957    0.9231 H   0  0  0  0  0  0  0  0  0  0  0  0
   -1.4173    0.7947   -0.8136 H   0  0  0  0  0  0  0  0  0  0  0  0
   -0.1437   -1.2464    0.8450 H   0  0  0  0  0  0  0  0  0  0  0  0
    0.7691   -0.0842    0.0201 H   0  0  0  0  0  0  0  0  0  0  0  0
   -0.1341   -1.4267   -0.8868 H   0  0  0  0  0  0  0  0  0  0  0  0
  1  2  1  0  0  0  0
  1  3  1  0  0  0  0
  1  5  1  0  0  0  0
  2  8  1  0  0  0  0
  4  1  1  0  0  0  0
  6  2  1  0  0  0  0
  6 10  1  0  0  0  0
  7  2  1  0  0  0  0
  9 13  1  0  0  0  0
  9  6  1  0  0  0  0
  9 12  1  0  0  0  0
 11  6  1  0  0  0  0
 14  9  1  0  0  0  0
M  END
$$$$
