butane_opt
 OpenBabel08242015383D

 14 13  0  0  0  0  0  0  0  0999 V2000
   -3.9377    0.2111    0.0769 C   0  0  0  0  0  0  0  0  0  0  0  0
   -2.7062   -0.5450   -0.0956 C   0  0  0  0  0  0  0  0  0  0  0  0
   -4.8625   -0.3735    0.4352 H   0  0  0  0  0  0  0  0  0  0  0  0
   -4.0897    0.9458   -0.8354 H   0  0  0  0  0  0  0  0  0  0  0  0
   -3.8367    0.7190    0.9060 H   0  0  0  0  0  0  0  0  0  0  0  0
   -1.4396    0.1968   -0.0264 C   0  0  0  0  0  0  0  0  0  0  0  0
   -2.8193   -1.1188   -0.8715 H   0  0  0  0  0  0  0  0  0  0  0  0
   -2.7272   -1.2433    0.8458 H   0  0  0  0  0  0  0  0  0  0  0  0
   -0.1067   -0.7352    0.1039 C   0  0  0  0  0  0  0  0  0  0  0  0
   -1.4438    1.0334    0.8721 H   0  0  0  0  0  0  0  0  0  0  0  0
   -1.3347    0.8829   -0.9353 H   0  0  0  0  0  0  0  0  0  0  0  0
   -0.1593   -1.3846    1.0223 H   0  0  0  0  0  0  0  0  0  0  0  0
    0.7241   -0.1260    0.0137 H   0  0  0  0  0  0  0  0  0  0  0  0
   -0.1557   -1.3691   -0.7256 H   0  0  0  0  0  0  0  0  0  0  0  0
  1  3  1  0  0  0  0
  1  5  1  0  0  0  0
  2  6  1  0  0  0  0
  2  1  1  0  0  0  0
  2  8  1  0  0  0  0
  4  1  1  0  0  0  0
  6  9  1  0  0  0  0
  6 10  1  0  0  0  0
  7  2  1  0  0  0  0
  9 12  1  0  0  0  0
 11  6  1  0  0  0  0
 13  9  1  0  0  0  0
 14  9  1  0  0  0  0
M  END
$$$$
