14
butane_opt
C  -3.902617   0.240637   0.110509
C  -2.733744  -0.599027  -0.052270
H  -4.922901  -0.403814   0.327816
H  -3.959445   0.961874  -0.871767
H  -3.733689   0.733836   0.813564
C  -1.418905   0.251525  -0.051539
H  -2.799568  -1.379740  -1.014277
H  -2.570469  -1.070333   0.722156
C  -0.187723  -0.729099   0.105698
H  -1.566329   0.856636   0.641813
H  -1.235564   0.927042  -0.974768
H  -0.189475  -1.380149   1.101555
H   0.715354  -0.177730   0.128272
H   0.151891  -1.531997  -0.822179
