14
butane_opt
C  -3.930506   0.310017   0.111371
C  -2.696120  -0.640078  -0.119619
H  -4.814882  -0.283649   0.351945
H  -4.261880   0.867057  -0.709137
H  -3.690468   0.954967   0.978301
C  -1.372178   0.133421  -0.062846
H  -2.743490  -1.317693  -0.958302
H  -2.660242  -1.221418   0.663716
C  -0.209697  -0.662533   0.147228
H  -1.447667   0.695026   0.739381
H  -1.421773   0.820448  -0.962118
H  -0.303097  -1.483358   1.176010
H   0.897474   0.052161  -0.071824
H  -0.119842  -1.204236  -0.669069
