butane_opt
 OpenBabel08242015383D

 14 13  0  0  0  0  0  0  0  0999 V2000
   -3.9378    0.2992    0.1212 C   0  0  0  0  0  0  0  0  0  0  0  0
   -2.6623   -0.6642   -0.0477 C   0  0  0  0  0  0  0  0  0  0  0  0
   -4.9091   -0.3863    0.1214 H   0  0  0  0  0  0  0  0  0  0  0  0
   -4.2035    0.7441   -0.6895 H   0  0  0  0  0  0  0  0  0  0  0  0
   -3.8709    1.1453    1.0884 H   0  0  0  0  0  0  0  0  0  0  0  0
   -1.3919    0.1759   -0.1489 C   0  0  0  0  0  0  0  0  0  0  0  0
   -2.7066   -1.4230   -0.9229 H   0  0  0  0  0  0  0  0  0  0  0  0
   -2.4951   -1.2313    0.8456 H   0  0  0  0  0  0  0  0  0  0  0  0
   -0.2055   -0.6696    0.1270 C   0  0  0  0  0  0  0  0  0  0  0  0
   -1.5163    0.7833    0.6046 H   0  0  0  0  0  0  0  0  0  0  0  0
   -1.3052    0.8192   -1.0109 H   0  0  0  0  0  0  0  0  0  0  0  0
   -0.4877   -1.2230    1.0826 H   0  0  0  0  0  0  0  0  0  0  0  0
    0.7394   -0.0726    0.3945 H   0  0  0  0  0  0  0  0  0  0  0  0
    0.1174   -1.3331   -0.6981 H   0  0  0  0  0  0  0  0  0  0  0  0
  1  3  1  0  0  0  0
  1  5  1  0  0  0  0
  2  1  1  0  0  0  0
  2  8  1  0  0  0  0
  4  1  1  0  0  0  0
  6  2  1  0  0  0  0
  6  9  1  0  0  0  0
  6 10  1  0  0  0  0
  7  2  1  0  0  0  0
  9 13  1  0  0  0  0
  9 12  1  0  0  0  0
 11  6  1  0  0  0  0
 14  9  1  0  0  0  0
M  END
$$$$
