butane_opt
 OpenBabel08242015383D

 14 12  0  0  0  0  0  0  0  0999 V2000
   -3.9359    0.2334    0.1044 C   0  0  0  0  0  0  0  0  0  0  0  0
   -2.7244   -0.5858   -0.0488 C   0  0  0  0  0  0  0  0  0  0  0  0
   -4.9050   -0.4282   -0.1443 H   0  0  0  0  0  0  0  0  0  0  0  0
   -4.0137    0.5709   -0.5791 H   0  0  0  0  0  0  0  0  0  0  0  0
   -4.0088    1.2593    1.2519 H   0  0  0  0  0  0  0  0  0  0  0  0
   -1.4424    0.2334   -0.1018 C   0  0  0  0  0  0  0  0  0  0  0  0
   -2.7718   -1.3917   -0.9076 H   0  0  0  0  0  0  0  0  0  0  0  0
   -2.8166   -1.2024    0.8892 H   0  0  0  0  0  0  0  0  0  0  0  0
   -0.1001   -0.7090    0.1094 C   0  0  0  0  0  0  0  0  0  0  0  0
   -1.4123    0.7394    0.6210 H   0  0  0  0  0  0  0  0  0  0  0  0
   -1.3197    0.9466   -1.0551 H   0  0  0  0  0  0  0  0  0  0  0  0
   -0.0792   -1.5884    1.1462 H   0  0  0  0  0  0  0  0  0  0  0  0
    0.7270   -0.2083    0.1158 H   0  0  0  0  0  0  0  0  0  0  0  0
    0.0347   -1.2422   -0.5925 H   0  0  0  0  0  0  0  0  0  0  0  0
  2  1  1  0  0  0  0
  2  8  1  0  0  0  0
  3  1  1  0  0  0  0
  4  1  1  0  0  0  0
  6  2  1  0  0  0  0
  6  9  1  0  0  0  0
  6 10  1  0  0  0  0
  7  2  1  0  0  0  0
  9 13  1  0  0  0  0
  9 12  1  0  0  0  0
 11  6  1  0  0  0  0
 14  9  1  0  0  0  0
M  RAD  2   1   2   5   2
M  END
$$$$
