butane_opt
 OpenBabel08242015383D

 14 13  0  0  0  0  0  0  0  0999 V2000
   -3.9811    0.2916   -0.0598 C   0  0  0  0  0  0  0  0  0  0  0  0
   -2.7193   -0.6760    0.0745 C   0  0  0  0  0  0  0  0  0  0  0  0
   -4.7252   -0.2130   -0.0331 H   0  0  0  0  0  0  0  0  0  0  0  0
   -4.0425    0.8980   -0.9851 H   0  0  0  0  0  0  0  0  0  0  0  0
   -4.1237    0.9640    0.7706 H   0  0  0  0  0  0  0  0  0  0  0  0
   -1.3686    0.1939    0.1540 C   0  0  0  0  0  0  0  0  0  0  0  0
   -2.6020   -1.3581   -0.7102 H   0  0  0  0  0  0  0  0  0  0  0  0
   -2.7213   -1.2008    0.9249 H   0  0  0  0  0  0  0  0  0  0  0  0
   -0.1400   -0.6761   -0.0583 C   0  0  0  0  0  0  0  0  0  0  0  0
   -1.1503    0.8152    1.0374 H   0  0  0  0  0  0  0  0  0  0  0  0
   -1.4150    0.7951   -0.7683 H   0  0  0  0  0  0  0  0  0  0  0  0
    0.0822   -1.5545    0.9983 H   0  0  0  0  0  0  0  0  0  0  0  0
    0.6839   -0.1270   -0.3856 H   0  0  0  0  0  0  0  0  0  0  0  0
   -0.4953   -1.0700   -0.6893 H   0  0  0  0  0  0  0  0  0  0  0  0
  1  3  1  0  0  0  0
  1  2  1  0  0  0  0
  1  5  1  0  0  0  0
  2  6  1  0  0  0  0
  2  8  1  0  0  0  0
  4  1  1  0  0  0  0
  6 10  1  0  0  0  0
  7  2  1  0  0  0  0
  9  6  1  0  0  0  0
  9 12  1  0  0  0  0
 11  6  1  0  0  0  0
 13  9  1  0  0  0  0
 14  9  1  0  0  0  0
M  END
$$$$
