14
butane_opt
C  -3.880925   0.220082   0.090362
C  -2.706667  -0.563046  -0.033010
H  -4.745645  -0.352976   0.172618
H  -4.022776   0.580801  -0.635742
H  -3.805627   0.998826   1.005214
C  -1.470797   0.223939  -0.122776
H  -2.902663  -1.133545  -0.877622
H  -2.593881  -1.300675   0.915975
C  -0.153918  -0.722861   0.130672
H  -1.592689   0.848552   0.669833
H  -1.306699   0.885129  -1.134297
H  -0.197131  -1.182341   0.934068
H   0.671545  -0.146811   0.449190
H   0.023268  -1.585530  -0.842830
