butane_opt
 OpenBabel08242015383D

 14 12  0  0  0  0  0  0  0  0999 V2000
   -3.9193    0.2257    0.0111 C   0  0  0  0  0  0  0  0  0  0  0  0
   -2.7547   -0.5787    0.0744 C   0  0  0  0  0  0  0  0  0  0  0  0
   -4.7954   -0.3019    0.1384 H   0  0  0  0  0  0  0  0  0  0  0  0
   -3.9039    1.0019   -1.0504 H   0  0  0  0  0  0  0  0  0  0  0  0
   -3.9686    0.7428    0.7701 H   0  0  0  0  0  0  0  0  0  0  0  0
   -1.4252    0.2394   -0.0197 C   0  0  0  0  0  0  0  0  0  0  0  0
   -2.7533   -1.1521   -0.6902 H   0  0  0  0  0  0  0  0  0  0  0  0
   -2.7797   -1.4316    1.1070 H   0  0  0  0  0  0  0  0  0  0  0  0
   -0.1417   -0.7168    0.0060 C   0  0  0  0  0  0  0  0  0  0  0  0
   -1.3261    0.9709    0.9868 H   0  0  0  0  0  0  0  0  0  0  0  0
   -1.4795    0.7685   -0.8508 H   0  0  0  0  0  0  0  0  0  0  0  0
   -0.1475   -1.1418    0.6797 H   0  0  0  0  0  0  0  0  0  0  0  0
    0.8024   -0.1646    0.5553 H   0  0  0  0  0  0  0  0  0  0  0  0
    0.1985   -1.7819   -1.0990 H   0  0  0  0  0  0  0  0  0  0  0  0
  1  2  1  0  0  0  0
  1  3  1  0  0  0  0
  1  5  1  0  0  0  0
  2  8  1  0  0  0  0
  4  1  1  0  0  0  0
  6  9  1  0  0  0  0
  6  2  1  0  0  0  0
  6 10  1  0  0  0  0
  7  2  1  0  0  0  0
  9 13  1  0  0  0  0
  9 12  1  0  0  0  0
 11  6  1  0  0  0  0
M  RAD  2   9   2  14   2
M  END
$$$$
