14
butane_opt
C  -3.906939   0.223103   0.039213
C  -2.717523  -0.560184   0.009414
H  -4.697516  -0.350475   0.161457
H  -4.064112   0.780729  -0.724902
H  -3.729506   0.959104   0.996374
C  -1.398946   0.207182  -0.081000
H  -2.878345  -1.167661  -0.748703
H  -2.746194  -1.337739   0.973785
C  -0.170789  -0.718279   0.087163
H  -1.486293   0.891730   0.795852
H  -1.503839   0.961866  -1.021312
H  -0.409656  -1.137926   0.875578
H   0.695594  -0.169334   0.404755
H   0.122496  -1.731024  -0.968374
