butane_opt
 OpenBabel08242015383D

 14 13  0  0  0  0  0  0  0  0999 V2000
   -3.9838    0.2803   -0.0933 C   0  0  0  0  0  0  0  0  0  0  0  0
   -2.6910   -0.6573    0.2122 C   0  0  0  0  0  0  0  0  0  0  0  0
   -4.8438   -0.2089   -0.3480 H   0  0  0  0  0  0  0  0  0  0  0  0
   -3.8973    0.9290   -0.9882 H   0  0  0  0  0  0  0  0  0  0  0  0
   -4.2303    1.0786    0.7653 H   0  0  0  0  0  0  0  0  0  0  0  0
   -1.3737    0.1490    0.0999 C   0  0  0  0  0  0  0  0  0  0  0  0
   -2.7105   -1.2821   -0.6179 H   0  0  0  0  0  0  0  0  0  0  0  0
   -2.6987   -1.2279    1.1378 H   0  0  0  0  0  0  0  0  0  0  0  0
   -0.1817   -0.6788   -0.0751 C   0  0  0  0  0  0  0  0  0  0  0  0
   -1.0736    0.8774    0.9682 H   0  0  0  0  0  0  0  0  0  0  0  0
   -1.4000    0.8645   -0.8597 H   0  0  0  0  0  0  0  0  0  0  0  0
   -0.1193   -1.1624    0.6365 H   0  0  0  0  0  0  0  0  0  0  0  0
    0.8269    0.0523    0.0918 H   0  0  0  0  0  0  0  0  0  0  0  0
   -0.1248   -1.5230   -1.0842 H   0  0  0  0  0  0  0  0  0  0  0  0
  1  2  1  0  0  0  0
  1  5  1  0  0  0  0
  2  8  1  0  0  0  0
  3  1  1  0  0  0  0
  4  1  1  0  0  0  0
  6  2  1  0  0  0  0
  6 10  1  0  0  0  0
  7  2  1  0  0  0  0
  9 13  1  0  0  0  0
  9  6  1  0  0  0  0
  9 12  1  0  0  0  0
 11  6  1  0  0  0  0
 14  9  1  0  0  0  0
M  END
$$$$
