butane_opt
 OpenBabel08242015383D

 14 13  0  0  0  0  0  0  0  0999 V2000
   -3.9199    0.2714   -0.0733 C   0  0  0  0  0  0  0  0  0  0  0  0
   -2.6658   -0.6316    0.0970 C   0  0  0  0  0  0  0  0  0  0  0  0
   -4.8350   -0.3415   -0.0821 H   0  0  0  0  0  0  0  0  0  0  0  0
   -4.0173    0.8640   -0.9355 H   0  0  0  0  0  0  0  0  0  0  0  0
   -4.0530    0.9207    0.8228 H   0  0  0  0  0  0  0  0  0  0  0  0
   -1.4107    0.1817    0.1511 C   0  0  0  0  0  0  0  0  0  0  0  0
   -2.4939   -1.3083   -0.7540 H   0  0  0  0  0  0  0  0  0  0  0  0
   -2.6925   -1.2161    0.9642 H   0  0  0  0  0  0  0  0  0  0  0  0
   -0.2113   -0.6691   -0.0542 C   0  0  0  0  0  0  0  0  0  0  0  0
   -1.3362    0.8353    0.9124 H   0  0  0  0  0  0  0  0  0  0  0  0
   -1.4524    0.7888   -0.7074 H   0  0  0  0  0  0  0  0  0  0  0  0
    0.1160   -1.5615    1.0074 H   0  0  0  0  0  0  0  0  0  0  0  0
    0.7502   -0.1119   -0.3753 H   0  0  0  0  0  0  0  0  0  0  0  0
   -0.5022   -1.1665   -0.8236 H   0  0  0  0  0  0  0  0  0  0  0  0
  1  2  1  0  0  0  0
  1  5  1  0  0  0  0
  2  6  1  0  0  0  0
  2  8  1  0  0  0  0
  3  1  1  0  0  0  0
  4  1  1  0  0  0  0
  6 10  1  0  0  0  0
  7  2  1  0  0  0  0
  9  6  1  0  0  0  0
  9 12  1  0  0  0  0
 11  6  1  0  0  0  0
 13  9  1  0  0  0  0
 14  9  1  0  0  0  0
M  END
$$$$
