butane_opt
 OpenBabel08242015383D

 14 13  0  0  0  0  0  0  0  0999 V2000
   -3.9398    0.2899   -0.0444 C   0  0  0  0  0  0  0  0  0  0  0  0
   -2.6641   -0.6110    0.0840 C   0  0  0  0  0  0  0  0  0  0  0  0
   -4.7736   -0.2353   -0.0010 H   0  0  0  0  0  0  0  0  0  0  0  0
   -3.8391    0.9511   -1.0302 H   0  0  0  0  0  0  0  0  0  0  0  0
   -3.9843    0.8782    0.8286 H   0  0  0  0  0  0  0  0  0  0  0  0
   -1.4372    0.1123    0.0802 C   0  0  0  0  0  0  0  0  0  0  0  0
   -2.6671   -1.3994   -0.8130 H   0  0  0  0  0  0  0  0  0  0  0  0
   -2.7287   -1.3148    1.0394 H   0  0  0  0  0  0  0  0  0  0  0  0
   -0.1766   -0.6577   -0.0287 C   0  0  0  0  0  0  0  0  0  0  0  0
   -1.3638    1.0008    1.0793 H   0  0  0  0  0  0  0  0  0  0  0  0
   -1.4267    0.5409   -0.5675 H   0  0  0  0  0  0  0  0  0  0  0  0
   -0.1283   -1.4512    0.9691 H   0  0  0  0  0  0  0  0  0  0  0  0
    0.8255    0.0284   -0.4098 H   0  0  0  0  0  0  0  0  0  0  0  0
   -0.3505   -1.0255   -0.7443 H   0  0  0  0  0  0  0  0  0  0  0  0
  1  3  1  0  0  0  0
  1  2  1  0  0  0  0
  1  5  1  0  0  0  0
  2  8  1  0  0  0  0
  4  1  1  0  0  0  0
  6  2  1  0  0  0  0
  6 10  1  0  0  0  0
  7  2  1  0  0  0  0
  9  6  1  0  0  0  0
  9 12  1  0  0  0  0
 11  6  1  0  0  0  0
 13  9  1  0  0  0  0
 14  9  1  0  0  0  0
M  END
$$$$
