butane_opt
 OpenBabel08242015383D

 14 13  0  0  0  0  0  0  0  0999 V2000
   -3.9204    0.2454    0.0694 C   0  0  0  0  0  0  0  0  0  0  0  0
   -2.6940   -0.5706   -0.0081 C   0  0  0  0  0  0  0  0  0  0  0  0
   -4.9710   -0.4323    0.4170 H   0  0  0  0  0  0  0  0  0  0  0  0
   -4.0717    1.1186   -0.8885 H   0  0  0  0  0  0  0  0  0  0  0  0
   -3.8450    0.5491    0.6745 H   0  0  0  0  0  0  0  0  0  0  0  0
   -1.4384    0.1694   -0.0462 C   0  0  0  0  0  0  0  0  0  0  0  0
   -2.7660   -1.4169   -0.9801 H   0  0  0  0  0  0  0  0  0  0  0  0
   -2.6783   -1.0209    0.7491 H   0  0  0  0  0  0  0  0  0  0  0  0
   -0.1495   -0.7017    0.0790 C   0  0  0  0  0  0  0  0  0  0  0  0
   -1.4589    0.9600    0.8371 H   0  0  0  0  0  0  0  0  0  0  0  0
   -1.3480    0.8695   -0.9185 H   0  0  0  0  0  0  0  0  0  0  0  0
   -0.0710   -1.2221    0.9181 H   0  0  0  0  0  0  0  0  0  0  0  0
    0.7037   -0.1747    0.2821 H   0  0  0  0  0  0  0  0  0  0  0  0
   -0.0740   -1.4479   -0.8090 H   0  0  0  0  0  0  0  0  0  0  0  0
  1  3  1  0  0  0  0
  1  5  1  0  0  0  0
  2  1  1  0  0  0  0
  2  8  1  0  0  0  0
  4  1  1  0  0  0  0
  6  2  1  0  0  0  0
  6  9  1  0  0  0  0
  6 10  1  0  0  0  0
  7  2  1  0  0  0  0
  9 13  1  0  0  0  0
  9 12  1  0  0  0  0
 11  6  1  0  0  0  0
 14  9  1  0  0  0  0
M  END
$$$$
