butane_opt
 OpenBabel08242015383D

 14 13  0  0  0  0  0  0  0  0999 V2000
   -3.9691    0.2765    0.0403 C   0  0  0  0  0  0  0  0  0  0  0  0
   -2.6864   -0.6266   -0.0018 C   0  0  0  0  0  0  0  0  0  0  0  0
   -4.8921   -0.3168    0.0437 H   0  0  0  0  0  0  0  0  0  0  0  0
   -4.0319    0.8567   -0.8222 H   0  0  0  0  0  0  0  0  0  0  0  0
   -3.9401    0.9790    0.9507 H   0  0  0  0  0  0  0  0  0  0  0  0
   -1.3949    0.1752   -0.0036 C   0  0  0  0  0  0  0  0  0  0  0  0
   -2.7117   -1.3396   -0.8704 H   0  0  0  0  0  0  0  0  0  0  0  0
   -2.7001   -1.2691    0.9094 H   0  0  0  0  0  0  0  0  0  0  0  0
   -0.1532   -0.6806    0.0528 C   0  0  0  0  0  0  0  0  0  0  0  0
   -1.3613    0.8413    0.8562 H   0  0  0  0  0  0  0  0  0  0  0  0
   -1.3843    0.7978   -0.9160 H   0  0  0  0  0  0  0  0  0  0  0  0
   -0.1442   -1.4050    1.0268 H   0  0  0  0  0  0  0  0  0  0  0  0
    0.7644   -0.1030   -0.0446 H   0  0  0  0  0  0  0  0  0  0  0  0
   -0.1805   -1.2385   -0.7296 H   0  0  0  0  0  0  0  0  0  0  0  0
  1  3  1  0  0  0  0
  1  5  1  0  0  0  0
  2  1  1  0  0  0  0
  2  8  1  0  0  0  0
  4  1  1  0  0  0  0
  6  2  1  0  0  0  0
  6  9  1  0  0  0  0
  6 10  1  0  0  0  0
  7  2  1  0  0  0  0
  9 12  1  0  0  0  0
 11  6  1  0  0  0  0
 13  9  1  0  0  0  0
 14  9  1  0  0  0  0
M  END
$$$$
