butane_opt
 OpenBabel08242015383D

 14 13  0  0  0  0  0  0  0  0999 V2000
   -3.9275    0.2391   -0.0526 C   0  0  0  0  0  0  0  0  0  0  0  0
   -2.6827   -0.5382    0.0739 C   0  0  0  0  0  0  0  0  0  0  0  0
   -4.8502   -0.4304    0.4021 H   0  0  0  0  0  0  0  0  0  0  0  0
   -3.7909    1.1643   -1.1894 H   0  0  0  0  0  0  0  0  0  0  0  0
   -3.8501    0.4943    0.5749 H   0  0  0  0  0  0  0  0  0  0  0  0
   -1.4103    0.1883    0.1089 C   0  0  0  0  0  0  0  0  0  0  0  0
   -2.8173   -1.1820   -0.6901 H   0  0  0  0  0  0  0  0  0  0  0  0
   -2.7728   -1.3423    1.0808 H   0  0  0  0  0  0  0  0  0  0  0  0
   -0.1927   -0.7201   -0.0634 C   0  0  0  0  0  0  0  0  0  0  0  0
   -1.4428    1.1488    1.1197 H   0  0  0  0  0  0  0  0  0  0  0  0
   -1.3767    0.6088   -0.6538 H   0  0  0  0  0  0  0  0  0  0  0  0
   -0.1384   -1.2903    0.8320 H   0  0  0  0  0  0  0  0  0  0  0  0
    0.7118   -0.0954    0.0683 H   0  0  0  0  0  0  0  0  0  0  0  0
   -0.1448   -1.5624   -0.9597 H   0  0  0  0  0  0  0  0  0  0  0  0
  1  2  1  0  0  0  0
  1  3  1  0  0  0  0
  1  5  1  0  0  0  0
  2  6  1  0  0  0  0
  2  8  1  0  0  0  0
  4  1  1  0  0  0  0
  6 10  1  0  0  0  0
  7  2  1  0  0  0  0
  9 13  1  0  0  0  0
  9  6  1  0  0  0  0
  9 12  1  0  0  0  0
 11  6  1  0  0  0  0
 14  9  1  0  0  0  0
M  END
$$$$
