butane_opt
 OpenBabel08242015383D

 14 13  0  0  0  0  0  0  0  0999 V2000
   -3.9447    0.2223   -0.0636 C   0  0  0  0  0  0  0  0  0  0  0  0
   -2.7475   -0.5874    0.1505 C   0  0  0  0  0  0  0  0  0  0  0  0
   -4.8088   -0.2662    0.0968 H   0  0  0  0  0  0  0  0  0  0  0  0
   -3.8682    0.9671   -1.0790 H   0  0  0  0  0  0  0  0  0  0  0  0
   -3.8986    0.7608    0.7832 H   0  0  0  0  0  0  0  0  0  0  0  0
   -1.4015    0.2398    0.0489 C   0  0  0  0  0  0  0  0  0  0  0  0
   -2.6982   -1.1673   -0.6713 H   0  0  0  0  0  0  0  0  0  0  0  0
   -2.8622   -1.3279    1.0682 H   0  0  0  0  0  0  0  0  0  0  0  0
   -0.1246   -0.7589   -0.0521 C   0  0  0  0  0  0  0  0  0  0  0  0
   -1.3671    1.1996    1.0489 H   0  0  0  0  0  0  0  0  0  0  0  0
   -1.4372    0.8086   -0.7733 H   0  0  0  0  0  0  0  0  0  0  0  0
   -0.2032   -1.1656    0.7003 H   0  0  0  0  0  0  0  0  0  0  0  0
    0.7695   -0.1453    0.2908 H   0  0  0  0  0  0  0  0  0  0  0  0
   -0.0180   -1.5438   -1.0499 H   0  0  0  0  0  0  0  0  0  0  0  0
  1  3  1  0  0  0  0
  1  2  1  0  0  0  0
  1  5  1  0  0  0  0
  2  8  1  0  0  0  0
  4  1  1  0  0  0  0
  6  2  1  0  0  0  0
  6 10  1  0  0  0  0
  7  2  1  0  0  0  0
  9  6  1  0  0  0  0
  9 13  1  0  0  0  0
  9 12  1  0  0  0  0
 11  6  1  0  0  0  0
 14  9  1  0  0  0  0
M  END
$$$$
