14
butane_opt
C  -4.017575   0.291204  -0.060771
C  -2.673139  -0.661873   0.175493
H  -4.868023  -0.162743  -0.206432
H  -3.947635   0.939840  -1.007558
H  -4.060410   0.902155   0.800992
C  -1.370699   0.179417   0.041056
H  -2.702380  -1.313174  -0.637071
H  -2.822637  -1.390176   1.173720
C  -0.136165  -0.677634  -0.052758
H  -1.304209   0.930801   0.995193
H  -1.473557   0.647654  -0.826656
H  -0.275260  -0.973878   0.644966
H   0.832080  -0.074238   0.232091
H  -0.052511  -1.523055  -1.006578
