14
butane_opt
C  -3.981267   0.216937  -0.055404
C  -2.702780  -0.596454   0.090147
H  -4.860325  -0.421507   0.553117
H  -4.080601   1.399620  -1.336663
H  -3.922306   0.484400   0.569776
C  -1.381326   0.243739   0.096502
H  -2.748385  -1.238273  -0.756150
H  -2.711924  -1.223604   0.924502
C  -0.135608  -0.709795  -0.047525
H  -1.476812   1.133033   1.151756
H  -1.403343   0.611285  -0.614120
H  -0.013963  -1.185693   0.816261
H   0.604664  -0.305607   0.061767
H   0.024139  -1.580112  -1.012159
