14
butane_opt
C  -3.944692   0.222310  -0.063580
C  -2.747499  -0.587369   0.150456
H  -4.808753  -0.266172   0.096840
H  -3.868153   0.967092  -1.079011
H  -3.898570   0.760773   0.783231
C  -1.401547   0.239822   0.048855
H  -2.698230  -1.167315  -0.671347
H  -2.862153  -1.327942   1.068213
C  -0.124587  -0.758876  -0.052053
H  -1.367112   1.199621   1.048881
H  -1.437178   0.808562  -0.773289
H  -0.203162  -1.165551   0.700270
H   0.769533  -0.145284   0.290816
H  -0.017997  -1.543840  -1.049862
