14
butane_opt
C  -3.919140   0.287131   0.060971
C  -2.731585  -0.628990  -0.016574
H  -4.869908  -0.231625   0.273521
H  -4.045734   1.099413  -0.967493
H  -3.866240   0.764056   0.799679
C  -1.404919   0.162574   0.022356
H  -2.667017  -1.488802  -1.035367
H  -2.663682  -1.167007   0.732499
C  -0.151711  -0.679528   0.057332
H  -1.354064   0.820327   0.902952
H  -1.370512   0.789013  -0.952285
H  -0.349420  -1.482441   1.088575
H   0.847250   0.006924  -0.122092
H  -0.208616  -1.252256  -0.772194
