butane_opt
 OpenBabel08242015383D

 14 13  0  0  0  0  0  0  0  0999 V2000
   -4.0132    0.3142   -0.0816 C   0  0  0  0  0  0  0  0  0  0  0  0
   -2.7203   -0.6925    0.1481 C   0  0  0  0  0  0  0  0  0  0  0  0
   -4.8722   -0.2492   -0.0769 H   0  0  0  0  0  0  0  0  0  0  0  0
   -3.8834    1.0130   -1.1583 H   0  0  0  0  0  0  0  0  0  0  0  0
   -4.0811    0.8873    0.7356 H   0  0  0  0  0  0  0  0  0  0  0  0
   -1.3695    0.1588    0.1423 C   0  0  0  0  0  0  0  0  0  0  0  0
   -2.5916   -1.3480   -0.7787 H   0  0  0  0  0  0  0  0  0  0  0  0
   -2.6028   -1.1396    0.8960 H   0  0  0  0  0  0  0  0  0  0  0  0
   -0.1495   -0.6653   -0.0586 C   0  0  0  0  0  0  0  0  0  0  0  0
   -1.1043    0.9065    1.1028 H   0  0  0  0  0  0  0  0  0  0  0  0
   -1.4541    0.6986   -0.6721 H   0  0  0  0  0  0  0  0  0  0  0  0
    0.0572   -1.3942    0.9170 H   0  0  0  0  0  0  0  0  0  0  0  0
    0.7951   -0.0109   -0.4789 H   0  0  0  0  0  0  0  0  0  0  0  0
   -0.2827   -1.1988   -0.8479 H   0  0  0  0  0  0  0  0  0  0  0  0
  1  3  1  0  0  0  0
  1  2  1  0  0  0  0
  1  5  1  0  0  0  0
  2  8  1  0  0  0  0
  4  1  1  0  0  0  0
  6  2  1  0  0  0  0
  6 10  1  0  0  0  0
  7  2  1  0  0  0  0
  9  6  1  0  0  0  0
  9 12  1  0  0  0  0
 11  6  1  0  0  0  0
 13  9  1  0  0  0  0
 14  9  1  0  0  0  0
M  END
$$$$
