14
butane_opt
C  -3.960663   0.273701   0.010737
C  -2.692942  -0.640426   0.059308
H  -4.851415  -0.290028  -0.015957
H  -3.945734   0.927095  -0.907201
H  -4.052146   0.890385   0.851111
C  -1.399964   0.187443   0.017469
H  -2.704025  -1.291411  -0.773851
H  -2.681708  -1.254113   0.943342
C  -0.163773  -0.689466   0.020002
H  -1.330009   0.862037   0.877654
H  -1.390023   0.821771  -0.903572
H  -0.097512  -1.223190   0.869040
H   0.751600  -0.075738   0.088130
H  -0.121771  -1.413319  -0.886192
