butane_opt
 OpenBabel08242015383D

 14 13  0  0  0  0  0  0  0  0999 V2000
   -3.8816    0.2483    0.1025 C   0  0  0  0  0  0  0  0  0  0  0  0
   -2.7170   -0.5783   -0.1164 C   0  0  0  0  0  0  0  0  0  0  0  0
   -4.8850   -0.4372    0.6483 H   0  0  0  0  0  0  0  0  0  0  0  0
   -4.1422    0.9744   -0.7980 H   0  0  0  0  0  0  0  0  0  0  0  0
   -3.6187    0.7286    0.9098 H   0  0  0  0  0  0  0  0  0  0  0  0
   -1.4160    0.2073   -0.0717 C   0  0  0  0  0  0  0  0  0  0  0  0
   -2.9152   -1.3806   -1.0868 H   0  0  0  0  0  0  0  0  0  0  0  0
   -2.5821   -1.0299    0.6563 H   0  0  0  0  0  0  0  0  0  0  0  0
   -0.1939   -0.6979    0.1526 C   0  0  0  0  0  0  0  0  0  0  0  0
   -1.5882    0.7712    0.7836 H   0  0  0  0  0  0  0  0  0  0  0  0
   -1.3048    0.8525   -0.9872 H   0  0  0  0  0  0  0  0  0  0  0  0
   -0.1102   -1.4874    1.1598 H   0  0  0  0  0  0  0  0  0  0  0  0
    0.6709   -0.2467    0.0295 H   0  0  0  0  0  0  0  0  0  0  0  0
   -0.0503   -1.3659   -0.6949 H   0  0  0  0  0  0  0  0  0  0  0  0
  1  3  1  0  0  0  0
  1  5  1  0  0  0  0
  2  6  1  0  0  0  0
  2  1  1  0  0  0  0
  2  8  1  0  0  0  0
  4  1  1  0  0  0  0
  6  9  1  0  0  0  0
  6 10  1  0  0  0  0
  7  2  1  0  0  0  0
  9 12  1  0  0  0  0
 11  6  1  0  0  0  0
 13  9  1  0  0  0  0
 14  9  1  0  0  0  0
M  END
$$$$
