14
butane_opt
C  -3.969546   0.311870   0.055765
C  -2.718821  -0.693653  -0.018319
H  -4.891254  -0.285089  -0.025003
H  -4.088176   0.805839  -0.745256
H  -4.147339   1.189799   1.048310
C  -1.363835   0.159754  -0.001514
H  -2.618049  -1.452077  -0.932520
H  -2.631882  -1.206433   0.763503
C  -0.169708  -0.654837   0.053498
H  -1.239060   1.000290   0.902608
H  -1.250059   0.799729  -0.955169
H  -0.126859  -1.784619   1.261383
H   0.774144  -0.085063  -0.314875
H  -0.142580  -0.933230  -0.564466
