14
butane_opt
C  -3.956390   0.236910   0.078244
C  -2.742373  -0.583479  -0.082924
H  -4.787556  -0.217582   0.074328
H  -4.012267   0.690180  -0.706430
H  -3.793107   1.001074   0.993597
C  -1.397826   0.191798  -0.008367
H  -2.743266  -1.285558  -0.958656
H  -2.763426  -1.121788   0.820878
C  -0.120806  -0.705259   0.077354
H  -1.398787   0.871748   0.862626
H  -1.530772   0.812591  -0.899217
H   0.053854  -1.791772   1.287182
H   0.776215  -0.092245  -0.285771
H  -0.238186  -1.000428  -0.448717
