14
butane_opt
C  -3.967171   0.282688  -0.046601
C  -2.734619  -0.670922   0.162476
H  -4.705382  -0.049076  -0.110280
H  -3.912585   0.951314  -0.959520
H  -4.102009   0.894394   0.754306
C  -1.383568   0.187271   0.021125
H  -2.568210  -1.261443  -0.624607
H  -2.812688  -1.407728   1.090058
C  -0.141560  -0.674974  -0.039983
H  -1.222145   0.906989   0.916405
H  -1.478316   0.711276  -0.733199
H  -0.336478  -0.972652   0.659918
H   0.779247  -0.047954   0.279784
H   0.030422  -1.668444  -1.031769
