butane_opt
 OpenBabel08242015383D

 14 13  0  0  0  0  0  0  0  0999 V2000
   -3.9961    0.3012   -0.0847 C   0  0  0  0  0  0  0  0  0  0  0  0
   -2.6865   -0.6572    0.2017 C   0  0  0  0  0  0  0  0  0  0  0  0
   -4.7875   -0.2422   -0.4037 H   0  0  0  0  0  0  0  0  0  0  0  0
   -3.8431    0.6696   -0.8566 H   0  0  0  0  0  0  0  0  0  0  0  0
   -4.2960    1.1850    0.9307 H   0  0  0  0  0  0  0  0  0  0  0  0
   -1.3667    0.1614    0.0494 C   0  0  0  0  0  0  0  0  0  0  0  0
   -2.6214   -1.1804   -0.6043 H   0  0  0  0  0  0  0  0  0  0  0  0
   -2.7686   -1.3226    1.1633 H   0  0  0  0  0  0  0  0  0  0  0  0
   -0.1949   -0.6672   -0.0604 C   0  0  0  0  0  0  0  0  0  0  0  0
   -1.1722    0.8591    0.9493 H   0  0  0  0  0  0  0  0  0  0  0  0
   -1.2603    0.6096   -0.7143 H   0  0  0  0  0  0  0  0  0  0  0  0
   -0.1802   -1.2750    0.7995 H   0  0  0  0  0  0  0  0  0  0  0  0
    0.8409    0.0013   -0.0596 H   0  0  0  0  0  0  0  0  0  0  0  0
   -0.0241   -1.4221   -1.0308 H   0  0  0  0  0  0  0  0  0  0  0  0
  1  2  1  0  0  0  0
  1  5  1  0  0  0  0
  2  8  1  0  0  0  0
  3  1  1  0  0  0  0
  4  1  1  0  0  0  0
  6  2  1  0  0  0  0
  6 10  1  0  0  0  0
  7  2  1  0  0  0  0
  9 13  1  0  0  0  0
  9  6  1  0  0  0  0
  9 12  1  0  0  0  0
 11  6  1  0  0  0  0
 14  9  1  0  0  0  0
M  END
$$$$
