butane_opt
 OpenBabel08242015383D

 14 13  0  0  0  0  0  0  0  0999 V2000
   -3.9903    0.2637   -0.0318 C   0  0  0  0  0  0  0  0  0  0  0  0
   -2.7032   -0.6377    0.1328 C   0  0  0  0  0  0  0  0  0  0  0  0
   -4.8576   -0.2138    0.0233 H   0  0  0  0  0  0  0  0  0  0  0  0
   -3.8618    1.0938   -1.1106 H   0  0  0  0  0  0  0  0  0  0  0  0
   -4.0836    0.7972    0.6691 H   0  0  0  0  0  0  0  0  0  0  0  0
   -1.3787    0.1834    0.0451 C   0  0  0  0  0  0  0  0  0  0  0  0
   -2.7533   -1.2625   -0.6628 H   0  0  0  0  0  0  0  0  0  0  0  0
   -2.5864   -1.3760    1.1868 H   0  0  0  0  0  0  0  0  0  0  0  0
   -0.1338   -0.6945   -0.0483 C   0  0  0  0  0  0  0  0  0  0  0  0
   -1.4134    0.8801    0.9467 H   0  0  0  0  0  0  0  0  0  0  0  0
   -1.4235    0.8612   -0.8761 H   0  0  0  0  0  0  0  0  0  0  0  0
   -0.2410   -0.8695    0.5579 H   0  0  0  0  0  0  0  0  0  0  0  0
    0.7867   -0.0425    0.5430 H   0  0  0  0  0  0  0  0  0  0  0  0
   -0.1161   -1.7222   -1.0738 H   0  0  0  0  0  0  0  0  0  0  0  0
  1  3  1  0  0  0  0
  1  2  1  0  0  0  0
  1  5  1  0  0  0  0
  2  8  1  0  0  0  0
  4  1  1  0  0  0  0
  6  2  1  0  0  0  0
  6 10  1  0  0  0  0
  7  2  1  0  0  0  0
  9  6  1  0  0  0  0
  9 13  1  0  0  0  0
  9 12  1  0  0  0  0
 11  6  1  0  0  0  0
 14  9  1  0  0  0  0
M  END
$$$$
