butane_opt
 OpenBabel08242015383D

 14 11  0  0  0  0  0  0  0  0999 V2000
   -3.9564    0.2369    0.0782 C   0  0  0  0  0  0  0  0  0  0  0  0
   -2.7424   -0.5835   -0.0829 C   0  0  0  0  0  0  0  0  0  0  0  0
   -4.7876   -0.2176    0.0743 H   0  0  0  0  0  0  0  0  0  0  0  0
   -4.0123    0.6902   -0.7064 H   0  0  0  0  0  0  0  0  0  0  0  0
   -3.7931    1.0011    0.9936 H   0  0  0  0  0  0  0  0  0  0  0  0
   -1.3978    0.1918   -0.0084 C   0  0  0  0  0  0  0  0  0  0  0  0
   -2.7433   -1.2856   -0.9587 H   0  0  0  0  0  0  0  0  0  0  0  0
   -2.7634   -1.1218    0.8209 H   0  0  0  0  0  0  0  0  0  0  0  0
   -0.1208   -0.7053    0.0774 C   0  0  0  0  0  0  0  0  0  0  0  0
   -1.3988    0.8717    0.8626 H   0  0  0  0  0  0  0  0  0  0  0  0
   -1.5308    0.8126   -0.8992 H   0  0  0  0  0  0  0  0  0  0  0  0
    0.0539   -1.7918    1.2872 H   0  0  0  0  0  0  0  0  0  0  0  0
    0.7762   -0.0922   -0.2858 H   0  0  0  0  0  0  0  0  0  0  0  0
   -0.2382   -1.0004   -0.4487 H   0  0  0  0  0  0  0  0  0  0  0  0
  1  5  1  0  0  0  0
  2  6  1  0  0  0  0
  2  1  1  0  0  0  0
  2  8  1  0  0  0  0
  3  1  1  0  0  0  0
  4  1  1  0  0  0  0
  6  9  1  0  0  0  0
  6 10  1  0  0  0  0
  7  2  1  0  0  0  0
 11  6  1  0  0  0  0
 13  9  1  0  0  0  0
M  RAD  3   9   3  12   2  14   2
M  END
$$$$
