butane_opt
 OpenBabel08242015383D

 14 12  0  0  0  0  0  0  0  0999 V2000
   -3.9580    0.2295    0.0368 C   0  0  0  0  0  0  0  0  0  0  0  0
   -2.7362   -0.5742   -0.0303 C   0  0  0  0  0  0  0  0  0  0  0  0
   -4.9364   -0.4881    0.0213 H   0  0  0  0  0  0  0  0  0  0  0  0
   -3.9638    0.8006   -0.8034 H   0  0  0  0  0  0  0  0  0  0  0  0
   -3.8606    1.0755    1.0035 H   0  0  0  0  0  0  0  0  0  0  0  0
   -1.3834    0.2267    0.0509 C   0  0  0  0  0  0  0  0  0  0  0  0
   -2.6773   -1.3550   -1.0022 H   0  0  0  0  0  0  0  0  0  0  0  0
   -2.7314   -1.0791    0.8481 H   0  0  0  0  0  0  0  0  0  0  0  0
   -0.1293   -0.7428    0.0488 C   0  0  0  0  0  0  0  0  0  0  0  0
   -1.5008    0.8062    0.8663 H   0  0  0  0  0  0  0  0  0  0  0  0
   -1.3098    0.9769   -0.8576 H   0  0  0  0  0  0  0  0  0  0  0  0
    0.0022   -1.7143    1.2274 H   0  0  0  0  0  0  0  0  0  0  0  0
    0.7224   -0.1356   -0.5474 H   0  0  0  0  0  0  0  0  0  0  0  0
   -0.2461   -1.0512   -0.5646 H   0  0  0  0  0  0  0  0  0  0  0  0
  1  5  1  0  0  0  0
  2  1  1  0  0  0  0
  2  6  1  0  0  0  0
  2  8  1  0  0  0  0
  3  1  1  0  0  0  0
  4  1  1  0  0  0  0
  6 10  1  0  0  0  0
  7  2  1  0  0  0  0
  9  6  1  0  0  0  0
 11  6  1  0  0  0  0
 13  9  1  0  0  0  0
 14  9  1  0  0  0  0
M  RAD  2   9   2  12   2
M  END
$$$$
