14
butane_opt
C  -3.986668   0.266476  -0.011632
C  -2.683758  -0.654696   0.074901
H  -4.837300  -0.266476   0.095278
H  -4.076915   1.059067  -1.020234
H  -3.910507   0.911302   0.816002
C  -1.386750   0.207582   0.007397
H  -2.700950  -1.278664  -0.654977
H  -2.506646  -1.490325   1.121291
C  -0.174166  -0.672571   0.022308
H  -1.390436   0.928167   0.865357
H  -1.299447   0.781138  -0.860089
H  -0.245828  -1.026077   0.703113
H   0.748837  -0.141570   0.337424
H  -0.028678  -1.703685  -1.149154
