14
butane_opt
C  -3.968214   0.286826   0.069736
C  -2.686533  -0.634885  -0.042621
H  -4.875700  -0.326416   0.423543
H  -4.172388   0.956247  -0.716764
H  -3.841991   0.961831   0.952694
C  -1.391678   0.145139  -0.079411
H  -2.752301  -1.360101  -0.930279
H  -2.745717  -1.136880   0.782206
C  -0.136129  -0.674804   0.129327
H  -1.358828   0.609658   0.715291
H  -1.362255   0.928482  -1.072127
H  -0.342210  -1.050919   0.904593
H   0.721936  -0.088421   0.291846
H  -0.098764  -1.442297  -0.837964
