butane_opt
 OpenBabel08242015383D

 14 13  0  0  0  0  0  0  0  0999 V2000
   -3.9609    0.2373    0.0443 C   0  0  0  0  0  0  0  0  0  0  0  0
   -2.7436   -0.5956    0.0314 C   0  0  0  0  0  0  0  0  0  0  0  0
   -4.9020   -0.4167    0.3497 H   0  0  0  0  0  0  0  0  0  0  0  0
   -4.0024    1.0918   -1.0767 H   0  0  0  0  0  0  0  0  0  0  0  0
   -3.9115    0.5650    0.6871 H   0  0  0  0  0  0  0  0  0  0  0  0
   -1.3801    0.2556    0.0065 C   0  0  0  0  0  0  0  0  0  0  0  0
   -2.7491   -1.3653   -0.9494 H   0  0  0  0  0  0  0  0  0  0  0  0
   -2.7005   -1.1073    0.8460 H   0  0  0  0  0  0  0  0  0  0  0  0
   -0.1230   -0.7353    0.0279 C   0  0  0  0  0  0  0  0  0  0  0  0
   -1.4111    0.9946    0.9271 H   0  0  0  0  0  0  0  0  0  0  0  0
   -1.2724    0.9733   -0.9748 H   0  0  0  0  0  0  0  0  0  0  0  0
   -0.1255   -1.2835    0.8432 H   0  0  0  0  0  0  0  0  0  0  0  0
    0.6274   -0.3028    0.3252 H   0  0  0  0  0  0  0  0  0  0  0  0
   -0.0458   -1.5975   -0.8891 H   0  0  0  0  0  0  0  0  0  0  0  0
  1  3  1  0  0  0  0
  1  5  1  0  0  0  0
  2  1  1  0  0  0  0
  2  8  1  0  0  0  0
  4  1  1  0  0  0  0
  6  9  1  0  0  0  0
  6  2  1  0  0  0  0
  6 10  1  0  0  0  0
  7  2  1  0  0  0  0
  9 13  1  0  0  0  0
  9 12  1  0  0  0  0
 11  6  1  0  0  0  0
 14  9  1  0  0  0  0
M  END
$$$$
