14
butane_opt
C  -3.918762   0.225397   0.095845
C  -2.705458  -0.570279  -0.049307
H  -4.938138  -0.536473  -0.012135
H  -3.759585   0.656410  -0.636290
H  -3.941721   1.203813   1.115497
C  -1.405162   0.235311  -0.082447
H  -2.892467  -1.323589  -0.964942
H  -2.613125  -1.040937   0.727203
C  -0.180475  -0.739573   0.119808
H  -1.608287   0.969093   0.777276
H  -1.386433   0.708593  -0.970085
H  -0.014951  -1.748211   1.233154
H   0.760760  -0.159319  -0.300904
H  -0.103492  -1.012100  -0.474390
