butane_opt
 OpenBabel08242015383D

 14 12  0  0  0  0  0  0  0  0999 V2000
   -3.8799    0.2290   -0.0663 C   0  0  0  0  0  0  0  0  0  0  0  0
   -2.7164   -0.5630    0.0750 C   0  0  0  0  0  0  0  0  0  0  0  0
   -4.8464   -0.4514    0.3909 H   0  0  0  0  0  0  0  0  0  0  0  0
   -4.1438    1.2675   -1.1458 H   0  0  0  0  0  0  0  0  0  0  0  0
   -3.7709    0.4837    0.5796 H   0  0  0  0  0  0  0  0  0  0  0  0
   -1.4010    0.2206    0.1366 C   0  0  0  0  0  0  0  0  0  0  0  0
   -2.6960   -1.1777   -0.7751 H   0  0  0  0  0  0  0  0  0  0  0  0
   -2.8700   -1.3055    1.0585 H   0  0  0  0  0  0  0  0  0  0  0  0
   -0.1846   -0.7349   -0.0408 C   0  0  0  0  0  0  0  0  0  0  0  0
   -1.3667    0.9478    1.0572 H   0  0  0  0  0  0  0  0  0  0  0  0
   -1.5757    0.8376   -0.7711 H   0  0  0  0  0  0  0  0  0  0  0  0
   -0.0526   -1.0749    0.6755 H   0  0  0  0  0  0  0  0  0  0  0  0
    0.6738   -0.2636    0.0808 H   0  0  0  0  0  0  0  0  0  0  0  0
   -0.1606   -1.5630   -1.0223 H   0  0  0  0  0  0  0  0  0  0  0  0
  1  2  1  0  0  0  0
  1  3  1  0  0  0  0
  1  5  1  0  0  0  0
  2  6  1  0  0  0  0
  2  8  1  0  0  0  0
  6 10  1  0  0  0  0
  7  2  1  0  0  0  0
  9 13  1  0  0  0  0
  9  6  1  0  0  0  0
  9 12  1  0  0  0  0
 11  6  1  0  0  0  0
 14  9  1  0  0  0  0
M  RAD  2   1   2   4   2
M  END
$$$$
