butane_opt
 OpenBabel08242015383D

 14 13  0  0  0  0  0  0  0  0999 V2000
   -3.9319    0.3034   -0.1110 C   0  0  0  0  0  0  0  0  0  0  0  0
   -2.6563   -0.6653    0.2015 C   0  0  0  0  0  0  0  0  0  0  0  0
   -4.7846   -0.1855   -0.3231 H   0  0  0  0  0  0  0  0  0  0  0  0
   -3.7099    0.7010   -0.8689 H   0  0  0  0  0  0  0  0  0  0  0  0
   -4.2311    1.0278    0.8431 H   0  0  0  0  0  0  0  0  0  0  0  0
   -1.4266    0.1575    0.1349 C   0  0  0  0  0  0  0  0  0  0  0  0
   -2.5512   -1.2614   -0.5140 H   0  0  0  0  0  0  0  0  0  0  0  0
   -2.9003   -1.3937    1.1517 H   0  0  0  0  0  0  0  0  0  0  0  0
   -0.1883   -0.6749   -0.0958 C   0  0  0  0  0  0  0  0  0  0  0  0
   -1.3856    0.7472    0.8477 H   0  0  0  0  0  0  0  0  0  0  0  0
   -1.5114    0.8680   -0.8559 H   0  0  0  0  0  0  0  0  0  0  0  0
   -0.1155   -1.0447    0.6621 H   0  0  0  0  0  0  0  0  0  0  0  0
    0.8170    0.0766    0.0411 H   0  0  0  0  0  0  0  0  0  0  0  0
   -0.2566   -1.4376   -1.0813 H   0  0  0  0  0  0  0  0  0  0  0  0
  1  2  1  0  0  0  0
  1  5  1  0  0  0  0
  2  8  1  0  0  0  0
  3  1  1  0  0  0  0
  4  1  1  0  0  0  0
  6  2  1  0  0  0  0
  6 10  1  0  0  0  0
  7  2  1  0  0  0  0
  9 13  1  0  0  0  0
  9  6  1  0  0  0  0
  9 12  1  0  0  0  0
 11  6  1  0  0  0  0
 14  9  1  0  0  0  0
M  END
$$$$
