14
butane_opt
C  -3.881636   0.248277   0.102467
C  -2.716954  -0.578336  -0.116356
H  -4.885033  -0.437162   0.648262
H  -4.142152   0.974376  -0.797954
H  -3.618747   0.728606   0.909769
C  -1.416013   0.207286  -0.071699
H  -2.915211  -1.380632  -1.086844
H  -2.582085  -1.029885   0.656348
C  -0.193901  -0.697925   0.152604
H  -1.588189   0.771226   0.783583
H  -1.304793   0.852477  -0.987170
H  -0.110169  -1.487359   1.159802
H   0.670926  -0.246721   0.029456
H  -0.050349  -1.365906  -0.694942
