butane_opt
 OpenBabel08242015383D

 14 13  0  0  0  0  0  0  0  0999 V2000
   -4.0060    0.2857    0.1258 C   0  0  0  0  0  0  0  0  0  0  0  0
   -2.6673   -0.6550   -0.1052 C   0  0  0  0  0  0  0  0  0  0  0  0
   -4.8008   -0.2394    0.3996 H   0  0  0  0  0  0  0  0  0  0  0  0
   -4.1599    1.0327   -0.8236 H   0  0  0  0  0  0  0  0  0  0  0  0
   -3.7925    0.9704    1.0262 H   0  0  0  0  0  0  0  0  0  0  0  0
   -1.4022    0.1388   -0.0807 C   0  0  0  0  0  0  0  0  0  0  0  0
   -2.8125   -1.4202   -1.0524 H   0  0  0  0  0  0  0  0  0  0  0  0
   -2.5353   -1.1895    0.6390 H   0  0  0  0  0  0  0  0  0  0  0  0
   -0.1524   -0.6735    0.1197 C   0  0  0  0  0  0  0  0  0  0  0  0
   -1.3677    0.8773    0.8148 H   0  0  0  0  0  0  0  0  0  0  0  0
   -1.2718    0.8370   -1.0463 H   0  0  0  0  0  0  0  0  0  0  0  0
   -0.3790   -1.4751    1.2227 H   0  0  0  0  0  0  0  0  0  0  0  0
    0.8741    0.0591    0.1853 H   0  0  0  0  0  0  0  0  0  0  0  0
   -0.0679   -1.0501   -0.6183 H   0  0  0  0  0  0  0  0  0  0  0  0
  1  3  1  0  0  0  0
  1  5  1  0  0  0  0
  2  6  1  0  0  0  0
  2  1  1  0  0  0  0
  2  8  1  0  0  0  0
  4  1  1  0  0  0  0
  6  9  1  0  0  0  0
  6 10  1  0  0  0  0
  7  2  1  0  0  0  0
  9 13  1  0  0  0  0
  9 12  1  0  0  0  0
 11  6  1  0  0  0  0
 14  9  1  0  0  0  0
M  END
$$$$
