14
butane_opt
C  -3.937735   0.211142   0.076890
C  -2.706223  -0.544983  -0.095553
H  -4.862457  -0.373535   0.435163
H  -4.089680   0.945771  -0.835436
H  -3.836669   0.718982   0.905993
C  -1.439577   0.196752  -0.026439
H  -2.819305  -1.118777  -0.871537
H  -2.727214  -1.243283   0.845828
C  -0.106659  -0.735221   0.103946
H  -1.443779   1.033417   0.872101
H  -1.334730   0.882861  -0.935280
H  -0.159292  -1.384604   1.022320
H   0.724143  -0.126048   0.013665
H  -0.155709  -1.369115  -0.725606
