butane_opt
 OpenBabel08242015383D

 14 13  0  0  0  0  0  0  0  0999 V2000
   -3.9069    0.2231    0.0392 C   0  0  0  0  0  0  0  0  0  0  0  0
   -2.7175   -0.5602    0.0094 C   0  0  0  0  0  0  0  0  0  0  0  0
   -4.6975   -0.3505    0.1615 H   0  0  0  0  0  0  0  0  0  0  0  0
   -4.0641    0.7807   -0.7249 H   0  0  0  0  0  0  0  0  0  0  0  0
   -3.7295    0.9591    0.9964 H   0  0  0  0  0  0  0  0  0  0  0  0
   -1.3989    0.2072   -0.0810 C   0  0  0  0  0  0  0  0  0  0  0  0
   -2.8783   -1.1677   -0.7487 H   0  0  0  0  0  0  0  0  0  0  0  0
   -2.7462   -1.3377    0.9738 H   0  0  0  0  0  0  0  0  0  0  0  0
   -0.1708   -0.7183    0.0872 C   0  0  0  0  0  0  0  0  0  0  0  0
   -1.4863    0.8917    0.7959 H   0  0  0  0  0  0  0  0  0  0  0  0
   -1.5038    0.9619   -1.0213 H   0  0  0  0  0  0  0  0  0  0  0  0
   -0.4097   -1.1379    0.8756 H   0  0  0  0  0  0  0  0  0  0  0  0
    0.6956   -0.1693    0.4048 H   0  0  0  0  0  0  0  0  0  0  0  0
    0.1225   -1.7310   -0.9684 H   0  0  0  0  0  0  0  0  0  0  0  0
  1  3  1  0  0  0  0
  1  5  1  0  0  0  0
  2  1  1  0  0  0  0
  2  8  1  0  0  0  0
  4  1  1  0  0  0  0
  6  2  1  0  0  0  0
  6  9  1  0  0  0  0
  6 10  1  0  0  0  0
  7  2  1  0  0  0  0
  9 13  1  0  0  0  0
  9 12  1  0  0  0  0
 11  6  1  0  0  0  0
 14  9  1  0  0  0  0
M  END
$$$$
