butane_opt
 OpenBabel08242015383D

 14 13  0  0  0  0  0  0  0  0999 V2000
   -3.9332    0.2743   -0.0809 C   0  0  0  0  0  0  0  0  0  0  0  0
   -2.6905   -0.6092    0.1908 C   0  0  0  0  0  0  0  0  0  0  0  0
   -4.7602   -0.2766   -0.4180 H   0  0  0  0  0  0  0  0  0  0  0  0
   -3.6789    0.6819   -0.9412 H   0  0  0  0  0  0  0  0  0  0  0  0
   -4.1795    1.0147    0.8443 H   0  0  0  0  0  0  0  0  0  0  0  0
   -1.4190    0.1454    0.0886 C   0  0  0  0  0  0  0  0  0  0  0  0
   -2.6635   -1.2222   -0.5733 H   0  0  0  0  0  0  0  0  0  0  0  0
   -2.7484   -1.2526    1.1218 H   0  0  0  0  0  0  0  0  0  0  0  0
   -0.1668   -0.6691   -0.0579 C   0  0  0  0  0  0  0  0  0  0  0  0
   -1.2937    0.8181    0.9854 H   0  0  0  0  0  0  0  0  0  0  0  0
   -1.7252    0.7605   -0.8456 H   0  0  0  0  0  0  0  0  0  0  0  0
   -0.1595   -1.2125    0.7351 H   0  0  0  0  0  0  0  0  0  0  0  0
    0.8125   -0.0007   -0.0973 H   0  0  0  0  0  0  0  0  0  0  0  0
   -0.1542   -1.4574   -1.0518 H   0  0  0  0  0  0  0  0  0  0  0  0
  1  2  1  0  0  0  0
  1  5  1  0  0  0  0
  2  8  1  0  0  0  0
  3  1  1  0  0  0  0
  4  1  1  0  0  0  0
  6  2  1  0  0  0  0
  6 10  1  0  0  0  0
  7  2  1  0  0  0  0
  9  6  1  0  0  0  0
  9 12  1  0  0  0  0
 11  6  1  0  0  0  0
 13  9  1  0  0  0  0
 14  9  1  0  0  0  0
M  END
$$$$
