14
butane_opt
C  -3.901181   0.288315   0.073826
C  -2.686245  -0.642316   0.008569
H  -4.740767  -0.238823   0.116276
H  -4.068138   0.966304  -0.850538
H  -3.926667   0.994303   0.952457
C  -1.392624   0.146850  -0.106131
H  -2.898910  -1.346850  -0.778069
H  -2.542709  -1.326281   0.923307
C  -0.194319  -0.637109   0.084582
H  -1.518884   0.765971   0.704175
H  -1.415204   0.676398  -0.927919
H  -0.468746  -1.089104   0.887469
H   0.686468  -0.085439   0.507230
H  -0.051697  -1.633325  -0.869571
