14
butane_opt
C  -4.009571   0.301920  -0.028378
C  -2.680279  -0.669879   0.097878
H  -4.913355  -0.306420   0.266194
H  -4.003137   1.103545  -1.028023
H  -3.978779   0.795122   0.766363
C  -1.393166   0.154274   0.012060
H  -2.760780  -1.213348  -0.744515
H  -2.719982  -1.400053   1.061896
C  -0.137882  -0.664183  -0.000719
H  -1.447118   0.954706   0.960224
H  -1.257179   0.756047  -0.854020
H  -0.194504  -0.853283   0.660807
H   0.830904  -0.115243   0.346652
H   0.047678  -1.651704  -1.032724
