14
butane_opt
C  -3.982829   0.295803   0.134270
C  -2.663259  -0.621009  -0.077361
H  -4.908716  -0.286333   0.118549
H  -4.092869   1.001723  -0.813948
H  -3.860617   0.927456   1.034584
C  -1.367563   0.122736  -0.112637
H  -2.917669  -1.376897  -0.951477
H  -2.556355  -1.271373   0.858397
C  -0.184660  -0.659187   0.130138
H  -1.357821   0.755807   0.653932
H  -1.224089   0.790746  -0.991774
H  -0.399739  -1.274849   1.013757
H   0.718224   0.009134   0.360518
H  -0.046133  -1.402706  -0.765033
