14
butane_opt
C  -3.932323   0.214969  -0.030272
C  -2.718620  -0.568499   0.058028
H  -4.885772  -0.451594   0.005193
H  -3.994619   0.805515  -0.916803
H  -4.009906   0.910073   0.841345
C  -1.414602   0.243843   0.072951
H  -2.697811  -1.275648  -0.811085
H  -2.680487  -1.163983   0.944351
C  -0.143167  -0.734569  -0.024619
H  -1.279007   1.119466   1.153450
H  -1.459334   0.740472  -0.746832
H   0.088512  -1.765533   1.032638
H   0.650565  -0.262020  -0.297954
H  -0.206421  -1.014152  -0.629504
