butane_opt
 OpenBabel08242015383D

 14 13  0  0  0  0  0  0  0  0999 V2000
   -3.9877    0.2911   -0.0698 C   0  0  0  0  0  0  0  0  0  0  0  0
   -2.6865   -0.6601    0.0987 C   0  0  0  0  0  0  0  0  0  0  0  0
   -4.8263   -0.2291   -0.0730 H   0  0  0  0  0  0  0  0  0  0  0  0
   -4.0456    1.0324   -1.0603 H   0  0  0  0  0  0  0  0  0  0  0  0
   -4.2079    0.9697    0.8142 H   0  0  0  0  0  0  0  0  0  0  0  0
   -1.3674    0.1481    0.1292 C   0  0  0  0  0  0  0  0  0  0  0  0
   -2.7040   -1.2551   -0.7303 H   0  0  0  0  0  0  0  0  0  0  0  0
   -2.8584   -1.2356    0.9981 H   0  0  0  0  0  0  0  0  0  0  0  0
   -0.1288   -0.6617   -0.0271 C   0  0  0  0  0  0  0  0  0  0  0  0
   -1.2545    0.8016    1.0226 H   0  0  0  0  0  0  0  0  0  0  0  0
   -1.4450    0.6758   -0.6334 H   0  0  0  0  0  0  0  0  0  0  0  0
    0.1500   -1.3837    0.8613 H   0  0  0  0  0  0  0  0  0  0  0  0
    0.8478   -0.0643   -0.4444 H   0  0  0  0  0  0  0  0  0  0  0  0
   -0.6228   -1.1673   -0.8672 H   0  0  0  0  0  0  0  0  0  0  0  0
  1  2  1  0  0  0  0
  1  5  1  0  0  0  0
  2  6  1  0  0  0  0
  2  8  1  0  0  0  0
  3  1  1  0  0  0  0
  4  1  1  0  0  0  0
  6 10  1  0  0  0  0
  7  2  1  0  0  0  0
  9  6  1  0  0  0  0
  9 12  1  0  0  0  0
 11  6  1  0  0  0  0
 13  9  1  0  0  0  0
 14  9  1  0  0  0  0
M  END
$$$$
