14
butane_opt
C  -3.944494   0.223416  -0.045808
C  -2.749060  -0.560820   0.099998
H  -4.893826  -0.377789   0.161404
H  -3.978218   0.847489  -0.888996
H  -3.933876   0.912086   0.803474
C  -1.429044   0.235561   0.059568
H  -2.742119  -1.262876  -0.776647
H  -2.892483  -1.190970   0.987242
C  -0.107018  -0.734961  -0.001609
H  -1.355307   0.762276   0.824192
H  -1.337223   0.840406  -0.895894
H   0.020335  -1.236063   0.748311
H   0.812001  -0.136426   0.061773
H   0.031990  -1.582891  -0.935022
