14
butane_opt
C  -3.982859   0.242721  -0.066729
C  -2.724802  -0.583141   0.115528
H  -4.941806  -0.348057   0.234582
H  -3.901739   1.218254  -1.248614
H  -4.029567   0.577914   0.561978
C  -1.401731   0.193715   0.133395
H  -2.656523  -1.353673  -0.704007
H  -2.661272  -1.162276   0.953993
C  -0.128404  -0.704467  -0.051962
H  -1.304089   0.912513   1.026382
H  -1.475784   0.665625  -0.641968
H   0.173714  -1.136209   0.720294
H   0.788576  -0.164750  -0.151487
H  -0.163498  -1.445271  -0.918497
