14
butane_opt
C  -3.949236   0.234551   0.115639
C  -2.708064  -0.620080  -0.077565
H  -4.886741  -0.332772   0.189549
H  -4.283987   0.992170  -0.790949
H  -3.942861   0.950849   0.970809
C  -1.379380   0.215720  -0.078255
H  -2.896978  -1.288940  -0.945852
H  -2.694235  -1.205395   0.808843
C  -0.127471  -0.709167   0.116977
H  -1.430478   0.912516   0.682481
H  -1.504706   0.872924  -0.955452
H  -0.237957  -1.382805   1.028687
H   0.734157  -0.173455   0.221604
H   0.122731  -1.292163  -0.691697
