14
butane_opt
C  -3.927819   0.266042   0.076947
C  -2.672680  -0.648182  -0.014729
H  -4.874014  -0.297309  -0.073375
H  -3.906182   0.601278  -0.586352
H  -4.007139   1.332321   1.213164
C  -1.445207   0.164441  -0.100547
H  -2.691325  -1.368210  -0.958120
H  -2.560268  -1.122824   0.823935
C  -0.191172  -0.662857   0.108175
H  -1.259493   0.785397   0.771748
H  -1.305508   0.956123  -1.071119
H  -0.231559  -1.530939   1.192669
H   0.708275  -0.130521   0.026806
H  -0.051054  -1.159587  -0.671350
