butane_opt
 OpenBabel08242015383D

 14 13  0  0  0  0  0  0  0  0999 V2000
   -3.9262    0.2500    0.0904 C   0  0  0  0  0  0  0  0  0  0  0  0
   -2.6625   -0.6016   -0.0661 C   0  0  0  0  0  0  0  0  0  0  0  0
   -4.8650   -0.3742    0.3235 H   0  0  0  0  0  0  0  0  0  0  0  0
   -3.9864    1.0718   -0.9191 H   0  0  0  0  0  0  0  0  0  0  0  0
   -3.8441    0.7487    0.8393 H   0  0  0  0  0  0  0  0  0  0  0  0
   -1.4303    0.1908   -0.0344 C   0  0  0  0  0  0  0  0  0  0  0  0
   -2.8077   -1.2776   -0.9011 H   0  0  0  0  0  0  0  0  0  0  0  0
   -2.6325   -1.1964    0.8053 H   0  0  0  0  0  0  0  0  0  0  0  0
   -0.1573   -0.7077    0.0879 C   0  0  0  0  0  0  0  0  0  0  0  0
   -1.4846    0.9465    0.8680 H   0  0  0  0  0  0  0  0  0  0  0  0
   -1.5042    0.6801   -0.9240 H   0  0  0  0  0  0  0  0  0  0  0  0
   -0.2917   -1.3461    0.9328 H   0  0  0  0  0  0  0  0  0  0  0  0
    0.7823   -0.0871    0.1200 H   0  0  0  0  0  0  0  0  0  0  0  0
   -0.2563   -1.1997   -0.6347 H   0  0  0  0  0  0  0  0  0  0  0  0
  1  3  1  0  0  0  0
  1  5  1  0  0  0  0
  2  6  1  0  0  0  0
  2  1  1  0  0  0  0
  2  8  1  0  0  0  0
  4  1  1  0  0  0  0
  6  9  1  0  0  0  0
  6 10  1  0  0  0  0
  7  2  1  0  0  0  0
  9 13  1  0  0  0  0
  9 12  1  0  0  0  0
 11  6  1  0  0  0  0
 14  9  1  0  0  0  0
M  END
$$$$
