butane_opt
 OpenBabel08242015383D

 14 13  0  0  0  0  0  0  0  0999 V2000
   -3.9489    0.2717    0.0349 C   0  0  0  0  0  0  0  0  0  0  0  0
   -2.6922   -0.6186    0.0247 C   0  0  0  0  0  0  0  0  0  0  0  0
   -4.8559   -0.3137    0.1058 H   0  0  0  0  0  0  0  0  0  0  0  0
   -3.9729    0.8888   -0.8692 H   0  0  0  0  0  0  0  0  0  0  0  0
   -3.9287    0.9671    0.9194 H   0  0  0  0  0  0  0  0  0  0  0  0
   -1.4015    0.1705   -0.0096 C   0  0  0  0  0  0  0  0  0  0  0  0
   -2.7182   -1.3307   -0.8376 H   0  0  0  0  0  0  0  0  0  0  0  0
   -2.6990   -1.2588    0.9055 H   0  0  0  0  0  0  0  0  0  0  0  0
   -0.1681   -0.6927    0.0464 C   0  0  0  0  0  0  0  0  0  0  0  0
   -1.3891    0.8100    0.7929 H   0  0  0  0  0  0  0  0  0  0  0  0
   -1.3367    0.8719   -0.9731 H   0  0  0  0  0  0  0  0  0  0  0  0
   -0.2462   -1.2025    0.9149 H   0  0  0  0  0  0  0  0  0  0  0  0
    0.7598   -0.0805    0.1613 H   0  0  0  0  0  0  0  0  0  0  0  0
   -0.1085   -1.3917   -0.8372 H   0  0  0  0  0  0  0  0  0  0  0  0
  1  3  1  0  0  0  0
  1  5  1  0  0  0  0
  2  1  1  0  0  0  0
  2  8  1  0  0  0  0
  4  1  1  0  0  0  0
  6  2  1  0  0  0  0
  6  9  1  0  0  0  0
  6 10  1  0  0  0  0
  7  2  1  0  0  0  0
  9 13  1  0  0  0  0
  9 12  1  0  0  0  0
 11  6  1  0  0  0  0
 14  9  1  0  0  0  0
M  END
$$$$
