butane_opt
 OpenBabel08242015383D

 14 12  0  0  0  0  0  0  0  0999 V2000
   -3.9695    0.3119    0.0558 C   0  0  0  0  0  0  0  0  0  0  0  0
   -2.7188   -0.6937   -0.0183 C   0  0  0  0  0  0  0  0  0  0  0  0
   -4.8913   -0.2851   -0.0250 H   0  0  0  0  0  0  0  0  0  0  0  0
   -4.0882    0.8058   -0.7453 H   0  0  0  0  0  0  0  0  0  0  0  0
   -4.1473    1.1898    1.0483 H   0  0  0  0  0  0  0  0  0  0  0  0
   -1.3638    0.1598   -0.0015 C   0  0  0  0  0  0  0  0  0  0  0  0
   -2.6180   -1.4521   -0.9325 H   0  0  0  0  0  0  0  0  0  0  0  0
   -2.6319   -1.2064    0.7635 H   0  0  0  0  0  0  0  0  0  0  0  0
   -0.1697   -0.6548    0.0535 C   0  0  0  0  0  0  0  0  0  0  0  0
   -1.2391    1.0003    0.9026 H   0  0  0  0  0  0  0  0  0  0  0  0
   -1.2501    0.7997   -0.9552 H   0  0  0  0  0  0  0  0  0  0  0  0
   -0.1269   -1.7846    1.2614 H   0  0  0  0  0  0  0  0  0  0  0  0
    0.7741   -0.0851   -0.3149 H   0  0  0  0  0  0  0  0  0  0  0  0
   -0.1426   -0.9332   -0.5645 H   0  0  0  0  0  0  0  0  0  0  0  0
  1  5  1  0  0  0  0
  2  6  1  0  0  0  0
  2  1  1  0  0  0  0
  2  8  1  0  0  0  0
  3  1  1  0  0  0  0
  4  1  1  0  0  0  0
  6  9  1  0  0  0  0
  6 10  1  0  0  0  0
  7  2  1  0  0  0  0
 11  6  1  0  0  0  0
 13  9  1  0  0  0  0
 14  9  1  0  0  0  0
M  RAD  2   9   2  12   2
M  END
$$$$
