14
butane_opt
C  -3.909079   0.232473  -0.066138
C  -2.738839  -0.571125   0.113068
H  -4.864349  -0.448506   0.049823
H  -3.736500   1.167728  -1.178400
H  -3.808000   0.640149   0.607060
C  -1.415958   0.220793   0.133379
H  -2.690650  -1.406819  -0.794538
H  -2.704575  -1.133507   1.034322
C  -0.168456  -0.745068  -0.046799
H  -1.226163   1.081024   1.090106
H  -1.609002   0.787194  -0.619445
H   0.118348  -1.320600   0.821525
H   0.612934  -0.204583  -0.350558
H  -0.308316  -1.293317  -0.850745
