butane_opt
 OpenBabel08242015383D

 14 12  0  0  0  0  0  0  0  0999 V2000
   -3.9813    0.2169   -0.0554 C   0  0  0  0  0  0  0  0  0  0  0  0
   -2.7028   -0.5965    0.0901 C   0  0  0  0  0  0  0  0  0  0  0  0
   -4.8603   -0.4215    0.5531 H   0  0  0  0  0  0  0  0  0  0  0  0
   -4.0806    1.3996   -1.3367 H   0  0  0  0  0  0  0  0  0  0  0  0
   -3.9223    0.4844    0.5698 H   0  0  0  0  0  0  0  0  0  0  0  0
   -1.3813    0.2437    0.0965 C   0  0  0  0  0  0  0  0  0  0  0  0
   -2.7484   -1.2383   -0.7561 H   0  0  0  0  0  0  0  0  0  0  0  0
   -2.7119   -1.2236    0.9245 H   0  0  0  0  0  0  0  0  0  0  0  0
   -0.1356   -0.7098   -0.0475 C   0  0  0  0  0  0  0  0  0  0  0  0
   -1.4768    1.1330    1.1518 H   0  0  0  0  0  0  0  0  0  0  0  0
   -1.4033    0.6113   -0.6141 H   0  0  0  0  0  0  0  0  0  0  0  0
   -0.0140   -1.1857    0.8163 H   0  0  0  0  0  0  0  0  0  0  0  0
    0.6047   -0.3056    0.0618 H   0  0  0  0  0  0  0  0  0  0  0  0
    0.0241   -1.5801   -1.0122 H   0  0  0  0  0  0  0  0  0  0  0  0
  1  2  1  0  0  0  0
  1  3  1  0  0  0  0
  1  5  1  0  0  0  0
  2  6  1  0  0  0  0
  2  8  1  0  0  0  0
  6 10  1  0  0  0  0
  7  2  1  0  0  0  0
  9 13  1  0  0  0  0
  9  6  1  0  0  0  0
  9 12  1  0  0  0  0
 11  6  1  0  0  0  0
 14  9  1  0  0  0  0
M  RAD  2   1   2   4   2
M  END
$$$$
