butane_opt
 OpenBabel08242015383D

 14 13  0  0  0  0  0  0  0  0999 V2000
   -3.9323    0.2150   -0.0303 C   0  0  0  0  0  0  0  0  0  0  0  0
   -2.7186   -0.5685    0.0580 C   0  0  0  0  0  0  0  0  0  0  0  0
   -4.8858   -0.4516    0.0052 H   0  0  0  0  0  0  0  0  0  0  0  0
   -3.9946    0.8055   -0.9168 H   0  0  0  0  0  0  0  0  0  0  0  0
   -4.0099    0.9101    0.8413 H   0  0  0  0  0  0  0  0  0  0  0  0
   -1.4146    0.2438    0.0730 C   0  0  0  0  0  0  0  0  0  0  0  0
   -2.6978   -1.2756   -0.8111 H   0  0  0  0  0  0  0  0  0  0  0  0
   -2.6805   -1.1640    0.9444 H   0  0  0  0  0  0  0  0  0  0  0  0
   -0.1432   -0.7346   -0.0246 C   0  0  0  0  0  0  0  0  0  0  0  0
   -1.2790    1.1195    1.1535 H   0  0  0  0  0  0  0  0  0  0  0  0
   -1.4593    0.7405   -0.7468 H   0  0  0  0  0  0  0  0  0  0  0  0
    0.0885   -1.7655    1.0326 H   0  0  0  0  0  0  0  0  0  0  0  0
    0.6506   -0.2620   -0.2980 H   0  0  0  0  0  0  0  0  0  0  0  0
   -0.2064   -1.0142   -0.6295 H   0  0  0  0  0  0  0  0  0  0  0  0
  1  3  1  0  0  0  0
  1  2  1  0  0  0  0
  1  5  1  0  0  0  0
  2  6  1  0  0  0  0
  2  8  1  0  0  0  0
  4  1  1  0  0  0  0
  6 10  1  0  0  0  0
  7  2  1  0  0  0  0
  9  6  1  0  0  0  0
  9 12  1  0  0  0  0
 11  6  1  0  0  0  0
 13  9  1  0  0  0  0
 14  9  1  0  0  0  0
M  END
$$$$
