14
butane_opt
C  -3.898762   0.303488   0.067714
C  -2.696206  -0.624786  -0.010947
H  -4.869866  -0.280343   0.052956
H  -4.091605   0.891481  -0.869192
H  -3.991253   1.016721   0.919036
C  -1.381242   0.121014  -0.021620
H  -2.701561  -1.441780  -0.988923
H  -2.781068  -1.181148   0.822872
C  -0.192768  -0.651355   0.087729
H  -1.566236   0.659883   0.810963
H  -1.330788   0.728509  -0.919488
H  -0.044136  -1.421134   1.047544
H   0.821544   0.016814  -0.152865
H  -0.455522  -1.206489  -0.733183
