14
butane_opt
C  -3.965975   0.247135   0.088098
C  -2.738286  -0.617214  -0.033789
H  -4.819701  -0.330276   0.174292
H  -4.042881   0.882598  -0.779351
H  -3.903354   1.001793   0.959694
C  -1.423779   0.191279  -0.080754
H  -2.889800  -1.289665  -0.884939
H  -2.712812  -0.996195   0.777245
C  -0.103075  -0.718492   0.109074
H  -1.446521   0.949477   0.785297
H  -1.251852   0.769777  -0.939923
H  -0.178533  -1.434074   1.057057
H   0.832116  -0.020675  -0.003086
H   0.148728  -1.246684  -0.704334
