butane_opt
 OpenBabel08242015383D

 14 13  0  0  0  0  0  0  0  0999 V2000
   -3.8901    0.2569   -0.0432 C   0  0  0  0  0  0  0  0  0  0  0  0
   -2.7071   -0.6474    0.0559 C   0  0  0  0  0  0  0  0  0  0  0  0
   -4.7650   -0.2885    0.0005 H   0  0  0  0  0  0  0  0  0  0  0  0
   -3.9514    0.8929   -0.9222 H   0  0  0  0  0  0  0  0  0  0  0  0
   -3.9677    1.0000    0.8984 H   0  0  0  0  0  0  0  0  0  0  0  0
   -1.4444    0.1883    0.0944 C   0  0  0  0  0  0  0  0  0  0  0  0
   -2.5657   -1.2484   -0.7975 H   0  0  0  0  0  0  0  0  0  0  0  0
   -2.6547   -1.1665    0.9319 H   0  0  0  0  0  0  0  0  0  0  0  0
   -0.1710   -0.6805    0.0028 C   0  0  0  0  0  0  0  0  0  0  0  0
   -1.5209    0.9702    1.0569 H   0  0  0  0  0  0  0  0  0  0  0  0
   -1.3657    0.7625   -0.7223 H   0  0  0  0  0  0  0  0  0  0  0  0
    0.0100   -1.5668    1.0568 H   0  0  0  0  0  0  0  0  0  0  0  0
    0.8019   -0.1309   -0.6039 H   0  0  0  0  0  0  0  0  0  0  0  0
   -0.4844   -1.1026   -0.7688 H   0  0  0  0  0  0  0  0  0  0  0  0
  1  3  1  0  0  0  0
  1  2  1  0  0  0  0
  1  5  1  0  0  0  0
  2  6  1  0  0  0  0
  2  8  1  0  0  0  0
  4  1  1  0  0  0  0
  6 10  1  0  0  0  0
  7  2  1  0  0  0  0
  9  6  1  0  0  0  0
  9 12  1  0  0  0  0
 11  6  1  0  0  0  0
 13  9  1  0  0  0  0
 14  9  1  0  0  0  0
M  END
$$$$
