14
butane_opt
C  -3.932680   0.293965   0.058653
C  -2.698781  -0.675553  -0.015269
H  -4.709960  -0.152708   0.189185
H  -4.127739   0.871695  -0.749688
H  -3.789664   1.018986   0.970857
C  -1.411100   0.165572  -0.059842
H  -2.675913  -1.379409  -0.853886
H  -2.612757  -1.283376   0.870827
C  -0.182787  -0.665063   0.109269
H  -1.365256   0.743152   0.619203
H  -1.453843   0.834004  -0.965475
H  -0.373330  -1.118528   0.911756
H   0.760887   0.009229   0.180513
H  -0.002851  -1.424209  -0.858551
