14
butane_opt
C  -3.960326   0.250695   0.117346
C  -2.723716  -0.622412  -0.044206
H  -4.909110  -0.391321   0.126376
H  -4.014226   0.678356  -0.622338
H  -3.844916   1.041567   1.108763
C  -1.402386   0.251031  -0.114094
H  -2.676489  -1.422487  -1.031727
H  -2.767913  -1.187045   0.779887
C  -0.113586  -0.710931   0.130540
H  -1.529260   0.671158   0.473888
H  -1.378963   1.108866  -1.126759
H  -0.172705  -1.262504   1.068136
H   0.610074  -0.287524   0.399452
H   0.079213  -1.476674  -0.773901
