butane_opt
 OpenBabel08242015383D

 14 13  0  0  0  0  0  0  0  0999 V2000
   -3.9513    0.2432   -0.0585 C   0  0  0  0  0  0  0  0  0  0  0  0
   -2.7129   -0.5874    0.0637 C   0  0  0  0  0  0  0  0  0  0  0  0
   -4.8871   -0.3000    0.3933 H   0  0  0  0  0  0  0  0  0  0  0  0
   -3.9828    1.2455   -1.1430 H   0  0  0  0  0  0  0  0  0  0  0  0
   -3.7604    0.4659    0.5585 H   0  0  0  0  0  0  0  0  0  0  0  0
   -1.4060    0.2105    0.1312 C   0  0  0  0  0  0  0  0  0  0  0  0
   -2.7270   -1.2466   -0.7414 H   0  0  0  0  0  0  0  0  0  0  0  0
   -2.9123   -1.3115    1.0698 H   0  0  0  0  0  0  0  0  0  0  0  0
   -0.1493   -0.7010   -0.0487 C   0  0  0  0  0  0  0  0  0  0  0  0
   -1.1461    1.0828    1.0674 H   0  0  0  0  0  0  0  0  0  0  0  0
   -1.5029    0.7251   -0.6693 H   0  0  0  0  0  0  0  0  0  0  0  0
   -0.0596   -1.3108    0.8038 H   0  0  0  0  0  0  0  0  0  0  0  0
    0.5951   -0.2391   -0.0171 H   0  0  0  0  0  0  0  0  0  0  0  0
   -0.0128   -1.5748   -0.9788 H   0  0  0  0  0  0  0  0  0  0  0  0
  1  2  1  0  0  0  0
  1  3  1  0  0  0  0
  1  5  1  0  0  0  0
  2  6  1  0  0  0  0
  2  8  1  0  0  0  0
  4  1  1  0  0  0  0
  6 10  1  0  0  0  0
  7  2  1  0  0  0  0
  9 13  1  0  0  0  0
  9  6  1  0  0  0  0
  9 12  1  0  0  0  0
 11  6  1  0  0  0  0
 14  9  1  0  0  0  0
M  END
$$$$
