butane_opt
 OpenBabel08242015383D

 14 13  0  0  0  0  0  0  0  0999 V2000
   -3.9247    0.2765    0.0737 C   0  0  0  0  0  0  0  0  0  0  0  0
   -2.6669   -0.6383   -0.0524 C   0  0  0  0  0  0  0  0  0  0  0  0
   -4.7897   -0.1869   -0.0075 H   0  0  0  0  0  0  0  0  0  0  0  0
   -3.9671    0.6540   -0.6775 H   0  0  0  0  0  0  0  0  0  0  0  0
   -3.9798    1.1496    1.0228 H   0  0  0  0  0  0  0  0  0  0  0  0
   -1.4368    0.1262    0.0018 C   0  0  0  0  0  0  0  0  0  0  0  0
   -2.8468   -1.3821   -0.9661 H   0  0  0  0  0  0  0  0  0  0  0  0
   -2.6251   -1.1290    0.7230 H   0  0  0  0  0  0  0  0  0  0  0  0
   -0.1627   -0.6499    0.1029 C   0  0  0  0  0  0  0  0  0  0  0  0
   -1.4922    0.7286    0.7137 H   0  0  0  0  0  0  0  0  0  0  0  0
   -1.3297    1.0084   -1.0618 H   0  0  0  0  0  0  0  0  0  0  0  0
   -0.0484   -1.5653    1.1717 H   0  0  0  0  0  0  0  0  0  0  0  0
    0.7098   -0.0601   -0.3580 H   0  0  0  0  0  0  0  0  0  0  0  0
   -0.3810   -1.0654   -0.5827 H   0  0  0  0  0  0  0  0  0  0  0  0
  1  5  1  0  0  0  0
  2  6  1  0  0  0  0
  2  1  1  0  0  0  0
  2  8  1  0  0  0  0
  3  1  1  0  0  0  0
  4  1  1  0  0  0  0
  6  9  1  0  0  0  0
  6 10  1  0  0  0  0
  7  2  1  0  0  0  0
  9 12  1  0  0  0  0
 11  6  1  0  0  0  0
 13  9  1  0  0  0  0
 14  9  1  0  0  0  0
M  END
$$$$
