butane_opt
 OpenBabel08242015383D

 14 13  0  0  0  0  0  0  0  0999 V2000
   -3.9317    0.2440    0.0332 C   0  0  0  0  0  0  0  0  0  0  0  0
   -2.6666   -0.5807    0.0076 C   0  0  0  0  0  0  0  0  0  0  0  0
   -4.9250   -0.5406    0.2049 H   0  0  0  0  0  0  0  0  0  0  0  0
   -4.0036    0.9640   -0.9259 H   0  0  0  0  0  0  0  0  0  0  0  0
   -3.8367    0.8157    0.8088 H   0  0  0  0  0  0  0  0  0  0  0  0
   -1.4386    0.2005   -0.0079 C   0  0  0  0  0  0  0  0  0  0  0  0
   -2.6817   -1.2889   -0.8150 H   0  0  0  0  0  0  0  0  0  0  0  0
   -2.5522   -1.0901    0.8605 H   0  0  0  0  0  0  0  0  0  0  0  0
   -0.1806   -0.7116    0.0468 C   0  0  0  0  0  0  0  0  0  0  0  0
   -1.4193    0.9814    0.9836 H   0  0  0  0  0  0  0  0  0  0  0  0
   -1.3324    0.6911   -0.8524 H   0  0  0  0  0  0  0  0  0  0  0  0
   -0.2606   -1.3946    1.0584 H   0  0  0  0  0  0  0  0  0  0  0  0
    0.7482   -0.0987   -0.1110 H   0  0  0  0  0  0  0  0  0  0  0  0
   -0.1237   -1.3506   -0.7607 H   0  0  0  0  0  0  0  0  0  0  0  0
  1  3  1  0  0  0  0
  1  5  1  0  0  0  0
  2  1  1  0  0  0  0
  2  8  1  0  0  0  0
  4  1  1  0  0  0  0
  6  2  1  0  0  0  0
  6  9  1  0  0  0  0
  6 10  1  0  0  0  0
  7  2  1  0  0  0  0
  9 12  1  0  0  0  0
 11  6  1  0  0  0  0
 13  9  1  0  0  0  0
 14  9  1  0  0  0  0
M  END
$$$$
