14
butane_opt
C  -3.943435   0.299035   0.088330
C  -2.666504  -0.660301  -0.043124
H  -4.813241  -0.237577  -0.005295
H  -3.992100   0.799439  -0.784614
H  -4.033072   1.049613   0.987000
C  -1.379714   0.148065  -0.008085
H  -2.800710  -1.466541  -1.074276
H  -2.504344  -1.131748   0.644473
C  -0.224561  -0.656353   0.093336
H  -1.456935   0.721877   0.809254
H  -1.374291   0.815866  -0.975164
H  -0.055792  -1.558163   1.164657
H   0.744976  -0.060965  -0.408945
H  -0.195292  -0.928108  -0.448534
