14
butane_opt
C  -3.966134   0.219211   0.111144
C  -2.686812  -0.581802  -0.114979
H  -4.816012  -0.373880   0.491821
H  -4.194245   1.050364  -0.804381
H  -3.899036   0.807593   0.954092
C  -1.414205   0.230391  -0.062565
H  -2.827812  -1.318400  -1.066639
H  -2.878082  -1.258745   0.798951
C  -0.099766  -0.703966   0.120928
H  -1.545853   0.929316   0.845426
H  -1.330025   0.776904  -0.954511
H  -0.169581  -1.519970   1.184044
H   0.703350  -0.215390   0.028858
H  -0.040819  -1.309549  -0.681096
