butane_opt
 OpenBabel08242015383D

 14 12  0  0  0  0  0  0  0  0999 V2000
   -3.8923    0.2726   -0.0313 C   0  0  0  0  0  0  0  0  0  0  0  0
   -2.7111   -0.6160    0.1150 C   0  0  0  0  0  0  0  0  0  0  0  0
   -4.9263   -0.4556    0.1228 H   0  0  0  0  0  0  0  0  0  0  0  0
   -3.8954    1.0267   -1.0753 H   0  0  0  0  0  0  0  0  0  0  0  0
   -3.9161    0.7777    0.6703 H   0  0  0  0  0  0  0  0  0  0  0  0
   -1.4031    0.2051    0.0390 C   0  0  0  0  0  0  0  0  0  0  0  0
   -2.7062   -1.2535   -0.6925 H   0  0  0  0  0  0  0  0  0  0  0  0
   -2.7004   -1.4079    1.0855 H   0  0  0  0  0  0  0  0  0  0  0  0
   -0.1926   -0.7040   -0.0027 C   0  0  0  0  0  0  0  0  0  0  0  0
   -1.3550    0.9198    0.9112 H   0  0  0  0  0  0  0  0  0  0  0  0
   -1.5198    0.8741   -0.9205 H   0  0  0  0  0  0  0  0  0  0  0  0
   -0.0762   -0.8595    0.5811 H   0  0  0  0  0  0  0  0  0  0  0  0
    0.6637   -0.2845    0.3987 H   0  0  0  0  0  0  0  0  0  0  0  0
   -0.1862   -1.7176   -1.1154 H   0  0  0  0  0  0  0  0  0  0  0  0
  1  2  1  0  0  0  0
  1  3  1  0  0  0  0
  1  5  1  0  0  0  0
  2  8  1  0  0  0  0
  4  1  1  0  0  0  0
  6  2  1  0  0  0  0
  6 10  1  0  0  0  0
  7  2  1  0  0  0  0
  9  6  1  0  0  0  0
  9 13  1  0  0  0  0
 11  6  1  0  0  0  0
 14  9  1  0  0  0  0
M  RAD  2   9   2  12   2
M  END
$$$$
