butane_opt
 OpenBabel08242015383D

 14 13  0  0  0  0  0  0  0  0999 V2000
   -3.9416    0.2782    0.0128 C   0  0  0  0  0  0  0  0  0  0  0  0
   -2.6920   -0.6358    0.0697 C   0  0  0  0  0  0  0  0  0  0  0  0
   -4.7947   -0.2938   -0.2232 H   0  0  0  0  0  0  0  0  0  0  0  0
   -3.8659    0.6779   -0.6950 H   0  0  0  0  0  0  0  0  0  0  0  0
   -4.0202    1.2477    0.9898 H   0  0  0  0  0  0  0  0  0  0  0  0
   -1.3719    0.1903   -0.0338 C   0  0  0  0  0  0  0  0  0  0  0  0
   -2.6583   -1.4407   -0.8149 H   0  0  0  0  0  0  0  0  0  0  0  0
   -2.5496   -1.3025    1.0291 H   0  0  0  0  0  0  0  0  0  0  0  0
   -0.2062   -0.6905    0.0274 C   0  0  0  0  0  0  0  0  0  0  0  0
   -1.3285    0.8791    0.8881 H   0  0  0  0  0  0  0  0  0  0  0  0
   -1.3546    0.7338   -0.8931 H   0  0  0  0  0  0  0  0  0  0  0  0
   -0.3813   -1.3616    1.0675 H   0  0  0  0  0  0  0  0  0  0  0  0
    0.6367   -0.1007   -0.0871 H   0  0  0  0  0  0  0  0  0  0  0  0
   -0.1525   -1.2216   -0.7228 H   0  0  0  0  0  0  0  0  0  0  0  0
  1  2  1  0  0  0  0
  1  5  1  0  0  0  0
  2  8  1  0  0  0  0
  3  1  1  0  0  0  0
  4  1  1  0  0  0  0
  6  9  1  0  0  0  0
  6  2  1  0  0  0  0
  6 10  1  0  0  0  0
  7  2  1  0  0  0  0
  9 12  1  0  0  0  0
 11  6  1  0  0  0  0
 13  9  1  0  0  0  0
 14  9  1  0  0  0  0
M  END
$$$$
