14
butane_opt
C  -3.948844   0.233444   0.087017
C  -2.719562  -0.568633  -0.042051
H  -4.858750  -0.371512   0.159046
H  -4.127916   0.951532  -0.828395
H  -3.793418   0.763313   0.897890
C  -1.395337   0.238620  -0.055362
H  -2.871641  -1.406619  -1.057968
H  -2.599182  -1.211169   0.813866
C  -0.144334  -0.721677   0.087542
H  -1.453322   0.950065   0.890898
H  -1.216358   0.709021  -0.867822
H  -0.141747  -1.492975   1.171357
H   0.669036  -0.327712  -0.052997
H  -0.099791  -1.215020  -0.637402
