14
butane_opt
C  -3.918994   0.246912   0.105203
C  -2.700244  -0.569718  -0.099882
H  -4.801399  -0.388959   0.538535
H  -4.106548   0.871974  -0.732291
H  -3.640600   0.792915   0.881937
C  -1.424475   0.158399  -0.082722
H  -2.735792  -1.298172  -1.033513
H  -2.644816  -1.067766   0.741877
C  -0.153143  -0.690354   0.108085
H  -1.652308   0.879623   0.842513
H  -1.394080   0.778382  -0.907204
H  -0.350475  -1.504294   1.207177
H   0.671304  -0.106452   0.156686
H  -0.010904  -1.182500  -0.615647
