butane_opt
 OpenBabel08242015383D

 14 12  0  0  0  0  0  0  0  0999 V2000
   -3.9620    0.3012    0.1120 C   0  0  0  0  0  0  0  0  0  0  0  0
   -2.6478   -0.6332   -0.0031 C   0  0  0  0  0  0  0  0  0  0  0  0
   -4.9286   -0.3264   -0.5262 H   0  0  0  0  0  0  0  0  0  0  0  0
   -3.8756    0.4461   -0.5279 H   0  0  0  0  0  0  0  0  0  0  0  0
   -4.0901    1.3483    1.2680 H   0  0  0  0  0  0  0  0  0  0  0  0
   -1.3992    0.1250   -0.1166 C   0  0  0  0  0  0  0  0  0  0  0  0
   -2.6841   -1.4033   -0.8862 H   0  0  0  0  0  0  0  0  0  0  0  0
   -2.6966   -1.1440    0.8449 H   0  0  0  0  0  0  0  0  0  0  0  0
   -0.1956   -0.6572    0.1262 C   0  0  0  0  0  0  0  0  0  0  0  0
   -1.4914    0.5941    0.6449 H   0  0  0  0  0  0  0  0  0  0  0  0
   -1.3138    0.8685   -1.1572 H   0  0  0  0  0  0  0  0  0  0  0  0
   -0.0894   -1.3168    1.0761 H   0  0  0  0  0  0  0  0  0  0  0  0
    0.7502   -0.0418   -0.1216 H   0  0  0  0  0  0  0  0  0  0  0  0
   -0.1694   -1.1129   -0.5515 H   0  0  0  0  0  0  0  0  0  0  0  0
  2  1  1  0  0  0  0
  2  8  1  0  0  0  0
  3  1  1  0  0  0  0
  4  1  1  0  0  0  0
  6  2  1  0  0  0  0
  6  9  1  0  0  0  0
  6 10  1  0  0  0  0
  7  2  1  0  0  0  0
  9 12  1  0  0  0  0
 11  6  1  0  0  0  0
 13  9  1  0  0  0  0
 14  9  1  0  0  0  0
M  RAD  2   1   2   5   2
M  END
$$$$
