14
butane_opt
C  -3.977330   0.261018   0.053811
C  -2.714673  -0.574006   0.037538
H  -4.965857  -0.408099  -0.344876
H  -3.675771   0.344415  -0.512372
H  -4.149189   1.253403   1.101970
C  -1.382337   0.205311  -0.092301
H  -3.008015  -1.241836  -0.797366
H  -2.651759  -1.228779   0.904459
C  -0.145213  -0.730240   0.074068
H  -1.407288   0.857967   0.760280
H  -1.335048   0.825171  -0.914311
H  -0.026736  -1.465902   1.157716
H   0.756535  -0.132133  -0.073306
H   0.058085  -1.240056  -0.677821
