14
butane_opt
C  -3.970129   0.243562   0.090867
C  -2.740295  -0.604901   0.012202
H  -4.810229  -0.324148  -0.346667
H  -3.822584   0.474829  -0.543911
H  -4.135016   1.422030   1.202395
C  -1.375385   0.224636  -0.094793
H  -2.880662  -1.493775  -1.018045
H  -2.591230  -1.119744   0.803375
C  -0.122851  -0.737620   0.107011
H  -1.421265   0.726732   0.689455
H  -1.360906   1.036765  -1.150544
H  -0.196098  -1.510056   1.181249
H   0.780825  -0.091090  -0.117861
H  -0.069090  -1.108091  -0.582389
