14
butane_opt
C  -3.916742   0.247112  -0.060647
C  -2.684279  -0.614010   0.126641
H  -4.861978  -0.272269  -0.092670
H  -3.814268   1.030836  -1.094027
H  -3.981222   0.811513   0.780285
C  -1.407239   0.201695   0.109979
H  -2.806903  -1.362668  -0.792043
H  -2.847017  -1.140650   1.057995
C  -0.178013  -0.719342  -0.036241
H  -1.481599   1.019900   1.047672
H  -1.389257   0.807777  -0.770888
H   0.023571  -1.296031   0.800744
H   0.742839  -0.123614  -0.359768
H  -0.364581  -1.331179  -0.851414
