14
butane_opt
C  -3.953360   0.244024  -0.056826
C  -2.738469  -0.566110   0.090601
H  -4.905180  -0.412855   0.520627
H  -4.058631   1.210888  -1.128785
H  -3.911092   0.455321   0.454527
C  -1.384425   0.214950   0.093380
H  -2.727870  -1.297797  -0.796644
H  -2.740795  -1.226456   1.025246
C  -0.138204  -0.722742  -0.035967
H  -1.374038   1.169683   1.125871
H  -1.343225   0.620663  -0.740015
H  -0.074360  -1.276480   0.759117
H   0.777790  -0.178287   0.083791
H  -0.080359  -1.580724  -1.009254
