butane_opt
 OpenBabel08242015383D

 14 13  0  0  0  0  0  0  0  0999 V2000
   -3.9386    0.2538   -0.0214 C   0  0  0  0  0  0  0  0  0  0  0  0
   -2.7085   -0.6071    0.0742 C   0  0  0  0  0  0  0  0  0  0  0  0
   -4.8744   -0.3446    0.0694 H   0  0  0  0  0  0  0  0  0  0  0  0
   -3.9844    0.9079   -0.9248 H   0  0  0  0  0  0  0  0  0  0  0  0
   -3.9820    0.8819    0.8004 H   0  0  0  0  0  0  0  0  0  0  0  0
   -1.4128    0.2054    0.0532 C   0  0  0  0  0  0  0  0  0  0  0  0
   -2.7473   -1.3143   -0.8070 H   0  0  0  0  0  0  0  0  0  0  0  0
   -2.7758   -1.2587    0.9653 H   0  0  0  0  0  0  0  0  0  0  0  0
   -0.1417   -0.7036   -0.0001 C   0  0  0  0  0  0  0  0  0  0  0  0
   -1.3673    0.8722    0.9049 H   0  0  0  0  0  0  0  0  0  0  0  0
   -1.4511    0.8453   -0.8295 H   0  0  0  0  0  0  0  0  0  0  0  0
   -0.0335   -1.2927    0.8950 H   0  0  0  0  0  0  0  0  0  0  0  0
    0.7499   -0.1482   -0.0220 H   0  0  0  0  0  0  0  0  0  0  0  0
   -0.1361   -1.4052   -0.8856 H   0  0  0  0  0  0  0  0  0  0  0  0
  1  3  1  0  0  0  0
  1  2  1  0  0  0  0
  1  5  1  0  0  0  0
  2  8  1  0  0  0  0
  4  1  1  0  0  0  0
  6  2  1  0  0  0  0
  6 10  1  0  0  0  0
  7  2  1  0  0  0  0
  9  6  1  0  0  0  0
  9 12  1  0  0  0  0
 11  6  1  0  0  0  0
 13  9  1  0  0  0  0
 14  9  1  0  0  0  0
M  END
$$$$
