butane_opt
 OpenBabel08242015383D

 14 13  0  0  0  0  0  0  0  0999 V2000
   -3.9638    0.3145   -0.1090 C   0  0  0  0  0  0  0  0  0  0  0  0
   -2.6637   -0.6435    0.1439 C   0  0  0  0  0  0  0  0  0  0  0  0
   -4.8640   -0.3534    0.0074 H   0  0  0  0  0  0  0  0  0  0  0  0
   -3.9084    1.0131   -1.1065 H   0  0  0  0  0  0  0  0  0  0  0  0
   -3.8430    0.9570    0.7153 H   0  0  0  0  0  0  0  0  0  0  0  0
   -1.3933    0.1091    0.1530 C   0  0  0  0  0  0  0  0  0  0  0  0
   -2.4616   -1.3595   -0.7143 H   0  0  0  0  0  0  0  0  0  0  0  0
   -2.7797   -1.3974    1.1367 H   0  0  0  0  0  0  0  0  0  0  0  0
   -0.2056   -0.6353   -0.0867 C   0  0  0  0  0  0  0  0  0  0  0  0
   -1.3785    1.0022    1.1123 H   0  0  0  0  0  0  0  0  0  0  0  0
   -1.4612    0.5729   -0.5531 H   0  0  0  0  0  0  0  0  0  0  0  0
   -0.0195   -1.4396    0.9324 H   0  0  0  0  0  0  0  0  0  0  0  0
    0.8018    0.0427   -0.3746 H   0  0  0  0  0  0  0  0  0  0  0  0
   -0.4299   -1.2113   -0.9258 H   0  0  0  0  0  0  0  0  0  0  0  0
  1  3  1  0  0  0  0
  1  2  1  0  0  0  0
  1  5  1  0  0  0  0
  2  6  1  0  0  0  0
  2  8  1  0  0  0  0
  4  1  1  0  0  0  0
  6 10  1  0  0  0  0
  7  2  1  0  0  0  0
  9  6  1  0  0  0  0
  9 12  1  0  0  0  0
 11  6  1  0  0  0  0
 13  9  1  0  0  0  0
 14  9  1  0  0  0  0
M  END
$$$$
