14
butane_opt
C  -3.969728   0.253644   0.017721
C  -2.730079  -0.578425   0.020671
H  -4.936470  -0.396390   0.076819
H  -4.073347   0.840856  -0.919359
H  -4.002458   0.914319   0.835386
C  -1.377041   0.205943   0.072557
H  -2.744008  -1.517137  -1.046823
H  -2.633379  -1.133236   0.831295
C  -0.123912  -0.714871   0.022412
H  -1.250302   0.851154   0.811286
H  -1.394829   0.827459  -0.847277
H  -0.048240  -1.631295   1.121603
H   0.661272  -0.133411  -0.389083
H  -0.153290  -1.096860  -0.604179
