butane_opt
 OpenBabel08242015383D

 14 13  0  0  0  0  0  0  0  0999 V2000
   -3.9049    0.2119    0.1364 C   0  0  0  0  0  0  0  0  0  0  0  0
   -2.6939   -0.5383   -0.0418 C   0  0  0  0  0  0  0  0  0  0  0  0
   -4.8241   -0.4147   -0.2674 H   0  0  0  0  0  0  0  0  0  0  0  0
   -3.8827    0.5361   -0.5471 H   0  0  0  0  0  0  0  0  0  0  0  0
   -4.0273    1.0635    1.0549 H   0  0  0  0  0  0  0  0  0  0  0  0
   -1.4558    0.2149   -0.1294 C   0  0  0  0  0  0  0  0  0  0  0  0
   -2.8262   -1.2798   -0.9149 H   0  0  0  0  0  0  0  0  0  0  0  0
   -2.6479   -1.1691    0.8851 H   0  0  0  0  0  0  0  0  0  0  0  0
   -0.1483   -0.7286    0.1238 C   0  0  0  0  0  0  0  0  0  0  0  0
   -1.5318    0.8602    0.7355 H   0  0  0  0  0  0  0  0  0  0  0  0
   -1.3485    0.9385   -1.1385 H   0  0  0  0  0  0  0  0  0  0  0  0
   -0.2773   -1.4003    1.1214 H   0  0  0  0  0  0  0  0  0  0  0  0
    0.7983   -0.1962    0.0897 H   0  0  0  0  0  0  0  0  0  0  0  0
    0.0026   -1.3479   -0.6375 H   0  0  0  0  0  0  0  0  0  0  0  0
  1  5  1  0  0  0  0
  2  1  1  0  0  0  0
  2  8  1  0  0  0  0
  3  1  1  0  0  0  0
  4  1  1  0  0  0  0
  6  2  1  0  0  0  0
  6  9  1  0  0  0  0
  6 10  1  0  0  0  0
  7  2  1  0  0  0  0
  9 12  1  0  0  0  0
 11  6  1  0  0  0  0
 13  9  1  0  0  0  0
 14  9  1  0  0  0  0
M  END
$$$$
