butane_opt
 OpenBabel08242015383D

 14 13  0  0  0  0  0  0  0  0999 V2000
   -3.9345    0.2384   -0.0481 C   0  0  0  0  0  0  0  0  0  0  0  0
   -2.7070   -0.5672    0.1457 C   0  0  0  0  0  0  0  0  0  0  0  0
   -4.8920   -0.3308    0.1342 H   0  0  0  0  0  0  0  0  0  0  0  0
   -3.7879    1.0475   -1.0988 H   0  0  0  0  0  0  0  0  0  0  0  0
   -3.8362    0.7063    0.7395 H   0  0  0  0  0  0  0  0  0  0  0  0
   -1.4179    0.1955    0.0365 C   0  0  0  0  0  0  0  0  0  0  0  0
   -2.7703   -1.3055   -0.6680 H   0  0  0  0  0  0  0  0  0  0  0  0
   -2.7274   -1.1684    1.0452 H   0  0  0  0  0  0  0  0  0  0  0  0
   -0.1590   -0.7316   -0.0336 C   0  0  0  0  0  0  0  0  0  0  0  0
   -1.3319    0.8540    0.8954 H   0  0  0  0  0  0  0  0  0  0  0  0
   -1.4907    0.8187   -0.8682 H   0  0  0  0  0  0  0  0  0  0  0  0
   -0.2730   -0.9162    0.5890 H   0  0  0  0  0  0  0  0  0  0  0  0
    0.7890   -0.1314    0.4968 H   0  0  0  0  0  0  0  0  0  0  0  0
   -0.0804   -1.6667   -1.0776 H   0  0  0  0  0  0  0  0  0  0  0  0
  1  3  1  0  0  0  0
  1  2  1  0  0  0  0
  1  5  1  0  0  0  0
  2  8  1  0  0  0  0
  4  1  1  0  0  0  0
  6  2  1  0  0  0  0
  6 10  1  0  0  0  0
  7  2  1  0  0  0  0
  9  6  1  0  0  0  0
  9 13  1  0  0  0  0
  9 12  1  0  0  0  0
 11  6  1  0  0  0  0
 14  9  1  0  0  0  0
M  END
$$$$
