butane_opt
 OpenBabel08242015383D

 14 12  0  0  0  0  0  0  0  0999 V2000
   -3.9534    0.2440   -0.0568 C   0  0  0  0  0  0  0  0  0  0  0  0
   -2.7385   -0.5661    0.0906 C   0  0  0  0  0  0  0  0  0  0  0  0
   -4.9052   -0.4129    0.5206 H   0  0  0  0  0  0  0  0  0  0  0  0
   -4.0586    1.2109   -1.1288 H   0  0  0  0  0  0  0  0  0  0  0  0
   -3.9111    0.4553    0.4545 H   0  0  0  0  0  0  0  0  0  0  0  0
   -1.3844    0.2150    0.0934 C   0  0  0  0  0  0  0  0  0  0  0  0
   -2.7279   -1.2978   -0.7966 H   0  0  0  0  0  0  0  0  0  0  0  0
   -2.7408   -1.2265    1.0252 H   0  0  0  0  0  0  0  0  0  0  0  0
   -0.1382   -0.7227   -0.0360 C   0  0  0  0  0  0  0  0  0  0  0  0
   -1.3740    1.1697    1.1259 H   0  0  0  0  0  0  0  0  0  0  0  0
   -1.3432    0.6207   -0.7400 H   0  0  0  0  0  0  0  0  0  0  0  0
   -0.0744   -1.2765    0.7591 H   0  0  0  0  0  0  0  0  0  0  0  0
    0.7778   -0.1783    0.0838 H   0  0  0  0  0  0  0  0  0  0  0  0
   -0.0804   -1.5807   -1.0093 H   0  0  0  0  0  0  0  0  0  0  0  0
  1  2  1  0  0  0  0
  1  3  1  0  0  0  0
  2  6  1  0  0  0  0
  2  8  1  0  0  0  0
  4  1  1  0  0  0  0
  6 10  1  0  0  0  0
  7  2  1  0  0  0  0
  9 13  1  0  0  0  0
  9  6  1  0  0  0  0
  9 12  1  0  0  0  0
 11  6  1  0  0  0  0
 14  9  1  0  0  0  0
M  RAD  2   1   2   5   2
M  END
$$$$
