14
butane_opt
C  -3.962038   0.301203   0.112016
C  -2.647801  -0.633163  -0.003062
H  -4.928613  -0.326396  -0.526179
H  -3.875567   0.446135  -0.527908
H  -4.090132   1.348311   1.267956
C  -1.399175   0.125005  -0.116606
H  -2.684051  -1.403345  -0.886204
H  -2.696572  -1.143995   0.844870
C  -0.195626  -0.657234   0.126165
H  -1.491447   0.594123   0.644872
H  -1.313778   0.868479  -1.157176
H  -0.089439  -1.316832   1.076129
H   0.750160  -0.041831  -0.121598
H  -0.169436  -1.112919  -0.551473
