butane_opt
 OpenBabel08242015383D

 14 12  0  0  0  0  0  0  0  0999 V2000
   -3.9072    0.2320    0.0926 C   0  0  0  0  0  0  0  0  0  0  0  0
   -2.6885   -0.5876   -0.0400 C   0  0  0  0  0  0  0  0  0  0  0  0
   -4.7773   -0.3541   -0.1178 H   0  0  0  0  0  0  0  0  0  0  0  0
   -3.8041    0.7733   -0.7969 H   0  0  0  0  0  0  0  0  0  0  0  0
   -3.9306    0.9494    1.1080 H   0  0  0  0  0  0  0  0  0  0  0  0
   -1.4575    0.2105   -0.0199 C   0  0  0  0  0  0  0  0  0  0  0  0
   -2.7279   -1.4024   -1.0341 H   0  0  0  0  0  0  0  0  0  0  0  0
   -2.5718   -0.9896    0.7385 H   0  0  0  0  0  0  0  0  0  0  0  0
   -0.1915   -0.6951    0.0826 C   0  0  0  0  0  0  0  0  0  0  0  0
   -1.4937    0.8103    0.7684 H   0  0  0  0  0  0  0  0  0  0  0  0
   -1.2667    0.8055   -0.9330 H   0  0  0  0  0  0  0  0  0  0  0  0
   -0.0132   -1.7755    1.2795 H   0  0  0  0  0  0  0  0  0  0  0  0
    0.6713   -0.1465   -0.3607 H   0  0  0  0  0  0  0  0  0  0  0  0
   -0.1747   -1.0503   -0.5666 H   0  0  0  0  0  0  0  0  0  0  0  0
  1  5  1  0  0  0  0
  2  6  1  0  0  0  0
  2  1  1  0  0  0  0
  2  8  1  0  0  0  0
  3  1  1  0  0  0  0
  4  1  1  0  0  0  0
  6  9  1  0  0  0  0
  6 10  1  0  0  0  0
  7  2  1  0  0  0  0
 11  6  1  0  0  0  0
 13  9  1  0  0  0  0
 14  9  1  0  0  0  0
M  RAD  2   9   2  12   2
M  END
$$$$
