14
butane_opt
C  -3.941644   0.248471  -0.070313
C  -2.734178  -0.600846   0.151204
H  -4.980212  -0.410128   0.124815
H  -3.872584   1.050690  -1.087598
H  -4.120870   0.790659   0.701260
C  -1.418876   0.223037   0.070812
H  -2.724854  -1.234213  -0.718706
H  -2.834049  -1.378634   1.218942
C  -0.093861  -0.713530  -0.026008
H  -1.379942   0.872713   0.871664
H  -1.563380   0.826039  -0.832161
H  -0.049990  -0.910355   0.590617
H   0.857962  -0.124892   0.290538
H  -0.079713  -1.855540  -1.266445
