butane_opt
 OpenBabel08242015383D

 14 12  0  0  0  0  0  0  0  0999 V2000
   -3.9604    0.2740   -0.0229 C   0  0  0  0  0  0  0  0  0  0  0  0
   -2.6959   -0.6508    0.0856 C   0  0  0  0  0  0  0  0  0  0  0  0
   -4.7268   -0.1414    0.1514 H   0  0  0  0  0  0  0  0  0  0  0  0
   -4.1529    1.1204   -1.0596 H   0  0  0  0  0  0  0  0  0  0  0  0
   -4.0661    0.7757    0.6592 H   0  0  0  0  0  0  0  0  0  0  0  0
   -1.3818    0.1673    0.0406 C   0  0  0  0  0  0  0  0  0  0  0  0
   -2.7030   -1.1751   -0.6287 H   0  0  0  0  0  0  0  0  0  0  0  0
   -2.6192   -1.3805    1.1033 H   0  0  0  0  0  0  0  0  0  0  0  0
   -0.1911   -0.6676   -0.0090 C   0  0  0  0  0  0  0  0  0  0  0  0
   -1.3154    0.8739    0.9638 H   0  0  0  0  0  0  0  0  0  0  0  0
   -1.4118    0.6551   -0.7882 H   0  0  0  0  0  0  0  0  0  0  0  0
   -0.2850   -1.0262    0.6887 H   0  0  0  0  0  0  0  0  0  0  0  0
    0.9024    0.0579    0.2837 H   0  0  0  0  0  0  0  0  0  0  0  0
    0.0715   -1.6752   -1.1378 H   0  0  0  0  0  0  0  0  0  0  0  0
  1  2  1  0  0  0  0
  1  3  1  0  0  0  0
  1  5  1  0  0  0  0
  2  8  1  0  0  0  0
  4  1  1  0  0  0  0
  6  2  1  0  0  0  0
  6 10  1  0  0  0  0
  7  2  1  0  0  0  0
  9  6  1  0  0  0  0
  9 13  1  0  0  0  0
  9 12  1  0  0  0  0
 11  6  1  0  0  0  0
M  RAD  2   9   2  14   2
M  END
$$$$
