butane_opt
 OpenBabel08242015383D

 14 12  0  0  0  0  0  0  0  0999 V2000
   -3.9432    0.2999   -0.0349 C   0  0  0  0  0  0  0  0  0  0  0  0
   -2.6731   -0.6650    0.1529 C   0  0  0  0  0  0  0  0  0  0  0  0
   -4.8453   -0.3131   -0.1255 H   0  0  0  0  0  0  0  0  0  0  0  0
   -3.8579    1.0846   -1.1174 H   0  0  0  0  0  0  0  0  0  0  0  0
   -4.0270    0.7583    0.7667 H   0  0  0  0  0  0  0  0  0  0  0  0
   -1.4189    0.1660    0.0281 C   0  0  0  0  0  0  0  0  0  0  0  0
   -2.6667   -1.3248   -0.6699 H   0  0  0  0  0  0  0  0  0  0  0  0
   -2.5855   -1.2944    1.0464 H   0  0  0  0  0  0  0  0  0  0  0  0
   -0.2137   -0.6777   -0.0146 C   0  0  0  0  0  0  0  0  0  0  0  0
   -1.1649    0.8804    0.9810 H   0  0  0  0  0  0  0  0  0  0  0  0
   -1.4303    0.8829   -0.8389 H   0  0  0  0  0  0  0  0  0  0  0  0
   -0.1817   -0.9189    0.6147 H   0  0  0  0  0  0  0  0  0  0  0  0
    0.7846    0.0203    0.2783 H   0  0  0  0  0  0  0  0  0  0  0  0
   -0.0843   -1.7217   -1.1400 H   0  0  0  0  0  0  0  0  0  0  0  0
  1  2  1  0  0  0  0
  1  5  1  0  0  0  0
  2  8  1  0  0  0  0
  3  1  1  0  0  0  0
  4  1  1  0  0  0  0
  6  2  1  0  0  0  0
  6 10  1  0  0  0  0
  7  2  1  0  0  0  0
  9  6  1  0  0  0  0
  9 13  1  0  0  0  0
  9 12  1  0  0  0  0
 11  6  1  0  0  0  0
M  RAD  2   9   2  14   2
M  END
$$$$
