butane_opt
 OpenBabel08242015383D

 14 13  0  0  0  0  0  0  0  0999 V2000
   -3.9048    0.2916    0.0650 C   0  0  0  0  0  0  0  0  0  0  0  0
   -2.6650   -0.6579   -0.0671 C   0  0  0  0  0  0  0  0  0  0  0  0
   -4.7867   -0.2714    0.1306 H   0  0  0  0  0  0  0  0  0  0  0  0
   -4.2391    0.9047   -0.8407 H   0  0  0  0  0  0  0  0  0  0  0  0
   -3.9597    1.1182    1.0355 H   0  0  0  0  0  0  0  0  0  0  0  0
   -1.4043    0.1401    0.0056 C   0  0  0  0  0  0  0  0  0  0  0  0
   -2.5741   -1.2992   -0.8952 H   0  0  0  0  0  0  0  0  0  0  0  0
   -2.8119   -1.1802    0.8362 H   0  0  0  0  0  0  0  0  0  0  0  0
   -0.2196   -0.6597    0.0797 C   0  0  0  0  0  0  0  0  0  0  0  0
   -1.3164    0.8023    0.8812 H   0  0  0  0  0  0  0  0  0  0  0  0
   -1.2643    0.6863   -0.8673 H   0  0  0  0  0  0  0  0  0  0  0  0
   -0.2185   -1.6101    1.1229 H   0  0  0  0  0  0  0  0  0  0  0  0
    0.7854   -0.0088   -0.3692 H   0  0  0  0  0  0  0  0  0  0  0  0
   -0.2993   -0.9573   -0.5494 H   0  0  0  0  0  0  0  0  0  0  0  0
  1  3  1  0  0  0  0
  1  5  1  0  0  0  0
  2  6  1  0  0  0  0
  2  1  1  0  0  0  0
  2  8  1  0  0  0  0
  4  1  1  0  0  0  0
  6  9  1  0  0  0  0
  6 10  1  0  0  0  0
  7  2  1  0  0  0  0
  9 12  1  0  0  0  0
 11  6  1  0  0  0  0
 13  9  1  0  0  0  0
 14  9  1  0  0  0  0
M  END
$$$$
