14
butane_opt
C  -3.904774   0.291568   0.064983
C  -2.665026  -0.657949  -0.067063
H  -4.786731  -0.271407   0.130627
H  -4.239092   0.904699  -0.840731
H  -3.959735   1.118233   1.035510
C  -1.404342   0.140081   0.005649
H  -2.574124  -1.299162  -0.895239
H  -2.811928  -1.180154   0.836175
C  -0.219590  -0.659714   0.079670
H  -1.316407   0.802253   0.881199
H  -1.264326   0.686264  -0.867338
H  -0.218462  -1.610086   1.122921
H   0.785417  -0.008839  -0.369229
H  -0.299254  -0.957291  -0.549378
