14
butane_opt
C  -3.932974   0.201795  -0.119863
C  -2.710289  -0.593421   0.138822
H  -4.789861  -0.375662  -0.092947
H  -3.977147   0.901003  -1.011320
H  -4.059037   0.912998   0.753930
C  -1.449846   0.251133   0.162933
H  -2.659570  -1.058256  -0.570322
H  -2.860007  -1.243424   1.103174
C  -0.113121  -0.733313  -0.079490
H  -1.225346   1.061592   1.106368
H  -1.490549   0.820953  -0.604335
H   0.244629  -1.504746   0.870038
H   0.706201  -0.203636  -0.334975
H  -0.398380  -1.333617  -0.990450
