butane_opt
 OpenBabel08242015383D

 14 13  0  0  0  0  0  0  0  0999 V2000
   -3.9600    0.2890    0.1035 C   0  0  0  0  0  0  0  0  0  0  0  0
   -2.6786   -0.6336   -0.0072 C   0  0  0  0  0  0  0  0  0  0  0  0
   -4.8185   -0.2823   -0.3275 H   0  0  0  0  0  0  0  0  0  0  0  0
   -3.8540    0.6425   -0.6009 H   0  0  0  0  0  0  0  0  0  0  0  0
   -4.1684    1.3298    1.0973 H   0  0  0  0  0  0  0  0  0  0  0  0
   -1.3900    0.1323   -0.0897 C   0  0  0  0  0  0  0  0  0  0  0  0
   -2.7370   -1.4925   -0.8949 H   0  0  0  0  0  0  0  0  0  0  0  0
   -2.6087   -1.0931    0.7512 H   0  0  0  0  0  0  0  0  0  0  0  0
   -0.1757   -0.6701    0.1095 C   0  0  0  0  0  0  0  0  0  0  0  0
   -1.3132    0.6629    0.6534 H   0  0  0  0  0  0  0  0  0  0  0  0
   -1.2459    0.8489   -1.0310 H   0  0  0  0  0  0  0  0  0  0  0  0
   -0.1263   -1.4131    1.1482 H   0  0  0  0  0  0  0  0  0  0  0  0
    0.6972   -0.0557   -0.1114 H   0  0  0  0  0  0  0  0  0  0  0  0
   -0.3881   -1.0350   -0.5741 H   0  0  0  0  0  0  0  0  0  0  0  0
  1  5  1  0  0  0  0
  2  1  1  0  0  0  0
  2  8  1  0  0  0  0
  3  1  1  0  0  0  0
  4  1  1  0  0  0  0
  6  2  1  0  0  0  0
  6  9  1  0  0  0  0
  6 10  1  0  0  0  0
  7  2  1  0  0  0  0
  9 12  1  0  0  0  0
 11  6  1  0  0  0  0
 13  9  1  0  0  0  0
 14  9  1  0  0  0  0
M  END
$$$$
