butane_opt
 OpenBabel08242015383D

 14 13  0  0  0  0  0  0  0  0999 V2000
   -3.9190    0.2469    0.1052 C   0  0  0  0  0  0  0  0  0  0  0  0
   -2.7002   -0.5697   -0.0999 C   0  0  0  0  0  0  0  0  0  0  0  0
   -4.8014   -0.3890    0.5385 H   0  0  0  0  0  0  0  0  0  0  0  0
   -4.1065    0.8720   -0.7323 H   0  0  0  0  0  0  0  0  0  0  0  0
   -3.6406    0.7929    0.8819 H   0  0  0  0  0  0  0  0  0  0  0  0
   -1.4245    0.1584   -0.0827 C   0  0  0  0  0  0  0  0  0  0  0  0
   -2.7358   -1.2982   -1.0335 H   0  0  0  0  0  0  0  0  0  0  0  0
   -2.6448   -1.0678    0.7419 H   0  0  0  0  0  0  0  0  0  0  0  0
   -0.1531   -0.6904    0.1081 C   0  0  0  0  0  0  0  0  0  0  0  0
   -1.6523    0.8796    0.8425 H   0  0  0  0  0  0  0  0  0  0  0  0
   -1.3941    0.7784   -0.9072 H   0  0  0  0  0  0  0  0  0  0  0  0
   -0.3505   -1.5043    1.2072 H   0  0  0  0  0  0  0  0  0  0  0  0
    0.6713   -0.1065    0.1567 H   0  0  0  0  0  0  0  0  0  0  0  0
   -0.0109   -1.1825   -0.6156 H   0  0  0  0  0  0  0  0  0  0  0  0
  1  3  1  0  0  0  0
  1  5  1  0  0  0  0
  2  6  1  0  0  0  0
  2  1  1  0  0  0  0
  2  8  1  0  0  0  0
  4  1  1  0  0  0  0
  6  9  1  0  0  0  0
  6 10  1  0  0  0  0
  7  2  1  0  0  0  0
  9 13  1  0  0  0  0
  9 12  1  0  0  0  0
 11  6  1  0  0  0  0
 14  9  1  0  0  0  0
M  END
$$$$
