butane_opt
 OpenBabel08242015383D

 14 13  0  0  0  0  0  0  0  0999 V2000
   -3.9715    0.2924    0.1183 C   0  0  0  0  0  0  0  0  0  0  0  0
   -2.6956   -0.6663   -0.0207 C   0  0  0  0  0  0  0  0  0  0  0  0
   -4.8233   -0.2611   -0.2753 H   0  0  0  0  0  0  0  0  0  0  0  0
   -3.9006    0.6103   -0.6131 H   0  0  0  0  0  0  0  0  0  0  0  0
   -4.2203    1.2638    1.1224 H   0  0  0  0  0  0  0  0  0  0  0  0
   -1.3900    0.1496   -0.1098 C   0  0  0  0  0  0  0  0  0  0  0  0
   -2.9121   -1.3975   -0.9172 H   0  0  0  0  0  0  0  0  0  0  0  0
   -2.4944   -1.2130    0.8464 H   0  0  0  0  0  0  0  0  0  0  0  0
   -0.1566   -0.6613    0.1076 C   0  0  0  0  0  0  0  0  0  0  0  0
   -1.4302    0.7185    0.6911 H   0  0  0  0  0  0  0  0  0  0  0  0
   -1.3402    1.0314   -1.1493 H   0  0  0  0  0  0  0  0  0  0  0  0
   -0.1244   -1.3102    1.0569 H   0  0  0  0  0  0  0  0  0  0  0  0
    0.7002   -0.0477    0.1800 H   0  0  0  0  0  0  0  0  0  0  0  0
    0.0639   -1.2456   -0.6195 H   0  0  0  0  0  0  0  0  0  0  0  0
  1  5  1  0  0  0  0
  2  1  1  0  0  0  0
  2  8  1  0  0  0  0
  3  1  1  0  0  0  0
  4  1  1  0  0  0  0
  6  2  1  0  0  0  0
  6  9  1  0  0  0  0
  6 10  1  0  0  0  0
  7  2  1  0  0  0  0
  9 13  1  0  0  0  0
  9 12  1  0  0  0  0
 11  6  1  0  0  0  0
 14  9  1  0  0  0  0
M  END
$$$$
