14
butane_opt
C  -3.917804   0.233706   0.067451
C  -2.702989  -0.545968   0.011405
H  -4.915603  -0.473355   0.145946
H  -4.006926   0.850164  -0.808404
H  -3.663403   0.782688   0.917436
C  -1.438237   0.179766  -0.054325
H  -2.667333  -1.304966  -0.943851
H  -2.803461  -1.110040   0.808055
C  -0.142138  -0.710210   0.097123
H  -1.463730   0.779960   0.702036
H  -1.436513   1.038774  -1.090984
H  -0.253371  -1.154066   0.890759
H   0.639240  -0.247859   0.298291
H  -0.020426  -1.560735  -0.952360
