butane_opt
 OpenBabel08242015383D

 14 13  0  0  0  0  0  0  0  0999 V2000
   -3.9488    0.2334    0.0870 C   0  0  0  0  0  0  0  0  0  0  0  0
   -2.7196   -0.5686   -0.0421 C   0  0  0  0  0  0  0  0  0  0  0  0
   -4.8587   -0.3715    0.1590 H   0  0  0  0  0  0  0  0  0  0  0  0
   -4.1279    0.9515   -0.8284 H   0  0  0  0  0  0  0  0  0  0  0  0
   -3.7934    0.7633    0.8979 H   0  0  0  0  0  0  0  0  0  0  0  0
   -1.3953    0.2386   -0.0554 C   0  0  0  0  0  0  0  0  0  0  0  0
   -2.8716   -1.4066   -1.0580 H   0  0  0  0  0  0  0  0  0  0  0  0
   -2.5992   -1.2112    0.8139 H   0  0  0  0  0  0  0  0  0  0  0  0
   -0.1443   -0.7217    0.0875 C   0  0  0  0  0  0  0  0  0  0  0  0
   -1.4533    0.9501    0.8909 H   0  0  0  0  0  0  0  0  0  0  0  0
   -1.2164    0.7090   -0.8678 H   0  0  0  0  0  0  0  0  0  0  0  0
   -0.1417   -1.4930    1.1714 H   0  0  0  0  0  0  0  0  0  0  0  0
    0.6690   -0.3277   -0.0530 H   0  0  0  0  0  0  0  0  0  0  0  0
   -0.0998   -1.2150   -0.6374 H   0  0  0  0  0  0  0  0  0  0  0  0
  1  3  1  0  0  0  0
  1  5  1  0  0  0  0
  2  1  1  0  0  0  0
  2  8  1  0  0  0  0
  4  1  1  0  0  0  0
  6  2  1  0  0  0  0
  6  9  1  0  0  0  0
  6 10  1  0  0  0  0
  7  2  1  0  0  0  0
  9 12  1  0  0  0  0
 11  6  1  0  0  0  0
 13  9  1  0  0  0  0
 14  9  1  0  0  0  0
M  END
$$$$
