butane_opt
 OpenBabel08242015383D

 14 13  0  0  0  0  0  0  0  0999 V2000
   -4.0198    0.2867    0.0340 C   0  0  0  0  0  0  0  0  0  0  0  0
   -2.6699   -0.6636    0.0126 C   0  0  0  0  0  0  0  0  0  0  0  0
   -4.7819   -0.1827   -0.0368 H   0  0  0  0  0  0  0  0  0  0  0  0
   -4.1559    0.8397   -0.7942 H   0  0  0  0  0  0  0  0  0  0  0  0
   -3.9493    0.9945    0.9920 H   0  0  0  0  0  0  0  0  0  0  0  0
   -1.3899    0.1446   -0.0008 C   0  0  0  0  0  0  0  0  0  0  0  0
   -2.6420   -1.4258   -0.9431 H   0  0  0  0  0  0  0  0  0  0  0  0
   -2.6488   -1.1442    0.7637 H   0  0  0  0  0  0  0  0  0  0  0  0
   -0.1613   -0.6682    0.0403 C   0  0  0  0  0  0  0  0  0  0  0  0
   -1.2776    1.0090    0.9427 H   0  0  0  0  0  0  0  0  0  0  0  0
   -1.2272    0.7941   -0.8400 H   0  0  0  0  0  0  0  0  0  0  0  0
   -0.0559   -1.5520    1.2190 H   0  0  0  0  0  0  0  0  0  0  0  0
    0.7608   -0.0700   -0.3090 H   0  0  0  0  0  0  0  0  0  0  0  0
   -0.1680   -0.9226   -0.5613 H   0  0  0  0  0  0  0  0  0  0  0  0
  1  5  1  0  0  0  0
  2  1  1  0  0  0  0
  2  8  1  0  0  0  0
  3  1  1  0  0  0  0
  4  1  1  0  0  0  0
  6  2  1  0  0  0  0
  6  9  1  0  0  0  0
  6 10  1  0  0  0  0
  7  2  1  0  0  0  0
  9 12  1  0  0  0  0
 11  6  1  0  0  0  0
 13  9  1  0  0  0  0
 14  9  1  0  0  0  0
M  END
$$$$
