14
butane_opt
C  -3.908387   0.246776  -0.110232
C  -2.709679  -0.560271   0.139126
H  -4.956601  -0.573031  -0.043902
H  -3.895355   0.873803  -0.941657
H  -3.926675   0.849182   0.727252
C  -1.382766   0.200028   0.164006
H  -2.566671  -1.282779  -0.737835
H  -2.866857  -1.079201   0.986246
C  -0.187263  -0.733596  -0.074729
H  -1.394444   0.877408   1.109735
H  -1.529529   0.817004  -0.695955
H   0.255155  -1.491876   0.887764
H   0.614366  -0.214230  -0.425601
H  -0.467276  -1.107245  -0.812291
