butane_opt
 OpenBabel08242015383D

 14 13  0  0  0  0  0  0  0  0999 V2000
   -3.9458    0.3110    0.0298 C   0  0  0  0  0  0  0  0  0  0  0  0
   -2.6568   -0.6779    0.0510 C   0  0  0  0  0  0  0  0  0  0  0  0
   -4.7283   -0.2027    0.2121 H   0  0  0  0  0  0  0  0  0  0  0  0
   -3.9889    0.7645   -0.7822 H   0  0  0  0  0  0  0  0  0  0  0  0
   -3.8756    1.0061    0.8831 H   0  0  0  0  0  0  0  0  0  0  0  0
   -1.3948    0.1502   -0.0565 C   0  0  0  0  0  0  0  0  0  0  0  0
   -2.6272   -1.3438   -0.8203 H   0  0  0  0  0  0  0  0  0  0  0  0
   -2.5999   -1.2659    0.8741 H   0  0  0  0  0  0  0  0  0  0  0  0
   -0.2201   -0.6408    0.0757 C   0  0  0  0  0  0  0  0  0  0  0  0
   -1.4485    0.5787    0.6904 H   0  0  0  0  0  0  0  0  0  0  0  0
   -1.4533    0.9225   -1.0578 H   0  0  0  0  0  0  0  0  0  0  0  0
   -0.3911   -0.9500    0.8299 H   0  0  0  0  0  0  0  0  0  0  0  0
    0.7312   -0.0275    0.4587 H   0  0  0  0  0  0  0  0  0  0  0  0
   -0.0783   -1.6457   -1.0537 H   0  0  0  0  0  0  0  0  0  0  0  0
  1  2  1  0  0  0  0
  1  3  1  0  0  0  0
  1  5  1  0  0  0  0
  2  8  1  0  0  0  0
  4  1  1  0  0  0  0
  6  2  1  0  0  0  0
  6  9  1  0  0  0  0
  6 10  1  0  0  0  0
  7  2  1  0  0  0  0
  9 13  1  0  0  0  0
  9 12  1  0  0  0  0
 11  6  1  0  0  0  0
 14  9  1  0  0  0  0
M  END
$$$$
