14
butane_opt
C  -3.944781   0.241587  -0.068863
C  -2.706115  -0.603730   0.127776
H  -4.931834  -0.428912  -0.152133
H  -3.796622   1.047666  -1.127126
H  -3.956728   0.837250   0.755750
C  -1.429870   0.210307   0.160298
H  -2.850374  -1.296201  -0.800177
H  -2.807518  -1.158704   1.041212
C  -0.117882  -0.715008  -0.078358
H  -1.368253   0.954090   1.016836
H  -1.586492   0.867675  -0.777516
H   0.098408  -1.413363   0.890609
H   0.835653  -0.180665  -0.278655
H  -0.273390  -1.297343  -0.829363
