butane_opt
 OpenBabel08242015383D

 14 13  0  0  0  0  0  0  0  0999 V2000
   -3.9557    0.2834    0.0221 C   0  0  0  0  0  0  0  0  0  0  0  0
   -2.7000   -0.6308    0.0428 C   0  0  0  0  0  0  0  0  0  0  0  0
   -4.8724   -0.3019   -0.0611 H   0  0  0  0  0  0  0  0  0  0  0  0
   -3.8843    0.7621   -0.8072 H   0  0  0  0  0  0  0  0  0  0  0  0
   -4.0103    1.0248    0.9543 H   0  0  0  0  0  0  0  0  0  0  0  0
   -1.3931    0.1698   -0.0030 C   0  0  0  0  0  0  0  0  0  0  0  0
   -2.7081   -1.2912   -0.8076 H   0  0  0  0  0  0  0  0  0  0  0  0
   -2.7216   -1.2500    0.9060 H   0  0  0  0  0  0  0  0  0  0  0  0
   -0.1618   -0.6827    0.0475 C   0  0  0  0  0  0  0  0  0  0  0  0
   -1.3872    0.8212    0.8119 H   0  0  0  0  0  0  0  0  0  0  0  0
   -1.3634    0.8392   -0.9232 H   0  0  0  0  0  0  0  0  0  0  0  0
   -0.1104   -1.3194    0.9287 H   0  0  0  0  0  0  0  0  0  0  0  0
    0.7543   -0.0993   -0.0364 H   0  0  0  0  0  0  0  0  0  0  0  0
   -0.2032   -1.3325   -0.8196 H   0  0  0  0  0  0  0  0  0  0  0  0
  1  2  1  0  0  0  0
  1  5  1  0  0  0  0
  2  8  1  0  0  0  0
  3  1  1  0  0  0  0
  4  1  1  0  0  0  0
  6  2  1  0  0  0  0
  6  9  1  0  0  0  0
  6 10  1  0  0  0  0
  7  2  1  0  0  0  0
  9 12  1  0  0  0  0
 11  6  1  0  0  0  0
 13  9  1  0  0  0  0
 14  9  1  0  0  0  0
M  END
$$$$
