14
butane_opt
C  -3.953825   0.250702   0.033475
C  -2.701860  -0.601476   0.023562
H  -4.857770  -0.334332   0.083621
H  -3.990636   0.829537  -0.828109
H  -3.979798   0.963506   0.932834
C  -1.411472   0.194652  -0.019815
H  -2.767043  -1.240709  -0.830616
H  -2.693439  -1.264824   0.928940
C  -0.147156  -0.706273   0.054416
H  -1.418501   0.836479   0.812791
H  -1.347923   0.858758  -0.956106
H  -0.157226  -1.260874   0.920883
H   0.796289  -0.076229   0.149897
H  -0.035979  -1.437568  -0.875478
