butane_opt
 OpenBabel08242015383D

 14 13  0  0  0  0  0  0  0  0999 V2000
   -3.9330    0.2018   -0.1199 C   0  0  0  0  0  0  0  0  0  0  0  0
   -2.7103   -0.5934    0.1388 C   0  0  0  0  0  0  0  0  0  0  0  0
   -4.7899   -0.3757   -0.0929 H   0  0  0  0  0  0  0  0  0  0  0  0
   -3.9771    0.9010   -1.0113 H   0  0  0  0  0  0  0  0  0  0  0  0
   -4.0590    0.9130    0.7539 H   0  0  0  0  0  0  0  0  0  0  0  0
   -1.4498    0.2511    0.1629 C   0  0  0  0  0  0  0  0  0  0  0  0
   -2.6596   -1.0583   -0.5703 H   0  0  0  0  0  0  0  0  0  0  0  0
   -2.8600   -1.2434    1.1032 H   0  0  0  0  0  0  0  0  0  0  0  0
   -0.1131   -0.7333   -0.0795 C   0  0  0  0  0  0  0  0  0  0  0  0
   -1.2253    1.0616    1.1064 H   0  0  0  0  0  0  0  0  0  0  0  0
   -1.4905    0.8210   -0.6043 H   0  0  0  0  0  0  0  0  0  0  0  0
    0.2446   -1.5047    0.8700 H   0  0  0  0  0  0  0  0  0  0  0  0
    0.7062   -0.2036   -0.3350 H   0  0  0  0  0  0  0  0  0  0  0  0
   -0.3984   -1.3336   -0.9905 H   0  0  0  0  0  0  0  0  0  0  0  0
  1  3  1  0  0  0  0
  1  2  1  0  0  0  0
  1  5  1  0  0  0  0
  2  6  1  0  0  0  0
  2  8  1  0  0  0  0
  4  1  1  0  0  0  0
  6 10  1  0  0  0  0
  7  2  1  0  0  0  0
  9  6  1  0  0  0  0
  9 12  1  0  0  0  0
 11  6  1  0  0  0  0
 13  9  1  0  0  0  0
 14  9  1  0  0  0  0
M  END
$$$$
