14
butane_opt
C  -3.960395   0.274009  -0.022905
C  -2.695899  -0.650819   0.085577
H  -4.726811  -0.141373   0.151407
H  -4.152867   1.120432  -1.059569
H  -4.066056   0.775673   0.659151
C  -1.381828   0.167276   0.040629
H  -2.703033  -1.175117  -0.628657
H  -2.619220  -1.380490   1.103338
C  -0.191062  -0.667584  -0.008981
H  -1.315394   0.873910   0.963828
H  -1.411756   0.655094  -0.788173
H  -0.284967  -1.026175   0.688692
H   0.902365   0.057939   0.283680
H   0.071505  -1.675246  -1.137844
