butane_opt
 OpenBabel08242015383D

 14 13  0  0  0  0  0  0  0  0999 V2000
   -3.9448    0.2416   -0.0689 C   0  0  0  0  0  0  0  0  0  0  0  0
   -2.7061   -0.6037    0.1278 C   0  0  0  0  0  0  0  0  0  0  0  0
   -4.9318   -0.4289   -0.1521 H   0  0  0  0  0  0  0  0  0  0  0  0
   -3.7966    1.0477   -1.1271 H   0  0  0  0  0  0  0  0  0  0  0  0
   -3.9567    0.8373    0.7558 H   0  0  0  0  0  0  0  0  0  0  0  0
   -1.4299    0.2103    0.1603 C   0  0  0  0  0  0  0  0  0  0  0  0
   -2.8504   -1.2962   -0.8002 H   0  0  0  0  0  0  0  0  0  0  0  0
   -2.8075   -1.1587    1.0412 H   0  0  0  0  0  0  0  0  0  0  0  0
   -0.1179   -0.7150   -0.0784 C   0  0  0  0  0  0  0  0  0  0  0  0
   -1.3683    0.9541    1.0168 H   0  0  0  0  0  0  0  0  0  0  0  0
   -1.5865    0.8677   -0.7775 H   0  0  0  0  0  0  0  0  0  0  0  0
    0.0984   -1.4134    0.8906 H   0  0  0  0  0  0  0  0  0  0  0  0
    0.8357   -0.1807   -0.2787 H   0  0  0  0  0  0  0  0  0  0  0  0
   -0.2734   -1.2973   -0.8294 H   0  0  0  0  0  0  0  0  0  0  0  0
  1  2  1  0  0  0  0
  1  5  1  0  0  0  0
  2  6  1  0  0  0  0
  2  8  1  0  0  0  0
  3  1  1  0  0  0  0
  4  1  1  0  0  0  0
  6 10  1  0  0  0  0
  7  2  1  0  0  0  0
  9  6  1  0  0  0  0
  9 12  1  0  0  0  0
 11  6  1  0  0  0  0
 13  9  1  0  0  0  0
 14  9  1  0  0  0  0
M  END
$$$$
