14
butane_opt
C  -4.017680   0.279122   0.035853
C  -2.671331  -0.622265   0.052532
H  -4.930438  -0.373423  -0.296271
H  -3.977076   0.728154  -0.702084
H  -4.075937   1.129428   0.977997
C  -1.377281   0.150149  -0.005816
H  -2.719417  -1.350122  -0.847466
H  -2.792618  -1.195677   1.003750
C  -0.141400  -0.684099   0.044839
H  -1.264634   0.662335   0.712742
H  -1.427577   0.998856  -1.050192
H  -0.057062  -1.215712   0.853765
H   0.713136  -0.064553   0.102931
H  -0.002619  -1.284643  -0.820343
