14
butane_opt
C  -3.924841   0.219346  -0.052234
C  -2.742068  -0.581814   0.144033
H  -4.935453  -0.406985   0.107934
H  -3.913277   1.095547  -1.110874
H  -3.944010   0.669333   0.654126
C  -1.435829   0.230960   0.063852
H  -2.599832  -1.102752  -0.631042
H  -2.835853  -1.241734   1.087809
C  -0.089057  -0.739795  -0.023894
H  -1.515899   0.859524   0.872603
H  -1.470184   0.900035  -0.816038
H  -0.166658  -0.730085   0.537813
H   0.780097  -0.228353   0.273486
H  -0.082075  -1.873578  -1.202072
