14
butane_opt
C  -4.013886   0.287850   0.118654
C  -2.698024  -0.675731  -0.101321
H  -4.837726  -0.235368   0.466662
H  -4.101651   1.102298  -0.907690
H  -3.871461   0.883555   0.863603
C  -1.381494   0.144567  -0.058802
H  -2.821475  -1.339036  -0.932961
H  -2.575025  -1.095785   0.655194
C  -0.116988  -0.664134   0.109452
H  -1.572880   0.979239   0.807904
H  -1.313472   0.711025  -0.886573
H  -0.280831  -1.479743   1.190585
H   0.855390   0.049804   0.013916
H  -0.015817  -1.145683  -0.651217
