butane_opt
 OpenBabel08242015383D

 14 13  0  0  0  0  0  0  0  0999 V2000
   -3.9964    0.2773   -0.0205 C   0  0  0  0  0  0  0  0  0  0  0  0
   -2.7146   -0.6441    0.0811 C   0  0  0  0  0  0  0  0  0  0  0  0
   -4.7613   -0.1454    0.0891 H   0  0  0  0  0  0  0  0  0  0  0  0
   -4.0375    1.0260   -1.0449 H   0  0  0  0  0  0  0  0  0  0  0  0
   -4.1544    0.9086    0.7138 H   0  0  0  0  0  0  0  0  0  0  0  0
   -1.3625    0.1463    0.0834 C   0  0  0  0  0  0  0  0  0  0  0  0
   -2.5509   -1.5002   -0.8893 H   0  0  0  0  0  0  0  0  0  0  0  0
   -2.7914   -1.1527    0.8480 H   0  0  0  0  0  0  0  0  0  0  0  0
   -0.1293   -0.6672   -0.0158 C   0  0  0  0  0  0  0  0  0  0  0  0
   -1.2115    0.9796    1.1126 H   0  0  0  0  0  0  0  0  0  0  0  0
   -1.4411    0.7588   -0.7948 H   0  0  0  0  0  0  0  0  0  0  0  0
   -0.0980   -1.5087    0.9574 H   0  0  0  0  0  0  0  0  0  0  0  0
    0.8207   -0.0472   -0.3555 H   0  0  0  0  0  0  0  0  0  0  0  0
   -0.3669   -1.1090   -0.6995 H   0  0  0  0  0  0  0  0  0  0  0  0
  1  2  1  0  0  0  0
  1  3  1  0  0  0  0
  1  5  1  0  0  0  0
  2  6  1  0  0  0  0
  2  8  1  0  0  0  0
  4  1  1  0  0  0  0
  6 10  1  0  0  0  0
  7  2  1  0  0  0  0
  9  6  1  0  0  0  0
  9 12  1  0  0  0  0
 11  6  1  0  0  0  0
 13  9  1  0  0  0  0
 14  9  1  0  0  0  0
M  END
$$$$
