14
butane_opt
C  -4.000836   0.305263  -0.082702
C  -2.684576  -0.661436   0.184410
H  -4.755461  -0.188470  -0.323634
H  -3.804230   0.892937  -0.958505
H  -4.288327   1.016438   0.851958
C  -1.385030   0.140975   0.071070
H  -2.714663  -1.302103  -0.629783
H  -2.870051  -1.477381   1.151019
C  -0.127625  -0.641192  -0.067662
H  -1.292530   0.972558   1.057709
H  -1.419318   0.571109  -0.648298
H  -0.113824  -1.200545   0.767056
H   0.752069  -0.072120  -0.153313
H  -0.172679  -1.369794  -0.947410
