butane_opt
 OpenBabel08242015383D

 14 11  0  0  0  0  0  0  0  0999 V2000
   -3.9773    0.2610    0.0538 C   0  0  0  0  0  0  0  0  0  0  0  0
   -2.7147   -0.5740    0.0375 C   0  0  0  0  0  0  0  0  0  0  0  0
   -4.9659   -0.4081   -0.3449 H   0  0  0  0  0  0  0  0  0  0  0  0
   -3.6758    0.3444   -0.5124 H   0  0  0  0  0  0  0  0  0  0  0  0
   -4.1492    1.2534    1.1020 H   0  0  0  0  0  0  0  0  0  0  0  0
   -1.3823    0.2053   -0.0923 C   0  0  0  0  0  0  0  0  0  0  0  0
   -3.0080   -1.2418   -0.7974 H   0  0  0  0  0  0  0  0  0  0  0  0
   -2.6518   -1.2288    0.9045 H   0  0  0  0  0  0  0  0  0  0  0  0
   -0.1452   -0.7302    0.0741 C   0  0  0  0  0  0  0  0  0  0  0  0
   -1.4073    0.8580    0.7603 H   0  0  0  0  0  0  0  0  0  0  0  0
   -1.3350    0.8252   -0.9143 H   0  0  0  0  0  0  0  0  0  0  0  0
   -0.0267   -1.4659    1.1577 H   0  0  0  0  0  0  0  0  0  0  0  0
    0.7565   -0.1321   -0.0733 H   0  0  0  0  0  0  0  0  0  0  0  0
    0.0581   -1.2401   -0.6778 H   0  0  0  0  0  0  0  0  0  0  0  0
  1  5  1  0  0  0  0
  2  8  1  0  0  0  0
  3  1  1  0  0  0  0
  4  1  1  0  0  0  0
  6  9  1  0  0  0  0
  6 10  1  0  0  0  0
  7  2  1  0  0  0  0
  9 12  1  0  0  0  0
 11  6  1  0  0  0  0
 13  9  1  0  0  0  0
 14  9  1  0  0  0  0
M  RAD  3   1   2   2   3   6   2
M  END
$$$$
