14
butane_opt
C  -3.917727   0.238472   0.060376
C  -2.716178  -0.563522   0.020930
H  -4.804095  -0.323360   0.157308
H  -3.864527   0.687117  -0.775556
H  -3.893406   0.934811   0.921039
C  -1.448641   0.169648  -0.074888
H  -2.727800  -1.307719  -0.843408
H  -2.632818  -1.052509   0.856386
C  -0.142769  -0.705367   0.081765
H  -1.336184   0.754790   0.646683
H  -1.490251   0.934356  -0.989484
H  -0.364293  -1.157239   0.958121
H   0.764603  -0.134965   0.364365
H   0.033331  -1.504550  -0.899414
