butane_opt
 OpenBabel08242015383D

 14 13  0  0  0  0  0  0  0  0999 V2000
   -3.9241    0.2842   -0.0450 C   0  0  0  0  0  0  0  0  0  0  0  0
   -2.6955   -0.6285    0.0928 C   0  0  0  0  0  0  0  0  0  0  0  0
   -4.9159   -0.2977   -0.1314 H   0  0  0  0  0  0  0  0  0  0  0  0
   -3.8510    0.8797   -0.9746 H   0  0  0  0  0  0  0  0  0  0  0  0
   -4.0536    0.8335    0.7552 H   0  0  0  0  0  0  0  0  0  0  0  0
   -1.4302    0.1801    0.1221 C   0  0  0  0  0  0  0  0  0  0  0  0
   -2.5367   -1.2856   -0.7994 H   0  0  0  0  0  0  0  0  0  0  0  0
   -2.7887   -1.2729    1.0374 H   0  0  0  0  0  0  0  0  0  0  0  0
   -0.1431   -0.6834   -0.0645 C   0  0  0  0  0  0  0  0  0  0  0  0
   -1.2643    0.9479    1.0200 H   0  0  0  0  0  0  0  0  0  0  0  0
   -1.6003    0.5411   -0.6316 H   0  0  0  0  0  0  0  0  0  0  0  0
   -0.0650   -1.5793    0.9991 H   0  0  0  0  0  0  0  0  0  0  0  0
    0.7634   -0.0598   -0.3114 H   0  0  0  0  0  0  0  0  0  0  0  0
   -0.3910   -0.9980   -0.7377 H   0  0  0  0  0  0  0  0  0  0  0  0
  1  2  1  0  0  0  0
  1  5  1  0  0  0  0
  2  6  1  0  0  0  0
  2  8  1  0  0  0  0
  3  1  1  0  0  0  0
  4  1  1  0  0  0  0
  6 10  1  0  0  0  0
  7  2  1  0  0  0  0
  9  6  1  0  0  0  0
  9 12  1  0  0  0  0
 11  6  1  0  0  0  0
 13  9  1  0  0  0  0
 14  9  1  0  0  0  0
M  END
$$$$
