butane_opt
 OpenBabel08242015383D

 14 13  0  0  0  0  0  0  0  0999 V2000
   -3.9997    0.3276    0.0909 C   0  0  0  0  0  0  0  0  0  0  0  0
   -2.7251   -0.6652   -0.0496 C   0  0  0  0  0  0  0  0  0  0  0  0
   -4.8283   -0.2374    0.2484 H   0  0  0  0  0  0  0  0  0  0  0  0
   -4.1564    0.8879   -0.7830 H   0  0  0  0  0  0  0  0  0  0  0  0
   -3.9180    0.9377    0.9441 H   0  0  0  0  0  0  0  0  0  0  0  0
   -1.3407    0.1372   -0.0493 C   0  0  0  0  0  0  0  0  0  0  0  0
   -2.7658   -1.5385   -1.0654 H   0  0  0  0  0  0  0  0  0  0  0  0
   -2.6933   -1.1208    0.7183 H   0  0  0  0  0  0  0  0  0  0  0  0
   -0.1380   -0.6644    0.1227 C   0  0  0  0  0  0  0  0  0  0  0  0
   -1.3998    0.7007    0.6216 H   0  0  0  0  0  0  0  0  0  0  0  0
   -1.4043    0.7986   -0.9918 H   0  0  0  0  0  0  0  0  0  0  0  0
   -0.0790   -1.3412    1.0818 H   0  0  0  0  0  0  0  0  0  0  0  0
    0.8570   -0.0234    0.0154 H   0  0  0  0  0  0  0  0  0  0  0  0
   -0.2250   -1.1230   -0.6855 H   0  0  0  0  0  0  0  0  0  0  0  0
  1  3  1  0  0  0  0
  1  5  1  0  0  0  0
  2  6  1  0  0  0  0
  2  1  1  0  0  0  0
  2  8  1  0  0  0  0
  4  1  1  0  0  0  0
  6  9  1  0  0  0  0
  6 10  1  0  0  0  0
  7  2  1  0  0  0  0
  9 12  1  0  0  0  0
 11  6  1  0  0  0  0
 13  9  1  0  0  0  0
 14  9  1  0  0  0  0
M  END
$$$$
