14
butane_opt
C  -3.922944   0.227280  -0.062232
C  -2.723138  -0.582246   0.091574
H  -4.904771  -0.477208   0.016459
H  -3.981896   0.981231  -1.019782
H  -4.066329   0.924270   0.839247
C  -1.397484   0.242594   0.096697
H  -2.835115  -1.252568  -0.731119
H  -2.956489  -1.270759   0.968693
C  -0.127848  -0.739760  -0.031454
H  -1.200929   1.118739   1.116831
H  -1.594565   0.724189  -0.658828
H   0.051750  -1.502272   0.995152
H   0.693850  -0.262304  -0.414598
H  -0.136878  -1.239857  -0.792766
