14
butane_opt
C  -3.927489   0.212516  -0.074248
C  -2.683686  -0.558497   0.167601
H  -4.872486  -0.404159  -0.147527
H  -3.537760   0.845284  -1.110430
H  -4.101611   0.850905   0.703013
C  -1.435456   0.212870   0.119470
H  -2.812154  -1.138566  -0.597995
H  -2.731275  -1.164380   1.089340
C  -0.144706  -0.742356  -0.073697
H  -1.484319   0.925875   0.932703
H  -1.612664   0.880825  -0.745502
H  -0.088860  -1.133969   0.651650
H   0.791004  -0.188310   0.013958
H  -0.256788  -1.460310  -1.030601
