butane_opt
 OpenBabel08242015383D

 14 13  0  0  0  0  0  0  0  0999 V2000
   -3.9683    0.2148    0.1202 C   0  0  0  0  0  0  0  0  0  0  0  0
   -2.7288   -0.5534   -0.0658 C   0  0  0  0  0  0  0  0  0  0  0  0
   -4.9557   -0.4189    0.2158 H   0  0  0  0  0  0  0  0  0  0  0  0
   -4.0380    0.6605   -0.6253 H   0  0  0  0  0  0  0  0  0  0  0  0
   -3.9454    0.9940    1.0835 H   0  0  0  0  0  0  0  0  0  0  0  0
   -1.4214    0.2134   -0.1396 C   0  0  0  0  0  0  0  0  0  0  0  0
   -2.8504   -1.2520   -0.9980 H   0  0  0  0  0  0  0  0  0  0  0  0
   -2.6179   -1.0953    0.7983 H   0  0  0  0  0  0  0  0  0  0  0  0
   -0.0999   -0.7407    0.1697 C   0  0  0  0  0  0  0  0  0  0  0  0
   -1.3939    0.7838    0.6600 H   0  0  0  0  0  0  0  0  0  0  0  0
   -1.2732    1.1126   -1.2389 H   0  0  0  0  0  0  0  0  0  0  0  0
   -0.1117   -1.1630    1.0055 H   0  0  0  0  0  0  0  0  0  0  0  0
    0.7304   -0.2027    0.3023 H   0  0  0  0  0  0  0  0  0  0  0  0
    0.0879   -1.5536   -0.7684 H   0  0  0  0  0  0  0  0  0  0  0  0
  1  3  1  0  0  0  0
  1  5  1  0  0  0  0
  2  1  1  0  0  0  0
  2  8  1  0  0  0  0
  4  1  1  0  0  0  0
  6  2  1  0  0  0  0
  6  9  1  0  0  0  0
  6 10  1  0  0  0  0
  7  2  1  0  0  0  0
  9 13  1  0  0  0  0
  9 12  1  0  0  0  0
 11  6  1  0  0  0  0
 14  9  1  0  0  0  0
M  END
$$$$
