14
butane_opt
C  -3.971519   0.292413   0.118260
C  -2.695626  -0.666321  -0.020736
H  -4.823315  -0.261140  -0.275286
H  -3.900630   0.610313  -0.613053
H  -4.220265   1.263849   1.122431
C  -1.390049   0.149557  -0.109807
H  -2.912057  -1.397470  -0.917222
H  -2.494449  -1.212976   0.846356
C  -0.156626  -0.661348   0.107596
H  -1.430175   0.718490   0.691115
H  -1.340231   1.031402  -1.149260
H  -0.124428  -1.310182   1.056853
H   0.700237  -0.047728   0.179974
H   0.063933  -1.245560  -0.619463
