14
butane_opt
C  -3.982381   0.303583  -0.051849
C  -2.725690  -0.654413   0.156386
H  -4.802180  -0.140945  -0.082352
H  -3.954350   0.958955  -0.934746
H  -4.165666   0.863769   0.690663
C  -1.356211   0.154433   0.021947
H  -2.771973  -1.164790  -0.547668
H  -2.570996  -1.457901   1.110298
C  -0.153529  -0.683936  -0.037951
H  -1.311242   0.952959   0.931741
H  -1.403609   0.587102  -0.778328
H  -0.300028  -0.962998   0.593649
H   0.933033   0.138603   0.420615
H  -0.095140  -1.657457  -1.075829
