butane_opt
 OpenBabel08242015383D

 14 13  0  0  0  0  0  0  0  0999 V2000
   -3.9275    0.2125   -0.0742 C   0  0  0  0  0  0  0  0  0  0  0  0
   -2.6837   -0.5585    0.1676 C   0  0  0  0  0  0  0  0  0  0  0  0
   -4.8725   -0.4042   -0.1475 H   0  0  0  0  0  0  0  0  0  0  0  0
   -3.5378    0.8453   -1.1104 H   0  0  0  0  0  0  0  0  0  0  0  0
   -4.1016    0.8509    0.7030 H   0  0  0  0  0  0  0  0  0  0  0  0
   -1.4355    0.2129    0.1195 C   0  0  0  0  0  0  0  0  0  0  0  0
   -2.8122   -1.1386   -0.5980 H   0  0  0  0  0  0  0  0  0  0  0  0
   -2.7313   -1.1644    1.0893 H   0  0  0  0  0  0  0  0  0  0  0  0
   -0.1447   -0.7424   -0.0737 C   0  0  0  0  0  0  0  0  0  0  0  0
   -1.4843    0.9259    0.9327 H   0  0  0  0  0  0  0  0  0  0  0  0
   -1.6127    0.8808   -0.7455 H   0  0  0  0  0  0  0  0  0  0  0  0
   -0.0889   -1.1340    0.6516 H   0  0  0  0  0  0  0  0  0  0  0  0
    0.7910   -0.1883    0.0140 H   0  0  0  0  0  0  0  0  0  0  0  0
   -0.2568   -1.4603   -1.0306 H   0  0  0  0  0  0  0  0  0  0  0  0
  1  2  1  0  0  0  0
  1  5  1  0  0  0  0
  2  8  1  0  0  0  0
  3  1  1  0  0  0  0
  4  1  1  0  0  0  0
  6  2  1  0  0  0  0
  6 10  1  0  0  0  0
  7  2  1  0  0  0  0
  9 13  1  0  0  0  0
  9  6  1  0  0  0  0
  9 12  1  0  0  0  0
 11  6  1  0  0  0  0
 14  9  1  0  0  0  0
M  END
$$$$
