butane_opt
 OpenBabel08242015383D

 14 11  0  0  0  0  0  0  0  0999 V2000
   -3.8923    0.2540   -0.0722 C   0  0  0  0  0  0  0  0  0  0  0  0
   -2.6944   -0.6237    0.1402 C   0  0  0  0  0  0  0  0  0  0  0  0
   -4.7591   -0.2781    0.2328 H   0  0  0  0  0  0  0  0  0  0  0  0
   -4.0430    1.0767   -1.0704 H   0  0  0  0  0  0  0  0  0  0  0  0
   -3.9364    0.8695    0.8085 H   0  0  0  0  0  0  0  0  0  0  0  0
   -1.4385    0.1689    0.0579 C   0  0  0  0  0  0  0  0  0  0  0  0
   -2.6237   -1.2371   -0.6612 H   0  0  0  0  0  0  0  0  0  0  0  0
   -2.7255   -1.3393    1.0884 H   0  0  0  0  0  0  0  0  0  0  0  0
   -0.2016   -0.6758   -0.0243 C   0  0  0  0  0  0  0  0  0  0  0  0
   -1.3518    0.8010    0.9225 H   0  0  0  0  0  0  0  0  0  0  0  0
   -1.4906    0.8935   -0.9887 H   0  0  0  0  0  0  0  0  0  0  0  0
   -0.1874   -0.8764    0.5637 H   0  0  0  0  0  0  0  0  0  0  0  0
    0.8115   -0.0287    0.4731 H   0  0  0  0  0  0  0  0  0  0  0  0
   -0.0173   -1.8156   -1.1864 H   0  0  0  0  0  0  0  0  0  0  0  0
  1  2  1  0  0  0  0
  1  3  1  0  0  0  0
  1  5  1  0  0  0  0
  2  8  1  0  0  0  0
  4  1  1  0  0  0  0
  6  2  1  0  0  0  0
  6 10  1  0  0  0  0
  7  2  1  0  0  0  0
  9  6  1  0  0  0  0
  9 13  1  0  0  0  0
 11  6  1  0  0  0  0
M  RAD  3   9   3  12   2  14   2
M  END
$$$$
