butane_opt
 OpenBabel08242015383D

 14 13  0  0  0  0  0  0  0  0999 V2000
   -3.9167    0.2471   -0.0606 C   0  0  0  0  0  0  0  0  0  0  0  0
   -2.6843   -0.6140    0.1266 C   0  0  0  0  0  0  0  0  0  0  0  0
   -4.8620   -0.2723   -0.0927 H   0  0  0  0  0  0  0  0  0  0  0  0
   -3.8143    1.0308   -1.0940 H   0  0  0  0  0  0  0  0  0  0  0  0
   -3.9812    0.8115    0.7803 H   0  0  0  0  0  0  0  0  0  0  0  0
   -1.4072    0.2017    0.1100 C   0  0  0  0  0  0  0  0  0  0  0  0
   -2.8069   -1.3627   -0.7920 H   0  0  0  0  0  0  0  0  0  0  0  0
   -2.8470   -1.1406    1.0580 H   0  0  0  0  0  0  0  0  0  0  0  0
   -0.1780   -0.7193   -0.0362 C   0  0  0  0  0  0  0  0  0  0  0  0
   -1.4816    1.0199    1.0477 H   0  0  0  0  0  0  0  0  0  0  0  0
   -1.3893    0.8078   -0.7709 H   0  0  0  0  0  0  0  0  0  0  0  0
    0.0236   -1.2960    0.8007 H   0  0  0  0  0  0  0  0  0  0  0  0
    0.7428   -0.1236   -0.3598 H   0  0  0  0  0  0  0  0  0  0  0  0
   -0.3646   -1.3312   -0.8514 H   0  0  0  0  0  0  0  0  0  0  0  0
  1  2  1  0  0  0  0
  1  5  1  0  0  0  0
  2  8  1  0  0  0  0
  3  1  1  0  0  0  0
  4  1  1  0  0  0  0
  6  2  1  0  0  0  0
  6 10  1  0  0  0  0
  7  2  1  0  0  0  0
  9  6  1  0  0  0  0
  9 12  1  0  0  0  0
 11  6  1  0  0  0  0
 13  9  1  0  0  0  0
 14  9  1  0  0  0  0
M  END
$$$$
