14
butane_opt
C  -3.935372   0.261746  -0.010209
C  -2.700773  -0.613633   0.056749
H  -4.873590  -0.394690   0.034874
H  -3.941618   0.950787  -0.941559
H  -4.002964   0.894819   0.827606
C  -1.403173   0.198862   0.054349
H  -2.638367  -1.273267  -0.758680
H  -2.733777  -1.259353   0.948614
C  -0.169774  -0.703567   0.002298
H  -1.378158   0.884497   0.926495
H  -1.378548   0.790920  -0.794191
H  -0.046374  -1.344370   0.902146
H   0.733901  -0.113868  -0.090991
H  -0.241586  -1.330358  -0.851168
