14
butane_opt
C  -3.961576   0.236446   0.115882
C  -2.712140  -0.622752  -0.018424
H  -4.834193  -0.361569   0.139696
H  -3.977686   0.963491  -0.876957
H  -3.881926   0.972862   0.979804
C  -1.441570   0.228486  -0.107234
H  -2.982500  -1.380655  -1.000218
H  -2.536795  -1.174720   0.834167
C  -0.102794  -0.718675   0.118704
H  -1.501406   0.806084   0.631739
H  -1.289735   1.002750  -1.120713
H  -0.357588  -1.071964   0.918288
H   0.762741  -0.128092   0.419393
H   0.202434  -1.597809  -0.842960
