butane_opt
 OpenBabel08242015383D

 14 13  0  0  0  0  0  0  0  0999 V2000
   -3.9477    0.2622    0.1158 C   0  0  0  0  0  0  0  0  0  0  0  0
   -2.6567   -0.6126   -0.0746 C   0  0  0  0  0  0  0  0  0  0  0  0
   -4.7872   -0.2951    0.3515 H   0  0  0  0  0  0  0  0  0  0  0  0
   -4.1075    1.0359   -0.9062 H   0  0  0  0  0  0  0  0  0  0  0  0
   -3.8898    0.7157    0.8620 H   0  0  0  0  0  0  0  0  0  0  0  0
   -1.4235    0.1748   -0.0445 C   0  0  0  0  0  0  0  0  0  0  0  0
   -2.8746   -1.4757   -1.1302 H   0  0  0  0  0  0  0  0  0  0  0  0
   -2.3841   -1.1586    0.7675 H   0  0  0  0  0  0  0  0  0  0  0  0
   -0.1802   -0.6671    0.1157 C   0  0  0  0  0  0  0  0  0  0  0  0
   -1.3944    0.8121    0.7225 H   0  0  0  0  0  0  0  0  0  0  0  0
   -1.2266    0.8302   -1.0524 H   0  0  0  0  0  0  0  0  0  0  0  0
   -0.3542   -1.3586    1.0060 H   0  0  0  0  0  0  0  0  0  0  0  0
    0.5879   -0.1698    0.1308 H   0  0  0  0  0  0  0  0  0  0  0  0
   -0.0694   -1.2950   -0.6886 H   0  0  0  0  0  0  0  0  0  0  0  0
  1  3  1  0  0  0  0
  1  5  1  0  0  0  0
  2  6  1  0  0  0  0
  2  1  1  0  0  0  0
  2  8  1  0  0  0  0
  4  1  1  0  0  0  0
  6  9  1  0  0  0  0
  6 10  1  0  0  0  0
  7  2  1  0  0  0  0
  9 13  1  0  0  0  0
  9 12  1  0  0  0  0
 11  6  1  0  0  0  0
 14  9  1  0  0  0  0
M  END
$$$$
