butane_opt
 OpenBabel08242015383D

 14 13  0  0  0  0  0  0  0  0999 V2000
   -3.9533    0.2741    0.0422 C   0  0  0  0  0  0  0  0  0  0  0  0
   -2.6971   -0.6200    0.0026 C   0  0  0  0  0  0  0  0  0  0  0  0
   -4.8376   -0.2937    0.0570 H   0  0  0  0  0  0  0  0  0  0  0  0
   -3.9935    0.8635   -0.8396 H   0  0  0  0  0  0  0  0  0  0  0  0
   -3.9509    0.9870    0.9353 H   0  0  0  0  0  0  0  0  0  0  0  0
   -1.3942    0.1648   -0.0025 C   0  0  0  0  0  0  0  0  0  0  0  0
   -2.7288   -1.3772   -0.9154 H   0  0  0  0  0  0  0  0  0  0  0  0
   -2.6459   -1.2053    0.8776 H   0  0  0  0  0  0  0  0  0  0  0  0
   -0.1720   -0.6814    0.0526 C   0  0  0  0  0  0  0  0  0  0  0  0
   -1.3459    0.8438    0.8503 H   0  0  0  0  0  0  0  0  0  0  0  0
   -1.3685    0.7942   -0.9076 H   0  0  0  0  0  0  0  0  0  0  0  0
   -0.1408   -1.4540    1.0511 H   0  0  0  0  0  0  0  0  0  0  0  0
    0.7769   -0.0862   -0.0668 H   0  0  0  0  0  0  0  0  0  0  0  0
   -0.1939   -1.1816   -0.7168 H   0  0  0  0  0  0  0  0  0  0  0  0
  1  3  1  0  0  0  0
  1  5  1  0  0  0  0
  2  1  1  0  0  0  0
  2  8  1  0  0  0  0
  4  1  1  0  0  0  0
  6  2  1  0  0  0  0
  6  9  1  0  0  0  0
  6 10  1  0  0  0  0
  7  2  1  0  0  0  0
  9 12  1  0  0  0  0
 11  6  1  0  0  0  0
 13  9  1  0  0  0  0
 14  9  1  0  0  0  0
M  END
$$$$
