butane_opt
 OpenBabel08242015383D

 14 12  0  0  0  0  0  0  0  0999 V2000
   -3.9169    0.2761   -0.0317 C   0  0  0  0  0  0  0  0  0  0  0  0
   -2.6870   -0.6109    0.1178 C   0  0  0  0  0  0  0  0  0  0  0  0
   -4.8246   -0.3073    0.1523 H   0  0  0  0  0  0  0  0  0  0  0  0
   -3.9185    1.0246   -1.0065 H   0  0  0  0  0  0  0  0  0  0  0  0
   -4.1219    0.6924    0.6654 H   0  0  0  0  0  0  0  0  0  0  0  0
   -1.3833    0.1582    0.0506 C   0  0  0  0  0  0  0  0  0  0  0  0
   -2.5871   -1.1840   -0.7482 H   0  0  0  0  0  0  0  0  0  0  0  0
   -2.7917   -1.3621    1.1362 H   0  0  0  0  0  0  0  0  0  0  0  0
   -0.2096   -0.6850   -0.0223 C   0  0  0  0  0  0  0  0  0  0  0  0
   -1.4175    0.8184    0.8961 H   0  0  0  0  0  0  0  0  0  0  0  0
   -1.2852    0.9224   -0.9213 H   0  0  0  0  0  0  0  0  0  0  0  0
   -0.2012   -0.8513    0.6603 H   0  0  0  0  0  0  0  0  0  0  0  0
    0.6630   -0.0938    0.4144 H   0  0  0  0  0  0  0  0  0  0  0  0
   -0.1634   -1.8260   -1.2321 H   0  0  0  0  0  0  0  0  0  0  0  0
  1  2  1  0  0  0  0
  1  3  1  0  0  0  0
  1  5  1  0  0  0  0
  2  8  1  0  0  0  0
  4  1  1  0  0  0  0
  6  2  1  0  0  0  0
  6 10  1  0  0  0  0
  7  2  1  0  0  0  0
  9  6  1  0  0  0  0
  9 13  1  0  0  0  0
  9 12  1  0  0  0  0
 11  6  1  0  0  0  0
M  RAD  2   9   2  14   2
M  END
$$$$
