14
butane_opt
C  -3.947731   0.262193   0.115796
C  -2.656701  -0.612602  -0.074643
H  -4.787189  -0.295080   0.351535
H  -4.107526   1.035872  -0.906180
H  -3.889780   0.715670   0.861976
C  -1.423453   0.174808  -0.044492
H  -2.874649  -1.475741  -1.130247
H  -2.384119  -1.158583   0.767469
C  -0.180198  -0.667081   0.115735
H  -1.394430   0.812111   0.722469
H  -1.226606   0.830222  -1.052443
H  -0.354167  -1.358632   1.005952
H   0.587911  -0.169818   0.130821
H  -0.069372  -1.294970  -0.688561
