butane_opt
 OpenBabel08242015383D

 14 13  0  0  0  0  0  0  0  0999 V2000
   -3.8984    0.2395    0.0436 C   0  0  0  0  0  0  0  0  0  0  0  0
   -2.6930   -0.5738    0.0387 C   0  0  0  0  0  0  0  0  0  0  0  0
   -4.8768   -0.4205   -0.3369 H   0  0  0  0  0  0  0  0  0  0  0  0
   -3.8183    0.6340   -0.5878 H   0  0  0  0  0  0  0  0  0  0  0  0
   -4.1201    1.2058    1.0608 H   0  0  0  0  0  0  0  0  0  0  0  0
   -1.4164    0.2149   -0.0728 C   0  0  0  0  0  0  0  0  0  0  0  0
   -2.7243   -1.2125   -0.7771 H   0  0  0  0  0  0  0  0  0  0  0  0
   -2.7395   -1.2765    0.9912 H   0  0  0  0  0  0  0  0  0  0  0  0
   -0.1936   -0.7139    0.0609 C   0  0  0  0  0  0  0  0  0  0  0  0
   -1.3314    0.8224    0.8289 H   0  0  0  0  0  0  0  0  0  0  0  0
   -1.3180    0.6701   -0.8327 H   0  0  0  0  0  0  0  0  0  0  0  0
   -0.0729   -1.4957    1.0442 H   0  0  0  0  0  0  0  0  0  0  0  0
    0.6833   -0.1618   -0.0110 H   0  0  0  0  0  0  0  0  0  0  0  0
   -0.2569   -1.2558   -0.7392 H   0  0  0  0  0  0  0  0  0  0  0  0
  1  5  1  0  0  0  0
  2  1  1  0  0  0  0
  2  8  1  0  0  0  0
  3  1  1  0  0  0  0
  4  1  1  0  0  0  0
  6  2  1  0  0  0  0
  6  9  1  0  0  0  0
  6 10  1  0  0  0  0
  7  2  1  0  0  0  0
  9 12  1  0  0  0  0
 11  6  1  0  0  0  0
 13  9  1  0  0  0  0
 14  9  1  0  0  0  0
M  END
$$$$
