14
butane_opt
C  -3.964367   0.265029   0.090527
C  -2.712937  -0.600316  -0.020701
H  -4.842048  -0.274587  -0.314385
H  -3.926789   0.516634  -0.620744
H  -4.135896   1.196627   1.090209
C  -1.379082   0.189307  -0.037475
H  -2.903129  -1.345617  -0.902757
H  -2.841287  -1.179409   0.803800
C  -0.135862  -0.706141   0.104845
H  -1.419674   0.733810   0.664157
H  -1.343751   0.968013  -1.105671
H   0.013200  -1.522217   1.107000
H   0.861182  -0.096802  -0.286991
H  -0.192766  -1.224285  -0.590577
