14
butane_opt
C  -3.996378   0.277324  -0.020451
C  -2.714580  -0.644108   0.081120
H  -4.761345  -0.145412   0.089150
H  -4.037516   1.026020  -1.044874
H  -4.154438   0.908620   0.713808
C  -1.362498   0.146284   0.083448
H  -2.550903  -1.500215  -0.889322
H  -2.791356  -1.152712   0.847969
C  -0.129279  -0.667165  -0.015846
H  -1.211482   0.979601   1.112634
H  -1.441088   0.758782  -0.794836
H  -0.098029  -1.508676   0.957412
H   0.820716  -0.047212  -0.355536
H  -0.366888  -1.109028  -0.699534
