butane_opt
 OpenBabel08242015383D

 14 13  0  0  0  0  0  0  0  0999 V2000
   -3.9549    0.2815   -0.0338 C   0  0  0  0  0  0  0  0  0  0  0  0
   -2.7305   -0.6572    0.0473 C   0  0  0  0  0  0  0  0  0  0  0  0
   -4.7195   -0.1707    0.3554 H   0  0  0  0  0  0  0  0  0  0  0  0
   -4.2193    1.2042   -1.0465 H   0  0  0  0  0  0  0  0  0  0  0  0
   -3.9413    0.7770    0.7333 H   0  0  0  0  0  0  0  0  0  0  0  0
   -1.3792    0.1726    0.0756 C   0  0  0  0  0  0  0  0  0  0  0  0
   -2.6645   -1.3988   -0.7670 H   0  0  0  0  0  0  0  0  0  0  0  0
   -2.8066   -1.2481    0.8845 H   0  0  0  0  0  0  0  0  0  0  0  0
   -0.1263   -0.6715    0.0087 C   0  0  0  0  0  0  0  0  0  0  0  0
   -1.3306    0.8312    0.9858 H   0  0  0  0  0  0  0  0  0  0  0  0
   -1.3275    0.6884   -0.7048 H   0  0  0  0  0  0  0  0  0  0  0  0
   -0.1463   -1.2155    0.8397 H   0  0  0  0  0  0  0  0  0  0  0  0
    0.6379   -0.1040   -0.1697 H   0  0  0  0  0  0  0  0  0  0  0  0
   -0.2145   -1.3167   -0.8824 H   0  0  0  0  0  0  0  0  0  0  0  0
  1  2  1  0  0  0  0
  1  3  1  0  0  0  0
  1  5  1  0  0  0  0
  2  6  1  0  0  0  0
  2  8  1  0  0  0  0
  4  1  1  0  0  0  0
  6 10  1  0  0  0  0
  7  2  1  0  0  0  0
  9  6  1  0  0  0  0
  9 12  1  0  0  0  0
 11  6  1  0  0  0  0
 13  9  1  0  0  0  0
 14  9  1  0  0  0  0
M  END
$$$$
