14
butane_opt
C  -3.924083   0.284169  -0.045006
C  -2.695486  -0.628542   0.092833
H  -4.915922  -0.297729  -0.131370
H  -3.850992   0.879700  -0.974617
H  -4.053638   0.833520   0.755241
C  -1.430178   0.180135   0.122126
H  -2.536745  -1.285647  -0.799359
H  -2.788732  -1.272913   1.037428
C  -0.143137  -0.683397  -0.064537
H  -1.264331   0.947876   1.020033
H  -1.600258   0.541122  -0.631630
H  -0.064962  -1.579339   0.999079
H   0.763381  -0.059837  -0.311407
H  -0.391005  -0.998026  -0.737665
