14
butane_opt
C  -3.944607   0.318703  -0.019925
C  -2.708760  -0.693830   0.147524
H  -4.786615  -0.252369  -0.129559
H  -3.980219   1.151226  -1.152202
H  -4.217807   0.843409   0.708250
C  -1.374992   0.171386   0.063651
H  -2.761629  -1.373895  -0.641383
H  -2.696238  -1.397952   1.012107
C  -0.162517  -0.657506  -0.044026
H  -1.460429   0.792518   0.816483
H  -1.362112   0.745516  -0.849469
H  -0.267849  -0.947977   0.639902
H   0.831358   0.021125   0.319807
H  -0.058286  -1.682096  -1.120751
