14
butane_opt
C  -3.911205   0.276670   0.101399
C  -2.689219  -0.633017  -0.053339
H  -4.728956  -0.143983   0.301118
H  -4.143016   0.723372  -0.689091
H  -3.891008   1.090233   1.101452
C  -1.394210   0.143062  -0.140344
H  -2.762440  -1.378987  -0.906134
H  -2.532579  -1.262241   0.827657
C  -0.225459  -0.687835   0.139893
H  -1.383974   0.895108   0.716626
H  -1.325557   0.916124  -1.124337
H  -0.475943  -1.200050   0.970404
H   0.781868   0.036528   0.427668
H   0.067668  -1.328840  -0.738469
