butane_opt
 OpenBabel08242015383D

 14 13  0  0  0  0  0  0  0  0999 V2000
   -3.9404    0.2310   -0.0227 C   0  0  0  0  0  0  0  0  0  0  0  0
   -2.7427   -0.5982    0.1259 C   0  0  0  0  0  0  0  0  0  0  0  0
   -4.9420   -0.3674   -0.0247 H   0  0  0  0  0  0  0  0  0  0  0  0
   -3.9252    1.1058   -1.1170 H   0  0  0  0  0  0  0  0  0  0  0  0
   -3.9855    0.7461    0.7476 H   0  0  0  0  0  0  0  0  0  0  0  0
   -1.3913    0.2368    0.0320 C   0  0  0  0  0  0  0  0  0  0  0  0
   -2.7515   -1.1406   -0.7066 H   0  0  0  0  0  0  0  0  0  0  0  0
   -2.7315   -1.1865    1.0224 H   0  0  0  0  0  0  0  0  0  0  0  0
   -0.1354   -0.7549   -0.0074 C   0  0  0  0  0  0  0  0  0  0  0  0
   -1.3516    0.9028    0.8940 H   0  0  0  0  0  0  0  0  0  0  0  0
   -1.4869    0.8230   -0.8123 H   0  0  0  0  0  0  0  0  0  0  0  0
   -0.1037   -0.9375    0.6287 H   0  0  0  0  0  0  0  0  0  0  0  0
    0.8505   -0.0533    0.2244 H   0  0  0  0  0  0  0  0  0  0  0  0
   -0.0552   -1.7605   -1.0185 H   0  0  0  0  0  0  0  0  0  0  0  0
  1  2  1  0  0  0  0
  1  5  1  0  0  0  0
  2  8  1  0  0  0  0
  3  1  1  0  0  0  0
  4  1  1  0  0  0  0
  6  2  1  0  0  0  0
  6 10  1  0  0  0  0
  7  2  1  0  0  0  0
  9  6  1  0  0  0  0
  9 13  1  0  0  0  0
  9 12  1  0  0  0  0
 11  6  1  0  0  0  0
 14  9  1  0  0  0  0
M  END
$$$$
