14
butane_opt
C  -3.954496   0.250347   0.069273
C  -2.737064  -0.582515  -0.029858
H  -5.000815  -0.479970   0.271307
H  -4.068274   0.822610  -0.788034
H  -3.935307   0.986652   0.987508
C  -1.395530   0.233699  -0.061271
H  -2.796884  -1.338786  -0.885796
H  -2.772424  -1.211284   0.926982
C  -0.119184  -0.734098   0.099404
H  -1.261468   0.649169   0.671985
H  -1.361282   1.012704  -1.094624
H  -0.185335  -1.149160   0.967948
H   0.776862  -0.170936   0.361835
H   0.083761  -1.624064  -0.903408
