butane_opt
 OpenBabel08242015383D

 14 13  0  0  0  0  0  0  0  0999 V2000
   -4.0008    0.3053   -0.0827 C   0  0  0  0  0  0  0  0  0  0  0  0
   -2.6846   -0.6614    0.1844 C   0  0  0  0  0  0  0  0  0  0  0  0
   -4.7555   -0.1885   -0.3236 H   0  0  0  0  0  0  0  0  0  0  0  0
   -3.8042    0.8929   -0.9585 H   0  0  0  0  0  0  0  0  0  0  0  0
   -4.2883    1.0164    0.8520 H   0  0  0  0  0  0  0  0  0  0  0  0
   -1.3850    0.1410    0.0711 C   0  0  0  0  0  0  0  0  0  0  0  0
   -2.7147   -1.3021   -0.6298 H   0  0  0  0  0  0  0  0  0  0  0  0
   -2.8701   -1.4774    1.1510 H   0  0  0  0  0  0  0  0  0  0  0  0
   -0.1276   -0.6412   -0.0677 C   0  0  0  0  0  0  0  0  0  0  0  0
   -1.2925    0.9726    1.0577 H   0  0  0  0  0  0  0  0  0  0  0  0
   -1.4193    0.5711   -0.6483 H   0  0  0  0  0  0  0  0  0  0  0  0
   -0.1138   -1.2005    0.7671 H   0  0  0  0  0  0  0  0  0  0  0  0
    0.7521   -0.0721   -0.1533 H   0  0  0  0  0  0  0  0  0  0  0  0
   -0.1727   -1.3698   -0.9474 H   0  0  0  0  0  0  0  0  0  0  0  0
  1  2  1  0  0  0  0
  1  5  1  0  0  0  0
  2  8  1  0  0  0  0
  3  1  1  0  0  0  0
  4  1  1  0  0  0  0
  6  2  1  0  0  0  0
  6 10  1  0  0  0  0
  7  2  1  0  0  0  0
  9  6  1  0  0  0  0
  9 12  1  0  0  0  0
 11  6  1  0  0  0  0
 13  9  1  0  0  0  0
 14  9  1  0  0  0  0
M  END
$$$$
