14
butane_opt
C  -3.937131   0.273832  -0.047397
C  -2.659299  -0.602325   0.130306
H  -4.815364  -0.243529   0.016665
H  -3.994846   1.059947  -1.048445
H  -3.999982   0.705611   0.738272
C  -1.417202   0.144249   0.057498
H  -2.565492  -1.277160  -0.693096
H  -2.729155  -1.339608   1.111946
C  -0.198254  -0.684935  -0.011490
H  -1.377032   0.810318   0.808565
H  -1.440735   0.691630  -0.783663
H  -0.167482  -0.855366   0.539089
H   0.879591   0.074296   0.202710
H  -0.273329  -1.638911  -1.052720
