14
butane_opt
C  -3.892305   0.254008  -0.072244
C  -2.694374  -0.623739   0.140152
H  -4.759067  -0.278076   0.232786
H  -4.042983   1.076658  -1.070398
H  -3.936399   0.869542   0.808496
C  -1.438538   0.168864   0.057885
H  -2.623682  -1.237113  -0.661218
H  -2.725522  -1.339285   1.088397
C  -0.201638  -0.675803  -0.024344
H  -1.351768   0.801002   0.922514
H  -1.490553   0.893524  -0.988747
H  -0.187431  -0.876389   0.563733
H   0.811535  -0.028668   0.473076
H  -0.017291  -1.815580  -1.186369
