butane_opt
 OpenBabel08242015383D

 14 12  0  0  0  0  0  0  0  0999 V2000
   -3.9662    0.2568    0.0871 C   0  0  0  0  0  0  0  0  0  0  0  0
   -2.7324   -0.6090   -0.0494 C   0  0  0  0  0  0  0  0  0  0  0  0
   -5.0428   -0.4141   -0.0334 H   0  0  0  0  0  0  0  0  0  0  0  0
   -4.0469    0.6799   -0.7339 H   0  0  0  0  0  0  0  0  0  0  0  0
   -3.9885    1.0666    1.0638 H   0  0  0  0  0  0  0  0  0  0  0  0
   -1.4078    0.2006   -0.0103 C   0  0  0  0  0  0  0  0  0  0  0  0
   -2.6177   -1.3743   -1.0136 H   0  0  0  0  0  0  0  0  0  0  0  0
   -2.6464   -1.0255    0.5915 H   0  0  0  0  0  0  0  0  0  0  0  0
   -0.1168   -0.7064    0.1054 C   0  0  0  0  0  0  0  0  0  0  0  0
   -1.3129    0.7925    0.7361 H   0  0  0  0  0  0  0  0  0  0  0  0
   -1.3829    0.9727   -0.9732 H   0  0  0  0  0  0  0  0  0  0  0  0
    0.0730   -1.7484    1.2688 H   0  0  0  0  0  0  0  0  0  0  0  0
    0.7923   -0.1137   -0.4505 H   0  0  0  0  0  0  0  0  0  0  0  0
   -0.1535   -1.0342   -0.5412 H   0  0  0  0  0  0  0  0  0  0  0  0
  1  5  1  0  0  0  0
  2  6  1  0  0  0  0
  2  1  1  0  0  0  0
  2  8  1  0  0  0  0
  3  1  1  0  0  0  0
  4  1  1  0  0  0  0
  6  9  1  0  0  0  0
  6 10  1  0  0  0  0
  7  2  1  0  0  0  0
 11  6  1  0  0  0  0
 13  9  1  0  0  0  0
 14  9  1  0  0  0  0
M  RAD  2   9   2  12   2
M  END
$$$$
