butane_opt
 OpenBabel08242015383D

 14 11  0  0  0  0  0  0  0  0999 V2000
   -3.9211    0.2604    0.0710 C   0  0  0  0  0  1  0  0  0  0  0  0
   -2.6933   -0.6011   -0.0212 C   0  0  0  0  0  0  0  0  0  0  0  0
   -5.0207   -0.4708   -0.2353 H   0  0  0  0  0  0  0  0  0  0  0  0
   -3.7076    0.3950   -0.5068 H   0  0  0  0  0  0  0  0  0  0  0  0
   -3.9144    1.3610    1.2238 H   0  0  0  0  0  0  0  0  0  0  0  0
   -1.4321    0.1806   -0.0786 C   0  0  0  0  0  0  0  0  0  0  0  0
   -2.6818   -1.0567   -0.7411 H   0  0  0  0  0  0  0  0  0  0  0  0
   -2.7411   -1.2068    0.9269 H   0  0  0  0  0  0  0  0  0  0  0  0
   -0.1602   -0.6962    0.1048 C   0  0  0  0  0  0  0  0  0  0  0  0
   -1.4055    0.7248    0.6937 H   0  0  0  0  0  0  0  0  0  0  0  0
   -1.4509    0.9562   -1.0924 H   0  0  0  0  0  0  0  0  0  0  0  0
   -0.2302   -1.4770    1.1100 H   0  0  0  0  0  0  0  0  0  0  0  0
    0.7388   -0.1776    0.0272 H   0  0  0  0  0  0  0  0  0  0  0  0
   -0.1258   -1.2945   -0.8017 H   0  0  0  0  0  0  0  0  0  0  0  0
  2  8  1  0  0  0  0
  3  1  1  0  0  0  0
  4  2  1  0  0  0  0
  6  2  1  0  0  0  0
  6  9  1  0  0  0  0
  6 10  1  0  0  0  0
  7  2  1  0  0  0  0
  9 12  1  0  0  0  0
 11  6  1  0  0  0  0
 13  9  1  0  0  0  0
 14  9  1  0  0  0  0
M  RAD  1   5   2
M  END
$$$$
