14
butane_opt
C  -3.958194   0.267694   0.004541
C  -2.701856  -0.627754   0.057964
H  -4.869654  -0.301301   0.059633
H  -3.987148   0.972022  -0.964186
H  -4.014150   0.867721   0.795743
C  -1.394070   0.188689   0.024498
H  -2.698529  -1.271145  -0.790043
H  -2.668354  -1.346984   0.989013
C  -0.153040  -0.691342   0.013501
H  -1.333311   0.939864   0.920351
H  -1.397176   0.776947  -0.820390
H  -0.176696  -1.208576   0.849870
H   0.731519  -0.123937   0.059237
H  -0.113618  -1.428850  -0.885281
