butane_opt
 OpenBabel08242015383D

 14 13  0  0  0  0  0  0  0  0999 V2000
   -3.9792    0.3111    0.0490 C   0  0  0  0  0  0  0  0  0  0  0  0
   -2.7111   -0.6872   -0.0295 C   0  0  0  0  0  0  0  0  0  0  0  0
   -4.7951   -0.2437    0.4863 H   0  0  0  0  0  0  0  0  0  0  0  0
   -4.1156    1.1493   -0.9885 H   0  0  0  0  0  0  0  0  0  0  0  0
   -3.8815    0.8032    0.8221 H   0  0  0  0  0  0  0  0  0  0  0  0
   -1.3678    0.1480   -0.0171 C   0  0  0  0  0  0  0  0  0  0  0  0
   -2.6826   -1.2655   -0.8330 H   0  0  0  0  0  0  0  0  0  0  0  0
   -2.6132   -1.2633    0.8638 H   0  0  0  0  0  0  0  0  0  0  0  0
   -0.1890   -0.6511    0.0543 C   0  0  0  0  0  0  0  0  0  0  0  0
   -1.4427    0.8479    0.8844 H   0  0  0  0  0  0  0  0  0  0  0  0
   -1.1113    0.7694   -0.8431 H   0  0  0  0  0  0  0  0  0  0  0  0
   -0.1789   -1.1925    0.9610 H   0  0  0  0  0  0  0  0  0  0  0  0
    0.7410   -0.0662    0.2554 H   0  0  0  0  0  0  0  0  0  0  0  0
   -0.0094   -1.4482   -0.8862 H   0  0  0  0  0  0  0  0  0  0  0  0
  1  3  1  0  0  0  0
  1  5  1  0  0  0  0
  2  6  1  0  0  0  0
  2  1  1  0  0  0  0
  2  8  1  0  0  0  0
  4  1  1  0  0  0  0
  6  9  1  0  0  0  0
  6 10  1  0  0  0  0
  7  2  1  0  0  0  0
  9 13  1  0  0  0  0
  9 12  1  0  0  0  0
 11  6  1  0  0  0  0
 14  9  1  0  0  0  0
M  END
$$$$
