butane_opt
 OpenBabel08242015383D

 14 13  0  0  0  0  0  0  0  0999 V2000
   -3.9514    0.2286    0.1229 C   0  0  0  0  0  0  0  0  0  0  0  0
   -2.7146   -0.5925   -0.1098 C   0  0  0  0  0  0  0  0  0  0  0  0
   -4.8551   -0.2996    0.5200 H   0  0  0  0  0  0  0  0  0  0  0  0
   -4.1462    0.8634   -0.7895 H   0  0  0  0  0  0  0  0  0  0  0  0
   -3.8045    0.7033    0.9399 H   0  0  0  0  0  0  0  0  0  0  0  0
   -1.4083    0.2659   -0.1135 C   0  0  0  0  0  0  0  0  0  0  0  0
   -3.0142   -1.4740   -1.0090 H   0  0  0  0  0  0  0  0  0  0  0  0
   -2.5306   -1.1411    0.7140 H   0  0  0  0  0  0  0  0  0  0  0  0
   -0.1404   -0.7394    0.1524 C   0  0  0  0  0  0  0  0  0  0  0  0
   -1.5778    1.0364    0.7948 H   0  0  0  0  0  0  0  0  0  0  0  0
   -1.3605    0.8950   -1.0167 H   0  0  0  0  0  0  0  0  0  0  0  0
   -0.1382   -1.4470    1.1006 H   0  0  0  0  0  0  0  0  0  0  0  0
    0.7958   -0.1960    0.1604 H   0  0  0  0  0  0  0  0  0  0  0  0
    0.1748   -1.3455   -0.6182 H   0  0  0  0  0  0  0  0  0  0  0  0
  1  3  1  0  0  0  0
  1  5  1  0  0  0  0
  2  1  1  0  0  0  0
  2  8  1  0  0  0  0
  4  1  1  0  0  0  0
  6  2  1  0  0  0  0
  6  9  1  0  0  0  0
  6 10  1  0  0  0  0
  7  2  1  0  0  0  0
  9 13  1  0  0  0  0
  9 12  1  0  0  0  0
 11  6  1  0  0  0  0
 14  9  1  0  0  0  0
M  END
$$$$
