butane_opt
 OpenBabel08242015383D

 14 12  0  0  0  0  0  0  0  0999 V2000
   -3.9784    0.2428    0.0117 C   0  0  0  0  0  0  0  0  0  0  0  0
   -2.6695   -0.6161    0.0969 C   0  0  0  0  0  0  0  0  0  0  0  0
   -4.8944   -0.3248    0.0353 H   0  0  0  0  0  0  0  0  0  0  0  0
   -3.9898    0.9929   -0.9843 H   0  0  0  0  0  0  0  0  0  0  0  0
   -4.0744    0.8025    0.8159 H   0  0  0  0  0  0  0  0  0  0  0  0
   -1.4001    0.2023   -0.0366 C   0  0  0  0  0  0  0  0  0  0  0  0
   -2.8285   -1.2871   -0.7193 H   0  0  0  0  0  0  0  0  0  0  0  0
   -2.7662   -1.2259    1.0150 H   0  0  0  0  0  0  0  0  0  0  0  0
   -0.1603   -0.6969    0.0314 C   0  0  0  0  0  0  0  0  0  0  0  0
   -1.2650    0.9487    0.8566 H   0  0  0  0  0  0  0  0  0  0  0  0
   -1.4506    0.9550   -0.9427 H   0  0  0  0  0  0  0  0  0  0  0  0
   -0.0999   -1.0072    0.6254 H   0  0  0  0  0  0  0  0  0  0  0  0
    0.7035   -0.1560    0.5038 H   0  0  0  0  0  0  0  0  0  0  0  0
    0.1431   -1.7772   -1.0453 H   0  0  0  0  0  0  0  0  0  0  0  0
  1  3  1  0  0  0  0
  1  2  1  0  0  0  0
  1  5  1  0  0  0  0
  2  8  1  0  0  0  0
  4  1  1  0  0  0  0
  6  9  1  0  0  0  0
  6  2  1  0  0  0  0
  6 10  1  0  0  0  0
  7  2  1  0  0  0  0
  9 13  1  0  0  0  0
  9 12  1  0  0  0  0
 11  6  1  0  0  0  0
M  RAD  2   9   2  14   2
M  END
$$$$
