butane_opt
 OpenBabel08242015383D

 14 13  0  0  0  0  0  0  0  0999 V2000
   -3.9383    0.3078    0.1128 C   0  0  0  0  0  0  0  0  0  0  0  0
   -2.6975   -0.6393   -0.0523 C   0  0  0  0  0  0  0  0  0  0  0  0
   -4.8284   -0.1979    0.2463 H   0  0  0  0  0  0  0  0  0  0  0  0
   -4.1102    0.9893   -0.6984 H   0  0  0  0  0  0  0  0  0  0  0  0
   -3.9472    0.8360    0.9058 H   0  0  0  0  0  0  0  0  0  0  0  0
   -1.3822    0.1146   -0.1256 C   0  0  0  0  0  0  0  0  0  0  0  0
   -2.8239   -1.3346   -0.9531 H   0  0  0  0  0  0  0  0  0  0  0  0
   -2.6220   -1.3339    0.8455 H   0  0  0  0  0  0  0  0  0  0  0  0
   -0.1738   -0.6470    0.1174 C   0  0  0  0  0  0  0  0  0  0  0  0
   -1.4681    0.8732    0.8368 H   0  0  0  0  0  0  0  0  0  0  0  0
   -1.3213    0.6782   -1.0230 H   0  0  0  0  0  0  0  0  0  0  0  0
   -0.4049   -1.2075    0.9806 H   0  0  0  0  0  0  0  0  0  0  0  0
    0.7833    0.0291    0.4056 H   0  0  0  0  0  0  0  0  0  0  0  0
   -0.0127   -1.4166   -0.7534 H   0  0  0  0  0  0  0  0  0  0  0  0
  1  3  1  0  0  0  0
  1  5  1  0  0  0  0
  2  1  1  0  0  0  0
  2  8  1  0  0  0  0
  4  1  1  0  0  0  0
  6  2  1  0  0  0  0
  6  9  1  0  0  0  0
  6 10  1  0  0  0  0
  7  2  1  0  0  0  0
  9 13  1  0  0  0  0
  9 12  1  0  0  0  0
 11  6  1  0  0  0  0
 14  9  1  0  0  0  0
M  END
$$$$
