14
butane_opt
C  -3.954490   0.247549  -0.054407
C  -2.724912  -0.564636   0.101278
H  -4.932333  -0.393943  -0.102205
H  -3.911936   0.943347  -1.009940
H  -4.151322   0.796323   0.684255
C  -1.373991   0.200232   0.118255
H  -2.828282  -1.211200  -0.692735
H  -2.859227  -1.280579   1.012306
C  -0.117350  -0.717909  -0.067530
H  -1.429782   1.030583   1.105444
H  -1.399745   0.562547  -0.527665
H   0.114528  -1.597911   0.883655
H   0.760959  -0.186665  -0.332607
H  -0.314416  -1.106947  -0.745749
