butane_opt
 OpenBabel08242015383D

 14 13  0  0  0  0  0  0  0  0999 V2000
   -4.0082    0.2864    0.0132 C   0  0  0  0  0  0  0  0  0  0  0  0
   -2.7106   -0.6493    0.0525 C   0  0  0  0  0  0  0  0  0  0  0  0
   -4.8647   -0.2774    0.2062 H   0  0  0  0  0  0  0  0  0  0  0  0
   -4.0748    1.0223   -1.0103 H   0  0  0  0  0  0  0  0  0  0  0  0
   -3.8538    0.9451    0.8551 H   0  0  0  0  0  0  0  0  0  0  0  0
   -1.3556    0.1530   -0.0040 C   0  0  0  0  0  0  0  0  0  0  0  0
   -2.6967   -1.2566   -0.7279 H   0  0  0  0  0  0  0  0  0  0  0  0
   -2.8160   -1.3048    0.9597 H   0  0  0  0  0  0  0  0  0  0  0  0
   -0.1299   -0.6833    0.0030 C   0  0  0  0  0  0  0  0  0  0  0  0
   -1.3946    1.0337    0.8963 H   0  0  0  0  0  0  0  0  0  0  0  0
   -1.3738    0.7781   -0.8922 H   0  0  0  0  0  0  0  0  0  0  0  0
   -0.3253   -1.2055    0.8847 H   0  0  0  0  0  0  0  0  0  0  0  0
    0.8171   -0.0086    0.3671 H   0  0  0  0  0  0  0  0  0  0  0  0
   -0.0075   -1.4779   -0.8859 H   0  0  0  0  0  0  0  0  0  0  0  0
  1  2  1  0  0  0  0
  1  3  1  0  0  0  0
  1  5  1  0  0  0  0
  2  8  1  0  0  0  0
  4  1  1  0  0  0  0
  6  9  1  0  0  0  0
  6  2  1  0  0  0  0
  6 10  1  0  0  0  0
  7  2  1  0  0  0  0
  9 13  1  0  0  0  0
  9 12  1  0  0  0  0
 11  6  1  0  0  0  0
 14  9  1  0  0  0  0
M  END
$$$$
