butane_opt
 OpenBabel08242015383D

 14 13  0  0  0  0  0  0  0  0999 V2000
   -3.9502    0.2782    0.0388 C   0  0  0  0  0  0  0  0  0  0  0  0
   -2.7062   -0.6282    0.0313 C   0  0  0  0  0  0  0  0  0  0  0  0
   -4.8708   -0.3513   -0.0912 H   0  0  0  0  0  0  0  0  0  0  0  0
   -3.9620    0.7659   -0.7750 H   0  0  0  0  0  0  0  0  0  0  0  0
   -4.0113    1.0627    0.9715 H   0  0  0  0  0  0  0  0  0  0  0  0
   -1.3922    0.1902   -0.0309 C   0  0  0  0  0  0  0  0  0  0  0  0
   -2.7516   -1.3443   -0.8386 H   0  0  0  0  0  0  0  0  0  0  0  0
   -2.7021   -1.2842    0.9275 H   0  0  0  0  0  0  0  0  0  0  0  0
   -0.1588   -0.6894    0.0560 C   0  0  0  0  0  0  0  0  0  0  0  0
   -1.3334    0.8473    0.8240 H   0  0  0  0  0  0  0  0  0  0  0  0
   -1.4105    0.8314   -0.9245 H   0  0  0  0  0  0  0  0  0  0  0  0
   -0.1563   -1.3634    0.9896 H   0  0  0  0  0  0  0  0  0  0  0  0
    0.7426   -0.1237    0.0308 H   0  0  0  0  0  0  0  0  0  0  0  0
   -0.0805   -1.3219   -0.7999 H   0  0  0  0  0  0  0  0  0  0  0  0
  1  5  1  0  0  0  0
  2  1  1  0  0  0  0
  2  8  1  0  0  0  0
  3  1  1  0  0  0  0
  4  1  1  0  0  0  0
  6  2  1  0  0  0  0
  6  9  1  0  0  0  0
  6 10  1  0  0  0  0
  7  2  1  0  0  0  0
  9 12  1  0  0  0  0
 11  6  1  0  0  0  0
 13  9  1  0  0  0  0
 14  9  1  0  0  0  0
M  END
$$$$
