butane_opt
 OpenBabel08242015383D

 14 13  0  0  0  0  0  0  0  0999 V2000
   -3.9221    0.2891   -0.0710 C   0  0  0  0  0  0  0  0  0  0  0  0
   -2.6900   -0.6350    0.1418 C   0  0  0  0  0  0  0  0  0  0  0  0
   -4.9079   -0.3268   -0.0484 H   0  0  0  0  0  0  0  0  0  0  0  0
   -3.8096    0.9544   -1.0436 H   0  0  0  0  0  0  0  0  0  0  0  0
   -3.9414    0.9421    0.8035 H   0  0  0  0  0  0  0  0  0  0  0  0
   -1.3978    0.1815    0.0750 C   0  0  0  0  0  0  0  0  0  0  0  0
   -2.5816   -1.2317   -0.5886 H   0  0  0  0  0  0  0  0  0  0  0  0
   -2.6595   -1.4583    1.2137 H   0  0  0  0  0  0  0  0  0  0  0  0
   -0.2136   -0.6785   -0.0751 C   0  0  0  0  0  0  0  0  0  0  0  0
   -1.2464    0.8694    1.0114 H   0  0  0  0  0  0  0  0  0  0  0  0
   -1.4980    0.6273   -0.7421 H   0  0  0  0  0  0  0  0  0  0  0  0
   -0.3053   -1.1958    0.7620 H   0  0  0  0  0  0  0  0  0  0  0  0
    0.7096   -0.0370    0.3135 H   0  0  0  0  0  0  0  0  0  0  0  0
   -0.1145   -1.4920   -1.0998 H   0  0  0  0  0  0  0  0  0  0  0  0
  1  3  1  0  0  0  0
  1  2  1  0  0  0  0
  1  5  1  0  0  0  0
  2  8  1  0  0  0  0
  4  1  1  0  0  0  0
  6  2  1  0  0  0  0
  6 10  1  0  0  0  0
  7  2  1  0  0  0  0
  9  6  1  0  0  0  0
  9 13  1  0  0  0  0
  9 12  1  0  0  0  0
 11  6  1  0  0  0  0
 14  9  1  0  0  0  0
M  END
$$$$
