butane_opt
 OpenBabel08242015383D

 14 13  0  0  0  0  0  0  0  0999 V2000
   -3.9151    0.2906   -0.0829 C   0  0  0  0  0  0  0  0  0  0  0  0
   -2.7043   -0.6404    0.1768 C   0  0  0  0  0  0  0  0  0  0  0  0
   -4.7374   -0.1750   -0.1927 H   0  0  0  0  0  0  0  0  0  0  0  0
   -3.8458    0.8865   -1.0292 H   0  0  0  0  0  0  0  0  0  0  0  0
   -4.1648    0.9101    0.7681 H   0  0  0  0  0  0  0  0  0  0  0  0
   -1.3823    0.1684    0.1100 C   0  0  0  0  0  0  0  0  0  0  0  0
   -2.4437   -1.3021   -0.6453 H   0  0  0  0  0  0  0  0  0  0  0  0
   -2.8570   -1.3598    1.1695 H   0  0  0  0  0  0  0  0  0  0  0  0
   -0.2217   -0.6866   -0.0700 C   0  0  0  0  0  0  0  0  0  0  0  0
   -1.2827    0.6717    0.9217 H   0  0  0  0  0  0  0  0  0  0  0  0
   -1.4687    0.8164   -0.7381 H   0  0  0  0  0  0  0  0  0  0  0  0
   -0.1606   -0.9625    0.6224 H   0  0  0  0  0  0  0  0  0  0  0  0
    0.7535    0.0280   -0.0205 H   0  0  0  0  0  0  0  0  0  0  0  0
   -0.1532   -1.5427   -1.0464 H   0  0  0  0  0  0  0  0  0  0  0  0
  1  2  1  0  0  0  0
  1  5  1  0  0  0  0
  2  8  1  0  0  0  0
  3  1  1  0  0  0  0
  4  1  1  0  0  0  0
  6  2  1  0  0  0  0
  6 10  1  0  0  0  0
  7  2  1  0  0  0  0
  9 13  1  0  0  0  0
  9  6  1  0  0  0  0
  9 12  1  0  0  0  0
 11  6  1  0  0  0  0
 14  9  1  0  0  0  0
M  END
$$$$
