14
butane_opt
C  -3.962245   0.271451  -0.002620
C  -2.703089  -0.616949   0.067961
H  -4.870311  -0.318940   0.071576
H  -3.986423   0.883647  -0.919687
H  -3.992302   0.909939   0.846597
C  -1.396068   0.176403   0.017964
H  -2.675458  -1.300288  -0.778499
H  -2.707935  -1.281285   1.009359
C  -0.148264  -0.684903   0.014877
H  -1.368711   0.836592   0.849827
H  -1.373744   0.818563  -0.887243
H  -0.182273  -1.186161   0.815945
H   0.749602  -0.117216   0.164165
H  -0.095959  -1.469866  -0.920161
