butane_opt
 OpenBabel08242015383D

 14 13  0  0  0  0  0  0  0  0999 V2000
   -3.9094    0.2463    0.0776 C   0  0  0  0  0  0  0  0  0  0  0  0
   -2.7357   -0.6234   -0.0574 C   0  0  0  0  0  0  0  0  0  0  0  0
   -4.8614   -0.3333    0.4815 H   0  0  0  0  0  0  0  0  0  0  0  0
   -4.1204    1.1157   -0.9999 H   0  0  0  0  0  0  0  0  0  0  0  0
   -3.7481    0.6242    0.8328 H   0  0  0  0  0  0  0  0  0  0  0  0
   -1.4049    0.2442   -0.0535 C   0  0  0  0  0  0  0  0  0  0  0  0
   -2.9116   -1.2998   -0.8706 H   0  0  0  0  0  0  0  0  0  0  0  0
   -2.7394   -1.0437    0.7399 H   0  0  0  0  0  0  0  0  0  0  0  0
   -0.1477   -0.7371    0.0937 C   0  0  0  0  0  0  0  0  0  0  0  0
   -1.4191    1.0401    0.8711 H   0  0  0  0  0  0  0  0  0  0  0  0
   -1.5110    0.7781   -0.8219 H   0  0  0  0  0  0  0  0  0  0  0  0
   -0.0631   -1.4331    1.0402 H   0  0  0  0  0  0  0  0  0  0  0  0
    0.7524   -0.0927    0.2183 H   0  0  0  0  0  0  0  0  0  0  0  0
   -0.0356   -1.3925   -0.7887 H   0  0  0  0  0  0  0  0  0  0  0  0
  1  3  1  0  0  0  0
  1  5  1  0  0  0  0
  2  6  1  0  0  0  0
  2  1  1  0  0  0  0
  2  8  1  0  0  0  0
  4  1  1  0  0  0  0
  6  9  1  0  0  0  0
  6 10  1  0  0  0  0
  7  2  1  0  0  0  0
  9 13  1  0  0  0  0
  9 12  1  0  0  0  0
 11  6  1  0  0  0  0
 14  9  1  0  0  0  0
M  END
$$$$
