butane_opt
 OpenBabel08242015383D

 14 13  0  0  0  0  0  0  0  0999 V2000
   -3.9668    0.2507   -0.1085 C   0  0  0  0  0  0  0  0  0  0  0  0
   -2.7078   -0.5797    0.1271 C   0  0  0  0  0  0  0  0  0  0  0  0
   -5.0184   -0.5120   -0.0045 H   0  0  0  0  0  0  0  0  0  0  0  0
   -3.8618    0.9053   -1.0935 H   0  0  0  0  0  0  0  0  0  0  0  0
   -3.8593    0.8630    0.6627 H   0  0  0  0  0  0  0  0  0  0  0  0
   -1.4080    0.2142    0.1860 C   0  0  0  0  0  0  0  0  0  0  0  0
   -2.6161   -1.2200   -0.6566 H   0  0  0  0  0  0  0  0  0  0  0  0
   -3.0009   -1.2915    1.1604 H   0  0  0  0  0  0  0  0  0  0  0  0
   -0.1340   -0.7341   -0.1060 C   0  0  0  0  0  0  0  0  0  0  0  0
   -1.3329    1.0680    1.2243 H   0  0  0  0  0  0  0  0  0  0  0  0
   -1.4663    0.7259   -0.6775 H   0  0  0  0  0  0  0  0  0  0  0  0
    0.2596   -1.4888    0.8613 H   0  0  0  0  0  0  0  0  0  0  0  0
    0.7630   -0.2266   -0.3617 H   0  0  0  0  0  0  0  0  0  0  0  0
   -0.2897   -1.1065   -0.8312 H   0  0  0  0  0  0  0  0  0  0  0  0
  1  3  1  0  0  0  0
  1  2  1  0  0  0  0
  1  5  1  0  0  0  0
  2  6  1  0  0  0  0
  2  8  1  0  0  0  0
  4  1  1  0  0  0  0
  6 10  1  0  0  0  0
  7  2  1  0  0  0  0
  9  6  1  0  0  0  0
  9 12  1  0  0  0  0
 11  6  1  0  0  0  0
 13  9  1  0  0  0  0
 14  9  1  0  0  0  0
M  END
$$$$
