butane_opt
 OpenBabel08242015383D

 14 13  0  0  0  0  0  0  0  0999 V2000
   -3.9455    0.2504    0.1129 C   0  0  0  0  0  0  0  0  0  0  0  0
   -2.7341   -0.5887   -0.0407 C   0  0  0  0  0  0  0  0  0  0  0  0
   -4.8786   -0.3699    0.0997 H   0  0  0  0  0  0  0  0  0  0  0  0
   -4.0469    0.6473   -0.6572 H   0  0  0  0  0  0  0  0  0  0  0  0
   -3.9166    1.2148    1.1415 H   0  0  0  0  0  0  0  0  0  0  0  0
   -1.3798    0.1991   -0.1237 C   0  0  0  0  0  0  0  0  0  0  0  0
   -2.8489   -1.3741   -1.0069 H   0  0  0  0  0  0  0  0  0  0  0  0
   -2.8253   -1.1967    0.8144 H   0  0  0  0  0  0  0  0  0  0  0  0
   -0.1507   -0.7076    0.1495 C   0  0  0  0  0  0  0  0  0  0  0  0
   -1.4273    0.5982    0.6016 H   0  0  0  0  0  0  0  0  0  0  0  0
   -1.4305    1.0903   -1.2273 H   0  0  0  0  0  0  0  0  0  0  0  0
   -0.1358   -1.2534    1.0026 H   0  0  0  0  0  0  0  0  0  0  0  0
    0.8279   -0.1466    0.3397 H   0  0  0  0  0  0  0  0  0  0  0  0
    0.1599   -1.5108   -0.8040 H   0  0  0  0  0  0  0  0  0  0  0  0
  1  5  1  0  0  0  0
  2  1  1  0  0  0  0
  2  8  1  0  0  0  0
  3  1  1  0  0  0  0
  4  1  1  0  0  0  0
  6  2  1  0  0  0  0
  6  9  1  0  0  0  0
  6 10  1  0  0  0  0
  7  2  1  0  0  0  0
  9 13  1  0  0  0  0
  9 12  1  0  0  0  0
 11  6  1  0  0  0  0
 14  9  1  0  0  0  0
M  END
$$$$
