butane_opt
 OpenBabel08242015383D

 14 13  0  0  0  0  0  0  0  0999 V2000
   -3.9314    0.2788    0.1109 C   0  0  0  0  0  0  0  0  0  0  0  0
   -2.6818   -0.6384   -0.0316 C   0  0  0  0  0  0  0  0  0  0  0  0
   -4.8671   -0.2726    0.0950 H   0  0  0  0  0  0  0  0  0  0  0  0
   -4.0531    0.9496   -0.7872 H   0  0  0  0  0  0  0  0  0  0  0  0
   -4.0277    1.0186    0.9238 H   0  0  0  0  0  0  0  0  0  0  0  0
   -1.3968    0.1483   -0.0991 C   0  0  0  0  0  0  0  0  0  0  0  0
   -2.6522   -1.2571   -0.8265 H   0  0  0  0  0  0  0  0  0  0  0  0
   -2.5364   -1.3469    0.9037 H   0  0  0  0  0  0  0  0  0  0  0  0
   -0.1819   -0.6910    0.0938 C   0  0  0  0  0  0  0  0  0  0  0  0
   -1.5472    0.8359    0.7344 H   0  0  0  0  0  0  0  0  0  0  0  0
   -1.3373    0.7414   -1.0742 H   0  0  0  0  0  0  0  0  0  0  0  0
   -0.4148   -1.0503    0.8128 H   0  0  0  0  0  0  0  0  0  0  0  0
    0.8576    0.0846    0.5013 H   0  0  0  0  0  0  0  0  0  0  0  0
   -0.1318   -1.3404   -0.7337 H   0  0  0  0  0  0  0  0  0  0  0  0
  1  5  1  0  0  0  0
  2  1  1  0  0  0  0
  2  8  1  0  0  0  0
  3  1  1  0  0  0  0
  4  1  1  0  0  0  0
  6  2  1  0  0  0  0
  6  9  1  0  0  0  0
  6 10  1  0  0  0  0
  7  2  1  0  0  0  0
  9 13  1  0  0  0  0
  9 12  1  0  0  0  0
 11  6  1  0  0  0  0
 14  9  1  0  0  0  0
M  END
$$$$
