14
butane_opt
C  -3.961827   0.308169   0.120462
C  -2.676497  -0.686852  -0.000760
H  -4.775831  -0.256723  -0.439625
H  -3.819573   0.545975  -0.570813
H  -4.306625   1.382989   1.202126
C  -1.408756   0.167776  -0.098882
H  -2.832773  -1.577240  -0.985495
H  -2.631780  -1.202003   0.852555
C  -0.148728  -0.647590   0.101661
H  -1.524076   0.676759   0.639538
H  -1.274118   0.951929  -1.188468
H  -0.240659  -1.520947   1.204689
H   0.818786  -0.051902   0.004400
H  -0.114302  -1.099352  -0.689370
