butane_opt
 OpenBabel08242015383D

 14 13  0  0  0  0  0  0  0  0999 V2000
   -3.8991    0.2521    0.1415 C   0  0  0  0  0  0  0  0  0  0  0  0
   -2.7312   -0.5979   -0.0833 C   0  0  0  0  0  0  0  0  0  0  0  0
   -4.9239   -0.4038    0.4134 H   0  0  0  0  0  0  0  0  0  0  0  0
   -4.0872    0.8922   -0.8274 H   0  0  0  0  0  0  0  0  0  0  0  0
   -3.7931    0.7850    0.9116 H   0  0  0  0  0  0  0  0  0  0  0  0
   -1.4490    0.2321   -0.1262 C   0  0  0  0  0  0  0  0  0  0  0  0
   -2.9042   -1.4348   -1.0776 H   0  0  0  0  0  0  0  0  0  0  0  0
   -2.5717   -0.9638    0.6808 H   0  0  0  0  0  0  0  0  0  0  0  0
   -0.1285   -0.7283    0.1561 C   0  0  0  0  0  0  0  0  0  0  0  0
   -1.5632    0.8052    0.6700 H   0  0  0  0  0  0  0  0  0  0  0  0
   -1.2164    0.8035   -0.9990 H   0  0  0  0  0  0  0  0  0  0  0  0
   -0.3244   -1.3789    1.1365 H   0  0  0  0  0  0  0  0  0  0  0  0
    0.7833   -0.0692    0.1617 H   0  0  0  0  0  0  0  0  0  0  0  0
    0.0836   -1.4178   -0.7169 H   0  0  0  0  0  0  0  0  0  0  0  0
  1  3  1  0  0  0  0
  1  5  1  0  0  0  0
  2  1  1  0  0  0  0
  2  8  1  0  0  0  0
  4  1  1  0  0  0  0
  6  2  1  0  0  0  0
  6  9  1  0  0  0  0
  6 10  1  0  0  0  0
  7  2  1  0  0  0  0
  9 13  1  0  0  0  0
  9 12  1  0  0  0  0
 11  6  1  0  0  0  0
 14  9  1  0  0  0  0
M  END
$$$$
