14
butane_opt
C  -3.883818   0.225726   0.101486
C  -2.732139  -0.547517  -0.107598
H  -4.848374  -0.362979   0.510255
H  -4.064792   0.907599  -0.816566
H  -3.678186   0.833513   0.973549
C  -1.442632   0.188522  -0.033995
H  -2.876034  -1.277849  -1.078303
H  -2.633533  -1.040693   0.628171
C  -0.136694  -0.731292   0.120507
H  -1.461537   0.684170   0.746561
H  -1.344536   0.912674  -1.052795
H  -0.281479  -1.417797   1.113043
H   0.709567  -0.177793   0.038396
H  -0.171956  -1.163377  -0.567786
