14
butane_opt
C  -3.944576   0.253219  -0.016117
C  -2.750613  -0.607704   0.138573
H  -4.866814  -0.343325  -0.455248
H  -3.766008   0.600722  -0.814402
H  -4.171584   1.145458   1.032009
C  -1.398734   0.227936   0.012805
H  -2.696134  -1.320619  -0.709655
H  -2.685271  -1.279668   0.976132
C  -0.134321  -0.696367   0.006143
H  -1.403701   0.868350   0.829998
H  -1.200563   0.897807  -0.974228
H   0.061547  -1.427994   0.944698
H   0.632064  -0.241235  -0.069376
H  -0.180884  -1.517641  -1.003940
