butane_opt
 OpenBabel08242015383D

 14 13  0  0  0  0  0  0  0  0999 V2000
   -3.8838    0.2257    0.1015 C   0  0  0  0  0  0  0  0  0  0  0  0
   -2.7321   -0.5475   -0.1076 C   0  0  0  0  0  0  0  0  0  0  0  0
   -4.8484   -0.3630    0.5103 H   0  0  0  0  0  0  0  0  0  0  0  0
   -4.0648    0.9076   -0.8166 H   0  0  0  0  0  0  0  0  0  0  0  0
   -3.6782    0.8335    0.9735 H   0  0  0  0  0  0  0  0  0  0  0  0
   -1.4426    0.1885   -0.0340 C   0  0  0  0  0  0  0  0  0  0  0  0
   -2.8760   -1.2778   -1.0783 H   0  0  0  0  0  0  0  0  0  0  0  0
   -2.6335   -1.0407    0.6282 H   0  0  0  0  0  0  0  0  0  0  0  0
   -0.1367   -0.7313    0.1205 C   0  0  0  0  0  0  0  0  0  0  0  0
   -1.4615    0.6842    0.7466 H   0  0  0  0  0  0  0  0  0  0  0  0
   -1.3445    0.9127   -1.0528 H   0  0  0  0  0  0  0  0  0  0  0  0
   -0.2815   -1.4178    1.1130 H   0  0  0  0  0  0  0  0  0  0  0  0
    0.7096   -0.1778    0.0384 H   0  0  0  0  0  0  0  0  0  0  0  0
   -0.1720   -1.1634   -0.5678 H   0  0  0  0  0  0  0  0  0  0  0  0
  1  3  1  0  0  0  0
  1  5  1  0  0  0  0
  2  6  1  0  0  0  0
  2  1  1  0  0  0  0
  2  8  1  0  0  0  0
  4  1  1  0  0  0  0
  6  9  1  0  0  0  0
  6 10  1  0  0  0  0
  7  2  1  0  0  0  0
  9 12  1  0  0  0  0
 11  6  1  0  0  0  0
 13  9  1  0  0  0  0
 14  9  1  0  0  0  0
M  END
$$$$
