14
butane_opt
C  -3.987556   0.315372   0.091948
C  -2.698574  -0.676219  -0.005371
H  -4.770535  -0.237729  -0.113505
H  -3.957256   0.604121  -0.557995
H  -4.209769   1.249714   1.183186
C  -1.338449   0.166482  -0.102620
H  -2.815390  -1.520310  -0.960612
H  -2.664172  -1.212003   0.769961
C  -0.166092  -0.677660   0.115253
H  -1.362667   0.677101   0.544651
H  -1.481218   0.980222  -1.125984
H  -0.285682  -1.308935   1.011895
H   0.815164   0.024908   0.171959
H  -0.025176  -1.237731  -0.610594
