14
butane_opt
C  -3.938136   0.252652   0.111878
C  -2.731102  -0.608426  -0.053055
H  -4.864427  -0.366374   0.298374
H  -4.058791   0.843079  -0.808777
H  -3.879585   0.874209   0.948216
C  -1.403940   0.233920  -0.098377
H  -2.822184  -1.227886  -0.932630
H  -2.817615  -1.273211   0.816741
C  -0.118693  -0.699276   0.111536
H  -1.406314   0.807283   0.635813
H  -1.361379   0.828819  -0.952406
H  -0.291803  -1.251444   0.944940
H   0.600583  -0.324607   0.393051
H   0.199406  -1.543726  -0.762983
