butane_opt
 OpenBabel08242015383D

 14 13  0  0  0  0  0  0  0  0999 V2000
   -3.9362    0.2476   -0.0116 C   0  0  0  0  0  0  0  0  0  0  0  0
   -2.7129   -0.6062    0.0918 C   0  0  0  0  0  0  0  0  0  0  0  0
   -4.9289   -0.4377    0.2433 H   0  0  0  0  0  0  0  0  0  0  0  0
   -3.8230    1.0376   -1.0795 H   0  0  0  0  0  0  0  0  0  0  0  0
   -3.9640    0.6981    0.6839 H   0  0  0  0  0  0  0  0  0  0  0  0
   -1.3999    0.2428   -0.0071 C   0  0  0  0  0  0  0  0  0  0  0  0
   -2.8419   -1.1340   -0.6411 H   0  0  0  0  0  0  0  0  0  0  0  0
   -2.8258   -1.2479    1.1175 H   0  0  0  0  0  0  0  0  0  0  0  0
   -0.1545   -0.7403   -0.0082 C   0  0  0  0  0  0  0  0  0  0  0  0
   -1.4059    1.0500    0.9639 H   0  0  0  0  0  0  0  0  0  0  0  0
   -1.3625    0.6730   -0.7538 H   0  0  0  0  0  0  0  0  0  0  0  0
   -0.1253   -0.9528    0.6080 H   0  0  0  0  0  0  0  0  0  0  0  0
    0.5762   -0.2132    0.4186 H   0  0  0  0  0  0  0  0  0  0  0  0
    0.1374   -1.7013   -0.9570 H   0  0  0  0  0  0  0  0  0  0  0  0
  1  2  1  0  0  0  0
  1  3  1  0  0  0  0
  1  5  1  0  0  0  0
  2  8  1  0  0  0  0
  4  1  1  0  0  0  0
  6  2  1  0  0  0  0
  6 10  1  0  0  0  0
  7  2  1  0  0  0  0
  9  6  1  0  0  0  0
  9 13  1  0  0  0  0
  9 12  1  0  0  0  0
 11  6  1  0  0  0  0
 14  9  1  0  0  0  0
M  END
$$$$
