14
butane_opt
C  -3.966764   0.250676  -0.108466
C  -2.707809  -0.579732   0.127126
H  -5.018438  -0.512007  -0.004516
H  -3.861761   0.905286  -1.093510
H  -3.859254   0.862990   0.662716
C  -1.407998   0.214164   0.185976
H  -2.616105  -1.219957  -0.656628
H  -3.000894  -1.291480   1.160395
C  -0.134001  -0.734118  -0.105991
H  -1.332906   1.068018   1.224309
H  -1.466251   0.725936  -0.677536
H   0.259555  -1.488753   0.861319
H   0.762968  -0.226605  -0.361733
H  -0.289675  -1.106486  -0.831237
