butane_opt
 OpenBabel08242015383D

 14 13  0  0  0  0  0  0  0  0999 V2000
   -3.9534    0.2503   -0.0889 C   0  0  0  0  0  0  0  0  0  0  0  0
   -2.7061   -0.6089    0.1511 C   0  0  0  0  0  0  0  0  0  0  0  0
   -4.9377   -0.3003   -0.3283 H   0  0  0  0  0  0  0  0  0  0  0  0
   -3.7578    0.6645   -0.9740 H   0  0  0  0  0  0  0  0  0  0  0  0
   -4.0518    1.0919    0.8625 H   0  0  0  0  0  0  0  0  0  0  0  0
   -1.3748    0.2170    0.1294 C   0  0  0  0  0  0  0  0  0  0  0  0
   -2.6226   -1.0956   -0.5424 H   0  0  0  0  0  0  0  0  0  0  0  0
   -2.9273   -1.4280    1.2271 H   0  0  0  0  0  0  0  0  0  0  0  0
   -0.1733   -0.7163   -0.0812 C   0  0  0  0  0  0  0  0  0  0  0  0
   -1.4039    1.0605    1.0321 H   0  0  0  0  0  0  0  0  0  0  0  0
   -1.3826    0.8324   -0.7336 H   0  0  0  0  0  0  0  0  0  0  0  0
    0.0114   -1.4645    0.8733 H   0  0  0  0  0  0  0  0  0  0  0  0
    0.7313   -0.1031   -0.2810 H   0  0  0  0  0  0  0  0  0  0  0  0
   -0.1936   -1.4555   -1.0107 H   0  0  0  0  0  0  0  0  0  0  0  0
  1  2  1  0  0  0  0
  1  5  1  0  0  0  0
  2  8  1  0  0  0  0
  3  1  1  0  0  0  0
  4  1  1  0  0  0  0
  6  2  1  0  0  0  0
  6 10  1  0  0  0  0
  7  2  1  0  0  0  0
  9  6  1  0  0  0  0
  9 12  1  0  0  0  0
 11  6  1  0  0  0  0
 13  9  1  0  0  0  0
 14  9  1  0  0  0  0
M  END
$$$$
