14
butane_opt
C  -3.953760   0.222924   0.053276
C  -2.704584  -0.579541   0.021934
H  -4.911473  -0.410319   0.185594
H  -4.041303   0.973851  -0.824611
H  -3.913719   0.942444   0.893982
C  -1.393485   0.222396  -0.062734
H  -2.947173  -1.157335  -0.838958
H  -2.794358  -1.181937   0.887123
C  -0.133585  -0.739238   0.063243
H  -1.413208   0.828753   0.772511
H  -1.501530   0.780938  -0.945215
H  -0.367990  -1.149011   0.814739
H   0.827217  -0.106806   0.414970
H   0.275595  -1.519466  -0.852301
