butane_opt
 OpenBabel08242015383D

 14 13  0  0  0  0  0  0  0  0999 V2000
   -3.9434    0.2695    0.0287 C   0  0  0  0  0  0  0  0  0  0  0  0
   -2.6977   -0.6082    0.0131 C   0  0  0  0  0  0  0  0  0  0  0  0
   -4.8671   -0.3218    0.0087 H   0  0  0  0  0  0  0  0  0  0  0  0
   -3.9651    0.8374   -0.8204 H   0  0  0  0  0  0  0  0  0  0  0  0
   -3.9623    0.9838    0.9170 H   0  0  0  0  0  0  0  0  0  0  0  0
   -1.3961    0.1709    0.0073 C   0  0  0  0  0  0  0  0  0  0  0  0
   -2.6993   -1.3092   -0.8471 H   0  0  0  0  0  0  0  0  0  0  0  0
   -2.6648   -1.2813    0.9355 H   0  0  0  0  0  0  0  0  0  0  0  0
   -0.1697   -0.6869    0.0405 C   0  0  0  0  0  0  0  0  0  0  0  0
   -1.4103    0.8508    0.8926 H   0  0  0  0  0  0  0  0  0  0  0  0
   -1.3329    0.7823   -0.8821 H   0  0  0  0  0  0  0  0  0  0  0  0
   -0.1244   -1.4200    0.9978 H   0  0  0  0  0  0  0  0  0  0  0  0
    0.7353   -0.0924   -0.0829 H   0  0  0  0  0  0  0  0  0  0  0  0
   -0.2459   -1.2389   -0.7421 H   0  0  0  0  0  0  0  0  0  0  0  0
  1  5  1  0  0  0  0
  2  1  1  0  0  0  0
  2  8  1  0  0  0  0
  3  1  1  0  0  0  0
  4  1  1  0  0  0  0
  6  2  1  0  0  0  0
  6  9  1  0  0  0  0
  6 10  1  0  0  0  0
  7  2  1  0  0  0  0
  9 12  1  0  0  0  0
 11  6  1  0  0  0  0
 13  9  1  0  0  0  0
 14  9  1  0  0  0  0
M  END
$$$$
