butane_opt
 OpenBabel08242015383D

 14 13  0  0  0  0  0  0  0  0999 V2000
   -3.9790    0.2273   -0.0460 C   0  0  0  0  0  0  0  0  0  0  0  0
   -2.7325   -0.5902    0.1496 C   0  0  0  0  0  0  0  0  0  0  0  0
   -4.8012   -0.3118   -0.2305 H   0  0  0  0  0  0  0  0  0  0  0  0
   -3.6652    0.5883   -0.9209 H   0  0  0  0  0  0  0  0  0  0  0  0
   -4.1610    0.9554    0.8944 H   0  0  0  0  0  0  0  0  0  0  0  0
   -1.3963    0.2681    0.0590 C   0  0  0  0  0  0  0  0  0  0  0  0
   -2.5805   -1.1966   -0.7548 H   0  0  0  0  0  0  0  0  0  0  0  0
   -2.8247   -1.3530    1.1202 H   0  0  0  0  0  0  0  0  0  0  0  0
   -0.1284   -0.7367   -0.0160 C   0  0  0  0  0  0  0  0  0  0  0  0
   -1.3852    0.8881    0.8648 H   0  0  0  0  0  0  0  0  0  0  0  0
   -1.3828    1.0225   -0.9374 H   0  0  0  0  0  0  0  0  0  0  0  0
    0.1027   -1.2030    0.7175 H   0  0  0  0  0  0  0  0  0  0  0  0
    0.6618   -0.2447    0.0035 H   0  0  0  0  0  0  0  0  0  0  0  0
   -0.1399   -1.6573   -1.0567 H   0  0  0  0  0  0  0  0  0  0  0  0
  1  2  1  0  0  0  0
  1  5  1  0  0  0  0
  2  8  1  0  0  0  0
  3  1  1  0  0  0  0
  4  1  1  0  0  0  0
  6  2  1  0  0  0  0
  6 10  1  0  0  0  0
  7  2  1  0  0  0  0
  9 13  1  0  0  0  0
  9  6  1  0  0  0  0
  9 12  1  0  0  0  0
 11  6  1  0  0  0  0
 14  9  1  0  0  0  0
M  END
$$$$
