butane_opt
 OpenBabel08242015383D

 14 12  0  0  0  0  0  0  0  0999 V2000
   -3.9799    0.2837    0.0998 C   0  0  0  0  0  0  0  0  0  0  0  0
   -2.7004   -0.6436   -0.0199 C   0  0  0  0  0  0  0  0  0  0  0  0
   -4.7706   -0.2442   -0.3754 H   0  0  0  0  0  0  0  0  0  0  0  0
   -4.0377    0.5364   -0.5601 H   0  0  0  0  0  0  0  0  0  0  0  0
   -4.0634    1.3668    1.2653 H   0  0  0  0  0  0  0  0  0  0  0  0
   -1.3821    0.1392   -0.1188 C   0  0  0  0  0  0  0  0  0  0  0  0
   -2.6641   -1.2735   -0.8430 H   0  0  0  0  0  0  0  0  0  0  0  0
   -2.6488   -1.3756    0.8998 H   0  0  0  0  0  0  0  0  0  0  0  0
   -0.1296   -0.6705    0.1188 C   0  0  0  0  0  0  0  0  0  0  0  0
   -1.5189    0.8914    0.7331 H   0  0  0  0  0  0  0  0  0  0  0  0
   -1.2944    0.9313   -1.0732 H   0  0  0  0  0  0  0  0  0  0  0  0
   -0.2530   -1.3796    1.0903 H   0  0  0  0  0  0  0  0  0  0  0  0
    0.8377   -0.0108   -0.0212 H   0  0  0  0  0  0  0  0  0  0  0  0
   -0.2986   -1.2165   -0.5965 H   0  0  0  0  0  0  0  0  0  0  0  0
  2  1  1  0  0  0  0
  2  8  1  0  0  0  0
  3  1  1  0  0  0  0
  4  1  1  0  0  0  0
  6  2  1  0  0  0  0
  6  9  1  0  0  0  0
  6 10  1  0  0  0  0
  7  2  1  0  0  0  0
  9 12  1  0  0  0  0
 11  6  1  0  0  0  0
 13  9  1  0  0  0  0
 14  9  1  0  0  0  0
M  RAD  2   1   2   5   2
M  END
$$$$
