butane_opt
 OpenBabel08242015383D

 14 13  0  0  0  0  0  0  0  0999 V2000
   -3.9279    0.2445    0.0733 C   0  0  0  0  0  0  0  0  0  0  0  0
   -2.7395   -0.6084   -0.0328 C   0  0  0  0  0  0  0  0  0  0  0  0
   -4.9815   -0.4291   -0.0463 H   0  0  0  0  0  0  0  0  0  0  0  0
   -3.9280    0.8602   -0.8018 H   0  0  0  0  0  0  0  0  0  0  0  0
   -3.9321    1.0056    0.9381 H   0  0  0  0  0  0  0  0  0  0  0  0
   -1.4061    0.2582   -0.0008 C   0  0  0  0  0  0  0  0  0  0  0  0
   -2.6923   -1.3777   -0.9048 H   0  0  0  0  0  0  0  0  0  0  0  0
   -2.7613   -1.2115    0.7928 H   0  0  0  0  0  0  0  0  0  0  0  0
   -0.1469   -0.7236    0.0756 C   0  0  0  0  0  0  0  0  0  0  0  0
   -1.4828    0.8111    0.7860 H   0  0  0  0  0  0  0  0  0  0  0  0
   -1.2915    0.8345   -0.8296 H   0  0  0  0  0  0  0  0  0  0  0  0
    0.1819   -1.6430    1.1375 H   0  0  0  0  0  0  0  0  0  0  0  0
    0.7118   -0.2511   -0.2715 H   0  0  0  0  0  0  0  0  0  0  0  0
   -0.1928   -1.1239   -0.7087 H   0  0  0  0  0  0  0  0  0  0  0  0
  1  5  1  0  0  0  0
  2  6  1  0  0  0  0
  2  1  1  0  0  0  0
  2  8  1  0  0  0  0
  3  1  1  0  0  0  0
  4  1  1  0  0  0  0
  6  9  1  0  0  0  0
  6 10  1  0  0  0  0
  7  2  1  0  0  0  0
  9 12  1  0  0  0  0
 11  6  1  0  0  0  0
 13  9  1  0  0  0  0
 14  9  1  0  0  0  0
M  END
$$$$
