14
butane_opt
C  -3.893555   0.281478   0.085057
C  -2.661536  -0.654851  -0.028350
H  -4.842090  -0.303112  -0.254615
H  -4.034966   0.486620  -0.541885
H  -4.089318   1.341257   1.247112
C  -1.407312   0.166749  -0.086919
H  -2.840166  -1.354471  -0.872018
H  -2.538837  -1.219641   0.827678
C  -0.201871  -0.686596   0.139588
H  -1.585730   0.812042   0.638440
H  -1.389187   1.071859  -1.146589
H  -0.249117  -1.408936   1.128677
H   0.778116   0.032543  -0.183520
H  -0.249988  -1.234842  -0.689094
