14
butane_opt
C  -3.945460   0.250368   0.112926
C  -2.734099  -0.588694  -0.040694
H  -4.878584  -0.369933   0.099741
H  -4.046860   0.647342  -0.657188
H  -3.916609   1.214811   1.141499
C  -1.379774   0.199128  -0.123674
H  -2.848885  -1.374132  -1.006944
H  -2.825295  -1.196691   0.814403
C  -0.150677  -0.707622   0.149545
H  -1.427349   0.598243   0.601613
H  -1.430510   1.090287  -1.227269
H  -0.135788  -1.253393   1.002645
H   0.827884  -0.146628   0.339730
H   0.159874  -1.510824  -0.804008
