14
butane_opt
C  -3.960794   0.290645  -0.105068
C  -2.670175  -0.623267   0.142351
H  -4.949574  -0.362068   0.009355
H  -3.924371   0.940910  -1.043164
H  -4.102390   0.910216   0.714212
C  -1.397167   0.158179   0.132583
H  -2.569108  -1.355096  -0.705963
H  -2.592940  -1.355013   1.187088
C  -0.186862  -0.670874  -0.078072
H  -1.151072   0.979170   1.105247
H  -1.513120   0.603299  -0.621233
H  -0.144095  -1.398024   0.840829
H   0.856119  -0.030826  -0.215683
H  -0.338147  -1.246958  -0.922745
