butane_opt
 OpenBabel08242015383D

 14 13  0  0  0  0  0  0  0  0999 V2000
   -3.9583    0.3087    0.1128 C   0  0  0  0  0  0  0  0  0  0  0  0
   -2.6948   -0.6680   -0.1394 C   0  0  0  0  0  0  0  0  0  0  0  0
   -4.8113   -0.3155    0.5468 H   0  0  0  0  0  0  0  0  0  0  0  0
   -4.2251    0.9741   -0.7916 H   0  0  0  0  0  0  0  0  0  0  0  0
   -3.6965    0.9222    0.9890 H   0  0  0  0  0  0  0  0  0  0  0  0
   -1.3769    0.1673   -0.0610 C   0  0  0  0  0  0  0  0  0  0  0  0
   -2.8432   -1.4224   -0.9648 H   0  0  0  0  0  0  0  0  0  0  0  0
   -2.6513   -1.2322    0.7052 H   0  0  0  0  0  0  0  0  0  0  0  0
   -0.1711   -0.6657    0.1232 C   0  0  0  0  0  0  0  0  0  0  0  0
   -1.4354    0.7958    0.7704 H   0  0  0  0  0  0  0  0  0  0  0  0
   -1.2159    0.8295   -0.9643 H   0  0  0  0  0  0  0  0  0  0  0  0
   -0.2652   -1.4098    1.1670 H   0  0  0  0  0  0  0  0  0  0  0  0
    0.5975   -0.2050    0.0823 H   0  0  0  0  0  0  0  0  0  0  0  0
   -0.0716   -1.0992   -0.5205 H   0  0  0  0  0  0  0  0  0  0  0  0
  1  3  1  0  0  0  0
  1  5  1  0  0  0  0
  2  6  1  0  0  0  0
  2  1  1  0  0  0  0
  2  8  1  0  0  0  0
  4  1  1  0  0  0  0
  6  9  1  0  0  0  0
  6 10  1  0  0  0  0
  7  2  1  0  0  0  0
  9 12  1  0  0  0  0
 11  6  1  0  0  0  0
 13  9  1  0  0  0  0
 14  9  1  0  0  0  0
M  END
$$$$
