14
butane_opt
C  -3.968696   0.225824   0.046736
C  -2.720890  -0.574579   0.033936
H  -4.858725  -0.360765   0.224792
H  -3.981224   0.802765  -0.825775
H  -3.793598   0.814550   0.873732
C  -1.391398   0.240297  -0.056792
H  -2.847709  -1.311422  -0.897437
H  -2.684877  -1.097685   0.803043
C  -0.105258  -0.744662   0.061956
H  -1.513613   0.785548   0.734945
H  -1.603044   0.979908  -1.019513
H  -0.265847  -1.179460   0.877836
H   0.731837  -0.102601   0.473153
H   0.031746  -1.576911  -0.837833
