14
butane_opt
C  -3.966329   0.285523   0.078000
C  -2.694014  -0.650981  -0.036794
H  -4.865451  -0.256038   0.497237
H  -4.231498   1.104315  -0.989608
H  -4.027090   0.656206   0.754024
C  -1.417414   0.197288  -0.026291
H  -2.704897  -1.549843  -0.966827
H  -2.728807  -1.018172   0.699755
C  -0.124650  -0.683480   0.078762
H  -1.341160   0.810564   0.800162
H  -1.333721   0.764178  -0.890821
H  -0.254025  -1.342355   1.060279
H   0.958982   0.004239   0.077338
H  -0.072767  -1.392126  -0.736785
