butane_opt
 OpenBabel08242015383D

 14 13  0  0  0  0  0  0  0  0999 V2000
   -3.9837    0.2593   -0.0255 C   0  0  0  0  0  0  0  0  0  0  0  0
   -2.7300   -0.6119    0.1005 C   0  0  0  0  0  0  0  0  0  0  0  0
   -4.8684   -0.3389    0.0717 H   0  0  0  0  0  0  0  0  0  0  0  0
   -4.0917    1.0596   -1.0496 H   0  0  0  0  0  0  0  0  0  0  0  0
   -3.8814    0.8411    0.7331 H   0  0  0  0  0  0  0  0  0  0  0  0
   -1.4011    0.2044    0.0506 C   0  0  0  0  0  0  0  0  0  0  0  0
   -2.6511   -1.2599   -0.7359 H   0  0  0  0  0  0  0  0  0  0  0  0
   -2.7716   -1.4343    1.1295 H   0  0  0  0  0  0  0  0  0  0  0  0
   -0.1136   -0.7137   -0.0385 C   0  0  0  0  0  0  0  0  0  0  0  0
   -1.4299    0.9903    0.9513 H   0  0  0  0  0  0  0  0  0  0  0  0
   -1.3936    0.6912   -0.8096 H   0  0  0  0  0  0  0  0  0  0  0  0
   -0.2196   -1.1583    0.8084 H   0  0  0  0  0  0  0  0  0  0  0  0
    0.9075    0.0458    0.2755 H   0  0  0  0  0  0  0  0  0  0  0  0
    0.0991   -1.5453   -1.0257 H   0  0  0  0  0  0  0  0  0  0  0  0
  1  3  1  0  0  0  0
  1  2  1  0  0  0  0
  1  5  1  0  0  0  0
  2  8  1  0  0  0  0
  4  1  1  0  0  0  0
  6  2  1  0  0  0  0
  6 10  1  0  0  0  0
  7  2  1  0  0  0  0
  9  6  1  0  0  0  0
  9 13  1  0  0  0  0
  9 12  1  0  0  0  0
 11  6  1  0  0  0  0
 14  9  1  0  0  0  0
M  END
$$$$
