14
butane_opt
C  -3.976540   0.299191  -0.047021
C  -2.703878  -0.637415   0.124521
H  -4.852783  -0.299546  -0.093175
H  -4.019987   0.921255  -1.059511
H  -4.237644   0.947027   0.779155
C  -1.363234   0.152806   0.090067
H  -2.733611  -1.421908  -0.813191
H  -2.896691  -1.173586   0.953537
C  -0.131827  -0.686893  -0.032545
H  -1.159054   0.808219   1.041411
H  -1.552026   0.756936  -0.789474
H   0.060937  -1.329514   0.858036
H   0.840744  -0.023912  -0.184934
H  -0.368889  -1.160007  -0.830709
