14
butane_opt
C  -3.951354   0.228562   0.122853
C  -2.714580  -0.592500  -0.109809
H  -4.855145  -0.299552   0.519957
H  -4.146182   0.863394  -0.789497
H  -3.804534   0.703281   0.939949
C  -1.408302   0.265890  -0.113465
H  -3.014187  -1.473980  -1.008987
H  -2.530641  -1.141149   0.714007
C  -0.140359  -0.739390   0.152377
H  -1.577833   1.036439   0.794766
H  -1.360468   0.895008  -1.016741
H  -0.138155  -1.447035   1.100649
H   0.795782  -0.195968   0.160392
H   0.174809  -1.345538  -0.618244
