butane_opt
 OpenBabel08242015383D

 14 13  0  0  0  0  0  0  0  0999 V2000
   -3.9396    0.2707    0.0509 C   0  0  0  0  0  0  0  0  0  0  0  0
   -2.6926   -0.6154    0.0071 C   0  0  0  0  0  0  0  0  0  0  0  0
   -4.8340   -0.3078    0.0601 H   0  0  0  0  0  0  0  0  0  0  0  0
   -4.0526    0.8555   -0.8080 H   0  0  0  0  0  0  0  0  0  0  0  0
   -3.9062    0.9834    0.9471 H   0  0  0  0  0  0  0  0  0  0  0  0
   -1.4078    0.1688   -0.0362 C   0  0  0  0  0  0  0  0  0  0  0  0
   -2.7386   -1.3214   -0.8698 H   0  0  0  0  0  0  0  0  0  0  0  0
   -2.6809   -1.2543    0.8924 H   0  0  0  0  0  0  0  0  0  0  0  0
   -0.1658   -0.6867    0.0730 C   0  0  0  0  0  0  0  0  0  0  0  0
   -1.3706    0.8159    0.7937 H   0  0  0  0  0  0  0  0  0  0  0  0
   -1.3621    0.8205   -0.9707 H   0  0  0  0  0  0  0  0  0  0  0  0
   -0.2448   -1.2859    0.9782 H   0  0  0  0  0  0  0  0  0  0  0  0
    0.7682   -0.0536    0.1127 H   0  0  0  0  0  0  0  0  0  0  0  0
   -0.1332   -1.3721   -0.8316 H   0  0  0  0  0  0  0  0  0  0  0  0
  1  3  1  0  0  0  0
  1  5  1  0  0  0  0
  2  1  1  0  0  0  0
  2  8  1  0  0  0  0
  4  1  1  0  0  0  0
  6  2  1  0  0  0  0
  6  9  1  0  0  0  0
  6 10  1  0  0  0  0
  7  2  1  0  0  0  0
  9 13  1  0  0  0  0
  9 12  1  0  0  0  0
 11  6  1  0  0  0  0
 14  9  1  0  0  0  0
M  END
$$$$
