14
butane_opt
C  -3.946125   0.289335   0.076791
C  -2.663895  -0.637380   0.038136
H  -4.781241  -0.202422   0.114911
H  -4.081727   0.793268  -0.806333
H  -3.995714   0.939638   0.920748
C  -1.388619   0.137628  -0.093199
H  -2.626078  -1.427845  -0.962400
H  -2.502530  -1.134188   0.841691
C  -0.205584  -0.652926   0.089464
H  -1.426976   0.704481   0.614930
H  -1.323559   0.800513  -1.058847
H  -0.551835  -1.050501   0.908033
H   0.673154  -0.004547   0.393697
H   0.048189  -1.538614  -0.882207
