butane_opt
 OpenBabel08242015383D

 14 13  0  0  0  0  0  0  0  0999 V2000
   -3.9214    0.2564   -0.0578 C   0  0  0  0  0  0  0  0  0  0  0  0
   -2.7314   -0.6204    0.1686 C   0  0  0  0  0  0  0  0  0  0  0  0
   -4.7835   -0.3329   -0.4800 H   0  0  0  0  0  0  0  0  0  0  0  0
   -3.8862    0.6439   -0.7989 H   0  0  0  0  0  0  0  0  0  0  0  0
   -4.1983    1.0837    0.8223 H   0  0  0  0  0  0  0  0  0  0  0  0
   -1.4257    0.2147    0.0531 C   0  0  0  0  0  0  0  0  0  0  0  0
   -2.6532   -1.1016   -0.5913 H   0  0  0  0  0  0  0  0  0  0  0  0
   -2.9062   -1.3308    1.0989 H   0  0  0  0  0  0  0  0  0  0  0  0
   -0.1314   -0.7110   -0.0525 C   0  0  0  0  0  0  0  0  0  0  0  0
   -1.1570    1.0369    0.9597 H   0  0  0  0  0  0  0  0  0  0  0  0
   -1.4835    0.7358   -0.7252 H   0  0  0  0  0  0  0  0  0  0  0  0
   -0.0339   -1.3497    0.8168 H   0  0  0  0  0  0  0  0  0  0  0  0
    0.7552   -0.1959   -0.0876 H   0  0  0  0  0  0  0  0  0  0  0  0
   -0.1416   -1.3631   -0.8813 H   0  0  0  0  0  0  0  0  0  0  0  0
  1  2  1  0  0  0  0
  1  5  1  0  0  0  0
  2  8  1  0  0  0  0
  3  1  1  0  0  0  0
  4  1  1  0  0  0  0
  6  2  1  0  0  0  0
  6 10  1  0  0  0  0
  7  2  1  0  0  0  0
  9  6  1  0  0  0  0
  9 12  1  0  0  0  0
 11  6  1  0  0  0  0
 13  9  1  0  0  0  0
 14  9  1  0  0  0  0
M  END
$$$$
