14
butane_opt
C  -3.932610   0.257082   0.039923
C  -2.705371  -0.598000   0.017820
H  -4.846211  -0.315917   0.076780
H  -3.941220   0.811216  -0.831690
H  -3.911613   0.979570   0.935104
C  -1.405282   0.182626  -0.025004
H  -2.759173  -1.323534  -0.841047
H  -2.714159  -1.226671   0.909450
C  -0.163097  -0.697377   0.064549
H  -1.416744   0.802342   0.777320
H  -1.419183   0.867429  -0.954185
H  -0.173895  -1.262738   0.931080
H   0.741530  -0.117050   0.100676
H  -0.110307  -1.416354  -0.825624
