butane_opt
 OpenBabel08242015383D

 14 13  0  0  0  0  0  0  0  0999 V2000
   -3.9687    0.2258    0.0467 C   0  0  0  0  0  0  0  0  0  0  0  0
   -2.7209   -0.5746    0.0339 C   0  0  0  0  0  0  0  0  0  0  0  0
   -4.8587   -0.3608    0.2248 H   0  0  0  0  0  0  0  0  0  0  0  0
   -3.9812    0.8028   -0.8258 H   0  0  0  0  0  0  0  0  0  0  0  0
   -3.7936    0.8145    0.8737 H   0  0  0  0  0  0  0  0  0  0  0  0
   -1.3914    0.2403   -0.0568 C   0  0  0  0  0  0  0  0  0  0  0  0
   -2.8477   -1.3114   -0.8974 H   0  0  0  0  0  0  0  0  0  0  0  0
   -2.6849   -1.0977    0.8030 H   0  0  0  0  0  0  0  0  0  0  0  0
   -0.1053   -0.7447    0.0620 C   0  0  0  0  0  0  0  0  0  0  0  0
   -1.5136    0.7855    0.7349 H   0  0  0  0  0  0  0  0  0  0  0  0
   -1.6030    0.9799   -1.0195 H   0  0  0  0  0  0  0  0  0  0  0  0
   -0.2658   -1.1795    0.8778 H   0  0  0  0  0  0  0  0  0  0  0  0
    0.7318   -0.1026    0.4732 H   0  0  0  0  0  0  0  0  0  0  0  0
    0.0317   -1.5769   -0.8378 H   0  0  0  0  0  0  0  0  0  0  0  0
  1  3  1  0  0  0  0
  1  5  1  0  0  0  0
  2  1  1  0  0  0  0
  2  8  1  0  0  0  0
  4  1  1  0  0  0  0
  6  2  1  0  0  0  0
  6  9  1  0  0  0  0
  6 10  1  0  0  0  0
  7  2  1  0  0  0  0
  9 13  1  0  0  0  0
  9 12  1  0  0  0  0
 11  6  1  0  0  0  0
 14  9  1  0  0  0  0
M  END
$$$$
