butane_opt
 OpenBabel08242015383D

 14 13  0  0  0  0  0  0  0  0999 V2000
   -3.9548    0.2025   -0.0758 C   0  0  0  0  0  0  0  0  0  0  0  0
   -2.7352   -0.5738    0.0796 C   0  0  0  0  0  0  0  0  0  0  0  0
   -4.7756   -0.2808    0.0319 H   0  0  0  0  0  0  0  0  0  0  0  0
   -3.9531    0.7879   -0.9955 H   0  0  0  0  0  0  0  0  0  0  0  0
   -4.0294    0.9065    0.8489 H   0  0  0  0  0  0  0  0  0  0  0  0
   -1.4169    0.2435    0.1448 C   0  0  0  0  0  0  0  0  0  0  0  0
   -2.5974   -1.1754   -0.6524 H   0  0  0  0  0  0  0  0  0  0  0  0
   -2.8278   -1.2246    0.9582 H   0  0  0  0  0  0  0  0  0  0  0  0
   -0.1057   -0.7267   -0.0628 C   0  0  0  0  0  0  0  0  0  0  0  0
   -1.4227    0.9721    1.0986 H   0  0  0  0  0  0  0  0  0  0  0  0
   -1.4879    0.8209   -0.6589 H   0  0  0  0  0  0  0  0  0  0  0  0
    0.1130   -1.5912    1.0111 H   0  0  0  0  0  0  0  0  0  0  0  0
    0.7574   -0.2588   -0.4747 H   0  0  0  0  0  0  0  0  0  0  0  0
   -0.2324   -1.1640   -0.7329 H   0  0  0  0  0  0  0  0  0  0  0  0
  1  3  1  0  0  0  0
  1  2  1  0  0  0  0
  1  5  1  0  0  0  0
  2  6  1  0  0  0  0
  2  8  1  0  0  0  0
  4  1  1  0  0  0  0
  6 10  1  0  0  0  0
  7  2  1  0  0  0  0
  9  6  1  0  0  0  0
  9 12  1  0  0  0  0
 11  6  1  0  0  0  0
 13  9  1  0  0  0  0
 14  9  1  0  0  0  0
M  END
$$$$
