14
butane_opt
C  -3.930725   0.220421  -0.006845
C  -2.711782  -0.591380   0.074763
H  -4.956436  -0.422049   0.094848
H  -3.929819   0.860568  -0.906045
H  -4.038037   0.913550   0.818454
C  -1.417720   0.257979  -0.001999
H  -2.754108  -1.044380  -0.573668
H  -2.826296  -1.322823   1.016842
C  -0.137080  -0.743060  -0.000830
H  -1.211432   0.931072   0.888431
H  -1.503969   0.877947  -0.827170
H  -0.285419  -1.123775   0.803298
H   0.706471  -0.256594   0.417236
H   0.178366  -1.664827  -1.083611
