butane_opt
 OpenBabel08242015383D

 14 13  0  0  0  0  0  0  0  0999 V2000
   -3.9046    0.2279    0.1377 C   0  0  0  0  0  0  0  0  0  0  0  0
   -2.7406   -0.5808   -0.1354 C   0  0  0  0  0  0  0  0  0  0  0  0
   -4.7956   -0.3298    0.4822 H   0  0  0  0  0  0  0  0  0  0  0  0
   -4.1525    1.0425   -0.7947 H   0  0  0  0  0  0  0  0  0  0  0  0
   -3.6005    0.7680    0.9140 H   0  0  0  0  0  0  0  0  0  0  0  0
   -1.4071    0.2299   -0.0786 C   0  0  0  0  0  0  0  0  0  0  0  0
   -2.8025   -1.2817   -1.0836 H   0  0  0  0  0  0  0  0  0  0  0  0
   -2.7801   -1.2216    0.7268 H   0  0  0  0  0  0  0  0  0  0  0  0
   -0.1506   -0.7239    0.1568 C   0  0  0  0  0  0  0  0  0  0  0  0
   -1.6252    0.8588    0.7436 H   0  0  0  0  0  0  0  0  0  0  0  0
   -1.3755    0.7979   -0.9808 H   0  0  0  0  0  0  0  0  0  0  0  0
   -0.1932   -1.4351    1.0698 H   0  0  0  0  0  0  0  0  0  0  0  0
    0.7132   -0.1977    0.0498 H   0  0  0  0  0  0  0  0  0  0  0  0
    0.0187   -1.2953   -0.6629 H   0  0  0  0  0  0  0  0  0  0  0  0
  1  3  1  0  0  0  0
  1  5  1  0  0  0  0
  2  6  1  0  0  0  0
  2  1  1  0  0  0  0
  2  8  1  0  0  0  0
  4  1  1  0  0  0  0
  6  9  1  0  0  0  0
  6 10  1  0  0  0  0
  7  2  1  0  0  0  0
  9 12  1  0  0  0  0
 11  6  1  0  0  0  0
 13  9  1  0  0  0  0
 14  9  1  0  0  0  0
M  END
$$$$
