14
butane_opt
C  -3.945665   0.244463   0.110541
C  -2.676411  -0.595524  -0.004941
H  -4.839256  -0.325948  -0.374012
H  -3.556050   0.447508  -0.550411
H  -4.221068   1.250066   1.222953
C  -1.425438   0.180205  -0.095291
H  -2.832883  -1.291397  -0.924126
H  -2.685856  -1.113400   0.762345
C  -0.146473  -0.723034   0.107351
H  -1.546130   0.825841   0.648775
H  -1.444760   1.062435  -1.130569
H  -0.201148  -1.459427   1.118818
H   0.791827  -0.026629  -0.068062
H  -0.161115  -1.136836  -0.603948
