14
butane_opt
C  -3.979043   0.227295  -0.045987
C  -2.732481  -0.590158   0.149634
H  -4.801230  -0.311790  -0.230533
H  -3.665218   0.588289  -0.920870
H  -4.161021   0.955404   0.894434
C  -1.396335   0.268106   0.059000
H  -2.580460  -1.196649  -0.754750
H  -2.824696  -1.352979   1.120165
C  -0.128413  -0.736730  -0.015989
H  -1.385246   0.888107   0.864791
H  -1.382803   1.022453  -0.937422
H   0.102660  -1.203030   0.717518
H   0.661836  -0.244666   0.003545
H  -0.139943  -1.657288  -1.056658
