butane_opt
 OpenBabel08242015383D

 14 13  0  0  0  0  0  0  0  0999 V2000
   -3.9181    0.3040    0.0744 C   0  0  0  0  0  0  0  0  0  0  0  0
   -2.6649   -0.6315   -0.0373 C   0  0  0  0  0  0  0  0  0  0  0  0
   -4.7657   -0.3198    0.2946 H   0  0  0  0  0  0  0  0  0  0  0  0
   -4.2554    1.0287   -0.8507 H   0  0  0  0  0  0  0  0  0  0  0  0
   -3.8094    0.7640    0.7786 H   0  0  0  0  0  0  0  0  0  0  0  0
   -1.4246    0.1199   -0.0227 C   0  0  0  0  0  0  0  0  0  0  0  0
   -2.7631   -1.5033   -0.9866 H   0  0  0  0  0  0  0  0  0  0  0  0
   -2.6569   -1.1949    0.8287 H   0  0  0  0  0  0  0  0  0  0  0  0
   -0.1888   -0.6508    0.1009 C   0  0  0  0  0  0  0  0  0  0  0  0
   -1.6434    0.7880    0.8203 H   0  0  0  0  0  0  0  0  0  0  0  0
   -1.2138    0.8323   -1.0411 H   0  0  0  0  0  0  0  0  0  0  0  0
   -0.1636   -1.2302    0.9325 H   0  0  0  0  0  0  0  0  0  0  0  0
    0.8083    0.0185    0.0275 H   0  0  0  0  0  0  0  0  0  0  0  0
   -0.2342   -1.3196   -0.7898 H   0  0  0  0  0  0  0  0  0  0  0  0
  1  3  1  0  0  0  0
  1  5  1  0  0  0  0
  2  6  1  0  0  0  0
  2  1  1  0  0  0  0
  2  8  1  0  0  0  0
  4  1  1  0  0  0  0
  6  9  1  0  0  0  0
  6 10  1  0  0  0  0
  7  2  1  0  0  0  0
  9 12  1  0  0  0  0
 11  6  1  0  0  0  0
 13  9  1  0  0  0  0
 14  9  1  0  0  0  0
M  END
$$$$
