butane_opt
 OpenBabel08242015383D

 14 13  0  0  0  0  0  0  0  0999 V2000
   -3.9188    0.2731   -0.0894 C   0  0  0  0  0  0  0  0  0  0  0  0
   -2.6906   -0.6480    0.1102 C   0  0  0  0  0  0  0  0  0  0  0  0
   -4.7221   -0.2228    0.1080 H   0  0  0  0  0  0  0  0  0  0  0  0
   -4.1413    1.0841   -1.0625 H   0  0  0  0  0  0  0  0  0  0  0  0
   -4.0707    0.8055    0.6331 H   0  0  0  0  0  0  0  0  0  0  0  0
   -1.4055    0.1611    0.1625 C   0  0  0  0  0  0  0  0  0  0  0  0
   -2.4193   -1.1515   -0.6533 H   0  0  0  0  0  0  0  0  0  0  0  0
   -2.7972   -1.3907    1.0542 H   0  0  0  0  0  0  0  0  0  0  0  0
   -0.1877   -0.6739   -0.0817 C   0  0  0  0  0  0  0  0  0  0  0  0
   -1.3613    0.9380    1.1347 H   0  0  0  0  0  0  0  0  0  0  0  0
   -1.4399    0.6078   -0.6260 H   0  0  0  0  0  0  0  0  0  0  0  0
   -0.0969   -1.2324    0.7916 H   0  0  0  0  0  0  0  0  0  0  0  0
    0.7167   -0.0221   -0.3050 H   0  0  0  0  0  0  0  0  0  0  0  0
   -0.2555   -1.2191   -0.8723 H   0  0  0  0  0  0  0  0  0  0  0  0
  1  3  1  0  0  0  0
  1  2  1  0  0  0  0
  1  5  1  0  0  0  0
  2  6  1  0  0  0  0
  2  8  1  0  0  0  0
  4  1  1  0  0  0  0
  6 10  1  0  0  0  0
  7  2  1  0  0  0  0
  9  6  1  0  0  0  0
  9 12  1  0  0  0  0
 11  6  1  0  0  0  0
 13  9  1  0  0  0  0
 14  9  1  0  0  0  0
M  END
$$$$
