14
butane_opt
C  -4.008199   0.286429   0.013230
C  -2.710619  -0.649311   0.052480
H  -4.864672  -0.277437   0.206215
H  -4.074794   1.022341  -1.010290
H  -3.853838   0.945121   0.855080
C  -1.355580   0.153050  -0.003989
H  -2.696690  -1.256615  -0.727901
H  -2.815994  -1.304765   0.959742
C  -0.129859  -0.683301   0.003038
H  -1.394624   1.033728   0.896290
H  -1.373804   0.778121  -0.892202
H  -0.325262  -1.205495   0.884661
H   0.817131  -0.008616   0.367055
H  -0.007495  -1.477944  -0.885938
