14
butane_opt
C  -3.945196   0.303220  -0.062025
C  -2.657153  -0.672294   0.143868
H  -4.805796  -0.208424   0.152911
H  -3.892206   0.946906  -0.983317
H  -4.071657   0.823063   0.713233
C  -1.416454   0.155534   0.054265
H  -2.644015  -1.233031  -0.678876
H  -2.738457  -1.440629   1.137669
C  -0.178799  -0.643227  -0.055769
H  -1.289244   0.944632   0.980503
H  -1.443600   0.748007  -0.837509
H  -0.467906  -1.051428   0.640380
H   0.698771  -0.091572   0.423107
H  -0.013106  -1.629631  -1.093360
