butane_opt
 OpenBabel08242015383D

 14 13  0  0  0  0  0  0  0  0999 V2000
   -3.9029    0.2306   -0.0573 C   0  0  0  0  0  0  0  0  0  0  0  0
   -2.7050   -0.5653    0.1229 C   0  0  0  0  0  0  0  0  0  0  0  0
   -4.8554   -0.4828   -0.1877 H   0  0  0  0  0  0  0  0  0  0  0  0
   -3.7350    0.7414   -0.9232 H   0  0  0  0  0  0  0  0  0  0  0  0
   -4.1660    0.9447    0.8342 H   0  0  0  0  0  0  0  0  0  0  0  0
   -1.4202    0.2095    0.0658 C   0  0  0  0  0  0  0  0  0  0  0  0
   -2.7515   -0.8674   -0.4924 H   0  0  0  0  0  0  0  0  0  0  0  0
   -2.8820   -1.3229    1.1975 H   0  0  0  0  0  0  0  0  0  0  0  0
   -0.1696   -0.7391   -0.0334 C   0  0  0  0  0  0  0  0  0  0  0  0
   -1.3407    0.9699    0.9452 H   0  0  0  0  0  0  0  0  0  0  0  0
   -1.4867    0.7787   -0.7821 H   0  0  0  0  0  0  0  0  0  0  0  0
   -0.0384   -1.1413    0.6776 H   0  0  0  0  0  0  0  0  0  0  0  0
    0.7649   -0.1687    0.0814 H   0  0  0  0  0  0  0  0  0  0  0  0
   -0.1356   -1.5882   -1.0897 H   0  0  0  0  0  0  0  0  0  0  0  0
  1  2  1  0  0  0  0
  1  5  1  0  0  0  0
  2  8  1  0  0  0  0
  3  1  1  0  0  0  0
  4  1  1  0  0  0  0
  6  2  1  0  0  0  0
  6 10  1  0  0  0  0
  7  2  1  0  0  0  0
  9  6  1  0  0  0  0
  9 13  1  0  0  0  0
  9 12  1  0  0  0  0
 11  6  1  0  0  0  0
 14  9  1  0  0  0  0
M  END
$$$$
