butane_opt
 OpenBabel08242015383D

 14 13  0  0  0  0  0  0  0  0999 V2000
   -3.9181    0.2424    0.0222 C   0  0  0  0  0  0  0  0  0  0  0  0
   -2.6992   -0.6040    0.0159 C   0  0  0  0  0  0  0  0  0  0  0  0
   -4.7692   -0.3847   -0.1326 H   0  0  0  0  0  0  0  0  0  0  0  0
   -3.8578    0.9519   -0.9293 H   0  0  0  0  0  0  0  0  0  0  0  0
   -3.9939    0.9017    0.9128 H   0  0  0  0  0  0  0  0  0  0  0  0
   -1.4538    0.2220    0.0488 C   0  0  0  0  0  0  0  0  0  0  0  0
   -2.6479   -1.3188   -0.7919 H   0  0  0  0  0  0  0  0  0  0  0  0
   -2.7887   -1.2333    0.8709 H   0  0  0  0  0  0  0  0  0  0  0  0
   -0.1361   -0.7114    0.0065 C   0  0  0  0  0  0  0  0  0  0  0  0
   -1.4347    0.9614    0.9969 H   0  0  0  0  0  0  0  0  0  0  0  0
   -1.4665    0.6322   -0.6441 H   0  0  0  0  0  0  0  0  0  0  0  0
   -0.0041   -1.6332    1.1366 H   0  0  0  0  0  0  0  0  0  0  0  0
    0.7798   -0.1501   -0.4180 H   0  0  0  0  0  0  0  0  0  0  0  0
   -0.3467   -0.9586   -0.6549 H   0  0  0  0  0  0  0  0  0  0  0  0
  1  5  1  0  0  0  0
  2  1  1  0  0  0  0
  2  6  1  0  0  0  0
  2  8  1  0  0  0  0
  3  1  1  0  0  0  0
  4  1  1  0  0  0  0
  6 10  1  0  0  0  0
  7  2  1  0  0  0  0
  9  6  1  0  0  0  0
  9 12  1  0  0  0  0
 11  6  1  0  0  0  0
 13  9  1  0  0  0  0
 14  9  1  0  0  0  0
M  END
$$$$
