14
butane_opt
C  -3.942373   0.271324  -0.060450
C  -2.657148  -0.629201   0.125450
H  -4.859368  -0.248465  -0.381364
H  -3.865987   0.676230  -0.784803
H  -4.148923   1.203115   0.988185
C  -1.404047   0.139656   0.070067
H  -2.597185  -1.010110  -0.601686
H  -2.846256  -1.441917   1.175849
C  -0.174903  -0.680628  -0.038507
H  -1.307453   0.805885   0.937324
H  -1.609344   0.776411  -0.821614
H  -0.238759  -1.163603   0.729643
H   0.819289   0.024373  -0.089008
H  -0.224996  -1.309689  -0.847054
