14
butane_opt
C  -3.958267   0.308713   0.112801
C  -2.694805  -0.667983  -0.139368
H  -4.811292  -0.315485   0.546768
H  -4.225113   0.974147  -0.791625
H  -3.696530   0.922245   0.989036
C  -1.376907   0.167338  -0.060965
H  -2.843185  -1.422437  -0.964802
H  -2.651258  -1.232153   0.705238
C  -0.171100  -0.665732   0.123232
H  -1.435371   0.795796   0.770390
H  -1.215871   0.829530  -0.964309
H  -0.265191  -1.409799   1.166957
H   0.597478  -0.204985   0.082325
H  -0.071554  -1.099181  -0.520539
