butane_opt
 OpenBabel08242015383D

 14 13  0  0  0  0  0  0  0  0999 V2000
   -3.9538    0.2229    0.0533 C   0  0  0  0  0  0  0  0  0  0  0  0
   -2.7046   -0.5795    0.0219 C   0  0  0  0  0  0  0  0  0  0  0  0
   -4.9115   -0.4103    0.1856 H   0  0  0  0  0  0  0  0  0  0  0  0
   -4.0413    0.9739   -0.8246 H   0  0  0  0  0  0  0  0  0  0  0  0
   -3.9137    0.9424    0.8940 H   0  0  0  0  0  0  0  0  0  0  0  0
   -1.3935    0.2224   -0.0627 C   0  0  0  0  0  0  0  0  0  0  0  0
   -2.9472   -1.1573   -0.8390 H   0  0  0  0  0  0  0  0  0  0  0  0
   -2.7944   -1.1819    0.8871 H   0  0  0  0  0  0  0  0  0  0  0  0
   -0.1336   -0.7392    0.0632 C   0  0  0  0  0  0  0  0  0  0  0  0
   -1.4132    0.8288    0.7725 H   0  0  0  0  0  0  0  0  0  0  0  0
   -1.5015    0.7809   -0.9452 H   0  0  0  0  0  0  0  0  0  0  0  0
   -0.3680   -1.1490    0.8147 H   0  0  0  0  0  0  0  0  0  0  0  0
    0.8272   -0.1068    0.4150 H   0  0  0  0  0  0  0  0  0  0  0  0
    0.2756   -1.5195   -0.8523 H   0  0  0  0  0  0  0  0  0  0  0  0
  1  3  1  0  0  0  0
  1  5  1  0  0  0  0
  2  1  1  0  0  0  0
  2  8  1  0  0  0  0
  4  1  1  0  0  0  0
  6  2  1  0  0  0  0
  6  9  1  0  0  0  0
  6 10  1  0  0  0  0
  7  2  1  0  0  0  0
  9 13  1  0  0  0  0
  9 12  1  0  0  0  0
 11  6  1  0  0  0  0
 14  9  1  0  0  0  0
M  END
$$$$
