14
butane_opt
C  -4.000867   0.299470   0.089269
C  -2.710782  -0.690085  -0.068683
H  -4.828186  -0.130809  -0.004075
H  -4.129046   0.844290  -0.720071
H  -3.912725   1.135920   1.040357
C  -1.351671   0.172156  -0.025960
H  -2.680611  -1.541189  -1.020971
H  -2.574212  -1.164533   0.746988
C  -0.179170  -0.660704   0.138046
H  -1.264582   0.770515   0.734815
H  -1.208545   0.966448  -1.012612
H   0.030970  -1.629013   1.223439
H   0.789818  -0.064730  -0.404422
H  -0.356486  -1.098119  -0.699893
