14
butane_opt
C  -3.943267   0.269259   0.053537
C  -2.704717  -0.607125   0.041206
H  -4.945782  -0.312849  -0.433602
H  -3.794541   0.426759  -0.609502
H  -4.085306   1.330056   1.164963
C  -1.387050   0.148612  -0.071682
H  -2.835839  -1.194087  -0.831012
H  -2.494920  -1.292257   0.914553
C  -0.173030  -0.673732   0.083644
H  -1.438908   0.902272   0.793827
H  -1.354832   0.848415  -1.010809
H  -0.160451  -1.479455   1.107677
H   0.669196  -0.134344  -0.172116
H  -0.086357  -1.245108  -0.734098
