14
butane_opt
C  -3.890179   0.227915   0.009781
C  -2.699269  -0.580843   0.026053
H  -4.795941  -0.344757   0.248347
H  -4.025312   1.209404  -1.198048
H  -3.797021   0.620984   0.622931
C  -1.440173   0.195197   0.075773
H  -2.813221  -1.195221  -0.756064
H  -2.649249  -1.126698   0.894871
C  -0.199105  -0.713724  -0.006635
H  -1.422106   1.031757   1.007092
H  -1.341828   0.671644  -0.674147
H  -0.078901  -1.415984   0.857958
H   0.792064  -0.071157  -0.071268
H  -0.145264  -1.381554  -0.807724
