14
butane_opt
C  -3.954793   0.202492  -0.075820
C  -2.735161  -0.573779   0.079602
H  -4.775639  -0.280826   0.031919
H  -3.953062   0.787948  -0.995520
H  -4.029380   0.906500   0.848949
C  -1.416901   0.243504   0.144810
H  -2.597395  -1.175411  -0.652417
H  -2.827789  -1.224610   0.958237
C  -0.105733  -0.726723  -0.062751
H  -1.422684   0.972080   1.098623
H  -1.487945   0.820853  -0.658868
H   0.113040  -1.591166   1.011120
H   0.757399  -0.258774  -0.474714
H  -0.232433  -1.163990  -0.732862
