14
butane_opt
C  -3.902707   0.240893   0.048133
C  -2.728595  -0.581112  -0.020684
H  -4.860558  -0.429946   0.356700
H  -4.137878   1.133798  -1.051983
H  -3.630040   0.678351   0.763438
C  -1.426648   0.196051  -0.011322
H  -2.710035  -1.326591  -0.896578
H  -2.638166  -1.144069   0.879823
C  -0.180063  -0.701336   0.055388
H  -1.327188   1.086645   1.057779
H  -1.361979   0.697112  -0.849388
H  -0.138828  -1.426307   1.063898
H   0.673520  -0.257649   0.023408
H  -0.028205  -1.344225  -0.801054
