14
butane_opt
C  -3.976881   0.301216   0.088473
C  -2.695615  -0.682782  -0.036637
H  -4.777654  -0.193703  -0.272394
H  -4.013906   0.550851  -0.635795
H  -4.096603   1.231559   1.143189
C  -1.370656   0.181325  -0.062278
H  -2.753929  -1.200351  -0.703928
H  -2.730466  -1.329192   0.862718
C  -0.146470  -0.680755   0.081275
H  -1.510262   0.844283   0.797962
H  -1.157569   0.860320  -1.003795
H  -0.144588  -1.438299   1.131844
H   0.714638  -0.124159  -0.067319
H  -0.281808  -1.101598  -0.627320
