14
butane_opt
C  -3.963019   0.273203   0.041781
C  -2.697260  -0.625205   0.026483
H  -4.832008  -0.298974  -0.091702
H  -3.928018   0.794881  -0.809993
H  -4.024705   1.075245   0.998003
C  -1.394211   0.171368  -0.029131
H  -2.731874  -1.308240  -0.816843
H  -2.683419  -1.243714   0.912531
C  -0.161238  -0.684820   0.056903
H  -1.349635   0.853581   0.812608
H  -1.328759   0.773554  -0.893085
H  -0.174616  -1.366897   0.970836
H   0.753776  -0.073116  -0.031638
H  -0.136804  -1.286043  -0.749385
