14
butane_opt
C  -3.933984   0.296346   0.013522
C  -2.657603  -0.655269   0.029571
H  -4.866019  -0.327390   0.307643
H  -3.961404   1.283410  -1.094861
H  -3.894117   0.579517   0.578689
C  -1.422469   0.146428   0.051826
H  -2.674337  -1.201661  -0.807631
H  -2.717115  -1.309728   0.958380
C  -0.187168  -0.682169   0.004831
H  -1.470751   1.041341   1.037256
H  -1.448039   0.553114  -0.687147
H  -0.272487  -1.090374   0.760852
H   0.780271   0.029580  -0.012609
H  -0.103189  -1.281541  -0.855970
