butane_opt
 OpenBabel08242015383D

 14 13  0  0  0  0  0  0  0  0999 V2000
   -3.9187    0.2250    0.0806 C   0  0  0  0  0  0  0  0  0  0  0  0
   -2.7219   -0.5679    0.0258 C   0  0  0  0  0  0  0  0  0  0  0  0
   -4.9269   -0.3831    0.1309 H   0  0  0  0  0  0  0  0  0  0  0  0
   -3.8418    0.7993   -0.9126 H   0  0  0  0  0  0  0  0  0  0  0  0
   -3.7739    0.9134    0.9622 H   0  0  0  0  0  0  0  0  0  0  0  0
   -1.4549    0.2048   -0.0769 C   0  0  0  0  0  0  0  0  0  0  0  0
   -2.7157   -1.4373   -0.9531 H   0  0  0  0  0  0  0  0  0  0  0  0
   -2.5911   -1.0198    0.7691 H   0  0  0  0  0  0  0  0  0  0  0  0
   -0.1414   -0.7294    0.0750 C   0  0  0  0  0  0  0  0  0  0  0  0
   -1.5439    0.8786    0.6950 H   0  0  0  0  0  0  0  0  0  0  0  0
   -1.4008    1.0021   -1.0426 H   0  0  0  0  0  0  0  0  0  0  0  0
   -0.2353   -1.3211    0.9813 H   0  0  0  0  0  0  0  0  0  0  0  0
    0.8061   -0.0486    0.3737 H   0  0  0  0  0  0  0  0  0  0  0  0
    0.0404   -1.4635   -0.8110 H   0  0  0  0  0  0  0  0  0  0  0  0
  1  3  1  0  0  0  0
  1  5  1  0  0  0  0
  2  1  1  0  0  0  0
  2  8  1  0  0  0  0
  4  1  1  0  0  0  0
  6  2  1  0  0  0  0
  6  9  1  0  0  0  0
  6 10  1  0  0  0  0
  7  2  1  0  0  0  0
  9 13  1  0  0  0  0
  9 12  1  0  0  0  0
 11  6  1  0  0  0  0
 14  9  1  0  0  0  0
M  END
$$$$
