butane_opt
 OpenBabel08242015383D

 14 12  0  0  0  0  0  0  0  0999 V2000
   -3.8902    0.2279    0.0098 C   0  0  0  0  0  0  0  0  0  0  0  0
   -2.6993   -0.5808    0.0261 C   0  0  0  0  0  0  0  0  0  0  0  0
   -4.7959   -0.3448    0.2483 H   0  0  0  0  0  0  0  0  0  0  0  0
   -4.0253    1.2094   -1.1980 H   0  0  0  0  0  0  0  0  0  0  0  0
   -3.7970    0.6210    0.6229 H   0  0  0  0  0  0  0  0  0  0  0  0
   -1.4402    0.1952    0.0758 C   0  0  0  0  0  0  0  0  0  0  0  0
   -2.8132   -1.1952   -0.7561 H   0  0  0  0  0  0  0  0  0  0  0  0
   -2.6492   -1.1267    0.8949 H   0  0  0  0  0  0  0  0  0  0  0  0
   -0.1991   -0.7137   -0.0066 C   0  0  0  0  0  0  0  0  0  0  0  0
   -1.4221    1.0318    1.0071 H   0  0  0  0  0  0  0  0  0  0  0  0
   -1.3418    0.6716   -0.6741 H   0  0  0  0  0  0  0  0  0  0  0  0
   -0.0789   -1.4160    0.8580 H   0  0  0  0  0  0  0  0  0  0  0  0
    0.7921   -0.0712   -0.0713 H   0  0  0  0  0  0  0  0  0  0  0  0
   -0.1453   -1.3816   -0.8077 H   0  0  0  0  0  0  0  0  0  0  0  0
  1  2  1  0  0  0  0
  1  3  1  0  0  0  0
  1  5  1  0  0  0  0
  2  6  1  0  0  0  0
  2  8  1  0  0  0  0
  6 10  1  0  0  0  0
  7  2  1  0  0  0  0
  9  6  1  0  0  0  0
  9 12  1  0  0  0  0
 11  6  1  0  0  0  0
 13  9  1  0  0  0  0
 14  9  1  0  0  0  0
M  RAD  2   1   2   4   2
M  END
$$$$
