butane_opt
 OpenBabel08242015383D

 14 13  0  0  0  0  0  0  0  0999 V2000
   -3.9381    0.2527    0.1119 C   0  0  0  0  0  0  0  0  0  0  0  0
   -2.7311   -0.6084   -0.0531 C   0  0  0  0  0  0  0  0  0  0  0  0
   -4.8644   -0.3664    0.2984 H   0  0  0  0  0  0  0  0  0  0  0  0
   -4.0588    0.8431   -0.8088 H   0  0  0  0  0  0  0  0  0  0  0  0
   -3.8796    0.8742    0.9482 H   0  0  0  0  0  0  0  0  0  0  0  0
   -1.4039    0.2339   -0.0984 C   0  0  0  0  0  0  0  0  0  0  0  0
   -2.8222   -1.2279   -0.9326 H   0  0  0  0  0  0  0  0  0  0  0  0
   -2.8176   -1.2732    0.8167 H   0  0  0  0  0  0  0  0  0  0  0  0
   -0.1187   -0.6993    0.1115 C   0  0  0  0  0  0  0  0  0  0  0  0
   -1.4063    0.8073    0.6358 H   0  0  0  0  0  0  0  0  0  0  0  0
   -1.3614    0.8288   -0.9524 H   0  0  0  0  0  0  0  0  0  0  0  0
   -0.2918   -1.2514    0.9449 H   0  0  0  0  0  0  0  0  0  0  0  0
    0.6006   -0.3246    0.3931 H   0  0  0  0  0  0  0  0  0  0  0  0
    0.1994   -1.5437   -0.7630 H   0  0  0  0  0  0  0  0  0  0  0  0
  1  3  1  0  0  0  0
  1  5  1  0  0  0  0
  2  1  1  0  0  0  0
  2  8  1  0  0  0  0
  4  1  1  0  0  0  0
  6  2  1  0  0  0  0
  6  9  1  0  0  0  0
  6 10  1  0  0  0  0
  7  2  1  0  0  0  0
  9 13  1  0  0  0  0
  9 12  1  0  0  0  0
 11  6  1  0  0  0  0
 14  9  1  0  0  0  0
M  END
$$$$
