butane_opt
 OpenBabel08242015383D

 14 13  0  0  0  0  0  0  0  0999 V2000
   -3.9275    0.2473   -0.0156 C   0  0  0  0  0  0  0  0  0  0  0  0
   -2.6695   -0.6144    0.0772 C   0  0  0  0  0  0  0  0  0  0  0  0
   -4.7424   -0.1474    0.1571 H   0  0  0  0  0  0  0  0  0  0  0  0
   -3.9597    1.1825   -1.1643 H   0  0  0  0  0  0  0  0  0  0  0  0
   -3.9282    0.6159    0.5667 H   0  0  0  0  0  0  0  0  0  0  0  0
   -1.4121    0.1709    0.0856 C   0  0  0  0  0  0  0  0  0  0  0  0
   -2.6804   -1.4165   -0.8629 H   0  0  0  0  0  0  0  0  0  0  0  0
   -2.6073   -1.2621    0.9515 H   0  0  0  0  0  0  0  0  0  0  0  0
   -0.2034   -0.6769   -0.0144 C   0  0  0  0  0  0  0  0  0  0  0  0
   -1.3450    0.9635    1.0305 H   0  0  0  0  0  0  0  0  0  0  0  0
   -1.5655    0.8318   -0.6975 H   0  0  0  0  0  0  0  0  0  0  0  0
   -0.0734   -1.2832    0.8005 H   0  0  0  0  0  0  0  0  0  0  0  0
    0.7271   -0.0204   -0.0512 H   0  0  0  0  0  0  0  0  0  0  0  0
   -0.3121   -1.4400   -0.9213 H   0  0  0  0  0  0  0  0  0  0  0  0
  1  2  1  0  0  0  0
  1  3  1  0  0  0  0
  1  5  1  0  0  0  0
  2  6  1  0  0  0  0
  2  8  1  0  0  0  0
  4  1  1  0  0  0  0
  6 10  1  0  0  0  0
  7  2  1  0  0  0  0
  9  6  1  0  0  0  0
  9 12  1  0  0  0  0
 11  6  1  0  0  0  0
 13  9  1  0  0  0  0
 14  9  1  0  0  0  0
M  END
$$$$
