14
butane_opt
C  -3.977084   0.284460  -0.048203
C  -2.699504  -0.639543   0.144593
H  -4.798952  -0.305609  -0.349037
H  -3.826977   0.795393  -0.891881
H  -4.280064   1.022413   0.803676
C  -1.375583   0.178567   0.045720
H  -2.665711  -1.165188  -0.598734
H  -2.611524  -1.376390   1.092630
C  -0.184836  -0.671931  -0.014551
H  -1.206271   0.876532   0.998658
H  -1.481497   0.645653  -0.737204
H  -0.031631  -1.254466   0.779376
H   0.815088  -0.016641  -0.148567
H  -0.117182  -1.494486  -1.051430
