14
butane_opt
C  -3.977944   0.294584   0.125959
C  -2.714482  -0.658694  -0.109082
H  -4.984672  -0.324000   0.443799
H  -4.293454   0.976854  -0.763457
H  -3.836776   0.875642   0.943980
C  -1.403212   0.160894  -0.085567
H  -2.749799  -1.461490  -1.021699
H  -2.495124  -1.111094   0.646840
C  -0.124431  -0.676806   0.156103
H  -1.588262   0.757964   0.725721
H  -1.096965   1.013207  -1.096720
H  -0.200906  -1.262542   1.116035
H   0.891400  -0.044624   0.052544
H  -0.033240  -1.338391  -0.693596
