14
butane_opt
C  -3.953435   0.250299  -0.088937
C  -2.706145  -0.608916   0.151055
H  -4.937743  -0.300253  -0.328329
H  -3.757754   0.664499  -0.974020
H  -4.051848   1.091865   0.862522
C  -1.374765   0.216962   0.129359
H  -2.622570  -1.095591  -0.542425
H  -2.927337  -1.427992   1.227072
C  -0.173341  -0.716310  -0.081220
H  -1.403916   1.060521   1.032113
H  -1.382613   0.832376  -0.733586
H   0.011369  -1.464459   0.873313
H   0.731348  -0.103125  -0.281036
H  -0.193643  -1.455541  -1.010682
