14
butane_opt
C  -3.905031   0.255441   0.096301
C  -2.705834  -0.615326  -0.006614
H  -4.772941  -0.316497  -0.377373
H  -3.811197   0.491769  -0.583229
H  -4.092109   1.351902   1.199356
C  -1.422155   0.217708  -0.076043
H  -2.795422  -1.313625  -0.965048
H  -2.667209  -1.318930   0.905652
C  -0.159868  -0.713629   0.097761
H  -1.433213   0.655039   0.600475
H  -1.353430   1.033440  -1.092478
H  -0.172618  -1.476004   1.076102
H   0.730409  -0.056015   0.075255
H  -0.318700  -1.261591  -0.665104
