14
butane_opt
C  -3.915121   0.290647  -0.082889
C  -2.704274  -0.640369   0.176765
H  -4.737423  -0.174958  -0.192737
H  -3.845822   0.886465  -1.029209
H  -4.164812   0.910078   0.768150
C  -1.382302   0.168364   0.110007
H  -2.443656  -1.302077  -0.645251
H  -2.857008  -1.359777   1.169454
C  -0.221663  -0.686599  -0.070044
H  -1.282653   0.671674   0.921666
H  -1.468726   0.816392  -0.738113
H  -0.160620  -0.962516   0.622370
H   0.753548   0.028012  -0.020458
H  -0.153206  -1.542718  -1.046360
