14
butane_opt
C  -3.918676   0.279881   0.106783
C  -2.669774  -0.653499  -0.040270
H  -4.740945  -0.260920   0.215539
H  -4.097240   0.728748  -0.650389
H  -3.897104   1.099335   1.000625
C  -1.394829   0.174654  -0.102650
H  -2.767926  -1.329128  -0.912133
H  -2.566046  -1.162899   0.763302
C  -0.198194  -0.664802   0.121096
H  -1.564682   0.510129   0.566320
H  -1.412990   1.088184  -1.198361
H  -0.537063  -1.168144   0.945295
H   0.770140  -0.039174   0.550350
H  -0.041429  -1.572381  -0.853142
