butane_opt
 OpenBabel08242015383D

 14 13  0  0  0  0  0  0  0  0999 V2000
   -3.9923    0.3014    0.0539 C   0  0  0  0  0  0  0  0  0  0  0  0
   -2.6963   -0.6370   -0.0136 C   0  0  0  0  0  0  0  0  0  0  0  0
   -4.8071   -0.1822   -0.1772 H   0  0  0  0  0  0  0  0  0  0  0  0
   -4.1044    0.7587   -0.7406 H   0  0  0  0  0  0  0  0  0  0  0  0
   -4.0194    1.0774    1.0507 H   0  0  0  0  0  0  0  0  0  0  0  0
   -1.3620    0.1351   -0.0101 C   0  0  0  0  0  0  0  0  0  0  0  0
   -2.8598   -1.4023   -0.9084 H   0  0  0  0  0  0  0  0  0  0  0  0
   -2.7720   -1.2853    0.9838 H   0  0  0  0  0  0  0  0  0  0  0  0
   -0.1357   -0.6562    0.0371 C   0  0  0  0  0  0  0  0  0  0  0  0
   -1.3361    0.8486    0.9056 H   0  0  0  0  0  0  0  0  0  0  0  0
   -1.3158    0.7076   -0.8956 H   0  0  0  0  0  0  0  0  0  0  0  0
   -0.2313   -1.5911    1.1463 H   0  0  0  0  0  0  0  0  0  0  0  0
    0.7928   -0.0897   -0.1695 H   0  0  0  0  0  0  0  0  0  0  0  0
   -0.1483   -0.9980   -0.5401 H   0  0  0  0  0  0  0  0  0  0  0  0
  1  5  1  0  0  0  0
  2  6  1  0  0  0  0
  2  1  1  0  0  0  0
  2  8  1  0  0  0  0
  3  1  1  0  0  0  0
  4  1  1  0  0  0  0
  6  9  1  0  0  0  0
  6 10  1  0  0  0  0
  7  2  1  0  0  0  0
  9 12  1  0  0  0  0
 11  6  1  0  0  0  0
 13  9  1  0  0  0  0
 14  9  1  0  0  0  0
M  END
$$$$
