butane_opt
 OpenBabel08242015383D

 14 12  0  0  0  0  0  0  0  0999 V2000
   -3.9433    0.2829    0.0763 C   0  0  0  0  0  0  0  0  0  0  0  0
   -2.6360   -0.6705   -0.0073 C   0  0  0  0  0  0  0  0  0  0  0  0
   -4.8097   -0.2665   -0.2735 H   0  0  0  0  0  0  0  0  0  0  0  0
   -4.0674    0.5524   -0.5100 H   0  0  0  0  0  0  0  0  0  0  0  0
   -4.0407    1.4366    1.2387 H   0  0  0  0  0  0  0  0  0  0  0  0
   -1.4107    0.1648   -0.0659 C   0  0  0  0  0  0  0  0  0  0  0  0
   -2.6767   -1.3714   -0.9291 H   0  0  0  0  0  0  0  0  0  0  0  0
   -2.7753   -1.1795    0.7640 H   0  0  0  0  0  0  0  0  0  0  0  0
   -0.1776   -0.6638    0.1043 C   0  0  0  0  0  0  0  0  0  0  0  0
   -1.5082    0.6556    0.5464 H   0  0  0  0  0  0  0  0  0  0  0  0
   -1.3311    0.9351   -1.0237 H   0  0  0  0  0  0  0  0  0  0  0  0
   -0.2254   -1.5553    1.1406 H   0  0  0  0  0  0  0  0  0  0  0  0
    0.7775   -0.0064   -0.1034 H   0  0  0  0  0  0  0  0  0  0  0  0
   -0.3427   -1.0386   -0.6154 H   0  0  0  0  0  0  0  0  0  0  0  0
  2  1  1  0  0  0  0
  2  8  1  0  0  0  0
  3  1  1  0  0  0  0
  4  1  1  0  0  0  0
  6  2  1  0  0  0  0
  6  9  1  0  0  0  0
  6 10  1  0  0  0  0
  7  2  1  0  0  0  0
  9 12  1  0  0  0  0
 11  6  1  0  0  0  0
 13  9  1  0  0  0  0
 14  9  1  0  0  0  0
M  RAD  2   1   2   5   2
M  END
$$$$
