butane_opt
 OpenBabel08242015383D

 14 13  0  0  0  0  0  0  0  0999 V2000
   -3.9803    0.2922    0.0291 C   0  0  0  0  0  0  0  0  0  0  0  0
   -2.7101   -0.6443    0.0581 C   0  0  0  0  0  0  0  0  0  0  0  0
   -4.9186   -0.2594   -0.3198 H   0  0  0  0  0  0  0  0  0  0  0  0
   -3.9720    0.5084   -0.5896 H   0  0  0  0  0  0  0  0  0  0  0  0
   -4.2096    1.3201    1.0505 H   0  0  0  0  0  0  0  0  0  0  0  0
   -1.3868    0.1569   -0.0461 C   0  0  0  0  0  0  0  0  0  0  0  0
   -2.5803   -1.2745   -0.7202 H   0  0  0  0  0  0  0  0  0  0  0  0
   -2.5851   -1.3604    0.8845 H   0  0  0  0  0  0  0  0  0  0  0  0
   -0.1437   -0.6511    0.0607 C   0  0  0  0  0  0  0  0  0  0  0  0
   -1.4311    0.7795    0.7652 H   0  0  0  0  0  0  0  0  0  0  0  0
   -1.2037    0.7394   -0.9204 H   0  0  0  0  0  0  0  0  0  0  0  0
   -0.1249   -1.4296    1.0453 H   0  0  0  0  0  0  0  0  0  0  0  0
    0.7560   -0.0119   -0.1736 H   0  0  0  0  0  0  0  0  0  0  0  0
   -0.1155   -1.3309   -0.7741 H   0  0  0  0  0  0  0  0  0  0  0  0
  1  2  1  0  0  0  0
  1  5  1  0  0  0  0
  2  8  1  0  0  0  0
  3  1  1  0  0  0  0
  4  1  1  0  0  0  0
  6  2  1  0  0  0  0
  6  9  1  0  0  0  0
  6 10  1  0  0  0  0
  7  2  1  0  0  0  0
  9 12  1  0  0  0  0
 11  6  1  0  0  0  0
 13  9  1  0  0  0  0
 14  9  1  0  0  0  0
M  END
$$$$
