butane_opt
 OpenBabel08242015383D

 14 13  0  0  0  0  0  0  0  0999 V2000
   -3.9394    0.2919   -0.0747 C   0  0  0  0  0  0  0  0  0  0  0  0
   -2.6974   -0.6796    0.1557 C   0  0  0  0  0  0  0  0  0  0  0  0
   -4.7984   -0.2801   -0.4785 H   0  0  0  0  0  0  0  0  0  0  0  0
   -3.7789    0.6815   -0.8488 H   0  0  0  0  0  0  0  0  0  0  0  0
   -4.3154    1.1217    0.8900 H   0  0  0  0  0  0  0  0  0  0  0  0
   -1.4190    0.1920    0.0852 C   0  0  0  0  0  0  0  0  0  0  0  0
   -2.6761   -1.0042   -0.5326 H   0  0  0  0  0  0  0  0  0  0  0  0
   -2.7852   -1.5187    1.2004 H   0  0  0  0  0  0  0  0  0  0  0  0
   -0.1309   -0.6781   -0.0533 C   0  0  0  0  0  0  0  0  0  0  0  0
   -1.3046    0.9412    0.9878 H   0  0  0  0  0  0  0  0  0  0  0  0
   -1.5500    0.7217   -0.7550 H   0  0  0  0  0  0  0  0  0  0  0  0
    0.0540   -1.2027    0.6792 H   0  0  0  0  0  0  0  0  0  0  0  0
    0.7607   -0.1256   -0.0829 H   0  0  0  0  0  0  0  0  0  0  0  0
   -0.3868   -1.3265   -0.9433 H   0  0  0  0  0  0  0  0  0  0  0  0
  1  2  1  0  0  0  0
  1  5  1  0  0  0  0
  2  8  1  0  0  0  0
  3  1  1  0  0  0  0
  4  1  1  0  0  0  0
  6  2  1  0  0  0  0
  6 10  1  0  0  0  0
  7  2  1  0  0  0  0
  9  6  1  0  0  0  0
  9 12  1  0  0  0  0
 11  6  1  0  0  0  0
 13  9  1  0  0  0  0
 14  9  1  0  0  0  0
M  END
$$$$
