butane_opt
 OpenBabel08242015383D

 14 13  0  0  0  0  0  0  0  0999 V2000
   -3.9874    0.2808   -0.0913 C   0  0  0  0  0  0  0  0  0  0  0  0
   -2.6818   -0.6478    0.1412 C   0  0  0  0  0  0  0  0  0  0  0  0
   -4.7433   -0.1800   -0.1402 H   0  0  0  0  0  0  0  0  0  0  0  0
   -3.9541    0.9321   -0.9826 H   0  0  0  0  0  0  0  0  0  0  0  0
   -4.0478    0.8127    0.7189 H   0  0  0  0  0  0  0  0  0  0  0  0
   -1.3787    0.1713    0.1512 C   0  0  0  0  0  0  0  0  0  0  0  0
   -2.7067   -1.4657   -0.7943 H   0  0  0  0  0  0  0  0  0  0  0  0
   -2.6950   -1.0917    0.9558 H   0  0  0  0  0  0  0  0  0  0  0  0
   -0.1533   -0.6770   -0.0698 C   0  0  0  0  0  0  0  0  0  0  0  0
   -1.3058    0.9061    1.0927 H   0  0  0  0  0  0  0  0  0  0  0  0
   -1.6493    0.7601   -0.6888 H   0  0  0  0  0  0  0  0  0  0  0  0
    0.0013   -1.5181    0.9897 H   0  0  0  0  0  0  0  0  0  0  0  0
    0.8842   -0.0406   -0.4680 H   0  0  0  0  0  0  0  0  0  0  0  0
   -0.4226   -1.0764   -0.8112 H   0  0  0  0  0  0  0  0  0  0  0  0
  1  2  1  0  0  0  0
  1  5  1  0  0  0  0
  2  6  1  0  0  0  0
  2  8  1  0  0  0  0
  3  1  1  0  0  0  0
  4  1  1  0  0  0  0
  6 10  1  0  0  0  0
  7  2  1  0  0  0  0
  9  6  1  0  0  0  0
  9 12  1  0  0  0  0
 11  6  1  0  0  0  0
 13  9  1  0  0  0  0
 14  9  1  0  0  0  0
M  END
$$$$
