14
butane_opt
C  -3.934023   0.246246   0.118589
C  -2.697975  -0.582123  -0.073768
H  -4.880052  -0.318327   0.071760
H  -3.960125   0.800953  -0.666217
H  -3.741493   0.846536   0.986269
C  -1.410717   0.193877  -0.075754
H  -2.770108  -1.422657  -1.086898
H  -2.763240  -1.072330   0.774471
C  -0.174294  -0.694106   0.111583
H  -1.425385   0.961347   0.802052
H  -1.362477   0.813490  -0.976399
H  -0.136339  -1.721388   1.242970
H   0.608439  -0.178022  -0.122215
H  -0.000150  -1.159396  -0.526540
