14
butane_opt
C  -3.952588   0.237767  -0.003752
C  -2.748057  -0.595489   0.057864
H  -4.849869  -0.401654  -0.221932
H  -3.770561   0.741512  -0.827377
H  -4.030658   1.138238   0.928812
C  -1.377770   0.225390   0.027653
H  -2.852495  -1.140446  -0.699451
H  -2.744800  -1.447748   1.121982
C  -0.134458  -0.716070   0.007341
H  -1.416889   0.922254   0.965666
H  -1.406182   0.874249  -0.873876
H   0.122487  -1.337443   0.899491
H   0.535004  -0.295785  -0.040341
H  -0.053463  -1.366702  -0.874250
