14
butane_opt
C  -3.938742   0.262851   0.020818
C  -2.704335  -0.610661   0.045405
H  -4.846903  -0.335731  -0.037350
H  -3.925798   0.788169  -0.832393
H  -3.993604   0.997447   0.909992
C  -1.404736   0.189603  -0.009016
H  -2.765990  -1.243701  -0.787920
H  -2.671375  -1.250554   0.944483
C  -0.163830  -0.710289   0.039258
H  -1.387605   0.875302   0.872684
H  -1.381046   0.818944  -0.902725
H  -0.188732  -1.283661   0.923900
H   0.790735  -0.064154   0.026878
H  -0.112556  -1.355423  -0.836332
