14
butane_opt
C  -3.904771   0.232788   0.084079
C  -2.726384  -0.543286  -0.020738
H  -4.845850  -0.434229   0.076946
H  -4.031770   0.773778  -0.732095
H  -3.662000   0.822668   0.929981
C  -1.415496   0.215988  -0.061834
H  -2.644396  -1.231752  -0.822288
H  -2.726630  -1.227397   0.833745
C  -0.156067  -0.735741   0.092405
H  -1.446594   0.725329   0.669414
H  -1.453445   1.015917  -1.083440
H  -0.402871  -1.188677   0.923287
H   0.711148  -0.139018   0.365150
H  -0.067487  -1.644614  -0.866374
