14
butane_opt
C  -4.000612   0.285966   0.040956
C  -2.685738  -0.646649   0.015990
H  -4.790133  -0.229113  -0.304984
H  -3.959299   0.696765  -0.659483
H  -4.049325   1.264148   1.078097
C  -1.368767   0.138647  -0.035204
H  -2.808477  -1.105408  -0.600504
H  -2.553518  -1.341429   0.987576
C  -0.182927  -0.657672   0.055709
H  -1.317772   0.724617   0.761423
H  -1.153420   0.834667  -0.982589
H  -0.214378  -1.280474   0.941269
H   0.807901  -0.061929   0.100530
H  -0.146512  -1.412381  -0.821403
