14
butane_opt
C  -3.900210   0.274628  -0.049196
C  -2.714925  -0.612448   0.059568
H  -4.787421  -0.260697  -0.021961
H  -3.834198   0.982057  -1.078733
H  -4.093528   0.952639   0.814145
C  -1.408543   0.144064   0.133530
H  -2.580609  -1.144431  -0.740085
H  -2.738996  -1.419656   1.053532
C  -0.183599  -0.666827  -0.039968
H  -1.344853   0.918682   1.088067
H  -1.457640   0.539677  -0.593978
H   0.043916  -1.501465   0.969781
H   0.804720  -0.043220  -0.506906
H  -0.549652  -1.131196  -0.764123
