14
butane_opt
C  -3.970186   0.302358  -0.091997
C  -2.728231  -0.652019   0.166612
H  -4.796732  -0.116848  -0.384490
H  -3.837124   0.668419  -0.815719
H  -4.266387   1.129808   0.851841
C  -1.388031   0.139697   0.088744
H  -2.737238  -1.122921  -0.536255
H  -2.703530  -1.450899   1.178618
C  -0.123029  -0.657930  -0.055786
H  -1.244602   0.892985   0.930231
H  -1.301149   0.638779  -0.705232
H  -0.129700  -1.214595   0.800855
H   0.815896  -0.009979  -0.246822
H  -0.323187  -1.468029  -0.936799
