14
butane_opt
C  -3.913312   0.261131  -0.051185
C  -2.685787  -0.575099   0.169140
H  -4.842362  -0.390846  -0.247252
H  -3.717339   0.652813  -0.837134
H  -4.181444   1.073135   0.868235
C  -1.408508   0.166911   0.041532
H  -2.780823  -1.365783  -0.699459
H  -2.843298  -1.137543   0.990443
C  -0.176792  -0.707354  -0.033494
H  -1.373468   0.786340   0.866999
H  -1.519740   0.821886  -0.881851
H  -0.168417  -1.254342   0.731776
H   0.723953  -0.087542   0.056048
H  -0.109434  -1.313635  -0.888111
