butane_opt
 OpenBabel08242015383D

 14 13  0  0  0  0  0  0  0  0999 V2000
   -3.9064    0.2451    0.1098 C   0  0  0  0  0  0  0  0  0  0  0  0
   -2.6814   -0.6168   -0.0670 C   0  0  0  0  0  0  0  0  0  0  0  0
   -4.7603   -0.3024    0.2723 H   0  0  0  0  0  0  0  0  0  0  0  0
   -4.0180    0.8966   -0.7676 H   0  0  0  0  0  0  0  0  0  0  0  0
   -3.6456    0.8107    0.9415 H   0  0  0  0  0  0  0  0  0  0  0  0
   -1.4492    0.2307   -0.0658 C   0  0  0  0  0  0  0  0  0  0  0  0
   -2.8871   -1.4232   -1.0218 H   0  0  0  0  0  0  0  0  0  0  0  0
   -2.7232   -1.0310    0.6584 H   0  0  0  0  0  0  0  0  0  0  0  0
   -0.1764   -0.7068    0.1264 C   0  0  0  0  0  0  0  0  0  0  0  0
   -1.6841    0.8095    0.6252 H   0  0  0  0  0  0  0  0  0  0  0  0
   -1.3097    0.9292   -1.0098 H   0  0  0  0  0  0  0  0  0  0  0  0
   -0.1613   -1.4435    1.1454 H   0  0  0  0  0  0  0  0  0  0  0  0
    0.8110   -0.1375    0.0366 H   0  0  0  0  0  0  0  0  0  0  0  0
   -0.1123   -1.3883   -0.6968 H   0  0  0  0  0  0  0  0  0  0  0  0
  1  3  1  0  0  0  0
  1  5  1  0  0  0  0
  2  6  1  0  0  0  0
  2  1  1  0  0  0  0
  2  8  1  0  0  0  0
  4  1  1  0  0  0  0
  6  9  1  0  0  0  0
  6 10  1  0  0  0  0
  7  2  1  0  0  0  0
  9 12  1  0  0  0  0
 11  6  1  0  0  0  0
 13  9  1  0  0  0  0
 14  9  1  0  0  0  0
M  END
$$$$
