butane_opt
 OpenBabel08242015383D

 14 13  0  0  0  0  0  0  0  0999 V2000
   -3.9641    0.2238    0.0996 C   0  0  0  0  0  0  0  0  0  0  0  0
   -2.6990   -0.5979   -0.0170 C   0  0  0  0  0  0  0  0  0  0  0  0
   -4.7934   -0.3188   -0.4120 H   0  0  0  0  0  0  0  0  0  0  0  0
   -3.8270    0.4958   -0.5280 H   0  0  0  0  0  0  0  0  0  0  0  0
   -4.0268    1.2338    1.1803 H   0  0  0  0  0  0  0  0  0  0  0  0
   -1.4229    0.2410   -0.0707 C   0  0  0  0  0  0  0  0  0  0  0  0
   -2.7045   -1.3049   -0.8265 H   0  0  0  0  0  0  0  0  0  0  0  0
   -2.7131   -1.0938    0.8488 H   0  0  0  0  0  0  0  0  0  0  0  0
   -0.1620   -0.7136    0.1007 C   0  0  0  0  0  0  0  0  0  0  0  0
   -1.4446    0.6888    0.5513 H   0  0  0  0  0  0  0  0  0  0  0  0
   -1.1990    1.0645   -1.0571 H   0  0  0  0  0  0  0  0  0  0  0  0
   -0.0232   -1.5584    1.1054 H   0  0  0  0  0  0  0  0  0  0  0  0
    0.7414   -0.2061   -0.0763 H   0  0  0  0  0  0  0  0  0  0  0  0
   -0.0518   -1.3283   -0.6599 H   0  0  0  0  0  0  0  0  0  0  0  0
  1  5  1  0  0  0  0
  2  1  1  0  0  0  0
  2  8  1  0  0  0  0
  3  1  1  0  0  0  0
  4  1  1  0  0  0  0
  6  2  1  0  0  0  0
  6  9  1  0  0  0  0
  6 10  1  0  0  0  0
  7  2  1  0  0  0  0
  9 12  1  0  0  0  0
 11  6  1  0  0  0  0
 13  9  1  0  0  0  0
 14  9  1  0  0  0  0
M  END
$$$$
