butane_opt
 OpenBabel08242015383D

 14 11  0  0  0  0  0  0  0  0999 V2000
   -3.9194    0.3115   -0.0320 C   0  0  0  0  0  0  0  0  0  0  0  0
   -2.7068   -0.6606    0.0740 C   0  0  0  0  0  0  0  0  0  0  0  0
   -4.9039   -0.3331    0.5040 H   0  0  0  0  0  0  0  0  0  0  0  0
   -4.0036    1.3611   -1.1625 H   0  0  0  0  0  0  0  0  0  0  0  0
   -3.9407    0.5344    0.4682 H   0  0  0  0  0  0  0  0  0  0  0  0
   -1.3898    0.1502    0.0820 C   0  0  0  0  0  0  0  0  0  0  0  0
   -2.6667   -1.3413   -0.8202 H   0  0  0  0  0  0  0  0  0  0  0  0
   -2.7166   -1.1645    0.9226 H   0  0  0  0  0  0  0  0  0  0  0  0
   -0.1839   -0.6663   -0.0172 C   0  0  0  0  0  0  0  0  0  0  0  0
   -1.3514    0.9326    0.9970 H   0  0  0  0  0  0  0  0  0  0  0  0
   -1.4428    0.6144   -0.6916 H   0  0  0  0  0  0  0  0  0  0  0  0
   -0.1748   -1.1081    0.8169 H   0  0  0  0  0  0  0  0  0  0  0  0
    0.8328    0.0301    0.0649 H   0  0  0  0  0  0  0  0  0  0  0  0
   -0.2748   -1.6084   -0.9958 H   0  0  0  0  0  0  0  0  0  0  0  0
  1  2  1  0  0  0  0
  1  3  1  0  0  0  0
  2  6  1  0  0  0  0
  2  8  1  0  0  0  0
  6 10  1  0  0  0  0
  7  2  1  0  0  0  0
  9 13  1  0  0  0  0
  9  6  1  0  0  0  0
  9 12  1  0  0  0  0
 11  6  1  0  0  0  0
 14  9  1  0  0  0  0
M  RAD  3   1   3   4   2   5   2
M  END
$$$$
