butane_opt
 OpenBabel08242015383D

 14 13  0  0  0  0  0  0  0  0999 V2000
   -3.9699    0.2879    0.0794 C   0  0  0  0  0  0  0  0  0  0  0  0
   -2.6785   -0.6429   -0.0711 C   0  0  0  0  0  0  0  0  0  0  0  0
   -4.8791   -0.3558    0.5278 H   0  0  0  0  0  0  0  0  0  0  0  0
   -4.4115    1.0309   -0.8725 H   0  0  0  0  0  0  0  0  0  0  0  0
   -3.7825    0.8217    0.8877 H   0  0  0  0  0  0  0  0  0  0  0  0
   -1.3745    0.1545   -0.0410 C   0  0  0  0  0  0  0  0  0  0  0  0
   -2.7740   -1.4146   -1.0268 H   0  0  0  0  0  0  0  0  0  0  0  0
   -2.5946   -1.0982    0.6796 H   0  0  0  0  0  0  0  0  0  0  0  0
   -0.1612   -0.6752    0.1332 C   0  0  0  0  0  0  0  0  0  0  0  0
   -1.4892    0.7321    0.8145 H   0  0  0  0  0  0  0  0  0  0  0  0
   -1.4134    0.9720   -1.0728 H   0  0  0  0  0  0  0  0  0  0  0  0
   -0.2933   -1.2823    1.0370 H   0  0  0  0  0  0  0  0  0  0  0  0
    0.8756    0.0210    0.0664 H   0  0  0  0  0  0  0  0  0  0  0  0
   -0.0601   -1.3784   -0.8321 H   0  0  0  0  0  0  0  0  0  0  0  0
  1  3  1  0  0  0  0
  1  5  1  0  0  0  0
  2  6  1  0  0  0  0
  2  1  1  0  0  0  0
  2  8  1  0  0  0  0
  4  1  1  0  0  0  0
  6  9  1  0  0  0  0
  6 10  1  0  0  0  0
  7  2  1  0  0  0  0
  9 12  1  0  0  0  0
 11  6  1  0  0  0  0
 13  9  1  0  0  0  0
 14  9  1  0  0  0  0
M  END
$$$$
