butane_opt
 OpenBabel08242015383D

 14 13  0  0  0  0  0  0  0  0999 V2000
   -3.9793    0.2834    0.1027 C   0  0  0  0  0  0  0  0  0  0  0  0
   -2.7223   -0.6471   -0.0229 C   0  0  0  0  0  0  0  0  0  0  0  0
   -4.7985   -0.2739    0.0120 H   0  0  0  0  0  0  0  0  0  0  0  0
   -4.0772    0.8749   -0.8035 H   0  0  0  0  0  0  0  0  0  0  0  0
   -4.0986    1.1902    1.1086 H   0  0  0  0  0  0  0  0  0  0  0  0
   -1.3521    0.1697   -0.1020 C   0  0  0  0  0  0  0  0  0  0  0  0
   -2.9137   -1.3221   -0.9066 H   0  0  0  0  0  0  0  0  0  0  0  0
   -2.4707   -1.3605    0.9253 H   0  0  0  0  0  0  0  0  0  0  0  0
   -0.1669   -0.6915    0.1152 C   0  0  0  0  0  0  0  0  0  0  0  0
   -1.4126    0.7759    0.6659 H   0  0  0  0  0  0  0  0  0  0  0  0
   -1.2375    0.8609   -1.1357 H   0  0  0  0  0  0  0  0  0  0  0  0
   -0.4132   -1.1195    0.9351 H   0  0  0  0  0  0  0  0  0  0  0  0
    0.9069    0.0177    0.3371 H   0  0  0  0  0  0  0  0  0  0  0  0
    0.1338   -1.4691   -0.8387 H   0  0  0  0  0  0  0  0  0  0  0  0
  1  5  1  0  0  0  0
  2  1  1  0  0  0  0
  2  8  1  0  0  0  0
  3  1  1  0  0  0  0
  4  1  1  0  0  0  0
  6  2  1  0  0  0  0
  6  9  1  0  0  0  0
  6 10  1  0  0  0  0
  7  2  1  0  0  0  0
  9 13  1  0  0  0  0
  9 12  1  0  0  0  0
 11  6  1  0  0  0  0
 14  9  1  0  0  0  0
M  END
$$$$
