14
butane_opt
C  -3.986250   0.258224  -0.099293
C  -2.700284  -0.620823   0.160093
H  -4.879772  -0.329256  -0.248531
H  -3.734269   0.801609  -0.961602
H  -4.090462   0.947772   0.815914
C  -1.380175   0.230811   0.130021
H  -2.777160  -1.237366  -0.632858
H  -2.836640  -1.366073   1.171315
C  -0.135284  -0.717651  -0.092814
H  -1.238494   0.973702   1.048533
H  -1.537293   0.826897  -0.612195
H  -0.088108  -1.402040   0.805215
H   0.632505  -0.155689  -0.235409
H  -0.046197  -1.348450  -0.894382
