14
butane_opt
C  -3.911454   0.252384   0.018608
C  -2.714108  -0.582534   0.038996
H  -4.843719  -0.458168   0.062542
H  -3.734813   0.708178  -0.790375
H  -3.932118   0.915068   0.885888
C  -1.432857   0.187675   0.007787
H  -2.650608  -1.352944  -0.881422
H  -2.772900  -1.026743   0.816262
C  -0.137075  -0.709058   0.045713
H  -1.478318   0.910091   0.823669
H  -1.604943   0.900654  -0.911260
H  -0.078528  -1.424972   1.062217
H   0.705145  -0.172886  -0.194501
H  -0.283374  -1.272007  -0.719052
