butane_opt
 OpenBabel08242015383D

 14 13  0  0  0  0  0  0  0  0999 V2000
   -3.9191    0.2793   -0.0830 C   0  0  0  0  0  0  0  0  0  0  0  0
   -2.6600   -0.6257    0.1887 C   0  0  0  0  0  0  0  0  0  0  0  0
   -4.8640   -0.3602   -0.4562 H   0  0  0  0  0  0  0  0  0  0  0  0
   -3.7658    0.7214   -0.9635 H   0  0  0  0  0  0  0  0  0  0  0  0
   -4.3385    0.9669    0.8149 H   0  0  0  0  0  0  0  0  0  0  0  0
   -1.4020    0.1692    0.1194 C   0  0  0  0  0  0  0  0  0  0  0  0
   -2.4758   -1.1346   -0.5533 H   0  0  0  0  0  0  0  0  0  0  0  0
   -2.7785   -1.3411    1.2157 H   0  0  0  0  0  0  0  0  0  0  0  0
   -0.2160   -0.6597   -0.0887 C   0  0  0  0  0  0  0  0  0  0  0  0
   -1.3891    0.8053    0.9248 H   0  0  0  0  0  0  0  0  0  0  0  0
   -1.4430    0.7975   -0.7976 H   0  0  0  0  0  0  0  0  0  0  0  0
    0.0395   -1.2360    0.7619 H   0  0  0  0  0  0  0  0  0  0  0  0
    0.7152   -0.0713   -0.0232 H   0  0  0  0  0  0  0  0  0  0  0  0
   -0.3536   -1.5918   -1.1122 H   0  0  0  0  0  0  0  0  0  0  0  0
  1  2  1  0  0  0  0
  1  5  1  0  0  0  0
  2  8  1  0  0  0  0
  3  1  1  0  0  0  0
  4  1  1  0  0  0  0
  6  2  1  0  0  0  0
  6 10  1  0  0  0  0
  7  2  1  0  0  0  0
  9 13  1  0  0  0  0
  9  6  1  0  0  0  0
  9 12  1  0  0  0  0
 11  6  1  0  0  0  0
 14  9  1  0  0  0  0
M  END
$$$$
