butane_opt
 OpenBabel08242015383D

 14 13  0  0  0  0  0  0  0  0999 V2000
   -4.0110    0.3076    0.1140 C   0  0  0  0  0  0  0  0  0  0  0  0
   -2.6813   -0.6613   -0.0980 C   0  0  0  0  0  0  0  0  0  0  0  0
   -4.9173   -0.2466   -0.0910 H   0  0  0  0  0  0  0  0  0  0  0  0
   -4.1002    0.6336   -0.6381 H   0  0  0  0  0  0  0  0  0  0  0  0
   -3.9539    1.1413    1.0414 H   0  0  0  0  0  0  0  0  0  0  0  0
   -1.3675    0.1584   -0.0389 C   0  0  0  0  0  0  0  0  0  0  0  0
   -2.7302   -1.4149   -0.9687 H   0  0  0  0  0  0  0  0  0  0  0  0
   -2.6337   -1.2934    0.8036 H   0  0  0  0  0  0  0  0  0  0  0  0
   -0.1318   -0.6638    0.1235 C   0  0  0  0  0  0  0  0  0  0  0  0
   -1.3734    0.8215    0.7401 H   0  0  0  0  0  0  0  0  0  0  0  0
   -1.2543    0.8985   -0.9764 H   0  0  0  0  0  0  0  0  0  0  0  0
   -0.0898   -1.6569    1.2394 H   0  0  0  0  0  0  0  0  0  0  0  0
    0.6890   -0.0861   -0.3560 H   0  0  0  0  0  0  0  0  0  0  0  0
   -0.3564   -0.9629   -0.5090 H   0  0  0  0  0  0  0  0  0  0  0  0
  1  5  1  0  0  0  0
  2  6  1  0  0  0  0
  2  1  1  0  0  0  0
  2  8  1  0  0  0  0
  3  1  1  0  0  0  0
  4  1  1  0  0  0  0
  6  9  1  0  0  0  0
  6 10  1  0  0  0  0
  7  2  1  0  0  0  0
  9 12  1  0  0  0  0
 11  6  1  0  0  0  0
 13  9  1  0  0  0  0
 14  9  1  0  0  0  0
M  END
$$$$
