butane_opt
 OpenBabel08242015383D

 14 13  0  0  0  0  0  0  0  0999 V2000
   -4.0044    0.2723   -0.0550 C   0  0  0  0  0  0  0  0  0  0  0  0
   -2.7053   -0.6545    0.1262 C   0  0  0  0  0  0  0  0  0  0  0  0
   -4.8585   -0.2314   -0.3625 H   0  0  0  0  0  0  0  0  0  0  0  0
   -3.7412    0.8205   -0.9607 H   0  0  0  0  0  0  0  0  0  0  0  0
   -4.2306    1.2057    0.9347 H   0  0  0  0  0  0  0  0  0  0  0  0
   -1.3805    0.1638    0.0858 C   0  0  0  0  0  0  0  0  0  0  0  0
   -2.6735   -1.0929   -0.6077 H   0  0  0  0  0  0  0  0  0  0  0  0
   -2.6212   -1.4923    1.1472 H   0  0  0  0  0  0  0  0  0  0  0  0
   -0.1263   -0.6733   -0.0468 C   0  0  0  0  0  0  0  0  0  0  0  0
   -1.3491    0.9367    1.0005 H   0  0  0  0  0  0  0  0  0  0  0  0
   -1.4494    0.6760   -0.7315 H   0  0  0  0  0  0  0  0  0  0  0  0
   -0.0784   -1.2720    0.7835 H   0  0  0  0  0  0  0  0  0  0  0  0
    0.7785   -0.0191   -0.2411 H   0  0  0  0  0  0  0  0  0  0  0  0
   -0.2081   -1.2916   -0.8414 H   0  0  0  0  0  0  0  0  0  0  0  0
  1  2  1  0  0  0  0
  1  5  1  0  0  0  0
  2  8  1  0  0  0  0
  3  1  1  0  0  0  0
  4  1  1  0  0  0  0
  6  2  1  0  0  0  0
  6 10  1  0  0  0  0
  7  2  1  0  0  0  0
  9  6  1  0  0  0  0
  9 12  1  0  0  0  0
 11  6  1  0  0  0  0
 13  9  1  0  0  0  0
 14  9  1  0  0  0  0
M  END
$$$$
