butane_opt
 OpenBabel08242015383D

 14 13  0  0  0  0  0  0  0  0999 V2000
   -3.9749    0.2878   -0.0736 C   0  0  0  0  0  0  0  0  0  0  0  0
   -2.6754   -0.6765    0.1305 C   0  0  0  0  0  0  0  0  0  0  0  0
   -4.8803   -0.2259   -0.0760 H   0  0  0  0  0  0  0  0  0  0  0  0
   -3.9002    0.9008   -0.9451 H   0  0  0  0  0  0  0  0  0  0  0  0
   -4.1776    1.1015    0.7948 H   0  0  0  0  0  0  0  0  0  0  0  0
   -1.4168    0.1513    0.1346 C   0  0  0  0  0  0  0  0  0  0  0  0
   -2.4691   -1.3393   -0.6537 H   0  0  0  0  0  0  0  0  0  0  0  0
   -2.7676   -1.2559    0.9426 H   0  0  0  0  0  0  0  0  0  0  0  0
   -0.1532   -0.6394   -0.0641 C   0  0  0  0  0  0  0  0  0  0  0  0
   -1.2610    0.7629    0.9847 H   0  0  0  0  0  0  0  0  0  0  0  0
   -1.2765    0.8557   -0.8284 H   0  0  0  0  0  0  0  0  0  0  0  0
   -0.0438   -1.4248    0.8654 H   0  0  0  0  0  0  0  0  0  0  0  0
    0.6994   -0.0707   -0.1987 H   0  0  0  0  0  0  0  0  0  0  0  0
   -0.3131   -1.2585   -0.9397 H   0  0  0  0  0  0  0  0  0  0  0  0
  1  2  1  0  0  0  0
  1  5  1  0  0  0  0
  2  6  1  0  0  0  0
  2  8  1  0  0  0  0
  3  1  1  0  0  0  0
  4  1  1  0  0  0  0
  6 10  1  0  0  0  0
  7  2  1  0  0  0  0
  9  6  1  0  0  0  0
  9 12  1  0  0  0  0
 11  6  1  0  0  0  0
 13  9  1  0  0  0  0
 14  9  1  0  0  0  0
M  END
$$$$
