butane_opt
 OpenBabel08242015383D

 14 13  0  0  0  0  0  0  0  0999 V2000
   -3.9537    0.2806    0.0564 C   0  0  0  0  0  0  0  0  0  0  0  0
   -2.6719   -0.6419   -0.0120 C   0  0  0  0  0  0  0  0  0  0  0  0
   -4.8558   -0.3498    0.1886 H   0  0  0  0  0  0  0  0  0  0  0  0
   -4.0297    0.8959   -0.7746 H   0  0  0  0  0  0  0  0  0  0  0  0
   -3.7084    1.0229    0.9834 H   0  0  0  0  0  0  0  0  0  0  0  0
   -1.4295    0.1552   -0.0808 C   0  0  0  0  0  0  0  0  0  0  0  0
   -2.7748   -1.1063   -0.7231 H   0  0  0  0  0  0  0  0  0  0  0  0
   -2.4987   -1.3251    0.8469 H   0  0  0  0  0  0  0  0  0  0  0  0
   -0.1769   -0.6791    0.0874 C   0  0  0  0  0  0  0  0  0  0  0  0
   -1.4418    0.8114    0.7673 H   0  0  0  0  0  0  0  0  0  0  0  0
   -1.2643    0.8070   -0.9740 H   0  0  0  0  0  0  0  0  0  0  0  0
   -0.3231   -1.0887    0.9419 H   0  0  0  0  0  0  0  0  0  0  0  0
    0.7616    0.0350    0.4221 H   0  0  0  0  0  0  0  0  0  0  0  0
   -0.1231   -1.5617   -0.8815 H   0  0  0  0  0  0  0  0  0  0  0  0
  1  3  1  0  0  0  0
  1  5  1  0  0  0  0
  2  1  1  0  0  0  0
  2  8  1  0  0  0  0
  4  1  1  0  0  0  0
  6  2  1  0  0  0  0
  6  9  1  0  0  0  0
  6 10  1  0  0  0  0
  7  2  1  0  0  0  0
  9 13  1  0  0  0  0
  9 12  1  0  0  0  0
 11  6  1  0  0  0  0
 14  9  1  0  0  0  0
M  END
$$$$
