14
butane_opt
C  -3.964704   0.284633   0.041796
C  -2.745769  -0.614366   0.025146
H  -4.834184  -0.333360   0.305625
H  -4.147356   0.921603  -0.827462
H  -4.006675   0.942168   0.955918
C  -1.375704   0.147712  -0.086603
H  -2.733525  -1.339249  -0.844057
H  -2.692616  -1.247708   0.910077
C  -0.125244  -0.693492   0.064912
H  -1.341378   0.886585   0.905641
H  -1.312416   0.780285  -0.987479
H  -0.405909  -1.087202   0.816464
H   0.794519  -0.030169   0.427005
H   0.194261  -1.449741  -0.781030
