14
butane_opt
C  -3.934521   0.277105   0.041883
C  -2.689548  -0.629972   0.033146
H  -4.838644  -0.316268   0.017722
H  -4.005502   0.863503  -0.836970
H  -3.960407   0.945840   0.877176
C  -1.409300   0.165341  -0.019585
H  -2.754958  -1.324226  -0.837636
H  -2.661134  -1.213256   0.881136
C  -0.170208  -0.680364   0.047488
H  -1.395372   0.806456   0.797226
H  -1.416150   0.892716  -0.950905
H  -0.257094  -1.236567   0.897057
H   0.766818  -0.080231   0.174443
H  -0.063673  -1.397555  -0.821747
