14
butane_opt
C  -3.927411   0.264977  -0.010855
C  -2.698384  -0.621708   0.071598
H  -4.825963  -0.308054   0.079854
H  -4.000697   0.929250  -0.935947
H  -3.939339   0.901914   0.854186
C  -1.415856   0.179154   0.020828
H  -2.689320  -1.251662  -0.737475
H  -2.702034  -1.308186   0.977200
C  -0.167187  -0.683619   0.008775
H  -1.383633   0.873499   0.906654
H  -1.416650   0.826238  -0.882391
H  -0.188200  -1.189346   0.839011
H   0.755851  -0.101447   0.183658
H  -0.131519  -1.507854  -0.944957
