butane_opt
 OpenBabel08242015383D

 14 12  0  0  0  0  0  0  0  0999 V2000
   -3.9690    0.3224    0.0333 C   0  0  0  0  0  0  0  0  0  0  0  0
   -2.7274   -0.6796    0.0300 C   0  0  0  0  0  0  0  0  0  0  0  0
   -4.8719   -0.2722   -0.3699 H   0  0  0  0  0  0  0  0  0  0  0  0
   -3.9495    0.6207   -0.6120 H   0  0  0  0  0  0  0  0  0  0  0  0
   -4.1720    1.3547    1.1376 H   0  0  0  0  0  0  0  0  0  0  0  0
   -1.3535    0.1440   -0.0512 C   0  0  0  0  0  0  0  0  0  0  0  0
   -2.7721   -1.2403   -0.6716 H   0  0  0  0  0  0  0  0  0  0  0  0
   -2.7153   -1.5303    1.0362 H   0  0  0  0  0  0  0  0  0  0  0  0
   -0.1363   -0.6755    0.0585 C   0  0  0  0  0  0  0  0  0  0  0  0
   -1.3543    0.8128    0.8347 H   0  0  0  0  0  0  0  0  0  0  0  0
   -1.3969    0.9041   -0.9723 H   0  0  0  0  0  0  0  0  0  0  0  0
   -0.0812   -1.2255    0.9139 H   0  0  0  0  0  0  0  0  0  0  0  0
    0.7548    0.0054    0.0793 H   0  0  0  0  0  0  0  0  0  0  0  0
   -0.2449   -1.2383   -0.7455 H   0  0  0  0  0  0  0  0  0  0  0  0
  2  1  1  0  0  0  0
  2  8  1  0  0  0  0
  3  1  1  0  0  0  0
  4  1  1  0  0  0  0
  6  2  1  0  0  0  0
  6  9  1  0  0  0  0
  6 10  1  0  0  0  0
  7  2  1  0  0  0  0
  9 13  1  0  0  0  0
  9 12  1  0  0  0  0
 11  6  1  0  0  0  0
 14  9  1  0  0  0  0
M  RAD  2   1   2   5   2
M  END
$$$$
