butane_opt
 OpenBabel08242015383D

 14 13  0  0  0  0  0  0  0  0999 V2000
   -3.9384    0.2748    0.0899 C   0  0  0  0  0  0  0  0  0  0  0  0
   -2.6763   -0.5993   -0.0669 C   0  0  0  0  0  0  0  0  0  0  0  0
   -4.9065   -0.4647    0.2939 H   0  0  0  0  0  0  0  0  0  0  0  0
   -4.0603    0.8184   -0.7252 H   0  0  0  0  0  0  0  0  0  0  0  0
   -3.6598    0.8655    1.0297 H   0  0  0  0  0  0  0  0  0  0  0  0
   -1.4452    0.1802   -0.0760 C   0  0  0  0  0  0  0  0  0  0  0  0
   -2.6835   -1.3740   -1.0545 H   0  0  0  0  0  0  0  0  0  0  0  0
   -2.5721   -1.1310    0.7594 H   0  0  0  0  0  0  0  0  0  0  0  0
   -0.1885   -0.7029    0.1139 C   0  0  0  0  0  0  0  0  0  0  0  0
   -1.3836    0.9287    0.8422 H   0  0  0  0  0  0  0  0  0  0  0  0
   -1.2900    0.8004   -0.9835 H   0  0  0  0  0  0  0  0  0  0  0  0
   -0.3155   -1.5405    1.1635 H   0  0  0  0  0  0  0  0  0  0  0  0
    0.8069    0.0084   -0.0392 H   0  0  0  0  0  0  0  0  0  0  0  0
    0.0136   -1.2085   -0.5703 H   0  0  0  0  0  0  0  0  0  0  0  0
  1  3  1  0  0  0  0
  1  5  1  0  0  0  0
  2  1  1  0  0  0  0
  2  8  1  0  0  0  0
  4  1  1  0  0  0  0
  6  2  1  0  0  0  0
  6  9  1  0  0  0  0
  6 10  1  0  0  0  0
  7  2  1  0  0  0  0
  9 12  1  0  0  0  0
 11  6  1  0  0  0  0
 13  9  1  0  0  0  0
 14  9  1  0  0  0  0
M  END
$$$$
