butane_opt
 OpenBabel08242015383D

 14 13  0  0  0  0  0  0  0  0999 V2000
   -3.9526    0.2378   -0.0038 C   0  0  0  0  0  0  0  0  0  0  0  0
   -2.7481   -0.5955    0.0579 C   0  0  0  0  0  0  0  0  0  0  0  0
   -4.8499   -0.4017   -0.2219 H   0  0  0  0  0  0  0  0  0  0  0  0
   -3.7706    0.7415   -0.8274 H   0  0  0  0  0  0  0  0  0  0  0  0
   -4.0307    1.1382    0.9288 H   0  0  0  0  0  0  0  0  0  0  0  0
   -1.3778    0.2254    0.0277 C   0  0  0  0  0  0  0  0  0  0  0  0
   -2.8525   -1.1404   -0.6995 H   0  0  0  0  0  0  0  0  0  0  0  0
   -2.7448   -1.4477    1.1220 H   0  0  0  0  0  0  0  0  0  0  0  0
   -0.1345   -0.7161    0.0073 C   0  0  0  0  0  0  0  0  0  0  0  0
   -1.4169    0.9223    0.9657 H   0  0  0  0  0  0  0  0  0  0  0  0
   -1.4062    0.8742   -0.8739 H   0  0  0  0  0  0  0  0  0  0  0  0
    0.1225   -1.3374    0.8995 H   0  0  0  0  0  0  0  0  0  0  0  0
    0.5350   -0.2958   -0.0403 H   0  0  0  0  0  0  0  0  0  0  0  0
   -0.0535   -1.3667   -0.8742 H   0  0  0  0  0  0  0  0  0  0  0  0
  1  2  1  0  0  0  0
  1  5  1  0  0  0  0
  2  8  1  0  0  0  0
  3  1  1  0  0  0  0
  4  1  1  0  0  0  0
  6  2  1  0  0  0  0
  6 10  1  0  0  0  0
  7  2  1  0  0  0  0
  9  6  1  0  0  0  0
  9 12  1  0  0  0  0
 11  6  1  0  0  0  0
 13  9  1  0  0  0  0
 14  9  1  0  0  0  0
M  END
$$$$
