butane_opt
 OpenBabel08242015383D

 14 13  0  0  0  0  0  0  0  0999 V2000
   -3.9504    0.2707   -0.0120 C   0  0  0  0  0  0  0  0  0  0  0  0
   -2.7066   -0.6343    0.0490 C   0  0  0  0  0  0  0  0  0  0  0  0
   -4.8261   -0.2982    0.1508 H   0  0  0  0  0  0  0  0  0  0  0  0
   -4.0181    0.9989   -0.9482 H   0  0  0  0  0  0  0  0  0  0  0  0
   -3.9767    0.8236    0.7775 H   0  0  0  0  0  0  0  0  0  0  0  0
   -1.3905    0.1980    0.0547 C   0  0  0  0  0  0  0  0  0  0  0  0
   -2.7076   -1.2734   -0.7903 H   0  0  0  0  0  0  0  0  0  0  0  0
   -2.7682   -1.2589    0.9453 H   0  0  0  0  0  0  0  0  0  0  0  0
   -0.1588   -0.6984    0.0090 C   0  0  0  0  0  0  0  0  0  0  0  0
   -1.3439    0.8832    0.9258 H   0  0  0  0  0  0  0  0  0  0  0  0
   -1.4407    0.7930   -0.7996 H   0  0  0  0  0  0  0  0  0  0  0  0
   -0.0790   -1.3028    0.8907 H   0  0  0  0  0  0  0  0  0  0  0  0
    0.7757   -0.0606   -0.0466 H   0  0  0  0  0  0  0  0  0  0  0  0
   -0.1708   -1.4013   -0.8823 H   0  0  0  0  0  0  0  0  0  0  0  0
  1  2  1  0  0  0  0
  1  3  1  0  0  0  0
  1  5  1  0  0  0  0
  2  6  1  0  0  0  0
  2  8  1  0  0  0  0
  4  1  1  0  0  0  0
  6 10  1  0  0  0  0
  7  2  1  0  0  0  0
  9  6  1  0  0  0  0
  9 12  1  0  0  0  0
 11  6  1  0  0  0  0
 13  9  1  0  0  0  0
 14  9  1  0  0  0  0
M  END
$$$$
