butane_opt
 OpenBabel08242015383D

 14 12  0  0  0  0  0  0  0  0999 V2000
   -3.9446    0.2732   -0.0453 C   0  0  0  0  0  0  0  0  0  0  0  0
   -2.6970   -0.6260    0.0697 C   0  0  0  0  0  0  0  0  0  0  0  0
   -4.9097   -0.4128    0.4391 H   0  0  0  0  0  0  0  0  0  0  0  0
   -3.9824    1.3226   -1.1872 H   0  0  0  0  0  0  0  0  0  0  0  0
   -3.7332    0.6285    0.5851 H   0  0  0  0  0  0  0  0  0  0  0  0
   -1.4222    0.1509    0.0817 C   0  0  0  0  0  0  0  0  0  0  0  0
   -2.6609   -1.2297   -0.7489 H   0  0  0  0  0  0  0  0  0  0  0  0
   -2.4661   -1.3104    0.9406 H   0  0  0  0  0  0  0  0  0  0  0  0
   -0.1702   -0.6779   -0.0266 C   0  0  0  0  0  0  0  0  0  0  0  0
   -1.3236    1.1515    1.1111 H   0  0  0  0  0  0  0  0  0  0  0  0
   -1.4294    0.6515   -0.6647 H   0  0  0  0  0  0  0  0  0  0  0  0
   -0.1570   -1.2643    0.8508 H   0  0  0  0  0  0  0  0  0  0  0  0
    0.7187   -0.0233    0.1272 H   0  0  0  0  0  0  0  0  0  0  0  0
   -0.2737   -1.4425   -1.0138 H   0  0  0  0  0  0  0  0  0  0  0  0
  1  2  1  0  0  0  0
  1  3  1  0  0  0  0
  1  5  1  0  0  0  0
  2  6  1  0  0  0  0
  2  8  1  0  0  0  0
  6 10  1  0  0  0  0
  7  2  1  0  0  0  0
  9  6  1  0  0  0  0
  9 13  1  0  0  0  0
  9 12  1  0  0  0  0
 11  6  1  0  0  0  0
 14  9  1  0  0  0  0
M  RAD  2   1   2   4   2
M  END
$$$$
