butane_opt
 OpenBabel08242015383D

 14 13  0  0  0  0  0  0  0  0999 V2000
   -3.9702    0.3024   -0.0920 C   0  0  0  0  0  0  0  0  0  0  0  0
   -2.7282   -0.6520    0.1666 C   0  0  0  0  0  0  0  0  0  0  0  0
   -4.7967   -0.1168   -0.3845 H   0  0  0  0  0  0  0  0  0  0  0  0
   -3.8371    0.6684   -0.8157 H   0  0  0  0  0  0  0  0  0  0  0  0
   -4.2664    1.1298    0.8518 H   0  0  0  0  0  0  0  0  0  0  0  0
   -1.3880    0.1397    0.0887 C   0  0  0  0  0  0  0  0  0  0  0  0
   -2.7372   -1.1229   -0.5363 H   0  0  0  0  0  0  0  0  0  0  0  0
   -2.7035   -1.4509    1.1786 H   0  0  0  0  0  0  0  0  0  0  0  0
   -0.1230   -0.6579   -0.0558 C   0  0  0  0  0  0  0  0  0  0  0  0
   -1.2446    0.8930    0.9302 H   0  0  0  0  0  0  0  0  0  0  0  0
   -1.3011    0.6388   -0.7052 H   0  0  0  0  0  0  0  0  0  0  0  0
   -0.1297   -1.2146    0.8009 H   0  0  0  0  0  0  0  0  0  0  0  0
    0.8159   -0.0100   -0.2468 H   0  0  0  0  0  0  0  0  0  0  0  0
   -0.3232   -1.4680   -0.9368 H   0  0  0  0  0  0  0  0  0  0  0  0
  1  2  1  0  0  0  0
  1  5  1  0  0  0  0
  2  8  1  0  0  0  0
  3  1  1  0  0  0  0
  4  1  1  0  0  0  0
  6  2  1  0  0  0  0
  6 10  1  0  0  0  0
  7  2  1  0  0  0  0
  9  6  1  0  0  0  0
  9 12  1  0  0  0  0
 11  6  1  0  0  0  0
 13  9  1  0  0  0  0
 14  9  1  0  0  0  0
M  END
$$$$
