butane_opt
 OpenBabel08242015383D

 14 13  0  0  0  0  0  0  0  0999 V2000
   -3.9361    0.2670    0.0445 C   0  0  0  0  0  0  0  0  0  0  0  0
   -2.6890   -0.6254    0.0160 C   0  0  0  0  0  0  0  0  0  0  0  0
   -4.8351   -0.3154    0.0107 H   0  0  0  0  0  0  0  0  0  0  0  0
   -4.0275    0.8605   -0.8284 H   0  0  0  0  0  0  0  0  0  0  0  0
   -3.9865    0.9712    0.9274 H   0  0  0  0  0  0  0  0  0  0  0  0
   -1.4145    0.1772   -0.0215 C   0  0  0  0  0  0  0  0  0  0  0  0
   -2.7472   -1.3030   -0.8269 H   0  0  0  0  0  0  0  0  0  0  0  0
   -2.6507   -1.2361    0.9116 H   0  0  0  0  0  0  0  0  0  0  0  0
   -0.1698   -0.6869    0.0536 C   0  0  0  0  0  0  0  0  0  0  0  0
   -1.3915    0.8716    0.8276 H   0  0  0  0  0  0  0  0  0  0  0  0
   -1.3416    0.8452   -0.9337 H   0  0  0  0  0  0  0  0  0  0  0  0
   -0.2152   -1.3213    0.9597 H   0  0  0  0  0  0  0  0  0  0  0  0
    0.7805   -0.0863    0.0834 H   0  0  0  0  0  0  0  0  0  0  0  0
   -0.0926   -1.3447   -0.8072 H   0  0  0  0  0  0  0  0  0  0  0  0
  1  5  1  0  0  0  0
  2  1  1  0  0  0  0
  2  8  1  0  0  0  0
  3  1  1  0  0  0  0
  4  1  1  0  0  0  0
  6  2  1  0  0  0  0
  6  9  1  0  0  0  0
  6 10  1  0  0  0  0
  7  2  1  0  0  0  0
  9 13  1  0  0  0  0
  9 12  1  0  0  0  0
 11  6  1  0  0  0  0
 14  9  1  0  0  0  0
M  END
$$$$
