butane_opt
 OpenBabel08242015383D

 14 13  0  0  0  0  0  0  0  0999 V2000
   -3.9761    0.2229    0.0720 C   0  0  0  0  0  0  0  0  0  0  0  0
   -2.7218   -0.5600   -0.0726 C   0  0  0  0  0  0  0  0  0  0  0  0
   -4.9520   -0.4505    0.4908 H   0  0  0  0  0  0  0  0  0  0  0  0
   -4.3375    1.0202   -0.8896 H   0  0  0  0  0  0  0  0  0  0  0  0
   -3.6367    0.6522    0.8432 H   0  0  0  0  0  0  0  0  0  0  0  0
   -1.3789    0.2305   -0.0366 C   0  0  0  0  0  0  0  0  0  0  0  0
   -2.7860   -1.2571   -0.9860 H   0  0  0  0  0  0  0  0  0  0  0  0
   -2.6978   -1.1219    0.8406 H   0  0  0  0  0  0  0  0  0  0  0  0
   -0.1043   -0.7146    0.1039 C   0  0  0  0  0  0  0  0  0  0  0  0
   -1.4644    0.8910    0.7644 H   0  0  0  0  0  0  0  0  0  0  0  0
   -1.4818    0.7303   -0.8797 H   0  0  0  0  0  0  0  0  0  0  0  0
   -0.1500   -1.3236    1.0563 H   0  0  0  0  0  0  0  0  0  0  0  0
    0.6601   -0.3485    0.0973 H   0  0  0  0  0  0  0  0  0  0  0  0
    0.0382   -1.4293   -0.7296 H   0  0  0  0  0  0  0  0  0  0  0  0
  1  3  1  0  0  0  0
  1  5  1  0  0  0  0
  2  6  1  0  0  0  0
  2  1  1  0  0  0  0
  2  8  1  0  0  0  0
  4  1  1  0  0  0  0
  6  9  1  0  0  0  0
  6 10  1  0  0  0  0
  7  2  1  0  0  0  0
  9 12  1  0  0  0  0
 11  6  1  0  0  0  0
 13  9  1  0  0  0  0
 14  9  1  0  0  0  0
M  END
$$$$
