butane_opt
 OpenBabel08242015383D

 14 13  0  0  0  0  0  0  0  0999 V2000
   -3.9884    0.2871   -0.0647 C   0  0  0  0  0  0  0  0  0  0  0  0
   -2.6865   -0.6774    0.0870 C   0  0  0  0  0  0  0  0  0  0  0  0
   -4.8101   -0.1602    0.0346 H   0  0  0  0  0  0  0  0  0  0  0  0
   -4.1100    1.0393   -1.0169 H   0  0  0  0  0  0  0  0  0  0  0  0
   -4.1258    0.9192    0.7571 H   0  0  0  0  0  0  0  0  0  0  0  0
   -1.3837    0.1660    0.1240 C   0  0  0  0  0  0  0  0  0  0  0  0
   -2.6272   -1.2853   -0.6731 H   0  0  0  0  0  0  0  0  0  0  0  0
   -2.7840   -1.3580    0.9811 H   0  0  0  0  0  0  0  0  0  0  0  0
   -0.1149   -0.6729   -0.0607 C   0  0  0  0  0  0  0  0  0  0  0  0
   -1.2973    0.9741    1.1193 H   0  0  0  0  0  0  0  0  0  0  0  0
   -1.4281    0.6814   -0.6271 H   0  0  0  0  0  0  0  0  0  0  0  0
   -0.0931   -1.4268    0.8796 H   0  0  0  0  0  0  0  0  0  0  0  0
    0.7743   -0.0615   -0.2303 H   0  0  0  0  0  0  0  0  0  0  0  0
   -0.4275   -1.0141   -0.7940 H   0  0  0  0  0  0  0  0  0  0  0  0
  1  3  1  0  0  0  0
  1  2  1  0  0  0  0
  1  5  1  0  0  0  0
  2  6  1  0  0  0  0
  2  8  1  0  0  0  0
  4  1  1  0  0  0  0
  6 10  1  0  0  0  0
  7  2  1  0  0  0  0
  9  6  1  0  0  0  0
  9 12  1  0  0  0  0
 11  6  1  0  0  0  0
 13  9  1  0  0  0  0
 14  9  1  0  0  0  0
M  END
$$$$
