butane_opt
 OpenBabel08242015383D

 14 12  0  0  0  0  0  0  0  0999 V2000
   -3.8764    0.2360    0.0618 C   0  0  0  0  0  0  0  0  0  0  0  0
   -2.7033   -0.5791    0.0538 C   0  0  0  0  0  0  0  0  0  0  0  0
   -4.8337   -0.4555   -0.3977 H   0  0  0  0  0  0  0  0  0  0  0  0
   -3.7611    0.5158   -0.6232 H   0  0  0  0  0  0  0  0  0  0  0  0
   -4.1770    1.3040    1.1204 H   0  0  0  0  0  0  0  0  0  0  0  0
   -1.4293    0.2009   -0.0715 C   0  0  0  0  0  0  0  0  0  0  0  0
   -2.8836   -1.3878   -0.9325 H   0  0  0  0  0  0  0  0  0  0  0  0
   -2.5505   -1.0956    0.9174 H   0  0  0  0  0  0  0  0  0  0  0  0
   -0.1802   -0.7299    0.0795 C   0  0  0  0  0  0  0  0  0  0  0  0
   -1.4304    0.7992    0.7225 H   0  0  0  0  0  0  0  0  0  0  0  0
   -1.4646    1.0547   -1.1178 H   0  0  0  0  0  0  0  0  0  0  0  0
   -0.1956   -1.4356    0.9746 H   0  0  0  0  0  0  0  0  0  0  0  0
    0.7787   -0.1268    0.0550 H   0  0  0  0  0  0  0  0  0  0  0  0
   -0.1950   -1.2089   -0.7087 H   0  0  0  0  0  0  0  0  0  0  0  0
  2  1  1  0  0  0  0
  2  8  1  0  0  0  0
  3  1  1  0  0  0  0
  4  1  1  0  0  0  0
  6  2  1  0  0  0  0
  6  9  1  0  0  0  0
  6 10  1  0  0  0  0
  7  2  1  0  0  0  0
  9 12  1  0  0  0  0
 11  6  1  0  0  0  0
 13  9  1  0  0  0  0
 14  9  1  0  0  0  0
M  RAD  2   1   2   5   2
M  END
$$$$
