butane_opt
 OpenBabel08242015383D

 14 13  0  0  0  0  0  0  0  0999 V2000
   -3.9657    0.2507   -0.0519 C   0  0  0  0  0  0  0  0  0  0  0  0
   -2.7243   -0.5953    0.1363 C   0  0  0  0  0  0  0  0  0  0  0  0
   -4.8432   -0.2381    0.1491 H   0  0  0  0  0  0  0  0  0  0  0  0
   -3.9213    1.0753   -1.0832 H   0  0  0  0  0  0  0  0  0  0  0  0
   -4.1113    0.5830    0.5373 H   0  0  0  0  0  0  0  0  0  0  0  0
   -1.3926    0.1913    0.0824 C   0  0  0  0  0  0  0  0  0  0  0  0
   -2.8245   -1.2518   -0.6968 H   0  0  0  0  0  0  0  0  0  0  0  0
   -2.8427   -1.2248    1.0169 H   0  0  0  0  0  0  0  0  0  0  0  0
   -0.0949   -0.7029   -0.0235 C   0  0  0  0  0  0  0  0  0  0  0  0
   -1.2832    0.9684    0.9184 H   0  0  0  0  0  0  0  0  0  0  0  0
   -1.5088    0.7959   -0.7731 H   0  0  0  0  0  0  0  0  0  0  0  0
   -0.1406   -1.0456    0.6075 H   0  0  0  0  0  0  0  0  0  0  0  0
    0.7191   -0.1409    0.1276 H   0  0  0  0  0  0  0  0  0  0  0  0
   -0.1294   -1.7381   -1.1333 H   0  0  0  0  0  0  0  0  0  0  0  0
  1  2  1  0  0  0  0
  1  3  1  0  0  0  0
  1  5  1  0  0  0  0
  2  8  1  0  0  0  0
  4  1  1  0  0  0  0
  6  2  1  0  0  0  0
  6 10  1  0  0  0  0
  7  2  1  0  0  0  0
  9  6  1  0  0  0  0
  9 13  1  0  0  0  0
  9 12  1  0  0  0  0
 11  6  1  0  0  0  0
 14  9  1  0  0  0  0
M  END
$$$$
