14
butane_opt
C  -3.964085   0.223826   0.099554
C  -2.698968  -0.597898  -0.017000
H  -4.793444  -0.318809  -0.412026
H  -3.826965   0.495780  -0.528016
H  -4.026821   1.233818   1.180300
C  -1.422910   0.240975  -0.070670
H  -2.704457  -1.304863  -0.826475
H  -2.713077  -1.093850   0.848837
C  -0.162044  -0.713583   0.100694
H  -1.444575   0.688838   0.551322
H  -1.199036   1.064473  -1.057096
H  -0.023215  -1.558426   1.105364
H   0.741389  -0.206067  -0.076348
H  -0.051838  -1.328274  -0.659927
