butane_opt
 OpenBabel08242015383D

 14 13  0  0  0  0  0  0  0  0999 V2000
   -3.9490    0.2640    0.0285 C   0  0  0  0  0  0  0  0  0  0  0  0
   -2.7140   -0.6145    0.0206 C   0  0  0  0  0  0  0  0  0  0  0  0
   -4.8524   -0.3369    0.0010 H   0  0  0  0  0  0  0  0  0  0  0  0
   -3.9381    0.8427   -0.8616 H   0  0  0  0  0  0  0  0  0  0  0  0
   -3.9433    0.9115    0.8843 H   0  0  0  0  0  0  0  0  0  0  0  0
   -1.4056    0.2020    0.0120 C   0  0  0  0  0  0  0  0  0  0  0  0
   -2.7480   -1.3201   -0.8659 H   0  0  0  0  0  0  0  0  0  0  0  0
   -2.6818   -1.2401    0.9081 H   0  0  0  0  0  0  0  0  0  0  0  0
   -0.1522   -0.7018    0.0424 C   0  0  0  0  0  0  0  0  0  0  0  0
   -1.3479    0.9345    0.8939 H   0  0  0  0  0  0  0  0  0  0  0  0
   -1.3945    0.7929   -0.8800 H   0  0  0  0  0  0  0  0  0  0  0  0
   -0.0263   -1.4617    1.0010 H   0  0  0  0  0  0  0  0  0  0  0  0
    0.7322   -0.1215   -0.1184 H   0  0  0  0  0  0  0  0  0  0  0  0
   -0.1772   -1.2657   -0.7496 H   0  0  0  0  0  0  0  0  0  0  0  0
  1  5  1  0  0  0  0
  2  1  1  0  0  0  0
  2  8  1  0  0  0  0
  3  1  1  0  0  0  0
  4  1  1  0  0  0  0
  6  2  1  0  0  0  0
  6  9  1  0  0  0  0
  6 10  1  0  0  0  0
  7  2  1  0  0  0  0
  9 12  1  0  0  0  0
 11  6  1  0  0  0  0
 13  9  1  0  0  0  0
 14  9  1  0  0  0  0
M  END
$$$$
