14
butane_opt
C  -3.963279   0.267669   0.116745
C  -2.721318  -0.661510  -0.075130
H  -4.776622  -0.190780   0.433631
H  -4.111564   1.096759  -0.849388
H  -3.857773   0.928319   0.942982
C  -1.376359   0.193812  -0.101037
H  -2.773540  -1.500221  -1.044912
H  -2.604499  -1.143427   0.788343
C  -0.155162  -0.700759   0.162927
H  -1.462833   0.814391   0.680261
H  -1.208650   0.968072  -1.093558
H  -0.259962  -1.131047   0.886752
H   0.753032  -0.077851   0.220153
H  -0.119649  -1.426165  -0.787362
