14
butane_opt
C  -3.933306   0.305434   0.077429
C  -2.681739  -0.651797  -0.024633
H  -4.853976  -0.304523  -0.051728
H  -4.069267   0.769226  -0.701002
H  -4.123816   1.167371   1.035567
C  -1.356404   0.154681  -0.035130
H  -2.777876  -1.495742  -0.938455
H  -2.620768  -1.294776   0.895409
C  -0.211773  -0.645960   0.100840
H  -1.541974   0.652642   0.694074
H  -1.183678   0.897649  -1.074401
H  -0.185774  -1.391372   1.026998
H   0.687682  -0.111411  -0.107177
H  -0.157302  -1.293462  -0.758491
