14
butane_opt
C  -3.911461   0.307433   0.034410
C  -2.687451  -0.644155   0.028617
H  -4.858830  -0.284318   0.054516
H  -4.150795   0.914796  -0.848797
H  -3.930252   0.964772   0.894779
C  -1.388286   0.123232  -0.018784
H  -2.575158  -1.288245  -0.741961
H  -2.651637  -1.428064   0.960354
C  -0.231922  -0.645847   0.032285
H  -1.421920   0.822973   0.876894
H  -1.207544   0.825320  -0.932996
H  -0.306052  -1.251137   0.942292
H   0.706157   0.012781   0.313730
H  -0.019691  -1.452020  -1.019260
