14
butane_opt
C  -3.945199   0.205366  -0.079889
C  -2.723118  -0.570042   0.169982
H  -4.851320  -0.376874  -0.470954
H  -3.791200   0.767448  -0.964028
H  -4.164887   0.995075   0.836609
C  -1.409367   0.234618   0.137437
H  -2.588639  -1.154279  -0.653148
H  -2.805841  -1.316838   1.222393
C  -0.118582  -0.733493  -0.071688
H  -1.294856   0.890982   0.904255
H  -1.570116   0.955498  -0.839577
H   0.099221  -1.210834   0.733466
H   0.595524  -0.305275  -0.144552
H  -0.242392  -1.404660  -1.046375
