butane_opt
 OpenBabel08242015383D

 14 13  0  0  0  0  0  0  0  0999 V2000
   -3.9995    0.2860    0.1042 C   0  0  0  0  0  0  0  0  0  0  0  0
   -2.6751   -0.6764   -0.0256 C   0  0  0  0  0  0  0  0  0  0  0  0
   -4.8759   -0.2717    0.0760 H   0  0  0  0  0  0  0  0  0  0  0  0
   -4.0991    0.8749   -0.7428 H   0  0  0  0  0  0  0  0  0  0  0  0
   -4.0472    1.0637    1.0863 H   0  0  0  0  0  0  0  0  0  0  0  0
   -1.3695    0.1854   -0.1222 C   0  0  0  0  0  0  0  0  0  0  0  0
   -2.9350   -1.4732   -0.9452 H   0  0  0  0  0  0  0  0  0  0  0  0
   -2.5192   -1.1301    0.7894 H   0  0  0  0  0  0  0  0  0  0  0  0
   -0.1594   -0.6692    0.1244 C   0  0  0  0  0  0  0  0  0  0  0  0
   -1.4514    0.7932    0.7144 H   0  0  0  0  0  0  0  0  0  0  0  0
   -1.3360    0.9402   -1.1345 H   0  0  0  0  0  0  0  0  0  0  0  0
   -0.1920   -1.2884    1.0387 H   0  0  0  0  0  0  0  0  0  0  0  0
    0.8515   -0.0739    0.3640 H   0  0  0  0  0  0  0  0  0  0  0  0
    0.0045   -1.4067   -0.7744 H   0  0  0  0  0  0  0  0  0  0  0  0
  1  5  1  0  0  0  0
  2  1  1  0  0  0  0
  2  8  1  0  0  0  0
  3  1  1  0  0  0  0
  4  1  1  0  0  0  0
  6  2  1  0  0  0  0
  6  9  1  0  0  0  0
  6 10  1  0  0  0  0
  7  2  1  0  0  0  0
  9 13  1  0  0  0  0
  9 12  1  0  0  0  0
 11  6  1  0  0  0  0
 14  9  1  0  0  0  0
M  END
$$$$
