14
butane_opt
C  -3.956143   0.258521   0.067370
C  -2.722307  -0.601978   0.063304
H  -5.049663  -0.461619  -0.465328
H  -3.784223   0.424820  -0.531137
H  -4.148123   1.347140   1.129507
C  -1.409982   0.225193  -0.081548
H  -2.652876  -1.400401  -0.950380
H  -2.584535  -1.141768   0.814994
C  -0.130571  -0.711278   0.076470
H  -1.300216   0.631597   0.625322
H  -1.500636   0.891018  -1.067131
H  -0.070257  -1.491696   1.099842
H   0.772554  -0.139502   0.045177
H  -0.060044  -1.201154  -0.679778
