butane_opt
 OpenBabel08242015383D

 14 12  0  0  0  0  0  0  0  0999 V2000
   -3.9309    0.2213   -0.0267 C   0  0  0  0  0  0  0  0  0  0  0  0
   -2.7220   -0.6054    0.0359 C   0  0  0  0  0  0  0  0  0  0  0  0
   -4.8050   -0.3645    0.4753 H   0  0  0  0  0  0  0  0  0  0  0  0
   -4.0412    1.2187   -1.1692 H   0  0  0  0  0  0  0  0  0  0  0  0
   -3.8872    0.5389    0.7316 H   0  0  0  0  0  0  0  0  0  0  0  0
   -1.4081    0.2549    0.0737 C   0  0  0  0  0  0  0  0  0  0  0  0
   -2.7407   -1.0635   -0.7363 H   0  0  0  0  0  0  0  0  0  0  0  0
   -2.8090   -1.2290    0.9564 H   0  0  0  0  0  0  0  0  0  0  0  0
   -0.1331   -0.7343   -0.0132 C   0  0  0  0  0  0  0  0  0  0  0  0
   -1.5822    1.0812    1.0466 H   0  0  0  0  0  0  0  0  0  0  0  0
   -1.3911    0.7133   -0.6910 H   0  0  0  0  0  0  0  0  0  0  0  0
   -0.0545   -1.2758    0.8230 H   0  0  0  0  0  0  0  0  0  0  0  0
    0.7545   -0.1832    0.0798 H   0  0  0  0  0  0  0  0  0  0  0  0
   -0.1180   -1.5485   -0.9632 H   0  0  0  0  0  0  0  0  0  0  0  0
  1  2  1  0  0  0  0
  1  3  1  0  0  0  0
  1  5  1  0  0  0  0
  2  6  1  0  0  0  0
  2  8  1  0  0  0  0
  6 10  1  0  0  0  0
  7  2  1  0  0  0  0
  9  6  1  0  0  0  0
  9 13  1  0  0  0  0
  9 12  1  0  0  0  0
 11  6  1  0  0  0  0
 14  9  1  0  0  0  0
M  RAD  2   1   2   4   2
M  END
$$$$
