butane_opt
 OpenBabel08242015383D

 14 13  0  0  0  0  0  0  0  0999 V2000
   -3.9780    0.2895   -0.0361 C   0  0  0  0  0  0  0  0  0  0  0  0
   -2.7069   -0.6776    0.0952 C   0  0  0  0  0  0  0  0  0  0  0  0
   -4.7206   -0.1718    0.1677 H   0  0  0  0  0  0  0  0  0  0  0  0
   -4.1197    1.0324   -0.9663 H   0  0  0  0  0  0  0  0  0  0  0  0
   -4.0548    0.9022    0.7672 H   0  0  0  0  0  0  0  0  0  0  0  0
   -1.3913    0.1446    0.0376 C   0  0  0  0  0  0  0  0  0  0  0  0
   -2.6660   -1.1533   -0.6525 H   0  0  0  0  0  0  0  0  0  0  0  0
   -2.6614   -1.4572    1.1270 H   0  0  0  0  0  0  0  0  0  0  0  0
   -0.1553   -0.6666   -0.0270 C   0  0  0  0  0  0  0  0  0  0  0  0
   -1.2403    0.9681    0.9478 H   0  0  0  0  0  0  0  0  0  0  0  0
   -1.4723    0.8202   -0.9262 H   0  0  0  0  0  0  0  0  0  0  0  0
   -0.2593   -0.9844    0.6690 H   0  0  0  0  0  0  0  0  0  0  0  0
    0.8100    0.0664    0.5275 H   0  0  0  0  0  0  0  0  0  0  0  0
    0.1066   -1.5708   -1.0767 H   0  0  0  0  0  0  0  0  0  0  0  0
  1  2  1  0  0  0  0
  1  3  1  0  0  0  0
  1  5  1  0  0  0  0
  2  8  1  0  0  0  0
  4  1  1  0  0  0  0
  6  2  1  0  0  0  0
  6 10  1  0  0  0  0
  7  2  1  0  0  0  0
  9  6  1  0  0  0  0
  9 13  1  0  0  0  0
  9 12  1  0  0  0  0
 11  6  1  0  0  0  0
 14  9  1  0  0  0  0
M  END
$$$$
