butane_opt
 OpenBabel08242015383D

 14 13  0  0  0  0  0  0  0  0999 V2000
   -3.9647    0.2846    0.0418 C   0  0  0  0  0  0  0  0  0  0  0  0
   -2.7458   -0.6144    0.0251 C   0  0  0  0  0  0  0  0  0  0  0  0
   -4.8342   -0.3334    0.3056 H   0  0  0  0  0  0  0  0  0  0  0  0
   -4.1474    0.9216   -0.8275 H   0  0  0  0  0  0  0  0  0  0  0  0
   -4.0067    0.9422    0.9559 H   0  0  0  0  0  0  0  0  0  0  0  0
   -1.3757    0.1477   -0.0866 C   0  0  0  0  0  0  0  0  0  0  0  0
   -2.7335   -1.3392   -0.8441 H   0  0  0  0  0  0  0  0  0  0  0  0
   -2.6926   -1.2477    0.9101 H   0  0  0  0  0  0  0  0  0  0  0  0
   -0.1252   -0.6935    0.0649 C   0  0  0  0  0  0  0  0  0  0  0  0
   -1.3414    0.8866    0.9056 H   0  0  0  0  0  0  0  0  0  0  0  0
   -1.3124    0.7803   -0.9875 H   0  0  0  0  0  0  0  0  0  0  0  0
   -0.4059   -1.0872    0.8165 H   0  0  0  0  0  0  0  0  0  0  0  0
    0.7945   -0.0302    0.4270 H   0  0  0  0  0  0  0  0  0  0  0  0
    0.1943   -1.4497   -0.7810 H   0  0  0  0  0  0  0  0  0  0  0  0
  1  3  1  0  0  0  0
  1  5  1  0  0  0  0
  2  1  1  0  0  0  0
  2  8  1  0  0  0  0
  4  1  1  0  0  0  0
  6  2  1  0  0  0  0
  6  9  1  0  0  0  0
  6 10  1  0  0  0  0
  7  2  1  0  0  0  0
  9 13  1  0  0  0  0
  9 12  1  0  0  0  0
 11  6  1  0  0  0  0
 14  9  1  0  0  0  0
M  END
$$$$
