14
butane_opt
C  -3.978272   0.286258  -0.038077
C  -2.735144  -0.618611   0.077993
H  -4.797436  -0.176488   0.041051
H  -3.887445   0.944871  -0.987890
H  -4.204173   0.796892   0.699753
C  -1.391832   0.148924   0.108784
H  -2.614854  -1.330259  -0.760010
H  -2.893845  -1.265981   1.062018
C  -0.105024  -0.670257  -0.035327
H  -1.219996   0.865112   1.050064
H  -1.316615   0.749464  -0.766792
H  -0.057584  -1.360237   0.911358
H   0.838377  -0.111853  -0.263018
H  -0.354624  -1.321605  -0.897696
