butane_opt
 OpenBabel08242015383D

 14 13  0  0  0  0  0  0  0  0999 V2000
   -3.9677    0.2760    0.0249 C   0  0  0  0  0  0  0  0  0  0  0  0
   -2.7020   -0.6229    0.0341 C   0  0  0  0  0  0  0  0  0  0  0  0
   -4.8411   -0.3003   -0.0175 H   0  0  0  0  0  0  0  0  0  0  0  0
   -3.9647    0.7978   -0.8084 H   0  0  0  0  0  0  0  0  0  0  0  0
   -3.9690    1.0562    0.9460 H   0  0  0  0  0  0  0  0  0  0  0  0
   -1.3902    0.1681   -0.0049 C   0  0  0  0  0  0  0  0  0  0  0  0
   -2.7351   -1.3442   -0.8348 H   0  0  0  0  0  0  0  0  0  0  0  0
   -2.6920   -1.2326    0.9196 H   0  0  0  0  0  0  0  0  0  0  0  0
   -0.1564   -0.6844    0.0491 C   0  0  0  0  0  0  0  0  0  0  0  0
   -1.3498    0.7906    0.7934 H   0  0  0  0  0  0  0  0  0  0  0  0
   -1.3586    0.8409   -0.9213 H   0  0  0  0  0  0  0  0  0  0  0  0
   -0.1606   -1.3164    0.9328 H   0  0  0  0  0  0  0  0  0  0  0  0
    0.7687   -0.0927   -0.0113 H   0  0  0  0  0  0  0  0  0  0  0  0
   -0.1317   -1.3046   -0.7850 H   0  0  0  0  0  0  0  0  0  0  0  0
  1  2  1  0  0  0  0
  1  5  1  0  0  0  0
  2  8  1  0  0  0  0
  3  1  1  0  0  0  0
  4  1  1  0  0  0  0
  6  2  1  0  0  0  0
  6  9  1  0  0  0  0
  6 10  1  0  0  0  0
  7  2  1  0  0  0  0
  9 12  1  0  0  0  0
 11  6  1  0  0  0  0
 13  9  1  0  0  0  0
 14  9  1  0  0  0  0
M  END
$$$$
