14
butane_opt
C  -3.928646   0.243472   0.049825
C  -2.744913  -0.600586  -0.036982
H  -4.806648  -0.332015   0.303510
H  -3.975397   0.899316  -0.863014
H  -3.804777   0.960666   0.978722
C  -1.409882   0.219398  -0.012592
H  -2.773669  -1.375160  -0.946510
H  -2.820941  -1.226737   0.817702
C  -0.131473  -0.730412   0.088061
H  -1.419007   1.034914   0.855044
H  -1.399114   0.835238  -0.953109
H  -0.069468  -1.459794   1.054866
H   0.801185  -0.238687  -0.151521
H  -0.172737  -1.138074  -0.675461
