14
butane_opt
C  -3.965734   0.250683  -0.051928
C  -2.724298  -0.595340   0.136277
H  -4.843239  -0.238099   0.149094
H  -3.921276   1.075302  -1.083157
H  -4.111271   0.582986   0.537288
C  -1.392576   0.191346   0.082360
H  -2.824476  -1.251752  -0.696780
H  -2.842694  -1.224763   1.016937
C  -0.094937  -0.702864  -0.023453
H  -1.283163   0.968380   0.918370
H  -1.508808   0.795863  -0.773091
H  -0.140587  -1.045628   0.607450
H   0.719110  -0.140919   0.127595
H  -0.129423  -1.738144  -1.133283
