14
butane_opt
C  -3.944583   0.273162  -0.045285
C  -2.697006  -0.626016   0.069719
H  -4.909723  -0.412822   0.439143
H  -3.982372   1.322561  -1.187154
H  -3.733160   0.628472   0.585069
C  -1.422199   0.150860   0.081693
H  -2.660915  -1.229689  -0.748924
H  -2.466136  -1.310387   0.940555
C  -0.170171  -0.677940  -0.026553
H  -1.323564   1.151529   1.111147
H  -1.429382   0.651499  -0.664682
H  -0.157001  -1.264253   0.850773
H   0.718740  -0.023328   0.127246
H  -0.273688  -1.442494  -1.013796
