butane_opt
 OpenBabel08242015383D

 14 12  0  0  0  0  0  0  0  0999 V2000
   -3.9963    0.2285    0.0635 C   0  0  0  0  0  0  0  0  0  0  0  0
   -2.7068   -0.5567   -0.0633 C   0  0  0  0  0  0  0  0  0  0  0  0
   -4.9441   -0.3467   -0.0468 H   0  0  0  0  0  0  0  0  0  0  0  0
   -4.0508    0.6293   -0.6614 H   0  0  0  0  0  0  0  0  0  0  0  0
   -3.7547    1.0533    1.1283 H   0  0  0  0  0  0  0  0  0  0  0  0
   -1.3971    0.2023   -0.0260 C   0  0  0  0  0  0  0  0  0  0  0  0
   -2.8997   -1.3853   -0.9648 H   0  0  0  0  0  0  0  0  0  0  0  0
   -2.7185   -1.1277    0.7688 H   0  0  0  0  0  0  0  0  0  0  0  0
   -0.1119   -0.7150    0.0975 C   0  0  0  0  0  0  0  0  0  0  0  0
   -1.3976    0.9549    0.9071 H   0  0  0  0  0  0  0  0  0  0  0  0
   -1.3790    0.8639   -0.8850 H   0  0  0  0  0  0  0  0  0  0  0  0
    0.1133   -1.9003    1.3823 H   0  0  0  0  0  0  0  0  0  0  0  0
    0.7115   -0.1551   -0.4883 H   0  0  0  0  0  0  0  0  0  0  0  0
   -0.1662   -0.9677   -0.5154 H   0  0  0  0  0  0  0  0  0  0  0  0
  1  5  1  0  0  0  0
  2  6  1  0  0  0  0
  2  1  1  0  0  0  0
  2  8  1  0  0  0  0
  3  1  1  0  0  0  0
  4  1  1  0  0  0  0
  6  9  1  0  0  0  0
  6 10  1  0  0  0  0
  7  2  1  0  0  0  0
 11  6  1  0  0  0  0
 13  9  1  0  0  0  0
 14  9  1  0  0  0  0
M  RAD  2   9   2  12   2
M  END
$$$$
