14
butane_opt
C  -3.886313   0.238995  -0.053770
C  -2.736383  -0.546987   0.137023
H  -5.041580  -0.504707   0.089481
H  -3.895508   1.027962  -1.075097
H  -3.890630   0.713368   0.717752
C  -1.423854   0.215784   0.077597
H  -2.601137  -1.181384  -0.758992
H  -2.754607  -1.355331   1.167412
C  -0.161206  -0.733627  -0.031348
H  -1.279964   0.756311   0.833882
H  -1.535614   0.873476  -0.856795
H  -0.301942  -0.937773   0.577361
H   0.764356  -0.120067   0.336029
H   0.043955  -1.864250  -1.202368
