butane_opt
 OpenBabel08242015383D

 14 13  0  0  0  0  0  0  0  0999 V2000
   -3.9620    0.2944    0.0947 C   0  0  0  0  0  0  0  0  0  0  0  0
   -2.7203   -0.6329   -0.0769 C   0  0  0  0  0  0  0  0  0  0  0  0
   -4.8814   -0.3032    0.4496 H   0  0  0  0  0  0  0  0  0  0  0  0
   -4.3021    0.9860   -0.8667 H   0  0  0  0  0  0  0  0  0  0  0  0
   -3.7009    0.8672    0.9880 H   0  0  0  0  0  0  0  0  0  0  0  0
   -1.3800    0.1583   -0.0532 C   0  0  0  0  0  0  0  0  0  0  0  0
   -2.7771   -1.5270   -1.0634 H   0  0  0  0  0  0  0  0  0  0  0  0
   -2.6398   -1.0818    0.5969 H   0  0  0  0  0  0  0  0  0  0  0  0
   -0.1592   -0.6804    0.1340 C   0  0  0  0  0  0  0  0  0  0  0  0
   -1.3794    0.6670    0.6991 H   0  0  0  0  0  0  0  0  0  0  0  0
   -1.3069    0.8861   -1.0273 H   0  0  0  0  0  0  0  0  0  0  0  0
   -0.1701   -1.2694    1.0583 H   0  0  0  0  0  0  0  0  0  0  0  0
    0.7728   -0.1019   -0.0196 H   0  0  0  0  0  0  0  0  0  0  0  0
    0.0034   -1.2327   -0.5680 H   0  0  0  0  0  0  0  0  0  0  0  0
  1  3  1  0  0  0  0
  1  5  1  0  0  0  0
  2  6  1  0  0  0  0
  2  1  1  0  0  0  0
  2  8  1  0  0  0  0
  4  1  1  0  0  0  0
  6  9  1  0  0  0  0
  6 10  1  0  0  0  0
  7  2  1  0  0  0  0
  9 12  1  0  0  0  0
 11  6  1  0  0  0  0
 13  9  1  0  0  0  0
 14  9  1  0  0  0  0
M  END
$$$$
