14
butane_opt
C  -3.922582   0.319686  -0.090035
C  -2.695182  -0.684127   0.160307
H  -4.828214  -0.274454  -0.253909
H  -3.816255   0.766205  -0.949099
H  -4.310822   1.194999   0.796367
C  -1.381222   0.156935   0.108278
H  -2.556815  -1.213099  -0.476157
H  -2.997870  -1.550902   1.248608
C  -0.179321  -0.664083  -0.084106
H  -1.266319   0.957035   1.078393
H  -1.481234   0.706075  -0.759802
H  -0.130749  -1.159341   0.671689
H   0.759246  -0.082478  -0.106177
H  -0.265878  -1.338005  -0.910423
