14
butane_opt
C  -3.934474   0.311473   0.070559
C  -2.660241  -0.649156  -0.010643
H  -4.960573  -0.371497   0.017068
H  -4.189560   0.742319  -0.754468
H  -3.857852   1.179604   1.060978
C  -1.395342   0.114900  -0.068425
H  -2.592817  -1.288709  -0.787212
H  -2.639457  -1.336136   0.932147
C  -0.201674  -0.639084   0.075981
H  -1.540278   0.719602   0.658370
H  -1.326862   0.761675  -0.972739
H  -0.379144  -1.224493   1.017891
H   0.737832   0.022516   0.273524
H   0.016712  -1.338653  -0.813879
