14
butane_opt
C  -3.979707   0.221915   0.136707
C  -2.711107  -0.576864  -0.095744
H  -4.837606  -0.353307   0.492085
H  -4.136500   0.909012  -0.891914
H  -3.772746   0.832114   0.969450
C  -1.413117   0.235695  -0.125474
H  -2.804372  -1.456030  -1.102581
H  -2.693170  -1.118122   0.802861
C  -0.128057  -0.720697   0.139849
H  -1.358559   0.941792   0.764914
H  -1.318828   0.822891  -1.019182
H  -0.183363  -1.400382   1.079066
H   0.638129  -0.224156   0.300720
H   0.241977  -1.343043  -0.605916
