butane_opt
 OpenBabel08242015383D

 14 13  0  0  0  0  0  0  0  0999 V2000
   -3.9473    0.2470    0.0508 C   0  0  0  0  0  0  0  0  0  0  0  0
   -2.7079   -0.6039   -0.0045 C   0  0  0  0  0  0  0  0  0  0  0  0
   -4.8525   -0.3237    0.1449 H   0  0  0  0  0  0  0  0  0  0  0  0
   -4.0260    0.9221   -0.8804 H   0  0  0  0  0  0  0  0  0  0  0  0
   -3.8936    0.9011    0.8956 H   0  0  0  0  0  0  0  0  0  0  0  0
   -1.4076    0.2005   -0.0222 C   0  0  0  0  0  0  0  0  0  0  0  0
   -2.7709   -1.3191   -0.8835 H   0  0  0  0  0  0  0  0  0  0  0  0
   -2.6918   -1.2317    0.8933 H   0  0  0  0  0  0  0  0  0  0  0  0
   -0.1517   -0.7056    0.0625 C   0  0  0  0  0  0  0  0  0  0  0  0
   -1.3882    0.9172    0.8460 H   0  0  0  0  0  0  0  0  0  0  0  0
   -1.3748    0.8266   -0.8897 H   0  0  0  0  0  0  0  0  0  0  0  0
   -0.1110   -1.3505    0.9709 H   0  0  0  0  0  0  0  0  0  0  0  0
    0.7301   -0.1622    0.0733 H   0  0  0  0  0  0  0  0  0  0  0  0
   -0.0626   -1.3110   -0.7702 H   0  0  0  0  0  0  0  0  0  0  0  0
  1  3  1  0  0  0  0
  1  5  1  0  0  0  0
  2  1  1  0  0  0  0
  2  8  1  0  0  0  0
  4  1  1  0  0  0  0
  6  2  1  0  0  0  0
  6  9  1  0  0  0  0
  6 10  1  0  0  0  0
  7  2  1  0  0  0  0
  9 13  1  0  0  0  0
  9 12  1  0  0  0  0
 11  6  1  0  0  0  0
 14  9  1  0  0  0  0
M  END
$$$$
