14
butane_opt
C  -3.926013   0.244466   0.056488
C  -2.778477  -0.580866   0.016980
H  -4.936673  -0.358030  -0.340439
H  -3.795069   0.409390  -0.577526
H  -4.059792   1.221612   1.106281
C  -1.412236   0.221069  -0.048015
H  -2.694781  -1.159274  -0.674445
H  -2.776617  -1.237282   0.924987
C  -0.098062  -0.748460   0.059629
H  -1.355275   0.786496   0.690794
H  -1.504263   0.996660  -1.043734
H  -0.070263  -1.364931   0.998443
H   0.838697  -0.158392   0.105972
H  -0.082583  -1.270354  -0.702364
