14
butane_opt
C  -3.953723   0.280614   0.056449
C  -2.671890  -0.641913  -0.011966
H  -4.855809  -0.349824   0.188578
H  -4.029727   0.895911  -0.774572
H  -3.708365   1.022876   0.983422
C  -1.429471   0.155219  -0.080837
H  -2.774843  -1.106289  -0.723109
H  -2.498748  -1.325124   0.846910
C  -0.176907  -0.679133   0.087379
H  -1.441781   0.811409   0.767262
H  -1.264261   0.807009  -0.973989
H  -0.323100  -1.088654   0.941859
H   0.761641   0.035024   0.422071
H  -0.123086  -1.561732  -0.881547
