butane_opt
 OpenBabel08242015383D

 14 12  0  0  0  0  0  0  0  0999 V2000
   -3.9340    0.2462    0.1186 C   0  0  0  0  0  0  0  0  0  0  0  0
   -2.6980   -0.5821   -0.0738 C   0  0  0  0  0  0  0  0  0  0  0  0
   -4.8801   -0.3183    0.0718 H   0  0  0  0  0  0  0  0  0  0  0  0
   -3.9601    0.8010   -0.6662 H   0  0  0  0  0  0  0  0  0  0  0  0
   -3.7415    0.8465    0.9863 H   0  0  0  0  0  0  0  0  0  0  0  0
   -1.4107    0.1939   -0.0758 C   0  0  0  0  0  0  0  0  0  0  0  0
   -2.7701   -1.4227   -1.0869 H   0  0  0  0  0  0  0  0  0  0  0  0
   -2.7632   -1.0723    0.7745 H   0  0  0  0  0  0  0  0  0  0  0  0
   -0.1743   -0.6941    0.1116 C   0  0  0  0  0  0  0  0  0  0  0  0
   -1.4254    0.9613    0.8021 H   0  0  0  0  0  0  0  0  0  0  0  0
   -1.3625    0.8135   -0.9764 H   0  0  0  0  0  0  0  0  0  0  0  0
   -0.1363   -1.7214    1.2430 H   0  0  0  0  0  0  0  0  0  0  0  0
    0.6084   -0.1780   -0.1222 H   0  0  0  0  0  0  0  0  0  0  0  0
   -0.0001   -1.1594   -0.5265 H   0  0  0  0  0  0  0  0  0  0  0  0
  1  5  1  0  0  0  0
  2  1  1  0  0  0  0
  2  8  1  0  0  0  0
  3  1  1  0  0  0  0
  4  1  1  0  0  0  0
  6  2  1  0  0  0  0
  6  9  1  0  0  0  0
  6 10  1  0  0  0  0
  7  2  1  0  0  0  0
 11  6  1  0  0  0  0
 13  9  1  0  0  0  0
 14  9  1  0  0  0  0
M  RAD  2   9   2  12   2
M  END
$$$$
