butane_opt
 OpenBabel08242015383D

 14 13  0  0  0  0  0  0  0  0999 V2000
   -4.0234    0.2914    0.1294 C   0  0  0  0  0  0  0  0  0  0  0  0
   -2.6719   -0.6380   -0.1123 C   0  0  0  0  0  0  0  0  0  0  0  0
   -4.8260   -0.2309    0.3807 H   0  0  0  0  0  0  0  0  0  0  0  0
   -4.1117    1.0364   -0.7463 H   0  0  0  0  0  0  0  0  0  0  0  0
   -3.9714    0.8547    0.9444 H   0  0  0  0  0  0  0  0  0  0  0  0
   -1.3510    0.1269   -0.0580 C   0  0  0  0  0  0  0  0  0  0  0  0
   -2.6674   -1.5111   -1.0688 H   0  0  0  0  0  0  0  0  0  0  0  0
   -2.6549   -1.1337    0.7031 H   0  0  0  0  0  0  0  0  0  0  0  0
   -0.1563   -0.6494    0.1375 C   0  0  0  0  0  0  0  0  0  0  0  0
   -1.5568    0.6798    0.5869 H   0  0  0  0  0  0  0  0  0  0  0  0
   -1.2581    0.8505   -0.9980 H   0  0  0  0  0  0  0  0  0  0  0  0
   -0.1477   -1.3485    1.1039 H   0  0  0  0  0  0  0  0  0  0  0  0
    0.7614   -0.0250    0.0327 H   0  0  0  0  0  0  0  0  0  0  0  0
   -0.1760   -1.1915   -0.6429 H   0  0  0  0  0  0  0  0  0  0  0  0
  1  3  1  0  0  0  0
  1  5  1  0  0  0  0
  2  6  1  0  0  0  0
  2  1  1  0  0  0  0
  2  8  1  0  0  0  0
  4  1  1  0  0  0  0
  6  9  1  0  0  0  0
  6 10  1  0  0  0  0
  7  2  1  0  0  0  0
  9 12  1  0  0  0  0
 11  6  1  0  0  0  0
 13  9  1  0  0  0  0
 14  9  1  0  0  0  0
M  END
$$$$
