butane_opt
 OpenBabel08242015383D

 14 13  0  0  0  0  0  0  0  0999 V2000
   -3.9490    0.2702   -0.0720 C   0  0  0  0  0  0  0  0  0  0  0  0
   -2.6801   -0.6136    0.1545 C   0  0  0  0  0  0  0  0  0  0  0  0
   -4.7166   -0.2033   -0.3439 H   0  0  0  0  0  0  0  0  0  0  0  0
   -3.7282    0.8642   -0.9324 H   0  0  0  0  0  0  0  0  0  0  0  0
   -4.0658    0.9077    0.7274 H   0  0  0  0  0  0  0  0  0  0  0  0
   -1.4422    0.1461    0.1101 C   0  0  0  0  0  0  0  0  0  0  0  0
   -2.7289   -1.1729   -0.6115 H   0  0  0  0  0  0  0  0  0  0  0  0
   -2.6072   -1.3782    1.0463 H   0  0  0  0  0  0  0  0  0  0  0  0
   -0.1704   -0.6724   -0.0691 C   0  0  0  0  0  0  0  0  0  0  0  0
   -1.2679    0.9053    1.0607 H   0  0  0  0  0  0  0  0  0  0  0  0
   -1.4498    0.6435   -0.6796 H   0  0  0  0  0  0  0  0  0  0  0  0
   -0.0932   -1.3272    0.8256 H   0  0  0  0  0  0  0  0  0  0  0  0
    0.7790    0.0320   -0.1947 H   0  0  0  0  0  0  0  0  0  0  0  0
   -0.2842   -1.2816   -0.9580 H   0  0  0  0  0  0  0  0  0  0  0  0
  1  2  1  0  0  0  0
  1  5  1  0  0  0  0
  2  8  1  0  0  0  0
  3  1  1  0  0  0  0
  4  1  1  0  0  0  0
  6  2  1  0  0  0  0
  6 10  1  0  0  0  0
  7  2  1  0  0  0  0
  9  6  1  0  0  0  0
  9 12  1  0  0  0  0
 11  6  1  0  0  0  0
 13  9  1  0  0  0  0
 14  9  1  0  0  0  0
M  END
$$$$
