butane_opt
 OpenBabel08242015383D

 14 13  0  0  0  0  0  0  0  0999 V2000
   -3.9178    0.2389    0.0152 C   0  0  0  0  0  0  0  0  0  0  0  0
   -2.6741   -0.5821    0.0537 C   0  0  0  0  0  0  0  0  0  0  0  0
   -4.8625   -0.4192   -0.2193 H   0  0  0  0  0  0  0  0  0  0  0  0
   -3.7959    0.4878   -0.6383 H   0  0  0  0  0  0  0  0  0  0  0  0
   -4.0313    1.2175    1.0995 H   0  0  0  0  0  0  0  0  0  0  0  0
   -1.4326    0.2221   -0.0198 C   0  0  0  0  0  0  0  0  0  0  0  0
   -2.6630   -1.2579   -0.7613 H   0  0  0  0  0  0  0  0  0  0  0  0
   -2.7496   -1.2108    0.9132 H   0  0  0  0  0  0  0  0  0  0  0  0
   -0.2054   -0.7152    0.0367 C   0  0  0  0  0  0  0  0  0  0  0  0
   -1.4594    0.8198    0.7351 H   0  0  0  0  0  0  0  0  0  0  0  0
   -1.3414    0.8117   -0.9130 H   0  0  0  0  0  0  0  0  0  0  0  0
   -0.0620   -1.4656    1.1215 H   0  0  0  0  0  0  0  0  0  0  0  0
    0.7413   -0.1437   -0.1611 H   0  0  0  0  0  0  0  0  0  0  0  0
   -0.0428   -1.2796   -0.7211 H   0  0  0  0  0  0  0  0  0  0  0  0
  1  2  1  0  0  0  0
  1  5  1  0  0  0  0
  2  8  1  0  0  0  0
  3  1  1  0  0  0  0
  4  1  1  0  0  0  0
  6  9  1  0  0  0  0
  6  2  1  0  0  0  0
  6 10  1  0  0  0  0
  7  2  1  0  0  0  0
  9 12  1  0  0  0  0
 11  6  1  0  0  0  0
 13  9  1  0  0  0  0
 14  9  1  0  0  0  0
M  END
$$$$
