butane_opt
 OpenBabel08242015383D

 14 13  0  0  0  0  0  0  0  0999 V2000
   -3.9455    0.2905    0.0541 C   0  0  0  0  0  0  0  0  0  0  0  0
   -2.6908   -0.6067    0.0580 C   0  0  0  0  0  0  0  0  0  0  0  0
   -4.8453   -0.3350   -0.2874 H   0  0  0  0  0  0  0  0  0  0  0  0
   -3.7296    0.5094   -0.7367 H   0  0  0  0  0  0  0  0  0  0  0  0
   -4.2409    1.2059    1.0588 H   0  0  0  0  0  0  0  0  0  0  0  0
   -1.3638    0.1170   -0.0569 C   0  0  0  0  0  0  0  0  0  0  0  0
   -2.6945   -1.3293   -0.8751 H   0  0  0  0  0  0  0  0  0  0  0  0
   -2.6181   -1.1285    0.8809 H   0  0  0  0  0  0  0  0  0  0  0  0
   -0.1907   -0.6695    0.0729 C   0  0  0  0  0  0  0  0  0  0  0  0
   -1.3358    0.7629    0.8232 H   0  0  0  0  0  0  0  0  0  0  0  0
   -1.4384    0.9624   -1.0691 H   0  0  0  0  0  0  0  0  0  0  0  0
   -0.2513   -1.3531    0.9822 H   0  0  0  0  0  0  0  0  0  0  0  0
    0.6983   -0.0709   -0.0437 H   0  0  0  0  0  0  0  0  0  0  0  0
   -0.2697   -1.2911   -0.7745 H   0  0  0  0  0  0  0  0  0  0  0  0
  1  2  1  0  0  0  0
  1  5  1  0  0  0  0
  2  8  1  0  0  0  0
  3  1  1  0  0  0  0
  4  1  1  0  0  0  0
  6  2  1  0  0  0  0
  6  9  1  0  0  0  0
  6 10  1  0  0  0  0
  7  2  1  0  0  0  0
  9 12  1  0  0  0  0
 11  6  1  0  0  0  0
 13  9  1  0  0  0  0
 14  9  1  0  0  0  0
M  END
$$$$
