butane_opt
 OpenBabel08242015383D

 14 13  0  0  0  0  0  0  0  0999 V2000
   -3.9499    0.2568   -0.0059 C   0  0  0  0  0  0  0  0  0  0  0  0
   -2.7078   -0.6049    0.0445 C   0  0  0  0  0  0  0  0  0  0  0  0
   -4.8659   -0.3450    0.0055 H   0  0  0  0  0  0  0  0  0  0  0  0
   -3.9525    0.8788   -0.8997 H   0  0  0  0  0  0  0  0  0  0  0  0
   -3.9690    0.8886    0.8427 H   0  0  0  0  0  0  0  0  0  0  0  0
   -1.4001    0.1971    0.0536 C   0  0  0  0  0  0  0  0  0  0  0  0
   -2.7468   -1.2306   -0.7967 H   0  0  0  0  0  0  0  0  0  0  0  0
   -2.7902   -1.2682    0.9670 H   0  0  0  0  0  0  0  0  0  0  0  0
   -0.1471   -0.7119    0.0116 C   0  0  0  0  0  0  0  0  0  0  0  0
   -1.3689    0.9406    0.9558 H   0  0  0  0  0  0  0  0  0  0  0  0
   -1.4296    0.8271   -0.8307 H   0  0  0  0  0  0  0  0  0  0  0  0
   -0.0376   -1.3873    0.9198 H   0  0  0  0  0  0  0  0  0  0  0  0
    0.7843   -0.1028   -0.1811 H   0  0  0  0  0  0  0  0  0  0  0  0
   -0.1875   -1.3166   -0.7867 H   0  0  0  0  0  0  0  0  0  0  0  0
  1  3  1  0  0  0  0
  1  2  1  0  0  0  0
  1  5  1  0  0  0  0
  2  6  1  0  0  0  0
  2  8  1  0  0  0  0
  4  1  1  0  0  0  0
  6 10  1  0  0  0  0
  7  2  1  0  0  0  0
  9  6  1  0  0  0  0
  9 12  1  0  0  0  0
 11  6  1  0  0  0  0
 13  9  1  0  0  0  0
 14  9  1  0  0  0  0
M  END
$$$$
