butane_opt
 OpenBabel08242015383D

 14 13  0  0  0  0  0  0  0  0999 V2000
   -3.9301    0.2438    0.1079 C   0  0  0  0  0  0  0  0  0  0  0  0
   -2.7058   -0.5866   -0.0724 C   0  0  0  0  0  0  0  0  0  0  0  0
   -4.9684   -0.4697    0.1070 H   0  0  0  0  0  0  0  0  0  0  0  0
   -3.8628    0.7946   -0.6563 H   0  0  0  0  0  0  0  0  0  0  0  0
   -3.6787    1.0689    1.0667 H   0  0  0  0  0  0  0  0  0  0  0  0
   -1.4128    0.2182   -0.0678 C   0  0  0  0  0  0  0  0  0  0  0  0
   -2.7884   -1.3582   -1.0754 H   0  0  0  0  0  0  0  0  0  0  0  0
   -2.7878   -1.0181    0.6562 H   0  0  0  0  0  0  0  0  0  0  0  0
   -0.1642   -0.7290    0.1466 C   0  0  0  0  0  0  0  0  0  0  0  0
   -1.5747    0.7376    0.6885 H   0  0  0  0  0  0  0  0  0  0  0  0
   -1.2789    0.8715   -1.0178 H   0  0  0  0  0  0  0  0  0  0  0  0
   -0.0178   -1.5255    1.1779 H   0  0  0  0  0  0  0  0  0  0  0  0
    0.6922   -0.1734   -0.3267 H   0  0  0  0  0  0  0  0  0  0  0  0
   -0.2017   -1.1644   -0.5232 H   0  0  0  0  0  0  0  0  0  0  0  0
  1  5  1  0  0  0  0
  2  6  1  0  0  0  0
  2  1  1  0  0  0  0
  2  8  1  0  0  0  0
  3  1  1  0  0  0  0
  4  1  1  0  0  0  0
  6  9  1  0  0  0  0
  6 10  1  0  0  0  0
  7  2  1  0  0  0  0
  9 12  1  0  0  0  0
 11  6  1  0  0  0  0
 13  9  1  0  0  0  0
 14  9  1  0  0  0  0
M  END
$$$$
