14
butane_opt
C  -3.968941   0.293108   0.095358
C  -2.715771  -0.643596  -0.057995
H  -4.845357  -0.318531   0.304270
H  -4.194528   0.717436  -0.595109
H  -3.912196   1.071476   0.993347
C  -1.386809   0.176666  -0.119810
H  -2.772355  -1.235902  -0.851494
H  -2.701602  -1.327103   0.870035
C  -0.117289  -0.685027   0.141982
H  -1.433035   0.706356   0.604105
H  -1.471731   0.845115  -1.130936
H  -0.374029  -1.103854   0.953831
H   0.842100   0.017816   0.472846
H   0.084312  -1.536484  -0.876148
