14
butane_opt
C  -3.921395   0.275749   0.103168
C  -2.717730  -0.657855  -0.061072
H  -4.847000  -0.362940   0.328406
H  -4.190713   0.962858  -0.779855
H  -3.882370   1.014986   0.974290
C  -1.417793   0.214757  -0.105901
H  -2.837137  -1.323400  -0.964702
H  -2.708886  -1.210969   0.824434
C  -0.140107  -0.708385   0.140809
H  -1.393112   0.685873   0.636188
H  -1.299706   0.941140  -1.006646
H  -0.180347  -1.122014   0.941263
H   0.777007  -0.050793   0.370848
H  -0.081730  -1.509966  -0.811518
