butane_opt
 OpenBabel08242015383D

 14 13  0  0  0  0  0  0  0  0999 V2000
   -3.9333    0.3054    0.0774 C   0  0  0  0  0  0  0  0  0  0  0  0
   -2.6817   -0.6518   -0.0246 C   0  0  0  0  0  0  0  0  0  0  0  0
   -4.8540   -0.3045   -0.0517 H   0  0  0  0  0  0  0  0  0  0  0  0
   -4.0693    0.7692   -0.7010 H   0  0  0  0  0  0  0  0  0  0  0  0
   -4.1238    1.1674    1.0356 H   0  0  0  0  0  0  0  0  0  0  0  0
   -1.3564    0.1547   -0.0351 C   0  0  0  0  0  0  0  0  0  0  0  0
   -2.7779   -1.4957   -0.9385 H   0  0  0  0  0  0  0  0  0  0  0  0
   -2.6208   -1.2948    0.8954 H   0  0  0  0  0  0  0  0  0  0  0  0
   -0.2118   -0.6460    0.1008 C   0  0  0  0  0  0  0  0  0  0  0  0
   -1.5420    0.6526    0.6941 H   0  0  0  0  0  0  0  0  0  0  0  0
   -1.1837    0.8976   -1.0744 H   0  0  0  0  0  0  0  0  0  0  0  0
   -0.1858   -1.3914    1.0270 H   0  0  0  0  0  0  0  0  0  0  0  0
    0.6877   -0.1114   -0.1072 H   0  0  0  0  0  0  0  0  0  0  0  0
   -0.1573   -1.2935   -0.7585 H   0  0  0  0  0  0  0  0  0  0  0  0
  1  5  1  0  0  0  0
  2  1  1  0  0  0  0
  2  8  1  0  0  0  0
  3  1  1  0  0  0  0
  4  1  1  0  0  0  0
  6  2  1  0  0  0  0
  6  9  1  0  0  0  0
  6 10  1  0  0  0  0
  7  2  1  0  0  0  0
  9 12  1  0  0  0  0
 11  6  1  0  0  0  0
 13  9  1  0  0  0  0
 14  9  1  0  0  0  0
M  END
$$$$
