butane_opt
 OpenBabel08242015383D

 14 12  0  0  0  0  0  0  0  0999 V2000
   -3.9595    0.2871    0.0422 C   0  0  0  0  0  0  0  0  0  0  0  0
   -2.6981   -0.6678    0.0625 C   0  0  0  0  0  0  0  0  0  0  0  0
   -4.7769   -0.0913   -0.3913 H   0  0  0  0  0  0  0  0  0  0  0  0
   -3.9077    0.5281   -0.6465 H   0  0  0  0  0  0  0  0  0  0  0  0
   -4.2220    1.4277    1.1932 H   0  0  0  0  0  0  0  0  0  0  0  0
   -1.4140    0.1461   -0.0800 C   0  0  0  0  0  0  0  0  0  0  0  0
   -2.7518   -1.3937   -0.8267 H   0  0  0  0  0  0  0  0  0  0  0  0
   -2.6984   -1.3139    0.9797 H   0  0  0  0  0  0  0  0  0  0  0  0
   -0.1415   -0.6579    0.0442 C   0  0  0  0  0  0  0  0  0  0  0  0
   -1.2981    0.8123    0.7939 H   0  0  0  0  0  0  0  0  0  0  0  0
   -1.2974    0.7986   -0.9090 H   0  0  0  0  0  0  0  0  0  0  0  0
   -0.2164   -1.3750    1.0503 H   0  0  0  0  0  0  0  0  0  0  0  0
    0.7803   -0.0686    0.0361 H   0  0  0  0  0  0  0  0  0  0  0  0
   -0.0876   -1.0758   -0.6087 H   0  0  0  0  0  0  0  0  0  0  0  0
  1  2  1  0  0  0  0
  2  8  1  0  0  0  0
  3  1  1  0  0  0  0
  4  1  1  0  0  0  0
  6  9  1  0  0  0  0
  6  2  1  0  0  0  0
  6 10  1  0  0  0  0
  7  2  1  0  0  0  0
  9 12  1  0  0  0  0
 11  6  1  0  0  0  0
 13  9  1  0  0  0  0
 14  9  1  0  0  0  0
M  RAD  2   1   2   5   2
M  END
$$$$
