14
butane_opt
C  -3.996316   0.228458   0.063495
C  -2.706822  -0.556675  -0.063272
H  -4.944141  -0.346718  -0.046811
H  -4.050772   0.629341  -0.661385
H  -3.754703   1.053282   1.128279
C  -1.397124   0.202255  -0.025997
H  -2.899703  -1.385275  -0.964787
H  -2.718481  -1.127720   0.768828
C  -0.111931  -0.714959   0.097472
H  -1.397593   0.954896   0.907081
H  -1.379015   0.863850  -0.884964
H   0.113291  -1.900329   1.382324
H   0.711523  -0.155119  -0.488256
H  -0.166207  -0.967749  -0.515419
