butane_opt
 OpenBabel08242015383D

 14 13  0  0  0  0  0  0  0  0999 V2000
   -4.0024    0.2817   -0.0751 C   0  0  0  0  0  0  0  0  0  0  0  0
   -2.6535   -0.6225    0.1821 C   0  0  0  0  0  0  0  0  0  0  0  0
   -4.8798   -0.3872   -0.4074 H   0  0  0  0  0  0  0  0  0  0  0  0
   -3.7019    0.8174   -0.9378 H   0  0  0  0  0  0  0  0  0  0  0  0
   -4.2146    1.0228    0.7789 H   0  0  0  0  0  0  0  0  0  0  0  0
   -1.3863    0.1764    0.1016 C   0  0  0  0  0  0  0  0  0  0  0  0
   -2.6393   -1.2720   -0.6474 H   0  0  0  0  0  0  0  0  0  0  0  0
   -2.7802   -1.4309    1.1626 H   0  0  0  0  0  0  0  0  0  0  0  0
   -0.1632   -0.6819   -0.0806 C   0  0  0  0  0  0  0  0  0  0  0  0
   -1.1644    0.8566    0.9667 H   0  0  0  0  0  0  0  0  0  0  0  0
   -1.5883    0.7780   -0.7348 H   0  0  0  0  0  0  0  0  0  0  0  0
   -0.1736   -1.1622    0.7686 H   0  0  0  0  0  0  0  0  0  0  0  0
    0.7490   -0.0986   -0.0827 H   0  0  0  0  0  0  0  0  0  0  0  0
   -0.1655   -1.4354   -0.9605 H   0  0  0  0  0  0  0  0  0  0  0  0
  1  2  1  0  0  0  0
  1  5  1  0  0  0  0
  2  8  1  0  0  0  0
  3  1  1  0  0  0  0
  4  1  1  0  0  0  0
  6  2  1  0  0  0  0
  6 10  1  0  0  0  0
  7  2  1  0  0  0  0
  9  6  1  0  0  0  0
  9 12  1  0  0  0  0
 11  6  1  0  0  0  0
 13  9  1  0  0  0  0
 14  9  1  0  0  0  0
M  END
$$$$
