14
butane_opt
C  -3.917839   0.238913   0.015216
C  -2.674076  -0.582128   0.053686
H  -4.862478  -0.419195  -0.219254
H  -3.795910   0.487781  -0.638308
H  -4.031348   1.217549   1.099533
C  -1.432592   0.222092  -0.019775
H  -2.662957  -1.257881  -0.761291
H  -2.749599  -1.210771   0.913167
C  -0.205392  -0.715179   0.036717
H  -1.459369   0.819847   0.735086
H  -1.341391   0.811739  -0.913037
H  -0.062031  -1.465620   1.121501
H   0.741258  -0.143743  -0.161071
H  -0.042760  -1.279643  -0.721099
