butane_opt
 OpenBabel08242015383D

 14 13  0  0  0  0  0  0  0  0999 V2000
   -3.9609    0.2969    0.0561 C   0  0  0  0  0  0  0  0  0  0  0  0
   -2.7028   -0.6526   -0.0461 C   0  0  0  0  0  0  0  0  0  0  0  0
   -4.8505   -0.2162    0.2007 H   0  0  0  0  0  0  0  0  0  0  0  0
   -4.1401    0.8237   -0.7447 H   0  0  0  0  0  0  0  0  0  0  0  0
   -4.0665    1.0643    1.0288 H   0  0  0  0  0  0  0  0  0  0  0  0
   -1.3677    0.1703   -0.0121 C   0  0  0  0  0  0  0  0  0  0  0  0
   -2.5653   -1.5504   -0.9538 H   0  0  0  0  0  0  0  0  0  0  0  0
   -2.7465   -1.1187    0.7245 H   0  0  0  0  0  0  0  0  0  0  0  0
   -0.1804   -0.6637    0.0941 C   0  0  0  0  0  0  0  0  0  0  0  0
   -1.3187    0.7160    0.7536 H   0  0  0  0  0  0  0  0  0  0  0  0
   -1.2879    0.7315   -0.8757 H   0  0  0  0  0  0  0  0  0  0  0  0
   -0.0153   -1.6208    1.1900 H   0  0  0  0  0  0  0  0  0  0  0  0
    0.7991   -0.0363   -0.3568 H   0  0  0  0  0  0  0  0  0  0  0  0
   -0.2979   -1.0375   -0.5676 H   0  0  0  0  0  0  0  0  0  0  0  0
  1  3  1  0  0  0  0
  1  5  1  0  0  0  0
  2  6  1  0  0  0  0
  2  1  1  0  0  0  0
  2  8  1  0  0  0  0
  4  1  1  0  0  0  0
  6  9  1  0  0  0  0
  6 10  1  0  0  0  0
  7  2  1  0  0  0  0
  9 12  1  0  0  0  0
 11  6  1  0  0  0  0
 13  9  1  0  0  0  0
 14  9  1  0  0  0  0
M  END
$$$$
