14
butane_opt
C  -3.945482   0.277924  -0.005616
C  -2.684709  -0.626017   0.068651
H  -4.838382  -0.309762   0.047183
H  -4.017482   0.935412  -0.939223
H  -3.937516   0.862666   0.838650
C  -1.403751   0.170163   0.022883
H  -2.652812  -1.286066  -0.766811
H  -2.756430  -1.333795   1.013354
C  -0.179106  -0.679674   0.013527
H  -1.358429   0.885913   0.881613
H  -1.405113   0.789795  -0.850977
H  -0.147540  -1.166173   0.809533
H   0.734487  -0.086885   0.121546
H  -0.096339  -1.464560  -0.926321
