butane_opt
 OpenBabel08242015383D

 14 13  0  0  0  0  0  0  0  0999 V2000
   -3.9345    0.3115    0.0706 C   0  0  0  0  0  0  0  0  0  0  0  0
   -2.6602   -0.6492   -0.0106 C   0  0  0  0  0  0  0  0  0  0  0  0
   -4.9606   -0.3715    0.0171 H   0  0  0  0  0  0  0  0  0  0  0  0
   -4.1896    0.7423   -0.7545 H   0  0  0  0  0  0  0  0  0  0  0  0
   -3.8579    1.1796    1.0610 H   0  0  0  0  0  0  0  0  0  0  0  0
   -1.3953    0.1149   -0.0684 C   0  0  0  0  0  0  0  0  0  0  0  0
   -2.5928   -1.2887   -0.7872 H   0  0  0  0  0  0  0  0  0  0  0  0
   -2.6395   -1.3361    0.9321 H   0  0  0  0  0  0  0  0  0  0  0  0
   -0.2017   -0.6391    0.0760 C   0  0  0  0  0  0  0  0  0  0  0  0
   -1.5403    0.7196    0.6584 H   0  0  0  0  0  0  0  0  0  0  0  0
   -1.3269    0.7617   -0.9727 H   0  0  0  0  0  0  0  0  0  0  0  0
   -0.3791   -1.2245    1.0179 H   0  0  0  0  0  0  0  0  0  0  0  0
    0.7378    0.0225    0.2735 H   0  0  0  0  0  0  0  0  0  0  0  0
    0.0167   -1.3387   -0.8139 H   0  0  0  0  0  0  0  0  0  0  0  0
  1  5  1  0  0  0  0
  2  1  1  0  0  0  0
  2  8  1  0  0  0  0
  3  1  1  0  0  0  0
  4  1  1  0  0  0  0
  6  2  1  0  0  0  0
  6  9  1  0  0  0  0
  6 10  1  0  0  0  0
  7  2  1  0  0  0  0
  9 13  1  0  0  0  0
  9 12  1  0  0  0  0
 11  6  1  0  0  0  0
 14  9  1  0  0  0  0
M  END
$$$$
