14
butane_opt
C  -4.004414   0.272325  -0.055041
C  -2.705341  -0.654535   0.126165
H  -4.858480  -0.231445  -0.362474
H  -3.741152   0.820504  -0.960653
H  -4.230583   1.205687   0.934663
C  -1.380537   0.163830   0.085787
H  -2.673482  -1.092885  -0.607676
H  -2.621152  -1.492275   1.147163
C  -0.126297  -0.673342  -0.046792
H  -1.349059   0.936674   1.000491
H  -1.449358   0.675967  -0.731498
H  -0.078380  -1.272038   0.783535
H   0.778496  -0.019143  -0.241080
H  -0.208149  -1.291557  -0.841379
