butane_opt
 OpenBabel08242015383D

 14 13  0  0  0  0  0  0  0  0999 V2000
   -3.9452    0.2054   -0.0799 C   0  0  0  0  0  0  0  0  0  0  0  0
   -2.7231   -0.5700    0.1700 C   0  0  0  0  0  0  0  0  0  0  0  0
   -4.8513   -0.3769   -0.4710 H   0  0  0  0  0  0  0  0  0  0  0  0
   -3.7912    0.7674   -0.9640 H   0  0  0  0  0  0  0  0  0  0  0  0
   -4.1649    0.9951    0.8366 H   0  0  0  0  0  0  0  0  0  0  0  0
   -1.4094    0.2346    0.1374 C   0  0  0  0  0  0  0  0  0  0  0  0
   -2.5886   -1.1543   -0.6531 H   0  0  0  0  0  0  0  0  0  0  0  0
   -2.8058   -1.3168    1.2224 H   0  0  0  0  0  0  0  0  0  0  0  0
   -0.1186   -0.7335   -0.0717 C   0  0  0  0  0  0  0  0  0  0  0  0
   -1.2949    0.8910    0.9043 H   0  0  0  0  0  0  0  0  0  0  0  0
   -1.5701    0.9555   -0.8396 H   0  0  0  0  0  0  0  0  0  0  0  0
    0.0992   -1.2108    0.7335 H   0  0  0  0  0  0  0  0  0  0  0  0
    0.5955   -0.3053   -0.1446 H   0  0  0  0  0  0  0  0  0  0  0  0
   -0.2424   -1.4047   -1.0464 H   0  0  0  0  0  0  0  0  0  0  0  0
  1  2  1  0  0  0  0
  1  5  1  0  0  0  0
  2  8  1  0  0  0  0
  3  1  1  0  0  0  0
  4  1  1  0  0  0  0
  6  2  1  0  0  0  0
  6 10  1  0  0  0  0
  7  2  1  0  0  0  0
  9  6  1  0  0  0  0
  9 12  1  0  0  0  0
 11  6  1  0  0  0  0
 13  9  1  0  0  0  0
 14  9  1  0  0  0  0
M  END
$$$$
