butane_opt
 OpenBabel08242015383D

 14 13  0  0  0  0  0  0  0  0999 V2000
   -3.9558    0.2436   -0.0955 C   0  0  0  0  0  0  0  0  0  0  0  0
   -2.7635   -0.5725    0.1341 C   0  0  0  0  0  0  0  0  0  0  0  0
   -4.8726   -0.3523    0.0006 H   0  0  0  0  0  0  0  0  0  0  0  0
   -3.8505    0.9452   -1.0417 H   0  0  0  0  0  0  0  0  0  0  0  0
   -4.0101    0.8105    0.7251 H   0  0  0  0  0  0  0  0  0  0  0  0
   -1.3874    0.1769    0.1801 C   0  0  0  0  0  0  0  0  0  0  0  0
   -2.6625   -1.2765   -0.7711 H   0  0  0  0  0  0  0  0  0  0  0  0
   -2.9716   -1.1848    0.9585 H   0  0  0  0  0  0  0  0  0  0  0  0
   -0.0878   -0.7195   -0.0799 C   0  0  0  0  0  0  0  0  0  0  0  0
   -1.3728    0.9891    1.0712 H   0  0  0  0  0  0  0  0  0  0  0  0
   -1.4857    0.9113   -0.7367 H   0  0  0  0  0  0  0  0  0  0  0  0
    0.1550   -1.5035    0.8588 H   0  0  0  0  0  0  0  0  0  0  0  0
    0.6934   -0.1501   -0.4042 H   0  0  0  0  0  0  0  0  0  0  0  0
   -0.3067   -1.2167   -0.8620 H   0  0  0  0  0  0  0  0  0  0  0  0
  1  3  1  0  0  0  0
  1  2  1  0  0  0  0
  1  5  1  0  0  0  0
  2  6  1  0  0  0  0
  2  8  1  0  0  0  0
  4  1  1  0  0  0  0
  6 10  1  0  0  0  0
  7  2  1  0  0  0  0
  9  6  1  0  0  0  0
  9 12  1  0  0  0  0
 11  6  1  0  0  0  0
 13  9  1  0  0  0  0
 14  9  1  0  0  0  0
M  END
$$$$
