butane_opt
 OpenBabel08242015383D

 14 13  0  0  0  0  0  0  0  0999 V2000
   -3.8760    0.2474    0.0890 C   0  0  0  0  0  0  0  0  0  0  0  0
   -2.7173   -0.5683   -0.0146 C   0  0  0  0  0  0  0  0  0  0  0  0
   -4.8677   -0.4731   -0.1883 H   0  0  0  0  0  0  0  0  0  0  0  0
   -3.8395    0.4861   -0.6258 H   0  0  0  0  0  0  0  0  0  0  0  0
   -3.8742    1.2076    1.1829 H   0  0  0  0  0  0  0  0  0  0  0  0
   -1.4179    0.2184   -0.0983 C   0  0  0  0  0  0  0  0  0  0  0  0
   -2.8908   -1.3802   -1.0022 H   0  0  0  0  0  0  0  0  0  0  0  0
   -2.6374   -1.2158    0.8332 H   0  0  0  0  0  0  0  0  0  0  0  0
   -0.1779   -0.7056    0.1163 C   0  0  0  0  0  0  0  0  0  0  0  0
   -1.4551    0.8030    0.7361 H   0  0  0  0  0  0  0  0  0  0  0  0
   -1.4987    0.9156   -1.0360 H   0  0  0  0  0  0  0  0  0  0  0  0
   -0.1578   -1.6554    1.2110 H   0  0  0  0  0  0  0  0  0  0  0  0
    0.5958   -0.2393   -0.0254 H   0  0  0  0  0  0  0  0  0  0  0  0
   -0.1185   -1.2377   -0.6940 H   0  0  0  0  0  0  0  0  0  0  0  0
  1  5  1  0  0  0  0
  2  1  1  0  0  0  0
  2  8  1  0  0  0  0
  3  1  1  0  0  0  0
  4  1  1  0  0  0  0
  6  2  1  0  0  0  0
  6  9  1  0  0  0  0
  6 10  1  0  0  0  0
  7  2  1  0  0  0  0
  9 12  1  0  0  0  0
 11  6  1  0  0  0  0
 13  9  1  0  0  0  0
 14  9  1  0  0  0  0
M  END
$$$$
