14
butane_opt
C  -3.904835   0.262835   0.106259
C  -2.721617  -0.600641   0.013559
H  -4.929890  -0.426603  -0.451836
H  -3.628192   0.320617  -0.466698
H  -4.065615   1.274988   1.112121
C  -1.411931   0.240649  -0.099913
H  -2.791225  -1.393982  -0.965437
H  -2.660260  -1.140110   0.794234
C  -0.184462  -0.725980   0.096626
H  -1.343315   0.651508   0.640761
H  -1.509871   1.040539  -1.117332
H  -0.060589  -1.584771   1.109454
H   0.636926  -0.178321   0.069573
H  -0.005901  -1.179152  -0.588536
