14
butane_opt
C  -3.883068   0.233353   0.071321
C  -2.713119  -0.588841  -0.000058
H  -4.842153  -0.392409   0.186947
H  -4.098835   0.765595  -0.763502
H  -3.863272   0.991303   0.950882
C  -1.412398   0.210900  -0.064690
H  -2.792769  -1.170156  -0.794000
H  -2.721628  -1.141697   0.806209
C  -0.182859  -0.728013   0.088980
H  -1.492432   0.743105   0.583085
H  -1.407390   1.045526  -1.107190
H  -0.402484  -1.087748   0.924833
H   0.726034  -0.120322   0.435720
H   0.186551  -1.676352  -0.949261
