14
butane_opt
C  -3.950114   0.294165   0.034813
C  -2.683779  -0.655694   0.008045
H  -4.776662  -0.173869   0.326560
H  -4.255467   1.202399  -1.084832
H  -3.847708   0.648299   0.658475
C  -1.368094   0.137941   0.020806
H  -2.661583  -1.307918  -0.880958
H  -2.558057  -1.310839   0.941299
C  -0.225493  -0.673637   0.022472
H  -1.217669   1.007651   0.993740
H  -1.442298   0.702922  -0.848063
H  -0.318795  -1.144270   0.891881
H   0.769731   0.037297   0.219290
H  -0.000848  -1.353806  -0.856361
