14
butane_opt
C  -3.949066   0.303698   0.079470
C  -2.713308  -0.671767  -0.012616
H  -4.843740  -0.248792   0.139828
H  -4.152719   0.896248  -0.787198
H  -4.027037   0.929159   0.889520
C  -1.386385   0.184832  -0.077192
H  -2.661479  -1.397353  -0.797352
H  -2.733132  -1.345351   0.936691
C  -0.134633  -0.675039   0.058590
H  -1.417669   0.816866   0.720296
H  -1.475217   0.738885  -0.854650
H  -0.370365  -1.169209   0.925729
H   0.729350  -0.006310   0.420722
H   0.120736  -1.376696  -0.734484
