14
butane_opt
C  -3.947977   0.241845  -0.081945
C  -2.700989  -0.597141   0.101558
H  -4.861915  -0.332522  -0.040556
H  -4.009666   0.899203  -0.965578
H  -3.924798   0.781273   0.608220
C  -1.393181   0.210606   0.144122
H  -2.584162  -1.125911  -0.614741
H  -2.835535  -1.430077   1.225472
C  -0.177136  -0.700356  -0.072380
H  -1.283832   1.030997   1.062419
H  -1.567028   0.816840  -0.656429
H   0.153698  -1.318009   0.808684
H   0.651998  -0.197929  -0.162522
H  -0.132923  -1.473588  -0.937871
