butane_opt
 OpenBabel08242015383D

 14 13  0  0  0  0  0  0  0  0999 V2000
   -3.9520    0.2782    0.0242 C   0  0  0  0  0  0  0  0  0  0  0  0
   -2.6964   -0.6328    0.0316 C   0  0  0  0  0  0  0  0  0  0  0  0
   -4.8772   -0.3085    0.0691 H   0  0  0  0  0  0  0  0  0  0  0  0
   -3.9989    0.8732   -0.8312 H   0  0  0  0  0  0  0  0  0  0  0  0
   -3.9881    0.9657    0.9094 H   0  0  0  0  0  0  0  0  0  0  0  0
   -1.3953    0.1702   -0.0033 C   0  0  0  0  0  0  0  0  0  0  0  0
   -2.6902   -1.3075   -0.8043 H   0  0  0  0  0  0  0  0  0  0  0  0
   -2.6967   -1.2632    0.9211 H   0  0  0  0  0  0  0  0  0  0  0  0
   -0.1558   -0.6833    0.0462 C   0  0  0  0  0  0  0  0  0  0  0  0
   -1.3986    0.7916    0.7790 H   0  0  0  0  0  0  0  0  0  0  0  0
   -1.4195    0.8656   -0.9398 H   0  0  0  0  0  0  0  0  0  0  0  0
   -0.1987   -1.1953    0.8843 H   0  0  0  0  0  0  0  0  0  0  0  0
    0.7653   -0.0787    0.1251 H   0  0  0  0  0  0  0  0  0  0  0  0
   -0.1270   -1.4057   -0.8566 H   0  0  0  0  0  0  0  0  0  0  0  0
  1  2  1  0  0  0  0
  1  3  1  0  0  0  0
  1  5  1  0  0  0  0
  2  8  1  0  0  0  0
  4  1  1  0  0  0  0
  6  2  1  0  0  0  0
  6  9  1  0  0  0  0
  6 10  1  0  0  0  0
  7  2  1  0  0  0  0
  9 13  1  0  0  0  0
  9 12  1  0  0  0  0
 11  6  1  0  0  0  0
 14  9  1  0  0  0  0
M  END
$$$$
