14
butane_opt
C  -3.941632   0.237797  -0.036379
C  -2.734789  -0.575122   0.145513
H  -4.883506  -0.458450  -0.116282
H  -3.709244   0.899677  -1.043894
H  -4.202470   0.749985   0.702380
C  -1.421367   0.230200   0.050884
H  -2.846411  -1.236487  -0.716046
H  -2.760024  -1.290819   1.225147
C  -0.091867  -0.740579  -0.028753
H  -1.382506   0.915863   0.898698
H  -1.630880   0.938269  -0.871628
H  -0.083349  -0.943857   0.604076
H   0.801518  -0.194541   0.305885
H  -0.029551  -1.705016  -1.159337
