butane_opt
 OpenBabel08242015383D

 14 13  0  0  0  0  0  0  0  0999 V2000
   -4.0001    0.3129    0.1047 C   0  0  0  0  0  0  0  0  0  0  0  0
   -2.6907   -0.6508   -0.0362 C   0  0  0  0  0  0  0  0  0  0  0  0
   -4.8753   -0.2338   -0.1829 H   0  0  0  0  0  0  0  0  0  0  0  0
   -3.9110    0.6700   -0.6636 H   0  0  0  0  0  0  0  0  0  0  0  0
   -3.9232    1.1343    1.0734 H   0  0  0  0  0  0  0  0  0  0  0  0
   -1.3745    0.1219   -0.0889 C   0  0  0  0  0  0  0  0  0  0  0  0
   -2.9206   -1.3145   -0.8956 H   0  0  0  0  0  0  0  0  0  0  0  0
   -2.5615   -1.2749    0.9113 H   0  0  0  0  0  0  0  0  0  0  0  0
   -0.1599   -0.6496    0.0902 C   0  0  0  0  0  0  0  0  0  0  0  0
   -1.3884    0.8569    0.8036 H   0  0  0  0  0  0  0  0  0  0  0  0
   -1.2296    0.7938   -1.0391 H   0  0  0  0  0  0  0  0  0  0  0  0
   -0.2846   -1.4617    1.1871 H   0  0  0  0  0  0  0  0  0  0  0  0
    0.7325   -0.0245    0.0610 H   0  0  0  0  0  0  0  0  0  0  0  0
   -0.0021   -1.2274   -0.6486 H   0  0  0  0  0  0  0  0  0  0  0  0
  1  5  1  0  0  0  0
  2  1  1  0  0  0  0
  2  8  1  0  0  0  0
  3  1  1  0  0  0  0
  4  1  1  0  0  0  0
  6  2  1  0  0  0  0
  6  9  1  0  0  0  0
  6 10  1  0  0  0  0
  7  2  1  0  0  0  0
  9 12  1  0  0  0  0
 11  6  1  0  0  0  0
 13  9  1  0  0  0  0
 14  9  1  0  0  0  0
M  END
$$$$
