butane_opt
 OpenBabel08242015383D

 14 13  0  0  0  0  0  0  0  0999 V2000
   -3.9922    0.3198    0.0029 C   0  0  0  0  0  0  0  0  0  0  0  0
   -2.7024   -0.6457    0.0730 C   0  0  0  0  0  0  0  0  0  0  0  0
   -4.9135   -0.2395    0.0904 H   0  0  0  0  0  0  0  0  0  0  0  0
   -4.0919    0.8106   -0.7995 H   0  0  0  0  0  0  0  0  0  0  0  0
   -3.8742    0.8431    0.8378 H   0  0  0  0  0  0  0  0  0  0  0  0
   -1.3691    0.1576   -0.0353 C   0  0  0  0  0  0  0  0  0  0  0  0
   -2.6228   -1.2470   -0.6749 H   0  0  0  0  0  0  0  0  0  0  0  0
   -2.8819   -1.3766    0.9942 H   0  0  0  0  0  0  0  0  0  0  0  0
   -0.1615   -0.6856    0.0268 C   0  0  0  0  0  0  0  0  0  0  0  0
   -1.3185    0.7791    0.8408 H   0  0  0  0  0  0  0  0  0  0  0  0
   -1.2726    0.7698   -0.8870 H   0  0  0  0  0  0  0  0  0  0  0  0
   -0.1974   -0.9740    0.7870 H   0  0  0  0  0  0  0  0  0  0  0  0
    0.8029    0.0176    0.4245 H   0  0  0  0  0  0  0  0  0  0  0  0
    0.0074   -1.5973   -1.0049 H   0  0  0  0  0  0  0  0  0  0  0  0
  1  2  1  0  0  0  0
  1  3  1  0  0  0  0
  1  5  1  0  0  0  0
  2  8  1  0  0  0  0
  4  1  1  0  0  0  0
  6  9  1  0  0  0  0
  6  2  1  0  0  0  0
  6 10  1  0  0  0  0
  7  2  1  0  0  0  0
  9 13  1  0  0  0  0
  9 12  1  0  0  0  0
 11  6  1  0  0  0  0
 14  9  1  0  0  0  0
M  END
$$$$
