14
butane_opt
C  -3.942916   0.270469   0.059298
C  -2.720616  -0.611820   0.000525
H  -4.953078  -0.377979  -0.206368
H  -4.071157   0.452508  -0.622809
H  -3.939005   1.083234   1.014104
C  -1.367851   0.235311  -0.045106
H  -2.877706  -1.316271  -0.863966
H  -2.628465  -1.178073   0.862609
C  -0.156287  -0.721672   0.091222
H  -1.468223   0.846968   0.712706
H  -1.339305   0.961427  -0.997086
H  -0.003239  -1.540101   1.073316
H   0.718401  -0.215260  -0.121668
H  -0.189759  -1.279841  -0.656399
