butane_opt
 OpenBabel08242015383D

 14 11  0  0  0  0  0  0  0  0999 V2000
   -3.9048    0.2628    0.1063 C   0  0  0  0  0  0  0  0  0  0  0  0
   -2.7216   -0.6006    0.0136 C   0  0  0  0  0  0  0  0  0  0  0  0
   -4.9299   -0.4266   -0.4518 H   0  0  0  0  0  0  0  0  0  0  0  0
   -3.6282    0.3206   -0.4667 H   0  0  0  0  0  0  0  0  0  0  0  0
   -4.0656    1.2750    1.1121 H   0  0  0  0  0  0  0  0  0  0  0  0
   -1.4119    0.2406   -0.0999 C   0  0  0  0  0  0  0  0  0  0  0  0
   -2.7912   -1.3940   -0.9654 H   0  0  0  0  0  0  0  0  0  0  0  0
   -2.6603   -1.1401    0.7942 H   0  0  0  0  0  0  0  0  0  0  0  0
   -0.1845   -0.7260    0.0966 C   0  0  0  0  0  0  0  0  0  0  0  0
   -1.3433    0.6515    0.6408 H   0  0  0  0  0  0  0  0  0  0  0  0
   -1.5099    1.0405   -1.1173 H   0  0  0  0  0  0  0  0  0  0  0  0
   -0.0606   -1.5848    1.1095 H   0  0  0  0  0  0  0  0  0  0  0  0
    0.6369   -0.1783    0.0696 H   0  0  0  0  0  0  0  0  0  0  0  0
   -0.0059   -1.1792   -0.5885 H   0  0  0  0  0  0  0  0  0  0  0  0
  1  5  1  0  0  0  0
  2  8  1  0  0  0  0
  3  1  1  0  0  0  0
  4  1  1  0  0  0  0
  6  9  1  0  0  0  0
  6 10  1  0  0  0  0
  7  2  1  0  0  0  0
  9 12  1  0  0  0  0
 11  6  1  0  0  0  0
 13  9  1  0  0  0  0
 14  9  1  0  0  0  0
M  RAD  3   1   2   2   3   6   2
M  END
$$$$
