butane_opt
 OpenBabel08242015383D

 14 10  0  0  0  0  0  0  0  0999 V2000
   -3.9482    0.3054   -0.0268 C   0  0  0  0  0  0  0  0  0  0  0  0
   -2.7354   -0.6736    0.1339 C   0  0  0  0  0  0  0  0  0  0  0  0
   -4.8315   -0.1994   -0.0304 H   0  0  0  0  0  0  0  0  0  0  0  0
   -4.0919    1.2498   -1.1732 H   0  0  0  0  0  0  0  0  0  0  0  0
   -4.2396    0.7448    0.6547 H   0  0  0  0  0  0  0  0  0  0  0  0
   -1.3710    0.1417    0.0404 C   0  0  0  0  0  0  0  0  0  0  0  0
   -2.6277   -1.2350   -0.5286 H   0  0  0  0  0  0  0  0  0  0  0  0
   -2.7810   -1.5314    1.2235 H   0  0  0  0  0  0  0  0  0  0  0  0
   -0.1338   -0.6668   -0.0433 C   0  0  0  0  0  1  0  0  0  0  0  0
   -1.3151    0.9977    0.9912 H   0  0  0  0  0  0  0  0  0  0  0  0
   -1.3554    0.6864   -0.7886 H   0  0  0  0  0  0  0  0  0  0  0  0
   -0.3065   -0.7522    0.4787 H   0  0  0  0  0  0  0  0  0  0  0  0
    0.7431   -0.0265    0.4839 H   0  0  0  0  0  0  0  0  0  0  0  0
    0.0466   -1.6898   -1.2083 H   0  0  0  0  0  0  0  0  0  0  0  0
  1  2  1  0  0  0  0
  1  5  1  0  0  0  0
  2  8  1  0  0  0  0
  3  1  1  0  0  0  0
  4  1  1  0  0  0  0
  6 12  1  0  0  0  0
  6 10  1  0  0  0  0
  7  2  1  0  0  0  0
  9 13  1  0  0  0  0
 11  6  1  0  0  0  0
M  RAD  3   2   2   6   2  14   2
M  END
$$$$
