butane_opt
 OpenBabel08242015383D

 14 13  0  0  0  0  0  0  0  0999 V2000
   -3.9461    0.2487   -0.0151 C   0  0  0  0  0  0  0  0  0  0  0  0
   -2.7039   -0.6049    0.0719 C   0  0  0  0  0  0  0  0  0  0  0  0
   -4.8530   -0.3627   -0.0946 H   0  0  0  0  0  0  0  0  0  0  0  0
   -3.9258    0.8367   -0.9038 H   0  0  0  0  0  0  0  0  0  0  0  0
   -4.0001    0.9702    0.8983 H   0  0  0  0  0  0  0  0  0  0  0  0
   -1.4075    0.2057    0.0445 C   0  0  0  0  0  0  0  0  0  0  0  0
   -2.6611   -1.2549   -0.7432 H   0  0  0  0  0  0  0  0  0  0  0  0
   -2.7393   -1.3014    1.0125 H   0  0  0  0  0  0  0  0  0  0  0  0
   -0.1498   -0.7058    0.0005 C   0  0  0  0  0  0  0  0  0  0  0  0
   -1.3464    0.8976    0.9138 H   0  0  0  0  0  0  0  0  0  0  0  0
   -1.4416    0.8644   -0.8262 H   0  0  0  0  0  0  0  0  0  0  0  0
   -0.0812   -1.3272    0.8814 H   0  0  0  0  0  0  0  0  0  0  0  0
    0.7080   -0.1571   -0.0652 H   0  0  0  0  0  0  0  0  0  0  0  0
   -0.1771   -1.3713   -0.8504 H   0  0  0  0  0  0  0  0  0  0  0  0
  1  2  1  0  0  0  0
  1  5  1  0  0  0  0
  2  8  1  0  0  0  0
  3  1  1  0  0  0  0
  4  1  1  0  0  0  0
  6  2  1  0  0  0  0
  6 10  1  0  0  0  0
  7  2  1  0  0  0  0
  9  6  1  0  0  0  0
  9 12  1  0  0  0  0
 11  6  1  0  0  0  0
 13  9  1  0  0  0  0
 14  9  1  0  0  0  0
M  END
$$$$
