butane_opt
 OpenBabel08242015383D

 14 13  0  0  0  0  0  0  0  0999 V2000
   -3.9393    0.2795   -0.0083 C   0  0  0  0  0  0  0  0  0  0  0  0
   -2.6900   -0.6026    0.0279 C   0  0  0  0  0  0  0  0  0  0  0  0
   -4.9496   -0.4678    0.3836 H   0  0  0  0  0  0  0  0  0  0  0  0
   -4.1814    1.1339   -1.0054 H   0  0  0  0  0  0  0  0  0  0  0  0
   -3.7565    0.6426    0.6203 H   0  0  0  0  0  0  0  0  0  0  0  0
   -1.3837    0.1955    0.0849 C   0  0  0  0  0  0  0  0  0  0  0  0
   -2.6832   -1.4030   -0.9782 H   0  0  0  0  0  0  0  0  0  0  0  0
   -2.8021   -1.2450    0.9753 H   0  0  0  0  0  0  0  0  0  0  0  0
   -0.1726   -0.7153    0.0158 C   0  0  0  0  0  0  0  0  0  0  0  0
   -1.3170    0.8189    0.8624 H   0  0  0  0  0  0  0  0  0  0  0  0
   -1.4576    0.8581   -0.8692 H   0  0  0  0  0  0  0  0  0  0  0  0
   -0.0579   -1.2361    0.8409 H   0  0  0  0  0  0  0  0  0  0  0  0
    0.6986   -0.0676    0.0803 H   0  0  0  0  0  0  0  0  0  0  0  0
   -0.2682   -1.4022   -0.9259 H   0  0  0  0  0  0  0  0  0  0  0  0
  1  2  1  0  0  0  0
  1  3  1  0  0  0  0
  1  5  1  0  0  0  0
  2  6  1  0  0  0  0
  2  8  1  0  0  0  0
  4  1  1  0  0  0  0
  6 10  1  0  0  0  0
  7  2  1  0  0  0  0
  9 13  1  0  0  0  0
  9  6  1  0  0  0  0
  9 12  1  0  0  0  0
 11  6  1  0  0  0  0
 14  9  1  0  0  0  0
M  END
$$$$
