butane_opt
 OpenBabel08242015383D

 14 12  0  0  0  0  0  0  0  0999 V2000
   -3.9699    0.3279    0.0843 C   0  0  0  0  0  0  0  0  0  0  0  0
   -2.6726   -0.6618   -0.0798 C   0  0  0  0  0  0  0  0  0  0  0  0
   -4.9218   -0.2990   -0.0669 H   0  0  0  0  0  0  0  0  0  0  0  0
   -4.0692    0.5708   -0.5498 H   0  0  0  0  0  0  0  0  0  0  0  0
   -3.8815    1.1347    1.0667 H   0  0  0  0  0  0  0  0  0  0  0  0
   -1.3786    0.1376   -0.0322 C   0  0  0  0  0  0  0  0  0  0  0  0
   -2.7022   -1.4106   -0.9361 H   0  0  0  0  0  0  0  0  0  0  0  0
   -2.4943   -1.2451    0.7149 H   0  0  0  0  0  0  0  0  0  0  0  0
   -0.1985   -0.6583    0.1187 C   0  0  0  0  0  0  0  0  0  0  0  0
   -1.4750    0.7817    0.7307 H   0  0  0  0  0  0  0  0  0  0  0  0
   -1.3590    0.7442   -0.9483 H   0  0  0  0  0  0  0  0  0  0  0  0
    0.0219   -1.6421    1.3525 H   0  0  0  0  0  0  0  0  0  0  0  0
    0.7810    0.0564   -0.4752 H   0  0  0  0  0  0  0  0  0  0  0  0
   -0.3300   -0.8850   -0.4861 H   0  0  0  0  0  0  0  0  0  0  0  0
  1  5  1  0  0  0  0
  2  6  1  0  0  0  0
  2  1  1  0  0  0  0
  2  8  1  0  0  0  0
  3  1  1  0  0  0  0
  4  1  1  0  0  0  0
  6  9  1  0  0  0  0
  6 10  1  0  0  0  0
  7  2  1  0  0  0  0
 11  6  1  0  0  0  0
 13  9  1  0  0  0  0
 14  9  1  0  0  0  0
M  RAD  2   9   2  12   2
M  END
$$$$
