butane_opt
 OpenBabel08242015383D

 14 12  0  0  0  0  0  0  0  0999 V2000
   -3.9649    0.2679    0.1044 C   0  0  0  0  0  0  0  0  0  0  0  0
   -2.6969   -0.6491   -0.0190 C   0  0  0  0  0  0  0  0  0  0  0  0
   -4.7626   -0.1091   -0.2630 H   0  0  0  0  0  0  0  0  0  0  0  0
   -3.9374    0.6839   -0.6179 H   0  0  0  0  0  0  0  0  0  0  0  0
   -4.1683    1.3636    1.2843 H   0  0  0  0  0  0  0  0  0  0  0  0
   -1.3868    0.1719   -0.0910 C   0  0  0  0  0  0  0  0  0  0  0  0
   -2.8348   -1.4271   -0.9790 H   0  0  0  0  0  0  0  0  0  0  0  0
   -2.6234   -1.2609    0.8698 H   0  0  0  0  0  0  0  0  0  0  0  0
   -0.1604   -0.6677    0.1152 C   0  0  0  0  0  0  0  0  0  0  0  0
   -1.4635    0.5985    0.5853 H   0  0  0  0  0  0  0  0  0  0  0  0
   -1.1274    0.9079   -1.1635 H   0  0  0  0  0  0  0  0  0  0  0  0
   -0.3029   -1.3733    1.0928 H   0  0  0  0  0  0  0  0  0  0  0  0
    0.7715   -0.0162    0.0116 H   0  0  0  0  0  0  0  0  0  0  0  0
   -0.0726   -1.2943   -0.6758 H   0  0  0  0  0  0  0  0  0  0  0  0
  2  1  1  0  0  0  0
  2  8  1  0  0  0  0
  3  1  1  0  0  0  0
  4  1  1  0  0  0  0
  6  2  1  0  0  0  0
  6  9  1  0  0  0  0
  6 10  1  0  0  0  0
  7  2  1  0  0  0  0
  9 12  1  0  0  0  0
 11  6  1  0  0  0  0
 13  9  1  0  0  0  0
 14  9  1  0  0  0  0
M  RAD  2   1   2   5   2
M  END
$$$$
