butane_opt
 OpenBabel08242015383D

 14 13  0  0  0  0  0  0  0  0999 V2000
   -3.9024    0.3049   -0.0224 C   0  0  0  0  0  0  0  0  0  0  0  0
   -2.7023   -0.6223    0.1501 C   0  0  0  0  0  0  0  0  0  0  0  0
   -4.9012   -0.3273   -0.4290 H   0  0  0  0  0  0  0  0  0  0  0  0
   -3.7921    0.7285   -0.7543 H   0  0  0  0  0  0  0  0  0  0  0  0
   -4.2099    1.2428    0.9584 H   0  0  0  0  0  0  0  0  0  0  0  0
   -1.3859    0.1008    0.0140 C   0  0  0  0  0  0  0  0  0  0  0  0
   -2.5930   -1.4300   -0.7614 H   0  0  0  0  0  0  0  0  0  0  0  0
   -2.8247   -1.2775    0.9613 H   0  0  0  0  0  0  0  0  0  0  0  0
   -0.1831   -0.6600   -0.0157 C   0  0  0  0  0  0  0  0  0  0  0  0
   -1.3242    0.8313    0.8893 H   0  0  0  0  0  0  0  0  0  0  0  0
   -1.5453    0.7703   -0.9098 H   0  0  0  0  0  0  0  0  0  0  0  0
   -0.2063   -1.3518    0.8631 H   0  0  0  0  0  0  0  0  0  0  0  0
    0.7611    0.0376   -0.0141 H   0  0  0  0  0  0  0  0  0  0  0  0
   -0.3129   -1.1742   -0.8148 H   0  0  0  0  0  0  0  0  0  0  0  0
  1  2  1  0  0  0  0
  1  5  1  0  0  0  0
  2  8  1  0  0  0  0
  3  1  1  0  0  0  0
  4  1  1  0  0  0  0
  6  2  1  0  0  0  0
  6 10  1  0  0  0  0
  7  2  1  0  0  0  0
  9 13  1  0  0  0  0
  9  6  1  0  0  0  0
  9 12  1  0  0  0  0
 11  6  1  0  0  0  0
 14  9  1  0  0  0  0
M  END
$$$$
