butane_opt
 OpenBabel08242015383D

 14 13  0  0  0  0  0  0  0  0999 V2000
   -3.9440    0.2972   -0.0458 C   0  0  0  0  0  0  0  0  0  0  0  0
   -2.7060   -0.6679    0.1344 C   0  0  0  0  0  0  0  0  0  0  0  0
   -4.8052   -0.2080    0.1803 H   0  0  0  0  0  0  0  0  0  0  0  0
   -4.1005    1.1209   -1.0366 H   0  0  0  0  0  0  0  0  0  0  0  0
   -4.0860    0.8355    0.6784 H   0  0  0  0  0  0  0  0  0  0  0  0
   -1.3987    0.1591    0.0181 C   0  0  0  0  0  0  0  0  0  0  0  0
   -2.4709   -1.3490   -0.6812 H   0  0  0  0  0  0  0  0  0  0  0  0
   -2.7683   -1.4854    1.1650 H   0  0  0  0  0  0  0  0  0  0  0  0
   -0.1669   -0.6484   -0.0343 C   0  0  0  0  0  0  0  0  0  0  0  0
   -1.2571    0.9428    1.0357 H   0  0  0  0  0  0  0  0  0  0  0  0
   -1.4595    0.6382   -0.7736 H   0  0  0  0  0  0  0  0  0  0  0  0
   -0.2939   -0.9752    0.6488 H   0  0  0  0  0  0  0  0  0  0  0  0
    0.7864   -0.0648    0.4912 H   0  0  0  0  0  0  0  0  0  0  0  0
    0.0023   -1.5887   -1.1594 H   0  0  0  0  0  0  0  0  0  0  0  0
  1  2  1  0  0  0  0
  1  3  1  0  0  0  0
  1  5  1  0  0  0  0
  2  8  1  0  0  0  0
  4  1  1  0  0  0  0
  6  2  1  0  0  0  0
  6 10  1  0  0  0  0
  7  2  1  0  0  0  0
  9  6  1  0  0  0  0
  9 13  1  0  0  0  0
  9 12  1  0  0  0  0
 11  6  1  0  0  0  0
 14  9  1  0  0  0  0
M  END
$$$$
