butane_opt
 OpenBabel08242015383D

 14 12  0  0  0  0  0  0  0  0999 V2000
   -3.9598    0.2855    0.0910 C   0  0  0  0  0  0  0  0  0  0  0  0
   -2.6688   -0.6798   -0.0021 C   0  0  0  0  0  0  0  0  0  0  0  0
   -4.7655   -0.1615   -0.4375 H   0  0  0  0  0  0  0  0  0  0  0  0
   -3.9599    0.6950   -0.6302 H   0  0  0  0  0  0  0  0  0  0  0  0
   -4.2007    1.3150    1.1923 H   0  0  0  0  0  0  0  0  0  0  0  0
   -1.3978    0.1467   -0.0847 C   0  0  0  0  0  0  0  0  0  0  0  0
   -2.8574   -1.2643   -0.8718 H   0  0  0  0  0  0  0  0  0  0  0  0
   -2.6508   -1.2996    0.8573 H   0  0  0  0  0  0  0  0  0  0  0  0
   -0.1777   -0.6574    0.0937 C   0  0  0  0  0  0  0  0  0  0  0  0
   -1.3104    0.8840    0.8393 H   0  0  0  0  0  0  0  0  0  0  0  0
   -1.3804    0.8519   -1.0423 H   0  0  0  0  0  0  0  0  0  0  0  0
   -0.1726   -1.5020    1.1081 H   0  0  0  0  0  0  0  0  0  0  0  0
    0.8313    0.0493   -0.1130 H   0  0  0  0  0  0  0  0  0  0  0  0
   -0.1345   -1.1659   -0.5997 H   0  0  0  0  0  0  0  0  0  0  0  0
  2  1  1  0  0  0  0
  2  8  1  0  0  0  0
  3  1  1  0  0  0  0
  4  1  1  0  0  0  0
  6  2  1  0  0  0  0
  6  9  1  0  0  0  0
  6 10  1  0  0  0  0
  7  2  1  0  0  0  0
  9 12  1  0  0  0  0
 11  6  1  0  0  0  0
 13  9  1  0  0  0  0
 14  9  1  0  0  0  0
M  RAD  2   1   2   5   2
M  END
$$$$
