butane_opt
 OpenBabel08242015383D

 14 13  0  0  0  0  0  0  0  0999 V2000
   -3.9846    0.2941   -0.0299 C   0  0  0  0  0  0  0  0  0  0  0  0
   -2.7122   -0.6428    0.0563 C   0  0  0  0  0  0  0  0  0  0  0  0
   -4.8567   -0.1882    0.3935 H   0  0  0  0  0  0  0  0  0  0  0  0
   -4.1535    1.1585   -1.0772 H   0  0  0  0  0  0  0  0  0  0  0  0
   -3.9912    0.6313    0.5910 H   0  0  0  0  0  0  0  0  0  0  0  0
   -1.3924    0.1422    0.1008 C   0  0  0  0  0  0  0  0  0  0  0  0
   -2.4411   -1.4559   -0.8237 H   0  0  0  0  0  0  0  0  0  0  0  0
   -2.7822   -1.2540    0.9394 H   0  0  0  0  0  0  0  0  0  0  0  0
   -0.1233   -0.6486   -0.0180 C   0  0  0  0  0  0  0  0  0  0  0  0
   -1.2907    0.7852    0.9653 H   0  0  0  0  0  0  0  0  0  0  0  0
   -1.3519    0.8224   -0.7501 H   0  0  0  0  0  0  0  0  0  0  0  0
   -0.0941   -1.1943    0.8205 H   0  0  0  0  0  0  0  0  0  0  0  0
    0.7406   -0.0536   -0.0197 H   0  0  0  0  0  0  0  0  0  0  0  0
   -0.2588   -1.4499   -0.9308 H   0  0  0  0  0  0  0  0  0  0  0  0
  1  2  1  0  0  0  0
  1  3  1  0  0  0  0
  1  5  1  0  0  0  0
  2  6  1  0  0  0  0
  2  8  1  0  0  0  0
  4  1  1  0  0  0  0
  6 10  1  0  0  0  0
  7  2  1  0  0  0  0
  9  6  1  0  0  0  0
  9 12  1  0  0  0  0
 11  6  1  0  0  0  0
 13  9  1  0  0  0  0
 14  9  1  0  0  0  0
M  END
$$$$
