14
butane_opt
C  -3.924958   0.252989  -0.037228
C  -2.696536  -0.610239   0.067911
H  -4.941275  -0.519739   0.398087
H  -4.077465   1.129864  -1.073932
H  -3.753692   0.639453   0.742529
C  -1.411160   0.212750   0.038972
H  -2.742441  -1.151537  -0.768359
H  -2.678156  -1.270451   1.000251
C  -0.181027  -0.712988  -0.010438
H  -1.359602   1.086889   1.032432
H  -1.540498   0.833668  -0.782987
H  -0.076259  -1.179917   0.822820
H   0.704973  -0.186822   0.349278
H   0.014641  -1.593492  -1.026940
