butane_opt
 OpenBabel08242015383D

 14 12  0  0  0  0  0  0  0  0999 V2000
   -3.9768    0.2331    0.0967 C   0  0  0  0  0  0  0  0  0  0  0  0
   -2.7254   -0.5745   -0.0070 C   0  0  0  0  0  0  0  0  0  0  0  0
   -4.8715   -0.3906   -0.3616 H   0  0  0  0  0  0  0  0  0  0  0  0
   -3.9299    0.4139   -0.5563 H   0  0  0  0  0  0  0  0  0  0  0  0
   -3.9303    1.2110    1.2693 H   0  0  0  0  0  0  0  0  0  0  0  0
   -1.3853    0.2151   -0.1154 C   0  0  0  0  0  0  0  0  0  0  0  0
   -2.7110   -1.2170   -0.8849 H   0  0  0  0  0  0  0  0  0  0  0  0
   -2.7119   -1.1677    0.8106 H   0  0  0  0  0  0  0  0  0  0  0  0
   -0.1339   -0.7226    0.1122 C   0  0  0  0  0  0  0  0  0  0  0  0
   -1.4368    0.8948    0.7731 H   0  0  0  0  0  0  0  0  0  0  0  0
   -1.4033    0.9157   -1.1027 H   0  0  0  0  0  0  0  0  0  0  0  0
   -0.0925   -1.5638    1.1400 H   0  0  0  0  0  0  0  0  0  0  0  0
    0.6720   -0.2357   -0.0244 H   0  0  0  0  0  0  0  0  0  0  0  0
    0.0567   -1.1646   -0.6038 H   0  0  0  0  0  0  0  0  0  0  0  0
  2  1  1  0  0  0  0
  2  8  1  0  0  0  0
  3  1  1  0  0  0  0
  4  1  1  0  0  0  0
  6  2  1  0  0  0  0
  6  9  1  0  0  0  0
  6 10  1  0  0  0  0
  7  2  1  0  0  0  0
  9 12  1  0  0  0  0
 11  6  1  0  0  0  0
 13  9  1  0  0  0  0
 14  9  1  0  0  0  0
M  RAD  2   1   2   5   2
M  END
$$$$
