14
butane_opt
C  -3.948144   0.253353   0.037086
C  -2.706357  -0.601972   0.017962
H  -4.874938  -0.364011  -0.044084
H  -3.912322   0.759855  -0.764144
H  -3.988051   1.055246   0.982412
C  -1.416622   0.199418  -0.019469
H  -2.728460  -1.283679  -0.808658
H  -2.719739  -1.243223   0.923183
C  -0.138248  -0.700952   0.056677
H  -1.401995   0.816190   0.783179
H  -1.378697   0.828068  -0.913784
H  -0.135958  -1.373754   0.987731
H   0.766067  -0.129377  -0.014172
H  -0.130684  -1.338260  -0.780614
