14
butane_opt
C  -3.977955   0.290344  -0.021688
C  -2.720087  -0.690460   0.109269
H  -4.703201  -0.149701  -0.028511
H  -3.981466   1.089802  -1.125492
H  -4.127940   0.839826   0.734865
C  -1.386156   0.179061   0.077477
H  -2.762653  -1.330957  -0.695790
H  -2.564936  -1.299134   0.962152
C  -0.141184  -0.673116  -0.027136
H  -1.337252   0.868979   0.871091
H  -1.387309   0.842389  -0.814522
H  -0.214348  -1.038205   0.704717
H   0.813406  -0.101156   0.104511
H  -0.067711  -1.441553  -0.981258
