14
butane_opt
C  -3.992182   0.319768   0.002869
C  -2.702404  -0.645736   0.072975
H  -4.913530  -0.239469   0.090375
H  -4.091921   0.810615  -0.799500
H  -3.874226   0.843091   0.837760
C  -1.369117   0.157638  -0.035319
H  -2.622760  -1.247003  -0.674886
H  -2.881866  -1.376567   0.994162
C  -0.161525  -0.685575   0.026833
H  -1.318486   0.779058   0.840751
H  -1.272570   0.769808  -0.887047
H  -0.197447  -0.973956   0.787007
H   0.802913   0.017649   0.424539
H   0.007353  -1.597313  -1.004870
