14
butane_opt
C  -3.925584   0.312646   0.110609
C  -2.695909  -0.678086  -0.110404
H  -4.840178  -0.294437   0.168859
H  -4.163891   0.850588  -0.704481
H  -3.847960   1.078215   1.045971
C  -1.376154   0.142761  -0.067312
H  -2.774944  -1.386034  -1.019777
H  -2.570402  -1.182711   0.737230
C  -0.213462  -0.660186   0.145909
H  -1.409390   0.904273   0.822862
H  -1.304317   0.763860  -0.969305
H   0.037488  -1.645852   1.272902
H   0.684127  -0.032570  -0.231767
H  -0.320714  -0.930593  -0.576789
