14
butane_opt
C  -3.967095   0.272493   0.040311
C  -2.724177  -0.630527   0.061692
H  -4.793327  -0.303216  -0.418790
H  -4.006540   0.570873  -0.669617
H  -4.112529   1.336597   1.190653
C  -1.364720   0.158633  -0.050962
H  -2.821991  -1.343691  -0.821886
H  -2.720782  -1.109956   0.944321
C  -0.131712  -0.678301   0.061277
H  -1.416502   0.709393   0.692058
H  -1.385549   1.037168  -1.096463
H  -0.201446  -1.360704   1.098342
H   0.823955  -0.101741   0.023561
H  -0.133953  -1.390350  -0.829382
