butane_opt
 OpenBabel08242015383D

 14 13  0  0  0  0  0  0  0  0999 V2000
   -3.9463    0.2621    0.0862 C   0  0  0  0  0  0  0  0  0  0  0  0
   -2.7109   -0.6051   -0.0965 C   0  0  0  0  0  0  0  0  0  0  0  0
   -4.8337   -0.3452    0.4439 H   0  0  0  0  0  0  0  0  0  0  0  0
   -4.1685    0.8104   -0.7654 H   0  0  0  0  0  0  0  0  0  0  0  0
   -3.7069    0.7769    0.9653 H   0  0  0  0  0  0  0  0  0  0  0  0
   -1.3891    0.2194   -0.0301 C   0  0  0  0  0  0  0  0  0  0  0  0
   -2.7956   -1.4423   -0.9610 H   0  0  0  0  0  0  0  0  0  0  0  0
   -2.6430   -1.0964    0.6965 H   0  0  0  0  0  0  0  0  0  0  0  0
   -0.1793   -0.7017    0.1180 C   0  0  0  0  0  0  0  0  0  0  0  0
   -1.4935    0.6693    0.6914 H   0  0  0  0  0  0  0  0  0  0  0  0
   -1.3873    0.9960   -1.0391 H   0  0  0  0  0  0  0  0  0  0  0  0
   -0.0061   -1.4316    1.0775 H   0  0  0  0  0  0  0  0  0  0  0  0
    0.6293   -0.1979    0.0633 H   0  0  0  0  0  0  0  0  0  0  0  0
    0.0646   -1.2861   -0.6559 H   0  0  0  0  0  0  0  0  0  0  0  0
  1  3  1  0  0  0  0
  1  5  1  0  0  0  0
  2  6  1  0  0  0  0
  2  1  1  0  0  0  0
  2  8  1  0  0  0  0
  4  1  1  0  0  0  0
  6  9  1  0  0  0  0
  6 10  1  0  0  0  0
  7  2  1  0  0  0  0
  9 12  1  0  0  0  0
 11  6  1  0  0  0  0
 13  9  1  0  0  0  0
 14  9  1  0  0  0  0
M  END
$$$$
