14
butane_opt
C  -3.891153   0.223195  -0.032584
C  -2.700781  -0.536020   0.163212
H  -5.047974  -0.533982  -0.378294
H  -3.647002   0.786588  -0.962343
H  -4.106847   0.981463   0.775452
C  -1.432577   0.225026   0.060170
H  -2.800288  -1.210380  -0.658615
H  -2.623439  -1.300539   1.066608
C  -0.178904  -0.748767  -0.050471
H  -1.320953   0.879210   0.864913
H  -1.407277   0.831495  -0.876682
H  -0.150738  -1.191266   0.700444
H   0.699430  -0.152762   0.149554
H  -0.130363  -1.559245  -0.943121
