14
butane_opt
C  -4.000097   0.312919   0.104654
C  -2.690693  -0.650811  -0.036228
H  -4.875299  -0.233843  -0.182907
H  -3.910986   0.670009  -0.663623
H  -3.923227   1.134337   1.073382
C  -1.374528   0.121908  -0.088922
H  -2.920593  -1.314539  -0.895609
H  -2.561526  -1.274922   0.911291
C  -0.159947  -0.649556   0.090189
H  -1.388354   0.856919   0.803608
H  -1.229605   0.793803  -1.039141
H  -0.284614  -1.461651   1.187063
H   0.732452  -0.024549   0.060977
H  -0.002093  -1.227436  -0.648573
