14
butane_opt
C  -3.916364   0.263618  -0.099411
C  -2.690132  -0.615258   0.167765
H  -4.935132  -0.334145  -0.337960
H  -3.681915   0.650907  -0.935361
H  -4.137155   1.134010   0.899941
C  -1.374824   0.207525   0.104117
H  -2.651959  -1.072234  -0.480558
H  -2.748371  -1.481479   1.284421
C  -0.202035  -0.700567  -0.071360
H  -1.418443   0.950867   0.925785
H  -1.431797   0.711418  -0.683192
H  -0.106888  -1.284510   0.742948
H   0.614168  -0.163085  -0.097865
H  -0.301492  -1.477713  -1.087035
