butane_opt
 OpenBabel08242015383D

 14 13  0  0  0  0  0  0  0  0999 V2000
   -3.9030    0.2452    0.1339 C   0  0  0  0  0  0  0  0  0  0  0  0
   -2.7325   -0.5864   -0.0650 C   0  0  0  0  0  0  0  0  0  0  0  0
   -4.8775   -0.4648    0.1801 H   0  0  0  0  0  0  0  0  0  0  0  0
   -4.0333    0.7780   -0.6884 H   0  0  0  0  0  0  0  0  0  0  0  0
   -3.7532    1.0096    1.0264 H   0  0  0  0  0  0  0  0  0  0  0  0
   -1.4136    0.2020   -0.1552 C   0  0  0  0  0  0  0  0  0  0  0  0
   -3.0242   -1.2566   -0.9505 H   0  0  0  0  0  0  0  0  0  0  0  0
   -2.5216   -1.1991    0.7962 H   0  0  0  0  0  0  0  0  0  0  0  0
   -0.1346   -0.7281    0.1551 C   0  0  0  0  0  0  0  0  0  0  0  0
   -1.5809    0.9832    0.6524 H   0  0  0  0  0  0  0  0  0  0  0  0
   -1.3896    0.9593   -1.1132 H   0  0  0  0  0  0  0  0  0  0  0  0
   -0.4719   -1.2447    1.0649 H   0  0  0  0  0  0  0  0  0  0  0  0
    0.7299   -0.1222    0.3740 H   0  0  0  0  0  0  0  0  0  0  0  0
    0.1227   -1.5491   -0.7593 H   0  0  0  0  0  0  0  0  0  0  0  0
  1  3  1  0  0  0  0
  1  5  1  0  0  0  0
  2  1  1  0  0  0  0
  2  8  1  0  0  0  0
  4  1  1  0  0  0  0
  6  2  1  0  0  0  0
  6  9  1  0  0  0  0
  6 10  1  0  0  0  0
  7  2  1  0  0  0  0
  9 13  1  0  0  0  0
  9 12  1  0  0  0  0
 11  6  1  0  0  0  0
 14  9  1  0  0  0  0
M  END
$$$$
