butane_opt
 OpenBabel08242015383D

 14 13  0  0  0  0  0  0  0  0999 V2000
   -3.9241    0.3042   -0.0542 C   0  0  0  0  0  0  0  0  0  0  0  0
   -2.6906   -0.6370    0.0676 C   0  0  0  0  0  0  0  0  0  0  0  0
   -4.8502   -0.3337    0.0881 H   0  0  0  0  0  0  0  0  0  0  0  0
   -4.0748    1.1027   -1.0348 H   0  0  0  0  0  0  0  0  0  0  0  0
   -3.8395    0.7642    0.6610 H   0  0  0  0  0  0  0  0  0  0  0  0
   -1.4052    0.1328    0.1454 C   0  0  0  0  0  0  0  0  0  0  0  0
   -2.7257   -1.2295   -0.7380 H   0  0  0  0  0  0  0  0  0  0  0  0
   -2.8135   -1.2901    0.9740 H   0  0  0  0  0  0  0  0  0  0  0  0
   -0.1661   -0.6776   -0.0391 C   0  0  0  0  0  0  0  0  0  0  0  0
   -1.3183    0.9205    0.9746 H   0  0  0  0  0  0  0  0  0  0  0  0
   -1.4998    0.6636   -0.6760 H   0  0  0  0  0  0  0  0  0  0  0  0
   -0.1072   -1.3214    0.8107 H   0  0  0  0  0  0  0  0  0  0  0  0
    0.8478   -0.0343   -0.2889 H   0  0  0  0  0  0  0  0  0  0  0  0
   -0.4167   -1.1595   -0.7816 H   0  0  0  0  0  0  0  0  0  0  0  0
  1  2  1  0  0  0  0
  1  3  1  0  0  0  0
  1  5  1  0  0  0  0
  2  6  1  0  0  0  0
  2  8  1  0  0  0  0
  4  1  1  0  0  0  0
  6 10  1  0  0  0  0
  7  2  1  0  0  0  0
  9  6  1  0  0  0  0
  9 12  1  0  0  0  0
 11  6  1  0  0  0  0
 13  9  1  0  0  0  0
 14  9  1  0  0  0  0
M  END
$$$$
