14
butane_opt
C  -3.882971   0.254012  -0.034414
C  -2.693641  -0.608100   0.104207
H  -4.870930  -0.368462   0.103618
H  -3.926801   1.196812  -1.154065
H  -3.982145   0.593062   0.571381
C  -1.400619   0.204058   0.085974
H  -2.674547  -1.321453  -0.797828
H  -2.789162  -1.183257   1.059546
C  -0.202350  -0.711514  -0.030379
H  -1.429793   1.124732   1.110016
H  -1.494694   0.689339  -0.692022
H  -0.104628  -1.315383   0.838074
H   0.737188  -0.114029  -0.115997
H  -0.313925  -1.452023  -1.032114
