14
butane_opt
C  -3.945058   0.290164   0.109650
C  -2.671517  -0.612076  -0.106309
H  -4.793699  -0.298721   0.021936
H  -4.060211   0.684536  -0.636853
H  -3.917191   1.131762   1.098371
C  -1.384639   0.146850  -0.052814
H  -2.736559  -1.330219  -0.907156
H  -2.591643  -1.271715   0.799895
C  -0.203784  -0.679476   0.122700
H  -1.483517   0.750961   0.730115
H  -1.114428   0.684494  -0.937032
H  -0.175913  -1.587047   1.233090
H   0.708106  -0.082997  -0.256759
H  -0.388347  -0.877452  -0.541047
