butane_opt
 OpenBabel08242015383D

 14 13  0  0  0  0  0  0  0  0999 V2000
   -3.9498    0.2597    0.0355 C   0  0  0  0  0  0  0  0  0  0  0  0
   -2.7162   -0.6076    0.0290 C   0  0  0  0  0  0  0  0  0  0  0  0
   -4.8623   -0.3121    0.0582 H   0  0  0  0  0  0  0  0  0  0  0  0
   -3.9745    0.8187   -0.8090 H   0  0  0  0  0  0  0  0  0  0  0  0
   -3.9794    0.9429    0.9229 H   0  0  0  0  0  0  0  0  0  0  0  0
   -1.3954    0.1971   -0.0199 C   0  0  0  0  0  0  0  0  0  0  0  0
   -2.7486   -1.3343   -0.8709 H   0  0  0  0  0  0  0  0  0  0  0  0
   -2.7104   -1.1995    0.8872 H   0  0  0  0  0  0  0  0  0  0  0  0
   -0.1505   -0.7089    0.0523 C   0  0  0  0  0  0  0  0  0  0  0  0
   -1.4086    0.8434    0.7877 H   0  0  0  0  0  0  0  0  0  0  0  0
   -1.3701    0.8572   -0.9203 H   0  0  0  0  0  0  0  0  0  0  0  0
   -0.1600   -1.3150    0.9496 H   0  0  0  0  0  0  0  0  0  0  0  0
    0.7851   -0.1005    0.0774 H   0  0  0  0  0  0  0  0  0  0  0  0
   -0.0516   -1.3587   -0.8000 H   0  0  0  0  0  0  0  0  0  0  0  0
  1  3  1  0  0  0  0
  1  5  1  0  0  0  0
  2  1  1  0  0  0  0
  2  8  1  0  0  0  0
  4  1  1  0  0  0  0
  6  2  1  0  0  0  0
  6  9  1  0  0  0  0
  6 10  1  0  0  0  0
  7  2  1  0  0  0  0
  9 13  1  0  0  0  0
  9 12  1  0  0  0  0
 11  6  1  0  0  0  0
 14  9  1  0  0  0  0
M  END
$$$$
