butane_opt
 OpenBabel08242015383D

 14 13  0  0  0  0  0  0  0  0999 V2000
   -3.9418    0.2652    0.0437 C   0  0  0  0  0  0  0  0  0  0  0  0
   -2.6930   -0.6177    0.0092 C   0  0  0  0  0  0  0  0  0  0  0  0
   -4.8454   -0.3307    0.0815 H   0  0  0  0  0  0  0  0  0  0  0  0
   -4.0175    0.8990   -0.8651 H   0  0  0  0  0  0  0  0  0  0  0  0
   -3.8989    0.9056    0.8965 H   0  0  0  0  0  0  0  0  0  0  0  0
   -1.4065    0.1783   -0.0068 C   0  0  0  0  0  0  0  0  0  0  0  0
   -2.6786   -1.3204   -0.8762 H   0  0  0  0  0  0  0  0  0  0  0  0
   -2.6487   -1.2163    0.8764 H   0  0  0  0  0  0  0  0  0  0  0  0
   -0.1702   -0.6907    0.0581 C   0  0  0  0  0  0  0  0  0  0  0  0
   -1.3621    0.8346    0.8366 H   0  0  0  0  0  0  0  0  0  0  0  0
   -1.3852    0.8954   -0.9469 H   0  0  0  0  0  0  0  0  0  0  0  0
   -0.2046   -1.3160    0.9422 H   0  0  0  0  0  0  0  0  0  0  0  0
    0.7135   -0.0941    0.0509 H   0  0  0  0  0  0  0  0  0  0  0  0
   -0.1502   -1.3574   -0.8085 H   0  0  0  0  0  0  0  0  0  0  0  0
  1  3  1  0  0  0  0
  1  5  1  0  0  0  0
  2  1  1  0  0  0  0
  2  8  1  0  0  0  0
  4  1  1  0  0  0  0
  6  2  1  0  0  0  0
  6  9  1  0  0  0  0
  6 10  1  0  0  0  0
  7  2  1  0  0  0  0
  9 12  1  0  0  0  0
 11  6  1  0  0  0  0
 13  9  1  0  0  0  0
 14  9  1  0  0  0  0
M  END
$$$$
