butane_opt
 OpenBabel08242015383D

 14 13  0  0  0  0  0  0  0  0999 V2000
   -3.9936    0.2931    0.1111 C   0  0  0  0  0  0  0  0  0  0  0  0
   -2.6840   -0.6619   -0.0578 C   0  0  0  0  0  0  0  0  0  0  0  0
   -4.7666   -0.1637   -0.0261 H   0  0  0  0  0  0  0  0  0  0  0  0
   -4.1597    0.8061   -0.6431 H   0  0  0  0  0  0  0  0  0  0  0  0
   -3.8195    1.1322    1.0284 H   0  0  0  0  0  0  0  0  0  0  0  0
   -1.3966    0.1593   -0.0898 C   0  0  0  0  0  0  0  0  0  0  0  0
   -2.7092   -1.3329   -0.9222 H   0  0  0  0  0  0  0  0  0  0  0  0
   -2.6431   -1.4029    0.8330 H   0  0  0  0  0  0  0  0  0  0  0  0
   -0.1701   -0.6468    0.1169 C   0  0  0  0  0  0  0  0  0  0  0  0
   -1.2193    0.6632    0.6377 H   0  0  0  0  0  0  0  0  0  0  0  0
   -1.2940    0.7838   -0.9794 H   0  0  0  0  0  0  0  0  0  0  0  0
   -0.2510   -1.2865    1.0414 H   0  0  0  0  0  0  0  0  0  0  0  0
    0.7024   -0.1231    0.2014 H   0  0  0  0  0  0  0  0  0  0  0  0
    0.0390   -1.2468   -0.6770 H   0  0  0  0  0  0  0  0  0  0  0  0
  1  5  1  0  0  0  0
  2  1  1  0  0  0  0
  2  8  1  0  0  0  0
  3  1  1  0  0  0  0
  4  1  1  0  0  0  0
  6  2  1  0  0  0  0
  6  9  1  0  0  0  0
  6 10  1  0  0  0  0
  7  2  1  0  0  0  0
  9 13  1  0  0  0  0
  9 12  1  0  0  0  0
 11  6  1  0  0  0  0
 14  9  1  0  0  0  0
M  END
$$$$
