14
butane_opt
C  -3.943965   0.297163  -0.045835
C  -2.705998  -0.667913   0.134403
H  -4.805201  -0.207990   0.180343
H  -4.100543   1.120949  -1.036593
H  -4.086026   0.835536   0.678363
C  -1.398695   0.159059   0.018121
H  -2.470892  -1.349007  -0.681236
H  -2.768278  -1.485406   1.164984
C  -0.166878  -0.648422  -0.034337
H  -1.257135   0.942804   1.035733
H  -1.459468   0.638225  -0.773627
H  -0.293881  -0.975174   0.648756
H   0.786395  -0.064755   0.491247
H   0.002299  -1.588739  -1.159361
