14
butane_opt
C  -3.979531   0.233644  -0.058717
C  -2.724552  -0.562734   0.105768
H  -4.966099  -0.467124   0.463824
H  -4.018588   1.169503  -1.191662
H  -3.807726   0.557121   0.557263
C  -1.426941   0.222264   0.080960
H  -2.727324  -1.248737  -0.757817
H  -2.847830  -1.276449   0.958755
C  -0.112132  -0.733883  -0.049071
H  -1.325760   1.155845   1.128224
H  -1.358099   0.667132  -0.659897
H   0.023737  -1.250319   0.853390
H   0.809591  -0.141033   0.135286
H   0.101133  -1.549879  -1.035438
