14
butane_opt
C  -3.875951   0.247410   0.088991
C  -2.717264  -0.568257  -0.014636
H  -4.867678  -0.473050  -0.188287
H  -3.839459   0.486063  -0.625760
H  -3.874247   1.207570   1.182862
C  -1.417925   0.218399  -0.098317
H  -2.890788  -1.380231  -1.002221
H  -2.637440  -1.215797   0.833242
C  -0.177931  -0.705580   0.116292
H  -1.455113   0.803026   0.736097
H  -1.498742   0.915593  -1.036006
H  -0.157790  -1.655365   1.211039
H   0.595834  -0.239284  -0.025397
H  -0.118547  -1.237701  -0.694028
