butane_opt
 OpenBabel08242015383D

 14 13  0  0  0  0  0  0  0  0999 V2000
   -3.9003    0.2721    0.1447 C   0  0  0  0  0  0  0  0  0  0  0  0
   -2.6989   -0.6164   -0.0744 C   0  0  0  0  0  0  0  0  0  0  0  0
   -4.6782   -0.2278    0.1126 H   0  0  0  0  0  0  0  0  0  0  0  0
   -4.0851    0.8893   -0.7765 H   0  0  0  0  0  0  0  0  0  0  0  0
   -3.8552    0.9622    1.0001 H   0  0  0  0  0  0  0  0  0  0  0  0
   -1.4125    0.1650   -0.1266 C   0  0  0  0  0  0  0  0  0  0  0  0
   -2.9007   -1.3330   -0.9721 H   0  0  0  0  0  0  0  0  0  0  0  0
   -2.4379   -1.3536    0.8067 H   0  0  0  0  0  0  0  0  0  0  0  0
   -0.1936   -0.6744    0.1319 C   0  0  0  0  0  0  0  0  0  0  0  0
   -1.4692    0.7406    0.6538 H   0  0  0  0  0  0  0  0  0  0  0  0
   -1.3348    0.7681   -1.0299 H   0  0  0  0  0  0  0  0  0  0  0  0
   -0.5291   -1.1740    1.0552 H   0  0  0  0  0  0  0  0  0  0  0  0
    0.7208   -0.1101    0.3938 H   0  0  0  0  0  0  0  0  0  0  0  0
    0.0062   -1.3662   -0.7393 H   0  0  0  0  0  0  0  0  0  0  0  0
  1  5  1  0  0  0  0
  2  1  1  0  0  0  0
  2  8  1  0  0  0  0
  3  1  1  0  0  0  0
  4  1  1  0  0  0  0
  6  2  1  0  0  0  0
  6  9  1  0  0  0  0
  6 10  1  0  0  0  0
  7  2  1  0  0  0  0
  9 13  1  0  0  0  0
  9 12  1  0  0  0  0
 11  6  1  0  0  0  0
 14  9  1  0  0  0  0
M  END
$$$$
