butane_opt
 OpenBabel08242015383D

 14 13  0  0  0  0  0  0  0  0999 V2000
   -3.9695    0.2732    0.0489 C   0  0  0  0  0  0  0  0  0  0  0  0
   -2.6822   -0.6276    0.0023 C   0  0  0  0  0  0  0  0  0  0  0  0
   -4.8091   -0.2637   -0.0661 H   0  0  0  0  0  0  0  0  0  0  0  0
   -3.9736    0.7426   -0.8025 H   0  0  0  0  0  0  0  0  0  0  0  0
   -3.9921    1.2031    1.1644 H   0  0  0  0  0  0  0  0  0  0  0  0
   -1.3807    0.1419   -0.0373 C   0  0  0  0  0  0  0  0  0  0  0  0
   -2.5009   -1.2083   -0.7858 H   0  0  0  0  0  0  0  0  0  0  0  0
   -2.7152   -1.3698    0.9637 H   0  0  0  0  0  0  0  0  0  0  0  0
   -0.2016   -0.6738    0.0668 C   0  0  0  0  0  0  0  0  0  0  0  0
   -1.2954    0.8196    0.8720 H   0  0  0  0  0  0  0  0  0  0  0  0
   -1.3256    0.8783   -1.0295 H   0  0  0  0  0  0  0  0  0  0  0  0
   -0.3373   -1.3364    0.9606 H   0  0  0  0  0  0  0  0  0  0  0  0
    0.7584    0.0047    0.0466 H   0  0  0  0  0  0  0  0  0  0  0  0
   -0.0301   -1.2973   -0.8202 H   0  0  0  0  0  0  0  0  0  0  0  0
  1  5  1  0  0  0  0
  2  1  1  0  0  0  0
  2  8  1  0  0  0  0
  3  1  1  0  0  0  0
  4  1  1  0  0  0  0
  6  2  1  0  0  0  0
  6  9  1  0  0  0  0
  6 10  1  0  0  0  0
  7  2  1  0  0  0  0
  9 12  1  0  0  0  0
 11  6  1  0  0  0  0
 13  9  1  0  0  0  0
 14  9  1  0  0  0  0
M  END
$$$$
