butane_opt
 OpenBabel08242015383D

 14 13  0  0  0  0  0  0  0  0999 V2000
   -3.9285    0.2506    0.0517 C   0  0  0  0  0  0  0  0  0  0  0  0
   -2.6985   -0.6043    0.0147 C   0  0  0  0  0  0  0  0  0  0  0  0
   -4.8626   -0.4321    0.1673 H   0  0  0  0  0  0  0  0  0  0  0  0
   -3.8829    0.8587   -0.8530 H   0  0  0  0  0  0  0  0  0  0  0  0
   -3.7120    0.9545    0.9643 H   0  0  0  0  0  0  0  0  0  0  0  0
   -1.4130    0.2255   -0.0637 C   0  0  0  0  0  0  0  0  0  0  0  0
   -2.7187   -1.1576   -0.7690 H   0  0  0  0  0  0  0  0  0  0  0  0
   -2.6495   -1.3812    0.9304 H   0  0  0  0  0  0  0  0  0  0  0  0
   -0.1821   -0.7021    0.0745 C   0  0  0  0  0  0  0  0  0  0  0  0
   -1.6516    0.8091    0.6829 H   0  0  0  0  0  0  0  0  0  0  0  0
   -1.3236    0.7884   -0.9412 H   0  0  0  0  0  0  0  0  0  0  0  0
   -0.1864   -1.1348    0.8293 H   0  0  0  0  0  0  0  0  0  0  0  0
    0.6277   -0.1504    0.4471 H   0  0  0  0  0  0  0  0  0  0  0  0
   -0.0104   -1.6644   -0.9669 H   0  0  0  0  0  0  0  0  0  0  0  0
  1  3  1  0  0  0  0
  1  5  1  0  0  0  0
  2  1  1  0  0  0  0
  2  8  1  0  0  0  0
  4  1  1  0  0  0  0
  6  2  1  0  0  0  0
  6  9  1  0  0  0  0
  6 10  1  0  0  0  0
  7  2  1  0  0  0  0
  9 13  1  0  0  0  0
  9 12  1  0  0  0  0
 11  6  1  0  0  0  0
 14  9  1  0  0  0  0
M  END
$$$$
