butane_opt
 OpenBabel08242015383D

 14 13  0  0  0  0  0  0  0  0999 V2000
   -3.9708    0.2515    0.0811 C   0  0  0  0  0  0  0  0  0  0  0  0
   -2.7349   -0.6123   -0.0479 C   0  0  0  0  0  0  0  0  0  0  0  0
   -4.8128   -0.2512    0.1139 H   0  0  0  0  0  0  0  0  0  0  0  0
   -4.1968    0.9558   -0.9074 H   0  0  0  0  0  0  0  0  0  0  0  0
   -3.9857    0.9422    0.8781 H   0  0  0  0  0  0  0  0  0  0  0  0
   -1.3938    0.1655   -0.0197 C   0  0  0  0  0  0  0  0  0  0  0  0
   -2.7425   -1.2286   -0.8293 H   0  0  0  0  0  0  0  0  0  0  0  0
   -2.6142   -1.3137    0.8913 H   0  0  0  0  0  0  0  0  0  0  0  0
   -0.1010   -0.6771    0.0881 C   0  0  0  0  0  0  0  0  0  0  0  0
   -1.4155    0.8925    0.8043 H   0  0  0  0  0  0  0  0  0  0  0  0
   -1.3322    0.8799   -0.9598 H   0  0  0  0  0  0  0  0  0  0  0  0
   -0.1571   -1.3505    0.9646 H   0  0  0  0  0  0  0  0  0  0  0  0
    0.8455   -0.0731    0.0389 H   0  0  0  0  0  0  0  0  0  0  0  0
   -0.1924   -1.4549   -0.7898 H   0  0  0  0  0  0  0  0  0  0  0  0
  1  3  1  0  0  0  0
  1  5  1  0  0  0  0
  2  6  1  0  0  0  0
  2  1  1  0  0  0  0
  2  8  1  0  0  0  0
  4  1  1  0  0  0  0
  6  9  1  0  0  0  0
  6 10  1  0  0  0  0
  7  2  1  0  0  0  0
  9 12  1  0  0  0  0
 11  6  1  0  0  0  0
 13  9  1  0  0  0  0
 14  9  1  0  0  0  0
M  END
$$$$
