14
butane_opt
C  -3.955590   0.270022   0.010651
C  -2.703169  -0.618521   0.056610
H  -4.900477  -0.331708  -0.021435
H  -4.006589   0.859820  -0.849149
H  -3.989365   0.956309   0.876110
C  -1.396537   0.179930   0.011739
H  -2.684680  -1.289421  -0.791757
H  -2.716731  -1.276327   0.946926
C  -0.151763  -0.686610   0.022471
H  -1.390676   0.801461   0.829794
H  -1.381684   0.827200  -0.895658
H  -0.129437  -1.230662   0.905904
H   0.750599  -0.120084   0.083514
H  -0.089743  -1.410649  -0.867971
