butane_opt
 OpenBabel08242015383D

 14 13  0  0  0  0  0  0  0  0999 V2000
   -3.9212    0.2600    0.0661 C   0  0  0  0  0  0  0  0  0  0  0  0
   -2.7205   -0.5990   -0.0754 C   0  0  0  0  0  0  0  0  0  0  0  0
   -4.8345   -0.2210    0.5226 H   0  0  0  0  0  0  0  0  0  0  0  0
   -4.3019    1.0499   -0.9164 H   0  0  0  0  0  0  0  0  0  0  0  0
   -3.6673    0.7387    0.8754 H   0  0  0  0  0  0  0  0  0  0  0  0
   -1.4003    0.1548   -0.0296 C   0  0  0  0  0  0  0  0  0  0  0  0
   -2.5838   -1.2989   -0.9070 H   0  0  0  0  0  0  0  0  0  0  0  0
   -2.7089   -1.1372    0.8215 H   0  0  0  0  0  0  0  0  0  0  0  0
   -0.1603   -0.6845    0.1067 C   0  0  0  0  0  0  0  0  0  0  0  0
   -1.4001    0.8573    0.8133 H   0  0  0  0  0  0  0  0  0  0  0  0
   -1.3692    0.7200   -0.8387 H   0  0  0  0  0  0  0  0  0  0  0  0
   -0.3695   -1.3783    1.0486 H   0  0  0  0  0  0  0  0  0  0  0  0
    0.7989   -0.0210    0.0016 H   0  0  0  0  0  0  0  0  0  0  0  0
   -0.1491   -1.3548   -0.8147 H   0  0  0  0  0  0  0  0  0  0  0  0
  1  3  1  0  0  0  0
  1  5  1  0  0  0  0
  2  6  1  0  0  0  0
  2  1  1  0  0  0  0
  2  8  1  0  0  0  0
  4  1  1  0  0  0  0
  6  9  1  0  0  0  0
  6 10  1  0  0  0  0
  7  2  1  0  0  0  0
  9 12  1  0  0  0  0
 11  6  1  0  0  0  0
 13  9  1  0  0  0  0
 14  9  1  0  0  0  0
M  END
$$$$
