14
butane_opt
C  -3.964595   0.228320   0.108095
C  -2.697954  -0.618876  -0.013828
H  -4.786572  -0.319307  -0.189135
H  -3.956992   0.493248  -0.580678
H  -4.129236   1.336557   1.158069
C  -1.415389   0.235713  -0.114780
H  -2.846623  -1.284314  -0.843466
H  -2.701558  -1.083937   0.784228
C  -0.140364  -0.719103   0.098941
H  -1.454453   0.766999   0.668919
H  -1.331853   0.951953  -1.136887
H  -0.163573  -1.527813   1.139875
H   0.769686  -0.064674   0.202721
H   0.188619  -1.261744  -0.644854
