14
butane_opt
C  -3.945627   0.255424  -0.057383
C  -2.723222  -0.619429   0.100264
H  -4.796480  -0.274946   0.320568
H  -4.170418   1.037713  -1.024649
H  -3.859227   0.609282   0.649439
C  -1.421136   0.216963   0.089330
H  -2.797615  -1.337726  -0.818748
H  -2.876061  -1.234369   1.021672
C  -0.097012  -0.689728  -0.014971
H  -1.410942   0.897682   0.878251
H  -1.474556   0.922979  -0.836288
H  -0.143469  -1.084169   0.764327
H   0.758361  -0.290439   0.109498
H  -0.009948  -1.682821  -1.089970
