14
butane_opt
C  -3.932681   0.248328   0.049582
C  -2.704615  -0.595159   0.007365
H  -4.845066  -0.367432   0.070082
H  -4.007121   0.797944  -0.807609
H  -3.885476   0.979441   0.978533
C  -1.415538   0.194786  -0.039600
H  -2.734255  -1.244625  -0.831229
H  -2.712237  -1.203646   0.912821
C  -0.162730  -0.709054   0.067286
H  -1.444666   0.842379   0.781888
H  -1.339754   0.873565  -0.978130
H  -0.208927  -1.274073   0.959680
H   0.765451  -0.103958   0.137191
H  -0.019660  -1.445891  -0.804756
