butane_opt
 OpenBabel08242015383D

 14 13  0  0  0  0  0  0  0  0999 V2000
   -3.9605    0.2443    0.1188 C   0  0  0  0  0  0  0  0  0  0  0  0
   -2.7373   -0.6107   -0.0862 C   0  0  0  0  0  0  0  0  0  0  0  0
   -4.8911   -0.3856    0.3230 H   0  0  0  0  0  0  0  0  0  0  0  0
   -4.1382    0.7896   -0.7051 H   0  0  0  0  0  0  0  0  0  0  0  0
   -3.6810    0.8627    1.0032 H   0  0  0  0  0  0  0  0  0  0  0  0
   -1.3727    0.2442   -0.1297 C   0  0  0  0  0  0  0  0  0  0  0  0
   -2.8282   -1.3045   -0.8926 H   0  0  0  0  0  0  0  0  0  0  0  0
   -2.6917   -1.1278    0.7786 H   0  0  0  0  0  0  0  0  0  0  0  0
   -0.1438   -0.7421    0.1499 C   0  0  0  0  0  0  0  0  0  0  0  0
   -1.3930    0.9733    0.7118 H   0  0  0  0  0  0  0  0  0  0  0  0
   -1.4524    1.0372   -1.0481 H   0  0  0  0  0  0  0  0  0  0  0  0
   -0.2630   -1.2752    1.0087 H   0  0  0  0  0  0  0  0  0  0  0  0
    0.6104   -0.2024    0.2802 H   0  0  0  0  0  0  0  0  0  0  0  0
    0.2845   -1.5047   -0.6705 H   0  0  0  0  0  0  0  0  0  0  0  0
  1  3  1  0  0  0  0
  1  5  1  0  0  0  0
  2  1  1  0  0  0  0
  2  8  1  0  0  0  0
  4  1  1  0  0  0  0
  6  2  1  0  0  0  0
  6  9  1  0  0  0  0
  6 10  1  0  0  0  0
  7  2  1  0  0  0  0
  9 13  1  0  0  0  0
  9 12  1  0  0  0  0
 11  6  1  0  0  0  0
 14  9  1  0  0  0  0
M  END
$$$$
