butane_opt
 OpenBabel08242015383D

 14 13  0  0  0  0  0  0  0  0999 V2000
   -3.9296    0.2912    0.0945 C   0  0  0  0  0  0  0  0  0  0  0  0
   -2.6505   -0.6556   -0.0428 C   0  0  0  0  0  0  0  0  0  0  0  0
   -4.9297   -0.3264   -0.1525 H   0  0  0  0  0  0  0  0  0  0  0  0
   -4.0881    0.6325   -0.6486 H   0  0  0  0  0  0  0  0  0  0  0  0
   -4.0546    1.2752    1.1922 H   0  0  0  0  0  0  0  0  0  0  0  0
   -1.3938    0.1456   -0.0758 C   0  0  0  0  0  0  0  0  0  0  0  0
   -2.7087   -1.2548   -0.8584 H   0  0  0  0  0  0  0  0  0  0  0  0
   -2.6285   -1.2144    0.8977 H   0  0  0  0  0  0  0  0  0  0  0  0
   -0.1905   -0.6624    0.1028 C   0  0  0  0  0  0  0  0  0  0  0  0
   -1.5984    0.7077    0.6780 H   0  0  0  0  0  0  0  0  0  0  0  0
   -1.3313    0.8552   -1.0489 H   0  0  0  0  0  0  0  0  0  0  0  0
   -0.2601   -1.4567    1.0483 H   0  0  0  0  0  0  0  0  0  0  0  0
    0.8288   -0.0073    0.0855 H   0  0  0  0  0  0  0  0  0  0  0  0
   -0.2633   -1.1138   -0.6513 H   0  0  0  0  0  0  0  0  0  0  0  0
  1  5  1  0  0  0  0
  2  1  1  0  0  0  0
  2  8  1  0  0  0  0
  3  1  1  0  0  0  0
  4  1  1  0  0  0  0
  6  2  1  0  0  0  0
  6  9  1  0  0  0  0
  6 10  1  0  0  0  0
  7  2  1  0  0  0  0
  9 12  1  0  0  0  0
 11  6  1  0  0  0  0
 13  9  1  0  0  0  0
 14  9  1  0  0  0  0
M  END
$$$$
