14
butane_opt
C  -3.976329   0.240089  -0.049176
C  -2.711542  -0.579418   0.074358
H  -4.918151  -0.393823   0.380747
H  -4.032693   1.163242  -1.152137
H  -3.869900   0.489510   0.567010
C  -1.426724   0.195665   0.129207
H  -2.663177  -1.234976  -0.775118
H  -2.746102  -1.112555   0.919248
C  -0.106580  -0.694945  -0.029267
H  -1.284319   0.848803   0.969783
H  -1.384851   0.855604  -0.703513
H  -0.080614  -1.202329   0.778601
H   0.723532  -0.308062  -0.064721
H  -0.090312  -1.534736  -1.037091
