14
butane_opt
C  -3.993569   0.293143   0.111052
C  -2.684035  -0.661915  -0.057793
H  -4.766569  -0.163697  -0.026128
H  -4.159656   0.806067  -0.643111
H  -3.819502   1.132217   1.028413
C  -1.396605   0.159258  -0.089825
H  -2.709224  -1.332920  -0.922238
H  -2.643069  -1.402931   0.832979
C  -0.170073  -0.646775   0.116899
H  -1.219321   0.663248   0.637660
H  -1.294049   0.783835  -0.979441
H  -0.251023  -1.286485   1.041423
H   0.702390  -0.123094   0.201421
H   0.038957  -1.246842  -0.677043
