14
butane_opt
C  -3.967588   0.276985   0.106656
C  -2.687946  -0.666694  -0.097264
H  -4.854760  -0.307388   0.483375
H  -4.419240   0.985421  -0.765528
H  -3.814001   0.914728   1.028991
C  -1.399038   0.189875  -0.067194
H  -2.643173  -1.486736  -1.040095
H  -2.649591  -0.999920   0.585721
C  -0.166732  -0.681437   0.134888
H  -1.408285   0.807805   0.624315
H  -1.112985   0.926732  -1.064928
H  -0.066960  -1.465951   1.224284
H   0.732552  -0.101030   0.121464
H  -0.116314  -1.183969  -0.654472
