butane_opt
 OpenBabel08242015383D

 14 12  0  0  0  0  0  0  0  0999 V2000
   -3.9741    0.2997   -0.0589 C   0  0  0  0  0  0  0  0  0  0  0  0
   -2.6500   -0.6156    0.0840 C   0  0  0  0  0  0  0  0  0  0  0  0
   -4.8901   -0.3285    0.4424 H   0  0  0  0  0  0  0  0  0  0  0  0
   -4.1007    1.2508   -1.1710 H   0  0  0  0  0  0  0  0  0  0  0  0
   -3.8659    0.5967    0.4611 H   0  0  0  0  0  0  0  0  0  0  0  0
   -1.3797    0.1253    0.0879 C   0  0  0  0  0  0  0  0  0  0  0  0
   -2.7892   -1.2299   -0.6955 H   0  0  0  0  0  0  0  0  0  0  0  0
   -2.6044   -1.3902    1.0471 H   0  0  0  0  0  0  0  0  0  0  0  0
   -0.1847   -0.6576   -0.0216 C   0  0  0  0  0  0  0  0  0  0  0  0
   -1.2995    0.9137    1.0676 H   0  0  0  0  0  0  0  0  0  0  0  0
   -1.3729    0.4678   -0.5598 H   0  0  0  0  0  0  0  0  0  0  0  0
   -0.2789   -1.0105    0.7163 H   0  0  0  0  0  0  0  0  0  0  0  0
    0.6822   -0.0454    0.0402 H   0  0  0  0  0  0  0  0  0  0  0  0
   -0.2444   -1.5056   -1.0881 H   0  0  0  0  0  0  0  0  0  0  0  0
  1  2  1  0  0  0  0
  1  3  1  0  0  0  0
  2  6  1  0  0  0  0
  2  8  1  0  0  0  0
  4  1  1  0  0  0  0
  6 10  1  0  0  0  0
  7  2  1  0  0  0  0
  9 13  1  0  0  0  0
  9  6  1  0  0  0  0
  9 12  1  0  0  0  0
 11  6  1  0  0  0  0
 14  9  1  0  0  0  0
M  RAD  2   1   2   5   2
M  END
$$$$
