14
butane_opt
C  -3.931899   0.210458   0.138150
C  -2.671922  -0.561405  -0.101161
H  -4.929786  -0.419807   0.413637
H  -4.155846   1.067594  -0.827112
H  -3.653168   0.743221   0.939910
C  -1.420137   0.233411  -0.124407
H  -2.954709  -1.360862  -1.076589
H  -2.623742  -1.069026   0.722889
C  -0.175622  -0.723848   0.152120
H  -1.641082   0.890909   0.748710
H  -1.281290   0.742582  -0.936422
H  -0.190448  -1.399975   1.138820
H   0.714560  -0.198788   0.191566
H   0.099484  -1.375283  -0.696561
