14
butane_opt
C  -3.943737   0.272904   0.030812
C  -2.691820  -0.613152   0.021586
H  -4.868337  -0.332011   0.023498
H  -3.976932   0.844351  -0.828493
H  -3.933097   0.941842   0.906087
C  -1.411905   0.171849   0.004127
H  -2.709428  -1.363814  -0.879382
H  -2.667353  -1.207022   0.874594
C  -0.171222  -0.687642   0.048466
H  -1.403965   0.818417   0.819050
H  -1.338388   0.804470  -0.894818
H  -0.068198  -1.371047   0.993910
H   0.743759  -0.057908  -0.083144
H  -0.184717  -1.269440  -0.744100
