butane_opt
 OpenBabel08242015383D

 14 12  0  0  0  0  0  0  0  0999 V2000
   -3.9203    0.2365    0.1073 C   0  0  0  0  0  0  0  0  0  0  0  0
   -2.6817   -0.5738   -0.0928 C   0  0  0  0  0  0  0  0  0  0  0  0
   -4.8578   -0.3342    0.2163 H   0  0  0  0  0  0  0  0  0  0  0  0
   -4.0854    0.8103   -0.7837 H   0  0  0  0  0  0  0  0  0  0  0  0
   -3.7705    0.9873    0.9888 H   0  0  0  0  0  0  0  0  0  0  0  0
   -1.4299    0.1705   -0.0227 C   0  0  0  0  0  0  0  0  0  0  0  0
   -2.7086   -1.3762   -1.0810 H   0  0  0  0  0  0  0  0  0  0  0  0
   -2.6337   -1.0642    0.6635 H   0  0  0  0  0  0  0  0  0  0  0  0
   -0.1734   -0.7154    0.1085 C   0  0  0  0  0  0  0  0  0  0  0  0
   -1.4347    0.7224    0.6851 H   0  0  0  0  0  0  0  0  0  0  0  0
   -1.5172    0.9041   -0.9969 H   0  0  0  0  0  0  0  0  0  0  0  0
   -0.0666   -1.5553    1.1108 H   0  0  0  0  0  0  0  0  0  0  0  0
    0.8072   -0.0089   -0.0972 H   0  0  0  0  0  0  0  0  0  0  0  0
   -0.2801   -0.9519   -0.3995 H   0  0  0  0  0  0  0  0  0  0  0  0
  1  3  1  0  0  0  0
  1  5  1  0  0  0  0
  2  6  1  0  0  0  0
  2  1  1  0  0  0  0
  2  8  1  0  0  0  0
  4  1  1  0  0  0  0
  6  9  1  0  0  0  0
  6 10  1  0  0  0  0
  7  2  1  0  0  0  0
  9 12  1  0  0  0  0
 11  6  1  0  0  0  0
 13  9  1  0  0  0  0
M  RAD  2   9   2  14   2
M  END
$$$$
