14
butane_opt
C  -3.970670   0.258020   0.112019
C  -2.725069  -0.600744  -0.135010
H  -4.796562  -0.307965   0.638983
H  -4.327729   0.903562  -0.817532
H  -3.692081   0.713331   0.852711
C  -1.413575   0.193545  -0.077609
H  -2.998687  -1.220251  -1.023930
H  -2.598998  -1.167546   0.723340
C  -0.081826  -0.687065   0.153877
H  -1.564732   0.844508   0.808644
H  -1.256166   0.770080  -0.925214
H  -0.138786  -1.431520   1.116635
H   0.732323  -0.186936   0.083845
H  -0.090450  -1.346786  -0.679158
