butane_opt
 OpenBabel08242015383D

 14 13  0  0  0  0  0  0  0  0999 V2000
   -3.9350    0.2267    0.1232 C   0  0  0  0  0  0  0  0  0  0  0  0
   -2.7297   -0.5937   -0.1007 C   0  0  0  0  0  0  0  0  0  0  0  0
   -4.8588   -0.3724    0.3914 H   0  0  0  0  0  0  0  0  0  0  0  0
   -4.1559    1.0176   -0.8837 H   0  0  0  0  0  0  0  0  0  0  0  0
   -3.8696    0.7603    0.9749 H   0  0  0  0  0  0  0  0  0  0  0  0
   -1.4232    0.2243   -0.0794 C   0  0  0  0  0  0  0  0  0  0  0  0
   -3.0138   -1.3787   -0.9826 H   0  0  0  0  0  0  0  0  0  0  0  0
   -2.5410   -1.1015    0.7349 H   0  0  0  0  0  0  0  0  0  0  0  0
   -0.1214   -0.7170    0.1353 C   0  0  0  0  0  0  0  0  0  0  0  0
   -1.5851    0.9053    0.7965 H   0  0  0  0  0  0  0  0  0  0  0  0
   -1.3325    0.9669   -1.0850 H   0  0  0  0  0  0  0  0  0  0  0  0
   -0.1472   -1.3555    1.0769 H   0  0  0  0  0  0  0  0  0  0  0  0
    0.7660   -0.1732    0.1429 H   0  0  0  0  0  0  0  0  0  0  0  0
    0.2224   -1.4242   -0.7152 H   0  0  0  0  0  0  0  0  0  0  0  0
  1  3  1  0  0  0  0
  1  5  1  0  0  0  0
  2  6  1  0  0  0  0
  2  1  1  0  0  0  0
  2  8  1  0  0  0  0
  4  1  1  0  0  0  0
  6  9  1  0  0  0  0
  6 10  1  0  0  0  0
  7  2  1  0  0  0  0
  9 13  1  0  0  0  0
  9 12  1  0  0  0  0
 11  6  1  0  0  0  0
 14  9  1  0  0  0  0
M  END
$$$$
