butane_opt
 OpenBabel08242015383D

 14 13  0  0  0  0  0  0  0  0999 V2000
   -3.9456    0.2554   -0.0574 C   0  0  0  0  0  0  0  0  0  0  0  0
   -2.7232   -0.6194    0.1003 C   0  0  0  0  0  0  0  0  0  0  0  0
   -4.7965   -0.2749    0.3206 H   0  0  0  0  0  0  0  0  0  0  0  0
   -4.1704    1.0377   -1.0246 H   0  0  0  0  0  0  0  0  0  0  0  0
   -3.8592    0.6093    0.6494 H   0  0  0  0  0  0  0  0  0  0  0  0
   -1.4211    0.2170    0.0893 C   0  0  0  0  0  0  0  0  0  0  0  0
   -2.7976   -1.3377   -0.8187 H   0  0  0  0  0  0  0  0  0  0  0  0
   -2.8761   -1.2344    1.0217 H   0  0  0  0  0  0  0  0  0  0  0  0
   -0.0970   -0.6897   -0.0150 C   0  0  0  0  0  0  0  0  0  0  0  0
   -1.4109    0.8977    0.8783 H   0  0  0  0  0  0  0  0  0  0  0  0
   -1.4746    0.9230   -0.8363 H   0  0  0  0  0  0  0  0  0  0  0  0
   -0.1435   -1.0842    0.7643 H   0  0  0  0  0  0  0  0  0  0  0  0
    0.7584   -0.2904    0.1095 H   0  0  0  0  0  0  0  0  0  0  0  0
   -0.0099   -1.6828   -1.0900 H   0  0  0  0  0  0  0  0  0  0  0  0
  1  2  1  0  0  0  0
  1  3  1  0  0  0  0
  1  5  1  0  0  0  0
  2  8  1  0  0  0  0
  4  1  1  0  0  0  0
  6  2  1  0  0  0  0
  6 10  1  0  0  0  0
  7  2  1  0  0  0  0
  9  6  1  0  0  0  0
  9 13  1  0  0  0  0
  9 12  1  0  0  0  0
 11  6  1  0  0  0  0
 14  9  1  0  0  0  0
M  END
$$$$
