14
butane_opt
C  -3.958684   0.224140  -0.062344
C  -2.723420  -0.563904   0.112421
H  -4.861170  -0.364681   0.205823
H  -3.947022   0.974553  -1.011403
H  -3.990612   0.812906   0.787147
C  -1.439552   0.216808   0.067137
H  -2.685954  -1.165805  -0.606421
H  -2.914772  -1.447643   1.168357
C  -0.100099  -0.718058  -0.042699
H  -1.418453   0.947658   0.899865
H  -1.404180   0.761314  -0.820786
H  -0.097948  -1.077403   0.669079
H   0.806737  -0.073213   0.335116
H   0.139782  -1.737559  -1.112017
