14
butane_opt
C  -3.948994   0.244899  -0.078995
C  -2.690329  -0.574076   0.142566
H  -4.948092  -0.498307  -0.233645
H  -3.662714   0.601124  -0.787363
H  -4.073070   1.037548   0.822056
C  -1.414118   0.210292   0.075810
H  -2.687569  -1.018696  -0.538593
H  -2.695400  -1.469399   1.254502
C  -0.168675  -0.722842  -0.046011
H  -1.403625   1.028697   1.008009
H  -1.512904   0.847240  -0.908333
H  -0.067063  -1.201993   0.699566
H   0.782184  -0.158901   0.042561
H  -0.089593  -1.563606  -1.035534
