14
butane_opt
C  -3.986731   0.296169   0.008907
C  -2.714420  -0.654936   0.082307
H  -4.861861  -0.226889   0.001202
H  -4.029474   0.908291  -0.971083
H  -4.109128   0.909140   0.813098
C  -1.357453   0.186733   0.014785
H  -2.794570  -1.175636  -0.721070
H  -2.612210  -1.366075   0.982430
C  -0.156978  -0.689609   0.013142
H  -1.431784   0.663076   0.775838
H  -1.303329   0.852733  -0.974921
H  -0.182508  -1.025935   0.706104
H   0.983746   0.072374   0.438556
H  -0.121375  -1.713787  -1.074654
