butane_opt
 OpenBabel08242015383D

 14 13  0  0  0  0  0  0  0  0999 V2000
   -3.9416    0.2378   -0.0364 C   0  0  0  0  0  0  0  0  0  0  0  0
   -2.7348   -0.5751    0.1455 C   0  0  0  0  0  0  0  0  0  0  0  0
   -4.8835   -0.4585   -0.1163 H   0  0  0  0  0  0  0  0  0  0  0  0
   -3.7092    0.8997   -1.0439 H   0  0  0  0  0  0  0  0  0  0  0  0
   -4.2025    0.7500    0.7024 H   0  0  0  0  0  0  0  0  0  0  0  0
   -1.4214    0.2302    0.0509 C   0  0  0  0  0  0  0  0  0  0  0  0
   -2.8464   -1.2365   -0.7160 H   0  0  0  0  0  0  0  0  0  0  0  0
   -2.7600   -1.2908    1.2251 H   0  0  0  0  0  0  0  0  0  0  0  0
   -0.0919   -0.7406   -0.0288 C   0  0  0  0  0  0  0  0  0  0  0  0
   -1.3825    0.9159    0.8987 H   0  0  0  0  0  0  0  0  0  0  0  0
   -1.6309    0.9383   -0.8716 H   0  0  0  0  0  0  0  0  0  0  0  0
   -0.0833   -0.9439    0.6041 H   0  0  0  0  0  0  0  0  0  0  0  0
    0.8015   -0.1945    0.3059 H   0  0  0  0  0  0  0  0  0  0  0  0
   -0.0296   -1.7050   -1.1593 H   0  0  0  0  0  0  0  0  0  0  0  0
  1  2  1  0  0  0  0
  1  5  1  0  0  0  0
  2  8  1  0  0  0  0
  3  1  1  0  0  0  0
  4  1  1  0  0  0  0
  6  2  1  0  0  0  0
  6 10  1  0  0  0  0
  7  2  1  0  0  0  0
  9  6  1  0  0  0  0
  9 13  1  0  0  0  0
  9 12  1  0  0  0  0
 11  6  1  0  0  0  0
 14  9  1  0  0  0  0
M  END
$$$$
