butane_opt
 OpenBabel08242015383D

 14 13  0  0  0  0  0  0  0  0999 V2000
   -3.9319    0.2105    0.1381 C   0  0  0  0  0  0  0  0  0  0  0  0
   -2.6719   -0.5614   -0.1012 C   0  0  0  0  0  0  0  0  0  0  0  0
   -4.9298   -0.4198    0.4136 H   0  0  0  0  0  0  0  0  0  0  0  0
   -4.1558    1.0676   -0.8271 H   0  0  0  0  0  0  0  0  0  0  0  0
   -3.6532    0.7432    0.9399 H   0  0  0  0  0  0  0  0  0  0  0  0
   -1.4201    0.2334   -0.1244 C   0  0  0  0  0  0  0  0  0  0  0  0
   -2.9547   -1.3609   -1.0766 H   0  0  0  0  0  0  0  0  0  0  0  0
   -2.6237   -1.0690    0.7229 H   0  0  0  0  0  0  0  0  0  0  0  0
   -0.1756   -0.7238    0.1521 C   0  0  0  0  0  0  0  0  0  0  0  0
   -1.6411    0.8909    0.7487 H   0  0  0  0  0  0  0  0  0  0  0  0
   -1.2813    0.7426   -0.9364 H   0  0  0  0  0  0  0  0  0  0  0  0
   -0.1904   -1.4000    1.1388 H   0  0  0  0  0  0  0  0  0  0  0  0
    0.7146   -0.1988    0.1916 H   0  0  0  0  0  0  0  0  0  0  0  0
    0.0995   -1.3753   -0.6966 H   0  0  0  0  0  0  0  0  0  0  0  0
  1  3  1  0  0  0  0
  1  5  1  0  0  0  0
  2  1  1  0  0  0  0
  2  8  1  0  0  0  0
  4  1  1  0  0  0  0
  6  2  1  0  0  0  0
  6  9  1  0  0  0  0
  6 10  1  0  0  0  0
  7  2  1  0  0  0  0
  9 13  1  0  0  0  0
  9 12  1  0  0  0  0
 11  6  1  0  0  0  0
 14  9  1  0  0  0  0
M  END
$$$$
