14
butane_opt
C  -3.984644   0.294128  -0.029913
C  -2.712155  -0.642770   0.056325
H  -4.856653  -0.188218   0.393481
H  -4.153469   1.158507  -1.077209
H  -3.991233   0.631345   0.591014
C  -1.392417   0.142226   0.100832
H  -2.441055  -1.455870  -0.823683
H  -2.782183  -1.253995   0.939396
C  -0.123320  -0.648629  -0.017967
H  -1.290666   0.785186   0.965281
H  -1.351932   0.822416  -0.750150
H  -0.094120  -1.194297   0.820463
H   0.740615  -0.053623  -0.019678
H  -0.258769  -1.449913  -0.930825
