14
butane_opt
C  -3.936654   0.252628   0.035775
C  -2.703404  -0.593966   0.035736
H  -4.863133  -0.392157  -0.073665
H  -3.885241   0.814989  -0.846568
H  -3.974685   1.009882   0.932939
C  -1.405876   0.187101  -0.016278
H  -2.726802  -1.254403  -0.808155
H  -2.683591  -1.245433   0.961987
C  -0.170203  -0.706312   0.040012
H  -1.414374   0.882726   0.853018
H  -1.388194   0.823591  -0.913228
H  -0.140161  -1.337245   0.939841
H   0.755610  -0.092353   0.070088
H  -0.105003  -1.360533  -0.812782
