butane_opt
 OpenBabel08242015383D

 14 13  0  0  0  0  0  0  0  0999 V2000
   -3.9303    0.2313   -0.0706 C   0  0  0  0  0  0  0  0  0  0  0  0
   -2.6788   -0.5474    0.1094 C   0  0  0  0  0  0  0  0  0  0  0  0
   -4.9514   -0.4351    0.3605 H   0  0  0  0  0  0  0  0  0  0  0  0
   -3.9615    1.1770   -1.2422 H   0  0  0  0  0  0  0  0  0  0  0  0
   -3.6532    0.4746    0.5713 H   0  0  0  0  0  0  0  0  0  0  0  0
   -1.4203    0.1992    0.1034 C   0  0  0  0  0  0  0  0  0  0  0  0
   -2.7016   -1.1426   -0.6900 H   0  0  0  0  0  0  0  0  0  0  0  0
   -2.8002   -1.1987    1.0494 H   0  0  0  0  0  0  0  0  0  0  0  0
   -0.1761   -0.7170   -0.0577 C   0  0  0  0  0  0  0  0  0  0  0  0
   -1.3701    1.0837    1.1230 H   0  0  0  0  0  0  0  0  0  0  0  0
   -1.4837    0.4947   -0.6234 H   0  0  0  0  0  0  0  0  0  0  0  0
   -0.1384   -1.2055    0.7038 H   0  0  0  0  0  0  0  0  0  0  0  0
    0.6447   -0.2461    0.0903 H   0  0  0  0  0  0  0  0  0  0  0  0
   -0.1264   -1.4681   -0.9728 H   0  0  0  0  0  0  0  0  0  0  0  0
  1  2  1  0  0  0  0
  1  3  1  0  0  0  0
  1  5  1  0  0  0  0
  2  8  1  0  0  0  0
  4  1  1  0  0  0  0
  6  2  1  0  0  0  0
  6 10  1  0  0  0  0
  7  2  1  0  0  0  0
  9 13  1  0  0  0  0
  9  6  1  0  0  0  0
  9 12  1  0  0  0  0
 11  6  1  0  0  0  0
 14  9  1  0  0  0  0
M  END
$$$$
