14
butane_opt
C  -3.969532   0.273216   0.048927
C  -2.682210  -0.627621   0.002282
H  -4.809070  -0.263666  -0.066131
H  -3.973617   0.742644  -0.802483
H  -3.992145   1.203063   1.164351
C  -1.380710   0.141921  -0.037326
H  -2.500851  -1.208256  -0.785761
H  -2.715209  -1.369763   0.963722
C  -0.201581  -0.673844   0.066797
H  -1.295433   0.819627   0.872007
H  -1.325632   0.878315  -1.029505
H  -0.337271  -1.336377   0.960560
H   0.758398   0.004695   0.046557
H  -0.030127  -1.297316  -0.820164
