butane_opt
 OpenBabel08242015383D

 14 13  0  0  0  0  0  0  0  0999 V2000
   -3.9042    0.3201    0.1130 C   0  0  0  0  0  0  0  0  0  0  0  0
   -2.6995   -0.6747   -0.0306 C   0  0  0  0  0  0  0  0  0  0  0  0
   -4.7945   -0.2999    0.1687 H   0  0  0  0  0  0  0  0  0  0  0  0
   -3.9268    0.8646   -0.7887 H   0  0  0  0  0  0  0  0  0  0  0  0
   -4.0025    0.9836    0.9890 H   0  0  0  0  0  0  0  0  0  0  0  0
   -1.4013    0.1538   -0.1142 C   0  0  0  0  0  0  0  0  0  0  0  0
   -2.7357   -1.3270   -0.8829 H   0  0  0  0  0  0  0  0  0  0  0  0
   -2.4549   -1.2768    0.8108 H   0  0  0  0  0  0  0  0  0  0  0  0
   -0.2374   -0.6580    0.1312 C   0  0  0  0  0  0  0  0  0  0  0  0
   -1.3368    0.6290    0.5645 H   0  0  0  0  0  0  0  0  0  0  0  0
   -1.2917    0.9591   -1.0533 H   0  0  0  0  0  0  0  0  0  0  0  0
   -0.4062   -1.0741    0.8904 H   0  0  0  0  0  0  0  0  0  0  0  0
    0.7939    0.0067    0.5244 H   0  0  0  0  0  0  0  0  0  0  0  0
    0.0165   -1.6281   -0.9870 H   0  0  0  0  0  0  0  0  0  0  0  0
  1  3  1  0  0  0  0
  1  5  1  0  0  0  0
  2  1  1  0  0  0  0
  2  8  1  0  0  0  0
  4  1  1  0  0  0  0
  6  2  1  0  0  0  0
  6  9  1  0  0  0  0
  6 10  1  0  0  0  0
  7  2  1  0  0  0  0
  9 13  1  0  0  0  0
  9 12  1  0  0  0  0
 11  6  1  0  0  0  0
 14  9  1  0  0  0  0
M  END
$$$$
