butane_opt
 OpenBabel08242015383D

 14 13  0  0  0  0  0  0  0  0999 V2000
   -3.9327    0.2369    0.0655 C   0  0  0  0  0  0  0  0  0  0  0  0
   -2.7314   -0.6019   -0.0080 C   0  0  0  0  0  0  0  0  0  0  0  0
   -4.8458   -0.2948    0.1618 H   0  0  0  0  0  0  0  0  0  0  0  0
   -4.0733    1.0141   -0.8861 H   0  0  0  0  0  0  0  0  0  0  0  0
   -3.8951    0.8352    0.8636 H   0  0  0  0  0  0  0  0  0  0  0  0
   -1.4039    0.2131   -0.0458 C   0  0  0  0  0  0  0  0  0  0  0  0
   -2.9633   -1.3122   -0.9065 H   0  0  0  0  0  0  0  0  0  0  0  0
   -2.8414   -1.1950    0.9031 H   0  0  0  0  0  0  0  0  0  0  0  0
   -0.1043   -0.7202    0.0618 C   0  0  0  0  0  0  0  0  0  0  0  0
   -1.4692    0.9928    0.9564 H   0  0  0  0  0  0  0  0  0  0  0  0
   -1.3456    0.8064   -0.9005 H   0  0  0  0  0  0  0  0  0  0  0  0
   -0.2506   -1.2913    0.9962 H   0  0  0  0  0  0  0  0  0  0  0  0
    0.6804   -0.3027    0.1183 H   0  0  0  0  0  0  0  0  0  0  0  0
    0.0659   -1.2794   -0.7809 H   0  0  0  0  0  0  0  0  0  0  0  0
  1  3  1  0  0  0  0
  1  5  1  0  0  0  0
  2  1  1  0  0  0  0
  2  8  1  0  0  0  0
  4  1  1  0  0  0  0
  6  2  1  0  0  0  0
  6  9  1  0  0  0  0
  6 10  1  0  0  0  0
  7  2  1  0  0  0  0
  9 13  1  0  0  0  0
  9 12  1  0  0  0  0
 11  6  1  0  0  0  0
 14  9  1  0  0  0  0
M  END
$$$$
