butane_opt
 OpenBabel08242015383D

 14 13  0  0  0  0  0  0  0  0999 V2000
   -3.9552    0.2806   -0.0317 C   0  0  0  0  0  0  0  0  0  0  0  0
   -2.7120   -0.6647    0.1309 C   0  0  0  0  0  0  0  0  0  0  0  0
   -4.7767   -0.1445   -0.4667 H   0  0  0  0  0  0  0  0  0  0  0  0
   -3.7592    0.7736   -0.8084 H   0  0  0  0  0  0  0  0  0  0  0  0
   -4.3909    1.1865    0.9347 H   0  0  0  0  0  0  0  0  0  0  0  0
   -1.3602    0.1589    0.0571 C   0  0  0  0  0  0  0  0  0  0  0  0
   -2.6420   -1.2567   -0.6427 H   0  0  0  0  0  0  0  0  0  0  0  0
   -2.6307   -1.2909    1.0198 H   0  0  0  0  0  0  0  0  0  0  0  0
   -0.1675   -0.6705   -0.0208 C   0  0  0  0  0  0  0  0  0  0  0  0
   -1.1876    0.7565    0.8526 H   0  0  0  0  0  0  0  0  0  0  0  0
   -1.4073    0.8883   -0.7965 H   0  0  0  0  0  0  0  0  0  0  0  0
   -0.2357   -1.2183    0.7847 H   0  0  0  0  0  0  0  0  0  0  0  0
    0.6573   -0.1331   -0.1986 H   0  0  0  0  0  0  0  0  0  0  0  0
   -0.2829   -1.3081   -0.8561 H   0  0  0  0  0  0  0  0  0  0  0  0
  1  2  1  0  0  0  0
  1  5  1  0  0  0  0
  2  8  1  0  0  0  0
  3  1  1  0  0  0  0
  4  1  1  0  0  0  0
  6  2  1  0  0  0  0
  6 10  1  0  0  0  0
  7  2  1  0  0  0  0
  9  6  1  0  0  0  0
  9 12  1  0  0  0  0
 11  6  1  0  0  0  0
 13  9  1  0  0  0  0
 14  9  1  0  0  0  0
M  END
$$$$
