14
butane_opt
C  -3.968835   0.272408  -0.084438
C  -2.652913  -0.616570   0.168949
H  -4.848064  -0.306593  -0.126664
H  -3.907837   0.969714  -1.014433
H  -3.915240   0.958665   0.763417
C  -1.407352   0.118486   0.066320
H  -2.397530  -1.044422  -0.471955
H  -2.785899  -1.374344   1.163419
C  -0.212404  -0.660371  -0.054864
H  -1.226461   0.932708   1.008756
H  -1.361113   0.702160  -0.693478
H  -0.266608  -1.041816   0.597434
H   0.815562   0.006189   0.180734
H  -0.237257  -1.650211  -1.151666
