butane_opt
 OpenBabel08242015383D

 14 13  0  0  0  0  0  0  0  0999 V2000
   -3.9419    0.2747    0.1107 C   0  0  0  0  0  0  0  0  0  0  0  0
   -2.6842   -0.6231   -0.0521 C   0  0  0  0  0  0  0  0  0  0  0  0
   -4.8091   -0.3281    0.3957 H   0  0  0  0  0  0  0  0  0  0  0  0
   -3.9978    1.0271   -0.8706 H   0  0  0  0  0  0  0  0  0  0  0  0
   -3.7156    0.8619    0.8786 H   0  0  0  0  0  0  0  0  0  0  0  0
   -1.4230    0.1735   -0.0623 C   0  0  0  0  0  0  0  0  0  0  0  0
   -2.5904   -1.5399   -1.0850 H   0  0  0  0  0  0  0  0  0  0  0  0
   -2.5666   -1.2060    0.7843 H   0  0  0  0  0  0  0  0  0  0  0  0
   -0.1926   -0.6702    0.0876 C   0  0  0  0  0  0  0  0  0  0  0  0
   -1.4609    0.7771    0.7100 H   0  0  0  0  0  0  0  0  0  0  0  0
   -1.3314    0.8203   -1.0901 H   0  0  0  0  0  0  0  0  0  0  0  0
   -0.4061   -1.3115    1.0154 H   0  0  0  0  0  0  0  0  0  0  0  0
    0.7412   -0.0935    0.3872 H   0  0  0  0  0  0  0  0  0  0  0  0
   -0.0025   -1.3091   -0.6786 H   0  0  0  0  0  0  0  0  0  0  0  0
  1  3  1  0  0  0  0
  1  5  1  0  0  0  0
  2  1  1  0  0  0  0
  2  8  1  0  0  0  0
  4  1  1  0  0  0  0
  6  2  1  0  0  0  0
  6  9  1  0  0  0  0
  6 10  1  0  0  0  0
  7  2  1  0  0  0  0
  9 13  1  0  0  0  0
  9 12  1  0  0  0  0
 11  6  1  0  0  0  0
 14  9  1  0  0  0  0
M  END
$$$$
