14
butane_opt
C  -3.924111   0.304205  -0.054167
C  -2.690633  -0.636991   0.067593
H  -4.850153  -0.333667   0.088146
H  -4.074777   1.102657  -1.034810
H  -3.839522   0.764232   0.660995
C  -1.405196   0.132754   0.145363
H  -2.725705  -1.229508  -0.738018
H  -2.813476  -1.290100   0.974044
C  -0.166075  -0.677560  -0.039116
H  -1.318311   0.920487   0.974622
H  -1.499812   0.663569  -0.676041
H  -0.107219  -1.321412   0.810695
H   0.847792  -0.034275  -0.288943
H  -0.416668  -1.159500  -0.781581
