14
butane_opt
C  -3.935657   0.219602  -0.088793
C  -2.745864  -0.585782   0.101361
H  -4.801915  -0.333481   0.042414
H  -4.008407   0.867718  -0.992254
H  -3.955453   0.808011   0.750569
C  -1.419807   0.222656   0.141945
H  -2.704111  -1.115926  -0.729862
H  -2.748221  -1.190119   0.993729
C  -0.117817  -0.733232  -0.046462
H  -1.373723   1.067227   1.120822
H  -1.554935   0.775386  -0.669611
H   0.230075  -1.518023   0.879630
H   0.720735  -0.125635  -0.442307
H  -0.193068  -1.196085  -0.803382
