butane_opt
 OpenBabel08242015383D

 14 12  0  0  0  0  0  0  0  0999 V2000
   -3.9504    0.2937    0.0970 C   0  0  0  0  0  0  0  0  0  0  0  0
   -2.7033   -0.6260   -0.0892 C   0  0  0  0  0  0  0  0  0  0  0  0
   -4.8937   -0.3116    0.0254 H   0  0  0  0  0  0  0  0  0  0  0  0
   -3.9077    0.7337   -0.7617 H   0  0  0  0  0  0  0  0  0  0  0  0
   -3.9672    1.1528    1.0280 H   0  0  0  0  0  0  0  0  0  0  0  0
   -1.3970    0.1148   -0.0247 C   0  0  0  0  0  0  0  0  0  0  0  0
   -2.6053   -1.2813   -0.8709 H   0  0  0  0  0  0  0  0  0  0  0  0
   -2.5901   -1.2032    0.7803 H   0  0  0  0  0  0  0  0  0  0  0  0
   -0.1788   -0.6500    0.1036 C   0  0  0  0  0  0  0  0  0  0  0  0
   -1.3680    0.8830    0.8732 H   0  0  0  0  0  0  0  0  0  0  0  0
   -1.2292    0.7395   -0.9025 H   0  0  0  0  0  0  0  0  0  0  0  0
   -0.1076   -1.7256    1.2416 H   0  0  0  0  0  0  0  0  0  0  0  0
    0.7675   -0.0416   -0.4472 H   0  0  0  0  0  0  0  0  0  0  0  0
   -0.3757   -1.0005   -0.5094 H   0  0  0  0  0  0  0  0  0  0  0  0
  1  5  1  0  0  0  0
  2  6  1  0  0  0  0
  2  1  1  0  0  0  0
  2  8  1  0  0  0  0
  3  1  1  0  0  0  0
  4  1  1  0  0  0  0
  6  9  1  0  0  0  0
  6 10  1  0  0  0  0
  7  2  1  0  0  0  0
 11  6  1  0  0  0  0
 13  9  1  0  0  0  0
 14  9  1  0  0  0  0
M  RAD  2   9   2  12   2
M  END
$$$$
