14
butane_opt
C  -3.928192   0.223012  -0.078434
C  -2.709230  -0.568559   0.153922
H  -4.901302  -0.490966  -0.313367
H  -3.734792   0.692305  -0.880953
H  -4.089385   1.061882   0.831220
C  -1.453039   0.223174   0.080515
H  -2.582975  -1.013143  -0.458573
H  -2.853105  -1.418411   1.190961
C  -0.125465  -0.713507  -0.066629
H  -1.177682   0.871951   0.986950
H  -1.573234   0.815659  -0.723672
H  -0.099307  -1.115033   0.728724
H   0.601006  -0.338968   0.001873
H   0.010005  -1.545412  -0.995970
