14
butane_opt
C  -3.916103   0.205936  -0.027937
C  -2.725906  -0.577945   0.110305
H  -4.877957  -0.340866   0.078314
H  -4.104191   1.022825  -0.992008
H  -4.055263   0.720295   0.734923
C  -1.421600   0.261675   0.047409
H  -2.649580  -1.283764  -0.736482
H  -2.776621  -1.228642   1.023506
C  -0.121417  -0.738266  -0.035258
H  -1.429387   0.870676   0.876906
H  -1.459739   0.852081  -0.743828
H  -0.217751  -1.152827   0.695408
H   0.694283  -0.220418   0.282692
H   0.124430  -1.553351  -0.959541
