butane_opt
 OpenBabel08242015383D

 14 13  0  0  0  0  0  0  0  0999 V2000
   -3.8831    0.2334    0.0713 C   0  0  0  0  0  0  0  0  0  0  0  0
   -2.7131   -0.5888   -0.0001 C   0  0  0  0  0  0  0  0  0  0  0  0
   -4.8422   -0.3924    0.1869 H   0  0  0  0  0  0  0  0  0  0  0  0
   -4.0988    0.7656   -0.7635 H   0  0  0  0  0  0  0  0  0  0  0  0
   -3.8633    0.9913    0.9509 H   0  0  0  0  0  0  0  0  0  0  0  0
   -1.4124    0.2109   -0.0647 C   0  0  0  0  0  0  0  0  0  0  0  0
   -2.7928   -1.1702   -0.7940 H   0  0  0  0  0  0  0  0  0  0  0  0
   -2.7216   -1.1417    0.8062 H   0  0  0  0  0  0  0  0  0  0  0  0
   -0.1829   -0.7280    0.0890 C   0  0  0  0  0  0  0  0  0  0  0  0
   -1.4924    0.7431    0.5831 H   0  0  0  0  0  0  0  0  0  0  0  0
   -1.4074    1.0455   -1.1072 H   0  0  0  0  0  0  0  0  0  0  0  0
   -0.4025   -1.0877    0.9248 H   0  0  0  0  0  0  0  0  0  0  0  0
    0.7260   -0.1203    0.4357 H   0  0  0  0  0  0  0  0  0  0  0  0
    0.1866   -1.6764   -0.9493 H   0  0  0  0  0  0  0  0  0  0  0  0
  1  3  1  0  0  0  0
  1  5  1  0  0  0  0
  2  1  1  0  0  0  0
  2  8  1  0  0  0  0
  4  1  1  0  0  0  0
  6  2  1  0  0  0  0
  6  9  1  0  0  0  0
  6 10  1  0  0  0  0
  7  2  1  0  0  0  0
  9 13  1  0  0  0  0
  9 12  1  0  0  0  0
 11  6  1  0  0  0  0
 14  9  1  0  0  0  0
M  END
$$$$
