14
butane_opt
C  -3.917842   0.249796  -0.065060
C  -2.708105  -0.602584   0.182163
H  -4.933640  -0.507579  -0.323065
H  -3.661629   0.814075  -0.929756
H  -4.176179   0.972766   0.771688
C  -1.411885   0.250614   0.104040
H  -2.735099  -1.281792  -0.720987
H  -2.886704  -1.273277   1.084267
C  -0.160102  -0.735393  -0.079725
H  -1.349095   0.894616   0.957494
H  -1.393153   0.912530  -0.883548
H   0.022382  -1.288064   0.701839
H   0.648682  -0.304592   0.056366
H  -0.154535  -1.386114  -0.952002
