butane_opt
 OpenBabel08242015383D

 14 13  0  0  0  0  0  0  0  0999 V2000
   -3.9492    0.2571    0.0339 C   0  0  0  0  0  0  0  0  0  0  0  0
   -2.7110   -0.5989    0.0125 C   0  0  0  0  0  0  0  0  0  0  0  0
   -4.8929   -0.3584    0.0048 H   0  0  0  0  0  0  0  0  0  0  0  0
   -3.9586    0.7949   -0.8218 H   0  0  0  0  0  0  0  0  0  0  0  0
   -3.9559    0.9779    0.9483 H   0  0  0  0  0  0  0  0  0  0  0  0
   -1.3962    0.1971    0.0063 C   0  0  0  0  0  0  0  0  0  0  0  0
   -2.7185   -1.3139   -0.8459 H   0  0  0  0  0  0  0  0  0  0  0  0
   -2.6994   -1.2194    0.8802 H   0  0  0  0  0  0  0  0  0  0  0  0
   -0.1615   -0.7071    0.0478 C   0  0  0  0  0  0  0  0  0  0  0  0
   -1.4273    0.8582    0.8352 H   0  0  0  0  0  0  0  0  0  0  0  0
   -1.3232    0.8562   -0.9203 H   0  0  0  0  0  0  0  0  0  0  0  0
   -0.0705   -1.4336    1.0273 H   0  0  0  0  0  0  0  0  0  0  0  0
    0.7710   -0.1086   -0.1236 H   0  0  0  0  0  0  0  0  0  0  0  0
   -0.1322   -1.3018   -0.7406 H   0  0  0  0  0  0  0  0  0  0  0  0
  1  5  1  0  0  0  0
  2  1  1  0  0  0  0
  2  8  1  0  0  0  0
  3  1  1  0  0  0  0
  4  1  1  0  0  0  0
  6  2  1  0  0  0  0
  6  9  1  0  0  0  0
  6 10  1  0  0  0  0
  7  2  1  0  0  0  0
  9 12  1  0  0  0  0
 11  6  1  0  0  0  0
 13  9  1  0  0  0  0
 14  9  1  0  0  0  0
M  END
$$$$
