14
butane_opt
C  -3.939273   0.279546  -0.008269
C  -2.689954  -0.602585   0.027911
H  -4.949639  -0.467800   0.383618
H  -4.181372   1.133939  -1.005441
H  -3.756466   0.642562   0.620266
C  -1.383748   0.195495   0.084871
H  -2.683224  -1.402997  -0.978180
H  -2.802100  -1.245039   0.975343
C  -0.172609  -0.715302   0.015843
H  -1.317049   0.818935   0.862424
H  -1.457577   0.858121  -0.869206
H  -0.057876  -1.236132   0.840853
H   0.698608  -0.067553   0.080315
H  -0.268183  -1.402210  -0.925938
