butane_opt
 OpenBabel08242015383D

 14 13  0  0  0  0  0  0  0  0999 V2000
   -3.9284    0.2561   -0.0116 C   0  0  0  0  0  0  0  0  0  0  0  0
   -2.7041   -0.5967    0.0617 C   0  0  0  0  0  0  0  0  0  0  0  0
   -4.8806   -0.3521    0.0983 H   0  0  0  0  0  0  0  0  0  0  0  0
   -3.9356    0.8940   -0.9269 H   0  0  0  0  0  0  0  0  0  0  0  0
   -3.9120    0.8586    0.8125 H   0  0  0  0  0  0  0  0  0  0  0  0
   -1.4148    0.1888    0.0368 C   0  0  0  0  0  0  0  0  0  0  0  0
   -2.7181   -1.2058   -0.7351 H   0  0  0  0  0  0  0  0  0  0  0  0
   -2.7676   -1.3000    1.0240 H   0  0  0  0  0  0  0  0  0  0  0  0
   -0.1592   -0.7084    0.0085 C   0  0  0  0  0  0  0  0  0  0  0  0
   -1.3766    0.8923    0.9069 H   0  0  0  0  0  0  0  0  0  0  0  0
   -1.4607    0.8354   -0.8888 H   0  0  0  0  0  0  0  0  0  0  0  0
   -0.1704   -1.1869    0.8093 H   0  0  0  0  0  0  0  0  0  0  0  0
    0.7657   -0.1000    0.1239 H   0  0  0  0  0  0  0  0  0  0  0  0
   -0.0906   -1.4908   -0.9422 H   0  0  0  0  0  0  0  0  0  0  0  0
  1  2  1  0  0  0  0
  1  3  1  0  0  0  0
  1  5  1  0  0  0  0
  2  8  1  0  0  0  0
  4  1  1  0  0  0  0
  6  2  1  0  0  0  0
  6 10  1  0  0  0  0
  7  2  1  0  0  0  0
  9  6  1  0  0  0  0
  9 13  1  0  0  0  0
  9 12  1  0  0  0  0
 11  6  1  0  0  0  0
 14  9  1  0  0  0  0
M  END
$$$$
