14
butane_opt
C  -3.930987   0.289802   0.093291
C  -2.629464  -0.658285  -0.031108
H  -4.878755  -0.394125  -0.186636
H  -4.007003   0.615217  -0.519518
H  -4.053889   1.319046   1.177720
C  -1.405573   0.185776  -0.101140
H  -2.693024  -1.235625  -0.777749
H  -2.605613  -1.403426   0.903623
C  -0.226315  -0.663828   0.118633
H  -1.571580   0.716159   0.603438
H  -1.181696   0.795155  -1.057072
H  -0.352186  -1.306297   0.996332
H   0.719852  -0.085104   0.086925
H  -0.080906  -1.334966  -0.730832
