14
butane_opt
C  -3.956926   0.261642  -0.006705
C  -2.694251  -0.620441   0.053490
H  -4.851251  -0.325256  -0.032466
H  -3.971105   0.887864  -0.917229
H  -4.024740   0.943760   0.825049
C  -1.393903   0.189576   0.050339
H  -2.689886  -1.244364  -0.748262
H  -2.727787  -1.315014   0.975780
C  -0.163171  -0.693731   0.008672
H  -1.365793   0.907396   0.935593
H  -1.419227   0.780073  -0.796424
H  -0.005391  -1.327330   0.913316
H   0.711328  -0.116462  -0.148995
H  -0.180248  -1.306732  -0.835765
