14
butane_opt
C  -3.979840   0.303008  -0.021774
C  -2.660166  -0.659837   0.087115
H  -4.881421  -0.269246   0.097008
H  -3.917533   1.106710  -1.039679
H  -3.986797   0.731598   0.716935
C  -1.384924   0.125796   0.070700
H  -2.510353  -1.316492  -0.689609
H  -2.695390  -1.272795   0.983349
C  -0.193037  -0.645960  -0.020250
H  -1.431023   0.843300   0.942558
H  -1.331001   0.917535  -0.868185
H  -0.154393  -1.086838   0.673382
H   0.777560  -0.031695   0.174517
H  -0.296141  -1.563437  -0.977694
