butane_opt
 OpenBabel08242015383D

 14 13  0  0  0  0  0  0  0  0999 V2000
   -3.9280    0.2562    0.0359 C   0  0  0  0  0  0  0  0  0  0  0  0
   -2.6980   -0.6149   -0.0032 C   0  0  0  0  0  0  0  0  0  0  0  0
   -4.8530   -0.3310    0.2138 H   0  0  0  0  0  0  0  0  0  0  0  0
   -4.0054    0.9073   -0.8884 H   0  0  0  0  0  0  0  0  0  0  0  0
   -3.8427    0.8901    0.8971 H   0  0  0  0  0  0  0  0  0  0  0  0
   -1.4237    0.1998   -0.0092 C   0  0  0  0  0  0  0  0  0  0  0  0
   -2.7565   -1.2791   -0.8597 H   0  0  0  0  0  0  0  0  0  0  0  0
   -2.6537   -1.2270    0.8867 H   0  0  0  0  0  0  0  0  0  0  0  0
   -0.1659   -0.7036    0.0640 C   0  0  0  0  0  0  0  0  0  0  0  0
   -1.4334    0.8774    0.8478 H   0  0  0  0  0  0  0  0  0  0  0  0
   -1.3711    0.7991   -0.8919 H   0  0  0  0  0  0  0  0  0  0  0  0
   -0.1362   -1.3014    0.9257 H   0  0  0  0  0  0  0  0  0  0  0  0
    0.7437   -0.1288    0.0259 H   0  0  0  0  0  0  0  0  0  0  0  0
   -0.1249   -1.3253   -0.7722 H   0  0  0  0  0  0  0  0  0  0  0  0
  1  3  1  0  0  0  0
  1  5  1  0  0  0  0
  2  1  1  0  0  0  0
  2  8  1  0  0  0  0
  4  1  1  0  0  0  0
  6  2  1  0  0  0  0
  6  9  1  0  0  0  0
  6 10  1  0  0  0  0
  7  2  1  0  0  0  0
  9 12  1  0  0  0  0
 11  6  1  0  0  0  0
 13  9  1  0  0  0  0
 14  9  1  0  0  0  0
M  END
$$$$
