14
butane_opt
C  -3.966201   0.288878  -0.077134
C  -2.681357  -0.631521   0.159337
H  -4.899889  -0.247355  -0.401286
H  -3.884607   0.836821  -1.006164
H  -4.349275   1.023919   0.763552
C  -1.375127   0.138937   0.119321
H  -2.741194  -1.074429  -0.509765
H  -2.790453  -1.486308   1.182532
C  -0.145551  -0.663315  -0.086104
H  -1.269250   0.898156   0.988987
H  -1.560162   0.584115  -0.676849
H   0.001705  -1.195915   0.774491
H   0.836555  -0.026825  -0.080743
H  -0.351582  -1.368685  -0.972490
