14
butane_opt
C  -3.926725   0.256824   0.008447
C  -2.717497  -0.585847   0.061149
H  -4.947127  -0.443200  -0.170034
H  -3.823178   0.570922  -0.747577
H  -4.105865   1.081963   0.953600
C  -1.433731   0.212447   0.017018
H  -2.790786  -1.260516  -0.883136
H  -2.843172  -1.268298   0.996003
C  -0.108140  -0.720835   0.042477
H  -1.425787   0.768228   0.787545
H  -1.504379   0.950353  -0.992154
H   0.057862  -1.304999   0.932947
H   0.832570  -0.159700  -0.129433
H  -0.230959  -1.368061  -0.811743
