14
butane_opt
C  -3.932150   0.267212   0.096223
C  -2.691471  -0.673374  -0.006769
H  -4.802539  -0.189437   0.207446
H  -4.204850   0.968906  -0.820253
H  -3.967932   1.103574   1.100464
C  -1.416515   0.169686  -0.124910
H  -2.745566  -1.436379  -0.964855
H  -2.548471  -1.099649   0.789871
C  -0.151978  -0.656956   0.113443
H  -1.465315   0.659949   0.611735
H  -1.301728   0.890525  -1.087588
H  -0.420613  -1.143784   0.911107
H   0.751761  -0.088103   0.592159
H   0.004215  -1.422816  -0.835400
