butane_opt
 OpenBabel08242015383D

 14 12  0  0  0  0  0  0  0  0999 V2000
   -3.9005    0.2169    0.1018 C   0  0  0  0  0  0  0  0  0  0  0  0
   -2.7417   -0.5501   -0.0343 C   0  0  0  0  0  0  0  0  0  0  0  0
   -4.8033   -0.3603   -0.2602 H   0  0  0  0  0  0  0  0  0  0  0  0
   -3.8267    0.6692   -0.6588 H   0  0  0  0  0  0  0  0  0  0  0  0
   -3.7938    1.1258    1.1979 H   0  0  0  0  0  0  0  0  0  0  0  0
   -1.4201    0.1983   -0.0650 C   0  0  0  0  0  0  0  0  0  0  0  0
   -2.8015   -1.4301   -1.0642 H   0  0  0  0  0  0  0  0  0  0  0  0
   -2.6441   -0.9294    0.7104 H   0  0  0  0  0  0  0  0  0  0  0  0
   -0.1572   -0.7433    0.1152 C   0  0  0  0  0  0  0  0  0  0  0  0
   -1.4248    0.7119    0.7076 H   0  0  0  0  0  0  0  0  0  0  0  0
   -1.5382    0.9662   -1.0134 H   0  0  0  0  0  0  0  0  0  0  0  0
   -0.0846   -1.5934    1.2101 H   0  0  0  0  0  0  0  0  0  0  0  0
    0.7370   -0.1716   -0.2742 H   0  0  0  0  0  0  0  0  0  0  0  0
   -0.1945   -0.9240   -0.4768 H   0  0  0  0  0  0  0  0  0  0  0  0
  1  5  1  0  0  0  0
  2  1  1  0  0  0  0
  2  8  1  0  0  0  0
  3  1  1  0  0  0  0
  4  1  1  0  0  0  0
  6  2  1  0  0  0  0
  6  9  1  0  0  0  0
  6 10  1  0  0  0  0
  7  2  1  0  0  0  0
  9 12  1  0  0  0  0
 11  6  1  0  0  0  0
 13  9  1  0  0  0  0
M  RAD  2   9   2  14   2
M  END
$$$$
