14
butane_opt
C  -3.914478   0.291289   0.121793
C  -2.650449  -0.667625  -0.107888
H  -4.820194  -0.321248   0.413004
H  -4.206366   0.879023  -0.666214
H  -3.911375   1.002852   1.009645
C  -1.397902   0.160688  -0.131725
H  -2.689332  -1.356996  -0.918077
H  -2.620366  -1.194642   0.791053
C  -0.203157  -0.674132   0.160022
H  -1.642310   0.904422   0.700496
H  -1.325597   0.795369  -0.972007
H  -0.365244  -1.227807   1.000976
H   0.762708  -0.076680   0.168379
H  -0.192038  -1.202653  -0.584284
