butane_opt
 OpenBabel08242015383D

 14 13  0  0  0  0  0  0  0  0999 V2000
   -3.9171    0.2819    0.0883 C   0  0  0  0  0  0  0  0  0  0  0  0
   -2.6593   -0.6241    0.0199 C   0  0  0  0  0  0  0  0  0  0  0  0
   -4.8799   -0.2999    0.1335 H   0  0  0  0  0  0  0  0  0  0  0  0
   -3.9659    0.8116   -0.7489 H   0  0  0  0  0  0  0  0  0  0  0  0
   -4.0329    1.0088    1.0503 H   0  0  0  0  0  0  0  0  0  0  0  0
   -1.4255    0.1722   -0.1126 C   0  0  0  0  0  0  0  0  0  0  0  0
   -2.6662   -1.4285   -0.9747 H   0  0  0  0  0  0  0  0  0  0  0  0
   -2.7120   -1.1306    0.7594 H   0  0  0  0  0  0  0  0  0  0  0  0
   -0.1861   -0.6906    0.1012 C   0  0  0  0  0  0  0  0  0  0  0  0
   -1.4015    0.6078    0.6110 H   0  0  0  0  0  0  0  0  0  0  0  0
   -1.3947    0.8031   -1.0673 H   0  0  0  0  0  0  0  0  0  0  0  0
   -0.5224   -1.1554    0.9464 H   0  0  0  0  0  0  0  0  0  0  0  0
    0.8430    0.0905    0.4559 H   0  0  0  0  0  0  0  0  0  0  0  0
   -0.0336   -1.4412   -0.8609 H   0  0  0  0  0  0  0  0  0  0  0  0
  1  3  1  0  0  0  0
  1  5  1  0  0  0  0
  2  1  1  0  0  0  0
  2  8  1  0  0  0  0
  4  1  1  0  0  0  0
  6  2  1  0  0  0  0
  6  9  1  0  0  0  0
  6 10  1  0  0  0  0
  7  2  1  0  0  0  0
  9 13  1  0  0  0  0
  9 12  1  0  0  0  0
 11  6  1  0  0  0  0
 14  9  1  0  0  0  0
M  END
$$$$
