14
butane_opt
C  -3.925640   0.238922  -0.042265
C  -2.742855  -0.555508   0.095983
H  -4.768524  -0.346326   0.260060
H  -3.807379   1.223642  -1.201717
H  -3.843044   0.434915   0.420548
C  -1.403541   0.178924   0.130500
H  -2.793743  -1.162924  -0.811792
H  -2.754511  -1.185771   0.973226
C  -0.143010  -0.711831  -0.055290
H  -1.402471   0.978536   1.060488
H  -1.618048   0.686322  -0.632996
H   0.008849  -1.269324   0.758149
H   0.769570  -0.136139   0.024008
H  -0.253648  -1.490091  -0.995443
