butane_opt
 OpenBabel08242015383D

 14 13  0  0  0  0  0  0  0  0999 V2000
   -3.9609    0.2809    0.0269 C   0  0  0  0  0  0  0  0  0  0  0  0
   -2.7027   -0.6332    0.0309 C   0  0  0  0  0  0  0  0  0  0  0  0
   -4.8530   -0.2873   -0.0270 H   0  0  0  0  0  0  0  0  0  0  0  0
   -3.9487    0.8123   -0.8277 H   0  0  0  0  0  0  0  0  0  0  0  0
   -4.0241    1.0424    0.9515 H   0  0  0  0  0  0  0  0  0  0  0  0
   -1.3968    0.1703    0.0015 C   0  0  0  0  0  0  0  0  0  0  0  0
   -2.7418   -1.3822   -0.8772 H   0  0  0  0  0  0  0  0  0  0  0  0
   -2.7360   -1.2036    0.9182 H   0  0  0  0  0  0  0  0  0  0  0  0
   -0.1436   -0.6828    0.0479 C   0  0  0  0  0  0  0  0  0  0  0  0
   -1.3399    0.8121    0.8275 H   0  0  0  0  0  0  0  0  0  0  0  0
   -1.4043    0.8300   -0.9168 H   0  0  0  0  0  0  0  0  0  0  0  0
   -0.1361   -1.3988    1.0148 H   0  0  0  0  0  0  0  0  0  0  0  0
    0.7904   -0.0509   -0.0925 H   0  0  0  0  0  0  0  0  0  0  0  0
   -0.1919   -1.2600   -0.7931 H   0  0  0  0  0  0  0  0  0  0  0  0
  1  2  1  0  0  0  0
  1  5  1  0  0  0  0
  2  8  1  0  0  0  0
  3  1  1  0  0  0  0
  4  1  1  0  0  0  0
  6  2  1  0  0  0  0
  6  9  1  0  0  0  0
  6 10  1  0  0  0  0
  7  2  1  0  0  0  0
  9 12  1  0  0  0  0
 11  6  1  0  0  0  0
 13  9  1  0  0  0  0
 14  9  1  0  0  0  0
M  END
$$$$
