14
butane_opt
C  -3.928073   0.302591   0.133494
C  -2.722180  -0.648413  -0.089130
H  -4.837678  -0.248590   0.198172
H  -4.019575   0.774180  -0.610936
H  -3.897384   1.062206   1.039553
C  -1.392745   0.136582  -0.124213
H  -2.741707  -1.229316  -0.879931
H  -2.494515  -1.311389   0.788288
C  -0.170389  -0.668616   0.164391
H  -1.462144   0.683620   0.608149
H  -1.299800   0.905166  -1.223521
H  -0.469904  -1.079641   0.975717
H   0.815281  -0.059949   0.366486
H  -0.070111  -1.439521  -0.835169
