butane_opt
 OpenBabel08242015383D

 14 13  0  0  0  0  0  0  0  0999 V2000
   -3.9760    0.2966    0.0725 C   0  0  0  0  0  0  0  0  0  0  0  0
   -2.7302   -0.6887   -0.0668 C   0  0  0  0  0  0  0  0  0  0  0  0
   -4.8262   -0.1326    0.3001 H   0  0  0  0  0  0  0  0  0  0  0  0
   -4.2817    1.1223   -0.8970 H   0  0  0  0  0  0  0  0  0  0  0  0
   -3.7745    0.9740    0.9744 H   0  0  0  0  0  0  0  0  0  0  0  0
   -1.3686    0.1608   -0.0310 C   0  0  0  0  0  0  0  0  0  0  0  0
   -2.8317   -1.3281   -0.9202 H   0  0  0  0  0  0  0  0  0  0  0  0
   -2.5517   -1.3280    0.7490 H   0  0  0  0  0  0  0  0  0  0  0  0
   -0.1371   -0.6661    0.1036 C   0  0  0  0  0  0  0  0  0  0  0  0
   -1.4540    0.8865    0.8050 H   0  0  0  0  0  0  0  0  0  0  0  0
   -1.2265    0.7011   -0.8376 H   0  0  0  0  0  0  0  0  0  0  0  0
   -0.1839   -1.4042    1.0266 H   0  0  0  0  0  0  0  0  0  0  0  0
    0.8160   -0.0040   -0.0444 H   0  0  0  0  0  0  0  0  0  0  0  0
   -0.1833   -1.1615   -0.6766 H   0  0  0  0  0  0  0  0  0  0  0  0
  1  3  1  0  0  0  0
  1  5  1  0  0  0  0
  2  6  1  0  0  0  0
  2  1  1  0  0  0  0
  2  8  1  0  0  0  0
  4  1  1  0  0  0  0
  6  9  1  0  0  0  0
  6 10  1  0  0  0  0
  7  2  1  0  0  0  0
  9 12  1  0  0  0  0
 11  6  1  0  0  0  0
 13  9  1  0  0  0  0
 14  9  1  0  0  0  0
M  END
$$$$
