14
butane_opt
C  -3.921067   0.237666  -0.091194
C  -2.683283  -0.601966   0.196868
H  -4.803154  -0.424776  -0.377826
H  -3.576097   0.800823  -0.969092
H  -4.136524   1.055631   0.847837
C  -1.421151   0.211754   0.118964
H  -2.619092  -1.144068  -0.626468
H  -2.795606  -1.352767   1.173038
C  -0.190822  -0.701113  -0.073800
H  -1.523712   0.843051   0.962714
H  -1.381448   0.954428  -0.859006
H  -0.030540  -1.130865   0.686021
H   0.659634  -0.190377  -0.143219
H  -0.216666  -1.655593  -1.092961
