14
butane_opt
C  -3.926323   0.228881   0.088349
C  -2.679468  -0.551829  -0.057023
H  -4.948583  -0.518575   0.374356
H  -4.017219   0.872775  -0.810188
H  -3.673506   0.748153   0.890869
C  -1.445177   0.223702  -0.078306
H  -2.746788  -1.362014  -1.001475
H  -2.695946  -1.078707   0.868386
C  -0.141674  -0.723073   0.106269
H  -1.527813   1.012723   0.832585
H  -1.391119   0.784019  -0.920782
H  -0.387979  -1.478808   1.116688
H   0.737793  -0.155257   0.037357
H  -0.029066  -1.449747  -0.678591
