butane_opt
 OpenBabel08242015383D

 14 13  0  0  0  0  0  0  0  0999 V2000
   -3.9318    0.2547   -0.0102 C   0  0  0  0  0  0  0  0  0  0  0  0
   -2.7139   -0.5908    0.0436 C   0  0  0  0  0  0  0  0  0  0  0  0
   -4.8394   -0.3545    0.1960 H   0  0  0  0  0  0  0  0  0  0  0  0
   -4.0269    0.9686   -0.9778 H   0  0  0  0  0  0  0  0  0  0  0  0
   -3.8559    0.7882    0.7889 H   0  0  0  0  0  0  0  0  0  0  0  0
   -1.4103    0.1930    0.0463 C   0  0  0  0  0  0  0  0  0  0  0  0
   -2.7074   -1.2441   -0.7657 H   0  0  0  0  0  0  0  0  0  0  0  0
   -2.7360   -1.2749    0.9692 H   0  0  0  0  0  0  0  0  0  0  0  0
   -0.1510   -0.7083    0.0060 C   0  0  0  0  0  0  0  0  0  0  0  0
   -1.3878    0.8844    0.9218 H   0  0  0  0  0  0  0  0  0  0  0  0
   -1.4277    0.7648   -0.8025 H   0  0  0  0  0  0  0  0  0  0  0  0
   -0.1357   -1.2508    0.8767 H   0  0  0  0  0  0  0  0  0  0  0  0
    0.7555   -0.1243    0.0649 H   0  0  0  0  0  0  0  0  0  0  0  0
   -0.1717   -1.4065   -0.8764 H   0  0  0  0  0  0  0  0  0  0  0  0
  1  2  1  0  0  0  0
  1  3  1  0  0  0  0
  1  5  1  0  0  0  0
  2  6  1  0  0  0  0
  2  8  1  0  0  0  0
  4  1  1  0  0  0  0
  6 10  1  0  0  0  0
  7  2  1  0  0  0  0
  9  6  1  0  0  0  0
  9 13  1  0  0  0  0
  9 12  1  0  0  0  0
 11  6  1  0  0  0  0
 14  9  1  0  0  0  0
M  END
$$$$
