butane_opt
 OpenBabel08242015383D

 14 12  0  0  0  0  0  0  0  0999 V2000
   -3.9137    0.2370    0.0721 C   0  0  0  0  0  0  0  0  0  0  0  0
   -2.6991   -0.5859   -0.0237 C   0  0  0  0  0  0  0  0  0  0  0  0
   -4.9340   -0.4497   -0.1598 H   0  0  0  0  0  0  0  0  0  0  0  0
   -3.8884    0.5728   -0.5178 H   0  0  0  0  0  0  0  0  0  0  0  0
   -3.8690    1.2819    1.1992 H   0  0  0  0  0  0  0  0  0  0  0  0
   -1.4152    0.2349   -0.0679 C   0  0  0  0  0  0  0  0  0  0  0  0
   -2.7279   -1.2488   -0.9303 H   0  0  0  0  0  0  0  0  0  0  0  0
   -2.6023   -1.2591    0.8626 H   0  0  0  0  0  0  0  0  0  0  0  0
   -0.2047   -0.7320    0.0866 C   0  0  0  0  0  0  0  0  0  0  0  0
   -1.3879    0.7042    0.6097 H   0  0  0  0  0  0  0  0  0  0  0  0
   -1.3622    0.9302   -0.9706 H   0  0  0  0  0  0  0  0  0  0  0  0
   -0.1291   -1.5797    1.1220 H   0  0  0  0  0  0  0  0  0  0  0  0
    0.7473   -0.0983    0.0972 H   0  0  0  0  0  0  0  0  0  0  0  0
   -0.0579   -1.1892   -0.6112 H   0  0  0  0  0  0  0  0  0  0  0  0
  2  1  1  0  0  0  0
  2  8  1  0  0  0  0
  3  1  1  0  0  0  0
  4  1  1  0  0  0  0
  6  2  1  0  0  0  0
  6  9  1  0  0  0  0
  6 10  1  0  0  0  0
  7  2  1  0  0  0  0
  9 13  1  0  0  0  0
  9 12  1  0  0  0  0
 11  6  1  0  0  0  0
 14  9  1  0  0  0  0
M  RAD  2   1   2   5   2
M  END
$$$$
