butane_opt
 OpenBabel08242015383D

 14 13  0  0  0  0  0  0  0  0999 V2000
   -3.9797    0.2797    0.1440 C   0  0  0  0  0  0  0  0  0  0  0  0
   -2.6779   -0.6367   -0.0675 C   0  0  0  0  0  0  0  0  0  0  0  0
   -4.8573   -0.2863    0.1412 H   0  0  0  0  0  0  0  0  0  0  0  0
   -4.1746    0.8568   -0.6689 H   0  0  0  0  0  0  0  0  0  0  0  0
   -4.0009    1.0672    1.0066 H   0  0  0  0  0  0  0  0  0  0  0  0
   -1.4060    0.1637   -0.1504 C   0  0  0  0  0  0  0  0  0  0  0  0
   -2.8607   -1.3430   -1.0152 H   0  0  0  0  0  0  0  0  0  0  0  0
   -2.5534   -1.3185    0.8206 H   0  0  0  0  0  0  0  0  0  0  0  0
   -0.1319   -0.6769    0.1280 C   0  0  0  0  0  0  0  0  0  0  0  0
   -1.4146    0.8052    0.7005 H   0  0  0  0  0  0  0  0  0  0  0  0
   -1.3199    0.8285   -1.0907 H   0  0  0  0  0  0  0  0  0  0  0  0
   -0.4885   -1.2887    1.1221 H   0  0  0  0  0  0  0  0  0  0  0  0
    0.9581    0.0637    0.5032 H   0  0  0  0  0  0  0  0  0  0  0  0
    0.0302   -1.4060   -0.7230 H   0  0  0  0  0  0  0  0  0  0  0  0
  1  5  1  0  0  0  0
  2  1  1  0  0  0  0
  2  8  1  0  0  0  0
  3  1  1  0  0  0  0
  4  1  1  0  0  0  0
  6  2  1  0  0  0  0
  6  9  1  0  0  0  0
  6 10  1  0  0  0  0
  7  2  1  0  0  0  0
  9 13  1  0  0  0  0
  9 12  1  0  0  0  0
 11  6  1  0  0  0  0
 14  9  1  0  0  0  0
M  END
$$$$
