14
butane_opt
C  -3.920965   0.284309  -0.053492
C  -2.652222  -0.618610   0.053029
H  -4.882111  -0.310348   0.531845
H  -4.224672   1.368451  -1.195101
H  -3.842676   0.552612   0.578620
C  -1.419735   0.119512   0.113549
H  -2.754281  -1.249069  -0.778832
H  -2.708808  -1.268020   0.968970
C  -0.188105  -0.669420  -0.036805
H  -1.305506   0.884647   1.026740
H  -1.520098   0.611343  -0.572423
H  -0.321571  -1.110320   0.834983
H   0.861033   0.070057   0.039429
H  -0.154504  -1.394409  -0.978184
