14
butane_opt
C  -3.904749   0.231020   0.102949
C  -2.720624  -0.571012  -0.110955
H  -4.950453  -0.447022   0.541674
H  -4.236830   0.861569  -0.810096
H  -3.491210   0.826434   0.969307
C  -1.439695   0.219934  -0.070082
H  -2.686858  -1.263269  -1.012701
H  -2.528020  -1.124438   0.649434
C  -0.149131  -0.731610   0.134696
H  -1.553937   0.849852   0.764629
H  -1.360848   0.827346  -1.005247
H  -0.141746  -1.457799   1.130573
H   0.671868  -0.162824   0.164296
H  -0.147987  -1.178379  -0.609764
