butane_opt
 OpenBabel08242015383D

 14 13  0  0  0  0  0  0  0  0999 V2000
   -3.8985    0.2489   -0.0222 C   0  0  0  0  0  0  0  0  0  0  0  0
   -2.7328   -0.5947    0.0666 C   0  0  0  0  0  0  0  0  0  0  0  0
   -4.8463   -0.4008    0.0232 H   0  0  0  0  0  0  0  0  0  0  0  0
   -3.9143    0.9797   -0.9817 H   0  0  0  0  0  0  0  0  0  0  0  0
   -3.8559    0.7438    0.7054 H   0  0  0  0  0  0  0  0  0  0  0  0
   -1.4186    0.2013    0.0749 C   0  0  0  0  0  0  0  0  0  0  0  0
   -2.6960   -1.2315   -0.7901 H   0  0  0  0  0  0  0  0  0  0  0  0
   -2.6214   -1.1439    0.9241 H   0  0  0  0  0  0  0  0  0  0  0  0
   -0.1944   -0.7092   -0.0219 C   0  0  0  0  0  0  0  0  0  0  0  0
   -1.3804    1.1123    1.0445 H   0  0  0  0  0  0  0  0  0  0  0  0
   -1.3797    0.6326   -0.6782 H   0  0  0  0  0  0  0  0  0  0  0  0
    0.0914   -1.4883    0.9930 H   0  0  0  0  0  0  0  0  0  0  0  0
    0.6912   -0.2230   -0.3088 H   0  0  0  0  0  0  0  0  0  0  0  0
   -0.1776   -1.2147   -0.6778 H   0  0  0  0  0  0  0  0  0  0  0  0
  1  3  1  0  0  0  0
  1  2  1  0  0  0  0
  1  5  1  0  0  0  0
  2  6  1  0  0  0  0
  2  8  1  0  0  0  0
  4  1  1  0  0  0  0
  6 10  1  0  0  0  0
  7  2  1  0  0  0  0
  9  6  1  0  0  0  0
  9 12  1  0  0  0  0
 11  6  1  0  0  0  0
 13  9  1  0  0  0  0
 14  9  1  0  0  0  0
M  END
$$$$
