14
butane_opt
C  -3.946946   0.294927  -0.099238
C  -2.678929  -0.598912   0.188571
H  -4.947459  -0.397079  -0.319604
H  -3.755191   0.652369  -0.890512
H  -4.047043   1.087456   0.938909
C  -1.375491   0.157356   0.109959
H  -2.539681  -1.282425  -0.723267
H  -2.864516  -1.371243   1.212953
C  -0.215526  -0.695395  -0.071346
H  -1.354918   0.747989   0.889302
H  -1.402422   0.832196  -0.862884
H  -0.029109  -1.229308   0.706582
H   0.786115   0.000338  -0.032989
H  -0.275429  -1.395762  -0.985308
