butane_opt
 OpenBabel08242015383D

 14 13  0  0  0  0  0  0  0  0999 V2000
   -3.9701    0.2414    0.0501 C   0  0  0  0  0  0  0  0  0  0  0  0
   -2.6940   -0.6095   -0.0030 C   0  0  0  0  0  0  0  0  0  0  0  0
   -4.9386   -0.4110    0.1427 H   0  0  0  0  0  0  0  0  0  0  0  0
   -3.9908    0.9562   -0.9079 H   0  0  0  0  0  0  0  0  0  0  0  0
   -3.9228    0.8983    0.8672 H   0  0  0  0  0  0  0  0  0  0  0  0
   -1.4058    0.2605    0.0007 C   0  0  0  0  0  0  0  0  0  0  0  0
   -2.7543   -1.5658   -1.0218 H   0  0  0  0  0  0  0  0  0  0  0  0
   -2.7902   -1.1368    0.8173 H   0  0  0  0  0  0  0  0  0  0  0  0
   -0.1214   -0.7114    0.0532 C   0  0  0  0  0  0  0  0  0  0  0  0
   -1.3173    0.9516    0.8832 H   0  0  0  0  0  0  0  0  0  0  0  0
   -1.3847    0.7598   -0.8636 H   0  0  0  0  0  0  0  0  0  0  0  0
    0.0470   -1.6632    1.2130 H   0  0  0  0  0  0  0  0  0  0  0  0
    0.5887   -0.2198   -0.2053 H   0  0  0  0  0  0  0  0  0  0  0  0
   -0.2410   -1.2197   -0.6598 H   0  0  0  0  0  0  0  0  0  0  0  0
  1  3  1  0  0  0  0
  1  5  1  0  0  0  0
  2  6  1  0  0  0  0
  2  1  1  0  0  0  0
  2  8  1  0  0  0  0
  4  1  1  0  0  0  0
  6  9  1  0  0  0  0
  6 10  1  0  0  0  0
  7  2  1  0  0  0  0
  9 12  1  0  0  0  0
 11  6  1  0  0  0  0
 13  9  1  0  0  0  0
 14  9  1  0  0  0  0
M  END
$$$$
