butane_opt
 OpenBabel08242015383D

 14 13  0  0  0  0  0  0  0  0999 V2000
   -3.9461    0.2467    0.1198 C   0  0  0  0  0  0  0  0  0  0  0  0
   -2.7132   -0.6075   -0.0603 C   0  0  0  0  0  0  0  0  0  0  0  0
   -4.7999   -0.3516    0.0609 H   0  0  0  0  0  0  0  0  0  0  0  0
   -4.0863    0.6515   -0.6511 H   0  0  0  0  0  0  0  0  0  0  0  0
   -3.9449    1.0764    1.1000 H   0  0  0  0  0  0  0  0  0  0  0  0
   -1.4286    0.2322   -0.1562 C   0  0  0  0  0  0  0  0  0  0  0  0
   -2.8674   -1.2481   -0.8324 H   0  0  0  0  0  0  0  0  0  0  0  0
   -2.6733   -1.2858    0.9107 H   0  0  0  0  0  0  0  0  0  0  0  0
   -0.1136   -0.7114    0.1476 C   0  0  0  0  0  0  0  0  0  0  0  0
   -1.4273    0.7951    0.6517 H   0  0  0  0  0  0  0  0  0  0  0  0
   -1.3165    0.8392   -1.0462 H   0  0  0  0  0  0  0  0  0  0  0  0
   -0.1864   -1.1678    1.0107 H   0  0  0  0  0  0  0  0  0  0  0  0
    0.7102   -0.2458    0.3893 H   0  0  0  0  0  0  0  0  0  0  0  0
    0.0051   -1.4643   -0.7557 H   0  0  0  0  0  0  0  0  0  0  0  0
  1  5  1  0  0  0  0
  2  1  1  0  0  0  0
  2  8  1  0  0  0  0
  3  1  1  0  0  0  0
  4  1  1  0  0  0  0
  6  2  1  0  0  0  0
  6  9  1  0  0  0  0
  6 10  1  0  0  0  0
  7  2  1  0  0  0  0
  9 13  1  0  0  0  0
  9 12  1  0  0  0  0
 11  6  1  0  0  0  0
 14  9  1  0  0  0  0
M  END
$$$$
