14
butane_opt
C  -3.932545   0.271015  -0.004377
C  -2.697060  -0.627273   0.068705
H  -4.818213  -0.300766  -0.006418
H  -3.946433   0.917373  -0.942322
H  -4.020995   0.961310   0.853295
C  -1.399287   0.175302   0.042364
H  -2.686537  -1.335270  -0.823294
H  -2.723011  -1.215345   0.925815
C  -0.175292  -0.685651   0.005730
H  -1.375528   0.856778   0.912258
H  -1.394185   0.771461  -0.834883
H  -0.137313  -1.355301   0.952093
H   0.741993  -0.065885  -0.109517
H  -0.214127  -1.299934  -0.832135
