butane_opt
 OpenBabel08242015383D

 14 13  0  0  0  0  0  0  0  0999 V2000
   -3.9651    0.2974    0.1178 C   0  0  0  0  0  0  0  0  0  0  0  0
   -2.6764   -0.6616   -0.0615 C   0  0  0  0  0  0  0  0  0  0  0  0
   -4.9243   -0.2946    0.3432 H   0  0  0  0  0  0  0  0  0  0  0  0
   -4.2408    1.0851   -0.9070 H   0  0  0  0  0  0  0  0  0  0  0  0
   -3.9623    0.8267    0.8451 H   0  0  0  0  0  0  0  0  0  0  0  0
   -1.3646    0.1618   -0.0723 C   0  0  0  0  0  0  0  0  0  0  0  0
   -2.8097   -1.6004   -1.1152 H   0  0  0  0  0  0  0  0  0  0  0  0
   -2.4957   -1.1516    0.6333 H   0  0  0  0  0  0  0  0  0  0  0  0
   -0.1789   -0.6731    0.1384 C   0  0  0  0  0  0  0  0  0  0  0  0
   -1.4072    0.8274    0.7749 H   0  0  0  0  0  0  0  0  0  0  0  0
   -1.3484    0.8804   -0.9909 H   0  0  0  0  0  0  0  0  0  0  0  0
   -0.2348   -1.2389    1.0644 H   0  0  0  0  0  0  0  0  0  0  0  0
    0.6975   -0.0945   -0.0078 H   0  0  0  0  0  0  0  0  0  0  0  0
   -0.0662   -1.2049   -0.6912 H   0  0  0  0  0  0  0  0  0  0  0  0
  1  3  1  0  0  0  0
  1  5  1  0  0  0  0
  2  1  1  0  0  0  0
  2  8  1  0  0  0  0
  4  1  1  0  0  0  0
  6  2  1  0  0  0  0
  6  9  1  0  0  0  0
  6 10  1  0  0  0  0
  7  2  1  0  0  0  0
  9 12  1  0  0  0  0
 11  6  1  0  0  0  0
 13  9  1  0  0  0  0
 14  9  1  0  0  0  0
M  END
$$$$
