14
butane_opt
C  -3.974658   0.274733   0.034639
C  -2.726459  -0.619876   0.023933
H  -4.797699  -0.221383   0.063907
H  -4.024219   0.934992  -0.880671
H  -3.917636   1.113112   1.032531
C  -1.396574   0.142275  -0.037791
H  -2.787999  -1.168028  -0.815020
H  -2.730597  -1.475861   1.054814
C  -0.128599  -0.674690   0.067437
H  -1.449552   0.777701   0.787588
H  -1.163664   0.726947  -0.950839
H  -0.311776  -1.096075   0.809152
H   0.829832   0.049532   0.201034
H   0.022930  -1.557608  -0.959930
