butane_opt
 OpenBabel08242015383D

 14 13  0  0  0  0  0  0  0  0999 V2000
   -3.9426    0.2986    0.0662 C   0  0  0  0  0  0  0  0  0  0  0  0
   -2.6947   -0.6202    0.0036 C   0  0  0  0  0  0  0  0  0  0  0  0
   -4.8172   -0.2735   -0.3067 H   0  0  0  0  0  0  0  0  0  0  0  0
   -3.8357    0.5401   -0.6312 H   0  0  0  0  0  0  0  0  0  0  0  0
   -4.1036    1.1201    1.0802 H   0  0  0  0  0  0  0  0  0  0  0  0
   -1.3725    0.1470   -0.0409 C   0  0  0  0  0  0  0  0  0  0  0  0
   -2.6381   -1.2942   -0.8234 H   0  0  0  0  0  0  0  0  0  0  0  0
   -2.7517   -1.2822    0.9044 H   0  0  0  0  0  0  0  0  0  0  0  0
   -0.1646   -0.6853    0.0509 C   0  0  0  0  0  0  0  0  0  0  0  0
   -1.4337    0.8833    0.7820 H   0  0  0  0  0  0  0  0  0  0  0  0
   -1.5040    0.7680   -0.8815 H   0  0  0  0  0  0  0  0  0  0  0  0
   -0.3671   -1.5140    1.2051 H   0  0  0  0  0  0  0  0  0  0  0  0
    0.8157   -0.0105   -0.1823 H   0  0  0  0  0  0  0  0  0  0  0  0
   -0.2964   -1.0864   -0.6085 H   0  0  0  0  0  0  0  0  0  0  0  0
  1  5  1  0  0  0  0
  2  1  1  0  0  0  0
  2  8  1  0  0  0  0
  3  1  1  0  0  0  0
  4  1  1  0  0  0  0
  6  2  1  0  0  0  0
  6  9  1  0  0  0  0
  6 10  1  0  0  0  0
  7  2  1  0  0  0  0
  9 12  1  0  0  0  0
 11  6  1  0  0  0  0
 13  9  1  0  0  0  0
 14  9  1  0  0  0  0
M  END
$$$$
