14
butane_opt
C  -3.979654   0.279691   0.144005
C  -2.677900  -0.636680  -0.067466
H  -4.857293  -0.286262   0.141222
H  -4.174622   0.856800  -0.668905
H  -4.000946   1.067204   1.006649
C  -1.406024   0.163708  -0.150407
H  -2.860690  -1.343002  -1.015183
H  -2.553366  -1.318483   0.820631
C  -0.131871  -0.676875   0.128047
H  -1.414611   0.805195   0.700496
H  -1.319893   0.828544  -1.090662
H  -0.488536  -1.288664   1.122116
H   0.958077   0.063748   0.503213
H   0.030249  -1.406000  -0.722990
