14
butane_opt
C  -3.888549   0.252759  -0.041286
C  -2.712925  -0.599395   0.086110
H  -4.881441  -0.439560  -0.012301
H  -3.746952   0.948263  -0.963833
H  -3.864738   0.802768   0.711842
C  -1.406574   0.234814   0.103153
H  -2.728296  -1.234937  -0.747774
H  -2.719449  -1.268392   1.026444
C  -0.209059  -0.730676  -0.023361
H  -1.528052   0.807869   0.944125
H  -1.462829   0.823897  -0.766254
H   0.175235  -1.296733   0.778434
H   0.633687  -0.177964  -0.084550
H  -0.303126  -1.329266  -0.950302
