14
butane_opt
C  -3.939808   0.259850  -0.069568
C  -2.666951  -0.610498   0.136339
H  -4.782765  -0.166780  -0.144291
H  -3.818103   0.873885  -0.978383
H  -4.054351   0.964508   0.800353
C  -1.399490   0.115855   0.096929
H  -2.533707  -1.151979  -0.580257
H  -2.829028  -1.343611   1.127846
C  -0.189929  -0.663614  -0.072212
H  -1.385128   1.007187   1.123475
H  -1.620906   0.708932  -0.839984
H  -0.297656  -1.188452   0.829467
H   0.794031   0.009202  -0.098482
H  -0.172257  -1.390349  -0.903760
