butane_opt
 OpenBabel08242015383D

 14 13  0  0  0  0  0  0  0  0999 V2000
   -3.9229    0.2923    0.1255 C   0  0  0  0  0  0  0  0  0  0  0  0
   -2.6715   -0.6509   -0.1040 C   0  0  0  0  0  0  0  0  0  0  0  0
   -4.7292   -0.2501    0.4707 H   0  0  0  0  0  0  0  0  0  0  0  0
   -4.1938    1.0536   -0.8137 H   0  0  0  0  0  0  0  0  0  0  0  0
   -3.8485    0.9704    0.9252 H   0  0  0  0  0  0  0  0  0  0  0  0
   -1.3975    0.1354   -0.1055 C   0  0  0  0  0  0  0  0  0  0  0  0
   -2.9694   -1.3791   -1.0674 H   0  0  0  0  0  0  0  0  0  0  0  0
   -2.6506   -1.2942    0.7210 H   0  0  0  0  0  0  0  0  0  0  0  0
   -0.1997   -0.6583    0.1580 C   0  0  0  0  0  0  0  0  0  0  0  0
   -1.4237    0.8615    0.8007 H   0  0  0  0  0  0  0  0  0  0  0  0
   -1.3324    0.7442   -1.0442 H   0  0  0  0  0  0  0  0  0  0  0  0
   -0.2597   -1.2400    1.0392 H   0  0  0  0  0  0  0  0  0  0  0  0
    0.7608   -0.0742    0.1546 H   0  0  0  0  0  0  0  0  0  0  0  0
   -0.1030   -1.2487   -0.6314 H   0  0  0  0  0  0  0  0  0  0  0  0
  1  3  1  0  0  0  0
  1  5  1  0  0  0  0
  2  1  1  0  0  0  0
  2  8  1  0  0  0  0
  4  1  1  0  0  0  0
  6  2  1  0  0  0  0
  6  9  1  0  0  0  0
  6 10  1  0  0  0  0
  7  2  1  0  0  0  0
  9 12  1  0  0  0  0
 11  6  1  0  0  0  0
 13  9  1  0  0  0  0
 14  9  1  0  0  0  0
M  END
$$$$
