14
butane_opt
C  -3.953364   0.291496   0.072523
C  -2.709308  -0.670638  -0.002490
H  -4.827747  -0.255078  -0.078504
H  -4.172659   0.755665  -0.678814
H  -4.160787   1.251613   1.217315
C  -1.396264   0.148623  -0.074882
H  -2.734312  -1.526437  -0.972670
H  -2.523675  -1.170454   0.794499
C  -0.142136  -0.658412   0.086699
H  -1.355621   0.755451   0.653870
H  -1.356082   0.924392  -1.089462
H  -0.173958  -1.407082   1.088045
H   0.780129  -0.016023   0.156594
H  -0.075646  -1.111749  -0.581361
