14
butane_opt
C  -3.932716   0.256292   0.033905
C  -2.700858  -0.616177   0.029834
H  -4.826564  -0.322957   0.059126
H  -3.977469   0.894507  -0.890118
H  -3.930472   0.927062   0.884430
C  -1.413517   0.190333  -0.004770
H  -2.752132  -1.265379  -0.795537
H  -2.706228  -1.232130   0.888725
C  -0.159725  -0.691820   0.046169
H  -1.473193   0.813431   0.810901
H  -1.382736   0.886474  -0.930019
H  -0.164444  -1.252170   0.889596
H   0.751822  -0.113949   0.125739
H  -0.086621  -1.469737  -0.879196
