butane_opt
 OpenBabel08242015383D

 14 13  0  0  0  0  0  0  0  0999 V2000
   -3.9705    0.2652    0.0940 C   0  0  0  0  0  0  0  0  0  0  0  0
   -2.6915   -0.6106    0.0019 C   0  0  0  0  0  0  0  0  0  0  0  0
   -4.8341   -0.2824    0.1712 H   0  0  0  0  0  0  0  0  0  0  0  0
   -4.2055    0.9602   -0.8431 H   0  0  0  0  0  0  0  0  0  0  0  0
   -4.0305    1.0190    0.9907 H   0  0  0  0  0  0  0  0  0  0  0  0
   -1.3878    0.1426   -0.1151 C   0  0  0  0  0  0  0  0  0  0  0  0
   -2.6722   -1.5147   -0.9588 H   0  0  0  0  0  0  0  0  0  0  0  0
   -2.6025   -1.1605    0.8687 H   0  0  0  0  0  0  0  0  0  0  0  0
   -0.1530   -0.6649    0.1105 C   0  0  0  0  0  0  0  0  0  0  0  0
   -1.3397    0.6792    0.6223 H   0  0  0  0  0  0  0  0  0  0  0  0
   -1.4148    0.9092   -1.0296 H   0  0  0  0  0  0  0  0  0  0  0  0
   -0.5080   -1.0382    0.9326 H   0  0  0  0  0  0  0  0  0  0  0  0
    0.9000   -0.0015    0.4185 H   0  0  0  0  0  0  0  0  0  0  0  0
    0.1295   -1.6193   -0.8557 H   0  0  0  0  0  0  0  0  0  0  0  0
  1  3  1  0  0  0  0
  1  5  1  0  0  0  0
  2  1  1  0  0  0  0
  2  8  1  0  0  0  0
  4  1  1  0  0  0  0
  6  2  1  0  0  0  0
  6  9  1  0  0  0  0
  6 10  1  0  0  0  0
  7  2  1  0  0  0  0
  9 13  1  0  0  0  0
  9 12  1  0  0  0  0
 11  6  1  0  0  0  0
 14  9  1  0  0  0  0
M  END
$$$$
