butane_opt
 OpenBabel08242015383D

 14 12  0  0  0  0  0  0  0  0999 V2000
   -3.9466    0.2314   -0.0801 C   0  0  0  0  0  0  0  0  0  0  0  0
   -2.7497   -0.5845    0.1469 C   0  0  0  0  0  0  0  0  0  0  0  0
   -4.8810   -0.4456   -0.0471 H   0  0  0  0  0  0  0  0  0  0  0  0
   -3.7988    0.9508   -0.9858 H   0  0  0  0  0  0  0  0  0  0  0  0
   -3.9855    0.8570    0.7813 H   0  0  0  0  0  0  0  0  0  0  0  0
   -1.4301    0.2415    0.0569 C   0  0  0  0  0  0  0  0  0  0  0  0
   -2.8021   -0.9287   -0.4644 H   0  0  0  0  0  0  0  0  0  0  0  0
   -2.7894   -1.3821    1.1945 H   0  0  0  0  0  0  0  0  0  0  0  0
   -0.0913   -0.7361   -0.0460 C   0  0  0  0  0  0  0  0  0  0  0  0
   -1.2863    0.9885    0.9855 H   0  0  0  0  0  0  0  0  0  0  0  0
   -1.4289    0.6785   -0.7950 H   0  0  0  0  0  0  0  0  0  0  0  0
   -0.0671   -1.0320    0.6226 H   0  0  0  0  0  0  0  0  0  0  0  0
    0.8180   -0.1981    0.3312 H   0  0  0  0  0  0  0  0  0  0  0  0
   -0.1734   -1.8072   -1.1542 H   0  0  0  0  0  0  0  0  0  0  0  0
  1  3  1  0  0  0  0
  1  2  1  0  0  0  0
  1  5  1  0  0  0  0
  2  8  1  0  0  0  0
  4  1  1  0  0  0  0
  6  2  1  0  0  0  0
  6 10  1  0  0  0  0
  7  2  1  0  0  0  0
  9  6  1  0  0  0  0
  9 13  1  0  0  0  0
  9 12  1  0  0  0  0
 11  6  1  0  0  0  0
M  RAD  2   9   2  14   2
M  END
$$$$
