butane_opt
 OpenBabel08242015383D

 14 13  0  0  0  0  0  0  0  0999 V2000
   -3.9357    0.2924    0.1402 C   0  0  0  0  0  0  0  0  0  0  0  0
   -2.6958   -0.6661   -0.1135 C   0  0  0  0  0  0  0  0  0  0  0  0
   -4.7189   -0.1207    0.4304 H   0  0  0  0  0  0  0  0  0  0  0  0
   -4.2360    1.0740   -0.8751 H   0  0  0  0  0  0  0  0  0  0  0  0
   -3.8898    0.7461    0.7968 H   0  0  0  0  0  0  0  0  0  0  0  0
   -1.4060    0.1535   -0.0625 C   0  0  0  0  0  0  0  0  0  0  0  0
   -2.8058   -1.4957   -1.0475 H   0  0  0  0  0  0  0  0  0  0  0  0
   -2.5735   -1.1502    0.5879 H   0  0  0  0  0  0  0  0  0  0  0  0
   -0.1826   -0.6448    0.1298 C   0  0  0  0  0  0  0  0  0  0  0  0
   -1.4164    0.7326    0.7438 H   0  0  0  0  0  0  0  0  0  0  0  0
   -1.4441    0.8375   -0.9486 H   0  0  0  0  0  0  0  0  0  0  0  0
   -0.1042   -1.4708    1.0976 H   0  0  0  0  0  0  0  0  0  0  0  0
    0.8286    0.0321    0.1561 H   0  0  0  0  0  0  0  0  0  0  0  0
   -0.0781   -1.2222   -0.6156 H   0  0  0  0  0  0  0  0  0  0  0  0
  1  3  1  0  0  0  0
  1  5  1  0  0  0  0
  2  6  1  0  0  0  0
  2  1  1  0  0  0  0
  2  8  1  0  0  0  0
  4  1  1  0  0  0  0
  6  9  1  0  0  0  0
  6 10  1  0  0  0  0
  7  2  1  0  0  0  0
  9 13  1  0  0  0  0
  9 12  1  0  0  0  0
 11  6  1  0  0  0  0
 14  9  1  0  0  0  0
M  END
$$$$
