butane_opt
 OpenBabel08242015383D

 14 12  0  0  0  0  0  0  0  0999 V2000
   -3.9288    0.2914    0.0619 C   0  0  0  0  0  0  0  0  0  0  0  0
   -2.6491   -0.6281    0.0160 C   0  0  0  0  0  0  0  0  0  0  0  0
   -4.8612   -0.2439   -0.4572 H   0  0  0  0  0  0  0  0  0  0  0  0
   -3.8459    0.5166   -0.5329 H   0  0  0  0  0  0  0  0  0  0  0  0
   -4.1543    1.3855    1.2323 H   0  0  0  0  0  0  0  0  0  0  0  0
   -1.4157    0.1229   -0.0693 C   0  0  0  0  0  0  0  0  0  0  0  0
   -2.7440   -1.2217   -0.7004 H   0  0  0  0  0  0  0  0  0  0  0  0
   -2.7450   -1.3831    0.9663 H   0  0  0  0  0  0  0  0  0  0  0  0
   -0.2021   -0.6538    0.0607 C   0  0  0  0  0  0  0  0  0  0  0  0
   -1.5884    0.6419    0.6966 H   0  0  0  0  0  0  0  0  0  0  0  0
   -1.2953    0.7416   -0.9450 H   0  0  0  0  0  0  0  0  0  0  0  0
   -0.1457   -1.4189    1.0254 H   0  0  0  0  0  0  0  0  0  0  0  0
    0.8623    0.0917    0.0489 H   0  0  0  0  0  0  0  0  0  0  0  0
   -0.1952   -1.1372   -0.6766 H   0  0  0  0  0  0  0  0  0  0  0  0
  2  1  1  0  0  0  0
  2  8  1  0  0  0  0
  3  1  1  0  0  0  0
  4  1  1  0  0  0  0
  6  2  1  0  0  0  0
  6  9  1  0  0  0  0
  6 10  1  0  0  0  0
  7  2  1  0  0  0  0
  9 12  1  0  0  0  0
 11  6  1  0  0  0  0
 13  9  1  0  0  0  0
 14  9  1  0  0  0  0
M  RAD  2   1   2   5   2
M  END
$$$$
