14
butane_opt
C  -3.961384   0.240308  -0.007698
C  -2.734107  -0.578154   0.061215
H  -5.011764  -0.501324   0.494130
H  -4.085917   1.210717  -1.262049
H  -3.831675   0.473958   0.573354
C  -1.434947   0.229207   0.066056
H  -2.666317  -1.377162  -0.870714
H  -2.747877  -1.094194   0.855990
C  -0.099655  -0.728285  -0.015410
H  -1.344536   1.018753   1.125736
H  -1.321137   0.819261  -0.822610
H   0.012354  -1.302974   0.852917
H   0.748465  -0.180903   0.161173
H   0.000868  -1.505542  -0.957126
