butane_opt
 OpenBabel08242015383D

 14 13  0  0  0  0  0  0  0  0999 V2000
   -3.9181    0.2859    0.1116 C   0  0  0  0  0  0  0  0  0  0  0  0
   -2.6585   -0.6430   -0.0852 C   0  0  0  0  0  0  0  0  0  0  0  0
   -4.7451   -0.2604    0.4785 H   0  0  0  0  0  0  0  0  0  0  0  0
   -4.2165    1.0316   -0.8356 H   0  0  0  0  0  0  0  0  0  0  0  0
   -3.7730    0.8487    1.0230 H   0  0  0  0  0  0  0  0  0  0  0  0
   -1.3976    0.1477   -0.1048 C   0  0  0  0  0  0  0  0  0  0  0  0
   -2.8701   -1.3619   -1.0224 H   0  0  0  0  0  0  0  0  0  0  0  0
   -2.6234   -1.0858    0.6476 H   0  0  0  0  0  0  0  0  0  0  0  0
   -0.2064   -0.6713    0.1215 C   0  0  0  0  0  0  0  0  0  0  0  0
   -1.4740    0.8473    0.8014 H   0  0  0  0  0  0  0  0  0  0  0  0
   -1.2944    0.6789   -0.9701 H   0  0  0  0  0  0  0  0  0  0  0  0
   -0.4257   -1.3707    1.1146 H   0  0  0  0  0  0  0  0  0  0  0  0
    0.7070   -0.0758    0.2777 H   0  0  0  0  0  0  0  0  0  0  0  0
   -0.1405   -1.1340   -0.5854 H   0  0  0  0  0  0  0  0  0  0  0  0
  1  3  1  0  0  0  0
  1  5  1  0  0  0  0
  2  1  1  0  0  0  0
  2  8  1  0  0  0  0
  4  1  1  0  0  0  0
  6  2  1  0  0  0  0
  6  9  1  0  0  0  0
  6 10  1  0  0  0  0
  7  2  1  0  0  0  0
  9 13  1  0  0  0  0
  9 12  1  0  0  0  0
 11  6  1  0  0  0  0
 14  9  1  0  0  0  0
M  END
$$$$
