butane_opt
 OpenBabel08242015383D

 14 12  0  0  0  0  0  0  0  0999 V2000
   -3.9614    0.2403   -0.0077 C   0  0  0  0  0  0  0  0  0  0  0  0
   -2.7341   -0.5782    0.0612 C   0  0  0  0  0  0  0  0  0  0  0  0
   -5.0118   -0.5013    0.4941 H   0  0  0  0  0  0  0  0  0  0  0  0
   -4.0859    1.2107   -1.2620 H   0  0  0  0  0  0  0  0  0  0  0  0
   -3.8317    0.4740    0.5734 H   0  0  0  0  0  0  0  0  0  0  0  0
   -1.4349    0.2292    0.0661 C   0  0  0  0  0  0  0  0  0  0  0  0
   -2.6663   -1.3772   -0.8707 H   0  0  0  0  0  0  0  0  0  0  0  0
   -2.7479   -1.0942    0.8560 H   0  0  0  0  0  0  0  0  0  0  0  0
   -0.0997   -0.7283   -0.0154 C   0  0  0  0  0  0  0  0  0  0  0  0
   -1.3445    1.0188    1.1257 H   0  0  0  0  0  0  0  0  0  0  0  0
   -1.3211    0.8193   -0.8226 H   0  0  0  0  0  0  0  0  0  0  0  0
    0.0124   -1.3030    0.8529 H   0  0  0  0  0  0  0  0  0  0  0  0
    0.7485   -0.1809    0.1612 H   0  0  0  0  0  0  0  0  0  0  0  0
    0.0009   -1.5055   -0.9571 H   0  0  0  0  0  0  0  0  0  0  0  0
  1  2  1  0  0  0  0
  1  3  1  0  0  0  0
  1  5  1  0  0  0  0
  2  6  1  0  0  0  0
  2  8  1  0  0  0  0
  6 10  1  0  0  0  0
  7  2  1  0  0  0  0
  9  6  1  0  0  0  0
  9 13  1  0  0  0  0
  9 12  1  0  0  0  0
 11  6  1  0  0  0  0
 14  9  1  0  0  0  0
M  RAD  2   1   2   4   2
M  END
$$$$
