butane_opt
 OpenBabel08242015383D

 14 13  0  0  0  0  0  0  0  0999 V2000
   -3.9408    0.2565    0.0472 C   0  0  0  0  0  0  0  0  0  0  0  0
   -2.6945   -0.6097    0.0061 C   0  0  0  0  0  0  0  0  0  0  0  0
   -4.8468   -0.3750    0.1714 H   0  0  0  0  0  0  0  0  0  0  0  0
   -4.0169    0.9633   -0.9181 H   0  0  0  0  0  0  0  0  0  0  0  0
   -3.8970    0.8610    0.8471 H   0  0  0  0  0  0  0  0  0  0  0  0
   -1.4035    0.1921   -0.0058 C   0  0  0  0  0  0  0  0  0  0  0  0
   -2.7170   -1.3500   -0.8910 H   0  0  0  0  0  0  0  0  0  0  0  0
   -2.7196   -1.1727    0.8492 H   0  0  0  0  0  0  0  0  0  0  0  0
   -0.1712   -0.6973    0.0525 C   0  0  0  0  0  0  0  0  0  0  0  0
   -1.4205    0.8761    0.8599 H   0  0  0  0  0  0  0  0  0  0  0  0
   -1.3953    0.8684   -0.9233 H   0  0  0  0  0  0  0  0  0  0  0  0
   -0.1149   -1.3602    0.9750 H   0  0  0  0  0  0  0  0  0  0  0  0
    0.7309   -0.1147    0.0744 H   0  0  0  0  0  0  0  0  0  0  0  0
   -0.1070   -1.3684   -0.8036 H   0  0  0  0  0  0  0  0  0  0  0  0
  1  3  1  0  0  0  0
  1  5  1  0  0  0  0
  2  1  1  0  0  0  0
  2  8  1  0  0  0  0
  4  1  1  0  0  0  0
  6  2  1  0  0  0  0
  6  9  1  0  0  0  0
  6 10  1  0  0  0  0
  7  2  1  0  0  0  0
  9 13  1  0  0  0  0
  9 12  1  0  0  0  0
 11  6  1  0  0  0  0
 14  9  1  0  0  0  0
M  END
$$$$
