butane_opt
 OpenBabel08242015383D

 14 13  0  0  0  0  0  0  0  0999 V2000
   -3.9267    0.2568    0.0084 C   0  0  0  0  0  0  0  0  0  0  0  0
   -2.7175   -0.5858    0.0611 C   0  0  0  0  0  0  0  0  0  0  0  0
   -4.9471   -0.4432   -0.1700 H   0  0  0  0  0  0  0  0  0  0  0  0
   -3.8232    0.5709   -0.7476 H   0  0  0  0  0  0  0  0  0  0  0  0
   -4.1059    1.0820    0.9536 H   0  0  0  0  0  0  0  0  0  0  0  0
   -1.4337    0.2124    0.0170 C   0  0  0  0  0  0  0  0  0  0  0  0
   -2.7908   -1.2605   -0.8831 H   0  0  0  0  0  0  0  0  0  0  0  0
   -2.8432   -1.2683    0.9960 H   0  0  0  0  0  0  0  0  0  0  0  0
   -0.1081   -0.7208    0.0425 C   0  0  0  0  0  0  0  0  0  0  0  0
   -1.4258    0.7682    0.7875 H   0  0  0  0  0  0  0  0  0  0  0  0
   -1.5044    0.9504   -0.9922 H   0  0  0  0  0  0  0  0  0  0  0  0
    0.0579   -1.3050    0.9329 H   0  0  0  0  0  0  0  0  0  0  0  0
    0.8326   -0.1597   -0.1294 H   0  0  0  0  0  0  0  0  0  0  0  0
   -0.2310   -1.3681   -0.8117 H   0  0  0  0  0  0  0  0  0  0  0  0
  1  2  1  0  0  0  0
  1  5  1  0  0  0  0
  2  8  1  0  0  0  0
  3  1  1  0  0  0  0
  4  1  1  0  0  0  0
  6  9  1  0  0  0  0
  6  2  1  0  0  0  0
  6 10  1  0  0  0  0
  7  2  1  0  0  0  0
  9 12  1  0  0  0  0
 11  6  1  0  0  0  0
 13  9  1  0  0  0  0
 14  9  1  0  0  0  0
M  END
$$$$
