butane_opt
 OpenBabel08242015383D

 14 13  0  0  0  0  0  0  0  0999 V2000
   -3.9139    0.2583   -0.0531 C   0  0  0  0  0  0  0  0  0  0  0  0
   -2.7188   -0.5725    0.1258 C   0  0  0  0  0  0  0  0  0  0  0  0
   -4.8653   -0.3209    0.1110 H   0  0  0  0  0  0  0  0  0  0  0  0
   -3.8779    1.0049   -1.0702 H   0  0  0  0  0  0  0  0  0  0  0  0
   -3.8535    0.8458    0.8524 H   0  0  0  0  0  0  0  0  0  0  0  0
   -1.4230    0.1543    0.0180 C   0  0  0  0  0  0  0  0  0  0  0  0
   -2.7438   -1.2324   -0.6712 H   0  0  0  0  0  0  0  0  0  0  0  0
   -2.7079   -1.3821    1.1558 H   0  0  0  0  0  0  0  0  0  0  0  0
   -0.1703   -0.6970   -0.0407 C   0  0  0  0  0  0  0  0  0  0  0  0
   -1.1986    0.9355    0.9715 H   0  0  0  0  0  0  0  0  0  0  0  0
   -1.5250    0.6906   -0.7031 H   0  0  0  0  0  0  0  0  0  0  0  0
   -0.3070   -1.0863    0.7417 H   0  0  0  0  0  0  0  0  0  0  0  0
    0.7782   -0.0312    0.4616 H   0  0  0  0  0  0  0  0  0  0  0  0
   -0.0158   -1.6067   -1.0368 H   0  0  0  0  0  0  0  0  0  0  0  0
  1  3  1  0  0  0  0
  1  2  1  0  0  0  0
  1  5  1  0  0  0  0
  2  8  1  0  0  0  0
  4  1  1  0  0  0  0
  6  2  1  0  0  0  0
  6 10  1  0  0  0  0
  7  2  1  0  0  0  0
  9  6  1  0  0  0  0
  9 13  1  0  0  0  0
  9 12  1  0  0  0  0
 11  6  1  0  0  0  0
 14  9  1  0  0  0  0
M  END
$$$$
