butane_opt
 OpenBabel08242015383D

 14 13  0  0  0  0  0  0  0  0999 V2000
   -3.8873    0.2377   -0.0829 C   0  0  0  0  0  0  0  0  0  0  0  0
   -2.6853   -0.5956    0.1851 C   0  0  0  0  0  0  0  0  0  0  0  0
   -4.8334   -0.4330   -0.4210 H   0  0  0  0  0  0  0  0  0  0  0  0
   -3.6699    0.8181   -1.0054 H   0  0  0  0  0  0  0  0  0  0  0  0
   -4.0435    1.0500    0.7528 H   0  0  0  0  0  0  0  0  0  0  0  0
   -1.4577    0.1987    0.1214 C   0  0  0  0  0  0  0  0  0  0  0  0
   -2.6784   -1.1971   -0.6345 H   0  0  0  0  0  0  0  0  0  0  0  0
   -2.9373   -1.2778    1.1265 H   0  0  0  0  0  0  0  0  0  0  0  0
   -0.1533   -0.7071   -0.0589 C   0  0  0  0  0  0  0  0  0  0  0  0
   -1.5053    0.9343    0.9873 H   0  0  0  0  0  0  0  0  0  0  0  0
   -1.4899    0.8981   -0.7375 H   0  0  0  0  0  0  0  0  0  0  0  0
    0.1181   -1.2652    0.7090 H   0  0  0  0  0  0  0  0  0  0  0  0
    0.7337   -0.1867   -0.2992 H   0  0  0  0  0  0  0  0  0  0  0  0
   -0.5001   -1.4361   -1.0164 H   0  0  0  0  0  0  0  0  0  0  0  0
  1  2  1  0  0  0  0
  1  5  1  0  0  0  0
  2  8  1  0  0  0  0
  3  1  1  0  0  0  0
  4  1  1  0  0  0  0
  6  2  1  0  0  0  0
  6 10  1  0  0  0  0
  7  2  1  0  0  0  0
  9  6  1  0  0  0  0
  9 12  1  0  0  0  0
 11  6  1  0  0  0  0
 13  9  1  0  0  0  0
 14  9  1  0  0  0  0
M  END
$$$$
