14
butane_opt
C  -3.986051   0.289550  -0.001893
C  -2.717047  -0.627378   0.117448
H  -4.857523  -0.274252   0.043912
H  -3.829453   0.911062  -0.877357
H  -4.156983   0.855733   0.708302
C  -1.383846   0.152267  -0.019159
H  -2.775899  -1.311724  -0.820388
H  -2.814314  -1.249591   1.062968
C  -0.134017  -0.677772   0.022924
H  -1.361961   0.860181   0.879163
H  -1.386243   0.812585  -0.904679
H  -0.169024  -1.028416   0.669126
H   0.856616  -0.026467   0.309966
H   0.084771  -1.659892  -1.087015
