butane_opt
 OpenBabel08242015383D

 14 12  0  0  0  0  0  0  0  0999 V2000
   -3.8956    0.3009    0.1166 C   0  0  0  0  0  0  0  0  0  0  0  0
   -2.6871   -0.6652   -0.0826 C   0  0  0  0  0  0  0  0  0  0  0  0
   -4.7253   -0.2200   -0.0207 H   0  0  0  0  0  0  0  0  0  0  0  0
   -4.0556    0.8134   -0.7421 H   0  0  0  0  0  0  0  0  0  0  0  0
   -3.9966    0.9884    0.9837 H   0  0  0  0  0  0  0  0  0  0  0  0
   -1.4326    0.1656   -0.0249 C   0  0  0  0  0  0  0  0  0  0  0  0
   -2.7854   -1.5514   -1.1287 H   0  0  0  0  0  0  0  0  0  0  0  0
   -2.4185   -1.1212    0.7089 H   0  0  0  0  0  0  0  0  0  0  0  0
   -0.1838   -0.6645    0.1112 C   0  0  0  0  0  0  0  0  0  0  0  0
   -1.5038    0.6290    0.7050 H   0  0  0  0  0  0  0  0  0  0  0  0
   -1.3478    0.8277   -0.9234 H   0  0  0  0  0  0  0  0  0  0  0  0
   -0.1463   -1.5785    1.2249 H   0  0  0  0  0  0  0  0  0  0  0  0
    0.7216    0.0299   -0.3540 H   0  0  0  0  0  0  0  0  0  0  0  0
   -0.3794   -0.8990   -0.4350 H   0  0  0  0  0  0  0  0  0  0  0  0
  1  5  1  0  0  0  0
  2  6  1  0  0  0  0
  2  1  1  0  0  0  0
  2  8  1  0  0  0  0
  3  1  1  0  0  0  0
  4  1  1  0  0  0  0
  6  9  1  0  0  0  0
  6 10  1  0  0  0  0
  7  2  1  0  0  0  0
  9 12  1  0  0  0  0
 11  6  1  0  0  0  0
 13  9  1  0  0  0  0
M  RAD  2   9   2  14   2
M  END
$$$$
