butane_opt
 OpenBabel08242015383D

 14 13  0  0  0  0  0  0  0  0999 V2000
   -3.8805    0.2569    0.0838 C   0  0  0  0  0  0  0  0  0  0  0  0
   -2.7143   -0.5942    0.0187 C   0  0  0  0  0  0  0  0  0  0  0  0
   -4.7907   -0.4202    0.0532 H   0  0  0  0  0  0  0  0  0  0  0  0
   -3.9792    0.8215   -0.7353 H   0  0  0  0  0  0  0  0  0  0  0  0
   -3.8853    0.8259    0.9677 H   0  0  0  0  0  0  0  0  0  0  0  0
   -1.4606    0.2139   -0.1069 C   0  0  0  0  0  0  0  0  0  0  0  0
   -2.7321   -1.4639   -0.9521 H   0  0  0  0  0  0  0  0  0  0  0  0
   -2.5699   -1.2146    0.8081 H   0  0  0  0  0  0  0  0  0  0  0  0
   -0.1711   -0.7155    0.1068 C   0  0  0  0  0  0  0  0  0  0  0  0
   -1.4010    0.8252    0.7137 H   0  0  0  0  0  0  0  0  0  0  0  0
   -1.5408    1.0066   -1.1119 H   0  0  0  0  0  0  0  0  0  0  0  0
   -0.3368   -1.1210    0.9461 H   0  0  0  0  0  0  0  0  0  0  0  0
    0.8314   -0.0858    0.4232 H   0  0  0  0  0  0  0  0  0  0  0  0
    0.0907   -1.5769   -0.9146 H   0  0  0  0  0  0  0  0  0  0  0  0
  1  5  1  0  0  0  0
  2  1  1  0  0  0  0
  2  8  1  0  0  0  0
  3  1  1  0  0  0  0
  4  1  1  0  0  0  0
  6  2  1  0  0  0  0
  6  9  1  0  0  0  0
  6 10  1  0  0  0  0
  7  2  1  0  0  0  0
  9 13  1  0  0  0  0
  9 12  1  0  0  0  0
 11  6  1  0  0  0  0
 14  9  1  0  0  0  0
M  END
$$$$
