14
butane_opt
C  -3.970444   0.258616   0.043574
C  -2.717629  -0.603387  -0.002097
H  -4.936296  -0.377675   0.027242
H  -3.800099   0.715733  -0.777824
H  -4.022390   0.991810   0.844054
C  -1.388368   0.195419  -0.002255
H  -2.895830  -1.266284  -0.901798
H  -2.730551  -1.005441   0.830683
C  -0.142524  -0.717823   0.075628
H  -1.295609   0.913890   0.877991
H  -1.407447   0.804303  -0.878264
H   0.151579  -1.553658   1.089850
H   0.727577  -0.154204  -0.351086
H  -0.194223  -1.156715  -0.654302
