butane_opt
 OpenBabel08242015383D

 14 11  0  0  0  0  0  0  0  0999 V2000
   -3.9159    0.2313   -0.0515 C   0  0  0  0  0  0  0  0  0  0  0  0
   -2.7080   -0.5731    0.0547 C   0  0  0  0  0  0  0  0  0  0  0  0
   -4.8515   -0.3165    0.4922 H   0  0  0  0  0  0  0  0  0  0  0  0
   -4.0729    1.2669   -1.1947 H   0  0  0  0  0  0  0  0  0  0  0  0
   -3.7270    0.4659    0.5001 H   0  0  0  0  0  0  0  0  0  0  0  0
   -1.3941    0.2258    0.1225 C   0  0  0  0  0  0  0  0  0  0  0  0
   -2.6535   -1.1864   -0.7198 H   0  0  0  0  0  0  0  0  0  0  0  0
   -2.7107   -1.3589    1.0271 H   0  0  0  0  0  0  0  0  0  0  0  0
   -0.1924   -0.7172   -0.0326 C   0  0  0  0  0  0  0  0  0  0  0  0
   -1.4645    0.9799    1.0316 H   0  0  0  0  0  0  0  0  0  0  0  0
   -1.3129    0.6097   -0.5921 H   0  0  0  0  0  0  0  0  0  0  0  0
   -0.0305   -1.1839    0.7357 H   0  0  0  0  0  0  0  0  0  0  0  0
    0.5997   -0.2890    0.0468 H   0  0  0  0  0  0  0  0  0  0  0  0
   -0.2506   -1.4634   -1.0689 H   0  0  0  0  0  0  0  0  0  0  0  0
  1  2  1  0  0  0  0
  1  3  1  0  0  0  0
  2  6  1  0  0  0  0
  2  8  1  0  0  0  0
  6 10  1  0  0  0  0
  7  2  1  0  0  0  0
  9 13  1  0  0  0  0
  9  6  1  0  0  0  0
  9 12  1  0  0  0  0
 11  6  1  0  0  0  0
 14  9  1  0  0  0  0
M  RAD  3   1   3   4   2   5   2
M  END
$$$$
