butane_opt
 OpenBabel08242015383D

 14 13  0  0  0  0  0  0  0  0999 V2000
   -3.9812    0.2228    0.0768 C   0  0  0  0  0  0  0  0  0  0  0  0
   -2.7138   -0.5815   -0.0176 C   0  0  0  0  0  0  0  0  0  0  0  0
   -4.8572   -0.3848   -0.1714 H   0  0  0  0  0  0  0  0  0  0  0  0
   -4.0523    0.6950   -0.7759 H   0  0  0  0  0  0  0  0  0  0  0  0
   -3.9609    1.1408    1.0897 H   0  0  0  0  0  0  0  0  0  0  0  0
   -1.3915    0.2256   -0.0372 C   0  0  0  0  0  0  0  0  0  0  0  0
   -2.8237   -1.2610   -0.8919 H   0  0  0  0  0  0  0  0  0  0  0  0
   -2.7058   -1.1816    0.8499 H   0  0  0  0  0  0  0  0  0  0  0  0
   -0.0952   -0.7141    0.0633 C   0  0  0  0  0  0  0  0  0  0  0  0
   -1.4647    0.8989    0.7015 H   0  0  0  0  0  0  0  0  0  0  0  0
   -1.4988    0.7324   -0.8463 H   0  0  0  0  0  0  0  0  0  0  0  0
   -0.1392   -1.6787    1.1769 H   0  0  0  0  0  0  0  0  0  0  0  0
    0.7280   -0.1323   -0.1100 H   0  0  0  0  0  0  0  0  0  0  0  0
   -0.0416   -1.1368   -0.5630 H   0  0  0  0  0  0  0  0  0  0  0  0
  1  5  1  0  0  0  0
  2  1  1  0  0  0  0
  2  8  1  0  0  0  0
  3  1  1  0  0  0  0
  4  1  1  0  0  0  0
  6  2  1  0  0  0  0
  6  9  1  0  0  0  0
  6 10  1  0  0  0  0
  7  2  1  0  0  0  0
  9 12  1  0  0  0  0
 11  6  1  0  0  0  0
 13  9  1  0  0  0  0
 14  9  1  0  0  0  0
M  END
$$$$
