butane_opt
 OpenBabel08242015383D

 14 13  0  0  0  0  0  0  0  0999 V2000
   -3.9305    0.2960    0.0835 C   0  0  0  0  0  0  0  0  0  0  0  0
   -2.6693   -0.6177   -0.0649 C   0  0  0  0  0  0  0  0  0  0  0  0
   -4.8240   -0.2658   -0.0015 H   0  0  0  0  0  0  0  0  0  0  0  0
   -4.1888    0.7354   -0.6116 H   0  0  0  0  0  0  0  0  0  0  0  0
   -3.8625    1.1812    0.9877 H   0  0  0  0  0  0  0  0  0  0  0  0
   -1.3865    0.1181   -0.0435 C   0  0  0  0  0  0  0  0  0  0  0  0
   -2.8551   -1.3946   -0.9758 H   0  0  0  0  0  0  0  0  0  0  0  0
   -2.6970   -1.2997    0.8067 H   0  0  0  0  0  0  0  0  0  0  0  0
   -0.1910   -0.6666    0.1121 C   0  0  0  0  0  0  0  0  0  0  0  0
   -1.5463    0.8603    0.7837 H   0  0  0  0  0  0  0  0  0  0  0  0
   -1.1902    0.6810   -0.9397 H   0  0  0  0  0  0  0  0  0  0  0  0
   -0.1226   -1.5499    1.2127 H   0  0  0  0  0  0  0  0  0  0  0  0
    0.7970   -0.0081   -0.3474 H   0  0  0  0  0  0  0  0  0  0  0  0
   -0.4150   -0.9440   -0.4934 H   0  0  0  0  0  0  0  0  0  0  0  0
  1  5  1  0  0  0  0
  2  6  1  0  0  0  0
  2  1  1  0  0  0  0
  2  8  1  0  0  0  0
  3  1  1  0  0  0  0
  4  1  1  0  0  0  0
  6  9  1  0  0  0  0
  6 10  1  0  0  0  0
  7  2  1  0  0  0  0
  9 12  1  0  0  0  0
 11  6  1  0  0  0  0
 13  9  1  0  0  0  0
 14  9  1  0  0  0  0
M  END
$$$$
