butane_opt
 OpenBabel08242015383D

 14 13  0  0  0  0  0  0  0  0999 V2000
   -3.9486    0.2558    0.0181 C   0  0  0  0  0  0  0  0  0  0  0  0
   -2.6958   -0.6007    0.0247 C   0  0  0  0  0  0  0  0  0  0  0  0
   -4.8457   -0.3592    0.0643 H   0  0  0  0  0  0  0  0  0  0  0  0
   -3.9901    0.8161   -0.8323 H   0  0  0  0  0  0  0  0  0  0  0  0
   -3.9684    0.9594    0.8978 H   0  0  0  0  0  0  0  0  0  0  0  0
   -1.4078    0.1820    0.0081 C   0  0  0  0  0  0  0  0  0  0  0  0
   -2.7454   -1.2697   -0.8338 H   0  0  0  0  0  0  0  0  0  0  0  0
   -2.7357   -1.2347    0.9234 H   0  0  0  0  0  0  0  0  0  0  0  0
   -0.1459   -0.6990    0.0424 C   0  0  0  0  0  0  0  0  0  0  0  0
   -1.4501    0.9202    0.8871 H   0  0  0  0  0  0  0  0  0  0  0  0
   -1.3659    0.8290   -0.8752 H   0  0  0  0  0  0  0  0  0  0  0  0
   -0.0919   -1.3919    0.9686 H   0  0  0  0  0  0  0  0  0  0  0  0
    0.7494   -0.1213   -0.0813 H   0  0  0  0  0  0  0  0  0  0  0  0
   -0.1943   -1.2825   -0.7871 H   0  0  0  0  0  0  0  0  0  0  0  0
  1  2  1  0  0  0  0
  1  3  1  0  0  0  0
  1  5  1  0  0  0  0
  2  8  1  0  0  0  0
  4  1  1  0  0  0  0
  6  2  1  0  0  0  0
  6  9  1  0  0  0  0
  6 10  1  0  0  0  0
  7  2  1  0  0  0  0
  9 12  1  0  0  0  0
 11  6  1  0  0  0  0
 13  9  1  0  0  0  0
 14  9  1  0  0  0  0
M  END
$$$$
