14
butane_opt
C  -3.978367   0.299799  -0.068674
C  -2.704345  -0.644360   0.153492
H  -4.811598  -0.296590  -0.242316
H  -3.933484   0.716737  -0.857649
H  -4.177723   1.212587   0.972683
C  -1.361174   0.130500   0.049673
H  -2.586560  -1.230159  -0.650060
H  -2.730537  -1.355690   1.059067
C  -0.177247  -0.672743  -0.030271
H  -1.222923   0.745693   0.843406
H  -1.422890   0.858899  -0.820505
H  -0.013962  -1.072037   0.706683
H   0.773722  -0.017508   0.070388
H  -0.245412  -1.383934  -0.862548
