butane_opt
 OpenBabel08242015383D

 14 13  0  0  0  0  0  0  0  0999 V2000
   -3.9704    0.2586    0.0436 C   0  0  0  0  0  0  0  0  0  0  0  0
   -2.7176   -0.6034   -0.0021 C   0  0  0  0  0  0  0  0  0  0  0  0
   -4.9363   -0.3777    0.0272 H   0  0  0  0  0  0  0  0  0  0  0  0
   -3.8001    0.7157   -0.7778 H   0  0  0  0  0  0  0  0  0  0  0  0
   -4.0224    0.9918    0.8441 H   0  0  0  0  0  0  0  0  0  0  0  0
   -1.3884    0.1954   -0.0023 C   0  0  0  0  0  0  0  0  0  0  0  0
   -2.8958   -1.2663   -0.9018 H   0  0  0  0  0  0  0  0  0  0  0  0
   -2.7306   -1.0054    0.8307 H   0  0  0  0  0  0  0  0  0  0  0  0
   -0.1425   -0.7178    0.0756 C   0  0  0  0  0  0  0  0  0  0  0  0
   -1.2956    0.9139    0.8780 H   0  0  0  0  0  0  0  0  0  0  0  0
   -1.4074    0.8043   -0.8783 H   0  0  0  0  0  0  0  0  0  0  0  0
    0.1516   -1.5537    1.0898 H   0  0  0  0  0  0  0  0  0  0  0  0
    0.7276   -0.1542   -0.3511 H   0  0  0  0  0  0  0  0  0  0  0  0
   -0.1942   -1.1567   -0.6543 H   0  0  0  0  0  0  0  0  0  0  0  0
  1  5  1  0  0  0  0
  2  1  1  0  0  0  0
  2  8  1  0  0  0  0
  3  1  1  0  0  0  0
  4  1  1  0  0  0  0
  6  2  1  0  0  0  0
  6  9  1  0  0  0  0
  6 10  1  0  0  0  0
  7  2  1  0  0  0  0
  9 12  1  0  0  0  0
 11  6  1  0  0  0  0
 13  9  1  0  0  0  0
 14  9  1  0  0  0  0
M  END
$$$$
