14
butane_opt
C  -3.965081   0.297443   0.117823
C  -2.676446  -0.661638  -0.061481
H  -4.924349  -0.294585   0.343152
H  -4.240756   1.085128  -0.906956
H  -3.962324   0.826741   0.845149
C  -1.364562   0.161758  -0.072260
H  -2.809668  -1.600393  -1.115233
H  -2.495737  -1.151552   0.633334
C  -0.178943  -0.673065   0.138426
H  -1.407175   0.827381   0.774907
H  -1.348379   0.880388  -0.990884
H  -0.234802  -1.238936   1.064374
H   0.697518  -0.094527  -0.007796
H  -0.066248  -1.204949  -0.691228
