butane_opt
 OpenBabel08242015383D

 14 13  0  0  0  0  0  0  0  0999 V2000
   -3.9101    0.2315   -0.1199 C   0  0  0  0  0  0  0  0  0  0  0  0
   -2.7017   -0.5464    0.1542 C   0  0  0  0  0  0  0  0  0  0  0  0
   -4.8755   -0.4305   -0.0186 H   0  0  0  0  0  0  0  0  0  0  0  0
   -3.7287    0.8165   -1.0625 H   0  0  0  0  0  0  0  0  0  0  0  0
   -3.9492    0.8973    0.6821 H   0  0  0  0  0  0  0  0  0  0  0  0
   -1.4593    0.2081    0.1982 C   0  0  0  0  0  0  0  0  0  0  0  0
   -2.5568   -1.3014   -0.7404 H   0  0  0  0  0  0  0  0  0  0  0  0
   -2.9072   -1.2848    1.0943 H   0  0  0  0  0  0  0  0  0  0  0  0
   -0.1290   -0.7240   -0.0965 C   0  0  0  0  0  0  0  0  0  0  0  0
   -1.3880    0.8518    1.1109 H   0  0  0  0  0  0  0  0  0  0  0  0
   -1.4980    0.7871   -0.6910 H   0  0  0  0  0  0  0  0  0  0  0  0
    0.0269   -1.4495    0.8024 H   0  0  0  0  0  0  0  0  0  0  0  0
    0.7568   -0.1505   -0.4821 H   0  0  0  0  0  0  0  0  0  0  0  0
   -0.4835   -1.2228   -0.8586 H   0  0  0  0  0  0  0  0  0  0  0  0
  1  3  1  0  0  0  0
  1  2  1  0  0  0  0
  1  5  1  0  0  0  0
  2  6  1  0  0  0  0
  2  8  1  0  0  0  0
  4  1  1  0  0  0  0
  6 10  1  0  0  0  0
  7  2  1  0  0  0  0
  9  6  1  0  0  0  0
  9 12  1  0  0  0  0
 11  6  1  0  0  0  0
 13  9  1  0  0  0  0
 14  9  1  0  0  0  0
M  END
$$$$
