butane_opt
 OpenBabel08242015383D

 14 13  0  0  0  0  0  0  0  0999 V2000
   -3.9747    0.2747    0.0346 C   0  0  0  0  0  0  0  0  0  0  0  0
   -2.7265   -0.6199    0.0239 C   0  0  0  0  0  0  0  0  0  0  0  0
   -4.7977   -0.2214    0.0639 H   0  0  0  0  0  0  0  0  0  0  0  0
   -4.0242    0.9350   -0.8807 H   0  0  0  0  0  0  0  0  0  0  0  0
   -3.9176    1.1131    1.0325 H   0  0  0  0  0  0  0  0  0  0  0  0
   -1.3966    0.1423   -0.0378 C   0  0  0  0  0  0  0  0  0  0  0  0
   -2.7880   -1.1680   -0.8150 H   0  0  0  0  0  0  0  0  0  0  0  0
   -2.7306   -1.4759    1.0548 H   0  0  0  0  0  0  0  0  0  0  0  0
   -0.1286   -0.6747    0.0674 C   0  0  0  0  0  0  0  0  0  0  0  0
   -1.4496    0.7777    0.7876 H   0  0  0  0  0  0  0  0  0  0  0  0
   -1.1637    0.7269   -0.9508 H   0  0  0  0  0  0  0  0  0  0  0  0
   -0.3118   -1.0961    0.8092 H   0  0  0  0  0  0  0  0  0  0  0  0
    0.8298    0.0495    0.2010 H   0  0  0  0  0  0  0  0  0  0  0  0
    0.0229   -1.5576   -0.9599 H   0  0  0  0  0  0  0  0  0  0  0  0
  1  3  1  0  0  0  0
  1  5  1  0  0  0  0
  2  1  1  0  0  0  0
  2  8  1  0  0  0  0
  4  1  1  0  0  0  0
  6  2  1  0  0  0  0
  6  9  1  0  0  0  0
  6 10  1  0  0  0  0
  7  2  1  0  0  0  0
  9 13  1  0  0  0  0
  9 12  1  0  0  0  0
 11  6  1  0  0  0  0
 14  9  1  0  0  0  0
M  END
$$$$
