14
butane_opt
C  -3.912756   0.292680   0.027839
C  -2.690674  -0.653895   0.057803
H  -4.702845  -0.088752   0.089719
H  -3.989482   0.739384  -0.712362
H  -3.952806   1.100786   0.937414
C  -1.414515   0.133587  -0.066748
H  -2.759486  -1.271317  -0.759300
H  -2.646357  -1.334288   0.871737
C  -0.210566  -0.657785   0.055810
H  -1.325399   0.764674   0.741550
H  -1.366403   0.807922  -1.000848
H  -0.425214  -1.088627   0.811258
H   0.775897   0.046231   0.432935
H   0.063118  -1.501853  -0.862976
