butane_opt
 OpenBabel08242015383D

 14 13  0  0  0  0  0  0  0  0999 V2000
   -3.9439    0.3087    0.0084 C   0  0  0  0  0  0  0  0  0  0  0  0
   -2.6590   -0.6459    0.0035 C   0  0  0  0  0  0  0  0  0  0  0  0
   -4.8376   -0.3093    0.0677 H   0  0  0  0  0  0  0  0  0  0  0  0
   -4.1552    0.8181   -0.7966 H   0  0  0  0  0  0  0  0  0  0  0  0
   -3.9319    1.0217    0.8121 H   0  0  0  0  0  0  0  0  0  0  0  0
   -1.3862    0.1281    0.0341 C   0  0  0  0  0  0  0  0  0  0  0  0
   -2.7227   -1.2708   -0.8078 H   0  0  0  0  0  0  0  0  0  0  0  0
   -2.6119   -1.2220    0.8923 H   0  0  0  0  0  0  0  0  0  0  0  0
   -0.2166   -0.6508    0.0400 C   0  0  0  0  0  0  0  0  0  0  0  0
   -1.2766    0.8072    0.9605 H   0  0  0  0  0  0  0  0  0  0  0  0
   -1.3684    0.6168   -0.7743 H   0  0  0  0  0  0  0  0  0  0  0  0
   -0.1356   -1.5241    1.1503 H   0  0  0  0  0  0  0  0  0  0  0  0
    0.7320    0.0713   -0.3578 H   0  0  0  0  0  0  0  0  0  0  0  0
   -0.2697   -1.1486   -0.7300 H   0  0  0  0  0  0  0  0  0  0  0  0
  1  3  1  0  0  0  0
  1  5  1  0  0  0  0
  2  1  1  0  0  0  0
  2  6  1  0  0  0  0
  2  8  1  0  0  0  0
  4  1  1  0  0  0  0
  6  9  1  0  0  0  0
  6 10  1  0  0  0  0
  7  2  1  0  0  0  0
  9 12  1  0  0  0  0
 11  6  1  0  0  0  0
 13  9  1  0  0  0  0
 14  9  1  0  0  0  0
M  END
$$$$
