14
butane_opt
C  -3.982843   0.297761  -0.074814
C  -2.685774  -0.638141   0.204150
H  -4.906456  -0.322514  -0.405951
H  -3.810336   0.836977  -0.908761
H  -4.224367   0.998404   0.752775
C  -1.381098   0.130683   0.081694
H  -2.671668  -1.282534  -0.634064
H  -2.597958  -1.256392   0.979711
C  -0.159892  -0.648668  -0.054284
H  -1.300258   0.799764   0.927116
H  -1.484890   0.740230  -0.785650
H  -0.090986  -1.221661   0.774380
H   0.758027   0.000520  -0.055430
H  -0.203494  -1.470522  -1.100078
