14
butane_opt
C  -3.958877   0.268086  -0.090070
C  -2.694262  -0.635530   0.129187
H  -4.923874  -0.354496  -0.054434
H  -3.867291   0.875932  -1.058024
H  -4.190424   0.943302   0.673897
C  -1.396068   0.239542   0.166825
H  -2.647680  -1.304828  -0.674885
H  -2.689841  -1.260937   1.036149
C  -0.171398  -0.705316  -0.095857
H  -1.110240   0.901289   1.095662
H  -1.469320   0.635342  -0.632728
H   0.033167  -1.619211   0.924457
H   0.771119  -0.089560  -0.352902
H  -0.269871  -1.182750  -0.800528
