butane_opt
 OpenBabel08242015383D

 14 13  0  0  0  0  0  0  0  0999 V2000
   -3.9469    0.2288    0.0769 C   0  0  0  0  0  0  0  0  0  0  0  0
   -2.7335   -0.6172   -0.0868 C   0  0  0  0  0  0  0  0  0  0  0  0
   -4.8699   -0.3857    0.3691 H   0  0  0  0  0  0  0  0  0  0  0  0
   -4.2093    1.0136   -0.8848 H   0  0  0  0  0  0  0  0  0  0  0  0
   -3.6691    0.8634    0.9242 H   0  0  0  0  0  0  0  0  0  0  0  0
   -1.4153    0.2452   -0.0126 C   0  0  0  0  0  0  0  0  0  0  0  0
   -2.6541   -1.2379   -0.9039 H   0  0  0  0  0  0  0  0  0  0  0  0
   -2.7219   -1.2191    0.7902 H   0  0  0  0  0  0  0  0  0  0  0  0
   -0.1151   -0.7162    0.1029 C   0  0  0  0  0  0  0  0  0  0  0  0
   -1.4209    1.0000    0.8841 H   0  0  0  0  0  0  0  0  0  0  0  0
   -1.4337    0.8545   -0.9854 H   0  0  0  0  0  0  0  0  0  0  0  0
   -0.1366   -1.5296    1.1069 H   0  0  0  0  0  0  0  0  0  0  0  0
    0.7179   -0.2103   -0.0959 H   0  0  0  0  0  0  0  0  0  0  0  0
   -0.0796   -1.3200   -0.7233 H   0  0  0  0  0  0  0  0  0  0  0  0
  1  3  1  0  0  0  0
  1  5  1  0  0  0  0
  2  6  1  0  0  0  0
  2  1  1  0  0  0  0
  2  8  1  0  0  0  0
  4  1  1  0  0  0  0
  6  9  1  0  0  0  0
  6 10  1  0  0  0  0
  7  2  1  0  0  0  0
  9 12  1  0  0  0  0
 11  6  1  0  0  0  0
 13  9  1  0  0  0  0
 14  9  1  0  0  0  0
M  END
$$$$
