14
butane_opt
C  -3.943886   0.308667   0.008424
C  -2.658953  -0.645936   0.003462
H  -4.837596  -0.309290   0.067714
H  -4.155181   0.818082  -0.796593
H  -3.931911   1.021738   0.812102
C  -1.386231   0.128129   0.034058
H  -2.722694  -1.270807  -0.807798
H  -2.611904  -1.222040   0.892261
C  -0.216601  -0.650843   0.039996
H  -1.276605   0.807163   0.960484
H  -1.368367   0.616848  -0.774257
H  -0.135567  -1.524098   1.150266
H   0.732010   0.071334  -0.357820
H  -0.269742  -1.148627  -0.729987
