14
butane_opt
C  -3.916253   0.286583   0.084591
C  -2.690076  -0.629349  -0.052099
H  -4.846887  -0.331039   0.364229
H  -4.087936   0.898335  -0.776024
H  -3.898801   0.874083   0.911209
C  -1.421841   0.152918  -0.045899
H  -2.637460  -1.529639  -1.086702
H  -2.515202  -1.128255   0.737137
C  -0.200361  -0.650261   0.086121
H  -1.405985   0.770876   0.773724
H  -1.306742   0.898993  -0.929190
H  -0.285871  -1.480224   1.181669
H   0.716996  -0.143547   0.049463
H  -0.014927  -1.218764  -0.642790
