butane_opt
 OpenBabel08242015383D

 14 13  0  0  0  0  0  0  0  0999 V2000
   -3.9828    0.2978   -0.0748 C   0  0  0  0  0  0  0  0  0  0  0  0
   -2.6858   -0.6381    0.2041 C   0  0  0  0  0  0  0  0  0  0  0  0
   -4.9065   -0.3225   -0.4060 H   0  0  0  0  0  0  0  0  0  0  0  0
   -3.8103    0.8370   -0.9088 H   0  0  0  0  0  0  0  0  0  0  0  0
   -4.2244    0.9984    0.7528 H   0  0  0  0  0  0  0  0  0  0  0  0
   -1.3811    0.1307    0.0817 C   0  0  0  0  0  0  0  0  0  0  0  0
   -2.6717   -1.2825   -0.6341 H   0  0  0  0  0  0  0  0  0  0  0  0
   -2.5980   -1.2564    0.9797 H   0  0  0  0  0  0  0  0  0  0  0  0
   -0.1599   -0.6487   -0.0543 C   0  0  0  0  0  0  0  0  0  0  0  0
   -1.3003    0.7998    0.9271 H   0  0  0  0  0  0  0  0  0  0  0  0
   -1.4849    0.7402   -0.7856 H   0  0  0  0  0  0  0  0  0  0  0  0
   -0.0910   -1.2217    0.7744 H   0  0  0  0  0  0  0  0  0  0  0  0
    0.7580    0.0005   -0.0554 H   0  0  0  0  0  0  0  0  0  0  0  0
   -0.2035   -1.4705   -1.1001 H   0  0  0  0  0  0  0  0  0  0  0  0
  1  2  1  0  0  0  0
  1  5  1  0  0  0  0
  2  8  1  0  0  0  0
  3  1  1  0  0  0  0
  4  1  1  0  0  0  0
  6  2  1  0  0  0  0
  6 10  1  0  0  0  0
  7  2  1  0  0  0  0
  9  6  1  0  0  0  0
  9 12  1  0  0  0  0
 11  6  1  0  0  0  0
 13  9  1  0  0  0  0
 14  9  1  0  0  0  0
M  END
$$$$
