14
butane_opt
C  -3.954658   0.294042  -0.056572
C  -2.742850  -0.614390   0.057389
H  -4.810661  -0.266623   0.274809
H  -4.243236   1.106298  -1.014520
H  -3.958720   0.667320   0.649846
C  -1.382795   0.143876   0.101315
H  -2.683530  -1.256478  -0.790157
H  -2.750231  -1.403606   1.034754
C  -0.137101  -0.681354  -0.000405
H  -1.240740   0.970551   1.065909
H  -1.355903   0.687259  -0.670139
H   0.012895  -1.214187   0.828501
H   0.907556  -0.058710  -0.252121
H  -0.297981  -1.384545  -0.948323
