butane_opt
 OpenBabel08242015383D

 14 13  0  0  0  0  0  0  0  0999 V2000
   -3.9997    0.2967    0.0217 C   0  0  0  0  0  0  0  0  0  0  0  0
   -2.6952   -0.6688    0.0174 C   0  0  0  0  0  0  0  0  0  0  0  0
   -4.9161   -0.1987   -0.0112 H   0  0  0  0  0  0  0  0  0  0  0  0
   -4.0270    0.9844   -1.0079 H   0  0  0  0  0  0  0  0  0  0  0  0
   -4.0840    1.0277    0.8889 H   0  0  0  0  0  0  0  0  0  0  0  0
   -1.3715    0.1517    0.0730 C   0  0  0  0  0  0  0  0  0  0  0  0
   -2.7076   -1.4472   -0.9555 H   0  0  0  0  0  0  0  0  0  0  0  0
   -2.7948   -1.1087    0.8173 H   0  0  0  0  0  0  0  0  0  0  0  0
   -0.1410   -0.6874    0.0247 C   0  0  0  0  0  0  0  0  0  0  0  0
   -1.1541    0.7922    0.9628 H   0  0  0  0  0  0  0  0  0  0  0  0
   -1.4556    0.8473   -0.8216 H   0  0  0  0  0  0  0  0  0  0  0  0
   -0.0875   -1.5396    1.0637 H   0  0  0  0  0  0  0  0  0  0  0  0
    0.9527    0.0861   -0.4822 H   0  0  0  0  0  0  0  0  0  0  0  0
   -0.2733   -0.9914   -0.6205 H   0  0  0  0  0  0  0  0  0  0  0  0
  1  5  1  0  0  0  0
  2  1  1  0  0  0  0
  2  6  1  0  0  0  0
  2  8  1  0  0  0  0
  3  1  1  0  0  0  0
  4  1  1  0  0  0  0
  6 10  1  0  0  0  0
  7  2  1  0  0  0  0
  9  6  1  0  0  0  0
  9 12  1  0  0  0  0
 11  6  1  0  0  0  0
 13  9  1  0  0  0  0
 14  9  1  0  0  0  0
M  END
$$$$
