14
butane_opt
C  -3.937872   0.221853   0.008916
C  -2.725954  -0.588440   0.036388
H  -4.874535  -0.426843   0.203790
H  -3.898747   0.910666  -0.897601
H  -3.940442   0.891312   0.911081
C  -1.433166   0.257494  -0.021222
H  -2.670982  -1.142559  -0.718545
H  -2.696743  -1.464100   1.151731
C  -0.120667  -0.719351   0.027505
H  -1.545194   0.927488   0.840896
H  -1.301463   0.869844  -0.831027
H  -0.236895  -1.117714   0.793453
H   0.725936  -0.279424   0.386786
H   0.059255  -1.723198  -1.059216
