14
butane_opt
C  -3.929079   0.256873   0.043066
C  -2.712434  -0.618774   0.011223
H  -4.766941  -0.387225  -0.110316
H  -3.806286   0.576410  -0.663064
H  -4.074612   1.143727   1.025170
C  -1.404255   0.225934  -0.035279
H  -2.789830  -1.207438  -0.851452
H  -2.721321  -1.217097   0.908994
C  -0.137471  -0.705023   0.098172
H  -1.535059   0.747284   0.718967
H  -1.493605   0.922724  -0.930761
H  -0.061158  -1.452254   0.994128
H   0.742677  -0.137424  -0.147388
H  -0.313653  -1.378447  -0.865904
