butane_opt
 OpenBabel08242015383D

 14 13  0  0  0  0  0  0  0  0999 V2000
   -3.9336    0.2846   -0.0158 C   0  0  0  0  0  0  0  0  0  0  0  0
   -2.6879   -0.6315    0.1150 C   0  0  0  0  0  0  0  0  0  0  0  0
   -4.8034   -0.3406   -0.4909 H   0  0  0  0  0  0  0  0  0  0  0  0
   -3.6842    0.6521   -0.8091 H   0  0  0  0  0  0  0  0  0  0  0  0
   -4.2482    1.2165    0.9948 H   0  0  0  0  0  0  0  0  0  0  0  0
   -1.4221    0.1428    0.0362 C   0  0  0  0  0  0  0  0  0  0  0  0
   -2.5682   -1.1502   -0.5792 H   0  0  0  0  0  0  0  0  0  0  0  0
   -2.8165   -1.2891    1.0645 H   0  0  0  0  0  0  0  0  0  0  0  0
   -0.1625   -0.6788   -0.0078 C   0  0  0  0  0  0  0  0  0  0  0  0
   -1.4213    0.7641    0.9229 H   0  0  0  0  0  0  0  0  0  0  0  0
   -1.3982    0.8598   -0.9282 H   0  0  0  0  0  0  0  0  0  0  0  0
   -0.1809   -1.2133    0.9049 H   0  0  0  0  0  0  0  0  0  0  0  0
    0.8919    0.0229   -0.1945 H   0  0  0  0  0  0  0  0  0  0  0  0
   -0.3353   -1.3975   -0.9633 H   0  0  0  0  0  0  0  0  0  0  0  0
  1  2  1  0  0  0  0
  1  5  1  0  0  0  0
  2  8  1  0  0  0  0
  3  1  1  0  0  0  0
  4  1  1  0  0  0  0
  6  2  1  0  0  0  0
  6 10  1  0  0  0  0
  7  2  1  0  0  0  0
  9  6  1  0  0  0  0
  9 12  1  0  0  0  0
 11  6  1  0  0  0  0
 13  9  1  0  0  0  0
 14  9  1  0  0  0  0
M  END
$$$$
