butane_opt
 OpenBabel08242015383D

 14 10  0  0  0  0  0  0  0  0999 V2000
   -3.9256    0.2389   -0.0423 C   0  0  0  0  0  0  0  0  0  0  0  0
   -2.7429   -0.5555    0.0960 C   0  0  0  0  0  0  0  0  0  0  0  0
   -4.7685   -0.3463    0.2601 H   0  0  0  0  0  0  0  0  0  0  0  0
   -3.8074    1.2236   -1.2017 H   0  0  0  0  0  0  0  0  0  0  0  0
   -3.8430    0.4349    0.4205 H   0  0  0  0  0  0  0  0  0  0  0  0
   -1.4035    0.1789    0.1305 C   0  0  0  0  0  0  0  0  0  0  0  0
   -2.7937   -1.1629   -0.8118 H   0  0  0  0  0  0  0  0  0  0  0  0
   -2.7545   -1.1858    0.9732 H   0  0  0  0  0  0  0  0  0  0  0  0
   -0.1430   -0.7118   -0.0553 C   0  0  0  0  0  0  0  0  0  0  0  0
   -1.4025    0.9785    1.0605 H   0  0  0  0  0  0  0  0  0  0  0  0
   -1.6180    0.6863   -0.6330 H   0  0  0  0  0  0  0  0  0  0  0  0
    0.0088   -1.2693    0.7581 H   0  0  0  0  0  0  0  0  0  0  0  0
    0.7696   -0.1361    0.0240 H   0  0  0  0  0  0  0  0  0  0  0  0
   -0.2536   -1.4901   -0.9954 H   0  0  0  0  0  0  0  0  0  0  0  0
  1  2  1  0  0  0  0
  1  3  1  0  0  0  0
  2  8  1  0  0  0  0
  6 10  1  0  0  0  0
  7  2  1  0  0  0  0
  9 13  1  0  0  0  0
  9  6  1  0  0  0  0
  9 12  1  0  0  0  0
 11  6  1  0  0  0  0
 14  9  1  0  0  0  0
M  RAD  5   1   3   2   2   4   2   5   2   6   2
M  END
$$$$
