butane_opt
 OpenBabel08242015383D

 14 13  0  0  0  0  0  0  0  0999 V2000
   -3.9452    0.2992   -0.0470 C   0  0  0  0  0  0  0  0  0  0  0  0
   -2.6700   -0.6364    0.1604 C   0  0  0  0  0  0  0  0  0  0  0  0
   -4.8153   -0.2948   -0.2827 H   0  0  0  0  0  0  0  0  0  0  0  0
   -3.8152    0.8396   -0.9109 H   0  0  0  0  0  0  0  0  0  0  0  0
   -4.2095    1.0646    0.8117 H   0  0  0  0  0  0  0  0  0  0  0  0
   -1.4195    0.1168    0.0737 C   0  0  0  0  0  0  0  0  0  0  0  0
   -2.5837   -1.3413   -0.6474 H   0  0  0  0  0  0  0  0  0  0  0  0
   -2.7005   -1.2727    1.0166 H   0  0  0  0  0  0  0  0  0  0  0  0
   -0.1858   -0.6598   -0.0701 C   0  0  0  0  0  0  0  0  0  0  0  0
   -1.3342    0.7385    0.8384 H   0  0  0  0  0  0  0  0  0  0  0  0
   -1.4511    0.7280   -0.8235 H   0  0  0  0  0  0  0  0  0  0  0  0
   -0.1910   -1.1122    0.7346 H   0  0  0  0  0  0  0  0  0  0  0  0
    0.8884    0.0265    0.1493 H   0  0  0  0  0  0  0  0  0  0  0  0
   -0.1866   -1.2554   -0.8330 H   0  0  0  0  0  0  0  0  0  0  0  0
  1  2  1  0  0  0  0
  1  5  1  0  0  0  0
  2  8  1  0  0  0  0
  3  1  1  0  0  0  0
  4  1  1  0  0  0  0
  6  2  1  0  0  0  0
  6 10  1  0  0  0  0
  7  2  1  0  0  0  0
  9  6  1  0  0  0  0
  9 13  1  0  0  0  0
  9 12  1  0  0  0  0
 11  6  1  0  0  0  0
 14  9  1  0  0  0  0
M  END
$$$$
