butane_opt
 OpenBabel08242015383D

 14 13  0  0  0  0  0  0  0  0999 V2000
   -3.9336    0.2374    0.0860 C   0  0  0  0  0  0  0  0  0  0  0  0
   -2.7136   -0.6004   -0.0849 C   0  0  0  0  0  0  0  0  0  0  0  0
   -4.8230   -0.3361    0.5510 H   0  0  0  0  0  0  0  0  0  0  0  0
   -4.4988    1.0452   -0.8463 H   0  0  0  0  0  0  0  0  0  0  0  0
   -3.7084    0.8057    0.9096 H   0  0  0  0  0  0  0  0  0  0  0  0
   -1.4184    0.2176   -0.0716 C   0  0  0  0  0  0  0  0  0  0  0  0
   -2.8275   -1.4107   -0.9832 H   0  0  0  0  0  0  0  0  0  0  0  0
   -2.7657   -1.1980    0.7439 H   0  0  0  0  0  0  0  0  0  0  0  0
   -0.1179   -0.7260    0.1105 C   0  0  0  0  0  0  0  0  0  0  0  0
   -1.4762    0.9230    0.8475 H   0  0  0  0  0  0  0  0  0  0  0  0
   -1.2087    0.8632   -0.8983 H   0  0  0  0  0  0  0  0  0  0  0  0
   -0.1980   -1.3138    1.0432 H   0  0  0  0  0  0  0  0  0  0  0  0
    0.6697   -0.1572    0.1767 H   0  0  0  0  0  0  0  0  0  0  0  0
    0.0515   -1.2406   -0.6120 H   0  0  0  0  0  0  0  0  0  0  0  0
  1  3  1  0  0  0  0
  1  5  1  0  0  0  0
  2  6  1  0  0  0  0
  2  1  1  0  0  0  0
  2  8  1  0  0  0  0
  4  1  1  0  0  0  0
  6  9  1  0  0  0  0
  6 10  1  0  0  0  0
  7  2  1  0  0  0  0
  9 13  1  0  0  0  0
  9 12  1  0  0  0  0
 11  6  1  0  0  0  0
 14  9  1  0  0  0  0
M  END
$$$$
