butane_opt
 OpenBabel08242015383D

 14 13  0  0  0  0  0  0  0  0999 V2000
   -3.9425    0.2378   -0.0233 C   0  0  0  0  0  0  0  0  0  0  0  0
   -2.7383   -0.5775    0.0971 C   0  0  0  0  0  0  0  0  0  0  0  0
   -4.9041   -0.3669    0.0896 H   0  0  0  0  0  0  0  0  0  0  0  0
   -4.0196    0.9355   -0.8327 H   0  0  0  0  0  0  0  0  0  0  0  0
   -3.7675    0.9291    0.8748 H   0  0  0  0  0  0  0  0  0  0  0  0
   -1.4221    0.2237   -0.0203 C   0  0  0  0  0  0  0  0  0  0  0  0
   -2.7512   -1.1460   -0.6681 H   0  0  0  0  0  0  0  0  0  0  0  0
   -2.9255   -1.3982    1.0925 H   0  0  0  0  0  0  0  0  0  0  0  0
   -0.1233   -0.7323    0.0101 C   0  0  0  0  0  0  0  0  0  0  0  0
   -1.4102    0.8473    0.8198 H   0  0  0  0  0  0  0  0  0  0  0  0
   -1.3320    0.7618   -0.8254 H   0  0  0  0  0  0  0  0  0  0  0  0
   -0.2503   -1.0226    0.6954 H   0  0  0  0  0  0  0  0  0  0  0  0
    0.8506   -0.0885    0.4418 H   0  0  0  0  0  0  0  0  0  0  0  0
    0.1876   -1.7416   -1.0609 H   0  0  0  0  0  0  0  0  0  0  0  0
  1  3  1  0  0  0  0
  1  2  1  0  0  0  0
  1  5  1  0  0  0  0
  2  8  1  0  0  0  0
  4  1  1  0  0  0  0
  6  9  1  0  0  0  0
  6  2  1  0  0  0  0
  6 10  1  0  0  0  0
  7  2  1  0  0  0  0
  9 13  1  0  0  0  0
  9 12  1  0  0  0  0
 11  6  1  0  0  0  0
 14  9  1  0  0  0  0
M  END
$$$$
