14
butane_opt
C  -3.908531   0.238520   0.007497
C  -2.749999  -0.558087   0.021886
H  -4.847707  -0.463145   0.276115
H  -4.058753   0.984434  -1.008011
H  -3.657485   0.655722   0.754405
C  -1.424034   0.209454   0.053233
H  -2.726489  -1.259874  -0.838648
H  -2.758555  -1.137367   0.962930
C  -0.135620  -0.739421   0.029572
H  -1.442488   0.857182   0.887546
H  -1.448465   0.976275  -0.959267
H  -0.152451  -1.227992   0.824059
H   0.783948  -0.194773   0.137884
H  -0.085596  -1.479748  -0.978722
