butane_opt
 OpenBabel08242015383D

 14 13  0  0  0  0  0  0  0  0999 V2000
   -3.9447    0.2705   -0.0084 C   0  0  0  0  0  0  0  0  0  0  0  0
   -2.6804   -0.6276    0.0704 C   0  0  0  0  0  0  0  0  0  0  0  0
   -4.8498   -0.2991   -0.0493 H   0  0  0  0  0  0  0  0  0  0  0  0
   -3.9641    0.8761   -0.9136 H   0  0  0  0  0  0  0  0  0  0  0  0
   -3.9648    1.0123    0.9031 H   0  0  0  0  0  0  0  0  0  0  0  0
   -1.4070    0.1678    0.0275 C   0  0  0  0  0  0  0  0  0  0  0  0
   -2.6818   -1.2706   -0.7558 H   0  0  0  0  0  0  0  0  0  0  0  0
   -2.7548   -1.3081    1.0048 H   0  0  0  0  0  0  0  0  0  0  0  0
   -0.1726   -0.6784    0.0118 C   0  0  0  0  0  0  0  0  0  0  0  0
   -1.3516    0.8701    0.8962 H   0  0  0  0  0  0  0  0  0  0  0  0
   -1.4190    0.7777   -0.8759 H   0  0  0  0  0  0  0  0  0  0  0  0
   -0.1299   -1.2590    0.8894 H   0  0  0  0  0  0  0  0  0  0  0  0
    0.7299   -0.0761    0.0109 H   0  0  0  0  0  0  0  0  0  0  0  0
   -0.1869   -1.3787   -0.8845 H   0  0  0  0  0  0  0  0  0  0  0  0
  1  2  1  0  0  0  0
  1  5  1  0  0  0  0
  2  8  1  0  0  0  0
  3  1  1  0  0  0  0
  4  1  1  0  0  0  0
  6  2  1  0  0  0  0
  6 10  1  0  0  0  0
  7  2  1  0  0  0  0
  9  6  1  0  0  0  0
  9 12  1  0  0  0  0
 11  6  1  0  0  0  0
 13  9  1  0  0  0  0
 14  9  1  0  0  0  0
M  END
$$$$
