butane_opt
 OpenBabel08242015383D

 14 13  0  0  0  0  0  0  0  0999 V2000
   -3.9267    0.2350    0.1043 C   0  0  0  0  0  0  0  0  0  0  0  0
   -2.7126   -0.5802   -0.0623 C   0  0  0  0  0  0  0  0  0  0  0  0
   -4.8529   -0.4172    0.3284 H   0  0  0  0  0  0  0  0  0  0  0  0
   -4.1145    0.7471   -0.6206 H   0  0  0  0  0  0  0  0  0  0  0  0
   -3.7705    0.9368    1.0789 H   0  0  0  0  0  0  0  0  0  0  0  0
   -1.4087    0.2433   -0.1337 C   0  0  0  0  0  0  0  0  0  0  0  0
   -2.9119   -1.2852   -0.9212 H   0  0  0  0  0  0  0  0  0  0  0  0
   -2.8244   -1.1823    0.7686 H   0  0  0  0  0  0  0  0  0  0  0  0
   -0.1332   -0.7314    0.1513 C   0  0  0  0  0  0  0  0  0  0  0  0
   -1.4728    0.7935    0.6120 H   0  0  0  0  0  0  0  0  0  0  0  0
   -1.3767    1.0645   -1.1551 H   0  0  0  0  0  0  0  0  0  0  0  0
   -0.3104   -1.2632    1.0317 H   0  0  0  0  0  0  0  0  0  0  0  0
    0.7679   -0.2340    0.4904 H   0  0  0  0  0  0  0  0  0  0  0  0
    0.0323   -1.6530   -0.8791 H   0  0  0  0  0  0  0  0  0  0  0  0
  1  3  1  0  0  0  0
  1  5  1  0  0  0  0
  2  1  1  0  0  0  0
  2  8  1  0  0  0  0
  4  1  1  0  0  0  0
  6  2  1  0  0  0  0
  6  9  1  0  0  0  0
  6 10  1  0  0  0  0
  7  2  1  0  0  0  0
  9 13  1  0  0  0  0
  9 12  1  0  0  0  0
 11  6  1  0  0  0  0
 14  9  1  0  0  0  0
M  END
$$$$
