14
butane_opt
C  -3.970117   0.241412   0.050141
C  -2.693963  -0.609481  -0.003020
H  -4.938614  -0.410955   0.142731
H  -3.990820   0.956172  -0.907916
H  -3.922773   0.898308   0.867243
C  -1.405785   0.260514   0.000722
H  -2.754337  -1.565827  -1.021751
H  -2.790182  -1.136804   0.817260
C  -0.121355  -0.711361   0.053220
H  -1.317294   0.951639   0.883167
H  -1.384713   0.759768  -0.863571
H   0.047042  -1.663180   1.213015
H   0.588726  -0.219786  -0.205315
H  -0.240960  -1.219698  -0.659813
