14
butane_opt
C  -3.979628   0.229985   0.088737
C  -2.722711  -0.591028   0.012821
H  -4.872986  -0.387456  -0.515217
H  -3.713665   0.475387  -0.652253
H  -4.107342   1.283156   1.220813
C  -1.398642   0.257433  -0.083909
H  -2.726206  -1.233906  -0.792298
H  -2.642153  -1.327365   0.984321
C  -0.133855  -0.723788   0.076451
H  -1.422429   0.837448   0.629019
H  -1.365472   0.853417  -0.935067
H  -0.055618  -1.487306   1.143765
H   0.735830  -0.235570  -0.019519
H  -0.019285  -1.331745  -0.711153
