14
butane_opt
C  -3.946087   0.246697   0.119810
C  -2.713240  -0.607498  -0.060295
H  -4.799928  -0.351649   0.060879
H  -4.086262   0.651460  -0.651147
H  -3.944918   1.076428   1.100029
C  -1.428557   0.232218  -0.156170
H  -2.867442  -1.248081  -0.832389
H  -2.673272  -1.285754   0.910695
C  -0.113555  -0.711401   0.147555
H  -1.427310   0.795117   0.651696
H  -1.316469   0.839185  -1.046159
H  -0.186362  -1.167793   1.010691
H   0.710217  -0.245754   0.389283
H   0.005129  -1.464255  -0.755663
