butane_opt
 OpenBabel08242015383D

 14 13  0  0  0  0  0  0  0  0999 V2000
   -3.9058    0.2200    0.0584 C   0  0  0  0  0  0  0  0  0  0  0  0
   -2.7117   -0.5710    0.0513 C   0  0  0  0  0  0  0  0  0  0  0  0
   -4.8444   -0.4866   -0.4545 H   0  0  0  0  0  0  0  0  0  0  0  0
   -3.6807    0.5357   -0.6939 H   0  0  0  0  0  0  0  0  0  0  0  0
   -4.0480    1.2292    1.1066 H   0  0  0  0  0  0  0  0  0  0  0  0
   -1.4487    0.2139   -0.0293 C   0  0  0  0  0  0  0  0  0  0  0  0
   -2.6481   -1.1824   -0.8718 H   0  0  0  0  0  0  0  0  0  0  0  0
   -2.6266   -1.0848    0.8212 H   0  0  0  0  0  0  0  0  0  0  0  0
   -0.1624   -0.7437    0.0395 C   0  0  0  0  0  0  0  0  0  0  0  0
   -1.3496    0.7914    0.7503 H   0  0  0  0  0  0  0  0  0  0  0  0
   -1.6734    1.0049   -1.0047 H   0  0  0  0  0  0  0  0  0  0  0  0
   -0.1288   -1.5221    1.0909 H   0  0  0  0  0  0  0  0  0  0  0  0
    0.8670   -0.0313   -0.0285 H   0  0  0  0  0  0  0  0  0  0  0  0
   -0.1347   -1.1777   -0.6376 H   0  0  0  0  0  0  0  0  0  0  0  0
  1  5  1  0  0  0  0
  2  1  1  0  0  0  0
  2  8  1  0  0  0  0
  3  1  1  0  0  0  0
  4  1  1  0  0  0  0
  6  9  1  0  0  0  0
  6  2  1  0  0  0  0
  6 10  1  0  0  0  0
  7  2  1  0  0  0  0
  9 12  1  0  0  0  0
 11  6  1  0  0  0  0
 13  9  1  0  0  0  0
 14  9  1  0  0  0  0
M  END
$$$$
