14
butane_opt
C  -3.943795   0.270260   0.026803
C  -2.688409  -0.619766   0.041426
H  -4.873937  -0.342051  -0.008204
H  -3.967288   0.857114  -0.845874
H  -3.976288   0.927887   0.872700
C  -1.407435   0.185243  -0.003818
H  -2.735875  -1.277012  -0.815621
H  -2.631410  -1.247261   0.937251
C  -0.170705  -0.691371   0.037652
H  -1.392216   0.820203   0.810925
H  -1.358800   0.817336  -0.907219
H  -0.207285  -1.245514   0.914122
H   0.773029  -0.091991   0.095118
H  -0.124729  -1.427576  -0.851829
