butane_opt
 OpenBabel08242015383D

 14 13  0  0  0  0  0  0  0  0999 V2000
   -3.9135    0.2878   -0.1210 C   0  0  0  0  0  0  0  0  0  0  0  0
   -2.6757   -0.6410    0.1620 C   0  0  0  0  0  0  0  0  0  0  0  0
   -4.9214   -0.3382   -0.2547 H   0  0  0  0  0  0  0  0  0  0  0  0
   -3.8685    0.7988   -0.9002 H   0  0  0  0  0  0  0  0  0  0  0  0
   -4.0714    1.0114    0.7650 H   0  0  0  0  0  0  0  0  0  0  0  0
   -1.4071    0.1508    0.1386 C   0  0  0  0  0  0  0  0  0  0  0  0
   -2.6524   -1.0494   -0.5303 H   0  0  0  0  0  0  0  0  0  0  0  0
   -2.6833   -1.4115    1.1920 H   0  0  0  0  0  0  0  0  0  0  0  0
   -0.1881   -0.6633   -0.0664 C   0  0  0  0  0  0  0  0  0  0  0  0
   -1.3676    0.9665    1.0624 H   0  0  0  0  0  0  0  0  0  0  0  0
   -1.4842    0.6036   -0.6743 H   0  0  0  0  0  0  0  0  0  0  0  0
    0.0068   -1.2199    0.7166 H   0  0  0  0  0  0  0  0  0  0  0  0
    0.6166   -0.1034   -0.3877 H   0  0  0  0  0  0  0  0  0  0  0  0
   -0.3793   -1.3627   -0.9281 H   0  0  0  0  0  0  0  0  0  0  0  0
  1  2  1  0  0  0  0
  1  5  1  0  0  0  0
  2  8  1  0  0  0  0
  3  1  1  0  0  0  0
  4  1  1  0  0  0  0
  6  2  1  0  0  0  0
  6 10  1  0  0  0  0
  7  2  1  0  0  0  0
  9  6  1  0  0  0  0
  9 12  1  0  0  0  0
 11  6  1  0  0  0  0
 13  9  1  0  0  0  0
 14  9  1  0  0  0  0
M  END
$$$$
