14
butane_opt
C  -3.934293   0.244106   0.042217
C  -2.728395  -0.608615   0.002859
H  -4.939712  -0.378826  -0.184708
H  -3.944341   0.527194  -0.689138
H  -4.169908   1.213416   1.110251
C  -1.394743   0.242565  -0.038986
H  -2.936529  -1.194848  -0.707416
H  -2.678386  -1.454700   1.030095
C  -0.104732  -0.730896   0.062219
H  -1.570780   0.918871   0.831482
H  -1.437917   1.004506  -1.008166
H  -0.076087  -1.320143   0.921001
H   0.765802  -0.253895   0.052091
H  -0.060104  -1.315347  -0.714530
