14
butane_opt
C  -3.935021   0.239457  -0.018465
C  -2.750337  -0.581868   0.066340
H  -4.978645  -0.425417   0.332676
H  -4.016973   1.153135  -1.108191
H  -3.901758   0.499977   0.614843
C  -1.434427   0.220520   0.054764
H  -2.766602  -1.353249  -0.804438
H  -2.672013  -1.126893   0.928971
C  -0.084740  -0.732707   0.015913
H  -1.404147   1.017673   0.980525
H  -1.518436   0.889352  -0.799006
H  -0.043262  -1.108490   0.740480
H   0.846937  -0.180434   0.033403
H  -0.094364  -1.600670  -0.967397
