14
butane_opt
C  -3.890781   0.221833  -0.108216
C  -2.669586  -0.598467   0.194550
H  -4.860382  -0.437026  -0.300200
H  -3.638989   0.717263  -0.906844
H  -4.113809   1.019627   0.832489
C  -1.448675   0.249455   0.088945
H  -2.777335  -1.080955  -0.495003
H  -2.820144  -1.200556   1.105139
C  -0.194088  -0.734262  -0.085075
H  -1.342198   1.026959   1.124392
H  -1.659349   0.780301  -0.716352
H  -0.045874  -1.375349   0.746841
H   0.765645  -0.131090  -0.095876
H  -0.097011  -1.465103  -0.929613
