14
butane_opt
C  -3.918207   0.239192   0.039335
C  -2.731131  -0.611738  -0.041990
H  -4.862975  -0.368936   0.532373
H  -4.168977   1.088843  -0.903085
H  -3.550833   0.736001   0.899974
C  -1.407569   0.242876  -0.012847
H  -2.924739  -1.333933  -0.946511
H  -2.716482  -1.140328   0.758566
C  -0.151462  -0.724015   0.088157
H  -1.476173   0.951320   0.890693
H  -1.453506   0.921928  -1.010630
H  -0.211631  -1.383693   1.002725
H   0.737423  -0.173172   0.073644
H   0.088465  -1.518102  -0.770575
