butane_opt
 OpenBabel08242015383D

 14 13  0  0  0  0  0  0  0  0999 V2000
   -3.9510    0.2545   -0.0030 C   0  0  0  0  0  0  0  0  0  0  0  0
   -2.7052   -0.6057    0.0500 C   0  0  0  0  0  0  0  0  0  0  0  0
   -4.8868   -0.3488    0.0702 H   0  0  0  0  0  0  0  0  0  0  0  0
   -3.9357    0.9308   -0.9556 H   0  0  0  0  0  0  0  0  0  0  0  0
   -3.9346    0.8813    0.8054 H   0  0  0  0  0  0  0  0  0  0  0  0
   -1.3988    0.2032    0.0411 C   0  0  0  0  0  0  0  0  0  0  0  0
   -2.7654   -1.2649   -0.8032 H   0  0  0  0  0  0  0  0  0  0  0  0
   -2.7206   -1.2279    0.9643 H   0  0  0  0  0  0  0  0  0  0  0  0
   -0.1475   -0.7077    0.0131 C   0  0  0  0  0  0  0  0  0  0  0  0
   -1.3865    0.9220    0.9255 H   0  0  0  0  0  0  0  0  0  0  0  0
   -1.4359    0.7325   -0.7793 H   0  0  0  0  0  0  0  0  0  0  0  0
   -0.1052   -1.3683    0.9353 H   0  0  0  0  0  0  0  0  0  0  0  0
    0.7613   -0.1125   -0.1134 H   0  0  0  0  0  0  0  0  0  0  0  0
   -0.1789   -1.3478   -0.8310 H   0  0  0  0  0  0  0  0  0  0  0  0
  1  2  1  0  0  0  0
  1  3  1  0  0  0  0
  1  5  1  0  0  0  0
  2  8  1  0  0  0  0
  4  1  1  0  0  0  0
  6  2  1  0  0  0  0
  6 10  1  0  0  0  0
  7  2  1  0  0  0  0
  9  6  1  0  0  0  0
  9 12  1  0  0  0  0
 11  6  1  0  0  0  0
 13  9  1  0  0  0  0
 14  9  1  0  0  0  0
M  END
$$$$
