14
butane_opt
C  -3.933847   0.317909   0.064726
C  -2.673193  -0.660442  -0.044572
H  -4.829784  -0.286276  -0.132055
H  -4.019165   0.716273  -0.742284
H  -3.867763   1.111312   1.083447
C  -1.408701   0.150944   0.009335
H  -2.669241  -1.581275  -0.954171
H  -2.680968  -1.205422   0.795753
C  -0.221316  -0.669702   0.093613
H  -1.250301   0.695683   0.813819
H  -1.326548   0.964444  -1.046927
H   0.068298  -1.512564   1.150638
H   0.735781  -0.042969  -0.450558
H  -0.369343  -0.954197  -0.507518
