14
butane_opt
C  -3.910959   0.243765   0.115454
C  -2.699770  -0.599474  -0.072363
H  -4.783964  -0.345049   0.382023
H  -4.026715   1.082316  -0.932589
H  -3.823760   0.553372   0.784767
C  -1.436030   0.243937  -0.046479
H  -2.732045  -1.450165  -1.038231
H  -2.612414  -1.123432   0.672154
C  -0.173430  -0.727931   0.104746
H  -1.565439   0.870377   0.777135
H  -1.372475   0.805313  -0.858189
H  -0.107402  -1.388415   1.023909
H   0.771223  -0.155528   0.108588
H  -0.125337  -1.220031  -0.706927
