14
butane_opt
C  -3.909113   0.266353   0.102688
C  -2.707523  -0.585616  -0.081282
H  -4.971721  -0.501692   0.390468
H  -4.228645   0.842193  -0.721716
H  -3.571707   0.816759   0.918633
C  -1.417373   0.185821  -0.079970
H  -2.805135  -1.401394  -0.986487
H  -2.708789  -1.024456   0.703718
C  -0.163542  -0.717080   0.127306
H  -1.536107   0.891886   0.729664
H  -1.284522   0.989856  -1.072183
H  -0.236601  -1.363144   1.119672
H   0.774109  -0.204754   0.139373
H  -0.067665  -1.336450  -0.617946
