butane_opt
 OpenBabel08242015383D

 14 13  0  0  0  0  0  0  0  0999 V2000
   -3.9576    0.2170   -0.0552 C   0  0  0  0  0  0  0  0  0  0  0  0
   -2.7241   -0.5676    0.0983 C   0  0  0  0  0  0  0  0  0  0  0  0
   -4.8591   -0.3908   -0.1575 H   0  0  0  0  0  0  0  0  0  0  0  0
   -3.9671    0.9089   -0.9554 H   0  0  0  0  0  0  0  0  0  0  0  0
   -4.0578    0.8440    0.7040 H   0  0  0  0  0  0  0  0  0  0  0  0
   -1.4008    0.2292    0.1181 C   0  0  0  0  0  0  0  0  0  0  0  0
   -2.7368   -1.1671   -0.7401 H   0  0  0  0  0  0  0  0  0  0  0  0
   -2.8887   -1.3026    1.0888 H   0  0  0  0  0  0  0  0  0  0  0  0
   -0.1025   -0.7116   -0.0668 C   0  0  0  0  0  0  0  0  0  0  0  0
   -1.2564    1.0703    1.1603 H   0  0  0  0  0  0  0  0  0  0  0  0
   -1.6828    0.7351   -0.6760 H   0  0  0  0  0  0  0  0  0  0  0  0
    0.0195   -1.6248    1.0558 H   0  0  0  0  0  0  0  0  0  0  0  0
    0.7786   -0.1983   -0.3236 H   0  0  0  0  0  0  0  0  0  0  0  0
   -0.1428   -1.3578   -0.8408 H   0  0  0  0  0  0  0  0  0  0  0  0
  1  2  1  0  0  0  0
  1  5  1  0  0  0  0
  2  6  1  0  0  0  0
  2  8  1  0  0  0  0
  3  1  1  0  0  0  0
  4  1  1  0  0  0  0
  6 10  1  0  0  0  0
  7  2  1  0  0  0  0
  9  6  1  0  0  0  0
  9 12  1  0  0  0  0
 11  6  1  0  0  0  0
 13  9  1  0  0  0  0
 14  9  1  0  0  0  0
M  END
$$$$
