14
butane_opt
C  -3.951179   0.263253   0.015064
C  -2.694240  -0.618338   0.024997
H  -4.851806  -0.308795   0.073466
H  -3.975792   0.841144  -0.872256
H  -3.931903   0.918013   0.862696
C  -1.404870   0.196045   0.017090
H  -2.727059  -1.281903  -0.828358
H  -2.742053  -1.270216   0.934304
C  -0.155939  -0.700057   0.039510
H  -1.381095   0.917986   0.899433
H  -1.396518   0.813272  -0.840708
H  -0.068393  -1.367924   0.976238
H   0.734720  -0.120271  -0.103979
H  -0.208994  -1.306115  -0.812440
