14
butane_opt
C  -3.968170   0.254998   0.096091
C  -2.682712  -0.650001   0.013224
H  -4.937345  -0.348137  -0.016378
H  -4.105983   0.809940  -0.774736
H  -3.948492   1.088033   1.107610
C  -1.402411   0.229226  -0.118935
H  -2.859502  -1.391442  -0.950684
H  -2.730146  -1.076008   0.808910
C  -0.129840  -0.714662   0.095281
H  -1.555674   0.736858   0.643266
H  -1.321136   0.980272  -1.065400
H  -0.274292  -1.187090   0.968772
H   0.753074  -0.071740   0.403000
H   0.166537  -1.466071  -0.726864
