14
butane_opt
C  -3.930907   0.306090  -0.048627
C  -2.693074  -0.660842   0.116013
H  -4.721062  -0.271801   0.231453
H  -4.122333   1.027762  -1.003992
H  -4.077962   0.839368   0.627192
C  -1.384020   0.174186   0.036909
H  -2.599687  -1.236801  -0.645629
H  -2.766746  -1.422650   1.132003
C  -0.185976  -0.690561  -0.011654
H  -1.196217   0.762089   0.910351
H  -1.467498   0.722773  -0.779353
H  -0.399044  -0.777358   0.549178
H   0.805284   0.028500   0.372504
H  -0.141633  -1.674268  -1.106108
