butane_opt
 OpenBabel08242015383D

 14 13  0  0  0  0  0  0  0  0999 V2000
   -3.9387    0.2552    0.0290 C   0  0  0  0  0  0  0  0  0  0  0  0
   -2.6940   -0.5989    0.0264 C   0  0  0  0  0  0  0  0  0  0  0  0
   -4.9148   -0.3985   -0.0168 H   0  0  0  0  0  0  0  0  0  0  0  0
   -3.9077    0.7827   -0.7996 H   0  0  0  0  0  0  0  0  0  0  0  0
   -3.9670    1.0197    0.9791 H   0  0  0  0  0  0  0  0  0  0  0  0
   -1.4075    0.1963   -0.0133 C   0  0  0  0  0  0  0  0  0  0  0  0
   -2.7757   -1.2410   -0.8134 H   0  0  0  0  0  0  0  0  0  0  0  0
   -2.6942   -1.2645    0.9562 H   0  0  0  0  0  0  0  0  0  0  0  0
   -0.1659   -0.7083    0.0477 C   0  0  0  0  0  0  0  0  0  0  0  0
   -1.4209    0.8569    0.8053 H   0  0  0  0  0  0  0  0  0  0  0  0
   -1.3775    0.8530   -0.9398 H   0  0  0  0  0  0  0  0  0  0  0  0
   -0.1439   -1.3218    0.9434 H   0  0  0  0  0  0  0  0  0  0  0  0
    0.7628   -0.1171    0.0665 H   0  0  0  0  0  0  0  0  0  0  0  0
   -0.1012   -1.3825   -0.8096 H   0  0  0  0  0  0  0  0  0  0  0  0
  1  5  1  0  0  0  0
  2  1  1  0  0  0  0
  2  8  1  0  0  0  0
  3  1  1  0  0  0  0
  4  1  1  0  0  0  0
  6  2  1  0  0  0  0
  6  9  1  0  0  0  0
  6 10  1  0  0  0  0
  7  2  1  0  0  0  0
  9 13  1  0  0  0  0
  9 12  1  0  0  0  0
 11  6  1  0  0  0  0
 14  9  1  0  0  0  0
M  END
$$$$
