butane_opt
 OpenBabel08242015383D

 14 12  0  0  0  0  0  0  0  0999 V2000
   -3.9333    0.3030   -0.0130 C   0  0  0  0  0  0  0  0  0  0  0  0
   -2.6752   -0.6449    0.0951 C   0  0  0  0  0  0  0  0  0  0  0  0
   -4.8424   -0.2979    0.0788 H   0  0  0  0  0  0  0  0  0  0  0  0
   -3.9986    1.0437   -1.0170 H   0  0  0  0  0  0  0  0  0  0  0  0
   -4.0321    0.8380    0.7165 H   0  0  0  0  0  0  0  0  0  0  0  0
   -1.3646    0.1444    0.0316 C   0  0  0  0  0  0  0  0  0  0  0  0
   -2.7592   -1.2970   -0.7339 H   0  0  0  0  0  0  0  0  0  0  0  0
   -2.5883   -1.3858    1.1344 H   0  0  0  0  0  0  0  0  0  0  0  0
   -0.2161   -0.6504   -0.0062 C   0  0  0  0  0  0  0  0  0  0  0  0
   -1.3749    0.6824    0.8189 H   0  0  0  0  0  0  0  0  0  0  0  0
   -1.3682    0.8647   -0.9268 H   0  0  0  0  0  0  0  0  0  0  0  0
   -0.2840   -0.8756    0.5896 H   0  0  0  0  0  0  0  0  0  0  0  0
    0.6681   -0.1038    0.4874 H   0  0  0  0  0  0  0  0  0  0  0  0
   -0.1690   -1.7621   -1.0575 H   0  0  0  0  0  0  0  0  0  0  0  0
  1  3  1  0  0  0  0
  1  2  1  0  0  0  0
  1  5  1  0  0  0  0
  2  8  1  0  0  0  0
  4  1  1  0  0  0  0
  6  2  1  0  0  0  0
  6 10  1  0  0  0  0
  7  2  1  0  0  0  0
  9  6  1  0  0  0  0
  9 13  1  0  0  0  0
  9 12  1  0  0  0  0
 11  6  1  0  0  0  0
M  RAD  2   9   2  14   2
M  END
$$$$
