14
butane_opt
C  -3.914486   0.239011   0.081897
C  -2.687901  -0.582897  -0.025696
H  -4.902160  -0.384035  -0.146766
H  -3.918450   0.696984  -0.744693
H  -3.916513   0.925511   0.997219
C  -1.408875   0.236042   0.000294
H  -2.704438  -1.360498  -0.961788
H  -2.844469  -1.074251   0.678790
C  -0.174078  -0.714624   0.074661
H  -1.405480   0.842114   0.755170
H  -1.403355   0.877958  -0.908130
H  -0.036659  -1.826232   1.282751
H   0.594303  -0.203054  -0.359285
H  -0.245113  -1.117761  -0.670371
