butane_opt
 OpenBabel08242015383D

 14 13  0  0  0  0  0  0  0  0999 V2000
   -3.9676    0.2430    0.1321 C   0  0  0  0  0  0  0  0  0  0  0  0
   -2.7278   -0.5857   -0.1040 C   0  0  0  0  0  0  0  0  0  0  0  0
   -4.7895   -0.3065    0.2888 H   0  0  0  0  0  0  0  0  0  0  0  0
   -4.0557    0.9713   -0.8703 H   0  0  0  0  0  0  0  0  0  0  0  0
   -3.7673    0.7801    0.8871 H   0  0  0  0  0  0  0  0  0  0  0  0
   -1.4067    0.1899   -0.0486 C   0  0  0  0  0  0  0  0  0  0  0  0
   -2.9008   -1.4334   -1.1072 H   0  0  0  0  0  0  0  0  0  0  0  0
   -2.6229   -1.1514    0.7209 H   0  0  0  0  0  0  0  0  0  0  0  0
   -0.1169   -0.6943    0.1218 C   0  0  0  0  0  0  0  0  0  0  0  0
   -1.5167    0.8923    0.7638 H   0  0  0  0  0  0  0  0  0  0  0  0
   -1.4534    0.8843   -1.0377 H   0  0  0  0  0  0  0  0  0  0  0  0
   -0.0380   -1.5420    1.2011 H   0  0  0  0  0  0  0  0  0  0  0  0
    0.8042   -0.1537    0.0267 H   0  0  0  0  0  0  0  0  0  0  0  0
   -0.0835   -1.2230   -0.6356 H   0  0  0  0  0  0  0  0  0  0  0  0
  1  3  1  0  0  0  0
  1  5  1  0  0  0  0
  2  6  1  0  0  0  0
  2  1  1  0  0  0  0
  2  8  1  0  0  0  0
  4  1  1  0  0  0  0
  6  9  1  0  0  0  0
  6 10  1  0  0  0  0
  7  2  1  0  0  0  0
  9 12  1  0  0  0  0
 11  6  1  0  0  0  0
 13  9  1  0  0  0  0
 14  9  1  0  0  0  0
M  END
$$$$
