butane_opt
 OpenBabel08242015383D

 14 13  0  0  0  0  0  0  0  0999 V2000
   -3.9272    0.2390    0.0460 C   0  0  0  0  0  0  0  0  0  0  0  0
   -2.7571   -0.6041   -0.0446 C   0  0  0  0  0  0  0  0  0  0  0  0
   -4.8675   -0.2876    0.4205 H   0  0  0  0  0  0  0  0  0  0  0  0
   -4.1204    0.9711   -0.9062 H   0  0  0  0  0  0  0  0  0  0  0  0
   -3.8841    0.8559    0.8888 H   0  0  0  0  0  0  0  0  0  0  0  0
   -1.3985    0.2197   -0.0313 C   0  0  0  0  0  0  0  0  0  0  0  0
   -2.8108   -1.2133   -0.8378 H   0  0  0  0  0  0  0  0  0  0  0  0
   -2.7632   -1.3786    0.9233 H   0  0  0  0  0  0  0  0  0  0  0  0
   -0.1280   -0.7245    0.0953 C   0  0  0  0  0  0  0  0  0  0  0  0
   -1.4358    0.9898    0.9188 H   0  0  0  0  0  0  0  0  0  0  0  0
   -1.3461    0.8501   -0.8831 H   0  0  0  0  0  0  0  0  0  0  0  0
    0.0476   -1.2206    0.8333 H   0  0  0  0  0  0  0  0  0  0  0  0
    0.6830   -0.2236    0.0935 H   0  0  0  0  0  0  0  0  0  0  0  0
    0.0106   -1.3810   -0.8034 H   0  0  0  0  0  0  0  0  0  0  0  0
  1  3  1  0  0  0  0
  1  5  1  0  0  0  0
  2  6  1  0  0  0  0
  2  1  1  0  0  0  0
  2  8  1  0  0  0  0
  4  1  1  0  0  0  0
  6  9  1  0  0  0  0
  6 10  1  0  0  0  0
  7  2  1  0  0  0  0
  9 12  1  0  0  0  0
 11  6  1  0  0  0  0
 13  9  1  0  0  0  0
 14  9  1  0  0  0  0
M  END
$$$$
