butane_opt
 OpenBabel08242015383D

 14 12  0  0  0  0  0  0  0  0999 V2000
   -3.9145    0.2390    0.0819 C   0  0  0  0  0  0  0  0  0  0  0  0
   -2.6879   -0.5829   -0.0257 C   0  0  0  0  0  0  0  0  0  0  0  0
   -4.9022   -0.3840   -0.1468 H   0  0  0  0  0  0  0  0  0  0  0  0
   -3.9184    0.6970   -0.7447 H   0  0  0  0  0  0  0  0  0  0  0  0
   -3.9165    0.9255    0.9972 H   0  0  0  0  0  0  0  0  0  0  0  0
   -1.4089    0.2360    0.0003 C   0  0  0  0  0  0  0  0  0  0  0  0
   -2.7044   -1.3605   -0.9618 H   0  0  0  0  0  0  0  0  0  0  0  0
   -2.8445   -1.0743    0.6788 H   0  0  0  0  0  0  0  0  0  0  0  0
   -0.1741   -0.7146    0.0747 C   0  0  0  0  0  0  0  0  0  0  0  0
   -1.4055    0.8421    0.7552 H   0  0  0  0  0  0  0  0  0  0  0  0
   -1.4034    0.8780   -0.9081 H   0  0  0  0  0  0  0  0  0  0  0  0
   -0.0367   -1.8262    1.2828 H   0  0  0  0  0  0  0  0  0  0  0  0
    0.5943   -0.2031   -0.3593 H   0  0  0  0  0  0  0  0  0  0  0  0
   -0.2451   -1.1178   -0.6704 H   0  0  0  0  0  0  0  0  0  0  0  0
  1  5  1  0  0  0  0
  2  6  1  0  0  0  0
  2  1  1  0  0  0  0
  2  8  1  0  0  0  0
  3  1  1  0  0  0  0
  4  1  1  0  0  0  0
  6  9  1  0  0  0  0
  6 10  1  0  0  0  0
  7  2  1  0  0  0  0
 11  6  1  0  0  0  0
 13  9  1  0  0  0  0
 14  9  1  0  0  0  0
M  RAD  2   9   2  12   2
M  END
$$$$
