14
butane_opt
C  -3.935212   0.255135   0.003125
C  -2.697519  -0.606102   0.068130
H  -4.825056  -0.331625  -0.103253
H  -3.839787   0.789416  -0.836538
H  -4.067562   0.978145   0.871802
C  -1.405937   0.196186   0.015379
H  -2.704892  -1.216982  -0.739826
H  -2.760772  -1.279808   0.986445
C  -0.167079  -0.704421   0.013773
H  -1.406479   0.897784   0.897512
H  -1.440639   0.783182  -0.842639
H  -0.118061  -1.330898   0.899888
H   0.740669  -0.084810  -0.015305
H  -0.135692  -1.369054  -0.872132
