butane_opt
 OpenBabel08242015383D

 14 13  0  0  0  0  0  0  0  0999 V2000
   -3.9703    0.2747   -0.0686 C   0  0  0  0  0  0  0  0  0  0  0  0
   -2.7003   -0.6363    0.0931 C   0  0  0  0  0  0  0  0  0  0  0  0
   -4.6775   -0.1549   -0.0585 H   0  0  0  0  0  0  0  0  0  0  0  0
   -3.8133    0.9476   -0.9628 H   0  0  0  0  0  0  0  0  0  0  0  0
   -4.1962    0.9931    0.7436 H   0  0  0  0  0  0  0  0  0  0  0  0
   -1.3925    0.1754    0.1275 C   0  0  0  0  0  0  0  0  0  0  0  0
   -2.8038   -1.3210   -0.7415 H   0  0  0  0  0  0  0  0  0  0  0  0
   -2.6859   -1.4642    1.0801 H   0  0  0  0  0  0  0  0  0  0  0  0
   -0.1661   -0.6799   -0.0677 C   0  0  0  0  0  0  0  0  0  0  0  0
   -1.2190    0.9892    1.1199 H   0  0  0  0  0  0  0  0  0  0  0  0
   -1.3632    0.6309   -0.5887 H   0  0  0  0  0  0  0  0  0  0  0  0
    0.0206   -1.4899    0.9799 H   0  0  0  0  0  0  0  0  0  0  0  0
    0.8038   -0.0700   -0.3973 H   0  0  0  0  0  0  0  0  0  0  0  0
   -0.3600   -1.0919   -0.7308 H   0  0  0  0  0  0  0  0  0  0  0  0
  1  3  1  0  0  0  0
  1  2  1  0  0  0  0
  1  5  1  0  0  0  0
  2  6  1  0  0  0  0
  2  8  1  0  0  0  0
  4  1  1  0  0  0  0
  6 10  1  0  0  0  0
  7  2  1  0  0  0  0
  9  6  1  0  0  0  0
  9 12  1  0  0  0  0
 11  6  1  0  0  0  0
 13  9  1  0  0  0  0
 14  9  1  0  0  0  0
M  END
$$$$
