14
butane_opt
C  -3.989216   0.303283   0.087775
C  -2.689241  -0.642270  -0.047623
H  -4.879673  -0.344768   0.184369
H  -4.170017   0.792330  -0.693403
H  -3.975608   0.998552   1.032755
C  -1.378091   0.138045  -0.096595
H  -2.655408  -1.305422  -0.818861
H  -2.552713  -1.370441   0.936130
C  -0.157796  -0.672221   0.111356
H  -1.534757   0.909322   0.753542
H  -1.156128   0.880076  -1.062350
H  -0.359576  -1.158944   0.880318
H   0.802323   0.016756   0.281619
H   0.032672  -1.412117  -0.735760
