butane_opt
 OpenBabel08242015383D

 14 13  0  0  0  0  0  0  0  0999 V2000
   -3.9472    0.3033    0.0649 C   0  0  0  0  0  0  0  0  0  0  0  0
   -2.6865   -0.6558   -0.0734 C   0  0  0  0  0  0  0  0  0  0  0  0
   -4.7945   -0.3156    0.5768 H   0  0  0  0  0  0  0  0  0  0  0  0
   -4.2255    1.1432   -0.9394 H   0  0  0  0  0  0  0  0  0  0  0  0
   -3.7387    0.7863    0.8494 H   0  0  0  0  0  0  0  0  0  0  0  0
   -1.3746    0.1269   -0.0382 C   0  0  0  0  0  0  0  0  0  0  0  0
   -2.7841   -1.2493   -0.8959 H   0  0  0  0  0  0  0  0  0  0  0  0
   -2.5485   -1.1372    0.7927 H   0  0  0  0  0  0  0  0  0  0  0  0
   -0.1759   -0.6672    0.0966 C   0  0  0  0  0  0  0  0  0  0  0  0
   -1.5872    0.9559    0.8815 H   0  0  0  0  0  0  0  0  0  0  0  0
   -1.2506    0.6301   -0.8671 H   0  0  0  0  0  0  0  0  0  0  0  0
   -0.3651   -1.2934    1.0737 H   0  0  0  0  0  0  0  0  0  0  0  0
    0.8279    0.0458    0.0554 H   0  0  0  0  0  0  0  0  0  0  0  0
   -0.3475   -1.3138   -0.7228 H   0  0  0  0  0  0  0  0  0  0  0  0
  1  3  1  0  0  0  0
  1  5  1  0  0  0  0
  2  6  1  0  0  0  0
  2  1  1  0  0  0  0
  2  8  1  0  0  0  0
  4  1  1  0  0  0  0
  6  9  1  0  0  0  0
  6 10  1  0  0  0  0
  7  2  1  0  0  0  0
  9 12  1  0  0  0  0
 11  6  1  0  0  0  0
 13  9  1  0  0  0  0
 14  9  1  0  0  0  0
M  END
$$$$
