butane_opt
 OpenBabel08242015383D

 14 13  0  0  0  0  0  0  0  0999 V2000
   -3.9381    0.2271   -0.0569 C   0  0  0  0  0  0  0  0  0  0  0  0
   -2.7105   -0.5890    0.1626 C   0  0  0  0  0  0  0  0  0  0  0  0
   -4.8335   -0.3999   -0.3603 H   0  0  0  0  0  0  0  0  0  0  0  0
   -3.5231    0.6660   -0.8586 H   0  0  0  0  0  0  0  0  0  0  0  0
   -4.1375    1.0233    0.8227 H   0  0  0  0  0  0  0  0  0  0  0  0
   -1.4140    0.2534    0.0369 C   0  0  0  0  0  0  0  0  0  0  0  0
   -2.7411   -1.0604   -0.5621 H   0  0  0  0  0  0  0  0  0  0  0  0
   -2.6839   -1.2886    1.1103 H   0  0  0  0  0  0  0  0  0  0  0  0
   -0.1678   -0.7540   -0.0264 C   0  0  0  0  0  0  0  0  0  0  0  0
   -1.2158    1.0467    1.0362 H   0  0  0  0  0  0  0  0  0  0  0  0
   -1.4856    0.7476   -0.8017 H   0  0  0  0  0  0  0  0  0  0  0  0
   -0.0597   -1.2347    0.7413 H   0  0  0  0  0  0  0  0  0  0  0  0
    0.6241   -0.2197   -0.0525 H   0  0  0  0  0  0  0  0  0  0  0  0
   -0.1812   -1.4405   -1.0181 H   0  0  0  0  0  0  0  0  0  0  0  0
  1  2  1  0  0  0  0
  1  5  1  0  0  0  0
  2  8  1  0  0  0  0
  3  1  1  0  0  0  0
  4  1  1  0  0  0  0
  6  2  1  0  0  0  0
  6 10  1  0  0  0  0
  7  2  1  0  0  0  0
  9  6  1  0  0  0  0
  9 12  1  0  0  0  0
 11  6  1  0  0  0  0
 13  9  1  0  0  0  0
 14  9  1  0  0  0  0
M  END
$$$$
