butane_opt
 OpenBabel08242015383D

 14 11  0  0  0  0  0  0  0  0999 V2000
   -3.9506    0.2311   -0.0436 C   0  0  0  0  0  0  0  0  0  0  0  0
   -2.7217   -0.6025    0.1313 C   0  0  0  0  0  0  0  0  0  0  0  0
   -4.8182   -0.3342   -0.0515 H   0  0  0  0  0  0  0  0  0  0  0  0
   -3.9752    1.0482   -1.0274 H   0  0  0  0  0  0  0  0  0  0  0  0
   -4.1079    0.8979    0.8412 H   0  0  0  0  0  0  0  0  0  0  0  0
   -1.3742    0.2244    0.0128 C   0  0  0  0  0  0  0  0  0  0  0  0
   -2.7663   -1.1349   -0.4693 H   0  0  0  0  0  0  0  0  0  0  0  0
   -2.8999   -1.3343    1.1182 H   0  0  0  0  0  0  0  0  0  0  0  0
   -0.1434   -0.7174   -0.0078 C   0  0  0  0  0  0  0  0  0  0  0  0
   -1.4452    0.9370    0.9037 H   0  0  0  0  0  0  0  0  0  0  0  0
   -1.4729    0.7206   -0.7748 H   0  0  0  0  0  0  0  0  0  0  0  0
   -0.1011   -0.9395    0.5296 H   0  0  0  0  0  0  0  0  0  0  0  0
    0.7833   -0.1341    0.2742 H   0  0  0  0  0  0  0  0  0  0  0  0
    0.0603   -1.8122   -1.0806 H   0  0  0  0  0  0  0  0  0  0  0  0
  1  2  1  0  0  0  0
  1  5  1  0  0  0  0
  2  8  1  0  0  0  0
  3  1  1  0  0  0  0
  4  1  1  0  0  0  0
  6  2  1  0  0  0  0
  6 10  1  0  0  0  0
  7  2  1  0  0  0  0
  9  6  1  0  0  0  0
  9 13  1  0  0  0  0
 11  6  1  0  0  0  0
M  RAD  3   9   3  12   2  14   2
M  END
$$$$
