butane_opt
 OpenBabel08242015383D

 14 13  0  0  0  0  0  0  0  0999 V2000
   -3.9214    0.2154   -0.0931 C   0  0  0  0  0  0  0  0  0  0  0  0
   -2.6981   -0.5320    0.2210 C   0  0  0  0  0  0  0  0  0  0  0  0
   -4.9458   -0.4489   -0.2622 H   0  0  0  0  0  0  0  0  0  0  0  0
   -3.5993    0.7636   -0.9965 H   0  0  0  0  0  0  0  0  0  0  0  0
   -4.0256    1.0629    0.8216 H   0  0  0  0  0  0  0  0  0  0  0  0
   -1.4466    0.1815    0.0905 C   0  0  0  0  0  0  0  0  0  0  0  0
   -2.5331   -1.2788   -0.7322 H   0  0  0  0  0  0  0  0  0  0  0  0
   -2.7806   -1.2586    1.1078 H   0  0  0  0  0  0  0  0  0  0  0  0
   -0.1729   -0.7119   -0.0792 C   0  0  0  0  0  0  0  0  0  0  0  0
   -1.3161    0.8712    0.9225 H   0  0  0  0  0  0  0  0  0  0  0  0
   -1.4742    0.8526   -0.8006 H   0  0  0  0  0  0  0  0  0  0  0  0
   -0.0631   -1.2170    0.7608 H   0  0  0  0  0  0  0  0  0  0  0  0
    0.7136   -0.1462    0.0351 H   0  0  0  0  0  0  0  0  0  0  0  0
   -0.1172   -1.5344   -1.0702 H   0  0  0  0  0  0  0  0  0  0  0  0
  1  2  1  0  0  0  0
  1  5  1  0  0  0  0
  2  8  1  0  0  0  0
  3  1  1  0  0  0  0
  4  1  1  0  0  0  0
  6  2  1  0  0  0  0
  6 10  1  0  0  0  0
  7  2  1  0  0  0  0
  9 13  1  0  0  0  0
  9  6  1  0  0  0  0
  9 12  1  0  0  0  0
 11  6  1  0  0  0  0
 14  9  1  0  0  0  0
M  END
$$$$
