14
butane_opt
C  -3.963960   0.293631  -0.028862
C  -2.706505  -0.631414   0.092711
H  -4.900476  -0.334742   0.171839
H  -4.108207   0.943948  -0.930143
H  -3.993315   0.865938   0.770361
C  -1.386489   0.175380  -0.010456
H  -2.848023  -1.161733  -0.645115
H  -2.695040  -1.581329   1.135717
C  -0.123195  -0.677615   0.010625
H  -1.493037   0.859312   0.875033
H  -1.421483   0.739340  -0.824772
H  -0.178853  -0.847701   0.621464
H   0.850468  -0.060884   0.526520
H  -0.086477  -1.796953  -1.086018
