14
butane_opt
C  -3.958859   0.306803   0.058447
C  -2.673115  -0.647136  -0.037893
H  -4.867561  -0.317442   0.445952
H  -4.179565   1.162021  -1.017156
H  -3.618248   0.739225   0.878624
C  -1.408618   0.139141  -0.015620
H  -2.680465  -1.478605  -1.020621
H  -2.437559  -1.229341   0.817336
C  -0.188010  -0.643252   0.066447
H  -1.384988   0.819021   0.832799
H  -1.441374   0.606078  -0.844537
H  -0.417050  -1.378941   1.035364
H   0.791091   0.016918   0.160359
H  -0.068330  -1.230943  -0.730067
