14
butane_opt
C  -3.930638   0.295189  -0.097260
C  -2.707149  -0.643161   0.166122
H  -4.793027  -0.357626  -0.340233
H  -3.865943   0.811426  -0.955225
H  -3.963065   1.104480   0.799845
C  -1.392370   0.172532   0.134943
H  -2.517236  -1.182860  -0.545977
H  -2.694565  -1.487080   1.167152
C  -0.220639  -0.679755  -0.090022
H  -1.216106   0.905065   1.011423
H  -1.427362   0.733809  -0.752115
H  -0.084251  -1.307006   0.803571
H   0.766909  -0.030303  -0.128641
H  -0.241214  -1.381832  -0.983840
