butane_opt
 OpenBabel08242015383D

 14 13  0  0  0  0  0  0  0  0999 V2000
   -3.9094    0.2371    0.0846 C   0  0  0  0  0  0  0  0  0  0  0  0
   -2.6809   -0.5785   -0.0311 C   0  0  0  0  0  0  0  0  0  0  0  0
   -4.8340   -0.4826   -0.0266 H   0  0  0  0  0  0  0  0  0  0  0  0
   -4.0946    0.7284   -0.7589 H   0  0  0  0  0  0  0  0  0  0  0  0
   -3.7344    1.1155    1.0623 H   0  0  0  0  0  0  0  0  0  0  0  0
   -1.4039    0.2030   -0.0581 C   0  0  0  0  0  0  0  0  0  0  0  0
   -2.7948   -1.2140   -0.9116 H   0  0  0  0  0  0  0  0  0  0  0  0
   -2.7020   -1.2574    0.9133 H   0  0  0  0  0  0  0  0  0  0  0  0
   -0.2029   -0.7079    0.0833 C   0  0  0  0  0  0  0  0  0  0  0  0
   -1.4747    0.8022    0.7590 H   0  0  0  0  0  0  0  0  0  0  0  0
   -1.3019    0.9671   -1.0247 H   0  0  0  0  0  0  0  0  0  0  0  0
   -0.2856   -1.4172    1.0474 H   0  0  0  0  0  0  0  0  0  0  0  0
    0.5890   -0.2531    0.1721 H   0  0  0  0  0  0  0  0  0  0  0  0
    0.0089   -1.3317   -0.7345 H   0  0  0  0  0  0  0  0  0  0  0  0
  1  5  1  0  0  0  0
  2  1  1  0  0  0  0
  2  8  1  0  0  0  0
  3  1  1  0  0  0  0
  4  1  1  0  0  0  0
  6  2  1  0  0  0  0
  6  9  1  0  0  0  0
  6 10  1  0  0  0  0
  7  2  1  0  0  0  0
  9 13  1  0  0  0  0
  9 12  1  0  0  0  0
 11  6  1  0  0  0  0
 14  9  1  0  0  0  0
M  END
$$$$
