butane_opt
 OpenBabel08242015383D

 14 13  0  0  0  0  0  0  0  0999 V2000
   -3.9706    0.2535   -0.0556 C   0  0  0  0  0  0  0  0  0  0  0  0
   -2.7061   -0.5949    0.1117 C   0  0  0  0  0  0  0  0  0  0  0  0
   -4.9209   -0.4745    0.0115 H   0  0  0  0  0  0  0  0  0  0  0  0
   -4.0047    0.9782   -1.0175 H   0  0  0  0  0  0  0  0  0  0  0  0
   -4.0025    0.7514    0.6790 H   0  0  0  0  0  0  0  0  0  0  0  0
   -1.4081    0.2154    0.1121 C   0  0  0  0  0  0  0  0  0  0  0  0
   -2.6156   -1.3848   -0.8293 H   0  0  0  0  0  0  0  0  0  0  0  0
   -2.7324   -1.1277    0.9704 H   0  0  0  0  0  0  0  0  0  0  0  0
   -0.1332   -0.7196   -0.0328 C   0  0  0  0  0  0  0  0  0  0  0  0
   -1.1892    0.9754    0.9968 H   0  0  0  0  0  0  0  0  0  0  0  0
   -1.5570    0.8462   -0.7851 H   0  0  0  0  0  0  0  0  0  0  0  0
    0.0933   -1.4637    0.9108 H   0  0  0  0  0  0  0  0  0  0  0  0
    0.8559   -0.0751   -0.1924 H   0  0  0  0  0  0  0  0  0  0  0  0
   -0.3166   -1.3581   -0.9139 H   0  0  0  0  0  0  0  0  0  0  0  0
  1  3  1  0  0  0  0
  1  2  1  0  0  0  0
  1  5  1  0  0  0  0
  2  6  1  0  0  0  0
  2  8  1  0  0  0  0
  4  1  1  0  0  0  0
  6 10  1  0  0  0  0
  7  2  1  0  0  0  0
  9  6  1  0  0  0  0
  9 12  1  0  0  0  0
 11  6  1  0  0  0  0
 13  9  1  0  0  0  0
 14  9  1  0  0  0  0
M  END
$$$$
