14
butane_opt
C  -3.987637   0.220035   0.053220
C  -2.712295  -0.564141   0.040958
H  -4.828071  -0.291937  -0.342180
H  -3.983376   0.520997  -0.602759
H  -3.976270   1.193469   1.203048
C  -1.412723   0.220859  -0.054155
H  -2.771247  -1.406724  -1.025433
H  -2.763874  -1.137820   0.916966
C  -0.104229  -0.730403   0.082261
H  -1.427032   0.668658   0.632109
H  -1.301127   1.010907  -1.062770
H  -0.060245  -1.420376   1.062258
H   0.758513  -0.148093  -0.053907
H  -0.048599  -1.226275  -0.720588
