14
butane_opt
C  -3.936244   0.272975  -0.009078
C  -2.665693  -0.602712   0.118629
H  -4.976773  -0.454869   0.076225
H  -3.928998   1.104887  -1.087082
H  -3.999266   0.764675   0.654400
C  -1.394622   0.168639   0.037884
H  -2.583241  -1.373341  -0.769983
H  -2.662411  -1.304855   1.010670
C  -0.193971  -0.681637  -0.027631
H  -1.321250   0.786416   0.883643
H  -1.564877   0.877175  -0.861160
H  -0.358131  -1.016778   0.677850
H   0.783922  -0.112595   0.482806
H  -0.105499  -1.638277  -1.093740
