14
butane_opt
C  -3.985603   0.301458   0.096055
C  -2.689471  -0.685203  -0.060871
H  -4.837571  -0.194341   0.053058
H  -4.127845   0.694366  -0.689813
H  -4.091813   1.305109   1.229764
C  -1.333896   0.164636  -0.082008
H  -2.779621  -1.413324  -0.931959
H  -2.656155  -1.203890   0.716829
C  -0.187788  -0.660493   0.147319
H  -1.362714   0.597422   0.586254
H  -1.299727   0.955845  -1.027847
H  -0.075461  -1.419780   1.101213
H   0.689888  -0.043118  -0.057585
H  -0.130874  -1.183137  -0.689965
