butane_opt
 OpenBabel08242015383D

 14 13  0  0  0  0  0  0  0  0999 V2000
   -3.9520    0.3013   -0.0594 C   0  0  0  0  0  0  0  0  0  0  0  0
   -2.6553   -0.6161    0.0640 C   0  0  0  0  0  0  0  0  0  0  0  0
   -4.9121   -0.2481    0.0148 H   0  0  0  0  0  0  0  0  0  0  0  0
   -3.8984    0.8776   -0.9392 H   0  0  0  0  0  0  0  0  0  0  0  0
   -3.9418    0.8397    0.6984 H   0  0  0  0  0  0  0  0  0  0  0  0
   -1.3905    0.1255    0.1525 C   0  0  0  0  0  0  0  0  0  0  0  0
   -2.6326   -1.3521   -0.7210 H   0  0  0  0  0  0  0  0  0  0  0  0
   -2.7809   -1.2993    1.0071 H   0  0  0  0  0  0  0  0  0  0  0  0
   -0.1933   -0.6646   -0.0260 C   0  0  0  0  0  0  0  0  0  0  0  0
   -1.2400    0.8575    1.0459 H   0  0  0  0  0  0  0  0  0  0  0  0
   -1.4582    0.7866   -0.7800 H   0  0  0  0  0  0  0  0  0  0  0  0
   -0.1301   -1.4704    0.9386 H   0  0  0  0  0  0  0  0  0  0  0  0
    0.7759   -0.0211   -0.5107 H   0  0  0  0  0  0  0  0  0  0  0  0
   -0.5264   -1.1806   -0.8773 H   0  0  0  0  0  0  0  0  0  0  0  0
  1  3  1  0  0  0  0
  1  2  1  0  0  0  0
  1  5  1  0  0  0  0
  2  6  1  0  0  0  0
  2  8  1  0  0  0  0
  4  1  1  0  0  0  0
  6 10  1  0  0  0  0
  7  2  1  0  0  0  0
  9  6  1  0  0  0  0
  9 12  1  0  0  0  0
 11  6  1  0  0  0  0
 13  9  1  0  0  0  0
 14  9  1  0  0  0  0
M  END
$$$$
