14
butane_opt
C  -3.908412   0.292562   0.100322
C  -2.668338  -0.680742  -0.070527
H  -4.858654  -0.233261   0.275873
H  -4.280814   1.069794  -0.838813
H  -3.858248   0.825584   0.932143
C  -1.402029   0.165227  -0.074091
H  -2.820192  -1.308590  -0.893844
H  -2.490635  -1.259538   0.862264
C  -0.201226  -0.665965   0.097978
H  -1.494254   0.873984   0.830931
H  -1.400205   0.850344  -1.014482
H  -0.438567  -1.254624   1.017774
H   0.812420   0.025783   0.372790
H  -0.038244  -1.396951  -0.791596
