butane_opt
 OpenBabel08242015383D

 14 13  0  0  0  0  0  0  0  0999 V2000
   -3.9288    0.2544   -0.0052 C   0  0  0  0  0  0  0  0  0  0  0  0
   -2.7002   -0.6083    0.0669 C   0  0  0  0  0  0  0  0  0  0  0  0
   -4.8683   -0.3271   -0.0917 H   0  0  0  0  0  0  0  0  0  0  0  0
   -3.9151    0.8190   -0.8739 H   0  0  0  0  0  0  0  0  0  0  0  0
   -3.9814    0.9926    0.9137 H   0  0  0  0  0  0  0  0  0  0  0  0
   -1.4006    0.1906    0.0254 C   0  0  0  0  0  0  0  0  0  0  0  0
   -2.7325   -1.2487   -0.7466 H   0  0  0  0  0  0  0  0  0  0  0  0
   -2.7134   -1.2403    0.9852 H   0  0  0  0  0  0  0  0  0  0  0  0
   -0.1768   -0.7024    0.0208 C   0  0  0  0  0  0  0  0  0  0  0  0
   -1.4079    0.8715    0.8679 H   0  0  0  0  0  0  0  0  0  0  0  0
   -1.4085    0.8487   -0.8747 H   0  0  0  0  0  0  0  0  0  0  0  0
   -0.0767   -1.2990    0.8778 H   0  0  0  0  0  0  0  0  0  0  0  0
    0.7297   -0.1097   -0.0513 H   0  0  0  0  0  0  0  0  0  0  0  0
   -0.1683   -1.3985   -0.8670 H   0  0  0  0  0  0  0  0  0  0  0  0
  1  2  1  0  0  0  0
  1  5  1  0  0  0  0
  2  8  1  0  0  0  0
  3  1  1  0  0  0  0
  4  1  1  0  0  0  0
  6  2  1  0  0  0  0
  6 10  1  0  0  0  0
  7  2  1  0  0  0  0
  9  6  1  0  0  0  0
  9 12  1  0  0  0  0
 11  6  1  0  0  0  0
 13  9  1  0  0  0  0
 14  9  1  0  0  0  0
M  END
$$$$
