butane_opt
 OpenBabel08242015383D

 14 13  0  0  0  0  0  0  0  0999 V2000
   -3.9893    0.3062    0.0798 C   0  0  0  0  0  0  0  0  0  0  0  0
   -2.6933   -0.6454   -0.0927 C   0  0  0  0  0  0  0  0  0  0  0  0
   -4.8563   -0.2604    0.6189 H   0  0  0  0  0  0  0  0  0  0  0  0
   -4.1642    1.1923   -0.8624 H   0  0  0  0  0  0  0  0  0  0  0  0
   -3.7270    0.7521    0.8460 H   0  0  0  0  0  0  0  0  0  0  0  0
   -1.3546    0.0979   -0.0187 C   0  0  0  0  0  0  0  0  0  0  0  0
   -2.7629   -1.4074   -1.0498 H   0  0  0  0  0  0  0  0  0  0  0  0
   -2.5884   -1.1532    0.6882 H   0  0  0  0  0  0  0  0  0  0  0  0
   -0.1754   -0.6463    0.1155 C   0  0  0  0  0  0  0  0  0  0  0  0
   -1.3714    0.7433    0.8358 H   0  0  0  0  0  0  0  0  0  0  0  0
   -1.3285    0.8926   -1.0453 H   0  0  0  0  0  0  0  0  0  0  0  0
   -0.2255   -1.2461    1.0422 H   0  0  0  0  0  0  0  0  0  0  0  0
    0.6772   -0.0404    0.0855 H   0  0  0  0  0  0  0  0  0  0  0  0
   -0.1549   -1.2858   -0.7394 H   0  0  0  0  0  0  0  0  0  0  0  0
  1  3  1  0  0  0  0
  1  5  1  0  0  0  0
  2  6  1  0  0  0  0
  2  1  1  0  0  0  0
  2  8  1  0  0  0  0
  4  1  1  0  0  0  0
  6  9  1  0  0  0  0
  6 10  1  0  0  0  0
  7  2  1  0  0  0  0
  9 12  1  0  0  0  0
 11  6  1  0  0  0  0
 13  9  1  0  0  0  0
 14  9  1  0  0  0  0
M  END
$$$$
