butane_opt
 OpenBabel08242015383D

 14 13  0  0  0  0  0  0  0  0999 V2000
   -3.9950    0.3189    0.0099 C   0  0  0  0  0  0  0  0  0  0  0  0
   -2.7182   -0.6703    0.0773 C   0  0  0  0  0  0  0  0  0  0  0  0
   -4.8525   -0.2099   -0.0274 H   0  0  0  0  0  0  0  0  0  0  0  0
   -3.8459    0.8993   -0.8830 H   0  0  0  0  0  0  0  0  0  0  0  0
   -4.0276    0.8222    0.7494 H   0  0  0  0  0  0  0  0  0  0  0  0
   -1.3569    0.1611    0.0120 C   0  0  0  0  0  0  0  0  0  0  0  0
   -2.6124   -1.1931   -0.6411 H   0  0  0  0  0  0  0  0  0  0  0  0
   -2.7797   -1.4064    1.0735 H   0  0  0  0  0  0  0  0  0  0  0  0
   -0.1508   -0.6666    0.0136 C   0  0  0  0  0  0  0  0  0  0  0  0
   -1.4409    0.7751    0.7985 H   0  0  0  0  0  0  0  0  0  0  0  0
   -1.3239    0.7936   -0.9538 H   0  0  0  0  0  0  0  0  0  0  0  0
   -0.1317   -0.9931    0.6638 H   0  0  0  0  0  0  0  0  0  0  0  0
    0.7305   -0.0161    0.4094 H   0  0  0  0  0  0  0  0  0  0  0  0
   -0.1341   -1.6557   -1.1246 H   0  0  0  0  0  0  0  0  0  0  0  0
  1  2  1  0  0  0  0
  1  5  1  0  0  0  0
  2  8  1  0  0  0  0
  3  1  1  0  0  0  0
  4  1  1  0  0  0  0
  6  9  1  0  0  0  0
  6  2  1  0  0  0  0
  6 10  1  0  0  0  0
  7  2  1  0  0  0  0
  9 13  1  0  0  0  0
  9 12  1  0  0  0  0
 11  6  1  0  0  0  0
 14  9  1  0  0  0  0
M  END
$$$$
