butane_opt
 OpenBabel08242015383D

 14 13  0  0  0  0  0  0  0  0999 V2000
   -4.0062    0.3014    0.1370 C   0  0  0  0  0  0  0  0  0  0  0  0
   -2.6769   -0.6623   -0.0464 C   0  0  0  0  0  0  0  0  0  0  0  0
   -4.9371   -0.2815    0.0649 H   0  0  0  0  0  0  0  0  0  0  0  0
   -4.0907    0.8087   -0.6302 H   0  0  0  0  0  0  0  0  0  0  0  0
   -3.8513    1.0129    1.0530 H   0  0  0  0  0  0  0  0  0  0  0  0
   -1.3917    0.1583   -0.1730 C   0  0  0  0  0  0  0  0  0  0  0  0
   -2.9597   -1.2819   -0.9656 H   0  0  0  0  0  0  0  0  0  0  0  0
   -2.4804   -1.2591    0.7974 H   0  0  0  0  0  0  0  0  0  0  0  0
   -0.1316   -0.6662    0.1510 C   0  0  0  0  0  0  0  0  0  0  0  0
   -1.5053    0.7579    0.6160 H   0  0  0  0  0  0  0  0  0  0  0  0
   -1.2515    0.7659   -1.0766 H   0  0  0  0  0  0  0  0  0  0  0  0
   -0.3836   -1.1246    0.9107 H   0  0  0  0  0  0  0  0  0  0  0  0
    0.7395   -0.0427    0.5289 H   0  0  0  0  0  0  0  0  0  0  0  0
    0.1546   -1.4055   -0.7100 H   0  0  0  0  0  0  0  0  0  0  0  0
  1  5  1  0  0  0  0
  2  1  1  0  0  0  0
  2  8  1  0  0  0  0
  3  1  1  0  0  0  0
  4  1  1  0  0  0  0
  6  2  1  0  0  0  0
  6  9  1  0  0  0  0
  6 10  1  0  0  0  0
  7  2  1  0  0  0  0
  9 13  1  0  0  0  0
  9 12  1  0  0  0  0
 11  6  1  0  0  0  0
 14  9  1  0  0  0  0
M  END
$$$$
