butane_opt
 OpenBabel08242015383D

 14 11  0  0  0  0  0  0  0  0999 V2000
   -3.9786    0.3084    0.0965 C   0  0  0  0  0  0  0  0  0  0  0  0
   -2.6838   -0.6528   -0.0248 C   0  0  0  0  0  0  0  0  0  0  0  0
   -4.8485   -0.3180   -0.2955 H   0  0  0  0  0  0  0  0  0  0  0  0
   -3.9966    0.4459   -0.5161 H   0  0  0  0  0  0  0  0  0  0  0  0
   -4.2737    1.4481    1.2605 H   0  0  0  0  0  0  0  0  0  0  0  0
   -1.4084    0.1339   -0.1045 C   0  0  0  0  0  0  0  0  0  0  0  0
   -2.7101   -1.3637   -0.8724 H   0  0  0  0  0  0  0  0  0  0  0  0
   -2.6371   -1.2892    0.8546 H   0  0  0  0  0  0  0  0  0  0  0  0
   -0.1418   -0.6412    0.1011 C   0  0  0  0  0  0  0  0  0  0  0  0
   -1.1840    0.6865    0.6067 H   0  0  0  0  0  0  0  0  0  0  0  0
   -1.3775    0.7900   -1.0144 H   0  0  0  0  0  0  0  0  0  0  0  0
   -0.2151   -1.5405    1.2086 H   0  0  0  0  0  0  0  0  0  0  0  0
    0.8038    0.0330   -0.0045 H   0  0  0  0  0  0  0  0  0  0  0  0
   -0.0403   -1.1301   -0.5145 H   0  0  0  0  0  0  0  0  0  0  0  0
  2  1  1  0  0  0  0
  2  8  1  0  0  0  0
  3  1  1  0  0  0  0
  6  2  1  0  0  0  0
  6  9  1  0  0  0  0
  6 10  1  0  0  0  0
  7  2  1  0  0  0  0
  9 12  1  0  0  0  0
 11  6  1  0  0  0  0
 13  9  1  0  0  0  0
 14  9  1  0  0  0  0
M  RAD  3   1   3   4   2   5   2
M  END
$$$$
