14
butane_opt
C  -3.897904   0.210839  -0.006479
C  -2.720379  -0.570776   0.077222
H  -4.908710  -0.401719  -0.041150
H  -3.729751   0.922060  -0.986516
H  -4.023539   0.844714   0.798209
C  -1.446657   0.212634   0.063156
H  -2.648891  -1.212993  -0.804291
H  -2.730677  -1.009789   0.864343
C  -0.141010  -0.722455  -0.010612
H  -1.512985   0.917101   0.964437
H  -1.449477   0.841879  -0.764106
H   0.010854  -1.455967   1.014369
H   0.740044  -0.193667  -0.252326
H  -0.275026  -1.321051  -0.829553
