butane_opt
 OpenBabel08242015383D

 14 13  0  0  0  0  0  0  0  0999 V2000
   -3.9343    0.2441    0.0422 C   0  0  0  0  0  0  0  0  0  0  0  0
   -2.7284   -0.6086    0.0029 C   0  0  0  0  0  0  0  0  0  0  0  0
   -4.9397   -0.3788   -0.1847 H   0  0  0  0  0  0  0  0  0  0  0  0
   -3.9443    0.5272   -0.6891 H   0  0  0  0  0  0  0  0  0  0  0  0
   -4.1699    1.2134    1.1103 H   0  0  0  0  0  0  0  0  0  0  0  0
   -1.3947    0.2426   -0.0390 C   0  0  0  0  0  0  0  0  0  0  0  0
   -2.9365   -1.1948   -0.7074 H   0  0  0  0  0  0  0  0  0  0  0  0
   -2.6784   -1.4547    1.0301 H   0  0  0  0  0  0  0  0  0  0  0  0
   -0.1047   -0.7309    0.0622 C   0  0  0  0  0  0  0  0  0  0  0  0
   -1.5708    0.9189    0.8315 H   0  0  0  0  0  0  0  0  0  0  0  0
   -1.4379    1.0045   -1.0082 H   0  0  0  0  0  0  0  0  0  0  0  0
   -0.0761   -1.3201    0.9210 H   0  0  0  0  0  0  0  0  0  0  0  0
    0.7658   -0.2539    0.0521 H   0  0  0  0  0  0  0  0  0  0  0  0
   -0.0601   -1.3153   -0.7145 H   0  0  0  0  0  0  0  0  0  0  0  0
  1  5  1  0  0  0  0
  2  1  1  0  0  0  0
  2  8  1  0  0  0  0
  3  1  1  0  0  0  0
  4  1  1  0  0  0  0
  6  2  1  0  0  0  0
  6  9  1  0  0  0  0
  6 10  1  0  0  0  0
  7  2  1  0  0  0  0
  9 12  1  0  0  0  0
 11  6  1  0  0  0  0
 13  9  1  0  0  0  0
 14  9  1  0  0  0  0
M  END
$$$$
