butane_opt
 OpenBabel08242015383D

 14 13  0  0  0  0  0  0  0  0999 V2000
   -3.9110    0.2438    0.1155 C   0  0  0  0  0  0  0  0  0  0  0  0
   -2.6998   -0.5995   -0.0724 C   0  0  0  0  0  0  0  0  0  0  0  0
   -4.7840   -0.3450    0.3820 H   0  0  0  0  0  0  0  0  0  0  0  0
   -4.0267    1.0823   -0.9326 H   0  0  0  0  0  0  0  0  0  0  0  0
   -3.8238    0.5534    0.7848 H   0  0  0  0  0  0  0  0  0  0  0  0
   -1.4360    0.2439   -0.0465 C   0  0  0  0  0  0  0  0  0  0  0  0
   -2.7320   -1.4502   -1.0382 H   0  0  0  0  0  0  0  0  0  0  0  0
   -2.6124   -1.1234    0.6722 H   0  0  0  0  0  0  0  0  0  0  0  0
   -0.1734   -0.7279    0.1047 C   0  0  0  0  0  0  0  0  0  0  0  0
   -1.5654    0.8704    0.7771 H   0  0  0  0  0  0  0  0  0  0  0  0
   -1.3725    0.8053   -0.8582 H   0  0  0  0  0  0  0  0  0  0  0  0
   -0.1074   -1.3884    1.0239 H   0  0  0  0  0  0  0  0  0  0  0  0
    0.7712   -0.1555    0.1086 H   0  0  0  0  0  0  0  0  0  0  0  0
   -0.1253   -1.2200   -0.7069 H   0  0  0  0  0  0  0  0  0  0  0  0
  1  3  1  0  0  0  0
  1  5  1  0  0  0  0
  2  6  1  0  0  0  0
  2  1  1  0  0  0  0
  2  8  1  0  0  0  0
  4  1  1  0  0  0  0
  6  9  1  0  0  0  0
  6 10  1  0  0  0  0
  7  2  1  0  0  0  0
  9 13  1  0  0  0  0
  9 12  1  0  0  0  0
 11  6  1  0  0  0  0
 14  9  1  0  0  0  0
M  END
$$$$
