14
butane_opt
C  -4.006222   0.301401   0.137044
C  -2.676884  -0.662317  -0.046356
H  -4.937066  -0.281540   0.064860
H  -4.090722   0.808667  -0.630219
H  -3.851323   1.012864   1.052956
C  -1.391737   0.158279  -0.173024
H  -2.959711  -1.281934  -0.965585
H  -2.480405  -1.259055   0.797363
C  -0.131571  -0.666170   0.151048
H  -1.505290   0.757917   0.615953
H  -1.251541   0.765919  -1.076583
H  -0.383642  -1.124621   0.910748
H   0.739514  -0.042739   0.528916
H   0.154649  -1.405522  -0.709984
