14
butane_opt
C  -3.978313   0.248330  -0.105512
C  -2.679279  -0.616176   0.196218
H  -4.881811  -0.306340  -0.391300
H  -3.839403   0.751893  -0.912066
H  -4.124068   1.193722   0.916011
C  -1.407596   0.178801   0.083271
H  -2.474585  -1.111167  -0.530474
H  -2.931512  -1.458267   1.260932
C  -0.160995  -0.682351  -0.080380
H  -1.198990   0.943874   1.073185
H  -1.432049   0.753208  -0.788337
H   0.062726  -1.155248   0.754693
H   0.715362  -0.169422  -0.003068
H  -0.202757  -1.470881  -1.039910
