14
butane_opt
C  -3.932628   0.250478  -0.046470
C  -2.697331  -0.567691   0.098578
H  -4.917567  -0.500450  -0.135525
H  -3.814673   0.848250  -0.956965
H  -3.862999   0.785275   0.707451
C  -1.411615   0.210553   0.119786
H  -2.626378  -1.250262  -0.791415
H  -2.853665  -1.096545   0.949778
C  -0.161911  -0.720231  -0.019176
H  -1.389739   0.912486   0.916503
H  -1.425223   0.763628  -0.704333
H   0.142588  -1.497094   0.980074
H   0.714706  -0.176503  -0.513349
H  -0.528178  -1.355239  -0.841542
