butane_opt
 OpenBabel08242015383D

 14 12  0  0  0  0  0  0  0  0999 V2000
   -3.9694    0.2859    0.0275 C   0  0  0  0  0  0  0  0  0  0  0  0
   -2.6591   -0.6260   -0.0104 C   0  0  0  0  0  0  0  0  0  0  0  0
   -4.9055   -0.3582    0.0179 H   0  0  0  0  0  0  0  0  0  0  0  0
   -3.9500    0.8086   -0.7543 H   0  0  0  0  0  0  0  0  0  0  0  0
   -4.0668    1.0053    0.9418 H   0  0  0  0  0  0  0  0  0  0  0  0
   -1.4064    0.1636    0.0470 C   0  0  0  0  0  0  0  0  0  0  0  0
   -2.6659   -1.5513   -1.0084 H   0  0  0  0  0  0  0  0  0  0  0  0
   -2.5555   -1.1057    0.8330 H   0  0  0  0  0  0  0  0  0  0  0  0
   -0.1928   -0.6789    0.0360 C   0  0  0  0  0  0  0  0  0  0  0  0
   -1.2443    0.8084    0.9169 H   0  0  0  0  0  0  0  0  0  0  0  0
   -1.4291    0.8160   -0.9139 H   0  0  0  0  0  0  0  0  0  0  0  0
   -0.0205   -1.7496    1.2852 H   0  0  0  0  0  0  0  0  0  0  0  0
    0.8253    0.0604   -0.4132 H   0  0  0  0  0  0  0  0  0  0  0  0
   -0.2914   -0.9230   -0.6039 H   0  0  0  0  0  0  0  0  0  0  0  0
  1  5  1  0  0  0  0
  2  1  1  0  0  0  0
  2  6  1  0  0  0  0
  2  8  1  0  0  0  0
  3  1  1  0  0  0  0
  4  1  1  0  0  0  0
  6 10  1  0  0  0  0
  7  2  1  0  0  0  0
  9  6  1  0  0  0  0
 11  6  1  0  0  0  0
 13  9  1  0  0  0  0
 14  9  1  0  0  0  0
M  RAD  2   9   2  12   2
M  END
$$$$
