butane_opt
 OpenBabel08242015383D

 14 13  0  0  0  0  0  0  0  0999 V2000
   -3.8995    0.2406    0.0946 C   0  0  0  0  0  0  0  0  0  0  0  0
   -2.6845   -0.5958   -0.0587 C   0  0  0  0  0  0  0  0  0  0  0  0
   -4.8752   -0.4467    0.1019 H   0  0  0  0  0  0  0  0  0  0  0  0
   -3.8958    0.5914   -0.6813 H   0  0  0  0  0  0  0  0  0  0  0  0
   -3.9171    1.0322    1.0225 H   0  0  0  0  0  0  0  0  0  0  0  0
   -1.4235    0.2336   -0.0378 C   0  0  0  0  0  0  0  0  0  0  0  0
   -2.8413   -1.4227   -1.0123 H   0  0  0  0  0  0  0  0  0  0  0  0
   -2.6049   -1.0164    0.6796 H   0  0  0  0  0  0  0  0  0  0  0  0
   -0.1877   -0.7294    0.1026 C   0  0  0  0  0  0  0  0  0  0  0  0
   -1.4807    0.8290    0.6770 H   0  0  0  0  0  0  0  0  0  0  0  0
   -1.5161    1.0695   -1.0588 H   0  0  0  0  0  0  0  0  0  0  0  0
   -0.0820   -1.6347    1.1759 H   0  0  0  0  0  0  0  0  0  0  0  0
    0.6463   -0.1544   -0.1322 H   0  0  0  0  0  0  0  0  0  0  0  0
   -0.0979   -1.1269   -0.4779 H   0  0  0  0  0  0  0  0  0  0  0  0
  1  3  1  0  0  0  0
  1  5  1  0  0  0  0
  2  6  1  0  0  0  0
  2  1  1  0  0  0  0
  2  8  1  0  0  0  0
  4  1  1  0  0  0  0
  6  9  1  0  0  0  0
  6 10  1  0  0  0  0
  7  2  1  0  0  0  0
  9 12  1  0  0  0  0
 11  6  1  0  0  0  0
 13  9  1  0  0  0  0
 14  9  1  0  0  0  0
M  END
$$$$
