butane_opt
 OpenBabel08242015383D

 14 13  0  0  0  0  0  0  0  0999 V2000
   -3.9461    0.2569    0.1310 C   0  0  0  0  0  0  0  0  0  0  0  0
   -2.7447   -0.5914   -0.1105 C   0  0  0  0  0  0  0  0  0  0  0  0
   -4.8819   -0.4852    0.4556 H   0  0  0  0  0  0  0  0  0  0  0  0
   -4.1378    0.9015   -0.7363 H   0  0  0  0  0  0  0  0  0  0  0  0
   -3.6537    0.7938    0.9238 H   0  0  0  0  0  0  0  0  0  0  0  0
   -1.3844    0.2495   -0.1305 C   0  0  0  0  0  0  0  0  0  0  0  0
   -2.9244   -1.3966   -1.0145 H   0  0  0  0  0  0  0  0  0  0  0  0
   -2.6828   -1.1591    0.6792 H   0  0  0  0  0  0  0  0  0  0  0  0
   -0.1438   -0.7319    0.1645 C   0  0  0  0  0  0  0  0  0  0  0  0
   -1.4147    0.9083    0.7245 H   0  0  0  0  0  0  0  0  0  0  0  0
   -1.5038    0.7622   -0.8694 H   0  0  0  0  0  0  0  0  0  0  0  0
   -0.1619   -1.4542    1.0945 H   0  0  0  0  0  0  0  0  0  0  0  0
    0.7061   -0.2287    0.1428 H   0  0  0  0  0  0  0  0  0  0  0  0
    0.2477   -1.2949   -0.6139 H   0  0  0  0  0  0  0  0  0  0  0  0
  1  3  1  0  0  0  0
  1  5  1  0  0  0  0
  2  1  1  0  0  0  0
  2  8  1  0  0  0  0
  4  1  1  0  0  0  0
  6  2  1  0  0  0  0
  6  9  1  0  0  0  0
  6 10  1  0  0  0  0
  7  2  1  0  0  0  0
  9 12  1  0  0  0  0
 11  6  1  0  0  0  0
 13  9  1  0  0  0  0
 14  9  1  0  0  0  0
M  END
$$$$
