14
butane_opt
C  -3.928706   0.305715  -0.064776
C  -2.673616  -0.657071   0.183588
H  -4.829489  -0.224708  -0.381938
H  -3.633531   0.687171  -0.818926
H  -4.292032   1.000008   0.748581
C  -1.380652   0.177787   0.050947
H  -2.672026  -1.272851  -0.610920
H  -2.726746  -1.319500   1.090682
C  -0.226630  -0.680207  -0.037230
H  -1.215113   0.772843   0.973109
H  -1.522566   0.777763  -0.800119
H  -0.092191  -1.106422   0.706612
H   0.699253   0.008729  -0.056118
H  -0.254373  -1.545287  -0.999757
