14
butane_opt
C  -3.958704   0.246578   0.005777
C  -2.732754  -0.614323   0.014386
H  -4.892576  -0.354538   0.110781
H  -3.955328   0.839083  -0.859180
H  -3.836156   0.789278   0.701332
C  -1.396261   0.256368   0.077627
H  -2.607705  -1.221733  -0.806955
H  -2.877370  -1.314749   0.874483
C  -0.127366  -0.715296   0.000396
H  -1.485646   1.007986   0.949032
H  -1.439105   0.800460  -0.748191
H   0.225734  -1.613938   1.036646
H   0.628786  -0.284946  -0.217366
H  -0.213402  -1.206776  -0.739901
