14
butane_opt
C  -3.952044   0.301307  -0.059388
C  -2.655268  -0.616092   0.064002
H  -4.912088  -0.248130   0.014766
H  -3.898403   0.877619  -0.939169
H  -3.941829   0.839684   0.698419
C  -1.390545   0.125511   0.152528
H  -2.632643  -1.352090  -0.721043
H  -2.780865  -1.299333   1.007115
C  -0.193318  -0.664608  -0.026010
H  -1.240000   0.857492   1.045925
H  -1.458159   0.786616  -0.779966
H  -0.130124  -1.470435   0.938615
H   0.775857  -0.021110  -0.510661
H  -0.526445  -1.180617  -0.877269
