butane_opt
 OpenBabel08242015383D

 14 13  0  0  0  0  0  0  0  0999 V2000
   -3.9362    0.2730   -0.0091 C   0  0  0  0  0  0  0  0  0  0  0  0
   -2.6657   -0.6027    0.1186 C   0  0  0  0  0  0  0  0  0  0  0  0
   -4.9768   -0.4549    0.0762 H   0  0  0  0  0  0  0  0  0  0  0  0
   -3.9290    1.1049   -1.0871 H   0  0  0  0  0  0  0  0  0  0  0  0
   -3.9993    0.7647    0.6544 H   0  0  0  0  0  0  0  0  0  0  0  0
   -1.3946    0.1686    0.0379 C   0  0  0  0  0  0  0  0  0  0  0  0
   -2.5832   -1.3733   -0.7700 H   0  0  0  0  0  0  0  0  0  0  0  0
   -2.6624   -1.3049    1.0107 H   0  0  0  0  0  0  0  0  0  0  0  0
   -0.1940   -0.6816   -0.0276 C   0  0  0  0  0  0  0  0  0  0  0  0
   -1.3213    0.7864    0.8836 H   0  0  0  0  0  0  0  0  0  0  0  0
   -1.5649    0.8772   -0.8612 H   0  0  0  0  0  0  0  0  0  0  0  0
   -0.3581   -1.0168    0.6778 H   0  0  0  0  0  0  0  0  0  0  0  0
    0.7839   -0.1126    0.4828 H   0  0  0  0  0  0  0  0  0  0  0  0
   -0.1055   -1.6383   -1.0937 H   0  0  0  0  0  0  0  0  0  0  0  0
  1  3  1  0  0  0  0
  1  2  1  0  0  0  0
  1  5  1  0  0  0  0
  2  8  1  0  0  0  0
  4  1  1  0  0  0  0
  6  2  1  0  0  0  0
  6 10  1  0  0  0  0
  7  2  1  0  0  0  0
  9  6  1  0  0  0  0
  9 13  1  0  0  0  0
  9 12  1  0  0  0  0
 11  6  1  0  0  0  0
 14  9  1  0  0  0  0
M  END
$$$$
