14
butane_opt
C  -3.894734   0.237552   0.111432
C  -2.753439  -0.596702  -0.087323
H  -4.928812  -0.399982   0.312793
H  -4.257377   0.986351  -0.909639
H  -3.746011   0.768368   0.899753
C  -1.411472   0.259144  -0.043674
H  -2.854726  -1.340525  -0.976530
H  -2.762779  -1.176835   0.708892
C  -0.123526  -0.730004   0.121707
H  -1.485120   0.781401   0.707362
H  -1.452015   0.953081  -0.945091
H  -0.084881  -1.417935   1.054807
H   0.766574  -0.229137   0.079913
H  -0.001479  -1.437271  -0.733321
