14
butane_opt
C  -3.950588   0.231095  -0.043619
C  -2.721701  -0.602516   0.131329
H  -4.818214  -0.334216  -0.051502
H  -3.975234   1.048190  -1.027404
H  -4.107891   0.897860   0.841160
C  -1.374151   0.224354   0.012755
H  -2.766327  -1.134919  -0.469331
H  -2.899898  -1.334282   1.118161
C  -0.143384  -0.717384  -0.007837
H  -1.445156   0.936961   0.903677
H  -1.472914   0.720565  -0.774809
H  -0.101084  -0.939534   0.529590
H   0.783282  -0.134106   0.274154
H   0.060345  -1.812183  -1.080636
