butane_opt
 OpenBabel08242015383D

 14 13  0  0  0  0  0  0  0  0999 V2000
   -3.9514    0.2390   -0.1037 C   0  0  0  0  0  0  0  0  0  0  0  0
   -2.7586   -0.5812    0.1714 C   0  0  0  0  0  0  0  0  0  0  0  0
   -4.9729   -0.4943   -0.0704 H   0  0  0  0  0  0  0  0  0  0  0  0
   -3.6480    1.0286   -1.1001 H   0  0  0  0  0  0  0  0  0  0  0  0
   -4.1684    0.8764    0.7301 H   0  0  0  0  0  0  0  0  0  0  0  0
   -1.3966    0.2174    0.1585 C   0  0  0  0  0  0  0  0  0  0  0  0
   -2.5950   -1.2648   -0.7344 H   0  0  0  0  0  0  0  0  0  0  0  0
   -2.7643   -1.1171    0.9623 H   0  0  0  0  0  0  0  0  0  0  0  0
   -0.1139   -0.7162   -0.0885 C   0  0  0  0  0  0  0  0  0  0  0  0
   -1.3385    0.9373    1.0992 H   0  0  0  0  0  0  0  0  0  0  0  0
   -1.4051    0.6323   -0.6264 H   0  0  0  0  0  0  0  0  0  0  0  0
    0.1835   -1.4850    0.9095 H   0  0  0  0  0  0  0  0  0  0  0  0
    0.7037   -0.2608   -0.4447 H   0  0  0  0  0  0  0  0  0  0  0  0
   -0.3454   -1.2465   -0.9199 H   0  0  0  0  0  0  0  0  0  0  0  0
  1  3  1  0  0  0  0
  1  2  1  0  0  0  0
  1  5  1  0  0  0  0
  2  8  1  0  0  0  0
  4  1  1  0  0  0  0
  6  2  1  0  0  0  0
  6 10  1  0  0  0  0
  7  2  1  0  0  0  0
  9  6  1  0  0  0  0
  9 12  1  0  0  0  0
 11  6  1  0  0  0  0
 13  9  1  0  0  0  0
 14  9  1  0  0  0  0
M  END
$$$$
