butane_opt
 OpenBabel08242015383D

 14 11  0  0  0  0  0  0  0  0999 V2000
   -3.9176    0.2766   -0.0461 C   0  0  0  0  0  0  0  0  0  0  0  0
   -2.7208   -0.6189    0.0799 C   0  0  0  0  0  0  0  0  0  0  0  0
   -4.8897   -0.4174    0.4932 H   0  0  0  0  0  0  0  0  0  0  0  0
   -3.9346    1.2946   -1.1683 H   0  0  0  0  0  0  0  0  0  0  0  0
   -3.7934    0.3971    0.4286 H   0  0  0  0  0  0  0  0  0  0  0  0
   -1.3935    0.2109    0.1174 C   0  0  0  0  0  0  0  0  0  0  0  0
   -2.7021   -1.3111   -0.7785 H   0  0  0  0  0  0  0  0  0  0  0  0
   -2.7517   -1.1502    0.9380 H   0  0  0  0  0  0  0  0  0  0  0  0
   -0.1895   -0.7059   -0.0433 C   0  0  0  0  0  0  0  0  0  0  0  0
   -1.2993    0.9690    0.9664 H   0  0  0  0  0  0  0  0  0  0  0  0
   -1.5740    0.7331   -0.6660 H   0  0  0  0  0  0  0  0  0  0  0  0
   -0.1472   -1.1345    0.7424 H   0  0  0  0  0  0  0  0  0  0  0  0
    0.7237   -0.1688    0.0823 H   0  0  0  0  0  0  0  0  0  0  0  0
   -0.0127   -1.6345   -0.9546 H   0  0  0  0  0  0  0  0  0  0  0  0
  1  2  1  0  0  0  0
  1  3  1  0  0  0  0
  2  8  1  0  0  0  0
  4  1  1  0  0  0  0
  6 10  1  0  0  0  0
  7  2  1  0  0  0  0
  9 13  1  0  0  0  0
  9  6  1  0  0  0  0
  9 12  1  0  0  0  0
 11  6  1  0  0  0  0
 14  9  1  0  0  0  0
M  RAD  4   1   2   2   2   5   2   6   2
M  END
$$$$
