butane_opt
 OpenBabel08242015383D

 14 13  0  0  0  0  0  0  0  0999 V2000
   -3.9490    0.3001   -0.0109 C   0  0  0  0  0  0  0  0  0  0  0  0
   -2.7292   -0.6819    0.1012 C   0  0  0  0  0  0  0  0  0  0  0  0
   -4.8712   -0.2445   -0.0242 H   0  0  0  0  0  0  0  0  0  0  0  0
   -4.0612    0.9740   -0.8581 H   0  0  0  0  0  0  0  0  0  0  0  0
   -4.1015    0.8741    0.7808 H   0  0  0  0  0  0  0  0  0  0  0  0
   -1.3785    0.1800    0.0124 C   0  0  0  0  0  0  0  0  0  0  0  0
   -2.7619   -1.2645   -0.7310 H   0  0  0  0  0  0  0  0  0  0  0  0
   -2.7489   -1.3463    1.0947 H   0  0  0  0  0  0  0  0  0  0  0  0
   -0.1359   -0.6832   -0.0213 C   0  0  0  0  0  0  0  0  0  0  0  0
   -1.3709    0.9926    0.9197 H   0  0  0  0  0  0  0  0  0  0  0  0
   -1.3766    0.8521   -0.9506 H   0  0  0  0  0  0  0  0  0  0  0  0
   -0.3144   -1.0775    0.7936 H   0  0  0  0  0  0  0  0  0  0  0  0
    0.7882   -0.0787    0.3924 H   0  0  0  0  0  0  0  0  0  0  0  0
    0.0964   -1.5581   -0.9938 H   0  0  0  0  0  0  0  0  0  0  0  0
  1  2  1  0  0  0  0
  1  5  1  0  0  0  0
  2  8  1  0  0  0  0
  3  1  1  0  0  0  0
  4  1  1  0  0  0  0
  6  2  1  0  0  0  0
  6 10  1  0  0  0  0
  7  2  1  0  0  0  0
  9  6  1  0  0  0  0
  9 13  1  0  0  0  0
  9 12  1  0  0  0  0
 11  6  1  0  0  0  0
 14  9  1  0  0  0  0
M  END
$$$$
