14
butane_opt
C  -3.951432   0.238953  -0.103671
C  -2.758621  -0.581180   0.171389
H  -4.972921  -0.494255  -0.070381
H  -3.647981   1.028647  -1.100124
H  -4.168429   0.876385   0.730133
C  -1.396587   0.217436   0.158494
H  -2.594997  -1.264842  -0.734418
H  -2.764285  -1.117071   0.962347
C  -0.113865  -0.716198  -0.088522
H  -1.338469   0.937298   1.099161
H  -1.405133   0.632258  -0.626449
H   0.183539  -1.485045   0.909545
H   0.703694  -0.260816  -0.444683
H  -0.345385  -1.246519  -0.919901
