butane_opt
 OpenBabel08242015383D

 14 13  0  0  0  0  0  0  0  0999 V2000
   -3.9801    0.2832    0.0211 C   0  0  0  0  0  0  0  0  0  0  0  0
   -2.7172   -0.6582    0.0243 C   0  0  0  0  0  0  0  0  0  0  0  0
   -4.7843   -0.2033   -0.0761 H   0  0  0  0  0  0  0  0  0  0  0  0
   -3.9789    0.8377   -0.8231 H   0  0  0  0  0  0  0  0  0  0  0  0
   -4.0844    1.0885    0.9593 H   0  0  0  0  0  0  0  0  0  0  0  0
   -1.3595    0.1864    0.0395 C   0  0  0  0  0  0  0  0  0  0  0  0
   -2.5385   -1.4560   -0.8515 H   0  0  0  0  0  0  0  0  0  0  0  0
   -2.8334   -1.1262    0.7709 H   0  0  0  0  0  0  0  0  0  0  0  0
   -0.1506   -0.6924    0.0263 C   0  0  0  0  0  0  0  0  0  0  0  0
   -1.3051    0.7401    0.8645 H   0  0  0  0  0  0  0  0  0  0  0  0
   -1.3792    0.8833   -0.8295 H   0  0  0  0  0  0  0  0  0  0  0  0
   -0.0104   -1.5313    1.0593 H   0  0  0  0  0  0  0  0  0  0  0  0
    0.8276   -0.0944   -0.3241 H   0  0  0  0  0  0  0  0  0  0  0  0
   -0.4447   -1.0093   -0.5801 H   0  0  0  0  0  0  0  0  0  0  0  0
  1  2  1  0  0  0  0
  1  5  1  0  0  0  0
  2  6  1  0  0  0  0
  2  8  1  0  0  0  0
  3  1  1  0  0  0  0
  4  1  1  0  0  0  0
  6 10  1  0  0  0  0
  7  2  1  0  0  0  0
  9  6  1  0  0  0  0
  9 12  1  0  0  0  0
 11  6  1  0  0  0  0
 13  9  1  0  0  0  0
 14  9  1  0  0  0  0
M  END
$$$$
