butane_opt
 OpenBabel08242015383D

 14 13  0  0  0  0  0  0  0  0999 V2000
   -3.9608    0.2234    0.0943 C   0  0  0  0  0  0  0  0  0  0  0  0
   -2.7260   -0.5535   -0.0856 C   0  0  0  0  0  0  0  0  0  0  0  0
   -4.9796   -0.4598    0.2635 H   0  0  0  0  0  0  0  0  0  0  0  0
   -4.0568    0.9459   -0.7493 H   0  0  0  0  0  0  0  0  0  0  0  0
   -3.7725    0.8877    0.9522 H   0  0  0  0  0  0  0  0  0  0  0  0
   -1.4096    0.2423   -0.0544 C   0  0  0  0  0  0  0  0  0  0  0  0
   -2.8884   -1.2895   -0.9694 H   0  0  0  0  0  0  0  0  0  0  0  0
   -2.6798   -1.2893    0.8412 H   0  0  0  0  0  0  0  0  0  0  0  0
   -0.1341   -0.7416    0.1266 C   0  0  0  0  0  0  0  0  0  0  0  0
   -1.3827    0.8710    0.7382 H   0  0  0  0  0  0  0  0  0  0  0  0
   -1.2266    0.8071   -0.9435 H   0  0  0  0  0  0  0  0  0  0  0  0
   -0.0416   -1.4213    1.0767 H   0  0  0  0  0  0  0  0  0  0  0  0
    0.7464   -0.1786   -0.0487 H   0  0  0  0  0  0  0  0  0  0  0  0
    0.0408   -1.3981   -0.7089 H   0  0  0  0  0  0  0  0  0  0  0  0
  1  3  1  0  0  0  0
  1  5  1  0  0  0  0
  2  6  1  0  0  0  0
  2  1  1  0  0  0  0
  2  8  1  0  0  0  0
  4  1  1  0  0  0  0
  6  9  1  0  0  0  0
  6 10  1  0  0  0  0
  7  2  1  0  0  0  0
  9 12  1  0  0  0  0
 11  6  1  0  0  0  0
 13  9  1  0  0  0  0
 14  9  1  0  0  0  0
M  END
$$$$
