butane_opt
 OpenBabel08242015383D

 14 13  0  0  0  0  0  0  0  0999 V2000
   -3.8852    0.2310    0.0171 C   0  0  0  0  0  0  0  0  0  0  0  0
   -2.7344   -0.5598    0.0221 C   0  0  0  0  0  0  0  0  0  0  0  0
   -4.8209   -0.3698   -0.0808 H   0  0  0  0  0  0  0  0  0  0  0  0
   -4.0400    0.6483   -0.7736 H   0  0  0  0  0  0  0  0  0  0  0  0
   -3.7337    1.0556    1.0102 H   0  0  0  0  0  0  0  0  0  0  0  0
   -1.4295    0.2190    0.0195 C   0  0  0  0  0  0  0  0  0  0  0  0
   -2.5993   -1.4198   -0.9610 H   0  0  0  0  0  0  0  0  0  0  0  0
   -2.7505   -1.2348    0.9115 H   0  0  0  0  0  0  0  0  0  0  0  0
   -0.1631   -0.7152    0.0452 C   0  0  0  0  0  0  0  0  0  0  0  0
   -1.4672    0.8438    0.8909 H   0  0  0  0  0  0  0  0  0  0  0  0
   -1.3247    0.8572   -0.9016 H   0  0  0  0  0  0  0  0  0  0  0  0
    0.0052   -1.6182    1.1368 H   0  0  0  0  0  0  0  0  0  0  0  0
    0.5342   -0.2594   -0.3231 H   0  0  0  0  0  0  0  0  0  0  0  0
   -0.2538   -1.0841   -0.6795 H   0  0  0  0  0  0  0  0  0  0  0  0
  1  2  1  0  0  0  0
  1  5  1  0  0  0  0
  2  8  1  0  0  0  0
  3  1  1  0  0  0  0
  4  1  1  0  0  0  0
  6  2  1  0  0  0  0
  6  9  1  0  0  0  0
  6 10  1  0  0  0  0
  7  2  1  0  0  0  0
  9 12  1  0  0  0  0
 11  6  1  0  0  0  0
 13  9  1  0  0  0  0
 14  9  1  0  0  0  0
M  END
$$$$
