14
butane_opt
C  -3.918727   0.275665  -0.084586
C  -2.655546  -0.637785   0.196986
H  -4.987160  -0.356170  -0.335774
H  -3.684636   0.895968  -1.039486
H  -4.379397   1.018460   0.785513
C  -1.392516   0.177790   0.109896
H  -2.600592  -1.328307  -0.562494
H  -2.763817  -1.329186   1.142091
C  -0.198116  -0.686222  -0.089865
H  -1.406367   0.874439   0.995566
H  -1.531730   0.836349  -0.752522
H  -0.157354  -1.132748   0.716350
H   0.747223  -0.032798  -0.063411
H  -0.262882  -1.487622  -1.047120
