14
butane_opt
C  -3.923674   0.231099  -0.043810
C  -2.700616  -0.587131   0.073116
H  -4.825250  -0.374495   0.186699
H  -3.996007   1.040796  -1.108731
H  -3.874208   0.562767   0.685498
C  -1.424465   0.219900   0.088767
H  -2.643657  -1.111843  -0.700677
H  -2.633084  -1.218393   0.996547
C  -0.181828  -0.729034  -0.018563
H  -1.383632   1.051632   1.037792
H  -1.494244   0.738308  -0.703749
H   0.125340  -1.199047   0.763993
H   0.698433  -0.149861  -0.047328
H  -0.216261  -1.438409  -0.901336
