14
butane_opt
C  -3.978558   0.308357   0.096543
C  -2.683822  -0.652845  -0.024751
H  -4.848512  -0.317953  -0.295544
H  -3.996560   0.445873  -0.516056
H  -4.273705   1.448128   1.260456
C  -1.408441   0.133941  -0.104461
H  -2.710103  -1.363694  -0.872422
H  -2.637059  -1.289150   0.854577
C  -0.141829  -0.641162   0.101090
H  -1.183956   0.686473   0.606727
H  -1.377546   0.790037  -1.014389
H  -0.215142  -1.540484   1.208553
H   0.803838   0.032990  -0.004508
H  -0.040308  -1.130126  -0.514496
