butane_opt
 OpenBabel08242015383D

 14 12  0  0  0  0  0  0  0  0999 V2000
   -3.9440    0.2785   -0.0484 C   0  0  0  0  0  0  0  0  0  0  0  0
   -2.6612   -0.6601    0.0817 C   0  0  0  0  0  0  0  0  0  0  0  0
   -4.7477   -0.2292    0.2917 H   0  0  0  0  0  0  0  0  0  0  0  0
   -4.0837    1.3159   -1.1843 H   0  0  0  0  0  0  0  0  0  0  0  0
   -3.9551    0.6060    0.5153 H   0  0  0  0  0  0  0  0  0  0  0  0
   -1.4225    0.1542    0.1030 C   0  0  0  0  0  0  0  0  0  0  0  0
   -2.5756   -1.3035   -0.7172 H   0  0  0  0  0  0  0  0  0  0  0  0
   -2.7386   -1.2906    1.0405 H   0  0  0  0  0  0  0  0  0  0  0  0
   -0.1923   -0.6909   -0.0488 C   0  0  0  0  0  0  0  0  0  0  0  0
   -1.3453    1.1834    1.1717 H   0  0  0  0  0  0  0  0  0  0  0  0
   -1.3995    0.6454   -0.6334 H   0  0  0  0  0  0  0  0  0  0  0  0
   -0.0202   -1.1391    0.8011 H   0  0  0  0  0  0  0  0  0  0  0  0
    0.8451    0.0939   -0.0655 H   0  0  0  0  0  0  0  0  0  0  0  0
   -0.3759   -1.3197   -0.8732 H   0  0  0  0  0  0  0  0  0  0  0  0
  1  2  1  0  0  0  0
  1  3  1  0  0  0  0
  1  5  1  0  0  0  0
  2  6  1  0  0  0  0
  2  8  1  0  0  0  0
  6 10  1  0  0  0  0
  7  2  1  0  0  0  0
  9  6  1  0  0  0  0
  9 12  1  0  0  0  0
 11  6  1  0  0  0  0
 13  9  1  0  0  0  0
 14  9  1  0  0  0  0
M  RAD  2   1   2   4   2
M  END
$$$$
