14
butane_opt
C  -3.979183   0.271024   0.058159
C  -2.693201  -0.615947   0.010284
H  -4.790601  -0.238883  -0.280200
H  -3.886118   0.448636  -0.514927
H  -4.175564   1.388957   1.153775
C  -1.365436   0.157533  -0.073160
H  -2.797336  -1.260206  -0.800572
H  -2.659457  -1.281307   0.984876
C  -0.162708  -0.676674   0.062610
H  -1.471994   0.730414   0.686547
H  -1.433533   0.775771  -0.964657
H  -0.270119  -1.431786   1.092058
H   0.857827  -0.022613   0.006701
H  -0.008236  -1.190933  -0.565115
