14
butane_opt
C  -3.935053   0.294336  -0.002134
C  -2.685811  -0.645095   0.096650
H  -4.835865  -0.301647   0.079486
H  -3.810903   0.952722  -0.915274
H  -4.076602   0.867863   0.806958
C  -1.376182   0.172355  -0.005367
H  -2.664099  -1.326782  -0.801983
H  -2.714986  -1.232000   0.926471
C  -0.210808  -0.698800   0.020117
H  -1.394285   0.883140   0.895338
H  -1.381409   0.711869  -0.866798
H  -0.214133  -1.079232   0.734974
H   0.699125  -0.004726   0.153851
H  -0.145377  -1.410705  -0.890568
