14
butane_opt
C  -4.007016   0.275583  -0.042035
C  -2.682505  -0.649123   0.055213
H  -4.781501  -0.176821   0.394909
H  -4.273901   1.303663  -1.162585
H  -3.872062   0.702188   0.682457
C  -1.394075   0.132467   0.108175
H  -2.586076  -1.186532  -0.675458
H  -2.764195  -1.354975   0.905792
C  -0.128604  -0.667735  -0.034436
H  -1.387719   0.928139   1.044985
H  -1.279394   0.721223  -0.741796
H  -0.243349  -1.130134   0.798835
H   0.861309   0.127097   0.039567
H  -0.169105  -1.471773  -0.952774
