butane_opt
 OpenBabel08242015383D

 14 13  0  0  0  0  0  0  0  0999 V2000
   -3.9515    0.2760    0.0410 C   0  0  0  0  0  0  0  0  0  0  0  0
   -2.7024   -0.6374    0.0134 C   0  0  0  0  0  0  0  0  0  0  0  0
   -4.8703   -0.3102    0.0343 H   0  0  0  0  0  0  0  0  0  0  0  0
   -4.0228    0.8659   -0.8001 H   0  0  0  0  0  0  0  0  0  0  0  0
   -3.9413    1.0160    0.9709 H   0  0  0  0  0  0  0  0  0  0  0  0
   -1.3869    0.1808   -0.0249 C   0  0  0  0  0  0  0  0  0  0  0  0
   -2.7231   -1.2824   -0.8262 H   0  0  0  0  0  0  0  0  0  0  0  0
   -2.7150   -1.2894    0.9218 H   0  0  0  0  0  0  0  0  0  0  0  0
   -0.1682   -0.6874    0.0581 C   0  0  0  0  0  0  0  0  0  0  0  0
   -1.3898    0.8300    0.7866 H   0  0  0  0  0  0  0  0  0  0  0  0
   -1.3760    0.8626   -0.9452 H   0  0  0  0  0  0  0  0  0  0  0  0
   -0.2026   -1.2661    0.9498 H   0  0  0  0  0  0  0  0  0  0  0  0
    0.7568   -0.0859    0.1167 H   0  0  0  0  0  0  0  0  0  0  0  0
   -0.0371   -1.4002   -0.8220 H   0  0  0  0  0  0  0  0  0  0  0  0
  1  5  1  0  0  0  0
  2  1  1  0  0  0  0
  2  8  1  0  0  0  0
  3  1  1  0  0  0  0
  4  1  1  0  0  0  0
  6  2  1  0  0  0  0
  6  9  1  0  0  0  0
  6 10  1  0  0  0  0
  7  2  1  0  0  0  0
  9 13  1  0  0  0  0
  9 12  1  0  0  0  0
 11  6  1  0  0  0  0
 14  9  1  0  0  0  0
M  END
$$$$
