14
butane_opt
C  -3.885898   0.233810  -0.073300
C  -2.733096  -0.547256   0.090357
H  -4.906665  -0.393545   0.406677
H  -3.966241   1.219979  -1.234865
H  -3.755967   0.590349   0.515036
C  -1.431411   0.195274   0.144065
H  -2.702011  -1.278590  -0.742841
H  -2.693122  -1.365247   1.054110
C  -0.156943  -0.710765  -0.069437
H  -1.272823   1.053418   1.121962
H  -1.554916   0.607622  -0.628625
H  -0.252639  -1.312884   0.834487
H   0.706160  -0.143348  -0.061124
H  -0.123205  -1.495974  -0.973463
