butane_opt
 OpenBabel08242015383D

 14 13  0  0  0  0  0  0  0  0999 V2000
   -3.9232    0.2900   -0.0544 C   0  0  0  0  0  0  0  0  0  0  0  0
   -2.6806   -0.6425    0.0918 C   0  0  0  0  0  0  0  0  0  0  0  0
   -4.7800   -0.2033   -0.0228 H   0  0  0  0  0  0  0  0  0  0  0  0
   -3.9237    1.0229   -1.0008 H   0  0  0  0  0  0  0  0  0  0  0  0
   -4.1381    0.9712    0.7290 H   0  0  0  0  0  0  0  0  0  0  0  0
   -1.3995    0.1288    0.1068 C   0  0  0  0  0  0  0  0  0  0  0  0
   -2.8326   -1.3036   -0.7643 H   0  0  0  0  0  0  0  0  0  0  0  0
   -2.6229   -1.3821    1.0625 H   0  0  0  0  0  0  0  0  0  0  0  0
   -0.2148   -0.6738   -0.0362 C   0  0  0  0  0  0  0  0  0  0  0  0
   -1.2107    1.0651    1.1141 H   0  0  0  0  0  0  0  0  0  0  0  0
   -1.3541    0.5685   -0.7332 H   0  0  0  0  0  0  0  0  0  0  0  0
   -0.0647   -1.3273    0.8754 H   0  0  0  0  0  0  0  0  0  0  0  0
    0.7768   -0.0284   -0.3562 H   0  0  0  0  0  0  0  0  0  0  0  0
   -0.2696   -1.0598   -0.7649 H   0  0  0  0  0  0  0  0  0  0  0  0
  1  3  1  0  0  0  0
  1  2  1  0  0  0  0
  1  5  1  0  0  0  0
  2  6  1  0  0  0  0
  2  8  1  0  0  0  0
  4  1  1  0  0  0  0
  6 10  1  0  0  0  0
  7  2  1  0  0  0  0
  9  6  1  0  0  0  0
  9 12  1  0  0  0  0
 11  6  1  0  0  0  0
 13  9  1  0  0  0  0
 14  9  1  0  0  0  0
M  END
$$$$
