butane_opt
 OpenBabel08242015383D

 14 13  0  0  0  0  0  0  0  0999 V2000
   -3.8757    0.2376   -0.0287 C   0  0  0  0  0  0  0  0  0  0  0  0
   -2.7003   -0.5963    0.1030 C   0  0  0  0  0  0  0  0  0  0  0  0
   -4.8005   -0.3180   -0.0894 H   0  0  0  0  0  0  0  0  0  0  0  0
   -3.8230    0.8424   -0.8875 H   0  0  0  0  0  0  0  0  0  0  0  0
   -3.9569    0.9194    0.8010 H   0  0  0  0  0  0  0  0  0  0  0  0
   -1.4398    0.2170    0.0445 C   0  0  0  0  0  0  0  0  0  0  0  0
   -2.8360   -1.2450   -0.7092 H   0  0  0  0  0  0  0  0  0  0  0  0
   -2.7430   -1.2757    0.9685 H   0  0  0  0  0  0  0  0  0  0  0  0
   -0.1696   -0.7311    0.0243 C   0  0  0  0  0  0  0  0  0  0  0  0
   -1.4181    0.9186    0.9335 H   0  0  0  0  0  0  0  0  0  0  0  0
   -1.3727    1.0231   -0.9421 H   0  0  0  0  0  0  0  0  0  0  0  0
   -0.2075   -1.1481    0.7207 H   0  0  0  0  0  0  0  0  0  0  0  0
    0.7074   -0.1599   -0.0911 H   0  0  0  0  0  0  0  0  0  0  0  0
   -0.3257   -1.5826   -1.0199 H   0  0  0  0  0  0  0  0  0  0  0  0
  1  2  1  0  0  0  0
  1  5  1  0  0  0  0
  2  8  1  0  0  0  0
  3  1  1  0  0  0  0
  4  1  1  0  0  0  0
  6  2  1  0  0  0  0
  6 10  1  0  0  0  0
  7  2  1  0  0  0  0
  9  6  1  0  0  0  0
  9 12  1  0  0  0  0
 11  6  1  0  0  0  0
 13  9  1  0  0  0  0
 14  9  1  0  0  0  0
M  END
$$$$
