14
butane_opt
C  -3.994405   0.300466  -0.064274
C  -2.690229  -0.674277   0.091170
H  -4.783963  -0.149714   0.127178
H  -3.929593   0.973537  -1.034035
H  -4.113364   0.873420   0.714253
C  -1.361859   0.173353   0.122335
H  -2.627699  -1.280209  -0.673733
H  -2.958845  -1.294649   1.025332
C  -0.153569  -0.667899  -0.045665
H  -1.285776   0.865578   0.996758
H  -1.378490   0.796474  -0.660850
H  -0.033059  -1.372404   0.849953
H   0.851485   0.009805  -0.231897
H  -0.390895  -1.443618  -0.906534
