14
butane_opt
C  -3.991950   0.305839   0.089522
C  -2.696656  -0.693473  -0.065303
H  -4.850921  -0.263000   0.421726
H  -4.171902   1.039452  -0.921070
H  -3.944397   0.940821   0.959098
C  -1.345074   0.180110  -0.095872
H  -2.792126  -1.259487  -0.882036
H  -2.509720  -1.264269   0.846461
C  -0.193759  -0.672936   0.118707
H  -1.302200   0.859362   0.818347
H  -1.253136   0.732227  -0.875618
H  -0.240246  -1.178869   0.994179
H   0.796108  -0.061347   0.266534
H  -0.028985  -1.440412  -0.771814
