butane_opt
 OpenBabel08242015383D

 14 13  0  0  0  0  0  0  0  0999 V2000
   -3.9009    0.2478   -0.0585 C   0  0  0  0  0  0  0  0  0  0  0  0
   -2.6998   -0.5888    0.0829 C   0  0  0  0  0  0  0  0  0  0  0  0
   -4.8160   -0.3219    0.4567 H   0  0  0  0  0  0  0  0  0  0  0  0
   -3.9927    1.1049   -1.1221 H   0  0  0  0  0  0  0  0  0  0  0  0
   -3.7934    0.5668    0.5799 H   0  0  0  0  0  0  0  0  0  0  0  0
   -1.4270    0.2093    0.0867 C   0  0  0  0  0  0  0  0  0  0  0  0
   -2.5623   -1.1967   -0.6042 H   0  0  0  0  0  0  0  0  0  0  0  0
   -2.9099   -1.1808    0.9708 H   0  0  0  0  0  0  0  0  0  0  0  0
   -0.1968   -0.7541   -0.0232 C   0  0  0  0  0  0  0  0  0  0  0  0
   -1.2890    1.0331    1.0582 H   0  0  0  0  0  0  0  0  0  0  0  0
   -1.4722    0.7095   -0.7187 H   0  0  0  0  0  0  0  0  0  0  0  0
   -0.1830   -1.0816    0.6767 H   0  0  0  0  0  0  0  0  0  0  0  0
    0.8449   -0.0033    0.0884 H   0  0  0  0  0  0  0  0  0  0  0  0
   -0.1598   -1.4636   -1.0280 H   0  0  0  0  0  0  0  0  0  0  0  0
  1  2  1  0  0  0  0
  1  3  1  0  0  0  0
  1  5  1  0  0  0  0
  2  6  1  0  0  0  0
  2  8  1  0  0  0  0
  4  1  1  0  0  0  0
  6 10  1  0  0  0  0
  7  2  1  0  0  0  0
  9  6  1  0  0  0  0
  9 13  1  0  0  0  0
  9 12  1  0  0  0  0
 11  6  1  0  0  0  0
 14  9  1  0  0  0  0
M  END
$$$$
