14
butane_opt
C  -3.971312   0.300097   0.122316
C  -2.700907  -0.678508  -0.096292
H  -4.793483  -0.137934   0.593342
H  -4.236118   1.104791  -0.834862
H  -3.921074   0.803929   0.967063
C  -1.379190   0.160759  -0.103464
H  -2.930679  -1.627371  -1.130186
H  -2.571274  -1.159300   0.607547
C  -0.156689  -0.647629   0.151869
H  -1.553361   0.832753   0.742474
H  -1.250287   0.829108  -1.052967
H  -0.176512  -1.372369   1.168768
H   0.777673   0.009441   0.173001
H   0.074777  -1.328328  -0.702136
