14
butane_opt
C  -3.944757   0.274514  -0.012356
C  -2.692934  -0.620694   0.077312
H  -4.844919  -0.307393  -0.045432
H  -3.888811   0.839787  -0.883343
H  -4.022685   0.987261   0.876757
C  -1.392994   0.166565   0.025955
H  -2.671996  -1.247168  -0.741689
H  -2.732063  -1.295911   0.998551
C  -0.174850  -0.687272   0.003605
H  -1.336687   0.868926   0.895119
H  -1.484763   0.770852  -0.826231
H  -0.190725  -1.230144   0.876476
H   0.783831  -0.086340   0.016192
H  -0.171966  -1.364180  -0.853164
