butane_opt
 OpenBabel08242015383D

 14 13  0  0  0  0  0  0  0  0999 V2000
   -3.9340    0.2982   -0.0620 C   0  0  0  0  0  0  0  0  0  0  0  0
   -2.6934   -0.6216    0.0682 C   0  0  0  0  0  0  0  0  0  0  0  0
   -4.8658   -0.3094    0.0652 H   0  0  0  0  0  0  0  0  0  0  0  0
   -3.9642    0.8462   -0.9455 H   0  0  0  0  0  0  0  0  0  0  0  0
   -4.0755    0.9358    0.7345 H   0  0  0  0  0  0  0  0  0  0  0  0
   -1.3668    0.1531    0.1254 C   0  0  0  0  0  0  0  0  0  0  0  0
   -2.7415   -1.3981   -0.8326 H   0  0  0  0  0  0  0  0  0  0  0  0
   -2.6901   -1.3141    1.0264 H   0  0  0  0  0  0  0  0  0  0  0  0
   -0.1828   -0.6941   -0.0140 C   0  0  0  0  0  0  0  0  0  0  0  0
   -1.4049    0.9036    1.0084 H   0  0  0  0  0  0  0  0  0  0  0  0
   -1.4617    0.7544   -0.6816 H   0  0  0  0  0  0  0  0  0  0  0  0
    0.1054   -1.4090    0.9929 H   0  0  0  0  0  0  0  0  0  0  0  0
    0.7828    0.0097   -0.5512 H   0  0  0  0  0  0  0  0  0  0  0  0
   -0.5811   -1.1023   -0.7706 H   0  0  0  0  0  0  0  0  0  0  0  0
  1  3  1  0  0  0  0
  1  2  1  0  0  0  0
  1  5  1  0  0  0  0
  2  6  1  0  0  0  0
  2  8  1  0  0  0  0
  4  1  1  0  0  0  0
  6 10  1  0  0  0  0
  7  2  1  0  0  0  0
  9  6  1  0  0  0  0
  9 12  1  0  0  0  0
 11  6  1  0  0  0  0
 13  9  1  0  0  0  0
 14  9  1  0  0  0  0
M  END
$$$$
