butane_opt
 OpenBabel08242015383D

 14 11  0  0  0  0  0  0  0  0999 V2000
   -3.9792    0.2710    0.0582 C   0  0  0  0  0  0  0  0  0  0  0  0
   -2.6932   -0.6159    0.0103 C   0  0  0  0  0  0  0  0  0  0  0  0
   -4.7906   -0.2389   -0.2802 H   0  0  0  0  0  0  0  0  0  0  0  0
   -3.8861    0.4486   -0.5149 H   0  0  0  0  0  0  0  0  0  0  0  0
   -4.1756    1.3890    1.1538 H   0  0  0  0  0  0  0  0  0  0  0  0
   -1.3654    0.1575   -0.0732 C   0  0  0  0  0  0  0  0  0  0  0  0
   -2.7973   -1.2602   -0.8006 H   0  0  0  0  0  0  0  0  0  0  0  0
   -2.6595   -1.2813    0.9849 H   0  0  0  0  0  0  0  0  0  0  0  0
   -0.1627   -0.6767    0.0626 C   0  0  0  0  0  0  0  0  0  0  0  0
   -1.4720    0.7304    0.6865 H   0  0  0  0  0  0  0  0  0  0  0  0
   -1.4335    0.7758   -0.9647 H   0  0  0  0  0  0  0  0  0  0  0  0
   -0.2701   -1.4318    1.0921 H   0  0  0  0  0  0  0  0  0  0  0  0
    0.8578   -0.0226    0.0067 H   0  0  0  0  0  0  0  0  0  0  0  0
   -0.0082   -1.1909   -0.5651 H   0  0  0  0  0  0  0  0  0  0  0  0
  2  1  1  0  0  0  0
  2  8  1  0  0  0  0
  3  1  1  0  0  0  0
  6  2  1  0  0  0  0
  6  9  1  0  0  0  0
  6 10  1  0  0  0  0
  7  2  1  0  0  0  0
  9 12  1  0  0  0  0
 11  6  1  0  0  0  0
 13  9  1  0  0  0  0
 14  9  1  0  0  0  0
M  RAD  3   1   3   4   2   5   2
M  END
$$$$
