butane_opt
 OpenBabel08242015383D

 14 13  0  0  0  0  0  0  0  0999 V2000
   -3.9230    0.2943    0.0678 C   0  0  0  0  0  0  0  0  0  0  0  0
   -2.6906   -0.6181   -0.0227 C   0  0  0  0  0  0  0  0  0  0  0  0
   -4.7852   -0.3430    0.3536 H   0  0  0  0  0  0  0  0  0  0  0  0
   -4.0895    1.1899   -0.9869 H   0  0  0  0  0  0  0  0  0  0  0  0
   -3.8396    0.7223    0.8072 H   0  0  0  0  0  0  0  0  0  0  0  0
   -1.3992    0.1216   -0.0412 C   0  0  0  0  0  0  0  0  0  0  0  0
   -2.9156   -1.4812   -0.9858 H   0  0  0  0  0  0  0  0  0  0  0  0
   -2.5790   -1.1592    0.8547 H   0  0  0  0  0  0  0  0  0  0  0  0
   -0.1725   -0.6600    0.0965 C   0  0  0  0  0  0  0  0  0  0  0  0
   -1.3742    0.8416    0.8932 H   0  0  0  0  0  0  0  0  0  0  0  0
   -1.3521    0.7569   -0.9779 H   0  0  0  0  0  0  0  0  0  0  0  0
   -0.3360   -1.1195    0.8808 H   0  0  0  0  0  0  0  0  0  0  0  0
    0.6566   -0.1070    0.1237 H   0  0  0  0  0  0  0  0  0  0  0  0
   -0.1823   -1.4092   -0.7849 H   0  0  0  0  0  0  0  0  0  0  0  0
  1  3  1  0  0  0  0
  1  5  1  0  0  0  0
  2  1  1  0  0  0  0
  2  8  1  0  0  0  0
  4  1  1  0  0  0  0
  6  2  1  0  0  0  0
  6  9  1  0  0  0  0
  6 10  1  0  0  0  0
  7  2  1  0  0  0  0
  9 13  1  0  0  0  0
  9 12  1  0  0  0  0
 11  6  1  0  0  0  0
 14  9  1  0  0  0  0
M  END
$$$$
