14
butane_opt
C  -3.945185   0.275138   0.078951
C  -2.652170  -0.637713  -0.054185
H  -4.800844  -0.300134   0.021674
H  -4.039312   0.679711  -0.657213
H  -3.863324   1.164293   1.077986
C  -1.418546   0.182232  -0.016323
H  -2.569569  -1.539426  -1.056228
H  -2.604018  -1.040005   0.685680
C  -0.226968  -0.678410   0.097599
H  -1.468950   0.694318   0.736373
H  -1.248435   0.858619  -1.054298
H   0.061277  -1.725129   1.325431
H   0.835946   0.000311  -0.358933
H  -0.432309  -0.921977  -0.472790
