14
butane_opt
C  -3.914482   0.249041   0.082057
C  -2.712551  -0.574974  -0.038535
H  -4.880498  -0.412477   0.106875
H  -3.965565   0.804916  -0.840947
H  -3.844251   0.923201   0.973831
C  -1.413034   0.198007  -0.018316
H  -2.827058  -1.482737  -1.106187
H  -2.815387  -0.998875   0.703562
C  -0.130380  -0.731440   0.091720
H  -1.366342   0.854775   0.883403
H  -1.480631   0.951677  -1.022872
H  -0.102818  -1.625175   1.160919
H   0.713626  -0.174797  -0.236251
H  -0.379022  -1.004316  -0.524186
