butane_opt
 OpenBabel08242015383D

 14 13  0  0  0  0  0  0  0  0999 V2000
   -3.9547    0.2589   -0.0137 C   0  0  0  0  0  0  0  0  0  0  0  0
   -2.7059   -0.6023    0.0766 C   0  0  0  0  0  0  0  0  0  0  0  0
   -4.8734   -0.3663   -0.0895 H   0  0  0  0  0  0  0  0  0  0  0  0
   -3.8720    0.7988   -0.8691 H   0  0  0  0  0  0  0  0  0  0  0  0
   -4.0484    0.9514    0.8621 H   0  0  0  0  0  0  0  0  0  0  0  0
   -1.4081    0.1912    0.0373 C   0  0  0  0  0  0  0  0  0  0  0  0
   -2.7086   -1.2436   -0.7271 H   0  0  0  0  0  0  0  0  0  0  0  0
   -2.7667   -1.2931    1.0442 H   0  0  0  0  0  0  0  0  0  0  0  0
   -0.1392   -0.6932    0.0002 C   0  0  0  0  0  0  0  0  0  0  0  0
   -1.3986    0.9029    0.9027 H   0  0  0  0  0  0  0  0  0  0  0  0
   -1.3809    0.8189   -0.8452 H   0  0  0  0  0  0  0  0  0  0  0  0
   -0.0582   -1.3255    0.8906 H   0  0  0  0  0  0  0  0  0  0  0  0
    0.7252   -0.1592   -0.0234 H   0  0  0  0  0  0  0  0  0  0  0  0
   -0.1447   -1.4216   -0.9091 H   0  0  0  0  0  0  0  0  0  0  0  0
  1  2  1  0  0  0  0
  1  5  1  0  0  0  0
  2  8  1  0  0  0  0
  3  1  1  0  0  0  0
  4  1  1  0  0  0  0
  6  2  1  0  0  0  0
  6 10  1  0  0  0  0
  7  2  1  0  0  0  0
  9  6  1  0  0  0  0
  9 12  1  0  0  0  0
 11  6  1  0  0  0  0
 13  9  1  0  0  0  0
 14  9  1  0  0  0  0
M  END
$$$$
