14
butane_opt
C  -3.930868   0.279837  -0.032808
C  -2.648247  -0.641828   0.139411
H  -4.825772  -0.202077  -0.385035
H  -3.688119   0.791330  -0.957957
H  -4.255902   1.081921   0.817464
C  -1.432354   0.150625   0.080160
H  -2.479917  -1.279768  -0.596717
H  -2.756859  -1.366018   1.093497
C  -0.199333  -0.648653  -0.042326
H  -1.311269   0.707366   0.834635
H  -1.336926   0.737488  -0.804179
H  -0.039004  -1.151011   0.746881
H   0.635684  -0.101296  -0.035858
H  -0.434152  -1.367945  -0.982799
