butane_opt
 OpenBabel08242015383D

 14 13  0  0  0  0  0  0  0  0999 V2000
   -3.9491    0.2611    0.0067 C   0  0  0  0  0  0  0  0  0  0  0  0
   -2.6990   -0.6149    0.0399 C   0  0  0  0  0  0  0  0  0  0  0  0
   -4.8715   -0.3673    0.1465 H   0  0  0  0  0  0  0  0  0  0  0  0
   -4.0021    0.9920   -0.9861 H   0  0  0  0  0  0  0  0  0  0  0  0
   -3.9078    0.8044    0.7783 H   0  0  0  0  0  0  0  0  0  0  0  0
   -1.4006    0.2086    0.0370 C   0  0  0  0  0  0  0  0  0  0  0  0
   -2.7374   -1.2754   -0.8047 H   0  0  0  0  0  0  0  0  0  0  0  0
   -2.7512   -1.2611    0.9546 H   0  0  0  0  0  0  0  0  0  0  0  0
   -0.1655   -0.7080    0.0142 C   0  0  0  0  0  0  0  0  0  0  0  0
   -1.3942    0.9188    0.9455 H   0  0  0  0  0  0  0  0  0  0  0  0
   -1.3531    0.7994   -0.8312 H   0  0  0  0  0  0  0  0  0  0  0  0
   -0.0797   -1.3038    0.9080 H   0  0  0  0  0  0  0  0  0  0  0  0
    0.7582   -0.1215    0.0217 H   0  0  0  0  0  0  0  0  0  0  0  0
   -0.1171   -1.4160   -0.8856 H   0  0  0  0  0  0  0  0  0  0  0  0
  1  2  1  0  0  0  0
  1  3  1  0  0  0  0
  1  5  1  0  0  0  0
  2  8  1  0  0  0  0
  4  1  1  0  0  0  0
  6  2  1  0  0  0  0
  6 10  1  0  0  0  0
  7  2  1  0  0  0  0
  9 13  1  0  0  0  0
  9  6  1  0  0  0  0
  9 12  1  0  0  0  0
 11  6  1  0  0  0  0
 14  9  1  0  0  0  0
M  END
$$$$
