14
butane_opt
C  -3.912388   0.219533  -0.042508
C  -2.709799  -0.587957   0.054587
H  -4.850888  -0.333592   0.408480
H  -4.034420   1.291579  -1.229720
H  -3.594036   0.417072   0.495375
C  -1.398331   0.234154   0.130406
H  -2.664948  -1.053395  -0.711925
H  -2.765373  -1.219996   1.034368
C  -0.195360  -0.734316  -0.040465
H  -1.580943   1.047914   1.085490
H  -1.361087   0.773385  -0.664625
H  -0.028802  -1.197309   0.726858
H   0.654981  -0.240897   0.049792
H  -0.196501  -1.557143  -1.066678
