butane_opt
 OpenBabel08242015383D

 14 13  0  0  0  0  0  0  0  0999 V2000
   -3.9380    0.2352    0.1117 C   0  0  0  0  0  0  0  0  0  0  0  0
   -2.7215   -0.6149   -0.0852 C   0  0  0  0  0  0  0  0  0  0  0  0
   -4.9188   -0.2993    0.1054 H   0  0  0  0  0  0  0  0  0  0  0  0
   -4.0542    0.7378   -0.7303 H   0  0  0  0  0  0  0  0  0  0  0  0
   -3.8732    1.0063    1.0500 H   0  0  0  0  0  0  0  0  0  0  0  0
   -1.4337    0.2494   -0.0493 C   0  0  0  0  0  0  0  0  0  0  0  0
   -2.8291   -1.5474   -1.1211 H   0  0  0  0  0  0  0  0  0  0  0  0
   -2.8057   -1.0994    0.6862 H   0  0  0  0  0  0  0  0  0  0  0  0
   -0.0941   -0.7271    0.1529 C   0  0  0  0  0  0  0  0  0  0  0  0
   -1.5858    0.8626    0.7416 H   0  0  0  0  0  0  0  0  0  0  0  0
   -1.2926    1.0466   -1.0043 H   0  0  0  0  0  0  0  0  0  0  0  0
    0.1224   -1.6096    1.1686 H   0  0  0  0  0  0  0  0  0  0  0  0
    0.6908   -0.2768   -0.4503 H   0  0  0  0  0  0  0  0  0  0  0  0
   -0.2110   -1.0137   -0.5310 H   0  0  0  0  0  0  0  0  0  0  0  0
  1  5  1  0  0  0  0
  2  6  1  0  0  0  0
  2  1  1  0  0  0  0
  2  8  1  0  0  0  0
  3  1  1  0  0  0  0
  4  1  1  0  0  0  0
  6  9  1  0  0  0  0
  6 10  1  0  0  0  0
  7  2  1  0  0  0  0
  9 12  1  0  0  0  0
 11  6  1  0  0  0  0
 13  9  1  0  0  0  0
 14  9  1  0  0  0  0
M  END
$$$$
