14
butane_opt
C  -3.954968   0.233030  -0.116552
C  -2.734401  -0.565811   0.119580
H  -4.950656  -0.413291   0.077773
H  -4.060009   0.950200  -1.063028
H  -3.818215   0.744463   0.725727
C  -1.391539   0.226422   0.170633
H  -2.655363  -1.174008  -0.670739
H  -2.876489  -1.258344   1.090726
C  -0.135558  -0.738684  -0.074758
H  -1.259834   1.100645   1.073821
H  -1.490797   0.707384  -0.610599
H   0.221188  -1.536087   0.928653
H   0.753624  -0.106139  -0.372659
H  -0.276837  -1.358882  -0.928909
