butane_opt
 OpenBabel08242015383D

 14 13  0  0  0  0  0  0  0  0999 V2000
   -3.9309    0.2798   -0.0328 C   0  0  0  0  0  0  0  0  0  0  0  0
   -2.6482   -0.6418    0.1394 C   0  0  0  0  0  0  0  0  0  0  0  0
   -4.8258   -0.2021   -0.3850 H   0  0  0  0  0  0  0  0  0  0  0  0
   -3.6881    0.7913   -0.9580 H   0  0  0  0  0  0  0  0  0  0  0  0
   -4.2559    1.0819    0.8175 H   0  0  0  0  0  0  0  0  0  0  0  0
   -1.4324    0.1506    0.0802 C   0  0  0  0  0  0  0  0  0  0  0  0
   -2.4799   -1.2798   -0.5967 H   0  0  0  0  0  0  0  0  0  0  0  0
   -2.7569   -1.3660    1.0935 H   0  0  0  0  0  0  0  0  0  0  0  0
   -0.1993   -0.6487   -0.0423 C   0  0  0  0  0  0  0  0  0  0  0  0
   -1.3113    0.7074    0.8346 H   0  0  0  0  0  0  0  0  0  0  0  0
   -1.3369    0.7375   -0.8042 H   0  0  0  0  0  0  0  0  0  0  0  0
   -0.0390   -1.1510    0.7469 H   0  0  0  0  0  0  0  0  0  0  0  0
    0.6357   -0.1013   -0.0359 H   0  0  0  0  0  0  0  0  0  0  0  0
   -0.4342   -1.3679   -0.9828 H   0  0  0  0  0  0  0  0  0  0  0  0
  1  2  1  0  0  0  0
  1  5  1  0  0  0  0
  2  8  1  0  0  0  0
  3  1  1  0  0  0  0
  4  1  1  0  0  0  0
  6  2  1  0  0  0  0
  6 10  1  0  0  0  0
  7  2  1  0  0  0  0
  9 13  1  0  0  0  0
  9  6  1  0  0  0  0
  9 12  1  0  0  0  0
 11  6  1  0  0  0  0
 14  9  1  0  0  0  0
M  END
$$$$
