butane_opt
 OpenBabel08242015383D

 14 13  0  0  0  0  0  0  0  0999 V2000
   -3.9292    0.2426    0.0758 C   0  0  0  0  0  0  0  0  0  0  0  0
   -2.7490   -0.5767   -0.0739 C   0  0  0  0  0  0  0  0  0  0  0  0
   -4.9721   -0.3916    0.2773 H   0  0  0  0  0  0  0  0  0  0  0  0
   -4.1170    0.9245   -0.8842 H   0  0  0  0  0  0  0  0  0  0  0  0
   -3.7206    0.9075    0.9162 H   0  0  0  0  0  0  0  0  0  0  0  0
   -1.4086    0.2145   -0.0163 C   0  0  0  0  0  0  0  0  0  0  0  0
   -2.8512   -1.2500   -0.9223 H   0  0  0  0  0  0  0  0  0  0  0  0
   -2.6816   -1.3552    0.9164 H   0  0  0  0  0  0  0  0  0  0  0  0
   -0.1118   -0.7172    0.1000 C   0  0  0  0  0  0  0  0  0  0  0  0
   -1.5152    0.9289    0.7555 H   0  0  0  0  0  0  0  0  0  0  0  0
   -1.3111    0.7948   -0.8939 H   0  0  0  0  0  0  0  0  0  0  0  0
   -0.1464   -1.4243    1.1079 H   0  0  0  0  0  0  0  0  0  0  0  0
    0.7854   -0.1773   -0.0835 H   0  0  0  0  0  0  0  0  0  0  0  0
   -0.0938   -1.3988   -0.7977 H   0  0  0  0  0  0  0  0  0  0  0  0
  1  3  1  0  0  0  0
  1  5  1  0  0  0  0
  2  6  1  0  0  0  0
  2  1  1  0  0  0  0
  2  8  1  0  0  0  0
  4  1  1  0  0  0  0
  6  9  1  0  0  0  0
  6 10  1  0  0  0  0
  7  2  1  0  0  0  0
  9 12  1  0  0  0  0
 11  6  1  0  0  0  0
 13  9  1  0  0  0  0
 14  9  1  0  0  0  0
M  END
$$$$
