butane_opt
 OpenBabel08242015383D

 14 12  0  0  0  0  0  0  0  0999 V2000
   -3.9371    0.2798    0.1022 C   0  0  0  0  0  0  0  0  0  0  0  0
   -2.6935   -0.6418   -0.0827 C   0  0  0  0  0  0  0  0  0  0  0  0
   -4.8385   -0.2222   -0.1054 H   0  0  0  0  0  0  0  0  0  0  0  0
   -4.0379    0.7720   -0.6826 H   0  0  0  0  0  0  0  0  0  0  0  0
   -3.8708    1.1878    1.1421 H   0  0  0  0  0  0  0  0  0  0  0  0
   -1.3830    0.1633   -0.0448 C   0  0  0  0  0  0  0  0  0  0  0  0
   -2.7209   -1.3748   -1.0130 H   0  0  0  0  0  0  0  0  0  0  0  0
   -2.7712   -1.3697    0.8403 H   0  0  0  0  0  0  0  0  0  0  0  0
   -0.1876   -0.6582    0.1043 C   0  0  0  0  0  0  0  0  0  0  0  0
   -1.5323    0.8639    0.7853 H   0  0  0  0  0  0  0  0  0  0  0  0
   -1.2695    0.8036   -0.8783 H   0  0  0  0  0  0  0  0  0  0  0  0
    0.0109   -1.6817    1.3339 H   0  0  0  0  0  0  0  0  0  0  0  0
    0.6923   -0.1364   -0.3683 H   0  0  0  0  0  0  0  0  0  0  0  0
   -0.2887   -1.0146   -0.5185 H   0  0  0  0  0  0  0  0  0  0  0  0
  1  5  1  0  0  0  0
  2  6  1  0  0  0  0
  2  1  1  0  0  0  0
  2  8  1  0  0  0  0
  3  1  1  0  0  0  0
  4  1  1  0  0  0  0
  6  9  1  0  0  0  0
  6 10  1  0  0  0  0
  7  2  1  0  0  0  0
 11  6  1  0  0  0  0
 13  9  1  0  0  0  0
 14  9  1  0  0  0  0
M  RAD  2   9   2  12   2
M  END
$$$$
