14
butane_opt
C  -3.965344   0.235161   0.096730
C  -2.744198  -0.609475  -0.008352
H  -4.833857  -0.364590  -0.254182
H  -3.860021   0.545189  -0.558567
H  -3.884077   1.323726   1.240428
C  -1.432234   0.227481  -0.125226
H  -2.804470  -1.196403  -0.830172
H  -2.734100  -1.180840   0.817962
C  -0.092826  -0.736701   0.091827
H  -1.485730   0.877566   0.666976
H  -1.284943   0.926760  -1.007422
H  -0.195019  -1.489920   1.167841
H   0.823080  -0.072198   0.193761
H   0.047419  -1.259468  -0.611054
