14
butane_opt
C  -3.984356   0.240679   0.065580
C  -2.733068  -0.594528  -0.093615
H  -4.906914  -0.405136   0.665084
H  -4.218012   0.991135  -0.881691
H  -3.532836   0.746209   0.887025
C  -1.419445   0.214363  -0.037385
H  -2.779561  -1.271756  -0.920552
H  -2.508618  -1.234676   0.731248
C  -0.112770  -0.709438   0.123110
H  -1.466146   1.035403   0.867893
H  -1.286048   0.836595  -1.003120
H  -0.070394  -1.379839   1.041342
H   0.748043  -0.266725   0.101806
H  -0.010237  -1.336544  -0.754658
