14
butane_opt
C  -3.933981   0.298162  -0.062009
C  -2.693359  -0.621638   0.068184
H  -4.865816  -0.309423   0.065184
H  -3.964200   0.846250  -0.945515
H  -4.075491   0.935774   0.734493
C  -1.366771   0.153085   0.125447
H  -2.741509  -1.398101  -0.832619
H  -2.690090  -1.314074   1.026380
C  -0.182846  -0.694093  -0.014019
H  -1.404947   0.903559   1.008442
H  -1.461686   0.754442  -0.681595
H   0.105377  -1.409026   0.992857
H   0.782787   0.009664  -0.551209
H  -0.581109  -1.102275  -0.770639
