14
butane_opt
C  -3.997062   0.305443   0.100909
C  -2.683706  -0.683029  -0.028840
H  -4.827449  -0.233850  -0.359951
H  -3.849677   0.466981  -0.404680
H  -4.274892   1.482113   1.260601
C  -1.375028   0.151937  -0.125810
H  -2.708328  -1.323456  -0.793673
H  -2.651943  -1.285273   0.906277
C  -0.170706  -0.641399   0.128871
H  -1.436473   0.673090   0.626858
H  -1.314077   0.790673  -1.071273
H  -0.054187  -1.465093   1.170015
H   0.769623   0.048827  -0.059072
H  -0.009333  -1.207401  -0.668116
