butane_opt
 OpenBabel08242015383D

 14 13  0  0  0  0  0  0  0  0999 V2000
   -3.9944    0.3005   -0.0643 C   0  0  0  0  0  0  0  0  0  0  0  0
   -2.6902   -0.6743    0.0912 C   0  0  0  0  0  0  0  0  0  0  0  0
   -4.7840   -0.1497    0.1272 H   0  0  0  0  0  0  0  0  0  0  0  0
   -3.9296    0.9735   -1.0340 H   0  0  0  0  0  0  0  0  0  0  0  0
   -4.1134    0.8734    0.7143 H   0  0  0  0  0  0  0  0  0  0  0  0
   -1.3619    0.1734    0.1223 C   0  0  0  0  0  0  0  0  0  0  0  0
   -2.6277   -1.2802   -0.6737 H   0  0  0  0  0  0  0  0  0  0  0  0
   -2.9588   -1.2946    1.0253 H   0  0  0  0  0  0  0  0  0  0  0  0
   -0.1536   -0.6679   -0.0457 C   0  0  0  0  0  0  0  0  0  0  0  0
   -1.2858    0.8656    0.9968 H   0  0  0  0  0  0  0  0  0  0  0  0
   -1.3785    0.7965   -0.6609 H   0  0  0  0  0  0  0  0  0  0  0  0
   -0.0331   -1.3724    0.8500 H   0  0  0  0  0  0  0  0  0  0  0  0
    0.8515    0.0098   -0.2319 H   0  0  0  0  0  0  0  0  0  0  0  0
   -0.3909   -1.4436   -0.9065 H   0  0  0  0  0  0  0  0  0  0  0  0
  1  2  1  0  0  0  0
  1  3  1  0  0  0  0
  1  5  1  0  0  0  0
  2  6  1  0  0  0  0
  2  8  1  0  0  0  0
  4  1  1  0  0  0  0
  6 10  1  0  0  0  0
  7  2  1  0  0  0  0
  9  6  1  0  0  0  0
  9 12  1  0  0  0  0
 11  6  1  0  0  0  0
 13  9  1  0  0  0  0
 14  9  1  0  0  0  0
M  END
$$$$
