14
butane_opt
C  -3.900917   0.247799  -0.058482
C  -2.699776  -0.588816   0.082898
H  -4.815964  -0.321889   0.456681
H  -3.992663   1.104852  -1.122073
H  -3.793447   0.566800   0.579884
C  -1.426967   0.209261   0.086750
H  -2.562346  -1.196706  -0.604171
H  -2.909932  -1.180798   0.970796
C  -0.196800  -0.754127  -0.023216
H  -1.289044   1.033134   1.058157
H  -1.472205   0.709478  -0.718719
H  -0.182984  -1.081575   0.676684
H   0.844892  -0.003301   0.088373
H  -0.159814  -1.463645  -1.028049
