butane_opt
 OpenBabel08242015383D

 14 13  0  0  0  0  0  0  0  0999 V2000
   -3.9553    0.2490    0.0936 C   0  0  0  0  0  0  0  0  0  0  0  0
   -2.7551   -0.5905   -0.0496 C   0  0  0  0  0  0  0  0  0  0  0  0
   -4.8494   -0.4405   -0.0850 H   0  0  0  0  0  0  0  0  0  0  0  0
   -4.0341    0.6835   -0.6306 H   0  0  0  0  0  0  0  0  0  0  0  0
   -3.8246    1.0677    1.0939 H   0  0  0  0  0  0  0  0  0  0  0  0
   -1.3872    0.2249   -0.0814 C   0  0  0  0  0  0  0  0  0  0  0  0
   -2.8418   -1.2358   -0.8585 H   0  0  0  0  0  0  0  0  0  0  0  0
   -2.7046   -1.2435    0.8744 H   0  0  0  0  0  0  0  0  0  0  0  0
   -0.1244   -0.7086    0.0992 C   0  0  0  0  0  0  0  0  0  0  0  0
   -1.5732    0.8633    0.7110 H   0  0  0  0  0  0  0  0  0  0  0  0
   -1.1966    0.8683   -0.8855 H   0  0  0  0  0  0  0  0  0  0  0  0
   -0.0634   -1.5928    1.1703 H   0  0  0  0  0  0  0  0  0  0  0  0
    0.6599   -0.2395    0.0106 H   0  0  0  0  0  0  0  0  0  0  0  0
    0.0710   -1.3187   -0.7053 H   0  0  0  0  0  0  0  0  0  0  0  0
  1  5  1  0  0  0  0
  2  1  1  0  0  0  0
  2  8  1  0  0  0  0
  3  1  1  0  0  0  0
  4  1  1  0  0  0  0
  6  2  1  0  0  0  0
  6  9  1  0  0  0  0
  6 10  1  0  0  0  0
  7  2  1  0  0  0  0
  9 12  1  0  0  0  0
 11  6  1  0  0  0  0
 13  9  1  0  0  0  0
 14  9  1  0  0  0  0
M  END
$$$$
