butane_opt
 OpenBabel08242015383D

 14 13  0  0  0  0  0  0  0  0999 V2000
   -3.9307    0.3013   -0.0507 C   0  0  0  0  0  0  0  0  0  0  0  0
   -2.6770   -0.6136    0.0970 C   0  0  0  0  0  0  0  0  0  0  0  0
   -4.8867   -0.3662   -0.1065 H   0  0  0  0  0  0  0  0  0  0  0  0
   -3.9320    0.8805   -0.9732 H   0  0  0  0  0  0  0  0  0  0  0  0
   -4.1364    0.8967    0.6952 H   0  0  0  0  0  0  0  0  0  0  0  0
   -1.3994    0.1129    0.0977 C   0  0  0  0  0  0  0  0  0  0  0  0
   -2.5986   -1.2885   -0.8747 H   0  0  0  0  0  0  0  0  0  0  0  0
   -2.6488   -1.4088    1.0940 H   0  0  0  0  0  0  0  0  0  0  0  0
   -0.1878   -0.6524   -0.0360 C   0  0  0  0  0  0  0  0  0  0  0  0
   -1.2770    1.0481    1.1406 H   0  0  0  0  0  0  0  0  0  0  0  0
   -1.5815    0.5121   -0.6055 H   0  0  0  0  0  0  0  0  0  0  0  0
    0.1293   -1.4743    1.0248 H   0  0  0  0  0  0  0  0  0  0  0  0
    0.7222   -0.0282   -0.4199 H   0  0  0  0  0  0  0  0  0  0  0  0
   -0.4778   -1.0134   -0.7895 H   0  0  0  0  0  0  0  0  0  0  0  0
  1  2  1  0  0  0  0
  1  5  1  0  0  0  0
  2  6  1  0  0  0  0
  2  8  1  0  0  0  0
  3  1  1  0  0  0  0
  4  1  1  0  0  0  0
  6 10  1  0  0  0  0
  7  2  1  0  0  0  0
  9  6  1  0  0  0  0
  9 12  1  0  0  0  0
 11  6  1  0  0  0  0
 13  9  1  0  0  0  0
 14  9  1  0  0  0  0
M  END
$$$$
