butane_opt
 OpenBabel08242015383D

 14 13  0  0  0  0  0  0  0  0999 V2000
   -3.9224    0.2347    0.0858 C   0  0  0  0  0  0  0  0  0  0  0  0
   -2.7640   -0.5648   -0.0309 C   0  0  0  0  0  0  0  0  0  0  0  0
   -4.8983   -0.4466    0.2120 H   0  0  0  0  0  0  0  0  0  0  0  0
   -4.0901    0.6476   -0.6387 H   0  0  0  0  0  0  0  0  0  0  0  0
   -3.9168    1.1801    1.0852 H   0  0  0  0  0  0  0  0  0  0  0  0
   -1.4030    0.2075   -0.1190 C   0  0  0  0  0  0  0  0  0  0  0  0
   -2.8775   -1.2270   -0.9219 H   0  0  0  0  0  0  0  0  0  0  0  0
   -2.6779   -1.2823    0.8803 H   0  0  0  0  0  0  0  0  0  0  0  0
   -0.1082   -0.7305    0.1169 C   0  0  0  0  0  0  0  0  0  0  0  0
   -1.4352    0.7867    0.6936 H   0  0  0  0  0  0  0  0  0  0  0  0
   -1.3967    0.9462   -1.1365 H   0  0  0  0  0  0  0  0  0  0  0  0
   -0.3176   -1.1892    0.9233 H   0  0  0  0  0  0  0  0  0  0  0  0
    0.7817   -0.2414    0.4385 H   0  0  0  0  0  0  0  0  0  0  0  0
    0.2055   -1.4267   -0.7036 H   0  0  0  0  0  0  0  0  0  0  0  0
  1  3  1  0  0  0  0
  1  5  1  0  0  0  0
  2  1  1  0  0  0  0
  2  8  1  0  0  0  0
  4  1  1  0  0  0  0
  6  2  1  0  0  0  0
  6  9  1  0  0  0  0
  6 10  1  0  0  0  0
  7  2  1  0  0  0  0
  9 13  1  0  0  0  0
  9 12  1  0  0  0  0
 11  6  1  0  0  0  0
 14  9  1  0  0  0  0
M  END
$$$$
