14
butane_opt
C  -3.977517   0.253459  -0.057853
C  -2.698835  -0.612907   0.098324
H  -4.934945  -0.397151   0.453143
H  -3.943595   1.117342  -1.113408
H  -3.875650   0.488289   0.518691
C  -1.414336   0.243356   0.104077
H  -2.655175  -1.350465  -0.810063
H  -2.895207  -1.088429   0.838726
C  -0.137658  -0.724396  -0.038406
H  -1.293910   1.002944   1.032694
H  -1.505262   0.746375  -0.636518
H   0.115432  -1.268295   0.895066
H   0.701345  -0.191794  -0.095176
H  -0.013499  -1.449973  -0.933530
