14
butane_opt
C  -3.968980   0.233406   0.072434
C  -2.715494  -0.581267  -0.042846
H  -4.800656  -0.292102   0.442934
H  -4.202546   0.803738  -0.768255
H  -3.875877   0.871538   0.914355
C  -1.419822   0.196205  -0.083640
H  -2.659202  -1.221553  -0.845143
H  -2.831039  -1.171993   0.895744
C  -0.109339  -0.719915   0.110175
H  -1.448417   0.880285   0.697268
H  -1.333071   0.837418  -0.953430
H  -0.246331  -1.207642   0.941937
H   0.826516  -0.050417   0.349587
H   0.116662  -1.477151  -0.898944
