butane_opt
 OpenBabel08242015383D

 14 12  0  0  0  0  0  0  0  0999 V2000
   -3.9580    0.2192    0.1066 C   0  0  0  0  0  0  0  0  0  0  0  0
   -2.7325   -0.5683    0.0210 C   0  0  0  0  0  0  0  0  0  0  0  0
   -4.9236   -0.4624   -0.4783 H   0  0  0  0  0  0  0  0  0  0  0  0
   -3.8491    0.5209   -0.6359 H   0  0  0  0  0  0  0  0  0  0  0  0
   -4.1186    1.3054    1.2728 H   0  0  0  0  0  0  0  0  0  0  0  0
   -1.3930    0.2343   -0.1310 C   0  0  0  0  0  0  0  0  0  0  0  0
   -2.9224   -1.3739   -0.8743 H   0  0  0  0  0  0  0  0  0  0  0  0
   -2.6846   -1.0875    0.7829 H   0  0  0  0  0  0  0  0  0  0  0  0
   -0.0872   -0.7282    0.1148 C   0  0  0  0  0  0  0  0  0  0  0  0
   -1.6217    0.7569    0.6489 H   0  0  0  0  0  0  0  0  0  0  0  0
   -1.3878    0.9759   -1.0470 H   0  0  0  0  0  0  0  0  0  0  0  0
   -0.1115   -1.4491    1.1464 H   0  0  0  0  0  0  0  0  0  0  0  0
    0.7129   -0.2561   -0.0134 H   0  0  0  0  0  0  0  0  0  0  0  0
   -0.0352   -1.3095   -0.6788 H   0  0  0  0  0  0  0  0  0  0  0  0
  2  1  1  0  0  0  0
  2  8  1  0  0  0  0
  3  1  1  0  0  0  0
  4  1  1  0  0  0  0
  6  2  1  0  0  0  0
  6  9  1  0  0  0  0
  6 10  1  0  0  0  0
  7  2  1  0  0  0  0
  9 12  1  0  0  0  0
 11  6  1  0  0  0  0
 13  9  1  0  0  0  0
 14  9  1  0  0  0  0
M  RAD  2   1   2   5   2
M  END
$$$$
