butane_opt
 OpenBabel08242015383D

 14 13  0  0  0  0  0  0  0  0999 V2000
   -3.9439    0.2556    0.0456 C   0  0  0  0  0  0  0  0  0  0  0  0
   -2.7125   -0.6137    0.0055 C   0  0  0  0  0  0  0  0  0  0  0  0
   -4.8725   -0.3311    0.0846 H   0  0  0  0  0  0  0  0  0  0  0  0
   -3.9635    0.8938   -0.8611 H   0  0  0  0  0  0  0  0  0  0  0  0
   -3.9371    0.8963    0.8759 H   0  0  0  0  0  0  0  0  0  0  0  0
   -1.3995    0.2027   -0.0050 C   0  0  0  0  0  0  0  0  0  0  0  0
   -2.8051   -1.3154   -0.8728 H   0  0  0  0  0  0  0  0  0  0  0  0
   -2.6712   -1.1732    0.8360 H   0  0  0  0  0  0  0  0  0  0  0  0
   -0.1490   -0.7015    0.0513 C   0  0  0  0  0  0  0  0  0  0  0  0
   -1.4155    0.8511    0.8553 H   0  0  0  0  0  0  0  0  0  0  0  0
   -1.3784    0.8525   -0.9033 H   0  0  0  0  0  0  0  0  0  0  0  0
   -0.0792   -1.3891    0.9981 H   0  0  0  0  0  0  0  0  0  0  0  0
    0.6892   -0.1764    0.0023 H   0  0  0  0  0  0  0  0  0  0  0  0
   -0.1285   -1.3045   -0.7416 H   0  0  0  0  0  0  0  0  0  0  0  0
  1  3  1  0  0  0  0
  1  5  1  0  0  0  0
  2  1  1  0  0  0  0
  2  8  1  0  0  0  0
  4  1  1  0  0  0  0
  6  2  1  0  0  0  0
  6  9  1  0  0  0  0
  6 10  1  0  0  0  0
  7  2  1  0  0  0  0
  9 12  1  0  0  0  0
 11  6  1  0  0  0  0
 13  9  1  0  0  0  0
 14  9  1  0  0  0  0
M  END
$$$$
