butane_opt
 OpenBabel08242015383D

 14 13  0  0  0  0  0  0  0  0999 V2000
   -3.9582    0.2491    0.1422 C   0  0  0  0  0  0  0  0  0  0  0  0
   -2.7471   -0.5597   -0.1244 C   0  0  0  0  0  0  0  0  0  0  0  0
   -4.9624   -0.4194    0.4849 H   0  0  0  0  0  0  0  0  0  0  0  0
   -4.0648    0.8291   -0.7852 H   0  0  0  0  0  0  0  0  0  0  0  0
   -3.7858    0.7373    0.9156 H   0  0  0  0  0  0  0  0  0  0  0  0
   -1.3878    0.2048   -0.0982 C   0  0  0  0  0  0  0  0  0  0  0  0
   -2.7866   -1.2937   -0.9982 H   0  0  0  0  0  0  0  0  0  0  0  0
   -2.7229   -1.1639    0.6635 H   0  0  0  0  0  0  0  0  0  0  0  0
   -0.1053   -0.7160    0.1579 C   0  0  0  0  0  0  0  0  0  0  0  0
   -1.5948    0.8496    0.7089 H   0  0  0  0  0  0  0  0  0  0  0  0
   -1.2441    0.8421   -1.0149 H   0  0  0  0  0  0  0  0  0  0  0  0
   -0.0911   -1.3973    1.1282 H   0  0  0  0  0  0  0  0  0  0  0  0
    0.6207   -0.2386    0.1068 H   0  0  0  0  0  0  0  0  0  0  0  0
   -0.0022   -1.3728   -0.6935 H   0  0  0  0  0  0  0  0  0  0  0  0
  1  3  1  0  0  0  0
  1  5  1  0  0  0  0
  2  6  1  0  0  0  0
  2  1  1  0  0  0  0
  2  8  1  0  0  0  0
  4  1  1  0  0  0  0
  6  9  1  0  0  0  0
  6 10  1  0  0  0  0
  7  2  1  0  0  0  0
  9 12  1  0  0  0  0
 11  6  1  0  0  0  0
 13  9  1  0  0  0  0
 14  9  1  0  0  0  0
M  END
$$$$
