14
butane_opt
C  -3.944781   0.256173   0.048846
C  -2.716932  -0.632027   0.018849
H  -4.979607  -0.397688  -0.201618
H  -3.954527   0.804367  -0.812409
H  -3.989404   1.090955   0.993099
C  -1.407041   0.226524  -0.022818
H  -2.877125  -1.369302  -0.881119
H  -2.736875  -1.207605   0.864378
C  -0.121380  -0.705528   0.056903
H  -1.413403   1.084598   0.935373
H  -1.242327   0.813608  -0.809835
H   0.019416  -1.727775   1.102005
H   0.612739  -0.221762  -0.301459
H  -0.154883  -1.116490  -0.652368
