butane_opt
 OpenBabel08242015383D

 14 13  0  0  0  0  0  0  0  0999 V2000
   -3.9229    0.2497    0.0275 C   0  0  0  0  0  0  0  0  0  0  0  0
   -2.6935   -0.5871    0.0772 C   0  0  0  0  0  0  0  0  0  0  0  0
   -4.9650   -0.5048    0.0125 H   0  0  0  0  0  0  0  0  0  0  0  0
   -3.7197    0.8726   -0.9037 H   0  0  0  0  0  0  0  0  0  0  0  0
   -3.9930    0.8560    0.8612 H   0  0  0  0  0  0  0  0  0  0  0  0
   -1.4041    0.2119   -0.0191 C   0  0  0  0  0  0  0  0  0  0  0  0
   -2.6907   -1.1706   -0.7254 H   0  0  0  0  0  0  0  0  0  0  0  0
   -2.7501   -1.1154    0.9642 H   0  0  0  0  0  0  0  0  0  0  0  0
   -0.1918   -0.7294    0.0362 C   0  0  0  0  0  0  0  0  0  0  0  0
   -1.4936    0.8332    0.7470 H   0  0  0  0  0  0  0  0  0  0  0  0
   -1.3993    0.9031   -1.0288 H   0  0  0  0  0  0  0  0  0  0  0  0
   -0.2655   -1.1130    0.6566 H   0  0  0  0  0  0  0  0  0  0  0  0
    0.8015   -0.0670    0.3626 H   0  0  0  0  0  0  0  0  0  0  0  0
    0.0088   -1.7294   -0.9883 H   0  0  0  0  0  0  0  0  0  0  0  0
  1  2  1  0  0  0  0
  1  5  1  0  0  0  0
  2  8  1  0  0  0  0
  3  1  1  0  0  0  0
  4  1  1  0  0  0  0
  6  9  1  0  0  0  0
  6  2  1  0  0  0  0
  6 10  1  0  0  0  0
  7  2  1  0  0  0  0
  9 13  1  0  0  0  0
  9 12  1  0  0  0  0
 11  6  1  0  0  0  0
 14  9  1  0  0  0  0
M  END
$$$$
