14
butane_opt
C  -3.924997   0.283647  -0.045257
C  -2.677077  -0.605486   0.041701
H  -4.770428  -0.290024   0.449904
H  -4.195437   1.334540  -1.238437
H  -3.849753   0.593910   0.567261
C  -1.400213   0.133884   0.117432
H  -2.607538  -1.234663  -0.699943
H  -2.766256  -1.389304   1.096586
C  -0.219813  -0.681121  -0.038084
H  -1.200059   0.946048   1.110864
H  -1.452762   0.533300  -0.658216
H  -0.146496  -1.208916   0.786516
H   0.932183   0.104477   0.119069
H  -0.319634  -1.379797  -1.033363
