14
butane_opt
C  -3.941270   0.231442  -0.061348
C  -2.681906  -0.553263   0.138625
H  -4.888814  -0.449041  -0.402137
H  -3.706173   0.647992  -0.883068
H  -4.021415   0.940421   0.892999
C  -1.413306   0.234884   0.091686
H  -2.609073  -1.172811  -0.694321
H  -2.797031  -1.435378   1.175075
C  -0.164964  -0.728727  -0.068704
H  -1.284419   0.910626   1.014693
H  -1.710468   0.778122  -0.767952
H  -0.032754  -1.363808   0.894921
H   0.665667  -0.210821  -0.105077
H  -0.205138  -1.329498  -0.858171
