butane_opt
 OpenBabel08242015383D

 14 12  0  0  0  0  0  0  0  0999 V2000
   -3.9653    0.2352    0.0967 C   0  0  0  0  0  0  0  0  0  0  0  0
   -2.7442   -0.6095   -0.0084 C   0  0  0  0  0  0  0  0  0  0  0  0
   -4.8339   -0.3646   -0.2542 H   0  0  0  0  0  0  0  0  0  0  0  0
   -3.8600    0.5452   -0.5586 H   0  0  0  0  0  0  0  0  0  0  0  0
   -3.8841    1.3237    1.2404 H   0  0  0  0  0  0  0  0  0  0  0  0
   -1.4322    0.2275   -0.1252 C   0  0  0  0  0  0  0  0  0  0  0  0
   -2.8045   -1.1964   -0.8302 H   0  0  0  0  0  0  0  0  0  0  0  0
   -2.7341   -1.1808    0.8180 H   0  0  0  0  0  0  0  0  0  0  0  0
   -0.0928   -0.7367    0.0918 C   0  0  0  0  0  0  0  0  0  0  0  0
   -1.4857    0.8776    0.6670 H   0  0  0  0  0  0  0  0  0  0  0  0
   -1.2849    0.9268   -1.0074 H   0  0  0  0  0  0  0  0  0  0  0  0
   -0.1950   -1.4899    1.1678 H   0  0  0  0  0  0  0  0  0  0  0  0
    0.8231   -0.0722    0.1938 H   0  0  0  0  0  0  0  0  0  0  0  0
    0.0474   -1.2595   -0.6111 H   0  0  0  0  0  0  0  0  0  0  0  0
  2  1  1  0  0  0  0
  2  8  1  0  0  0  0
  3  1  1  0  0  0  0
  4  1  1  0  0  0  0
  6  2  1  0  0  0  0
  6  9  1  0  0  0  0
  6 10  1  0  0  0  0
  7  2  1  0  0  0  0
  9 13  1  0  0  0  0
  9 12  1  0  0  0  0
 11  6  1  0  0  0  0
 14  9  1  0  0  0  0
M  RAD  2   1   2   5   2
M  END
$$$$
