14
butane_opt
C  -3.877926   0.239056  -0.089676
C  -2.696364  -0.578342   0.157881
H  -4.933680  -0.515243  -0.001538
H  -4.016905   0.918602  -0.982598
H  -3.810891   0.777236   0.772673
C  -1.426330   0.210535   0.057371
H  -2.668860  -1.012364  -0.587070
H  -2.749562  -1.478291   1.266807
C  -0.190997  -0.720385  -0.049884
H  -1.402503   1.002729   0.973384
H  -1.564323   0.846070  -0.783007
H  -0.136679  -0.836253   0.571545
H   0.547481  -0.280006   0.412933
H   0.048195  -1.761580  -1.178157
