14
butane_opt
C  -3.940602   0.242126   0.088056
C  -2.722311  -0.594430  -0.061440
H  -4.921651  -0.496272   0.017361
H  -4.010257   0.702200  -0.653219
H  -3.942996   0.998863   0.975098
C  -1.427085   0.225066   0.001702
H  -2.904250  -1.354980  -1.100030
H  -2.668865  -0.936842   0.609432
C  -0.089918  -0.744639   0.091968
H  -1.474855   0.817982   0.728513
H  -1.474211   0.997884  -0.985106
H   0.074082  -1.792501   1.259900
H   0.785049  -0.121661  -0.330439
H  -0.296304  -0.852650  -0.446767
