14
butane_opt
C  -3.903043   0.246376   0.117435
C  -2.680265  -0.608430  -0.081657
H  -4.836211  -0.396853   0.386683
H  -4.079289   0.995898  -0.761481
H  -3.985783   0.872497   0.916150
C  -1.413034   0.201929  -0.068003
H  -2.896501  -1.593694  -1.118268
H  -2.562993  -1.065926   0.625874
C  -0.165996  -0.717477   0.127788
H  -1.682136   0.949971   0.735869
H  -1.358632   0.924420  -1.065005
H  -0.205409  -1.428388   1.165069
H   0.713658  -0.102258  -0.035802
H  -0.156162  -1.102452  -0.546365
