14
butane_opt
C  -3.950215   0.291860  -0.022664
C  -2.687493  -0.684245   0.057319
H  -4.802417  -0.342206   0.329182
H  -4.201604   1.138057  -1.021399
H  -3.918401   0.813099   0.716304
C  -1.418548   0.192201   0.063836
H  -2.744537  -1.371954  -0.798512
H  -2.824008  -1.177857   0.855163
C  -0.137412  -0.675103   0.013092
H  -1.434665   0.890443   0.914455
H  -1.347516   0.822150  -0.771635
H  -0.132720  -1.281445   0.841504
H   0.800910  -0.054613  -0.052198
H  -0.107563  -1.393214  -0.944104
