14
butane_opt
C  -3.961835   0.236828  -0.052659
C  -2.726652  -0.556644   0.098722
H  -4.984713  -0.553058   0.279810
H  -4.028627   1.231864  -1.243736
H  -3.855699   0.606216   0.619881
C  -1.393417   0.211807   0.111393
H  -2.788548  -1.251127  -0.689287
H  -2.857792  -1.250681   1.024168
C  -0.112786  -0.722577  -0.065519
H  -1.359581   1.029891   1.071692
H  -1.374001   0.727333  -0.677706
H  -0.138115  -1.203493   0.835389
H   0.679669  -0.294334   0.058036
H   0.050386  -1.563404  -1.013794
