butane_opt
 OpenBabel08242015383D

 14 13  0  0  0  0  0  0  0  0999 V2000
   -3.9486    0.2352   -0.0626 C   0  0  0  0  0  0  0  0  0  0  0  0
   -2.7334   -0.5694    0.1481 C   0  0  0  0  0  0  0  0  0  0  0  0
   -4.8975   -0.3989   -0.1946 H   0  0  0  0  0  0  0  0  0  0  0  0
   -3.9040    0.6818   -0.8441 H   0  0  0  0  0  0  0  0  0  0  0  0
   -4.1732    1.0334    0.8893 H   0  0  0  0  0  0  0  0  0  0  0  0
   -1.3771    0.2206    0.0707 C   0  0  0  0  0  0  0  0  0  0  0  0
   -2.6662   -1.1544   -0.6462 H   0  0  0  0  0  0  0  0  0  0  0  0
   -2.8921   -1.2720    1.1466 H   0  0  0  0  0  0  0  0  0  0  0  0
   -0.1154   -0.7269   -0.0350 C   0  0  0  0  0  0  0  0  0  0  0  0
   -1.4453    0.7734    0.7459 H   0  0  0  0  0  0  0  0  0  0  0  0
   -1.4360    0.8378   -0.8369 H   0  0  0  0  0  0  0  0  0  0  0  0
   -0.1432   -1.2025    0.6919 H   0  0  0  0  0  0  0  0  0  0  0  0
    0.6782   -0.1195    0.0617 H   0  0  0  0  0  0  0  0  0  0  0  0
   -0.0136   -1.5948   -1.0306 H   0  0  0  0  0  0  0  0  0  0  0  0
  1  2  1  0  0  0  0
  1  5  1  0  0  0  0
  2  8  1  0  0  0  0
  3  1  1  0  0  0  0
  4  1  1  0  0  0  0
  6  2  1  0  0  0  0
  6 10  1  0  0  0  0
  7  2  1  0  0  0  0
  9 13  1  0  0  0  0
  9  6  1  0  0  0  0
  9 12  1  0  0  0  0
 11  6  1  0  0  0  0
 14  9  1  0  0  0  0
M  END
$$$$
