14
butane_opt
C  -4.009062   0.289304   0.071653
C  -2.659352  -0.672844   0.008053
H  -4.852219  -0.218581  -0.034823
H  -4.044621   0.754238  -0.636398
H  -3.984266   1.042103   1.033533
C  -1.387140   0.170796  -0.074852
H  -2.634953  -1.318605  -0.849675
H  -2.706953  -1.265657   0.892394
C  -0.153883  -0.664602   0.088518
H  -1.378375   0.750624   0.666657
H  -1.236952   1.027114  -1.102241
H  -0.418081  -1.101745   0.900847
H   0.701446  -0.145919   0.276815
H   0.047588  -1.492988  -0.839739
