butane_opt
 OpenBabel08242015383D

 14 12  0  0  0  0  0  0  0  0999 V2000
   -3.9667    0.2839    0.0990 C   0  0  0  0  0  0  0  0  0  0  0  0
   -2.6903   -0.6783    0.0155 C   0  0  0  0  0  0  0  0  0  0  0  0
   -4.7643   -0.2165   -0.5401 H   0  0  0  0  0  0  0  0  0  0  0  0
   -3.8042    0.5686   -0.5482 H   0  0  0  0  0  0  0  0  0  0  0  0
   -4.1400    1.3725    1.1523 H   0  0  0  0  0  0  0  0  0  0  0  0
   -1.3926    0.1902   -0.0775 C   0  0  0  0  0  0  0  0  0  0  0  0
   -2.7711   -1.4429   -0.8883 H   0  0  0  0  0  0  0  0  0  0  0  0
   -2.6678   -1.2529    0.8051 H   0  0  0  0  0  0  0  0  0  0  0  0
   -0.1519   -0.6713    0.1027 C   0  0  0  0  0  0  0  0  0  0  0  0
   -1.4791    0.6116    0.6177 H   0  0  0  0  0  0  0  0  0  0  0  0
   -1.4872    1.0035   -1.0589 H   0  0  0  0  0  0  0  0  0  0  0  0
   -0.1247   -1.3894    1.0275 H   0  0  0  0  0  0  0  0  0  0  0  0
    0.7105   -0.1002   -0.0866 H   0  0  0  0  0  0  0  0  0  0  0  0
   -0.1063   -1.1065   -0.6675 H   0  0  0  0  0  0  0  0  0  0  0  0
  2  1  1  0  0  0  0
  2  8  1  0  0  0  0
  3  1  1  0  0  0  0
  4  1  1  0  0  0  0
  6  2  1  0  0  0  0
  6  9  1  0  0  0  0
  6 10  1  0  0  0  0
  7  2  1  0  0  0  0
  9 12  1  0  0  0  0
 11  6  1  0  0  0  0
 13  9  1  0  0  0  0
 14  9  1  0  0  0  0
M  RAD  2   1   2   5   2
M  END
$$$$
