14
butane_opt
C  -3.958184   0.249053   0.142167
C  -2.747106  -0.559680  -0.124352
H  -4.962375  -0.419431   0.484850
H  -4.064768   0.829063  -0.785161
H  -3.785804   0.737319   0.915633
C  -1.387818   0.204835  -0.098172
H  -2.786613  -1.293699  -0.998223
H  -2.722895  -1.163895   0.663498
C  -0.105264  -0.716009   0.157908
H  -1.594800   0.849646   0.708898
H  -1.244058   0.842063  -1.014947
H  -0.091060  -1.397273   1.128186
H   0.620683  -0.238551   0.106761
H  -0.002220  -1.372779  -0.693453
