14
butane_opt
C  -3.946536   0.238070   0.103690
C  -2.774726  -0.605287   0.007561
H  -4.897130  -0.370043  -0.389489
H  -3.842400   0.537053  -0.547692
H  -4.040303   1.393087   1.214790
C  -1.400098   0.209164  -0.099339
H  -2.848230  -1.276351  -0.910860
H  -2.623440  -1.015347   0.777204
C  -0.084070  -0.722871   0.089484
H  -1.405437   0.708610   0.579828
H  -1.399390   1.003827  -1.145094
H  -0.321932  -1.520182   1.175694
H   0.819298  -0.127520   0.111745
H   0.022974  -1.272862  -0.592282
