14
butane_opt
C  -3.957730   0.275135   0.044544
C  -2.709663  -0.631020   0.005269
H  -4.858131  -0.317786   0.150649
H  -4.037619   0.990693  -0.936990
H  -3.871719   0.867697   0.848841
C  -1.395124   0.180031  -0.004149
H  -2.699658  -1.320628  -0.850716
H  -2.687989  -1.232576   0.881484
C  -0.156140  -0.688286   0.046143
H  -1.355326   0.898936   0.890910
H  -1.363494   0.783598  -0.893499
H  -0.195014  -1.335281   0.963549
H   0.755964  -0.082673   0.067316
H  -0.093323  -1.347460  -0.792353
