14
butane_opt
C  -3.956058   0.291113  -0.072604
C  -2.653524  -0.632374   0.122689
H  -4.849645  -0.359746  -0.022284
H  -4.054163   1.030863  -1.063548
H  -4.121235   0.883900   0.721308
C  -1.408412   0.125180   0.137765
H  -2.486952  -1.365454  -0.741990
H  -2.705708  -1.253918   1.088606
C  -0.188816  -0.659044  -0.067107
H  -1.245537   0.874195   1.053595
H  -1.320156   0.715008  -0.772024
H  -0.048865  -1.299338   0.748176
H   0.714428  -0.041525  -0.153950
H  -0.397974  -1.148155  -0.859241
