butane_opt
 OpenBabel08242015383D

 14 12  0  0  0  0  0  0  0  0999 V2000
   -3.9629    0.2955    0.0558 C   0  0  0  0  0  0  0  0  0  0  0  0
   -2.6897   -0.6670    0.0388 C   0  0  0  0  0  0  0  0  0  0  0  0
   -4.8883   -0.3364   -0.3463 H   0  0  0  0  0  0  0  0  0  0  0  0
   -3.9078    0.6777   -0.6224 H   0  0  0  0  0  0  0  0  0  0  0  0
   -4.2562    1.2999    1.1755 H   0  0  0  0  0  0  0  0  0  0  0  0
   -1.3888    0.1627   -0.0475 C   0  0  0  0  0  0  0  0  0  0  0  0
   -2.8087   -1.3530   -0.8750 H   0  0  0  0  0  0  0  0  0  0  0  0
   -2.5781   -1.1900    0.8116 H   0  0  0  0  0  0  0  0  0  0  0  0
   -0.1726   -0.6492    0.0651 C   0  0  0  0  0  0  0  0  0  0  0  0
   -1.3432    0.6186    0.6956 H   0  0  0  0  0  0  0  0  0  0  0  0
   -1.3124    0.8640   -1.0215 H   0  0  0  0  0  0  0  0  0  0  0  0
   -0.1784   -1.3941    1.0807 H   0  0  0  0  0  0  0  0  0  0  0  0
    0.7481   -0.1571   -0.0678 H   0  0  0  0  0  0  0  0  0  0  0  0
    0.0601   -1.2034   -0.7095 H   0  0  0  0  0  0  0  0  0  0  0  0
  2  1  1  0  0  0  0
  2  8  1  0  0  0  0
  3  1  1  0  0  0  0
  4  1  1  0  0  0  0
  6  2  1  0  0  0  0
  6  9  1  0  0  0  0
  6 10  1  0  0  0  0
  7  2  1  0  0  0  0
  9 12  1  0  0  0  0
 11  6  1  0  0  0  0
 13  9  1  0  0  0  0
 14  9  1  0  0  0  0
M  RAD  2   1   2   5   2
M  END
$$$$
