butane_opt
 OpenBabel08242015383D

 14 12  0  0  0  0  0  0  0  0999 V2000
   -3.9702    0.2887   -0.0578 C   0  0  0  0  0  0  0  0  0  0  0  0
   -2.6739   -0.6435    0.1440 C   0  0  0  0  0  0  0  0  0  0  0  0
   -4.9032   -0.3080    0.0549 H   0  0  0  0  0  0  0  0  0  0  0  0
   -4.0018    1.0590   -1.1033 H   0  0  0  0  0  0  0  0  0  0  0  0
   -4.0864    0.8376    0.6952 H   0  0  0  0  0  0  0  0  0  0  0  0
   -1.4089    0.1547    0.0846 C   0  0  0  0  0  0  0  0  0  0  0  0
   -2.5725   -1.1668   -0.5862 H   0  0  0  0  0  0  0  0  0  0  0  0
   -2.9353   -1.4219    1.1154 H   0  0  0  0  0  0  0  0  0  0  0  0
   -0.1312   -0.6520   -0.0463 C   0  0  0  0  0  0  0  0  0  0  0  0
   -1.3467    0.7278    0.8341 H   0  0  0  0  0  0  0  0  0  0  0  0
   -1.4006    0.7369   -0.7620 H   0  0  0  0  0  0  0  0  0  0  0  0
   -0.2619   -0.8461    0.6616 H   0  0  0  0  0  0  0  0  0  0  0  0
    0.7109   -0.0882    0.2495 H   0  0  0  0  0  0  0  0  0  0  0  0
   -0.0214   -1.7854   -1.2682 H   0  0  0  0  0  0  0  0  0  0  0  0
  1  3  1  0  0  0  0
  1  2  1  0  0  0  0
  1  5  1  0  0  0  0
  2  8  1  0  0  0  0
  4  1  1  0  0  0  0
  6  2  1  0  0  0  0
  6 10  1  0  0  0  0
  7  2  1  0  0  0  0
  9  6  1  0  0  0  0
  9 13  1  0  0  0  0
  9 12  1  0  0  0  0
 11  6  1  0  0  0  0
M  RAD  2   9   2  14   2
M  END
$$$$
