14
butane_opt
C  -3.922396   0.234721   0.085830
C  -2.764032  -0.564763  -0.030878
H  -4.898294  -0.446628   0.212035
H  -4.090062   0.647591  -0.638683
H  -3.916804   1.180107   1.085191
C  -1.402991   0.207464  -0.118969
H  -2.877537  -1.227009  -0.921923
H  -2.677897  -1.282328   0.880304
C  -0.108191  -0.730500   0.116905
H  -1.435189   0.786703   0.693640
H  -1.396737   0.946170  -1.136453
H  -0.317585  -1.189227   0.923286
H   0.781733  -0.241370   0.438450
H   0.205538  -1.426673  -0.703632
