butane_opt
 OpenBabel08242015383D

 14 13  0  0  0  0  0  0  0  0999 V2000
   -3.9268    0.2633   -0.1054 C   0  0  0  0  0  0  0  0  0  0  0  0
   -2.7157   -0.5884    0.1288 C   0  0  0  0  0  0  0  0  0  0  0  0
   -4.8069   -0.2371    0.0101 H   0  0  0  0  0  0  0  0  0  0  0  0
   -3.7794    0.9645   -1.0816 H   0  0  0  0  0  0  0  0  0  0  0  0
   -4.0210    0.8417    0.6371 H   0  0  0  0  0  0  0  0  0  0  0  0
   -1.3987    0.1444    0.1885 C   0  0  0  0  0  0  0  0  0  0  0  0
   -2.7683   -1.2645   -0.6839 H   0  0  0  0  0  0  0  0  0  0  0  0
   -2.7484   -1.2494    0.9864 H   0  0  0  0  0  0  0  0  0  0  0  0
   -0.1597   -0.6867   -0.0703 C   0  0  0  0  0  0  0  0  0  0  0  0
   -1.4451    0.8755    1.0429 H   0  0  0  0  0  0  0  0  0  0  0  0
   -1.5109    0.6484   -0.6150 H   0  0  0  0  0  0  0  0  0  0  0  0
    0.2038   -1.3740    0.8668 H   0  0  0  0  0  0  0  0  0  0  0  0
    0.7868   -0.0792   -0.5222 H   0  0  0  0  0  0  0  0  0  0  0  0
   -0.5495   -1.1579   -0.8937 H   0  0  0  0  0  0  0  0  0  0  0  0
  1  3  1  0  0  0  0
  1  2  1  0  0  0  0
  1  5  1  0  0  0  0
  2  6  1  0  0  0  0
  2  8  1  0  0  0  0
  4  1  1  0  0  0  0
  6 10  1  0  0  0  0
  7  2  1  0  0  0  0
  9  6  1  0  0  0  0
  9 12  1  0  0  0  0
 11  6  1  0  0  0  0
 13  9  1  0  0  0  0
 14  9  1  0  0  0  0
M  END
$$$$
