butane_opt
 OpenBabel08242015383D

 14 13  0  0  0  0  0  0  0  0999 V2000
   -3.9858    0.2760   -0.0842 C   0  0  0  0  0  0  0  0  0  0  0  0
   -2.6985   -0.6186    0.1254 C   0  0  0  0  0  0  0  0  0  0  0  0
   -5.0068   -0.3847   -0.0325 H   0  0  0  0  0  0  0  0  0  0  0  0
   -3.8780    0.9370   -0.9794 H   0  0  0  0  0  0  0  0  0  0  0  0
   -4.0421    0.8566    0.6700 H   0  0  0  0  0  0  0  0  0  0  0  0
   -1.4184    0.1959    0.1231 C   0  0  0  0  0  0  0  0  0  0  0  0
   -2.5610   -1.3544   -0.6483 H   0  0  0  0  0  0  0  0  0  0  0  0
   -2.7914   -1.2637    1.0327 H   0  0  0  0  0  0  0  0  0  0  0  0
   -0.1290   -0.6961   -0.0786 C   0  0  0  0  0  0  0  0  0  0  0  0
   -1.2208    1.0291    1.1176 H   0  0  0  0  0  0  0  0  0  0  0  0
   -1.4459    0.5219   -0.5305 H   0  0  0  0  0  0  0  0  0  0  0  0
    0.1316   -1.5265    0.9195 H   0  0  0  0  0  0  0  0  0  0  0  0
    0.7924   -0.0929   -0.3396 H   0  0  0  0  0  0  0  0  0  0  0  0
   -0.2289   -1.0673   -0.7721 H   0  0  0  0  0  0  0  0  0  0  0  0
  1  3  1  0  0  0  0
  1  2  1  0  0  0  0
  1  5  1  0  0  0  0
  2  8  1  0  0  0  0
  4  1  1  0  0  0  0
  6  2  1  0  0  0  0
  6 10  1  0  0  0  0
  7  2  1  0  0  0  0
  9  6  1  0  0  0  0
  9 12  1  0  0  0  0
 11  6  1  0  0  0  0
 13  9  1  0  0  0  0
 14  9  1  0  0  0  0
M  END
$$$$
