butane_opt
 OpenBabel08242015383D

 14 13  0  0  0  0  0  0  0  0999 V2000
   -3.9558    0.2762   -0.0099 C   0  0  0  0  0  0  0  0  0  0  0  0
   -2.6919   -0.6293    0.0806 C   0  0  0  0  0  0  0  0  0  0  0  0
   -4.8648   -0.3231   -0.1281 H   0  0  0  0  0  0  0  0  0  0  0  0
   -3.9391    0.8297   -0.8627 H   0  0  0  0  0  0  0  0  0  0  0  0
   -4.0754    1.0316    0.8793 H   0  0  0  0  0  0  0  0  0  0  0  0
   -1.3946    0.1719    0.0296 C   0  0  0  0  0  0  0  0  0  0  0  0
   -2.6821   -1.2737   -0.7305 H   0  0  0  0  0  0  0  0  0  0  0  0
   -2.7457   -1.3037    1.0299 H   0  0  0  0  0  0  0  0  0  0  0  0
   -0.1569   -0.6870    0.0003 C   0  0  0  0  0  0  0  0  0  0  0  0
   -1.3607    0.8919    0.9192 H   0  0  0  0  0  0  0  0  0  0  0  0
   -1.4068    0.7819   -0.8637 H   0  0  0  0  0  0  0  0  0  0  0  0
   -0.1893   -1.2813    0.8669 H   0  0  0  0  0  0  0  0  0  0  0  0
    0.7905   -0.0832   -0.0179 H   0  0  0  0  0  0  0  0  0  0  0  0
   -0.1567   -1.3228   -0.8561 H   0  0  0  0  0  0  0  0  0  0  0  0
  1  2  1  0  0  0  0
  1  5  1  0  0  0  0
  2  8  1  0  0  0  0
  3  1  1  0  0  0  0
  4  1  1  0  0  0  0
  6  2  1  0  0  0  0
  6 10  1  0  0  0  0
  7  2  1  0  0  0  0
  9  6  1  0  0  0  0
  9 12  1  0  0  0  0
 11  6  1  0  0  0  0
 13  9  1  0  0  0  0
 14  9  1  0  0  0  0
M  END
$$$$
