14
butane_opt
C  -3.938583   0.216587   0.085275
C  -2.709029  -0.560384  -0.045658
H  -4.895573  -0.361025   0.115234
H  -3.933283   0.769491  -0.724951
H  -3.779002   0.833693   1.001135
C  -1.418355   0.215654  -0.085734
H  -2.813499  -1.094600  -0.783293
H  -2.655677  -1.243074   0.898403
C  -0.128673  -0.739130   0.106839
H  -1.586389   0.870724   0.733719
H  -1.546461   0.993505  -0.980789
H  -0.195460  -1.191712   0.914289
H   0.807365  -0.162574   0.380085
H  -0.079619  -1.506067  -0.851818
