14
butane_opt
C  -3.983884   0.297874   0.082273
C  -2.723882  -0.678768  -0.035026
H  -4.821490  -0.194034  -0.100893
H  -3.941536   0.725074  -0.744372
H  -4.077095   1.271594   1.152266
C  -1.365090   0.157435  -0.034778
H  -2.682278  -1.510520  -0.993983
H  -2.623574  -1.163662   0.724739
C  -0.162785  -0.674496   0.112628
H  -1.281688   0.819178   0.730872
H  -1.282747   0.980182  -1.058868
H   0.069671  -1.550635   1.238705
H   0.751865  -0.003441  -0.365617
H  -0.325052  -1.062865  -0.573882
