14
butane_opt
C  -3.977792   0.251614  -0.049543
C  -2.700345  -0.645545   0.075024
H  -4.712271  -0.113302   0.338266
H  -4.075478   1.269193  -1.208513
H  -4.120455   0.711776   0.732975
C  -1.384238   0.187143   0.109354
H  -2.638483  -1.315128  -0.772757
H  -2.722163  -1.357931   1.081607
C  -0.149119  -0.664065  -0.033829
H  -1.471540   0.858139   1.015544
H  -1.290021   0.759791  -0.754504
H  -0.037483  -1.145823   0.727844
H   0.811932  -0.100478   0.050792
H  -0.234392  -1.547010  -1.032506
