14
butane_opt
C  -3.925939   0.248776   0.058533
C  -2.701256  -0.596542   0.017354
H  -4.827401  -0.334464   0.023040
H  -3.961634   0.813708  -0.818105
H  -3.931480   0.920211   0.916148
C  -1.421787   0.199180  -0.046904
H  -2.756134  -1.280905  -0.876722
H  -2.691590  -1.222055   0.905143
C  -0.167869  -0.708574   0.069205
H  -1.431381   0.867716   0.795771
H  -1.372103   0.858949  -0.956978
H  -0.193149  -1.262394   0.935776
H   0.770497  -0.114436   0.148887
H  -0.026023  -1.436462  -0.818165
