butane_opt
 OpenBabel08242015383D

 14 13  0  0  0  0  0  0  0  0999 V2000
   -3.9104    0.2263   -0.0572 C   0  0  0  0  0  0  0  0  0  0  0  0
   -2.7033   -0.5526    0.1696 C   0  0  0  0  0  0  0  0  0  0  0  0
   -4.7970   -0.4069   -0.4448 H   0  0  0  0  0  0  0  0  0  0  0  0
   -3.6611    0.6639   -0.9061 H   0  0  0  0  0  0  0  0  0  0  0  0
   -3.9933    1.0029    0.9193 H   0  0  0  0  0  0  0  0  0  0  0  0
   -1.4432    0.2089    0.0541 C   0  0  0  0  0  0  0  0  0  0  0  0
   -2.6270   -1.3069   -0.7157 H   0  0  0  0  0  0  0  0  0  0  0  0
   -2.7000   -1.3167    1.1614 H   0  0  0  0  0  0  0  0  0  0  0  0
   -0.1809   -0.7060   -0.0376 C   0  0  0  0  0  0  0  0  0  0  0  0
   -1.2821    0.8244    0.8599 H   0  0  0  0  0  0  0  0  0  0  0  0
   -1.6416    0.8906   -0.7768 H   0  0  0  0  0  0  0  0  0  0  0  0
    0.0228   -1.2267    0.7474 H   0  0  0  0  0  0  0  0  0  0  0  0
    0.6101   -0.2016   -0.0188 H   0  0  0  0  0  0  0  0  0  0  0  0
   -0.0970   -1.5152   -0.9282 H   0  0  0  0  0  0  0  0  0  0  0  0
  1  2  1  0  0  0  0
  1  5  1  0  0  0  0
  2  8  1  0  0  0  0
  3  1  1  0  0  0  0
  4  1  1  0  0  0  0
  6  2  1  0  0  0  0
  6 10  1  0  0  0  0
  7  2  1  0  0  0  0
  9 13  1  0  0  0  0
  9  6  1  0  0  0  0
  9 12  1  0  0  0  0
 11  6  1  0  0  0  0
 14  9  1  0  0  0  0
M  END
$$$$
