14
butane_opt
C  -3.987227   0.225435  -0.081747
C  -2.699699  -0.595163   0.071014
H  -4.835609  -0.345159   0.511821
H  -4.193273   1.186785  -1.128571
H  -3.742016   0.661796   0.651033
C  -1.382857   0.228191   0.113300
H  -2.720764  -1.177250  -0.663684
H  -2.765199  -1.413733   1.085494
C  -0.145669  -0.691547  -0.028979
H  -1.374041   1.037918   0.980777
H  -1.504177   0.715951  -0.677962
H  -0.037279  -1.186039   0.725975
H   0.675924  -0.285079   0.097352
H   0.057881  -1.661046  -1.081798
