butane_opt
 OpenBabel08242015383D

 14 13  0  0  0  0  0  0  0  0999 V2000
   -3.9343    0.2257    0.1013 C   0  0  0  0  0  0  0  0  0  0  0  0
   -2.7012   -0.5545   -0.0786 C   0  0  0  0  0  0  0  0  0  0  0  0
   -4.9371   -0.4754    0.4514 H   0  0  0  0  0  0  0  0  0  0  0  0
   -4.0399    0.9563   -0.8536 H   0  0  0  0  0  0  0  0  0  0  0  0
   -3.4691    0.7859    0.9079 H   0  0  0  0  0  0  0  0  0  0  0  0
   -1.4412    0.2073   -0.0762 C   0  0  0  0  0  0  0  0  0  0  0  0
   -2.6831   -1.4234   -1.0251 H   0  0  0  0  0  0  0  0  0  0  0  0
   -2.5426   -1.0466    0.7169 H   0  0  0  0  0  0  0  0  0  0  0  0
   -0.1672   -0.7285    0.1067 C   0  0  0  0  0  0  0  0  0  0  0  0
   -1.5224    0.9690    0.7914 H   0  0  0  0  0  0  0  0  0  0  0  0
   -1.3544    0.7754   -0.8726 H   0  0  0  0  0  0  0  0  0  0  0  0
   -0.3071   -1.4233    1.0980 H   0  0  0  0  0  0  0  0  0  0  0  0
    0.7177   -0.2177    0.0469 H   0  0  0  0  0  0  0  0  0  0  0  0
    0.0616   -1.1736   -0.4758 H   0  0  0  0  0  0  0  0  0  0  0  0
  1  3  1  0  0  0  0
  1  5  1  0  0  0  0
  2  6  1  0  0  0  0
  2  1  1  0  0  0  0
  2  8  1  0  0  0  0
  4  1  1  0  0  0  0
  6  9  1  0  0  0  0
  6 10  1  0  0  0  0
  7  2  1  0  0  0  0
  9 12  1  0  0  0  0
 11  6  1  0  0  0  0
 13  9  1  0  0  0  0
 14  9  1  0  0  0  0
M  END
$$$$
