butane_opt
 OpenBabel08242015383D

 14 13  0  0  0  0  0  0  0  0999 V2000
   -3.9198    0.2839   -0.0386 C   0  0  0  0  0  0  0  0  0  0  0  0
   -2.6657   -0.6406    0.0784 C   0  0  0  0  0  0  0  0  0  0  0  0
   -4.7429   -0.2258    0.1755 H   0  0  0  0  0  0  0  0  0  0  0  0
   -4.0547    1.1829   -1.1400 H   0  0  0  0  0  0  0  0  0  0  0  0
   -3.8695    0.7566    0.7144 H   0  0  0  0  0  0  0  0  0  0  0  0
   -1.4161    0.1427    0.0998 C   0  0  0  0  0  0  0  0  0  0  0  0
   -2.6571   -1.4457   -0.8175 H   0  0  0  0  0  0  0  0  0  0  0  0
   -2.7457   -1.3203    0.9487 H   0  0  0  0  0  0  0  0  0  0  0  0
   -0.1905   -0.6456   -0.0197 C   0  0  0  0  0  0  0  0  0  0  0  0
   -1.3779    0.7523    0.9752 H   0  0  0  0  0  0  0  0  0  0  0  0
   -1.6301    0.7936   -0.7401 H   0  0  0  0  0  0  0  0  0  0  0  0
   -0.0705   -1.1916    0.8621 H   0  0  0  0  0  0  0  0  0  0  0  0
    0.7197    0.0306   -0.0612 H   0  0  0  0  0  0  0  0  0  0  0  0
   -0.3274   -1.4434   -0.9439 H   0  0  0  0  0  0  0  0  0  0  0  0
  1  2  1  0  0  0  0
  1  3  1  0  0  0  0
  1  5  1  0  0  0  0
  2  6  1  0  0  0  0
  2  8  1  0  0  0  0
  4  1  1  0  0  0  0
  6 10  1  0  0  0  0
  7  2  1  0  0  0  0
  9  6  1  0  0  0  0
  9 12  1  0  0  0  0
 11  6  1  0  0  0  0
 13  9  1  0  0  0  0
 14  9  1  0  0  0  0
M  END
$$$$
