14
butane_opt
C  -3.932562   0.250058   0.043002
C  -2.705327  -0.592483  -0.006015
H  -4.881538  -0.386005   0.177525
H  -3.964598   0.926090  -0.903973
H  -3.886047   0.884618   0.919567
C  -1.418929   0.189149  -0.002985
H  -2.712488  -1.321233  -0.881456
H  -2.661549  -1.210469   0.896263
C  -0.157580  -0.701391   0.062552
H  -1.437168   0.831520   0.827123
H  -1.380875   0.870344  -0.936115
H  -0.116419  -1.313994   0.957968
H   0.730553  -0.122005   0.026463
H  -0.132618  -1.376719  -0.805457
