butane_opt
 OpenBabel08242015383D

 14 12  0  0  0  0  0  0  0  0999 V2000
   -3.9174    0.2648    0.1077 C   0  0  0  0  0  0  0  0  0  0  0  0
   -2.6749   -0.6277   -0.1008 C   0  0  0  0  0  0  0  0  0  0  0  0
   -4.7732   -0.3159   -0.0186 H   0  0  0  0  0  0  0  0  0  0  0  0
   -4.1103    0.8147   -0.7340 H   0  0  0  0  0  0  0  0  0  0  0  0
   -3.8433    1.1588    1.0618 H   0  0  0  0  0  0  0  0  0  0  0  0
   -1.4052    0.1603   -0.0246 C   0  0  0  0  0  0  0  0  0  0  0  0
   -2.6106   -1.2945   -0.9535 H   0  0  0  0  0  0  0  0  0  0  0  0
   -2.6757   -1.2089    0.7634 H   0  0  0  0  0  0  0  0  0  0  0  0
   -0.2162   -0.6735    0.1064 C   0  0  0  0  0  0  0  0  0  0  0  0
   -1.4241    0.8753    0.9234 H   0  0  0  0  0  0  0  0  0  0  0  0
   -1.1125    0.8258   -0.9906 H   0  0  0  0  0  0  0  0  0  0  0  0
   -0.1134   -1.7757    1.3513 H   0  0  0  0  0  0  0  0  0  0  0  0
    0.6191   -0.0695   -0.4350 H   0  0  0  0  0  0  0  0  0  0  0  0
   -0.4017   -0.9766   -0.5533 H   0  0  0  0  0  0  0  0  0  0  0  0
  1  5  1  0  0  0  0
  2  6  1  0  0  0  0
  2  1  1  0  0  0  0
  2  8  1  0  0  0  0
  3  1  1  0  0  0  0
  4  1  1  0  0  0  0
  6  9  1  0  0  0  0
  6 10  1  0  0  0  0
  7  2  1  0  0  0  0
 11  6  1  0  0  0  0
 13  9  1  0  0  0  0
 14  9  1  0  0  0  0
M  RAD  2   9   2  12   2
M  END
$$$$
