14
butane_opt
C  -3.979194   0.293806   0.092003
C  -2.715853  -0.633094  -0.038514
H  -4.819355  -0.262379   0.147121
H  -4.069448   0.872124  -0.812818
H  -3.963000   0.915863   0.827151
C  -1.366401   0.167231  -0.051183
H  -2.759909  -1.321548  -0.863513
H  -2.771841  -1.263159   0.798732
C  -0.139466  -0.700001   0.069073
H  -1.449278   0.880603   0.845103
H  -1.372874   0.737435  -0.842870
H  -0.225839  -1.425595   1.068767
H   0.887780   0.067517   0.121807
H  -0.097451  -1.181009  -0.685103
