14
butane_opt
C  -3.909719   0.305547  -0.041804
C  -2.709060  -0.642534   0.136425
H  -4.898923  -0.349970   0.036327
H  -3.836357   1.076638  -1.109467
H  -4.130101   0.776907   0.640102
C  -1.396964   0.158226   0.076127
H  -2.524666  -1.345262  -0.669587
H  -2.727399  -1.372867   1.122988
C  -0.205677  -0.668280  -0.030354
H  -1.310415   0.853926   0.887145
H  -1.332414   0.805552  -0.797840
H  -0.161287  -1.042340   0.632963
H   0.705303   0.040599   0.182975
H  -0.158860  -1.759595  -1.213855
