butane_opt
 OpenBabel08242015383D

 14 13  0  0  0  0  0  0  0  0999 V2000
   -3.9346    0.2640   -0.0027 C   0  0  0  0  0  0  0  0  0  0  0  0
   -2.6901   -0.6160    0.0763 C   0  0  0  0  0  0  0  0  0  0  0  0
   -4.8555   -0.3351   -0.0829 H   0  0  0  0  0  0  0  0  0  0  0  0
   -3.9365    0.8594   -0.8778 H   0  0  0  0  0  0  0  0  0  0  0  0
   -4.0523    0.9775    0.8530 H   0  0  0  0  0  0  0  0  0  0  0  0
   -1.4147    0.1729    0.0267 C   0  0  0  0  0  0  0  0  0  0  0  0
   -2.6649   -1.2728   -0.7516 H   0  0  0  0  0  0  0  0  0  0  0  0
   -2.7579   -1.2172    0.9560 H   0  0  0  0  0  0  0  0  0  0  0  0
   -0.1636   -0.6897    0.0115 C   0  0  0  0  0  0  0  0  0  0  0  0
   -1.3502    0.8498    0.8745 H   0  0  0  0  0  0  0  0  0  0  0  0
   -1.4225    0.8163   -0.8441 H   0  0  0  0  0  0  0  0  0  0  0  0
   -0.1607   -1.2834    0.8736 H   0  0  0  0  0  0  0  0  0  0  0  0
    0.7790   -0.0697   -0.0343 H   0  0  0  0  0  0  0  0  0  0  0  0
   -0.1618   -1.3768   -0.8678 H   0  0  0  0  0  0  0  0  0  0  0  0
  1  2  1  0  0  0  0
  1  5  1  0  0  0  0
  2  8  1  0  0  0  0
  3  1  1  0  0  0  0
  4  1  1  0  0  0  0
  6  2  1  0  0  0  0
  6 10  1  0  0  0  0
  7  2  1  0  0  0  0
  9  6  1  0  0  0  0
  9 12  1  0  0  0  0
 11  6  1  0  0  0  0
 13  9  1  0  0  0  0
 14  9  1  0  0  0  0
M  END
$$$$
