butane_opt
 OpenBabel08242015383D

 14 13  0  0  0  0  0  0  0  0999 V2000
   -3.9571    0.2687   -0.0148 C   0  0  0  0  0  0  0  0  0  0  0  0
   -2.6946   -0.6210    0.0692 C   0  0  0  0  0  0  0  0  0  0  0  0
   -4.8808   -0.3227   -0.0254 H   0  0  0  0  0  0  0  0  0  0  0  0
   -3.9397    0.9163   -0.9098 H   0  0  0  0  0  0  0  0  0  0  0  0
   -3.9994    0.9216    0.8342 H   0  0  0  0  0  0  0  0  0  0  0  0
   -1.3973    0.1866    0.0519 C   0  0  0  0  0  0  0  0  0  0  0  0
   -2.6717   -1.3203   -0.7758 H   0  0  0  0  0  0  0  0  0  0  0  0
   -2.7340   -1.2750    0.9699 H   0  0  0  0  0  0  0  0  0  0  0  0
   -0.1607   -0.6914    0.0117 C   0  0  0  0  0  0  0  0  0  0  0  0
   -1.3752    0.8568    0.8820 H   0  0  0  0  0  0  0  0  0  0  0  0
   -1.4281    0.7812   -0.8305 H   0  0  0  0  0  0  0  0  0  0  0  0
   -0.0393   -1.2912    0.8808 H   0  0  0  0  0  0  0  0  0  0  0  0
    0.7762   -0.0749   -0.1347 H   0  0  0  0  0  0  0  0  0  0  0  0
   -0.2214   -1.3705   -0.8704 H   0  0  0  0  0  0  0  0  0  0  0  0
  1  2  1  0  0  0  0
  1  5  1  0  0  0  0
  2  8  1  0  0  0  0
  3  1  1  0  0  0  0
  4  1  1  0  0  0  0
  6  2  1  0  0  0  0
  6 10  1  0  0  0  0
  7  2  1  0  0  0  0
  9  6  1  0  0  0  0
  9 12  1  0  0  0  0
 11  6  1  0  0  0  0
 13  9  1  0  0  0  0
 14  9  1  0  0  0  0
M  END
$$$$
