14
butane_opt
C  -3.947872   0.269012   0.034237
C  -2.686685  -0.622421   0.007713
H  -4.823220  -0.274706   0.182707
H  -4.039226   0.935695  -0.890418
H  -3.914175   0.902381   0.869621
C  -1.398576   0.172819  -0.009870
H  -2.679479  -1.341078  -0.846386
H  -2.656702  -1.281056   0.900024
C  -0.179562  -0.681028   0.057794
H  -1.403349   0.857156   0.860292
H  -1.338137   0.799092  -0.883841
H  -0.163606  -1.266275   0.934936
H   0.714771  -0.082713   0.040827
H  -0.170310  -1.372308  -0.814412
