butane_opt
 OpenBabel08242015383D

 14 13  0  0  0  0  0  0  0  0999 V2000
   -3.9940    0.2671   -0.0830 C   0  0  0  0  0  0  0  0  0  0  0  0
   -2.7205   -0.6401    0.1490 C   0  0  0  0  0  0  0  0  0  0  0  0
   -4.7984   -0.1869   -0.0620 H   0  0  0  0  0  0  0  0  0  0  0  0
   -3.8533    1.0997   -1.2621 H   0  0  0  0  0  0  0  0  0  0  0  0
   -4.2022    0.9137    0.6792 H   0  0  0  0  0  0  0  0  0  0  0  0
   -1.3775    0.1548    0.1617 C   0  0  0  0  0  0  0  0  0  0  0  0
   -2.7213   -1.3813   -0.7328 H   0  0  0  0  0  0  0  0  0  0  0  0
   -2.6393   -1.1304    0.9722 H   0  0  0  0  0  0  0  0  0  0  0  0
   -0.1303   -0.6667   -0.0779 C   0  0  0  0  0  0  0  0  0  0  0  0
   -1.3147    0.9066    1.1114 H   0  0  0  0  0  0  0  0  0  0  0  0
   -1.4356    0.5969   -0.6642 H   0  0  0  0  0  0  0  0  0  0  0  0
    0.2165   -1.4187    0.8587 H   0  0  0  0  0  0  0  0  0  0  0  0
    0.8279   -0.0660   -0.4061 H   0  0  0  0  0  0  0  0  0  0  0  0
   -0.4537   -1.1432   -0.8456 H   0  0  0  0  0  0  0  0  0  0  0  0
  1  3  1  0  0  0  0
  1  2  1  0  0  0  0
  1  5  1  0  0  0  0
  2  6  1  0  0  0  0
  2  8  1  0  0  0  0
  4  1  1  0  0  0  0
  6 10  1  0  0  0  0
  7  2  1  0  0  0  0
  9  6  1  0  0  0  0
  9 12  1  0  0  0  0
 11  6  1  0  0  0  0
 13  9  1  0  0  0  0
 14  9  1  0  0  0  0
M  END
$$$$
