butane_opt
 OpenBabel08242015383D

 14 13  0  0  0  0  0  0  0  0999 V2000
   -3.9771    0.2312    0.0764 C   0  0  0  0  0  0  0  0  0  0  0  0
   -2.7186   -0.5699    0.0139 C   0  0  0  0  0  0  0  0  0  0  0  0
   -4.9753   -0.4557    0.1416 H   0  0  0  0  0  0  0  0  0  0  0  0
   -3.7822    0.8439   -0.8523 H   0  0  0  0  0  0  0  0  0  0  0  0
   -3.8633    0.9592    1.0012 H   0  0  0  0  0  0  0  0  0  0  0  0
   -1.3664    0.2278   -0.0749 C   0  0  0  0  0  0  0  0  0  0  0  0
   -2.8607   -1.2978   -0.7781 H   0  0  0  0  0  0  0  0  0  0  0  0
   -2.6815   -1.0803    0.8007 H   0  0  0  0  0  0  0  0  0  0  0  0
   -0.1403   -0.7391    0.0882 C   0  0  0  0  0  0  0  0  0  0  0  0
   -1.5893    0.7532    0.6165 H   0  0  0  0  0  0  0  0  0  0  0  0
   -1.3191    0.9558   -1.0786 H   0  0  0  0  0  0  0  0  0  0  0  0
   -0.3317   -1.1845    0.8243 H   0  0  0  0  0  0  0  0  0  0  0  0
    0.6699   -0.1537    0.4192 H   0  0  0  0  0  0  0  0  0  0  0  0
    0.1482   -1.6349   -0.9213 H   0  0  0  0  0  0  0  0  0  0  0  0
  1  3  1  0  0  0  0
  1  5  1  0  0  0  0
  2  1  1  0  0  0  0
  2  8  1  0  0  0  0
  4  1  1  0  0  0  0
  6  2  1  0  0  0  0
  6  9  1  0  0  0  0
  6 10  1  0  0  0  0
  7  2  1  0  0  0  0
  9 13  1  0  0  0  0
  9 12  1  0  0  0  0
 11  6  1  0  0  0  0
 14  9  1  0  0  0  0
M  END
$$$$
