14
butane_opt
C  -3.979770   0.230437   0.083918
C  -2.718079  -0.563516  -0.041541
H  -5.007213  -0.462597  -0.187686
H  -3.722992   0.545152  -0.652806
H  -4.070324   1.135813   1.169574
C  -1.424702   0.258174  -0.040628
H  -2.738928  -1.355431  -0.879833
H  -2.684646  -1.200828   0.844379
C  -0.092690  -0.737111   0.095721
H  -1.447189   0.748267   0.686510
H  -1.260625   0.848581  -0.923266
H   0.021533  -1.661428   1.200394
H   0.700882  -0.235078  -0.294696
H  -0.197778  -1.101794  -0.632082
