butane_opt
 OpenBabel08242015383D

 14 13  0  0  0  0  0  0  0  0999 V2000
   -3.9836    0.2855    0.0568 C   0  0  0  0  0  0  0  0  0  0  0  0
   -2.6940   -0.6480    0.0317 C   0  0  0  0  0  0  0  0  0  0  0  0
   -4.7457   -0.1968   -0.1713 H   0  0  0  0  0  0  0  0  0  0  0  0
   -4.1870    0.8317   -0.7658 H   0  0  0  0  0  0  0  0  0  0  0  0
   -4.1607    1.0197    0.9966 H   0  0  0  0  0  0  0  0  0  0  0  0
   -1.3776    0.1347   -0.0621 C   0  0  0  0  0  0  0  0  0  0  0  0
   -2.5599   -1.2164   -0.6467 H   0  0  0  0  0  0  0  0  0  0  0  0
   -2.7159   -1.3486    0.9611 H   0  0  0  0  0  0  0  0  0  0  0  0
   -0.1479   -0.6702    0.0516 C   0  0  0  0  0  0  0  0  0  0  0  0
   -1.3991    0.8049    0.7968 H   0  0  0  0  0  0  0  0  0  0  0  0
   -1.3482    0.8344   -0.9502 H   0  0  0  0  0  0  0  0  0  0  0  0
   -0.3501   -1.0559    0.8161 H   0  0  0  0  0  0  0  0  0  0  0  0
    0.8531    0.0224    0.3417 H   0  0  0  0  0  0  0  0  0  0  0  0
    0.0230   -1.3838   -0.8902 H   0  0  0  0  0  0  0  0  0  0  0  0
  1  5  1  0  0  0  0
  2  1  1  0  0  0  0
  2  8  1  0  0  0  0
  3  1  1  0  0  0  0
  4  1  1  0  0  0  0
  6  2  1  0  0  0  0
  6  9  1  0  0  0  0
  6 10  1  0  0  0  0
  7  2  1  0  0  0  0
  9 13  1  0  0  0  0
  9 12  1  0  0  0  0
 11  6  1  0  0  0  0
 14  9  1  0  0  0  0
M  END
$$$$
