14
butane_opt
C  -3.947554   0.229647  -0.050251
C  -2.729729  -0.609819   0.099564
H  -4.727870  -0.260184   0.361346
H  -4.089654   1.209004  -1.259140
H  -3.887810   0.610175   0.604620
C  -1.426204   0.214162   0.098698
H  -2.696504  -1.287636  -0.733775
H  -2.739231  -1.247997   0.982559
C  -0.125783  -0.692652  -0.029339
H  -1.489983   1.020946   0.964251
H  -1.357390   0.811609  -0.743462
H   0.120291  -1.183670   0.736102
H   0.746620  -0.121544   0.137171
H  -0.163688  -1.705605  -1.088773
