butane_opt
 OpenBabel08242015383D

 14 13  0  0  0  0  0  0  0  0999 V2000
   -3.9441    0.2544    0.0368 C   0  0  0  0  0  0  0  0  0  0  0  0
   -2.7100   -0.6063    0.0161 C   0  0  0  0  0  0  0  0  0  0  0  0
   -4.8576   -0.3545   -0.0016 H   0  0  0  0  0  0  0  0  0  0  0  0
   -3.9969    0.8211   -0.8265 H   0  0  0  0  0  0  0  0  0  0  0  0
   -3.9865    1.0066    0.9119 H   0  0  0  0  0  0  0  0  0  0  0  0
   -1.4041    0.2001    0.0069 C   0  0  0  0  0  0  0  0  0  0  0  0
   -2.7362   -1.3427   -0.8806 H   0  0  0  0  0  0  0  0  0  0  0  0
   -2.6773   -1.1894    0.8768 H   0  0  0  0  0  0  0  0  0  0  0  0
   -0.1477   -0.7051    0.0477 C   0  0  0  0  0  0  0  0  0  0  0  0
   -1.4010    0.8120    0.8058 H   0  0  0  0  0  0  0  0  0  0  0  0
   -1.3979    0.8382   -0.8976 H   0  0  0  0  0  0  0  0  0  0  0  0
   -0.1166   -1.4311    1.0280 H   0  0  0  0  0  0  0  0  0  0  0  0
    0.7625   -0.0903   -0.1056 H   0  0  0  0  0  0  0  0  0  0  0  0
   -0.1357   -1.2585   -0.7452 H   0  0  0  0  0  0  0  0  0  0  0  0
  1  5  1  0  0  0  0
  2  1  1  0  0  0  0
  2  8  1  0  0  0  0
  3  1  1  0  0  0  0
  4  1  1  0  0  0  0
  6  2  1  0  0  0  0
  6  9  1  0  0  0  0
  6 10  1  0  0  0  0
  7  2  1  0  0  0  0
  9 12  1  0  0  0  0
 11  6  1  0  0  0  0
 13  9  1  0  0  0  0
 14  9  1  0  0  0  0
M  END
$$$$
