butane_opt
 OpenBabel08242015383D

 14 12  0  0  0  0  0  0  0  0999 V2000
   -3.9615    0.3187   -0.0696 C   0  0  0  0  0  0  0  0  0  0  0  0
   -2.7028   -0.6553    0.1107 C   0  0  0  0  0  0  0  0  0  0  0  0
   -4.8806   -0.2805    0.2539 H   0  0  0  0  0  0  0  0  0  0  0  0
   -3.9844    1.0830   -1.0623 H   0  0  0  0  0  0  0  0  0  0  0  0
   -3.9147    0.7076    0.5968 H   0  0  0  0  0  0  0  0  0  0  0  0
   -1.3830    0.1194    0.0813 C   0  0  0  0  0  0  0  0  0  0  0  0
   -2.6264   -1.0598   -0.5481 H   0  0  0  0  0  0  0  0  0  0  0  0
   -2.6674   -1.4470    1.1464 H   0  0  0  0  0  0  0  0  0  0  0  0
   -0.1554   -0.6581   -0.0623 C   0  0  0  0  0  0  0  0  0  0  0  0
   -1.2851    0.8370    1.0376 H   0  0  0  0  0  0  0  0  0  0  0  0
   -1.4284    0.7151   -0.6813 H   0  0  0  0  0  0  0  0  0  0  0  0
   -0.3733   -0.8466    0.6631 H   0  0  0  0  0  0  0  0  0  0  0  0
    0.7173   -0.0543    0.3903 H   0  0  0  0  0  0  0  0  0  0  0  0
   -0.1577   -1.6406   -1.1407 H   0  0  0  0  0  0  0  0  0  0  0  0
  1  2  1  0  0  0  0
  1  3  1  0  0  0  0
  1  5  1  0  0  0  0
  2  8  1  0  0  0  0
  4  1  1  0  0  0  0
  6 10  1  0  0  0  0
  7  2  1  0  0  0  0
  9  6  1  0  0  0  0
  9 13  1  0  0  0  0
  9 12  1  0  0  0  0
 11  6  1  0  0  0  0
 14  9  1  0  0  0  0
M  RAD  2   2   2   6   2
M  END
$$$$
