14
butane_opt
C  -3.928386   0.290497   0.026076
C  -2.698356  -0.662789   0.095020
H  -4.753912  -0.197704  -0.013272
H  -3.748597   1.071922  -1.039193
H  -4.118802   0.931545   0.887576
C  -1.409909   0.155492  -0.028842
H  -2.739089  -1.369912  -0.767215
H  -2.718711  -1.315201   1.004318
C  -0.186235  -0.675665   0.013922
H  -1.331975   0.798903   0.820890
H  -1.300848   0.889166  -0.905149
H  -0.350592  -0.915325   0.740675
H   0.732378  -0.010578   0.444139
H  -0.037011  -1.640273  -1.046219
