14
butane_opt
C  -3.972115   0.228836   0.067881
C  -2.704772  -0.553237  -0.027984
H  -4.942506  -0.411839  -0.098579
H  -3.900598   0.576672  -0.656995
H  -4.020984   1.064239   1.083229
C  -1.396719   0.215965  -0.026492
H  -2.913510  -1.338022  -0.955147
H  -2.691385  -1.184490   0.956172
C  -0.123084  -0.725767   0.095547
H  -1.617826   0.724676   0.700065
H  -1.356035   1.011912  -1.060880
H   0.032602  -1.472151   0.967246
H   0.777244  -0.157314  -0.146998
H  -0.022479  -1.272633  -0.639548
