butane_opt
 OpenBabel08242015383D

 14 13  0  0  0  0  0  0  0  0999 V2000
   -3.9525    0.2406    0.0038 C   0  0  0  0  0  0  0  0  0  0  0  0
   -2.7067   -0.5970    0.0884 C   0  0  0  0  0  0  0  0  0  0  0  0
   -4.8354   -0.3386    0.1331 H   0  0  0  0  0  0  0  0  0  0  0  0
   -3.9751    0.8963   -0.8841 H   0  0  0  0  0  0  0  0  0  0  0  0
   -4.0918    0.8588    0.7792 H   0  0  0  0  0  0  0  0  0  0  0  0
   -1.4019    0.2000   -0.0061 C   0  0  0  0  0  0  0  0  0  0  0  0
   -2.6897   -1.2313   -0.7283 H   0  0  0  0  0  0  0  0  0  0  0  0
   -2.7945   -1.2519    1.0108 H   0  0  0  0  0  0  0  0  0  0  0  0
   -0.1476   -0.7184   -0.0077 C   0  0  0  0  0  0  0  0  0  0  0  0
   -1.2686    1.0261    0.8619 H   0  0  0  0  0  0  0  0  0  0  0  0
   -1.3168    0.8812   -0.9626 H   0  0  0  0  0  0  0  0  0  0  0  0
   -0.3520   -1.1006    0.7955 H   0  0  0  0  0  0  0  0  0  0  0  0
    0.6475   -0.1672    0.4488 H   0  0  0  0  0  0  0  0  0  0  0  0
    0.1858   -1.5938   -0.9683 H   0  0  0  0  0  0  0  0  0  0  0  0
  1  2  1  0  0  0  0
  1  3  1  0  0  0  0
  1  5  1  0  0  0  0
  2  8  1  0  0  0  0
  4  1  1  0  0  0  0
  6  2  1  0  0  0  0
  6 10  1  0  0  0  0
  7  2  1  0  0  0  0
  9  6  1  0  0  0  0
  9 13  1  0  0  0  0
  9 12  1  0  0  0  0
 11  6  1  0  0  0  0
 14  9  1  0  0  0  0
M  END
$$$$
