butane_opt
 OpenBabel08242015383D

 14 13  0  0  0  0  0  0  0  0999 V2000
   -3.9418    0.2940    0.1152 C   0  0  0  0  0  0  0  0  0  0  0  0
   -2.6734   -0.6757   -0.0617 C   0  0  0  0  0  0  0  0  0  0  0  0
   -4.7488   -0.2418    0.3899 H   0  0  0  0  0  0  0  0  0  0  0  0
   -4.0276    1.0373   -0.8373 H   0  0  0  0  0  0  0  0  0  0  0  0
   -3.8456    0.9105    0.9851 H   0  0  0  0  0  0  0  0  0  0  0  0
   -1.3822    0.1572   -0.1213 C   0  0  0  0  0  0  0  0  0  0  0  0
   -2.7375   -1.4000   -0.9549 H   0  0  0  0  0  0  0  0  0  0  0  0
   -2.3932   -1.0824    0.6704 H   0  0  0  0  0  0  0  0  0  0  0  0
   -0.2377   -0.6608    0.1401 C   0  0  0  0  0  0  0  0  0  0  0  0
   -1.5049    0.8015    0.8087 H   0  0  0  0  0  0  0  0  0  0  0  0
   -1.2066    0.8101   -1.0399 H   0  0  0  0  0  0  0  0  0  0  0  0
   -0.4664   -1.2386    1.0524 H   0  0  0  0  0  0  0  0  0  0  0  0
    0.7812   -0.0452    0.2484 H   0  0  0  0  0  0  0  0  0  0  0  0
   -0.0736   -1.3819   -0.7818 H   0  0  0  0  0  0  0  0  0  0  0  0
  1  3  1  0  0  0  0
  1  5  1  0  0  0  0
  2  1  1  0  0  0  0
  2  8  1  0  0  0  0
  4  1  1  0  0  0  0
  6  2  1  0  0  0  0
  6  9  1  0  0  0  0
  6 10  1  0  0  0  0
  7  2  1  0  0  0  0
  9 13  1  0  0  0  0
  9 12  1  0  0  0  0
 11  6  1  0  0  0  0
 14  9  1  0  0  0  0
M  END
$$$$
