butane_opt
 OpenBabel08242015383D

 14 13  0  0  0  0  0  0  0  0999 V2000
   -3.9319    0.2448    0.1263 C   0  0  0  0  0  0  0  0  0  0  0  0
   -2.6996   -0.5996   -0.1140 C   0  0  0  0  0  0  0  0  0  0  0  0
   -4.8105   -0.3028    0.4330 H   0  0  0  0  0  0  0  0  0  0  0  0
   -4.3191    0.9340   -0.7550 H   0  0  0  0  0  0  0  0  0  0  0  0
   -3.8309    0.8804    0.9686 H   0  0  0  0  0  0  0  0  0  0  0  0
   -1.4276    0.2155   -0.0801 C   0  0  0  0  0  0  0  0  0  0  0  0
   -2.7777   -1.5053   -1.0785 H   0  0  0  0  0  0  0  0  0  0  0  0
   -2.7604   -1.2268    0.7621 H   0  0  0  0  0  0  0  0  0  0  0  0
   -0.1419   -0.7058    0.1441 C   0  0  0  0  0  0  0  0  0  0  0  0
   -1.4134    0.7310    0.6133 H   0  0  0  0  0  0  0  0  0  0  0  0
   -1.3181    0.9766   -1.0891 H   0  0  0  0  0  0  0  0  0  0  0  0
   -0.1163   -1.2845    1.0924 H   0  0  0  0  0  0  0  0  0  0  0  0
    0.8059   -0.1733    0.2297 H   0  0  0  0  0  0  0  0  0  0  0  0
   -0.0567   -1.3400   -0.6343 H   0  0  0  0  0  0  0  0  0  0  0  0
  1  3  1  0  0  0  0
  1  5  1  0  0  0  0
  2  6  1  0  0  0  0
  2  1  1  0  0  0  0
  2  8  1  0  0  0  0
  4  1  1  0  0  0  0
  6  9  1  0  0  0  0
  6 10  1  0  0  0  0
  7  2  1  0  0  0  0
  9 13  1  0  0  0  0
  9 12  1  0  0  0  0
 11  6  1  0  0  0  0
 14  9  1  0  0  0  0
M  END
$$$$
