14
butane_opt
C  -3.936514   0.271731   0.046745
C  -2.744790  -0.646584   0.015695
H  -4.869021  -0.277266   0.044194
H  -4.216944   0.901696  -0.812004
H  -4.014011   1.103355   1.059509
C  -1.388874   0.177385  -0.082333
H  -2.840371  -1.261047  -0.719702
H  -2.620159  -1.346399   1.008451
C  -0.131696  -0.682261   0.083845
H  -1.393313   0.821791   0.710801
H  -1.308363   0.919633  -1.010670
H  -0.186991  -1.042558   0.829550
H   0.840041  -0.116992   0.479877
H   0.018271  -1.629034  -0.948254
