butane_opt
 OpenBabel08242015383D

 14 13  0  0  0  0  0  0  0  0999 V2000
   -3.9317    0.2593    0.0511 C   0  0  0  0  0  0  0  0  0  0  0  0
   -2.6985   -0.6002   -0.0102 C   0  0  0  0  0  0  0  0  0  0  0  0
   -4.8889   -0.3988    0.1703 H   0  0  0  0  0  0  0  0  0  0  0  0
   -4.0084    0.8609   -0.8541 H   0  0  0  0  0  0  0  0  0  0  0  0
   -3.8694    0.8779    0.8774 H   0  0  0  0  0  0  0  0  0  0  0  0
   -1.4215    0.1944   -0.0192 C   0  0  0  0  0  0  0  0  0  0  0  0
   -2.7409   -1.3241   -0.8712 H   0  0  0  0  0  0  0  0  0  0  0  0
   -2.7005   -1.2105    0.8550 H   0  0  0  0  0  0  0  0  0  0  0  0
   -0.1566   -0.7058    0.0703 C   0  0  0  0  0  0  0  0  0  0  0  0
   -1.4333    0.9082    0.8559 H   0  0  0  0  0  0  0  0  0  0  0  0
   -1.3760    0.8508   -0.9286 H   0  0  0  0  0  0  0  0  0  0  0  0
   -0.1004   -1.3667    0.9896 H   0  0  0  0  0  0  0  0  0  0  0  0
    0.7430   -0.1236    0.0143 H   0  0  0  0  0  0  0  0  0  0  0  0
   -0.1460   -1.3223   -0.7667 H   0  0  0  0  0  0  0  0  0  0  0  0
  1  3  1  0  0  0  0
  1  5  1  0  0  0  0
  2  1  1  0  0  0  0
  2  8  1  0  0  0  0
  4  1  1  0  0  0  0
  6  2  1  0  0  0  0
  6  9  1  0  0  0  0
  6 10  1  0  0  0  0
  7  2  1  0  0  0  0
  9 12  1  0  0  0  0
 11  6  1  0  0  0  0
 13  9  1  0  0  0  0
 14  9  1  0  0  0  0
M  END
$$$$
