14
butane_opt
C  -3.979353   0.297299   0.043946
C  -2.697364  -0.661236   0.018945
H  -4.917101  -0.239463  -0.066530
H  -4.095354   0.722145  -0.692064
H  -4.112788   0.994187   1.001770
C  -1.388885   0.155090  -0.057825
H  -2.707943  -1.148690  -0.770752
H  -2.657889  -1.393530   1.020504
C  -0.140386  -0.662686   0.059037
H  -1.445418   0.878342   0.855532
H  -1.173161   0.856134  -1.004080
H  -0.081756  -1.181063   0.888193
H   0.702837  -0.103220   0.295251
H  -0.065007  -1.426461  -0.861394
