butane_opt
 OpenBabel08242015383D

 14 13  0  0  0  0  0  0  0  0999 V2000
   -3.9811    0.2879    0.0732 C   0  0  0  0  0  0  0  0  0  0  0  0
   -2.7058   -0.6493   -0.0839 C   0  0  0  0  0  0  0  0  0  0  0  0
   -4.7940   -0.2584    0.4056 H   0  0  0  0  0  0  0  0  0  0  0  0
   -4.2623    1.0382   -0.8680 H   0  0  0  0  0  0  0  0  0  0  0  0
   -3.8018    0.9399    1.0283 H   0  0  0  0  0  0  0  0  0  0  0  0
   -1.3550    0.1785   -0.0228 C   0  0  0  0  0  0  0  0  0  0  0  0
   -2.7568   -1.4674   -0.9576 H   0  0  0  0  0  0  0  0  0  0  0  0
   -2.7604   -1.3283    0.7855 H   0  0  0  0  0  0  0  0  0  0  0  0
   -0.1637   -0.6617    0.0783 C   0  0  0  0  0  0  0  0  0  0  0  0
   -1.4841    0.8104    0.8423 H   0  0  0  0  0  0  0  0  0  0  0  0
   -1.2392    0.8041   -0.8706 H   0  0  0  0  0  0  0  0  0  0  0  0
   -0.1003   -1.5820    1.1360 H   0  0  0  0  0  0  0  0  0  0  0  0
    0.6715   -0.1015    0.0576 H   0  0  0  0  0  0  0  0  0  0  0  0
   -0.0522   -1.1463   -0.6419 H   0  0  0  0  0  0  0  0  0  0  0  0
  1  3  1  0  0  0  0
  1  5  1  0  0  0  0
  2  6  1  0  0  0  0
  2  1  1  0  0  0  0
  2  8  1  0  0  0  0
  4  1  1  0  0  0  0
  6  9  1  0  0  0  0
  6 10  1  0  0  0  0
  7  2  1  0  0  0  0
  9 12  1  0  0  0  0
 11  6  1  0  0  0  0
 13  9  1  0  0  0  0
 14  9  1  0  0  0  0
M  END
$$$$
