14
butane_opt
C  -3.952945   0.279255   0.048041
C  -2.697989  -0.632335  -0.000917
H  -4.853791  -0.300132   0.010990
H  -4.025228   0.836534  -0.791524
H  -3.945460   0.971422   0.902052
C  -1.400433   0.177548  -0.004137
H  -2.717248  -1.355252  -0.870275
H  -2.702848  -1.215778   0.874560
C  -0.162180  -0.684465   0.056604
H  -1.407295   0.821737   0.807317
H  -1.309762   0.823306  -0.901137
H  -0.095341  -1.404429   1.026559
H   0.753979  -0.087789  -0.089035
H  -0.165167  -1.236717  -0.716044
