14
butane_opt
C  -3.908758   0.251454   0.060982
C  -2.690583  -0.611745  -0.000283
H  -4.801594  -0.260083  -0.091154
H  -3.817073   0.677187  -0.748881
H  -4.056395   1.040715   1.025326
C  -1.430156   0.191976  -0.029970
H  -2.818139  -1.315172  -0.869503
H  -2.808437  -1.103241   0.743513
C  -0.173858  -0.699696   0.072070
H  -1.417276   0.960771   0.844085
H  -1.485503   0.719893  -0.910978
H   0.004709  -1.597423   1.102547
H   0.734200  -0.154206  -0.277915
H  -0.138782  -1.006775  -0.544651
