butane_opt
 OpenBabel08242015383D

 14 11  0  0  0  0  0  0  0  0999 V2000
   -3.9900    0.2961   -0.0242 C   0  0  0  0  0  0  0  0  0  0  0  0
   -2.6976   -0.6166    0.0954 C   0  0  0  0  0  0  0  0  0  0  0  0
   -4.8541   -0.2271    0.3769 H   0  0  0  0  0  0  0  0  0  0  0  0
   -4.2229    1.3876   -1.2956 H   0  0  0  0  0  0  0  0  0  0  0  0
   -3.9094    0.4593    0.4486 H   0  0  0  0  0  0  0  0  0  0  0  0
   -1.3549    0.1384    0.0972 C   0  0  0  0  0  0  0  0  0  0  0  0
   -2.7165   -1.5373   -0.8595 H   0  0  0  0  0  0  0  0  0  0  0  0
   -2.9169   -1.2309    0.9352 H   0  0  0  0  0  0  0  0  0  0  0  0
   -0.1533   -0.6747   -0.0297 C   0  0  0  0  0  0  0  0  0  0  0  0
   -1.2652    0.9405    1.0173 H   0  0  0  0  0  0  0  0  0  0  0  0
   -1.4478    0.6515   -0.7507 H   0  0  0  0  0  0  0  0  0  0  0  0
   -0.1021   -1.0547    0.6616 H   0  0  0  0  0  0  0  0  0  0  0  0
    0.8716   -0.0265    0.1102 H   0  0  0  0  0  0  0  0  0  0  0  0
   -0.1371   -1.4956   -0.9281 H   0  0  0  0  0  0  0  0  0  0  0  0
  1  2  1  0  0  0  0
  1  3  1  0  0  0  0
  2  6  1  0  0  0  0
  2  8  1  0  0  0  0
  6 10  1  0  0  0  0
  7  2  1  0  0  0  0
  9  6  1  0  0  0  0
  9 13  1  0  0  0  0
  9 12  1  0  0  0  0
 11  6  1  0  0  0  0
 14  9  1  0  0  0  0
M  RAD  3   1   3   4   2   5   2
M  END
$$$$
