butane_opt
 OpenBabel08242015383D

 14 13  0  0  0  0  0  0  0  0999 V2000
   -4.0142    0.3023    0.0848 C   0  0  0  0  0  0  0  0  0  0  0  0
   -2.7172   -0.6544   -0.0089 C   0  0  0  0  0  0  0  0  0  0  0  0
   -4.8615   -0.2080   -0.2502 H   0  0  0  0  0  0  0  0  0  0  0  0
   -4.0640    0.6330   -0.5733 H   0  0  0  0  0  0  0  0  0  0  0  0
   -3.9916    1.2285    1.1420 H   0  0  0  0  0  0  0  0  0  0  0  0
   -1.3538    0.1406   -0.0577 C   0  0  0  0  0  0  0  0  0  0  0  0
   -2.6908   -1.3762   -0.8856 H   0  0  0  0  0  0  0  0  0  0  0  0
   -2.5787   -1.2590    0.7740 H   0  0  0  0  0  0  0  0  0  0  0  0
   -0.1390   -0.6725    0.0946 C   0  0  0  0  0  0  0  0  0  0  0  0
   -1.3280    0.6687    0.6604 H   0  0  0  0  0  0  0  0  0  0  0  0
   -1.2095    1.0668   -1.1815 H   0  0  0  0  0  0  0  0  0  0  0  0
   -0.2947   -1.3485    1.0523 H   0  0  0  0  0  0  0  0  0  0  0  0
    0.8394   -0.0984    0.1100 H   0  0  0  0  0  0  0  0  0  0  0  0
   -0.1587   -1.1741   -0.7285 H   0  0  0  0  0  0  0  0  0  0  0  0
  1  5  1  0  0  0  0
  2  1  1  0  0  0  0
  2  8  1  0  0  0  0
  3  1  1  0  0  0  0
  4  1  1  0  0  0  0
  6  2  1  0  0  0  0
  6  9  1  0  0  0  0
  6 10  1  0  0  0  0
  7  2  1  0  0  0  0
  9 13  1  0  0  0  0
  9 12  1  0  0  0  0
 11  6  1  0  0  0  0
 14  9  1  0  0  0  0
M  END
$$$$
