14
butane_opt
C  -3.940602   0.226359   0.085105
C  -2.757512  -0.599959  -0.071982
H  -4.891095  -0.396343   0.109355
H  -4.051270   0.784635  -0.759183
H  -3.863842   0.999488   1.003860
C  -1.410593   0.253554  -0.037117
H  -2.735451  -1.249746  -0.906882
H  -2.632501  -1.144241   0.725721
C  -0.111237  -0.712956   0.076261
H  -1.289201   0.911903   0.923603
H  -1.440490   0.821188  -0.878938
H   0.015173  -1.798004   1.262698
H   0.637847  -0.314460  -0.109124
H  -0.108814  -1.104847  -0.498323
