butane_opt
 OpenBabel08242015383D

 14 13  0  0  0  0  0  0  0  0999 V2000
   -4.0047    0.3037    0.1325 C   0  0  0  0  0  0  0  0  0  0  0  0
   -2.7224   -0.6635   -0.0605 C   0  0  0  0  0  0  0  0  0  0  0  0
   -4.9088   -0.2977    0.1914 H   0  0  0  0  0  0  0  0  0  0  0  0
   -4.1889    0.9529   -0.7010 H   0  0  0  0  0  0  0  0  0  0  0  0
   -3.8220    1.0086    1.0949 H   0  0  0  0  0  0  0  0  0  0  0  0
   -1.3569    0.1556   -0.1418 C   0  0  0  0  0  0  0  0  0  0  0  0
   -2.7823   -1.3849   -0.9875 H   0  0  0  0  0  0  0  0  0  0  0  0
   -2.4910   -1.1480    0.6875 H   0  0  0  0  0  0  0  0  0  0  0  0
   -0.1520   -0.6784    0.1711 C   0  0  0  0  0  0  0  0  0  0  0  0
   -1.5219    0.5811    0.5549 H   0  0  0  0  0  0  0  0  0  0  0  0
   -1.0830    0.9281   -1.1777 H   0  0  0  0  0  0  0  0  0  0  0  0
   -0.2490   -1.0241    0.9488 H   0  0  0  0  0  0  0  0  0  0  0  0
    0.7793   -0.0031    0.3838 H   0  0  0  0  0  0  0  0  0  0  0  0
    0.0594   -1.4927   -0.8140 H   0  0  0  0  0  0  0  0  0  0  0  0
  1  3  1  0  0  0  0
  1  5  1  0  0  0  0
  2  1  1  0  0  0  0
  2  8  1  0  0  0  0
  4  1  1  0  0  0  0
  6  2  1  0  0  0  0
  6  9  1  0  0  0  0
  6 10  1  0  0  0  0
  7  2  1  0  0  0  0
  9 13  1  0  0  0  0
  9 12  1  0  0  0  0
 11  6  1  0  0  0  0
 14  9  1  0  0  0  0
M  END
$$$$
