butane_opt
 OpenBabel08242015383D

 14 13  0  0  0  0  0  0  0  0999 V2000
   -3.9865    0.3067    0.1036 C   0  0  0  0  0  0  0  0  0  0  0  0
   -2.7032   -0.6650   -0.1019 C   0  0  0  0  0  0  0  0  0  0  0  0
   -5.0201   -0.3063    0.5817 H   0  0  0  0  0  0  0  0  0  0  0  0
   -4.3544    0.9638   -0.8416 H   0  0  0  0  0  0  0  0  0  0  0  0
   -3.7871    0.8222    0.8569 H   0  0  0  0  0  0  0  0  0  0  0  0
   -1.3749    0.1723   -0.0567 C   0  0  0  0  0  0  0  0  0  0  0  0
   -2.7666   -1.5277   -1.1088 H   0  0  0  0  0  0  0  0  0  0  0  0
   -2.4937   -1.1426    0.6605 H   0  0  0  0  0  0  0  0  0  0  0  0
   -0.1312   -0.6651    0.1360 C   0  0  0  0  0  0  0  0  0  0  0  0
   -1.4693    0.7373    0.7170 H   0  0  0  0  0  0  0  0  0  0  0  0
   -1.3090    0.8775   -0.9352 H   0  0  0  0  0  0  0  0  0  0  0  0
   -0.1497   -1.3948    1.0983 H   0  0  0  0  0  0  0  0  0  0  0  0
    0.7460   -0.0793    0.0530 H   0  0  0  0  0  0  0  0  0  0  0  0
   -0.0674   -1.2068   -0.6141 H   0  0  0  0  0  0  0  0  0  0  0  0
  1  3  1  0  0  0  0
  1  5  1  0  0  0  0
  2  6  1  0  0  0  0
  2  1  1  0  0  0  0
  2  8  1  0  0  0  0
  4  1  1  0  0  0  0
  6  9  1  0  0  0  0
  6 10  1  0  0  0  0
  7  2  1  0  0  0  0
  9 12  1  0  0  0  0
 11  6  1  0  0  0  0
 13  9  1  0  0  0  0
 14  9  1  0  0  0  0
M  END
$$$$
