butane_opt
 OpenBabel08242015383D

 14 13  0  0  0  0  0  0  0  0999 V2000
   -3.9428    0.2840    0.1075 C   0  0  0  0  0  0  0  0  0  0  0  0
   -2.7335   -0.6625   -0.0201 C   0  0  0  0  0  0  0  0  0  0  0  0
   -4.8315   -0.2464   -0.3505 H   0  0  0  0  0  0  0  0  0  0  0  0
   -3.9156    0.5946   -0.6682 H   0  0  0  0  0  0  0  0  0  0  0  0
   -4.1119    1.3180    1.1342 H   0  0  0  0  0  0  0  0  0  0  0  0
   -1.3664    0.1962   -0.0633 C   0  0  0  0  0  0  0  0  0  0  0  0
   -2.7192   -1.3794   -0.8298 H   0  0  0  0  0  0  0  0  0  0  0  0
   -2.8253   -1.2377    0.8342 H   0  0  0  0  0  0  0  0  0  0  0  0
   -0.1319   -0.6838    0.1012 C   0  0  0  0  0  0  0  0  0  0  0  0
   -1.5538    0.6751    0.6287 H   0  0  0  0  0  0  0  0  0  0  0  0
   -1.3262    0.9966   -1.0878 H   0  0  0  0  0  0  0  0  0  0  0  0
   -0.0885   -1.3995    1.0312 H   0  0  0  0  0  0  0  0  0  0  0  0
    0.7163   -0.2272   -0.0525 H   0  0  0  0  0  0  0  0  0  0  0  0
   -0.2671   -1.1713   -0.6485 H   0  0  0  0  0  0  0  0  0  0  0  0
  1  5  1  0  0  0  0
  2  1  1  0  0  0  0
  2  8  1  0  0  0  0
  3  1  1  0  0  0  0
  4  1  1  0  0  0  0
  6  2  1  0  0  0  0
  6  9  1  0  0  0  0
  6 10  1  0  0  0  0
  7  2  1  0  0  0  0
  9 12  1  0  0  0  0
 11  6  1  0  0  0  0
 13  9  1  0  0  0  0
 14  9  1  0  0  0  0
M  END
$$$$
