butane_opt
 OpenBabel08242015383D

 14 12  0  0  0  0  0  0  0  0999 V2000
   -3.9099    0.2192    0.0730 C   0  0  0  0  0  0  0  0  0  0  0  0
   -2.6881   -0.5483    0.0050 C   0  0  0  0  0  0  0  0  0  0  0  0
   -5.0149   -0.5316   -0.3649 H   0  0  0  0  0  0  0  0  0  0  0  0
   -3.9287    0.4680   -0.5422 H   0  0  0  0  0  0  0  0  0  0  0  0
   -4.0019    1.3276    1.3057 H   0  0  0  0  0  0  0  0  0  0  0  0
   -1.4306    0.2155   -0.0684 C   0  0  0  0  0  0  0  0  0  0  0  0
   -2.7628   -1.3683   -0.8814 H   0  0  0  0  0  0  0  0  0  0  0  0
   -2.8180   -1.1259    0.8336 H   0  0  0  0  0  0  0  0  0  0  0  0
   -0.1462   -0.7326    0.0980 C   0  0  0  0  0  0  0  0  0  0  0  0
   -1.5798    0.7764    0.6340 H   0  0  0  0  0  0  0  0  0  0  0  0
   -1.3641    1.0363   -1.1522 H   0  0  0  0  0  0  0  0  0  0  0  0
   -0.0991   -1.5382    1.1216 H   0  0  0  0  0  0  0  0  0  0  0  0
    0.7658   -0.2079   -0.1390 H   0  0  0  0  0  0  0  0  0  0  0  0
   -0.0838   -1.1805   -0.6120 H   0  0  0  0  0  0  0  0  0  0  0  0
  2  1  1  0  0  0  0
  2  8  1  0  0  0  0
  3  1  1  0  0  0  0
  4  1  1  0  0  0  0
  6  2  1  0  0  0  0
  6  9  1  0  0  0  0
  6 10  1  0  0  0  0
  7  2  1  0  0  0  0
  9 12  1  0  0  0  0
 11  6  1  0  0  0  0
 13  9  1  0  0  0  0
 14  9  1  0  0  0  0
M  RAD  2   1   2   5   2
M  END
$$$$
