14
butane_opt
C  -3.952587   0.314405   0.084039
C  -2.663155  -0.626609  -0.023542
H  -4.833610  -0.267492   0.158874
H  -4.159330   0.799709  -0.748772
H  -3.894875   0.950761   0.983133
C  -1.382440   0.113291  -0.077015
H  -2.710990  -1.409453  -0.906640
H  -2.735725  -1.237010   0.871121
C  -0.211123  -0.660244   0.119348
H  -1.364576   0.691903   0.702382
H  -1.247823   0.852405  -1.147478
H  -0.345343  -1.148569   0.899043
H   0.793972   0.072668   0.249800
H  -0.042698  -1.442801  -0.860817
