14
butane_opt
C  -3.908889   0.287035  -0.023328
C  -2.697305  -0.659497   0.066643
H  -4.792423  -0.221920   0.404999
H  -4.059385   1.378498  -1.338864
H  -3.765015   0.536035   0.576276
C  -1.395808   0.155829   0.095476
H  -2.748753  -1.385669  -0.816108
H  -2.677986  -1.206448   0.885405
C  -0.206926  -0.682045  -0.002442
H  -1.321608   1.072779   1.038809
H  -1.542510   0.796643  -0.782783
H  -0.130393  -1.121930   0.804083
H   0.757467   0.033722  -0.009410
H  -0.264764  -1.554123  -1.024534
