butane_opt
 OpenBabel08242015383D

 14 13  0  0  0  0  0  0  0  0999 V2000
   -3.9872    0.2254   -0.0817 C   0  0  0  0  0  0  0  0  0  0  0  0
   -2.6997   -0.5952    0.0710 C   0  0  0  0  0  0  0  0  0  0  0  0
   -4.8356   -0.3452    0.5118 H   0  0  0  0  0  0  0  0  0  0  0  0
   -4.1933    1.1868   -1.1286 H   0  0  0  0  0  0  0  0  0  0  0  0
   -3.7420    0.6618    0.6510 H   0  0  0  0  0  0  0  0  0  0  0  0
   -1.3829    0.2282    0.1133 C   0  0  0  0  0  0  0  0  0  0  0  0
   -2.7208   -1.1772   -0.6637 H   0  0  0  0  0  0  0  0  0  0  0  0
   -2.7652   -1.4137    1.0855 H   0  0  0  0  0  0  0  0  0  0  0  0
   -0.1457   -0.6915   -0.0290 C   0  0  0  0  0  0  0  0  0  0  0  0
   -1.3740    1.0379    0.9808 H   0  0  0  0  0  0  0  0  0  0  0  0
   -1.5042    0.7160   -0.6780 H   0  0  0  0  0  0  0  0  0  0  0  0
   -0.0373   -1.1860    0.7260 H   0  0  0  0  0  0  0  0  0  0  0  0
    0.6759   -0.2851    0.0974 H   0  0  0  0  0  0  0  0  0  0  0  0
    0.0579   -1.6610   -1.0818 H   0  0  0  0  0  0  0  0  0  0  0  0
  1  2  1  0  0  0  0
  1  3  1  0  0  0  0
  1  5  1  0  0  0  0
  2  6  1  0  0  0  0
  2  8  1  0  0  0  0
  4  1  1  0  0  0  0
  6 10  1  0  0  0  0
  7  2  1  0  0  0  0
  9 13  1  0  0  0  0
  9  6  1  0  0  0  0
  9 12  1  0  0  0  0
 11  6  1  0  0  0  0
 14  9  1  0  0  0  0
M  END
$$$$
