14
butane_opt
C  -3.944652   0.301160  -0.080622
C  -2.632012  -0.659089   0.126146
H  -4.784222  -0.326495   0.043358
H  -3.953195   1.133319  -1.058804
H  -4.012190   0.911943   0.748888
C  -1.382776   0.135453   0.115170
H  -2.732365  -1.366257  -0.744093
H  -2.700493  -1.322240   0.957028
C  -0.249860  -0.660501  -0.066123
H  -1.171298   0.999329   1.136057
H  -1.463559   0.659148  -0.674537
H  -0.041819  -1.384718   0.871999
H   0.696289  -0.019597  -0.132162
H  -0.365490  -1.131499  -0.829741
