14
butane_opt
C  -3.993996   0.267070  -0.082977
C  -2.720506  -0.640141   0.149020
H  -4.798368  -0.186856  -0.061986
H  -3.853327   1.099681  -1.262107
H  -4.202202   0.913710   0.679224
C  -1.377510   0.154808   0.161728
H  -2.721258  -1.381279  -0.732811
H  -2.639288  -1.130374   0.972242
C  -0.130285  -0.666696  -0.077906
H  -1.314709   0.906604   1.111400
H  -1.435612   0.596882  -0.664198
H   0.216459  -1.418690   0.858742
H   0.827894  -0.066014  -0.406051
H  -0.453676  -1.143161  -0.845564
