butane_opt
 OpenBabel08242015383D

 14 12  0  0  0  0  0  0  0  0999 V2000
   -3.9218    0.2490   -0.0357 C   0  0  0  0  0  0  0  0  0  0  0  0
   -2.7132   -0.5451    0.0998 C   0  0  0  0  0  0  0  0  0  0  0  0
   -4.9066   -0.4873    0.1895 H   0  0  0  0  0  0  0  0  0  0  0  0
   -3.9087    1.0716   -1.1072 H   0  0  0  0  0  0  0  0  0  0  0  0
   -3.9566    0.5619    0.4829 H   0  0  0  0  0  0  0  0  0  0  0  0
   -1.3919    0.1825    0.1142 C   0  0  0  0  0  0  0  0  0  0  0  0
   -2.7123   -1.3480   -0.7693 H   0  0  0  0  0  0  0  0  0  0  0  0
   -2.6987   -1.1754    0.9702 H   0  0  0  0  0  0  0  0  0  0  0  0
   -0.1775   -0.7183   -0.0461 C   0  0  0  0  0  0  0  0  0  0  0  0
   -1.3746    0.9739    1.0433 H   0  0  0  0  0  0  0  0  0  0  0  0
   -1.3924    0.8531   -0.7845 H   0  0  0  0  0  0  0  0  0  0  0  0
   -0.1273   -1.2761    0.7952 H   0  0  0  0  0  0  0  0  0  0  0  0
    0.6910   -0.1814   -0.0180 H   0  0  0  0  0  0  0  0  0  0  0  0
   -0.1636   -1.4997   -0.9940 H   0  0  0  0  0  0  0  0  0  0  0  0
  1  2  1  0  0  0  0
  1  3  1  0  0  0  0
  2  6  1  0  0  0  0
  2  8  1  0  0  0  0
  4  1  1  0  0  0  0
  6 10  1  0  0  0  0
  7  2  1  0  0  0  0
  9 13  1  0  0  0  0
  9  6  1  0  0  0  0
  9 12  1  0  0  0  0
 11  6  1  0  0  0  0
 14  9  1  0  0  0  0
M  RAD  2   1   2   5   2
M  END
$$$$
