14
butane_opt
C  -3.978898   0.242791   0.059500
C  -2.729802  -0.582866  -0.022644
H  -4.861694  -0.360125  -0.083349
H  -3.793952   0.626729  -0.678586
H  -3.983483   1.065368   1.025486
C  -1.369854   0.220869  -0.027969
H  -2.905299  -1.189484  -0.916220
H  -2.653974  -1.228198   0.900716
C  -0.124393  -0.732963   0.061675
H  -1.517183   0.937164   0.827862
H  -1.418712   0.793903  -0.868485
H  -0.053666  -1.596338   1.158172
H   0.795570  -0.168243  -0.187454
H  -0.189600  -1.127634  -0.543883
