14
butane_opt
C  -4.003077   0.309846   0.056507
C  -2.684588  -0.706301   0.013237
H  -4.870217  -0.179877   0.151226
H  -4.086501   1.004337  -0.929375
H  -3.920599   0.899653   0.938775
C  -1.402826   0.162903  -0.055438
H  -2.694399  -1.332790  -0.726686
H  -2.568978  -1.250806   0.852434
C  -0.147892  -0.652433   0.059998
H  -1.171552   0.819389   0.763147
H  -1.361480   0.831476  -0.947620
H  -0.403861  -1.067668   0.920109
H   0.750408  -0.009654   0.398060
H   0.136772  -1.554944  -0.906682
