butane_opt
 OpenBabel08242015383D

 14 13  0  0  0  0  0  0  0  0999 V2000
   -3.8945    0.2333    0.1165 C   0  0  0  0  0  0  0  0  0  0  0  0
   -2.7197   -0.5697   -0.0586 C   0  0  0  0  0  0  0  0  0  0  0  0
   -4.8384   -0.4810    0.1166 H   0  0  0  0  0  0  0  0  0  0  0  0
   -4.1477    0.8324   -0.6772 H   0  0  0  0  0  0  0  0  0  0  0  0
   -3.7964    0.8869    1.0096 H   0  0  0  0  0  0  0  0  0  0  0  0
   -1.4136    0.2336   -0.1187 C   0  0  0  0  0  0  0  0  0  0  0  0
   -2.8805   -1.2673   -0.9276 H   0  0  0  0  0  0  0  0  0  0  0  0
   -2.6796   -1.1714    0.8540 H   0  0  0  0  0  0  0  0  0  0  0  0
   -0.1657   -0.7328    0.1115 C   0  0  0  0  0  0  0  0  0  0  0  0
   -1.3754    0.9053    0.7391 H   0  0  0  0  0  0  0  0  0  0  0  0
   -1.5017    0.8765   -1.0757 H   0  0  0  0  0  0  0  0  0  0  0  0
   -0.3964   -1.4185    1.1128 H   0  0  0  0  0  0  0  0  0  0  0  0
    0.7529   -0.1157    0.4150 H   0  0  0  0  0  0  0  0  0  0  0  0
    0.1784   -1.5098   -0.7411 H   0  0  0  0  0  0  0  0  0  0  0  0
  1  3  1  0  0  0  0
  1  5  1  0  0  0  0
  2  1  1  0  0  0  0
  2  8  1  0  0  0  0
  4  1  1  0  0  0  0
  6  2  1  0  0  0  0
  6  9  1  0  0  0  0
  6 10  1  0  0  0  0
  7  2  1  0  0  0  0
  9 13  1  0  0  0  0
  9 12  1  0  0  0  0
 11  6  1  0  0  0  0
 14  9  1  0  0  0  0
M  END
$$$$
