14
butane_opt
C  -4.005551   0.277128  -0.018098
C  -2.695982  -0.646622   0.027855
H  -4.825785  -0.159800   0.486681
H  -4.167979   1.331865  -1.167971
H  -3.972125   0.600253   0.591247
C  -1.366107   0.164771   0.113142
H  -2.615110  -1.428494  -0.783428
H  -2.724673  -1.269954   0.916569
C  -0.131693  -0.676675  -0.004942
H  -1.528438   0.823150   0.904784
H  -1.330158   0.752577  -0.763602
H  -0.059148  -1.133372   0.730566
H   0.864436   0.029103   0.002041
H  -0.288208  -1.396843  -0.940861
