14
butane_opt
C  -3.905919   0.250107  -0.059944
C  -2.682114  -0.591089   0.163716
H  -4.901771  -0.436949   0.145805
H  -3.823982   1.009860  -1.060238
H  -3.919026   0.573574   0.574082
C  -1.447709   0.240068   0.041594
H  -2.655523  -1.191705  -0.596285
H  -2.675859  -1.349333   1.132813
C  -0.184794  -0.724301  -0.056297
H  -1.429910   1.008441   0.934572
H  -1.426852   0.613945  -0.749797
H  -0.206899  -0.911473   0.534320
H   0.615013  -0.129867   0.523297
H   0.054508  -1.771197  -1.132373
