14
butane_opt
C  -3.919819   0.283937  -0.038632
C  -2.665711  -0.640552   0.078380
H  -4.742930  -0.225776   0.175513
H  -4.054674   1.182897  -1.139992
H  -3.869503   0.756583   0.714386
C  -1.416054   0.142712   0.099822
H  -2.657116  -1.445726  -0.817466
H  -2.745747  -1.320310   0.948664
C  -0.190483  -0.645597  -0.019738
H  -1.377931   0.752297   0.975203
H  -1.630113   0.793584  -0.740076
H  -0.070492  -1.191625   0.862062
H   0.719711   0.030591  -0.061198
H  -0.327411  -1.443418  -0.943877
