butane_opt
 OpenBabel08242015383D

 14 12  0  0  0  0  0  0  0  0999 V2000
   -3.9406    0.2264    0.0851 C   0  0  0  0  0  0  0  0  0  0  0  0
   -2.7575   -0.6000   -0.0720 C   0  0  0  0  0  0  0  0  0  0  0  0
   -4.8911   -0.3963    0.1094 H   0  0  0  0  0  0  0  0  0  0  0  0
   -4.0513    0.7846   -0.7592 H   0  0  0  0  0  0  0  0  0  0  0  0
   -3.8638    0.9995    1.0039 H   0  0  0  0  0  0  0  0  0  0  0  0
   -1.4106    0.2536   -0.0371 C   0  0  0  0  0  0  0  0  0  0  0  0
   -2.7355   -1.2497   -0.9069 H   0  0  0  0  0  0  0  0  0  0  0  0
   -2.6325   -1.1442    0.7257 H   0  0  0  0  0  0  0  0  0  0  0  0
   -0.1112   -0.7130    0.0763 C   0  0  0  0  0  0  0  0  0  0  0  0
   -1.2892    0.9119    0.9236 H   0  0  0  0  0  0  0  0  0  0  0  0
   -1.4405    0.8212   -0.8789 H   0  0  0  0  0  0  0  0  0  0  0  0
    0.0152   -1.7980    1.2627 H   0  0  0  0  0  0  0  0  0  0  0  0
    0.6378   -0.3145   -0.1091 H   0  0  0  0  0  0  0  0  0  0  0  0
   -0.1088   -1.1048   -0.4983 H   0  0  0  0  0  0  0  0  0  0  0  0
  1  3  1  0  0  0  0
  1  5  1  0  0  0  0
  2  6  1  0  0  0  0
  2  1  1  0  0  0  0
  2  8  1  0  0  0  0
  4  1  1  0  0  0  0
  6  9  1  0  0  0  0
  6 10  1  0  0  0  0
  7  2  1  0  0  0  0
 11  6  1  0  0  0  0
 13  9  1  0  0  0  0
 14  9  1  0  0  0  0
M  RAD  2   9   2  12   2
M  END
$$$$
