14
butane_opt
C  -3.946024   0.293281  -0.068678
C  -2.638042  -0.671404   0.086404
H  -4.901432  -0.299806   0.110162
H  -3.828034   1.002630  -1.118304
H  -4.028539   0.843145   0.726808
C  -1.408837   0.165195   0.152987
H  -2.673330  -1.249805  -0.659097
H  -2.657781  -1.199106   0.977517
C  -0.213886  -0.661448  -0.046856
H  -1.379878   0.867920   1.021818
H  -1.353975   0.831198  -0.762940
H   0.028165  -1.329827   0.862426
H   0.741469  -0.072856  -0.323173
H  -0.497388  -1.368738  -0.894064
