14
butane_opt
C  -3.914764   0.273187   0.123462
C  -2.694945  -0.629930  -0.104683
H  -4.779860  -0.250094   0.551433
H  -4.128742   1.107477  -0.968993
H  -3.849042   0.739124   0.890038
C  -1.434705   0.149147  -0.068758
H  -2.817134  -1.538112  -1.088603
H  -2.539026  -1.046046   0.658619
C  -0.150008  -0.676950   0.128511
H  -1.423684   0.831856   0.782183
H  -1.330511   0.881522  -0.956357
H  -0.284775  -1.301770   1.121738
H   0.688103  -0.085546   0.097208
H  -0.211348  -1.191648  -0.595944
