14
butane_opt
C  -3.921780   0.248967  -0.035714
C  -2.713215  -0.545144   0.099766
H  -4.906582  -0.487267   0.189477
H  -3.908702   1.071587  -1.107156
H  -3.956582   0.561901   0.482884
C  -1.391893   0.182476   0.114162
H  -2.712266  -1.347980  -0.769265
H  -2.698711  -1.175386   0.970197
C  -0.177501  -0.718257  -0.046105
H  -1.374607   0.973911   1.043332
H  -1.392376   0.853071  -0.784482
H  -0.127347  -1.276106   0.795193
H   0.691019  -0.181405  -0.017970
H  -0.163619  -1.499652  -0.994032
