butane_opt
 OpenBabel08242015383D

 14 12  0  0  0  0  0  0  0  0999 V2000
   -3.9252    0.2995    0.0975 C   0  0  0  0  0  0  0  0  0  0  0  0
   -2.6681   -0.6506   -0.0796 C   0  0  0  0  0  0  0  0  0  0  0  0
   -4.9728   -0.4120    0.0736 H   0  0  0  0  0  0  0  0  0  0  0  0
   -3.9731    0.7541   -0.7311 H   0  0  0  0  0  0  0  0  0  0  0  0
   -4.0062    1.2258    1.0939 H   0  0  0  0  0  0  0  0  0  0  0  0
   -1.4060    0.1321   -0.0130 C   0  0  0  0  0  0  0  0  0  0  0  0
   -2.5603   -1.4827   -1.0536 H   0  0  0  0  0  0  0  0  0  0  0  0
   -2.6912   -1.1439    0.7298 H   0  0  0  0  0  0  0  0  0  0  0  0
   -0.1841   -0.6558    0.1049 C   0  0  0  0  0  0  0  0  0  0  0  0
   -1.5055    0.7997    0.7540 H   0  0  0  0  0  0  0  0  0  0  0  0
   -1.3659    0.8770   -1.0410 H   0  0  0  0  0  0  0  0  0  0  0  0
   -0.0885   -1.7018    1.2672 H   0  0  0  0  0  0  0  0  0  0  0  0
    0.7072    0.0061   -0.4215 H   0  0  0  0  0  0  0  0  0  0  0  0
   -0.3591   -0.8992   -0.4617 H   0  0  0  0  0  0  0  0  0  0  0  0
  1  5  1  0  0  0  0
  2  6  1  0  0  0  0
  2  1  1  0  0  0  0
  2  8  1  0  0  0  0
  3  1  1  0  0  0  0
  4  1  1  0  0  0  0
  6  9  1  0  0  0  0
  6 10  1  0  0  0  0
  7  2  1  0  0  0  0
 11  6  1  0  0  0  0
 13  9  1  0  0  0  0
 14  9  1  0  0  0  0
M  RAD  2   9   2  12   2
M  END
$$$$
