14
butane_opt
C  -4.014199   0.302294   0.084848
C  -2.717191  -0.654415  -0.008877
H  -4.861489  -0.207963  -0.250155
H  -4.063969   0.633049  -0.573298
H  -3.991648   1.228529   1.141950
C  -1.353763   0.140558  -0.057712
H  -2.690831  -1.376250  -0.885575
H  -2.578722  -1.258973   0.774022
C  -0.139033  -0.672516   0.094576
H  -1.327953   0.668698   0.660430
H  -1.209475   1.066752  -1.181513
H  -0.294734  -1.348460   1.052347
H   0.839408  -0.098409   0.110018
H  -0.158702  -1.174057  -0.728512
