14
butane_opt
C  -3.982983   0.308906  -0.055802
C  -2.666697  -0.667315   0.112169
H  -4.966447  -0.317520   0.246398
H  -4.150255   1.219264  -1.144417
H  -3.817370   0.672874   0.540027
C  -1.401360   0.142643   0.082079
H  -2.622247  -1.229793  -0.728996
H  -2.766950  -1.388478   1.034811
C  -0.143027  -0.655197  -0.043095
H  -1.172726   1.004463   1.127972
H  -1.561939   0.567513  -0.697121
H  -0.251795  -1.004730   0.727411
H   0.731580  -0.116810   0.133873
H  -0.125039  -1.426650  -0.989387
