butane_opt
 OpenBabel08242015383D

 14 12  0  0  0  0  0  0  0  0999 V2000
   -3.8922    0.2366    0.1084 C   0  0  0  0  0  0  0  0  0  0  0  0
   -2.7114   -0.5697   -0.0177 C   0  0  0  0  0  0  0  0  0  0  0  0
   -4.8727   -0.3358   -0.4265 H   0  0  0  0  0  0  0  0  0  0  0  0
   -3.7305    0.4208   -0.5640 H   0  0  0  0  0  0  0  0  0  0  0  0
   -4.0101    1.2891    1.2157 H   0  0  0  0  0  0  0  0  0  0  0  0
   -1.4611    0.1782   -0.0908 C   0  0  0  0  0  0  0  0  0  0  0  0
   -2.7255   -1.1429   -0.8336 H   0  0  0  0  0  0  0  0  0  0  0  0
   -2.7076   -1.1867    0.8397 H   0  0  0  0  0  0  0  0  0  0  0  0
   -0.1559   -0.7172    0.1191 C   0  0  0  0  0  0  0  0  0  0  0  0
   -1.5444    0.6665    0.6722 H   0  0  0  0  0  0  0  0  0  0  0  0
   -1.3293    0.9509   -1.1368 H   0  0  0  0  0  0  0  0  0  0  0  0
   -0.1557   -1.3675    1.0547 H   0  0  0  0  0  0  0  0  0  0  0  0
    0.8219   -0.0584   -0.1196 H   0  0  0  0  0  0  0  0  0  0  0  0
   -0.1283   -1.2522   -0.6508 H   0  0  0  0  0  0  0  0  0  0  0  0
  2  1  1  0  0  0  0
  2  8  1  0  0  0  0
  3  1  1  0  0  0  0
  4  1  1  0  0  0  0
  6  2  1  0  0  0  0
  6  9  1  0  0  0  0
  6 10  1  0  0  0  0
  7  2  1  0  0  0  0
  9 12  1  0  0  0  0
 11  6  1  0  0  0  0
 13  9  1  0  0  0  0
 14  9  1  0  0  0  0
M  RAD  2   1   2   5   2
M  END
$$$$
