14
butane_opt
C  -3.942266   0.285800   0.110727
C  -2.658686  -0.668443  -0.106448
H  -4.749301  -0.155015   0.421984
H  -4.240387   0.893946  -0.732725
H  -3.847636   1.008044   1.068040
C  -1.388830   0.146291  -0.092609
H  -2.710433  -1.301928  -0.967118
H  -2.631484  -1.283608   0.726614
C  -0.203139  -0.647607   0.137898
H  -1.467134   0.780860   0.666681
H  -1.400843   0.863620  -0.987927
H  -0.334621  -1.352729   1.174972
H   0.741143   0.034270   0.206697
H  -0.089627  -1.340222  -0.709608
