butane_opt
 OpenBabel08242015383D

 14 13  0  0  0  0  0  0  0  0999 V2000
   -3.9830    0.3089   -0.0558 C   0  0  0  0  0  0  0  0  0  0  0  0
   -2.6667   -0.6673    0.1122 C   0  0  0  0  0  0  0  0  0  0  0  0
   -4.9664   -0.3175    0.2464 H   0  0  0  0  0  0  0  0  0  0  0  0
   -4.1503    1.2193   -1.1444 H   0  0  0  0  0  0  0  0  0  0  0  0
   -3.8174    0.6729    0.5400 H   0  0  0  0  0  0  0  0  0  0  0  0
   -1.4014    0.1426    0.0821 C   0  0  0  0  0  0  0  0  0  0  0  0
   -2.6222   -1.2298   -0.7290 H   0  0  0  0  0  0  0  0  0  0  0  0
   -2.7670   -1.3885    1.0348 H   0  0  0  0  0  0  0  0  0  0  0  0
   -0.1430   -0.6552   -0.0431 C   0  0  0  0  0  0  0  0  0  0  0  0
   -1.1727    1.0045    1.1280 H   0  0  0  0  0  0  0  0  0  0  0  0
   -1.5619    0.5675   -0.6971 H   0  0  0  0  0  0  0  0  0  0  0  0
   -0.2518   -1.0047    0.7274 H   0  0  0  0  0  0  0  0  0  0  0  0
    0.7316   -0.1168    0.1339 H   0  0  0  0  0  0  0  0  0  0  0  0
   -0.1250   -1.4266   -0.9894 H   0  0  0  0  0  0  0  0  0  0  0  0
  1  2  1  0  0  0  0
  1  3  1  0  0  0  0
  1  5  1  0  0  0  0
  2  8  1  0  0  0  0
  4  1  1  0  0  0  0
  6  2  1  0  0  0  0
  6 10  1  0  0  0  0
  7  2  1  0  0  0  0
  9  6  1  0  0  0  0
  9 13  1  0  0  0  0
  9 12  1  0  0  0  0
 11  6  1  0  0  0  0
 14  9  1  0  0  0  0
M  END
$$$$
