butane_opt
 OpenBabel08242015383D

 14 13  0  0  0  0  0  0  0  0999 V2000
   -3.9805    0.2761   -0.0362 C   0  0  0  0  0  0  0  0  0  0  0  0
   -2.6576   -0.6200    0.0603 C   0  0  0  0  0  0  0  0  0  0  0  0
   -4.8527   -0.3870    0.0609 H   0  0  0  0  0  0  0  0  0  0  0  0
   -3.8995    1.0551   -0.9935 H   0  0  0  0  0  0  0  0  0  0  0  0
   -3.9045    0.9466    0.8447 H   0  0  0  0  0  0  0  0  0  0  0  0
   -1.4063    0.1516    0.0791 C   0  0  0  0  0  0  0  0  0  0  0  0
   -2.5340   -1.3023   -0.7458 H   0  0  0  0  0  0  0  0  0  0  0  0
   -2.6894   -1.3671    1.0517 H   0  0  0  0  0  0  0  0  0  0  0  0
   -0.1862   -0.6803   -0.0354 C   0  0  0  0  0  0  0  0  0  0  0  0
   -1.2812    0.9693    1.1256 H   0  0  0  0  0  0  0  0  0  0  0  0
   -1.3660    0.6553   -0.7307 H   0  0  0  0  0  0  0  0  0  0  0  0
   -0.1245   -1.4181    0.9282 H   0  0  0  0  0  0  0  0  0  0  0  0
    0.7531   -0.0272   -0.1173 H   0  0  0  0  0  0  0  0  0  0  0  0
   -0.3562   -1.1027   -0.7810 H   0  0  0  0  0  0  0  0  0  0  0  0
  1  2  1  0  0  0  0
  1  3  1  0  0  0  0
  1  5  1  0  0  0  0
  2  6  1  0  0  0  0
  2  8  1  0  0  0  0
  4  1  1  0  0  0  0
  6 10  1  0  0  0  0
  7  2  1  0  0  0  0
  9  6  1  0  0  0  0
  9 12  1  0  0  0  0
 11  6  1  0  0  0  0
 13  9  1  0  0  0  0
 14  9  1  0  0  0  0
M  END
$$$$
