butane_opt
 OpenBabel08242015383D

 14 13  0  0  0  0  0  0  0  0999 V2000
   -3.9739    0.2725    0.1224 C   0  0  0  0  0  0  0  0  0  0  0  0
   -2.7277   -0.6010   -0.0615 C   0  0  0  0  0  0  0  0  0  0  0  0
   -4.9775   -0.3796    0.1563 H   0  0  0  0  0  0  0  0  0  0  0  0
   -3.9337    0.7986   -0.7335 H   0  0  0  0  0  0  0  0  0  0  0  0
   -3.7604    0.7817    0.9972 H   0  0  0  0  0  0  0  0  0  0  0  0
   -1.3954    0.2110   -0.0994 C   0  0  0  0  0  0  0  0  0  0  0  0
   -2.9444   -1.3161   -0.9769 H   0  0  0  0  0  0  0  0  0  0  0  0
   -2.6895   -1.2302    0.8600 H   0  0  0  0  0  0  0  0  0  0  0  0
   -0.1211   -0.7148    0.1343 C   0  0  0  0  0  0  0  0  0  0  0  0
   -1.4260    0.7716    0.6013 H   0  0  0  0  0  0  0  0  0  0  0  0
   -1.3274    1.0742   -1.1922 H   0  0  0  0  0  0  0  0  0  0  0  0
   -0.1658   -1.1529    0.9069 H   0  0  0  0  0  0  0  0  0  0  0  0
    0.7262   -0.2168    0.4583 H   0  0  0  0  0  0  0  0  0  0  0  0
    0.0821   -1.6328   -0.8060 H   0  0  0  0  0  0  0  0  0  0  0  0
  1  3  1  0  0  0  0
  1  5  1  0  0  0  0
  2  1  1  0  0  0  0
  2  8  1  0  0  0  0
  4  1  1  0  0  0  0
  6  2  1  0  0  0  0
  6  9  1  0  0  0  0
  6 10  1  0  0  0  0
  7  2  1  0  0  0  0
  9 13  1  0  0  0  0
  9 12  1  0  0  0  0
 11  6  1  0  0  0  0
 14  9  1  0  0  0  0
M  END
$$$$
