14
butane_opt
C  -3.979521   0.313167   0.139015
C  -2.682903  -0.661514  -0.069791
H  -4.868356  -0.313068   0.146419
H  -4.092023   0.859437  -0.689139
H  -3.933296   0.910904   1.023317
C  -1.357966   0.189298  -0.161963
H  -2.900897  -1.453230  -0.958161
H  -2.580366  -1.301753   0.788507
C  -0.184528  -0.678828   0.147724
H  -1.350029   0.792249   0.702349
H  -1.334776   0.815490  -0.988671
H  -0.279592  -1.240207   0.968291
H   0.694470  -0.091130   0.434132
H   0.065179  -1.374384  -0.650991
