14
butane_opt
C  -3.931562   0.223146  -0.070392
C  -2.731623  -0.605288   0.184606
H  -4.859581  -0.360438   0.146694
H  -3.945380   1.113638  -1.181252
H  -4.028493   0.775811   0.689464
C  -1.428630   0.230302   0.056928
H  -2.738706  -1.343381  -0.680561
H  -2.861082  -1.162767   1.122150
C  -0.088261  -0.713088  -0.065041
H  -1.422619   0.945109   0.936179
H  -1.545464   0.854822  -0.838207
H  -0.171005  -0.994287   0.573710
H   0.657645  -0.205937   0.535865
H   0.074155  -1.743084  -1.177697
