butane_opt
 OpenBabel08242015383D

 14 13  0  0  0  0  0  0  0  0999 V2000
   -3.9148    0.2732    0.1235 C   0  0  0  0  0  0  0  0  0  0  0  0
   -2.6949   -0.6299   -0.1047 C   0  0  0  0  0  0  0  0  0  0  0  0
   -4.7799   -0.2501    0.5514 H   0  0  0  0  0  0  0  0  0  0  0  0
   -4.1287    1.1075   -0.9690 H   0  0  0  0  0  0  0  0  0  0  0  0
   -3.8490    0.7391    0.8900 H   0  0  0  0  0  0  0  0  0  0  0  0
   -1.4347    0.1491   -0.0688 C   0  0  0  0  0  0  0  0  0  0  0  0
   -2.8171   -1.5381   -1.0886 H   0  0  0  0  0  0  0  0  0  0  0  0
   -2.5390   -1.0460    0.6586 H   0  0  0  0  0  0  0  0  0  0  0  0
   -0.1500   -0.6770    0.1285 C   0  0  0  0  0  0  0  0  0  0  0  0
   -1.4237    0.8319    0.7822 H   0  0  0  0  0  0  0  0  0  0  0  0
   -1.3305    0.8815   -0.9564 H   0  0  0  0  0  0  0  0  0  0  0  0
   -0.2848   -1.3018    1.1217 H   0  0  0  0  0  0  0  0  0  0  0  0
    0.6881   -0.0855    0.0972 H   0  0  0  0  0  0  0  0  0  0  0  0
   -0.2113   -1.1916   -0.5959 H   0  0  0  0  0  0  0  0  0  0  0  0
  1  3  1  0  0  0  0
  1  5  1  0  0  0  0
  2  6  1  0  0  0  0
  2  1  1  0  0  0  0
  2  8  1  0  0  0  0
  4  1  1  0  0  0  0
  6  9  1  0  0  0  0
  6 10  1  0  0  0  0
  7  2  1  0  0  0  0
  9 12  1  0  0  0  0
 11  6  1  0  0  0  0
 13  9  1  0  0  0  0
 14  9  1  0  0  0  0
M  END
$$$$
