butane_opt
 OpenBabel08242015383D

 14 13  0  0  0  0  0  0  0  0999 V2000
   -3.9293    0.2212   -0.0537 C   0  0  0  0  0  0  0  0  0  0  0  0
   -2.7223   -0.6105    0.0864 C   0  0  0  0  0  0  0  0  0  0  0  0
   -4.8730   -0.3581    0.0072 H   0  0  0  0  0  0  0  0  0  0  0  0
   -3.8828    0.9235   -1.0165 H   0  0  0  0  0  0  0  0  0  0  0  0
   -3.9601    0.9029    0.6794 H   0  0  0  0  0  0  0  0  0  0  0  0
   -1.4177    0.2672    0.1376 C   0  0  0  0  0  0  0  0  0  0  0  0
   -2.8913   -1.2687   -0.7568 H   0  0  0  0  0  0  0  0  0  0  0  0
   -2.8041   -1.0592    0.8848 H   0  0  0  0  0  0  0  0  0  0  0  0
   -0.1161   -0.7410   -0.0234 C   0  0  0  0  0  0  0  0  0  0  0  0
   -1.3779    0.9368    1.0355 H   0  0  0  0  0  0  0  0  0  0  0  0
   -1.4628    0.8772   -0.7768 H   0  0  0  0  0  0  0  0  0  0  0  0
    0.1025   -1.5673    0.9894 H   0  0  0  0  0  0  0  0  0  0  0  0
    0.7243   -0.2033   -0.5287 H   0  0  0  0  0  0  0  0  0  0  0  0
   -0.3583   -1.3161   -0.8450 H   0  0  0  0  0  0  0  0  0  0  0  0
  1  3  1  0  0  0  0
  1  2  1  0  0  0  0
  1  5  1  0  0  0  0
  2  6  1  0  0  0  0
  2  8  1  0  0  0  0
  4  1  1  0  0  0  0
  6 10  1  0  0  0  0
  7  2  1  0  0  0  0
  9  6  1  0  0  0  0
  9 12  1  0  0  0  0
 11  6  1  0  0  0  0
 13  9  1  0  0  0  0
 14  9  1  0  0  0  0
M  END
$$$$
