butane_opt
 OpenBabel08242015383D

 14 13  0  0  0  0  0  0  0  0999 V2000
   -3.9296    0.2313    0.0879 C   0  0  0  0  0  0  0  0  0  0  0  0
   -2.7407   -0.5698    0.0066 C   0  0  0  0  0  0  0  0  0  0  0  0
   -4.8557   -0.4150    0.0233 H   0  0  0  0  0  0  0  0  0  0  0  0
   -4.0358    0.7622   -0.7317 H   0  0  0  0  0  0  0  0  0  0  0  0
   -3.8225    0.9605    0.9576 H   0  0  0  0  0  0  0  0  0  0  0  0
   -1.3871    0.2194   -0.0914 C   0  0  0  0  0  0  0  0  0  0  0  0
   -2.7592   -1.2557   -0.8544 H   0  0  0  0  0  0  0  0  0  0  0  0
   -2.8521   -1.0417    0.8949 H   0  0  0  0  0  0  0  0  0  0  0  0
   -0.1524   -0.7275    0.1087 C   0  0  0  0  0  0  0  0  0  0  0  0
   -1.5015    0.6951    0.5726 H   0  0  0  0  0  0  0  0  0  0  0  0
   -1.4746    1.0039   -1.0947 H   0  0  0  0  0  0  0  0  0  0  0  0
   -0.2439   -1.2051    0.8153 H   0  0  0  0  0  0  0  0  0  0  0  0
    0.8352   -0.1205    0.4125 H   0  0  0  0  0  0  0  0  0  0  0  0
    0.1998   -1.7082   -0.9080 H   0  0  0  0  0  0  0  0  0  0  0  0
  1  5  1  0  0  0  0
  2  1  1  0  0  0  0
  2  8  1  0  0  0  0
  3  1  1  0  0  0  0
  4  1  1  0  0  0  0
  6  2  1  0  0  0  0
  6  9  1  0  0  0  0
  6 10  1  0  0  0  0
  7  2  1  0  0  0  0
  9 13  1  0  0  0  0
  9 12  1  0  0  0  0
 11  6  1  0  0  0  0
 14  9  1  0  0  0  0
M  END
$$$$
