14
butane_opt
C  -3.983610   0.285536   0.056822
C  -2.693958  -0.648036   0.031690
H  -4.745747  -0.196764  -0.171322
H  -4.187044   0.831696  -0.765760
H  -4.160693   1.019681   0.996649
C  -1.377593   0.134723  -0.062140
H  -2.559891  -1.216410  -0.646730
H  -2.715938  -1.348591   0.961089
C  -0.147854  -0.670173   0.051552
H  -1.399150   0.804888   0.796828
H  -1.348237   0.834403  -0.950234
H  -0.350118  -1.055872   0.816075
H   0.853125   0.022443   0.341730
H   0.022960  -1.383803  -0.890228
