14
butane_opt
C  -3.912719   0.287009   0.052050
C  -2.711266  -0.631545  -0.017246
H  -4.876219  -0.313386  -0.062661
H  -3.916745   0.527063  -0.580338
H  -3.874120   1.240726   1.080693
C  -1.401391   0.194384  -0.060381
H  -2.630679  -1.328480  -0.881626
H  -2.634699  -1.394396   0.969831
C  -0.211590  -0.690713   0.094468
H  -1.343444   0.730167   0.762642
H  -1.430279   0.911424  -0.965739
H  -0.104741  -1.395917   1.001193
H   0.722884  -0.057451  -0.045396
H  -0.110213  -1.289171  -0.615841
