butane_opt
 OpenBabel08242015383D

 14 13  0  0  0  0  0  0  0  0999 V2000
   -3.9792    0.2938    0.0920 C   0  0  0  0  0  0  0  0  0  0  0  0
   -2.7159   -0.6331   -0.0385 C   0  0  0  0  0  0  0  0  0  0  0  0
   -4.8194   -0.2624    0.1471 H   0  0  0  0  0  0  0  0  0  0  0  0
   -4.0694    0.8721   -0.8128 H   0  0  0  0  0  0  0  0  0  0  0  0
   -3.9630    0.9159    0.8272 H   0  0  0  0  0  0  0  0  0  0  0  0
   -1.3664    0.1672   -0.0512 C   0  0  0  0  0  0  0  0  0  0  0  0
   -2.7599   -1.3215   -0.8635 H   0  0  0  0  0  0  0  0  0  0  0  0
   -2.7718   -1.2632    0.7987 H   0  0  0  0  0  0  0  0  0  0  0  0
   -0.1395   -0.7000    0.0691 C   0  0  0  0  0  0  0  0  0  0  0  0
   -1.4493    0.8806    0.8451 H   0  0  0  0  0  0  0  0  0  0  0  0
   -1.3729    0.7374   -0.8429 H   0  0  0  0  0  0  0  0  0  0  0  0
   -0.2258   -1.4256    1.0688 H   0  0  0  0  0  0  0  0  0  0  0  0
    0.8878    0.0675    0.1218 H   0  0  0  0  0  0  0  0  0  0  0  0
   -0.0975   -1.1810   -0.6851 H   0  0  0  0  0  0  0  0  0  0  0  0
  1  3  1  0  0  0  0
  1  5  1  0  0  0  0
  2  1  1  0  0  0  0
  2  8  1  0  0  0  0
  4  1  1  0  0  0  0
  6  2  1  0  0  0  0
  6  9  1  0  0  0  0
  6 10  1  0  0  0  0
  7  2  1  0  0  0  0
  9 13  1  0  0  0  0
  9 12  1  0  0  0  0
 11  6  1  0  0  0  0
 14  9  1  0  0  0  0
M  END
$$$$
