14
butane_opt
C  -3.990012   0.296080  -0.024227
C  -2.697576  -0.616586   0.095359
H  -4.854122  -0.227084   0.376943
H  -4.222887   1.387593  -1.295647
H  -3.909425   0.459297   0.448623
C  -1.354911   0.138408   0.097223
H  -2.716520  -1.537279  -0.859533
H  -2.916851  -1.230917   0.935209
C  -0.153280  -0.674664  -0.029672
H  -1.265207   0.940511   1.017309
H  -1.447782   0.651538  -0.750709
H  -0.102105  -1.054707   0.661623
H   0.871630  -0.026509   0.110238
H  -0.137099  -1.495617  -0.928111
