14
butane_opt
C  -3.938582   0.231748   0.058945
C  -2.730700  -0.615494   0.009439
H  -4.734579  -0.311392  -0.349732
H  -3.945477   0.597908  -0.727387
H  -4.006322   1.273476   1.168240
C  -1.426454   0.203744  -0.042678
H  -2.728590  -1.208289  -0.785769
H  -2.640755  -1.219719   0.863890
C  -0.132500  -0.697294   0.076054
H  -1.329167   0.970532   0.753337
H  -1.496120   0.871950  -0.949354
H  -0.025560  -1.556833   1.186931
H   0.740220  -0.179903  -0.207645
H  -0.113860  -1.195979  -0.683643
