14
butane_opt
C  -3.949659   0.299854   0.059703
C  -2.678130  -0.620691   0.065260
H  -4.932173  -0.380157  -0.520163
H  -3.645675   0.582360  -0.664891
H  -4.309857   1.184643   1.090951
C  -1.389526   0.173052  -0.045826
H  -2.626215  -1.375256  -0.805035
H  -2.634849  -1.186477   0.897005
C  -0.192585  -0.689140   0.042444
H  -1.323705   0.605317   0.752508
H  -1.254821   0.798180  -0.959064
H  -0.199772  -1.447889   1.012666
H   0.789287   0.009079  -0.019874
H  -0.355334  -1.213678  -0.751061
