14
butane_opt
C  -3.934151   0.259774  -0.009891
C  -2.703041  -0.596088   0.079569
H  -4.860092  -0.338724   0.029469
H  -3.863921   0.900198  -0.944573
H  -3.976169   0.896019   0.830680
C  -1.411916   0.181473   0.023160
H  -2.755636  -1.229603  -0.738683
H  -2.752137  -1.322333   1.019825
C  -0.158641  -0.699066   0.000075
H  -1.409270   0.892389   0.913479
H  -1.395452   0.762834  -0.827915
H  -0.185938  -1.200091   0.846594
H   0.755837  -0.092848   0.123825
H  -0.094113  -1.491082  -0.946339
