14
butane_opt
C  -4.005896   0.288372  -0.084735
C  -2.670661  -0.677915   0.182047
H  -4.817027  -0.199888  -0.295804
H  -3.803229   0.890633  -1.043465
H  -4.249129   1.118791   0.827321
C  -1.383667   0.144213   0.103139
H  -2.583794  -1.159059  -0.562984
H  -2.829079  -1.465457   1.131150
C  -0.168782  -0.633899  -0.091011
H  -1.138697   1.008678   1.068463
H  -1.462727   0.721052  -0.703385
H  -0.132767  -1.250044   0.817184
H   0.762698  -0.163509  -0.062171
H  -0.048446  -1.417074  -1.038239
