butane_opt
 OpenBabel08242015383D

 14 13  0  0  0  0  0  0  0  0999 V2000
   -3.9488    0.2874    0.1056 C   0  0  0  0  0  0  0  0  0  0  0  0
   -2.6409   -0.6431   -0.0187 C   0  0  0  0  0  0  0  0  0  0  0  0
   -4.8693   -0.3124    0.1406 H   0  0  0  0  0  0  0  0  0  0  0  0
   -3.9689    0.7979   -0.7056 H   0  0  0  0  0  0  0  0  0  0  0  0
   -4.0352    1.0878    1.0768 H   0  0  0  0  0  0  0  0  0  0  0  0
   -1.4139    0.1228   -0.1079 C   0  0  0  0  0  0  0  0  0  0  0  0
   -2.8084   -1.3051   -0.9033 H   0  0  0  0  0  0  0  0  0  0  0  0
   -2.5424   -1.1288    0.7036 H   0  0  0  0  0  0  0  0  0  0  0  0
   -0.1781   -0.6565    0.1148 C   0  0  0  0  0  0  0  0  0  0  0  0
   -1.4728    0.6421    0.5973 H   0  0  0  0  0  0  0  0  0  0  0  0
   -1.3702    1.0429   -1.1775 H   0  0  0  0  0  0  0  0  0  0  0  0
   -0.6042   -1.1820    0.8995 H   0  0  0  0  0  0  0  0  0  0  0  0
    0.8685    0.0443    0.5069 H   0  0  0  0  0  0  0  0  0  0  0  0
   -0.0408   -1.4945   -0.8122 H   0  0  0  0  0  0  0  0  0  0  0  0
  1  3  1  0  0  0  0
  1  5  1  0  0  0  0
  2  1  1  0  0  0  0
  2  8  1  0  0  0  0
  4  1  1  0  0  0  0
  6  2  1  0  0  0  0
  6  9  1  0  0  0  0
  6 10  1  0  0  0  0
  7  2  1  0  0  0  0
  9 13  1  0  0  0  0
  9 12  1  0  0  0  0
 11  6  1  0  0  0  0
 14  9  1  0  0  0  0
M  END
$$$$
