butane_opt
 OpenBabel08242015383D

 14 12  0  0  0  0  0  0  0  0999 V2000
   -3.9476    0.2296   -0.0503 C   0  0  0  0  0  0  0  0  0  0  0  0
   -2.7297   -0.6098    0.0996 C   0  0  0  0  0  0  0  0  0  0  0  0
   -4.7279   -0.2602    0.3613 H   0  0  0  0  0  0  0  0  0  0  0  0
   -4.0897    1.2090   -1.2591 H   0  0  0  0  0  0  0  0  0  0  0  0
   -3.8878    0.6102    0.6046 H   0  0  0  0  0  0  0  0  0  0  0  0
   -1.4262    0.2142    0.0987 C   0  0  0  0  0  0  0  0  0  0  0  0
   -2.6965   -1.2876   -0.7338 H   0  0  0  0  0  0  0  0  0  0  0  0
   -2.7392   -1.2480    0.9826 H   0  0  0  0  0  0  0  0  0  0  0  0
   -0.1258   -0.6927   -0.0293 C   0  0  0  0  0  0  0  0  0  0  0  0
   -1.4900    1.0209    0.9643 H   0  0  0  0  0  0  0  0  0  0  0  0
   -1.3574    0.8116   -0.7435 H   0  0  0  0  0  0  0  0  0  0  0  0
    0.1203   -1.1837    0.7361 H   0  0  0  0  0  0  0  0  0  0  0  0
    0.7466   -0.1215    0.1372 H   0  0  0  0  0  0  0  0  0  0  0  0
   -0.1637   -1.7056   -1.0888 H   0  0  0  0  0  0  0  0  0  0  0  0
  1  2  1  0  0  0  0
  1  3  1  0  0  0  0
  1  5  1  0  0  0  0
  2  8  1  0  0  0  0
  6  2  1  0  0  0  0
  6 10  1  0  0  0  0
  7  2  1  0  0  0  0
  9  6  1  0  0  0  0
  9 13  1  0  0  0  0
  9 12  1  0  0  0  0
 11  6  1  0  0  0  0
 14  9  1  0  0  0  0
M  RAD  2   1   2   4   2
M  END
$$$$
