14
butane_opt
C  -3.910425   0.226257  -0.057223
C  -2.703308  -0.552626   0.169608
H  -4.797006  -0.406919  -0.444814
H  -3.661083   0.663896  -0.906089
H  -3.993332   1.002908   0.919293
C  -1.443165   0.208898   0.054053
H  -2.626995  -1.306865  -0.715740
H  -2.699999  -1.316724   1.161400
C  -0.180921  -0.706042  -0.037604
H  -1.282145   0.824414   0.859858
H  -1.641617   0.890552  -0.776780
H   0.022770  -1.226743   0.747368
H   0.610065  -0.201634  -0.018841
H  -0.097042  -1.515190  -0.928230
