butane_opt
 OpenBabel08242015383D

 14 13  0  0  0  0  0  0  0  0999 V2000
   -3.9907    0.3129    0.0444 C   0  0  0  0  0  0  0  0  0  0  0  0
   -2.6767   -0.6430    0.0430 C   0  0  0  0  0  0  0  0  0  0  0  0
   -4.9000   -0.3252    0.1221 H   0  0  0  0  0  0  0  0  0  0  0  0
   -4.1835    0.7981   -0.6852 H   0  0  0  0  0  0  0  0  0  0  0  0
   -4.0200    1.0453    0.9508 H   0  0  0  0  0  0  0  0  0  0  0  0
   -1.3462    0.1357   -0.0703 C   0  0  0  0  0  0  0  0  0  0  0  0
   -2.7324   -1.3731   -0.9096 H   0  0  0  0  0  0  0  0  0  0  0  0
   -2.7704   -1.2177    0.8751 H   0  0  0  0  0  0  0  0  0  0  0  0
   -0.1712   -0.6618    0.0825 C   0  0  0  0  0  0  0  0  0  0  0  0
   -1.3703    0.5862    0.5860 H   0  0  0  0  0  0  0  0  0  0  0  0
   -1.2157    0.9281   -1.0325 H   0  0  0  0  0  0  0  0  0  0  0  0
   -0.3777   -0.9569    0.8051 H   0  0  0  0  0  0  0  0  0  0  0  0
    0.7548   -0.0861    0.3589 H   0  0  0  0  0  0  0  0  0  0  0  0
    0.0203   -1.6033   -0.8434 H   0  0  0  0  0  0  0  0  0  0  0  0
  1  3  1  0  0  0  0
  1  5  1  0  0  0  0
  2  1  1  0  0  0  0
  2  8  1  0  0  0  0
  4  1  1  0  0  0  0
  6  2  1  0  0  0  0
  6  9  1  0  0  0  0
  6 10  1  0  0  0  0
  7  2  1  0  0  0  0
  9 13  1  0  0  0  0
  9 12  1  0  0  0  0
 11  6  1  0  0  0  0
 14  9  1  0  0  0  0
M  END
$$$$
