butane_opt
 OpenBabel08242015383D

 14 13  0  0  0  0  0  0  0  0999 V2000
   -3.9409    0.3133    0.0855 C   0  0  0  0  0  0  0  0  0  0  0  0
   -2.6917   -0.6274   -0.0343 C   0  0  0  0  0  0  0  0  0  0  0  0
   -4.8126   -0.3391   -0.1006 H   0  0  0  0  0  0  0  0  0  0  0  0
   -3.9317    0.7045   -0.6621 H   0  0  0  0  0  0  0  0  0  0  0  0
   -3.9623    1.0634    0.9605 H   0  0  0  0  0  0  0  0  0  0  0  0
   -1.3845    0.1076   -0.0299 C   0  0  0  0  0  0  0  0  0  0  0  0
   -2.6592   -1.3898   -0.9588 H   0  0  0  0  0  0  0  0  0  0  0  0
   -2.6253   -1.0881    0.7215 H   0  0  0  0  0  0  0  0  0  0  0  0
   -0.2105   -0.6525    0.1095 C   0  0  0  0  0  0  0  0  0  0  0  0
   -1.4454    0.7206    0.7843 H   0  0  0  0  0  0  0  0  0  0  0  0
   -1.3304    0.7383   -1.0068 H   0  0  0  0  0  0  0  0  0  0  0  0
   -0.0509   -1.5141    1.1445 H   0  0  0  0  0  0  0  0  0  0  0  0
    0.7655    0.0199   -0.4220 H   0  0  0  0  0  0  0  0  0  0  0  0
   -0.2800   -1.0503   -0.5542 H   0  0  0  0  0  0  0  0  0  0  0  0
  1  5  1  0  0  0  0
  2  6  1  0  0  0  0
  2  1  1  0  0  0  0
  2  8  1  0  0  0  0
  3  1  1  0  0  0  0
  4  1  1  0  0  0  0
  6  9  1  0  0  0  0
  6 10  1  0  0  0  0
  7  2  1  0  0  0  0
  9 12  1  0  0  0  0
 11  6  1  0  0  0  0
 13  9  1  0  0  0  0
 14  9  1  0  0  0  0
M  END
$$$$
