14
butane_opt
C  -3.940223   0.316375  -0.013879
C  -2.652126  -0.680769   0.040016
H  -4.864806  -0.290683   0.084218
H  -3.935802   0.847213  -0.880367
H  -4.004013   0.943045   0.817220
C  -1.406248   0.143317   0.057776
H  -2.681006  -1.241786  -0.709313
H  -2.651104  -1.221920   0.917981
C  -0.210131  -0.653399  -0.015205
H  -1.221064   0.838363   1.022835
H  -1.464157   0.724247  -0.802677
H  -0.210037  -1.389209   1.057248
H   0.663474  -0.040872  -0.087318
H  -0.175017  -1.149851  -0.783072
