butane_opt
 OpenBabel08242015383D

 14 13  0  0  0  0  0  0  0  0999 V2000
   -3.9423    0.2858    0.1107 C   0  0  0  0  0  0  0  0  0  0  0  0
   -2.6587   -0.6684   -0.1064 C   0  0  0  0  0  0  0  0  0  0  0  0
   -4.7493   -0.1550    0.4220 H   0  0  0  0  0  0  0  0  0  0  0  0
   -4.2404    0.8939   -0.7327 H   0  0  0  0  0  0  0  0  0  0  0  0
   -3.8476    1.0080    1.0680 H   0  0  0  0  0  0  0  0  0  0  0  0
   -1.3888    0.1463   -0.0926 C   0  0  0  0  0  0  0  0  0  0  0  0
   -2.7104   -1.3019   -0.9671 H   0  0  0  0  0  0  0  0  0  0  0  0
   -2.6315   -1.2836    0.7266 H   0  0  0  0  0  0  0  0  0  0  0  0
   -0.2031   -0.6476    0.1379 C   0  0  0  0  0  0  0  0  0  0  0  0
   -1.4671    0.7809    0.6667 H   0  0  0  0  0  0  0  0  0  0  0  0
   -1.4008    0.8636   -0.9879 H   0  0  0  0  0  0  0  0  0  0  0  0
   -0.3346   -1.3527    1.1750 H   0  0  0  0  0  0  0  0  0  0  0  0
    0.7411    0.0343    0.2067 H   0  0  0  0  0  0  0  0  0  0  0  0
   -0.0896   -1.3402   -0.7096 H   0  0  0  0  0  0  0  0  0  0  0  0
  1  3  1  0  0  0  0
  1  5  1  0  0  0  0
  2  6  1  0  0  0  0
  2  1  1  0  0  0  0
  2  8  1  0  0  0  0
  4  1  1  0  0  0  0
  6  9  1  0  0  0  0
  6 10  1  0  0  0  0
  7  2  1  0  0  0  0
  9 13  1  0  0  0  0
  9 12  1  0  0  0  0
 11  6  1  0  0  0  0
 14  9  1  0  0  0  0
M  END
$$$$
