butane_opt
 OpenBabel08242015383D

 14 13  0  0  0  0  0  0  0  0999 V2000
   -3.9497    0.2999    0.0597 C   0  0  0  0  0  0  0  0  0  0  0  0
   -2.6781   -0.6207    0.0653 C   0  0  0  0  0  0  0  0  0  0  0  0
   -4.9322   -0.3802   -0.5202 H   0  0  0  0  0  0  0  0  0  0  0  0
   -3.6457    0.5824   -0.6649 H   0  0  0  0  0  0  0  0  0  0  0  0
   -4.3099    1.1846    1.0910 H   0  0  0  0  0  0  0  0  0  0  0  0
   -1.3895    0.1731   -0.0458 C   0  0  0  0  0  0  0  0  0  0  0  0
   -2.6262   -1.3753   -0.8050 H   0  0  0  0  0  0  0  0  0  0  0  0
   -2.6348   -1.1865    0.8970 H   0  0  0  0  0  0  0  0  0  0  0  0
   -0.1926   -0.6891    0.0424 C   0  0  0  0  0  0  0  0  0  0  0  0
   -1.3237    0.6053    0.7525 H   0  0  0  0  0  0  0  0  0  0  0  0
   -1.2548    0.7982   -0.9591 H   0  0  0  0  0  0  0  0  0  0  0  0
   -0.1998   -1.4479    1.0127 H   0  0  0  0  0  0  0  0  0  0  0  0
    0.7893    0.0091   -0.0199 H   0  0  0  0  0  0  0  0  0  0  0  0
   -0.3553   -1.2137   -0.7511 H   0  0  0  0  0  0  0  0  0  0  0  0
  1  2  1  0  0  0  0
  1  5  1  0  0  0  0
  2  8  1  0  0  0  0
  3  1  1  0  0  0  0
  4  1  1  0  0  0  0
  6  9  1  0  0  0  0
  6  2  1  0  0  0  0
  6 10  1  0  0  0  0
  7  2  1  0  0  0  0
  9 12  1  0  0  0  0
 11  6  1  0  0  0  0
 13  9  1  0  0  0  0
 14  9  1  0  0  0  0
M  END
$$$$
