butane_opt
 OpenBabel08242015383D

 14 13  0  0  0  0  0  0  0  0999 V2000
   -3.9199    0.2165   -0.0829 C   0  0  0  0  0  0  0  0  0  0  0  0
   -2.6989   -0.5475    0.1098 C   0  0  0  0  0  0  0  0  0  0  0  0
   -4.8292   -0.4243   -0.0285 H   0  0  0  0  0  0  0  0  0  0  0  0
   -3.9600    0.9489   -1.0406 H   0  0  0  0  0  0  0  0  0  0  0  0
   -3.9004    0.8321    0.7841 H   0  0  0  0  0  0  0  0  0  0  0  0
   -1.4348    0.2062    0.1373 C   0  0  0  0  0  0  0  0  0  0  0  0
   -2.5963   -1.2291   -0.8236 H   0  0  0  0  0  0  0  0  0  0  0  0
   -2.7914   -1.2650    1.0996 H   0  0  0  0  0  0  0  0  0  0  0  0
   -0.1678   -0.7289   -0.0512 C   0  0  0  0  0  0  0  0  0  0  0  0
   -1.5101    1.0429    1.0953 H   0  0  0  0  0  0  0  0  0  0  0  0
   -1.4641    0.6762   -0.6330 H   0  0  0  0  0  0  0  0  0  0  0  0
    0.1574   -1.5056    0.9777 H   0  0  0  0  0  0  0  0  0  0  0  0
    0.8942   -0.0198   -0.5171 H   0  0  0  0  0  0  0  0  0  0  0  0
   -0.3594   -1.2634   -0.8417 H   0  0  0  0  0  0  0  0  0  0  0  0
  1  3  1  0  0  0  0
  1  2  1  0  0  0  0
  1  5  1  0  0  0  0
  2  6  1  0  0  0  0
  2  8  1  0  0  0  0
  4  1  1  0  0  0  0
  6 10  1  0  0  0  0
  7  2  1  0  0  0  0
  9  6  1  0  0  0  0
  9 12  1  0  0  0  0
 11  6  1  0  0  0  0
 13  9  1  0  0  0  0
 14  9  1  0  0  0  0
M  END
$$$$
