14
butane_opt
C  -3.938641   0.215223   0.044912
C  -2.720538  -0.570127   0.003098
H  -4.881724  -0.405290   0.212341
H  -4.149818   0.756546  -0.826948
H  -3.779240   0.962303   1.053199
C  -1.427915   0.264385  -0.066970
H  -2.751798  -1.213168  -0.767766
H  -2.667166  -1.288213   0.917731
C  -0.099561  -0.742746   0.101137
H  -1.490037   0.787478   0.616402
H  -1.474183   0.865698  -0.998382
H  -0.403140  -1.118325   0.836855
H   0.793322  -0.175666   0.347706
H   0.061437  -1.652680  -0.960405
