butane_opt
 OpenBabel08242015383D

 14 13  0  0  0  0  0  0  0  0999 V2000
   -3.9592    0.2879    0.1195 C   0  0  0  0  0  0  0  0  0  0  0  0
   -2.6827   -0.6318   -0.0955 C   0  0  0  0  0  0  0  0  0  0  0  0
   -4.9247   -0.3097    0.4348 H   0  0  0  0  0  0  0  0  0  0  0  0
   -4.2322    1.1808   -0.8879 H   0  0  0  0  0  0  0  0  0  0  0  0
   -3.7089    0.7376    0.8674 H   0  0  0  0  0  0  0  0  0  0  0  0
   -1.3559    0.1743   -0.0403 C   0  0  0  0  0  0  0  0  0  0  0  0
   -2.7651   -1.4715   -1.0758 H   0  0  0  0  0  0  0  0  0  0  0  0
   -2.5845   -1.2419    0.6755 H   0  0  0  0  0  0  0  0  0  0  0  0
   -0.2127   -0.6847    0.1225 C   0  0  0  0  0  0  0  0  0  0  0  0
   -1.6342    0.7401    0.6693 H   0  0  0  0  0  0  0  0  0  0  0  0
   -1.1303    0.8501   -0.9873 H   0  0  0  0  0  0  0  0  0  0  0  0
   -0.1621   -1.3811    1.0069 H   0  0  0  0  0  0  0  0  0  0  0  0
    0.7502    0.0403    0.1640 H   0  0  0  0  0  0  0  0  0  0  0  0
   -0.1216   -1.3383   -0.7360 H   0  0  0  0  0  0  0  0  0  0  0  0
  1  3  1  0  0  0  0
  1  5  1  0  0  0  0
  2  6  1  0  0  0  0
  2  1  1  0  0  0  0
  2  8  1  0  0  0  0
  4  1  1  0  0  0  0
  6  9  1  0  0  0  0
  6 10  1  0  0  0  0
  7  2  1  0  0  0  0
  9 13  1  0  0  0  0
  9 12  1  0  0  0  0
 11  6  1  0  0  0  0
 14  9  1  0  0  0  0
M  END
$$$$
