butane_opt
 OpenBabel08242015383D

 14 13  0  0  0  0  0  0  0  0999 V2000
   -3.9818    0.2245    0.1292 C   0  0  0  0  0  0  0  0  0  0  0  0
   -2.6849   -0.6127   -0.0665 C   0  0  0  0  0  0  0  0  0  0  0  0
   -4.8860   -0.3807   -0.2091 H   0  0  0  0  0  0  0  0  0  0  0  0
   -3.8225    0.6331   -0.6501 H   0  0  0  0  0  0  0  0  0  0  0  0
   -4.0167    1.2553    1.2282 H   0  0  0  0  0  0  0  0  0  0  0  0
   -1.4048    0.2449   -0.1157 C   0  0  0  0  0  0  0  0  0  0  0  0
   -2.8623   -1.2643   -0.9159 H   0  0  0  0  0  0  0  0  0  0  0  0
   -2.7343   -1.2338    0.9008 H   0  0  0  0  0  0  0  0  0  0  0  0
   -0.1296   -0.7183    0.1160 C   0  0  0  0  0  0  0  0  0  0  0  0
   -1.5194    0.8755    0.7435 H   0  0  0  0  0  0  0  0  0  0  0  0
   -1.3421    0.9142   -1.0218 H   0  0  0  0  0  0  0  0  0  0  0  0
   -0.0299   -1.5459    1.2293 H   0  0  0  0  0  0  0  0  0  0  0  0
    0.6281   -0.2502    0.0355 H   0  0  0  0  0  0  0  0  0  0  0  0
   -0.0108   -1.1587   -0.6073 H   0  0  0  0  0  0  0  0  0  0  0  0
  1  5  1  0  0  0  0
  2  1  1  0  0  0  0
  2  8  1  0  0  0  0
  3  1  1  0  0  0  0
  4  1  1  0  0  0  0
  6  2  1  0  0  0  0
  6  9  1  0  0  0  0
  6 10  1  0  0  0  0
  7  2  1  0  0  0  0
  9 12  1  0  0  0  0
 11  6  1  0  0  0  0
 13  9  1  0  0  0  0
 14  9  1  0  0  0  0
M  END
$$$$
