butane_opt
 OpenBabel08242015383D

 14 13  0  0  0  0  0  0  0  0999 V2000
   -3.9343    0.1996   -0.0160 C   0  0  0  0  0  0  0  0  0  0  0  0
   -2.6893   -0.5728    0.0312 C   0  0  0  0  0  0  0  0  0  0  0  0
   -4.7745   -0.3002    0.1492 H   0  0  0  0  0  0  0  0  0  0  0  0
   -3.9837    0.9113   -1.0053 H   0  0  0  0  0  0  0  0  0  0  0  0
   -3.8390    0.9089    0.8707 H   0  0  0  0  0  0  0  0  0  0  0  0
   -1.4495    0.2166    0.0646 C   0  0  0  0  0  0  0  0  0  0  0  0
   -2.6984   -0.9817   -0.7208 H   0  0  0  0  0  0  0  0  0  0  0  0
   -2.7669   -1.2535    0.9275 H   0  0  0  0  0  0  0  0  0  0  0  0
   -0.1534   -0.7236    0.0050 C   0  0  0  0  0  0  0  0  0  0  0  0
   -1.3510    0.9289    0.9813 H   0  0  0  0  0  0  0  0  0  0  0  0
   -1.4588    0.7575   -0.7939 H   0  0  0  0  0  0  0  0  0  0  0  0
    0.0288   -1.4011    0.9502 H   0  0  0  0  0  0  0  0  0  0  0  0
    0.8110   -0.1299   -0.0575 H   0  0  0  0  0  0  0  0  0  0  0  0
   -0.2661   -1.3474   -0.8590 H   0  0  0  0  0  0  0  0  0  0  0  0
  1  2  1  0  0  0  0
  1  3  1  0  0  0  0
  1  5  1  0  0  0  0
  2  6  1  0  0  0  0
  2  8  1  0  0  0  0
  4  1  1  0  0  0  0
  6 10  1  0  0  0  0
  7  2  1  0  0  0  0
  9  6  1  0  0  0  0
  9 12  1  0  0  0  0
 11  6  1  0  0  0  0
 13  9  1  0  0  0  0
 14  9  1  0  0  0  0
M  END
$$$$
