14
butane_opt
C  -3.956180   0.234688   0.060477
C  -2.715795  -0.595950  -0.054636
H  -4.924408  -0.417140  -0.086360
H  -4.014037   0.633596  -0.707055
H  -3.843792   0.978230   1.001303
C  -1.397308   0.257308   0.012098
H  -2.726350  -1.230167  -0.920037
H  -2.715939  -1.232053   0.873157
C  -0.152657  -0.726553   0.057180
H  -1.649260   0.985177   0.931444
H  -1.296585   0.886142  -0.829549
H   0.241927  -1.852266   1.220167
H   0.731412  -0.200177  -0.449795
H  -0.163641  -1.056459  -0.463668
