butane_opt
 OpenBabel08242015383D

 14 13  0  0  0  0  0  0  0  0999 V2000
   -3.9510    0.2846    0.0702 C   0  0  0  0  0  0  0  0  0  0  0  0
   -2.6281   -0.6661   -0.0686 C   0  0  0  0  0  0  0  0  0  0  0  0
   -4.8313   -0.2496    0.0320 H   0  0  0  0  0  0  0  0  0  0  0  0
   -4.0176    0.7659   -0.6875 H   0  0  0  0  0  0  0  0  0  0  0  0
   -3.9110    1.2622    1.2048 H   0  0  0  0  0  0  0  0  0  0  0  0
   -1.4060    0.1527   -0.0279 C   0  0  0  0  0  0  0  0  0  0  0  0
   -2.8263   -1.4965   -0.9945 H   0  0  0  0  0  0  0  0  0  0  0  0
   -2.5994   -1.1698    0.7674 H   0  0  0  0  0  0  0  0  0  0  0  0
   -0.2107   -0.6592    0.1215 C   0  0  0  0  0  0  0  0  0  0  0  0
   -1.5112    0.7886    0.7940 H   0  0  0  0  0  0  0  0  0  0  0  0
   -1.3097    0.9056   -1.0801 H   0  0  0  0  0  0  0  0  0  0  0  0
   -0.0448   -1.5928    1.2321 H   0  0  0  0  0  0  0  0  0  0  0  0
    0.8148   -0.0504   -0.4033 H   0  0  0  0  0  0  0  0  0  0  0  0
   -0.4532   -0.9461   -0.5152 H   0  0  0  0  0  0  0  0  0  0  0  0
  1  5  1  0  0  0  0
  2  6  1  0  0  0  0
  2  1  1  0  0  0  0
  2  8  1  0  0  0  0
  3  1  1  0  0  0  0
  4  1  1  0  0  0  0
  6  9  1  0  0  0  0
  6 10  1  0  0  0  0
  7  2  1  0  0  0  0
  9 12  1  0  0  0  0
 11  6  1  0  0  0  0
 13  9  1  0  0  0  0
 14  9  1  0  0  0  0
M  END
$$$$
