14
butane_opt
C  -3.891237   0.230542  -0.038723
C  -2.700857  -0.597113   0.076891
H  -4.796185  -0.371875  -0.077806
H  -3.910798   0.924281  -0.952480
H  -4.002219   1.014084   0.933912
C  -1.434462   0.196472   0.104342
H  -2.723817  -1.355908  -0.887274
H  -2.781584  -1.195303   0.918274
C  -0.151681  -0.685059  -0.017085
H  -1.449372   0.892462   1.020410
H  -1.596549   0.839305  -0.832965
H  -0.038133  -1.586999   1.083772
H   0.684709  -0.203325  -0.462307
H  -0.261987  -1.161188  -0.787669
