butane_opt
 OpenBabel08242015383D

 14 13  0  0  0  0  0  0  0  0999 V2000
   -3.9557    0.2501   -0.0887 C   0  0  0  0  0  0  0  0  0  0  0  0
   -2.7225   -0.6079    0.1491 C   0  0  0  0  0  0  0  0  0  0  0  0
   -4.8364   -0.3777   -0.1896 H   0  0  0  0  0  0  0  0  0  0  0  0
   -3.7467    0.8702   -1.0231 H   0  0  0  0  0  0  0  0  0  0  0  0
   -4.1019    0.8058    0.7088 H   0  0  0  0  0  0  0  0  0  0  0  0
   -1.3897    0.2514    0.1338 C   0  0  0  0  0  0  0  0  0  0  0  0
   -2.6565   -1.1978   -0.5795 H   0  0  0  0  0  0  0  0  0  0  0  0
   -2.9232   -1.3107    1.1492 H   0  0  0  0  0  0  0  0  0  0  0  0
   -0.1328   -0.7295   -0.0883 C   0  0  0  0  0  0  0  0  0  0  0  0
   -1.2462    1.1174    1.0703 H   0  0  0  0  0  0  0  0  0  0  0  0
   -1.4895    0.7037   -0.5597 H   0  0  0  0  0  0  0  0  0  0  0  0
   -0.0423   -1.4643    0.8259 H   0  0  0  0  0  0  0  0  0  0  0  0
    0.6429   -0.2315   -0.3060 H   0  0  0  0  0  0  0  0  0  0  0  0
   -0.1919   -1.3717   -0.9296 H   0  0  0  0  0  0  0  0  0  0  0  0
  1  2  1  0  0  0  0
  1  5  1  0  0  0  0
  2  8  1  0  0  0  0
  3  1  1  0  0  0  0
  4  1  1  0  0  0  0
  6  2  1  0  0  0  0
  6 10  1  0  0  0  0
  7  2  1  0  0  0  0
  9  6  1  0  0  0  0
  9 12  1  0  0  0  0
 11  6  1  0  0  0  0
 13  9  1  0  0  0  0
 14  9  1  0  0  0  0
M  END
$$$$
