14
butane_opt
C  -3.942216   0.292026  -0.010094
C  -2.652547  -0.640183   0.032858
H  -4.818281  -0.243036   0.353558
H  -4.087963   1.165146  -1.106349
H  -3.891250   0.650985   0.637377
C  -1.425243   0.149568   0.057483
H  -2.574390  -1.187160  -0.667700
H  -2.708640  -1.387397   1.043249
C  -0.180032  -0.660590  -0.005917
H  -1.359323   0.913003   1.016634
H  -1.359925   0.604603  -0.737759
H  -0.339061  -1.173133   0.800358
H   0.914258   0.028705   0.230828
H  -0.404892  -1.505561  -1.055874
