14
butane_opt
C  -3.965986   0.297604  -0.030232
C  -2.714651  -0.659366   0.102826
H  -4.882282  -0.265772  -0.336704
H  -4.088089   0.710724  -0.827882
H  -4.161198   1.134760   0.924352
C  -1.342124   0.183295   0.034679
H  -2.743320  -1.138277  -0.704731
H  -2.795966  -1.462027   1.144133
C  -0.138559  -0.699577   0.001690
H  -1.366308   0.904948   0.884440
H  -1.476856   0.729401  -0.801819
H  -0.039930  -1.194383   0.854643
H   0.796548  -0.010555  -0.109096
H  -0.315630  -1.353288  -0.889260
