butane_opt
 OpenBabel08242015383D

 14 13  0  0  0  0  0  0  0  0999 V2000
   -3.9897    0.2877    0.0319 C   0  0  0  0  0  0  0  0  0  0  0  0
   -2.6773   -0.6408    0.0792 C   0  0  0  0  0  0  0  0  0  0  0  0
   -4.8979   -0.1868   -0.4702 H   0  0  0  0  0  0  0  0  0  0  0  0
   -3.7982    0.6834   -0.7917 H   0  0  0  0  0  0  0  0  0  0  0  0
   -4.1230    1.2377    1.0343 H   0  0  0  0  0  0  0  0  0  0  0  0
   -1.3571    0.1258   -0.0087 C   0  0  0  0  0  0  0  0  0  0  0  0
   -2.7169   -1.3331   -0.7924 H   0  0  0  0  0  0  0  0  0  0  0  0
   -2.6585   -1.3622    1.0084 H   0  0  0  0  0  0  0  0  0  0  0  0
   -0.1675   -0.6644    0.0074 C   0  0  0  0  0  0  0  0  0  0  0  0
   -1.4846    0.9612    0.8527 H   0  0  0  0  0  0  0  0  0  0  0  0
   -1.3771    0.7658   -0.9127 H   0  0  0  0  0  0  0  0  0  0  0  0
   -0.2457   -1.3673    0.9816 H   0  0  0  0  0  0  0  0  0  0  0  0
    0.7549   -0.0502   -0.1083 H   0  0  0  0  0  0  0  0  0  0  0  0
   -0.1877   -1.1171   -0.6587 H   0  0  0  0  0  0  0  0  0  0  0  0
  1  2  1  0  0  0  0
  1  5  1  0  0  0  0
  2  8  1  0  0  0  0
  3  1  1  0  0  0  0
  4  1  1  0  0  0  0
  6  9  1  0  0  0  0
  6  2  1  0  0  0  0
  6 10  1  0  0  0  0
  7  2  1  0  0  0  0
  9 12  1  0  0  0  0
 11  6  1  0  0  0  0
 13  9  1  0  0  0  0
 14  9  1  0  0  0  0
M  END
$$$$
