butane_opt
 OpenBabel08242015383D

 14 13  0  0  0  0  0  0  0  0999 V2000
   -3.9193    0.2905   -0.0818 C   0  0  0  0  0  0  0  0  0  0  0  0
   -2.6854   -0.6533    0.1469 C   0  0  0  0  0  0  0  0  0  0  0  0
   -4.8419   -0.2366   -0.2445 H   0  0  0  0  0  0  0  0  0  0  0  0
   -3.8232    0.6730   -0.7677 H   0  0  0  0  0  0  0  0  0  0  0  0
   -4.0417    1.0239    0.8412 H   0  0  0  0  0  0  0  0  0  0  0  0
   -1.4189    0.1753    0.0683 C   0  0  0  0  0  0  0  0  0  0  0  0
   -2.4289   -1.1367   -0.6270 H   0  0  0  0  0  0  0  0  0  0  0  0
   -2.6618   -1.4707    1.2208 H   0  0  0  0  0  0  0  0  0  0  0  0
   -0.2223   -0.6739   -0.0528 C   0  0  0  0  0  0  0  0  0  0  0  0
   -1.2461    0.8846    0.9589 H   0  0  0  0  0  0  0  0  0  0  0  0
   -1.5344    0.7502   -0.7586 H   0  0  0  0  0  0  0  0  0  0  0  0
   -0.0591   -1.1712    0.7955 H   0  0  0  0  0  0  0  0  0  0  0  0
    0.7646   -0.0426    0.0540 H   0  0  0  0  0  0  0  0  0  0  0  0
   -0.2206   -1.4173   -0.9786 H   0  0  0  0  0  0  0  0  0  0  0  0
  1  2  1  0  0  0  0
  1  5  1  0  0  0  0
  2  8  1  0  0  0  0
  3  1  1  0  0  0  0
  4  1  1  0  0  0  0
  6  2  1  0  0  0  0
  6 10  1  0  0  0  0
  7  2  1  0  0  0  0
  9 13  1  0  0  0  0
  9  6  1  0  0  0  0
  9 12  1  0  0  0  0
 11  6  1  0  0  0  0
 14  9  1  0  0  0  0
M  END
$$$$
