14
butane_opt
C  -3.934333   0.199612  -0.016037
C  -2.689278  -0.572836   0.031177
H  -4.774475  -0.300164   0.149158
H  -3.983678   0.911312  -1.005347
H  -3.839001   0.908888   0.870677
C  -1.449483   0.216617   0.064615
H  -2.698378  -0.981746  -0.720754
H  -2.766873  -1.253467   0.927516
C  -0.153389  -0.723589   0.004954
H  -1.351012   0.928869   0.981332
H  -1.458839   0.757509  -0.793907
H   0.028838  -1.401063   0.950155
H   0.810992  -0.129883  -0.057512
H  -0.266086  -1.347356  -0.859014
