14
butane_opt
C  -3.899529   0.237746  -0.067425
C  -2.724179  -0.566163   0.157144
H  -4.871459  -0.396190   0.082030
H  -3.754703   1.008475  -1.099743
H  -3.901165   0.609674   0.671003
C  -1.439328   0.225113   0.067290
H  -2.632373  -1.273828  -0.643633
H  -2.747763  -1.283862   1.148997
C  -0.187330  -0.716211  -0.026731
H  -1.347879   0.899102   1.003153
H  -1.432028   0.873610  -0.903359
H  -0.087626  -0.937547   0.551723
H   0.720849  -0.193535   0.219885
H   0.019981  -1.942286  -1.231186
