butane_opt
 OpenBabel08242015383D

 14 13  0  0  0  0  0  0  0  0999 V2000
   -4.0004    0.3058    0.1116 C   0  0  0  0  0  0  0  0  0  0  0  0
   -2.6790   -0.6651   -0.0768 C   0  0  0  0  0  0  0  0  0  0  0  0
   -4.8512   -0.2548    0.1674 H   0  0  0  0  0  0  0  0  0  0  0  0
   -4.2426    0.8926   -0.6857 H   0  0  0  0  0  0  0  0  0  0  0  0
   -3.7650    0.9788    0.9907 H   0  0  0  0  0  0  0  0  0  0  0  0
   -1.3963    0.1236   -0.0967 C   0  0  0  0  0  0  0  0  0  0  0  0
   -2.8505   -1.2285   -0.8834 H   0  0  0  0  0  0  0  0  0  0  0  0
   -2.6123   -1.3896    0.8374 H   0  0  0  0  0  0  0  0  0  0  0  0
   -0.1367   -0.6667    0.1333 C   0  0  0  0  0  0  0  0  0  0  0  0
   -1.5011    0.8306    0.7267 H   0  0  0  0  0  0  0  0  0  0  0  0
   -1.2560    0.9692   -1.0733 H   0  0  0  0  0  0  0  0  0  0  0  0
   -0.3153   -1.1261    0.9004 H   0  0  0  0  0  0  0  0  0  0  0  0
    0.8437    0.0436    0.3332 H   0  0  0  0  0  0  0  0  0  0  0  0
    0.0435   -1.3571   -0.7643 H   0  0  0  0  0  0  0  0  0  0  0  0
  1  3  1  0  0  0  0
  1  5  1  0  0  0  0
  2  1  1  0  0  0  0
  2  8  1  0  0  0  0
  4  1  1  0  0  0  0
  6  2  1  0  0  0  0
  6  9  1  0  0  0  0
  6 10  1  0  0  0  0
  7  2  1  0  0  0  0
  9 13  1  0  0  0  0
  9 12  1  0  0  0  0
 11  6  1  0  0  0  0
 14  9  1  0  0  0  0
M  END
$$$$
