14
butane_opt
C  -3.966263   0.235199   0.009587
C  -2.752011  -0.593924   0.075384
H  -4.998080  -0.402602  -0.288119
H  -3.686592   0.571087  -0.729686
H  -4.062060   1.104342   0.951557
C  -1.419361   0.227472  -0.007888
H  -2.681067  -1.230084  -0.750760
H  -2.569527  -1.106656   0.960319
C  -0.089336  -0.724456   0.024308
H  -1.350108   0.875979   0.842850
H  -1.478702   0.889458  -0.900297
H   0.045254  -1.394688   1.024270
H   0.713984  -0.273313  -0.078917
H  -0.207292  -1.288654  -0.767777
