butane_opt
 OpenBabel08242015383D

 14 13  0  0  0  0  0  0  0  0999 V2000
   -3.9341    0.2756   -0.0000 C   0  0  0  0  0  0  0  0  0  0  0  0
   -2.6955   -0.6256    0.0466 C   0  0  0  0  0  0  0  0  0  0  0  0
   -4.8633   -0.3191    0.1157 H   0  0  0  0  0  0  0  0  0  0  0  0
   -4.0100    1.0133   -0.9519 H   0  0  0  0  0  0  0  0  0  0  0  0
   -3.9056    0.8059    0.7804 H   0  0  0  0  0  0  0  0  0  0  0  0
   -1.4066    0.1842    0.0339 C   0  0  0  0  0  0  0  0  0  0  0  0
   -2.7207   -1.3084   -0.8080 H   0  0  0  0  0  0  0  0  0  0  0  0
   -2.6400   -1.2759    0.9481 H   0  0  0  0  0  0  0  0  0  0  0  0
   -0.1741   -0.6889    0.0158 C   0  0  0  0  0  0  0  0  0  0  0  0
   -1.3451    0.9030    0.9228 H   0  0  0  0  0  0  0  0  0  0  0  0
   -1.3857    0.6950   -0.7936 H   0  0  0  0  0  0  0  0  0  0  0  0
   -0.1556   -1.2732    0.9095 H   0  0  0  0  0  0  0  0  0  0  0  0
    0.7261   -0.0983   -0.0091 H   0  0  0  0  0  0  0  0  0  0  0  0
   -0.1970   -1.3527   -0.8533 H   0  0  0  0  0  0  0  0  0  0  0  0
  1  2  1  0  0  0  0
  1  3  1  0  0  0  0
  1  5  1  0  0  0  0
  2  8  1  0  0  0  0
  4  1  1  0  0  0  0
  6  2  1  0  0  0  0
  6 10  1  0  0  0  0
  7  2  1  0  0  0  0
  9  6  1  0  0  0  0
  9 12  1  0  0  0  0
 11  6  1  0  0  0  0
 13  9  1  0  0  0  0
 14  9  1  0  0  0  0
M  END
$$$$
