14
butane_opt
C  -3.937316   0.248332   0.136458
C  -2.733448  -0.596483  -0.038751
H  -4.991543  -0.413878  -0.079381
H  -3.997500   0.789841  -0.694970
H  -3.973900   0.957048   1.058291
C  -1.415312   0.253020  -0.121174
H  -2.898585  -1.398489  -0.992754
H  -2.597351  -1.271570   0.797149
C  -0.130558  -0.724473   0.137310
H  -1.322150   0.725474   0.566301
H  -1.298754   1.013939  -1.111905
H  -0.238737  -1.292468   0.993011
H   0.715824  -0.220944   0.354747
H   0.202315  -1.550041  -0.828087
