14
butane_opt
C  -3.962409   0.252476  -0.062068
C  -2.727082  -0.569483   0.126066
H  -5.017732  -0.433849   0.098425
H  -3.870410   0.945685  -1.076785
H  -3.866670   0.650994   0.662614
C  -1.392175   0.209387   0.069368
H  -2.768483  -1.030567  -0.575491
H  -2.682811  -1.515615   1.225203
C  -0.115007  -0.716081  -0.037897
H  -1.504107   0.908185   0.908816
H  -1.453866   0.777184  -0.690870
H  -0.174780  -0.880183   0.537138
H   0.627689  -0.230896   0.353479
H   0.062865  -1.812340  -1.237634
