14
butane_opt
C  -3.962244   0.304151   0.069124
C  -2.725330  -0.643516  -0.016872
H  -4.889875  -0.273644   0.003635
H  -4.145053   0.739844  -0.788237
H  -4.116672   1.151200   1.036734
C  -1.394932   0.147916  -0.017351
H  -2.713543  -1.552935  -1.046700
H  -2.744734  -1.045416   0.685608
C  -0.119770  -0.664438   0.068015
H  -1.324392   0.695451   0.743766
H  -1.255769   0.746127  -0.820793
H  -0.012280  -1.748566   1.263711
H   0.898779  -0.013566  -0.298439
H  -0.292423  -0.869339  -0.492753
