14
butane_opt
C  -3.959024   0.222080  -0.021366
C  -2.706528  -0.597598   0.069433
H  -4.961300  -0.425514   0.230096
H  -3.837979   1.100658  -1.026409
H  -4.007483   0.663495   0.698951
C  -1.422842   0.237605   0.069894
H  -2.788244  -1.237671  -0.803950
H  -2.746340  -1.050427   0.791791
C  -0.108781  -0.708105   0.008867
H  -1.360940   0.943856   0.998899
H  -1.465580   0.809610  -0.811180
H   0.132588  -1.387358   0.889418
H   0.568918  -0.273054  -0.141144
H  -0.175885  -1.498148  -0.920281
