14
butane_opt
C  -3.988125   0.312328   0.106577
C  -2.701551  -0.687477  -0.054557
H  -4.814501  -0.170820   0.299042
H  -4.124844   0.793554  -0.728968
H  -3.985249   1.019171   0.982508
C  -1.398457   0.161325  -0.094685
H  -2.756108  -1.401771  -0.893452
H  -2.476746  -1.389725   0.804967
C  -0.129035  -0.651665   0.131897
H  -1.474035   0.673609   0.598201
H  -1.136921   1.004690  -1.190482
H  -0.359839  -1.038543   0.921410
H   0.703854  -0.059250   0.470949
H  -0.009767  -1.517813  -0.905793
