14
butane_opt
C  -3.953323   0.231837   0.060675
C  -2.753967  -0.592831  -0.051673
H  -4.875444  -0.348272   0.192766
H  -3.992973   0.802352  -0.725189
H  -3.913980   0.903805   0.851074
C  -1.389487   0.265260  -0.005326
H  -2.667173  -1.315232  -0.948008
H  -2.760557  -1.290449   0.903240
C  -0.144021  -0.742302   0.065807
H  -1.454070   0.960073   0.931222
H  -1.234653   0.917324  -0.893735
H   0.145780  -1.593876   1.137267
H   0.725876  -0.210772  -0.170972
H  -0.101610  -1.248930  -0.643395
