butane_opt
 OpenBabel08242015383D

 14 13  0  0  0  0  0  0  0  0999 V2000
   -3.9298    0.2559   -0.0344 C   0  0  0  0  0  0  0  0  0  0  0  0
   -2.6984   -0.6226    0.1156 C   0  0  0  0  0  0  0  0  0  0  0  0
   -4.8260   -0.3954   -0.3238 H   0  0  0  0  0  0  0  0  0  0  0  0
   -3.6028    0.7195   -0.8985 H   0  0  0  0  0  0  0  0  0  0  0  0
   -4.0314    1.0723    0.9340 H   0  0  0  0  0  0  0  0  0  0  0  0
   -1.4193    0.2048    0.0656 C   0  0  0  0  0  0  0  0  0  0  0  0
   -2.5755   -1.2095   -0.6837 H   0  0  0  0  0  0  0  0  0  0  0  0
   -2.7756   -1.2602    1.0576 H   0  0  0  0  0  0  0  0  0  0  0  0
   -0.1725   -0.6949   -0.0194 C   0  0  0  0  0  0  0  0  0  0  0  0
   -1.5139    0.8104    0.9536 H   0  0  0  0  0  0  0  0  0  0  0  0
   -1.4734    0.9242   -0.8403 H   0  0  0  0  0  0  0  0  0  0  0  0
    0.0391   -1.2718    0.8092 H   0  0  0  0  0  0  0  0  0  0  0  0
    0.6241   -0.1943   -0.2459 H   0  0  0  0  0  0  0  0  0  0  0  0
   -0.2554   -1.3916   -0.8445 H   0  0  0  0  0  0  0  0  0  0  0  0
  1  2  1  0  0  0  0
  1  5  1  0  0  0  0
  2  8  1  0  0  0  0
  3  1  1  0  0  0  0
  4  1  1  0  0  0  0
  6  2  1  0  0  0  0
  6 10  1  0  0  0  0
  7  2  1  0  0  0  0
  9  6  1  0  0  0  0
  9 12  1  0  0  0  0
 11  6  1  0  0  0  0
 13  9  1  0  0  0  0
 14  9  1  0  0  0  0
M  END
$$$$
