14
butane_opt
C  -3.961655   0.311676  -0.054504
C  -2.671744  -0.652808   0.157160
H  -4.841717  -0.310028  -0.208046
H  -3.780858   0.768826  -0.976450
H  -4.084848   1.105177   0.880662
C  -1.385612   0.121574   0.042567
H  -2.719708  -1.170358  -0.554444
H  -2.656050  -1.247928   1.053085
C  -0.208327  -0.659041  -0.038968
H  -1.189278   0.833937   0.945443
H  -1.411962   0.695468  -0.865557
H  -0.349861  -1.121704   0.766953
H   0.779294   0.023469   0.114775
H  -0.069501  -1.497953  -1.002907
