14
butane_opt
C  -3.908561   0.238177   0.078159
C  -2.714870  -0.573648  -0.075114
H  -4.844903  -0.436641   0.435892
H  -4.018778   0.973132  -0.888605
H  -3.769100   0.787797   0.919080
C  -1.431674   0.173509  -0.003014
H  -2.734232  -1.304949  -0.958305
H  -2.719956  -0.996543   0.701681
C  -0.135589  -0.698111   0.094103
H  -1.692258   0.820678   0.718548
H  -1.370182   0.892309  -0.960425
H  -0.113292  -1.456620   1.168218
H   0.742747  -0.125861  -0.095801
H  -0.210467  -1.315323  -0.728046
