14
butane_opt
C  -3.946768   0.269701  -0.012975
C  -2.687520  -0.618985   0.077036
H  -4.857163  -0.333131  -0.103069
H  -3.926895   0.843485  -0.918469
H  -4.028320   1.025060   0.901200
C  -1.401889   0.165012   0.036567
H  -2.606681  -1.228703  -0.694659
H  -2.722376  -1.318787   1.030268
C  -0.172131  -0.681937  -0.001812
H  -1.340115   0.850029   0.881883
H  -1.418887   0.788020  -0.835725
H  -0.140539  -1.249122   0.863987
H   0.744631  -0.075948   0.027985
H  -0.220718  -1.380492  -0.891771
