14
butane_opt
C  -3.973999   0.305063  -0.051104
C  -2.710537  -0.679365   0.130912
H  -4.791400  -0.185420   0.151021
H  -3.998399   1.161506  -1.078831
H  -3.984780   0.812709   0.764943
C  -1.374384   0.141910   0.032544
H  -2.598823  -1.287574  -0.594378
H  -2.721439  -1.392502   1.094835
C  -0.182881  -0.651666  -0.020273
H  -1.183036   0.948955   0.962855
H  -1.352967   0.779740  -0.831187
H  -0.351343  -0.876255   0.689882
H   0.722148  -0.039644   0.341982
H   0.104293  -1.785729  -1.239496
