butane_opt
 OpenBabel08242015383D

 14 13  0  0  0  0  0  0  0  0999 V2000
   -3.8863    0.2334   -0.0252 C   0  0  0  0  0  0  0  0  0  0  0  0
   -2.7038   -0.5910    0.0604 C   0  0  0  0  0  0  0  0  0  0  0  0
   -4.9326   -0.5109    0.4234 H   0  0  0  0  0  0  0  0  0  0  0  0
   -4.1262    1.1569   -1.1398 H   0  0  0  0  0  0  0  0  0  0  0  0
   -3.7521    0.6852    0.6640 H   0  0  0  0  0  0  0  0  0  0  0  0
   -1.4133    0.2523    0.0825 C   0  0  0  0  0  0  0  0  0  0  0  0
   -2.5329   -1.2984   -0.7955 H   0  0  0  0  0  0  0  0  0  0  0  0
   -2.7377   -1.1693    0.9013 H   0  0  0  0  0  0  0  0  0  0  0  0
   -0.2005   -0.7467   -0.0219 C   0  0  0  0  0  0  0  0  0  0  0  0
   -1.4437    0.8269    0.9664 H   0  0  0  0  0  0  0  0  0  0  0  0
   -1.3280    0.8631   -0.8039 H   0  0  0  0  0  0  0  0  0  0  0  0
   -0.1001   -1.2160    0.7682 H   0  0  0  0  0  0  0  0  0  0  0  0
    0.6014   -0.1616    0.2189 H   0  0  0  0  0  0  0  0  0  0  0  0
   -0.1749   -1.4471   -0.9384 H   0  0  0  0  0  0  0  0  0  0  0  0
  1  2  1  0  0  0  0
  1  3  1  0  0  0  0
  1  5  1  0  0  0  0
  2  6  1  0  0  0  0
  2  8  1  0  0  0  0
  4  1  1  0  0  0  0
  6 10  1  0  0  0  0
  7  2  1  0  0  0  0
  9  6  1  0  0  0  0
  9 13  1  0  0  0  0
  9 12  1  0  0  0  0
 11  6  1  0  0  0  0
 14  9  1  0  0  0  0
M  END
$$$$
