14
butane_opt
C  -3.951329   0.272445  -0.004481
C  -2.711324  -0.619532   0.065969
H  -4.876973  -0.326542   0.032526
H  -3.999886   0.949921  -0.946298
H  -4.005913   0.902441   0.818994
C  -1.389279   0.174755   0.035335
H  -2.699967  -1.288811  -0.767840
H  -2.760335  -1.283883   0.991424
C  -0.148323  -0.689132   0.011992
H  -1.355337   0.842768   0.907485
H  -1.419836   0.815180  -0.873593
H  -0.141417  -1.205616   0.820851
H   0.763857  -0.101095   0.049041
H  -0.124228  -1.436152  -0.912807
