14
butane_opt
C  -3.981838   0.224455   0.129195
C  -2.684928  -0.612691  -0.066476
H  -4.886012  -0.380736  -0.209104
H  -3.822531   0.633077  -0.650127
H  -4.016703   1.255309   1.228188
C  -1.404827   0.244931  -0.115669
H  -2.862332  -1.264337  -0.915852
H  -2.734272  -1.233848   0.900805
C  -0.129553  -0.718339   0.115977
H  -1.519433   0.875483   0.743527
H  -1.342092   0.914155  -1.021789
H  -0.029872  -1.545905   1.229331
H   0.628132  -0.250238   0.035549
H  -0.010779  -1.158730  -0.607327
