butane_opt
 OpenBabel08242015383D

 14 13  0  0  0  0  0  0  0  0999 V2000
   -3.9590    0.2221   -0.0214 C   0  0  0  0  0  0  0  0  0  0  0  0
   -2.7065   -0.5976    0.0694 C   0  0  0  0  0  0  0  0  0  0  0  0
   -4.9613   -0.4255    0.2301 H   0  0  0  0  0  0  0  0  0  0  0  0
   -3.8380    1.1007   -1.0264 H   0  0  0  0  0  0  0  0  0  0  0  0
   -4.0075    0.6635    0.6990 H   0  0  0  0  0  0  0  0  0  0  0  0
   -1.4228    0.2376    0.0699 C   0  0  0  0  0  0  0  0  0  0  0  0
   -2.7882   -1.2377   -0.8040 H   0  0  0  0  0  0  0  0  0  0  0  0
   -2.7463   -1.0504    0.7918 H   0  0  0  0  0  0  0  0  0  0  0  0
   -0.1088   -0.7081    0.0089 C   0  0  0  0  0  0  0  0  0  0  0  0
   -1.3609    0.9439    0.9989 H   0  0  0  0  0  0  0  0  0  0  0  0
   -1.4656    0.8096   -0.8112 H   0  0  0  0  0  0  0  0  0  0  0  0
    0.1326   -1.3874    0.8894 H   0  0  0  0  0  0  0  0  0  0  0  0
    0.5689   -0.2731   -0.1411 H   0  0  0  0  0  0  0  0  0  0  0  0
   -0.1759   -1.4981   -0.9203 H   0  0  0  0  0  0  0  0  0  0  0  0
  1  2  1  0  0  0  0
  1  3  1  0  0  0  0
  1  5  1  0  0  0  0
  2  6  1  0  0  0  0
  2  8  1  0  0  0  0
  4  1  1  0  0  0  0
  6 10  1  0  0  0  0
  7  2  1  0  0  0  0
  9  6  1  0  0  0  0
  9 12  1  0  0  0  0
 11  6  1  0  0  0  0
 13  9  1  0  0  0  0
 14  9  1  0  0  0  0
M  END
$$$$
