14
butane_opt
C  -4.008905   0.292467   0.051392
C  -2.696072  -0.665148  -0.011457
H  -4.795939  -0.127206  -0.047098
H  -3.898617   0.658865  -0.586608
H  -4.071828   1.218193   1.062456
C  -1.357460   0.158707  -0.050590
H  -2.760622  -1.346795  -0.883060
H  -2.773007  -1.125526   0.798691
C  -0.144495  -0.684944   0.064997
H  -1.354108   0.875366   0.915794
H  -1.311931   0.710651  -0.853097
H  -0.209820  -1.632199   1.205877
H   0.837354  -0.019501  -0.266379
H  -0.227036  -0.878239  -0.488427
