butane_opt
 OpenBabel08242015383D

 14 13  0  0  0  0  0  0  0  0999 V2000
   -4.0169    0.2874   -0.0762 C   0  0  0  0  0  0  0  0  0  0  0  0
   -2.6735   -0.6594    0.1381 C   0  0  0  0  0  0  0  0  0  0  0  0
   -4.8773   -0.2930    0.1284 H   0  0  0  0  0  0  0  0  0  0  0  0
   -4.0849    1.0563   -1.1050 H   0  0  0  0  0  0  0  0  0  0  0  0
   -3.9462    0.9268    0.8358 H   0  0  0  0  0  0  0  0  0  0  0  0
   -1.3577    0.1667    0.0543 C   0  0  0  0  0  0  0  0  0  0  0  0
   -2.5838   -1.1650   -0.6088 H   0  0  0  0  0  0  0  0  0  0  0  0
   -2.8635   -1.4751    1.1520 H   0  0  0  0  0  0  0  0  0  0  0  0
   -0.1467   -0.6737   -0.0474 C   0  0  0  0  0  0  0  0  0  0  0  0
   -1.3702    0.9653    1.0819 H   0  0  0  0  0  0  0  0  0  0  0  0
   -1.4145    0.7159   -0.7986 H   0  0  0  0  0  0  0  0  0  0  0  0
   -0.1876   -0.9602    0.6901 H   0  0  0  0  0  0  0  0  0  0  0  0
    0.7824   -0.0609    0.2899 H   0  0  0  0  0  0  0  0  0  0  0  0
   -0.1497   -1.6192   -1.0852 H   0  0  0  0  0  0  0  0  0  0  0  0
  1  3  1  0  0  0  0
  1  2  1  0  0  0  0
  1  5  1  0  0  0  0
  2  8  1  0  0  0  0
  4  1  1  0  0  0  0
  6  2  1  0  0  0  0
  6 10  1  0  0  0  0
  7  2  1  0  0  0  0
  9  6  1  0  0  0  0
  9 13  1  0  0  0  0
  9 12  1  0  0  0  0
 11  6  1  0  0  0  0
 14  9  1  0  0  0  0
M  END
$$$$
