14
butane_opt
C  -3.972596   0.247249   0.092704
C  -2.725731  -0.585858  -0.070097
H  -5.043630  -0.440162   0.050237
H  -3.910092   0.664670  -0.623451
H  -3.950415   1.091059   1.113891
C  -1.365936   0.227945  -0.031248
H  -2.825783  -1.374479  -1.094970
H  -2.669640  -1.044285   0.711378
C  -0.124753  -0.718435   0.118315
H  -1.614806   0.704566   0.624196
H  -1.235135   0.921901  -0.974164
H   0.039214  -1.743888   1.315408
H   0.728599  -0.211179  -0.362528
H  -0.246935  -1.116323  -0.586081
