14
butane_opt
C  -3.932496   0.254517   0.036850
C  -2.724330  -0.596292   0.014990
H  -4.831704  -0.348377   0.303775
H  -4.096850   1.093576  -0.977465
H  -3.771161   0.596465   0.690062
C  -1.387089   0.208490   0.022884
H  -2.839724  -1.251334  -0.908023
H  -2.756899  -1.160475   0.894045
C  -0.125534  -0.725466   0.052076
H  -1.635071   0.823016   0.780078
H  -1.324003   0.885244  -0.942404
H  -0.234602  -1.127749   0.836348
H   0.728584  -0.131883   0.223406
H  -0.212227  -1.566632  -1.043489
