14
butane_opt
C  -3.974858   0.249979  -0.087294
C  -2.719393  -0.592391   0.141980
H  -4.983668  -0.451449  -0.006566
H  -3.755932   1.081866  -1.098462
H  -4.179973   0.795973   0.627185
C  -1.397575   0.178019   0.155984
H  -2.620966  -1.301390  -0.717345
H  -2.917474  -1.160105   1.021374
C  -0.127348  -0.701150  -0.067944
H  -1.303522   1.018437   1.172587
H  -1.482830   0.786035  -0.716671
H   0.330015  -1.426836   0.854741
H   0.755641  -0.110170  -0.401787
H  -0.248651  -1.329946  -0.996017
