butane_opt
 OpenBabel08242015383D

 14 12  0  0  0  0  0  0  0  0999 V2000
   -3.9281    0.2160   -0.0308 C   0  0  0  0  0  0  0  0  0  0  0  0
   -2.7088   -0.5904    0.0454 C   0  0  0  0  0  0  0  0  0  0  0  0
   -4.7454   -0.3536    0.4400 H   0  0  0  0  0  0  0  0  0  0  0  0
   -4.2284    1.3496   -1.2817 H   0  0  0  0  0  0  0  0  0  0  0  0
   -3.7767    0.4730    0.5762 H   0  0  0  0  0  0  0  0  0  0  0  0
   -1.4253    0.2423    0.0998 C   0  0  0  0  0  0  0  0  0  0  0  0
   -2.6415   -1.2043   -0.7300 H   0  0  0  0  0  0  0  0  0  0  0  0
   -2.8044   -1.2194    1.0313 H   0  0  0  0  0  0  0  0  0  0  0  0
   -0.1600   -0.7341   -0.0381 C   0  0  0  0  0  0  0  0  0  0  0  0
   -1.2929    1.0257    1.0300 H   0  0  0  0  0  0  0  0  0  0  0  0
   -1.5928    0.6541   -0.5956 H   0  0  0  0  0  0  0  0  0  0  0  0
   -0.0575   -1.1679    0.7985 H   0  0  0  0  0  0  0  0  0  0  0  0
    0.8052   -0.1324    0.1389 H   0  0  0  0  0  0  0  0  0  0  0  0
   -0.0077   -1.4835   -0.9418 H   0  0  0  0  0  0  0  0  0  0  0  0
  1  2  1  0  0  0  0
  1  3  1  0  0  0  0
  1  5  1  0  0  0  0
  2  6  1  0  0  0  0
  2  8  1  0  0  0  0
  6 10  1  0  0  0  0
  7  2  1  0  0  0  0
  9  6  1  0  0  0  0
  9 13  1  0  0  0  0
  9 12  1  0  0  0  0
 11  6  1  0  0  0  0
 14  9  1  0  0  0  0
M  RAD  2   1   2   4   2
M  END
$$$$
