14
butane_opt
C  -3.936186   0.268267   0.044461
C  -2.694460  -0.627645   0.002197
H  -4.818178  -0.284832   0.158279
H  -4.005229   0.969472  -0.901304
H  -3.932111   0.918026   0.898457
C  -1.410308   0.168268  -0.001886
H  -2.708909  -1.370754  -0.914471
H  -2.670945  -1.198518   0.842281
C  -0.169975  -0.681187   0.052132
H  -1.367815   0.823190   0.845880
H  -1.416841   0.840413  -0.911429
H  -0.188146  -1.341031   0.998991
H   0.742695  -0.051917   0.012297
H  -0.133026  -1.299196  -0.746353
