butane_opt
 OpenBabel08242015383D

 14 13  0  0  0  0  0  0  0  0999 V2000
   -3.9115    0.2975    0.1361 C   0  0  0  0  0  0  0  0  0  0  0  0
   -2.6682   -0.6621   -0.0956 C   0  0  0  0  0  0  0  0  0  0  0  0
   -4.6987   -0.2826    0.4697 H   0  0  0  0  0  0  0  0  0  0  0  0
   -4.1849    1.2119   -0.9175 H   0  0  0  0  0  0  0  0  0  0  0  0
   -3.7855    0.6902    0.7868 H   0  0  0  0  0  0  0  0  0  0  0  0
   -1.3981    0.1756   -0.0894 C   0  0  0  0  0  0  0  0  0  0  0  0
   -2.8359   -1.4449   -1.1035 H   0  0  0  0  0  0  0  0  0  0  0  0
   -2.7024   -1.1162    0.7172 H   0  0  0  0  0  0  0  0  0  0  0  0
   -0.2218   -0.6809    0.1382 C   0  0  0  0  0  0  0  0  0  0  0  0
   -1.4993    0.8906    0.8035 H   0  0  0  0  0  0  0  0  0  0  0  0
   -1.2904    0.6738   -0.8701 H   0  0  0  0  0  0  0  0  0  0  0  0
   -0.3757   -1.3683    1.0538 H   0  0  0  0  0  0  0  0  0  0  0  0
    0.8247    0.0369    0.0861 H   0  0  0  0  0  0  0  0  0  0  0  0
   -0.1011   -1.2848   -0.6921 H   0  0  0  0  0  0  0  0  0  0  0  0
  1  3  1  0  0  0  0
  1  5  1  0  0  0  0
  2  6  1  0  0  0  0
  2  1  1  0  0  0  0
  2  8  1  0  0  0  0
  4  1  1  0  0  0  0
  6  9  1  0  0  0  0
  6 10  1  0  0  0  0
  7  2  1  0  0  0  0
  9 12  1  0  0  0  0
 11  6  1  0  0  0  0
 13  9  1  0  0  0  0
 14  9  1  0  0  0  0
M  END
$$$$
