butane_opt
 OpenBabel08242015383D

 14 13  0  0  0  0  0  0  0  0999 V2000
   -3.8819    0.2821   -0.0363 C   0  0  0  0  0  0  0  0  0  0  0  0
   -2.6917   -0.6199    0.1300 C   0  0  0  0  0  0  0  0  0  0  0  0
   -4.8568   -0.3936    0.0161 H   0  0  0  0  0  0  0  0  0  0  0  0
   -3.8711    0.8077   -0.9114 H   0  0  0  0  0  0  0  0  0  0  0  0
   -4.0101    0.8145    0.7913 H   0  0  0  0  0  0  0  0  0  0  0  0
   -1.4210    0.1896    0.0336 C   0  0  0  0  0  0  0  0  0  0  0  0
   -2.6032   -1.2447   -0.7192 H   0  0  0  0  0  0  0  0  0  0  0  0
   -2.9385   -1.2034    0.9870 H   0  0  0  0  0  0  0  0  0  0  0  0
   -0.1961   -0.7040   -0.0139 C   0  0  0  0  0  0  0  0  0  0  0  0
   -1.3374    0.8417    0.8656 H   0  0  0  0  0  0  0  0  0  0  0  0
   -1.4670    0.9211   -0.8967 H   0  0  0  0  0  0  0  0  0  0  0  0
   -0.1823   -1.0264    0.7095 H   0  0  0  0  0  0  0  0  0  0  0  0
    0.6754   -0.1439    0.1925 H   0  0  0  0  0  0  0  0  0  0  0  0
   -0.1351   -1.6403   -0.9596 H   0  0  0  0  0  0  0  0  0  0  0  0
  1  3  1  0  0  0  0
  1  2  1  0  0  0  0
  1  5  1  0  0  0  0
  2  8  1  0  0  0  0
  4  1  1  0  0  0  0
  6  2  1  0  0  0  0
  6 10  1  0  0  0  0
  7  2  1  0  0  0  0
  9  6  1  0  0  0  0
  9 13  1  0  0  0  0
  9 12  1  0  0  0  0
 11  6  1  0  0  0  0
 14  9  1  0  0  0  0
M  END
$$$$
