14
butane_opt
C  -3.944877   0.305245  -0.053969
C  -2.705721  -0.658995   0.117894
H  -4.772047  -0.181639   0.244336
H  -3.864730   1.101710  -1.060104
H  -4.058464   0.628703   0.612865
C  -1.370863   0.163243   0.069029
H  -2.555659  -1.223754  -0.537406
H  -2.789953  -1.403471   1.084687
C  -0.207859  -0.674144  -0.024512
H  -1.390434   0.798367   0.929745
H  -1.325078   0.824443  -0.815838
H  -0.129441  -0.805895   0.499129
H   0.680626   0.004500   0.362963
H  -0.109196  -1.825622  -1.245714
