14
butane_opt
C  -3.976353   0.237375   0.114229
C  -2.711037  -0.601952  -0.083670
H  -4.912931  -0.330060   0.114762
H  -3.998780   0.837243  -0.803591
H  -3.885931   0.993341   1.127336
C  -1.393386   0.222775  -0.087124
H  -2.794757  -1.447583  -1.103036
H  -2.641441  -1.185096   0.834760
C  -0.141072  -0.683364   0.121202
H  -1.460534   1.016892   0.822880
H  -1.387737   0.681682  -0.906003
H   0.103735  -1.781892   1.284890
H   0.682365  -0.258784  -0.149750
H  -0.066311  -1.079095  -0.504994
