butane_opt
 OpenBabel08242015383D

 14 13  0  0  0  0  0  0  0  0999 V2000
   -3.9666    0.2874   -0.0591 C   0  0  0  0  0  0  0  0  0  0  0  0
   -2.6914   -0.6813    0.1722 C   0  0  0  0  0  0  0  0  0  0  0  0
   -4.7813   -0.2880   -0.0305 H   0  0  0  0  0  0  0  0  0  0  0  0
   -4.1228    1.0466   -1.0929 H   0  0  0  0  0  0  0  0  0  0  0  0
   -4.0522    0.8953    0.7043 H   0  0  0  0  0  0  0  0  0  0  0  0
   -1.3757    0.2035    0.0673 C   0  0  0  0  0  0  0  0  0  0  0  0
   -2.7380   -1.2688   -0.6784 H   0  0  0  0  0  0  0  0  0  0  0  0
   -2.8924   -1.1958    0.9511 H   0  0  0  0  0  0  0  0  0  0  0  0
   -0.1358   -0.6880   -0.0524 C   0  0  0  0  0  0  0  0  0  0  0  0
   -1.3546    0.8654    0.9828 H   0  0  0  0  0  0  0  0  0  0  0  0
   -1.3889    0.7734   -0.8243 H   0  0  0  0  0  0  0  0  0  0  0  0
   -0.2599   -1.1006    0.7012 H   0  0  0  0  0  0  0  0  0  0  0  0
    0.7661   -0.0774    0.1948 H   0  0  0  0  0  0  0  0  0  0  0  0
   -0.1615   -1.5770   -1.0417 H   0  0  0  0  0  0  0  0  0  0  0  0
  1  3  1  0  0  0  0
  1  2  1  0  0  0  0
  1  5  1  0  0  0  0
  2  8  1  0  0  0  0
  4  1  1  0  0  0  0
  6  2  1  0  0  0  0
  6 10  1  0  0  0  0
  7  2  1  0  0  0  0
  9  6  1  0  0  0  0
  9 13  1  0  0  0  0
  9 12  1  0  0  0  0
 11  6  1  0  0  0  0
 14  9  1  0  0  0  0
M  END
$$$$
