butane_opt
 OpenBabel08242015383D

 14 12  0  0  0  0  0  0  0  0999 V2000
   -3.9764    0.2374    0.1142 C   0  0  0  0  0  0  0  0  0  0  0  0
   -2.7110   -0.6020   -0.0837 C   0  0  0  0  0  0  0  0  0  0  0  0
   -4.9129   -0.3301    0.1148 H   0  0  0  0  0  0  0  0  0  0  0  0
   -3.9988    0.8372   -0.8036 H   0  0  0  0  0  0  0  0  0  0  0  0
   -3.8859    0.9933    1.1273 H   0  0  0  0  0  0  0  0  0  0  0  0
   -1.3934    0.2228   -0.0871 C   0  0  0  0  0  0  0  0  0  0  0  0
   -2.7948   -1.4476   -1.1030 H   0  0  0  0  0  0  0  0  0  0  0  0
   -2.6414   -1.1851    0.8348 H   0  0  0  0  0  0  0  0  0  0  0  0
   -0.1411   -0.6834    0.1212 C   0  0  0  0  0  0  0  0  0  0  0  0
   -1.4605    1.0169    0.8229 H   0  0  0  0  0  0  0  0  0  0  0  0
   -1.3877    0.6817   -0.9060 H   0  0  0  0  0  0  0  0  0  0  0  0
    0.1037   -1.7819    1.2849 H   0  0  0  0  0  0  0  0  0  0  0  0
    0.6824   -0.2588   -0.1497 H   0  0  0  0  0  0  0  0  0  0  0  0
   -0.0663   -1.0791   -0.5050 H   0  0  0  0  0  0  0  0  0  0  0  0
  1  3  1  0  0  0  0
  1  5  1  0  0  0  0
  2  1  1  0  0  0  0
  2  8  1  0  0  0  0
  4  1  1  0  0  0  0
  6  2  1  0  0  0  0
  6  9  1  0  0  0  0
  6 10  1  0  0  0  0
  7  2  1  0  0  0  0
 11  6  1  0  0  0  0
 13  9  1  0  0  0  0
 14  9  1  0  0  0  0
M  RAD  2   9   2  12   2
M  END
$$$$
