14
butane_opt
C  -3.941210   0.272194  -0.011951
C  -2.700082  -0.610658   0.062909
H  -4.862553  -0.342481   0.013746
H  -3.908566   0.900461  -0.933184
H  -4.042687   0.894823   0.780747
C  -1.404999   0.169795   0.054793
H  -2.669006  -1.267378  -0.770838
H  -2.687347  -1.302020   0.990733
C  -0.166551  -0.683899  -0.002669
H  -1.315133   0.914834   0.927847
H  -1.451303   0.712116  -0.770720
H  -0.084088  -1.337003   0.899016
H   0.759447  -0.099918  -0.100906
H  -0.207429  -1.308922  -0.825639
