14
butane_opt
C  -3.922936   0.267393  -0.071116
C  -2.698282  -0.599782   0.093239
H  -4.812563  -0.289098   0.015828
H  -4.068548   1.114997  -1.117243
H  -3.916124   0.808878   0.661983
C  -1.388225   0.165753   0.147321
H  -2.539819  -1.242393  -0.626997
H  -2.836779  -1.413558   1.075369
C  -0.202951  -0.694552  -0.070382
H  -1.239248   0.836767   1.067881
H  -1.549303   0.654228  -0.571934
H   0.005074  -1.315225   0.821975
H   0.785328   0.092709  -0.205206
H  -0.317351  -1.345135  -0.888087
