butane_opt
 OpenBabel08242015383D

 14 13  0  0  0  0  0  0  0  0999 V2000
   -3.9126    0.2282    0.0920 C   0  0  0  0  0  0  0  0  0  0  0  0
   -2.7029   -0.5781   -0.0453 C   0  0  0  0  0  0  0  0  0  0  0  0
   -4.7687   -0.3636    0.2843 H   0  0  0  0  0  0  0  0  0  0  0  0
   -3.9115    0.7776   -0.7190 H   0  0  0  0  0  0  0  0  0  0  0  0
   -3.7910    0.9281    0.9581 H   0  0  0  0  0  0  0  0  0  0  0  0
   -1.4188    0.2425   -0.0936 C   0  0  0  0  0  0  0  0  0  0  0  0
   -2.7800   -1.3795   -0.9903 H   0  0  0  0  0  0  0  0  0  0  0  0
   -2.7458   -1.2264    0.7704 H   0  0  0  0  0  0  0  0  0  0  0  0
   -0.1628   -0.7260    0.1012 C   0  0  0  0  0  0  0  0  0  0  0  0
   -1.5450    0.9166    0.7585 H   0  0  0  0  0  0  0  0  0  0  0  0
   -1.6162    0.7821   -0.8930 H   0  0  0  0  0  0  0  0  0  0  0  0
   -0.2753   -1.4197    1.0948 H   0  0  0  0  0  0  0  0  0  0  0  0
    0.7187   -0.1912    0.1383 H   0  0  0  0  0  0  0  0  0  0  0  0
    0.0480   -1.2729   -0.5770 H   0  0  0  0  0  0  0  0  0  0  0  0
  1  3  1  0  0  0  0
  1  5  1  0  0  0  0
  2  1  1  0  0  0  0
  2  8  1  0  0  0  0
  4  1  1  0  0  0  0
  6  2  1  0  0  0  0
  6  9  1  0  0  0  0
  6 10  1  0  0  0  0
  7  2  1  0  0  0  0
  9 13  1  0  0  0  0
  9 12  1  0  0  0  0
 11  6  1  0  0  0  0
 14  9  1  0  0  0  0
M  END
$$$$
