14
butane_opt
C  -3.949455   0.258634   0.011995
C  -2.705638  -0.604802   0.048108
H  -4.919269  -0.360702   0.003566
H  -3.863096   0.847491  -0.905006
H  -4.004353   0.926623   0.867701
C  -1.403289   0.197410   0.028802
H  -2.751131  -1.299795  -0.831807
H  -2.745747  -1.194067   0.909843
C  -0.149017  -0.710594   0.019063
H  -1.403443   0.875401   0.879080
H  -1.382360   0.824689  -0.837973
H  -0.049176  -1.374411   0.943693
H   0.742969  -0.127773  -0.098183
H  -0.154178  -1.282883  -0.776205
