14
butane_opt
C  -3.951545   0.281583  -0.037793
C  -2.673059  -0.609148   0.073782
H  -4.805275  -0.212982   0.389486
H  -3.994693   1.208562  -1.151803
H  -3.778201   0.486263   0.551491
C  -1.426234   0.125681   0.082062
H  -2.720009  -1.189294  -0.757942
H  -2.747243  -1.378400   1.053803
C  -0.167606  -0.654683  -0.057413
H  -1.445254   1.024412   1.110599
H  -1.405510   0.617207  -0.652897
H  -0.220307  -1.161547   0.788839
H   0.816847  -0.023304   0.262263
H  -0.145581  -1.532982  -0.942656
