butane_opt
 OpenBabel08242015383D

 14 13  0  0  0  0  0  0  0  0999 V2000
   -3.9761    0.2879    0.1226 C   0  0  0  0  0  0  0  0  0  0  0  0
   -2.7116   -0.6795   -0.0548 C   0  0  0  0  0  0  0  0  0  0  0  0
   -4.7880   -0.1768   -0.1602 H   0  0  0  0  0  0  0  0  0  0  0  0
   -4.0223    0.7865   -0.7305 H   0  0  0  0  0  0  0  0  0  0  0  0
   -4.1869    1.3002    1.2025 H   0  0  0  0  0  0  0  0  0  0  0  0
   -1.3853    0.1528   -0.1032 C   0  0  0  0  0  0  0  0  0  0  0  0
   -2.7842   -1.3803   -0.9225 H   0  0  0  0  0  0  0  0  0  0  0  0
   -2.5888   -1.2881    0.9008 H   0  0  0  0  0  0  0  0  0  0  0  0
   -0.1524   -0.6540    0.1097 C   0  0  0  0  0  0  0  0  0  0  0  0
   -1.4813    0.8232    0.7584 H   0  0  0  0  0  0  0  0  0  0  0  0
   -1.1729    0.8084   -1.0212 H   0  0  0  0  0  0  0  0  0  0  0  0
   -0.2278   -1.4047    1.1333 H   0  0  0  0  0  0  0  0  0  0  0  0
    0.8529   -0.0235   -0.0603 H   0  0  0  0  0  0  0  0  0  0  0  0
    0.0623   -1.1756   -0.5447 H   0  0  0  0  0  0  0  0  0  0  0  0
  1  5  1  0  0  0  0
  2  1  1  0  0  0  0
  2  8  1  0  0  0  0
  3  1  1  0  0  0  0
  4  1  1  0  0  0  0
  6  2  1  0  0  0  0
  6  9  1  0  0  0  0
  6 10  1  0  0  0  0
  7  2  1  0  0  0  0
  9 12  1  0  0  0  0
 11  6  1  0  0  0  0
 13  9  1  0  0  0  0
 14  9  1  0  0  0  0
M  END
$$$$
