butane_opt
 OpenBabel08242015383D

 14 12  0  0  0  0  0  0  0  0999 V2000
   -3.9740    0.3051   -0.0511 C   0  0  0  0  0  0  0  0  0  0  0  0
   -2.7105   -0.6794    0.1309 C   0  0  0  0  0  0  0  0  0  0  0  0
   -4.7914   -0.1854    0.1510 H   0  0  0  0  0  0  0  0  0  0  0  0
   -3.9984    1.1615   -1.0788 H   0  0  0  0  0  0  0  0  0  0  0  0
   -3.9848    0.8127    0.7649 H   0  0  0  0  0  0  0  0  0  0  0  0
   -1.3744    0.1419    0.0325 C   0  0  0  0  0  0  0  0  0  0  0  0
   -2.5988   -1.2876   -0.5944 H   0  0  0  0  0  0  0  0  0  0  0  0
   -2.7214   -1.3925    1.0948 H   0  0  0  0  0  0  0  0  0  0  0  0
   -0.1829   -0.6517   -0.0203 C   0  0  0  0  0  0  0  0  0  0  0  0
   -1.1830    0.9490    0.9629 H   0  0  0  0  0  0  0  0  0  0  0  0
   -1.3530    0.7797   -0.8312 H   0  0  0  0  0  0  0  0  0  0  0  0
   -0.3513   -0.8763    0.6899 H   0  0  0  0  0  0  0  0  0  0  0  0
    0.7221   -0.0396    0.3420 H   0  0  0  0  0  0  0  0  0  0  0  0
    0.1043   -1.7857   -1.2395 H   0  0  0  0  0  0  0  0  0  0  0  0
  1  2  1  0  0  0  0
  1  3  1  0  0  0  0
  1  5  1  0  0  0  0
  2  8  1  0  0  0  0
  4  1  1  0  0  0  0
  6  2  1  0  0  0  0
  6 10  1  0  0  0  0
  7  2  1  0  0  0  0
  9  6  1  0  0  0  0
  9 13  1  0  0  0  0
  9 12  1  0  0  0  0
 11  6  1  0  0  0  0
M  RAD  2   9   2  14   2
M  END
$$$$
