butane_opt
 OpenBabel08242015383D

 14 11  0  0  0  0  0  0  0  0999 V2000
   -3.8995    0.2377   -0.0674 C   0  0  0  0  0  0  0  0  0  0  0  0
   -2.7242   -0.5662    0.1571 C   0  0  0  0  0  0  0  0  0  0  0  0
   -4.8715   -0.3962    0.0820 H   0  0  0  0  0  0  0  0  0  0  0  0
   -3.7547    1.0085   -1.0997 H   0  0  0  0  0  0  0  0  0  0  0  0
   -3.9012    0.6097    0.6710 H   0  0  0  0  0  0  0  0  0  0  0  0
   -1.4393    0.2251    0.0673 C   0  0  0  0  0  0  0  0  0  0  0  0
   -2.6324   -1.2738   -0.6436 H   0  0  0  0  0  0  0  0  0  0  0  0
   -2.7478   -1.2839    1.1490 H   0  0  0  0  0  0  0  0  0  0  0  0
   -0.1873   -0.7162   -0.0267 C   0  0  0  0  0  0  0  0  0  0  0  0
   -1.3479    0.8991    1.0032 H   0  0  0  0  0  0  0  0  0  0  0  0
   -1.4320    0.8736   -0.9034 H   0  0  0  0  0  0  0  0  0  0  0  0
   -0.0876   -0.9375    0.5517 H   0  0  0  0  0  0  0  0  0  0  0  0
    0.7208   -0.1935    0.2199 H   0  0  0  0  0  0  0  0  0  0  0  0
    0.0200   -1.9423   -1.2312 H   0  0  0  0  0  0  0  0  0  0  0  0
  1  3  1  0  0  0  0
  1  2  1  0  0  0  0
  1  5  1  0  0  0  0
  2  8  1  0  0  0  0
  4  1  1  0  0  0  0
  6  2  1  0  0  0  0
  6 10  1  0  0  0  0
  7  2  1  0  0  0  0
  9  6  1  0  0  0  0
  9 13  1  0  0  0  0
 11  6  1  0  0  0  0
M  RAD  3   9   3  12   2  14   2
M  END
$$$$
