14
butane_opt
C  -3.906003   0.234622   0.050656
C  -2.692146  -0.601698  -0.004993
H  -4.840785  -0.404207  -0.053461
H  -3.945185   0.854187  -0.854134
H  -4.004703   1.065786   1.018466
C  -1.458190   0.203247  -0.009199
H  -2.779091  -1.413768  -0.961927
H  -2.644754  -1.162023   0.840754
C  -0.148725  -0.699661   0.083707
H  -1.361538   0.841353   0.803223
H  -1.389530   0.973163  -0.916194
H   0.111103  -1.445620   1.089800
H   0.724958  -0.224209  -0.244693
H  -0.398662  -1.208162  -0.692405
