14
butane_opt
C  -3.940534   0.241231  -0.032375
C  -2.718233  -0.549989   0.139445
H  -4.962336  -0.422657  -0.519413
H  -3.782029   0.523042  -0.776022
H  -4.072185   1.048662   0.953604
C  -1.384923   0.203760   0.057136
H  -2.599201  -1.222148  -0.724857
H  -2.952541  -1.246716   1.107842
C  -0.159947  -0.732862  -0.020297
H  -1.376416   0.813863   0.887643
H  -1.490374   1.006269  -0.927962
H   0.062385  -1.430860   0.838658
H   0.730897  -0.101590  -0.120182
H  -0.133119  -1.412705  -0.973650
