butane_opt
 OpenBabel08242015383D

 14 13  0  0  0  0  0  0  0  0999 V2000
   -3.9373    0.2483    0.1365 C   0  0  0  0  0  0  0  0  0  0  0  0
   -2.7334   -0.5965   -0.0388 C   0  0  0  0  0  0  0  0  0  0  0  0
   -4.9915   -0.4139   -0.0794 H   0  0  0  0  0  0  0  0  0  0  0  0
   -3.9975    0.7898   -0.6950 H   0  0  0  0  0  0  0  0  0  0  0  0
   -3.9739    0.9570    1.0583 H   0  0  0  0  0  0  0  0  0  0  0  0
   -1.4153    0.2530   -0.1212 C   0  0  0  0  0  0  0  0  0  0  0  0
   -2.8986   -1.3985   -0.9928 H   0  0  0  0  0  0  0  0  0  0  0  0
   -2.5974   -1.2716    0.7971 H   0  0  0  0  0  0  0  0  0  0  0  0
   -0.1306   -0.7245    0.1373 C   0  0  0  0  0  0  0  0  0  0  0  0
   -1.3221    0.7255    0.5663 H   0  0  0  0  0  0  0  0  0  0  0  0
   -1.2988    1.0139   -1.1119 H   0  0  0  0  0  0  0  0  0  0  0  0
   -0.2387   -1.2925    0.9930 H   0  0  0  0  0  0  0  0  0  0  0  0
    0.7158   -0.2209    0.3547 H   0  0  0  0  0  0  0  0  0  0  0  0
    0.2023   -1.5500   -0.8281 H   0  0  0  0  0  0  0  0  0  0  0  0
  1  5  1  0  0  0  0
  2  1  1  0  0  0  0
  2  8  1  0  0  0  0
  3  1  1  0  0  0  0
  4  1  1  0  0  0  0
  6  2  1  0  0  0  0
  6  9  1  0  0  0  0
  6 10  1  0  0  0  0
  7  2  1  0  0  0  0
  9 13  1  0  0  0  0
  9 12  1  0  0  0  0
 11  6  1  0  0  0  0
 14  9  1  0  0  0  0
M  END
$$$$
