butane_opt
 OpenBabel08242015383D

 14 13  0  0  0  0  0  0  0  0999 V2000
   -3.9515    0.2816   -0.0378 C   0  0  0  0  0  0  0  0  0  0  0  0
   -2.6731   -0.6091    0.0738 C   0  0  0  0  0  0  0  0  0  0  0  0
   -4.8053   -0.2130    0.3895 H   0  0  0  0  0  0  0  0  0  0  0  0
   -3.9947    1.2086   -1.1518 H   0  0  0  0  0  0  0  0  0  0  0  0
   -3.7782    0.4863    0.5515 H   0  0  0  0  0  0  0  0  0  0  0  0
   -1.4262    0.1257    0.0821 C   0  0  0  0  0  0  0  0  0  0  0  0
   -2.7200   -1.1893   -0.7579 H   0  0  0  0  0  0  0  0  0  0  0  0
   -2.7472   -1.3784    1.0538 H   0  0  0  0  0  0  0  0  0  0  0  0
   -0.1676   -0.6547   -0.0574 C   0  0  0  0  0  0  0  0  0  0  0  0
   -1.4453    1.0244    1.1106 H   0  0  0  0  0  0  0  0  0  0  0  0
   -1.4055    0.6172   -0.6529 H   0  0  0  0  0  0  0  0  0  0  0  0
   -0.2203   -1.1615    0.7888 H   0  0  0  0  0  0  0  0  0  0  0  0
    0.8168   -0.0233    0.2623 H   0  0  0  0  0  0  0  0  0  0  0  0
   -0.1456   -1.5330   -0.9427 H   0  0  0  0  0  0  0  0  0  0  0  0
  1  2  1  0  0  0  0
  1  3  1  0  0  0  0
  1  5  1  0  0  0  0
  2  6  1  0  0  0  0
  2  8  1  0  0  0  0
  4  1  1  0  0  0  0
  6 10  1  0  0  0  0
  7  2  1  0  0  0  0
  9  6  1  0  0  0  0
  9 13  1  0  0  0  0
  9 12  1  0  0  0  0
 11  6  1  0  0  0  0
 14  9  1  0  0  0  0
M  END
$$$$
