14
butane_opt
C  -3.933199   0.246112  -0.018137
C  -2.699829  -0.548189   0.109191
H  -4.949085  -0.497851  -0.364093
H  -3.690263   0.542001  -0.739104
H  -3.975476   1.055823   0.954589
C  -1.400510   0.226278  -0.008503
H  -2.699213  -1.095334  -0.656032
H  -2.884224  -1.392869   1.151898
C  -0.176035  -0.736092   0.015631
H  -1.448923   0.875769   0.900891
H  -1.404777   0.724019  -0.814883
H   0.058511  -1.308560   0.735774
H   0.710667  -0.194082   0.025216
H  -0.218352  -1.441615  -0.908470
