14
butane_opt
C  -3.951011   0.284631   0.070162
C  -2.628114  -0.666142  -0.068638
H  -4.831264  -0.249588   0.032013
H  -4.017644   0.765907  -0.687515
H  -3.911028   1.262167   1.204768
C  -1.406032   0.152739  -0.027882
H  -2.826268  -1.496465  -0.994512
H  -2.599409  -1.169793   0.767377
C  -0.210693  -0.659222   0.121486
H  -1.511206   0.788648   0.793995
H  -1.309664   0.905562  -1.080145
H  -0.044763  -1.592817   1.232143
H   0.814756  -0.050416  -0.403309
H  -0.453229  -0.946142  -0.515165
