14
butane_opt
C  -3.957551   0.244215   0.085821
C  -2.722699  -0.583512  -0.066045
H  -4.984609  -0.386317   0.459164
H  -4.142108   1.111524  -0.902582
H  -3.786986   0.618932   0.800705
C  -1.397596   0.213975  -0.015065
H  -2.843386  -1.498199  -1.108721
H  -2.662729  -1.130446   0.723989
C  -0.127642  -0.712140   0.094194
H  -1.395213   0.819437   0.761370
H  -1.530331   0.932410  -0.885679
H  -0.135725  -1.363181   1.047097
H   0.739468  -0.220179   0.028900
H   0.187829  -1.306903  -0.694362
