butane_opt
 OpenBabel08242015383D

 14 13  0  0  0  0  0  0  0  0999 V2000
   -3.9705    0.2918    0.1083 C   0  0  0  0  0  0  0  0  0  0  0  0
   -2.7440   -0.6487   -0.0377 C   0  0  0  0  0  0  0  0  0  0  0  0
   -4.7776   -0.2533    0.1357 H   0  0  0  0  0  0  0  0  0  0  0  0
   -4.1158    0.8056   -0.7194 H   0  0  0  0  0  0  0  0  0  0  0  0
   -3.9139    0.9975    1.0460 H   0  0  0  0  0  0  0  0  0  0  0  0
   -1.3926    0.1596   -0.1274 C   0  0  0  0  0  0  0  0  0  0  0  0
   -2.7758   -1.3058   -0.9192 H   0  0  0  0  0  0  0  0  0  0  0  0
   -2.5884   -1.2895    0.7892 H   0  0  0  0  0  0  0  0  0  0  0  0
   -0.1280   -0.6963    0.1307 C   0  0  0  0  0  0  0  0  0  0  0  0
   -1.3491    0.9446    0.7647 H   0  0  0  0  0  0  0  0  0  0  0  0
   -1.3801    0.9067   -1.0810 H   0  0  0  0  0  0  0  0  0  0  0  0
   -0.4008   -1.1668    0.9726 H   0  0  0  0  0  0  0  0  0  0  0  0
    0.9225   -0.0309    0.3101 H   0  0  0  0  0  0  0  0  0  0  0  0
    0.1559   -1.3478   -0.7467 H   0  0  0  0  0  0  0  0  0  0  0  0
  1  3  1  0  0  0  0
  1  5  1  0  0  0  0
  2  1  1  0  0  0  0
  2  8  1  0  0  0  0
  4  1  1  0  0  0  0
  6  2  1  0  0  0  0
  6  9  1  0  0  0  0
  6 10  1  0  0  0  0
  7  2  1  0  0  0  0
  9 13  1  0  0  0  0
  9 12  1  0  0  0  0
 11  6  1  0  0  0  0
 14  9  1  0  0  0  0
M  END
$$$$
