butane_opt
 OpenBabel08242015383D

 14 13  0  0  0  0  0  0  0  0999 V2000
   -3.9909    0.2797   -0.0599 C   0  0  0  0  0  0  0  0  0  0  0  0
   -2.7114   -0.6637    0.1091 C   0  0  0  0  0  0  0  0  0  0  0  0
   -4.7635   -0.2112    0.2217 H   0  0  0  0  0  0  0  0  0  0  0  0
   -4.1457    1.2846   -1.1523 H   0  0  0  0  0  0  0  0  0  0  0  0
   -3.9274    0.6280    0.6078 H   0  0  0  0  0  0  0  0  0  0  0  0
   -1.3706    0.1962    0.1034 C   0  0  0  0  0  0  0  0  0  0  0  0
   -2.6037   -1.3297   -0.7287 H   0  0  0  0  0  0  0  0  0  0  0  0
   -2.8342   -1.1750    1.0186 H   0  0  0  0  0  0  0  0  0  0  0  0
   -0.1430   -0.7054   -0.0433 C   0  0  0  0  0  0  0  0  0  0  0  0
   -1.1790    0.9279    1.0390 H   0  0  0  0  0  0  0  0  0  0  0  0
   -1.4045    0.6837   -0.6822 H   0  0  0  0  0  0  0  0  0  0  0  0
   -0.1448   -1.0829    0.6957 H   0  0  0  0  0  0  0  0  0  0  0  0
    0.7705   -0.0571    0.0132 H   0  0  0  0  0  0  0  0  0  0  0  0
   -0.1946   -1.4082   -0.9542 H   0  0  0  0  0  0  0  0  0  0  0  0
  1  2  1  0  0  0  0
  1  3  1  0  0  0  0
  1  5  1  0  0  0  0
  2  8  1  0  0  0  0
  4  1  1  0  0  0  0
  6  2  1  0  0  0  0
  6 10  1  0  0  0  0
  7  2  1  0  0  0  0
  9 13  1  0  0  0  0
  9  6  1  0  0  0  0
  9 12  1  0  0  0  0
 11  6  1  0  0  0  0
 14  9  1  0  0  0  0
M  END
$$$$
