14
butane_opt
C  -3.901738   0.233808   0.058858
C  -2.694695  -0.580005   0.024405
H  -4.914923  -0.509677  -0.270350
H  -3.716431   0.470722  -0.650966
H  -4.006928   1.327154   1.120668
C  -1.465098   0.196897  -0.085288
H  -2.796325  -1.165449  -0.733407
H  -2.483085  -1.169998   0.913070
C  -0.165891  -0.707469   0.079557
H  -1.395569   0.915122   0.730064
H  -1.350067   0.808640  -0.922306
H  -0.192612  -1.482772   1.102263
H   0.634613  -0.167782  -0.013710
H  -0.045080  -1.268477  -0.726555
