butane_opt
 OpenBabel08242015383D

 14 13  0  0  0  0  0  0  0  0999 V2000
   -3.8912    0.2305   -0.0387 C   0  0  0  0  0  0  0  0  0  0  0  0
   -2.7009   -0.5971    0.0769 C   0  0  0  0  0  0  0  0  0  0  0  0
   -4.7962   -0.3719   -0.0778 H   0  0  0  0  0  0  0  0  0  0  0  0
   -3.9108    0.9243   -0.9525 H   0  0  0  0  0  0  0  0  0  0  0  0
   -4.0022    1.0141    0.9339 H   0  0  0  0  0  0  0  0  0  0  0  0
   -1.4345    0.1965    0.1043 C   0  0  0  0  0  0  0  0  0  0  0  0
   -2.7238   -1.3559   -0.8873 H   0  0  0  0  0  0  0  0  0  0  0  0
   -2.7816   -1.1953    0.9183 H   0  0  0  0  0  0  0  0  0  0  0  0
   -0.1517   -0.6851   -0.0171 C   0  0  0  0  0  0  0  0  0  0  0  0
   -1.4494    0.8925    1.0204 H   0  0  0  0  0  0  0  0  0  0  0  0
   -1.5965    0.8393   -0.8330 H   0  0  0  0  0  0  0  0  0  0  0  0
   -0.0381   -1.5870    1.0838 H   0  0  0  0  0  0  0  0  0  0  0  0
    0.6847   -0.2033   -0.4623 H   0  0  0  0  0  0  0  0  0  0  0  0
   -0.2620   -1.1612   -0.7877 H   0  0  0  0  0  0  0  0  0  0  0  0
  1  2  1  0  0  0  0
  1  5  1  0  0  0  0
  2  6  1  0  0  0  0
  2  8  1  0  0  0  0
  3  1  1  0  0  0  0
  4  1  1  0  0  0  0
  6 10  1  0  0  0  0
  7  2  1  0  0  0  0
  9  6  1  0  0  0  0
  9 12  1  0  0  0  0
 11  6  1  0  0  0  0
 13  9  1  0  0  0  0
 14  9  1  0  0  0  0
M  END
$$$$
