butane_opt
 OpenBabel08242015383D

 14 13  0  0  0  0  0  0  0  0999 V2000
   -3.9022    0.2594   -0.0984 C   0  0  0  0  0  0  0  0  0  0  0  0
   -2.6962   -0.5727    0.1358 C   0  0  0  0  0  0  0  0  0  0  0  0
   -5.0166   -0.5477   -0.0183 H   0  0  0  0  0  0  0  0  0  0  0  0
   -3.8280    0.9101   -1.0724 H   0  0  0  0  0  0  0  0  0  0  0  0
   -3.9087    0.8117    0.6138 H   0  0  0  0  0  0  0  0  0  0  0  0
   -1.4135    0.1889    0.1697 C   0  0  0  0  0  0  0  0  0  0  0  0
   -2.7151   -1.2536   -0.7233 H   0  0  0  0  0  0  0  0  0  0  0  0
   -2.7885   -1.1750    0.9804 H   0  0  0  0  0  0  0  0  0  0  0  0
   -0.1750   -0.7278   -0.0729 C   0  0  0  0  0  0  0  0  0  0  0  0
   -1.3636    0.9572    1.0862 H   0  0  0  0  0  0  0  0  0  0  0  0
   -1.4834    0.7894   -0.5904 H   0  0  0  0  0  0  0  0  0  0  0  0
    0.2126   -1.4282    0.8211 H   0  0  0  0  0  0  0  0  0  0  0  0
    0.6315   -0.1907   -0.4423 H   0  0  0  0  0  0  0  0  0  0  0  0
   -0.4876   -1.1465   -0.8163 H   0  0  0  0  0  0  0  0  0  0  0  0
  1  3  1  0  0  0  0
  1  2  1  0  0  0  0
  1  5  1  0  0  0  0
  2  6  1  0  0  0  0
  2  8  1  0  0  0  0
  4  1  1  0  0  0  0
  6 10  1  0  0  0  0
  7  2  1  0  0  0  0
  9  6  1  0  0  0  0
  9 12  1  0  0  0  0
 11  6  1  0  0  0  0
 13  9  1  0  0  0  0
 14  9  1  0  0  0  0
M  END
$$$$
