14
butane_opt
C  -3.906574   0.230919  -0.045919
C  -2.714952  -0.551452   0.079411
H  -4.911273  -0.445325   0.410499
H  -4.118760   1.279201  -1.229126
H  -3.762458   0.417673   0.486146
C  -1.453926   0.217864   0.096337
H  -2.772973  -1.228011  -0.718658
H  -2.709470  -1.291654   0.971903
C  -0.127286  -0.736260  -0.036061
H  -1.420065   1.141544   1.080789
H  -1.357132   0.514272  -0.602791
H  -0.073529  -1.184967   0.770465
H   0.720321  -0.092672   0.016666
H  -0.161517  -1.514337  -0.954568
