14
butane_opt
C  -3.942533   0.307127  -0.043009
C  -2.662553  -0.668443   0.056693
H  -4.805826  -0.319822   0.388055
H  -4.192315   1.402847  -1.194622
H  -3.873470   0.507562   0.487211
C  -1.392917   0.142167   0.119981
H  -2.597712  -1.245802  -0.689747
H  -2.637393  -1.405780   1.030849
C  -0.208122  -0.643667  -0.047905
H  -1.460148   0.990972   1.109778
H  -1.350600   0.497815  -0.643688
H  -0.081353  -1.037100   0.757575
H   0.639209  -0.081331   0.009437
H  -0.207346  -1.401380  -0.930560
