14
butane_opt
C  -3.957549   0.280603   0.061825
C  -2.672914  -0.616660  -0.042690
H  -4.765744  -0.314962   0.024757
H  -3.933530   0.695625  -0.758422
H  -3.910943   1.234934   1.084983
C  -1.419237   0.140383   0.019529
H  -2.614288  -1.520217  -1.005494
H  -2.708541  -1.178853   0.807170
C  -0.190340  -0.662241   0.070342
H  -1.413029   0.681868   0.793286
H  -1.161424   0.875526  -1.059394
H   0.000644  -1.633530   1.171154
H   0.674695  -0.072264  -0.376021
H  -0.326910  -0.905181  -0.475812
