butane_opt
 OpenBabel08242015383D

 14 13  0  0  0  0  0  0  0  0999 V2000
   -3.9311    0.2662    0.0989 C   0  0  0  0  0  0  0  0  0  0  0  0
   -2.7154   -0.6298   -0.0602 C   0  0  0  0  0  0  0  0  0  0  0  0
   -4.7742   -0.2582    0.2601 H   0  0  0  0  0  0  0  0  0  0  0  0
   -4.0919    0.7794   -0.6502 H   0  0  0  0  0  0  0  0  0  0  0  0
   -3.9442    0.8523    0.9709 H   0  0  0  0  0  0  0  0  0  0  0  0
   -1.4257    0.2012   -0.0802 C   0  0  0  0  0  0  0  0  0  0  0  0
   -2.7302   -1.3088   -0.9605 H   0  0  0  0  0  0  0  0  0  0  0  0
   -2.7307   -1.2255    0.8353 H   0  0  0  0  0  0  0  0  0  0  0  0
   -0.1279   -0.6800    0.1211 C   0  0  0  0  0  0  0  0  0  0  0  0
   -1.4965    0.6775    0.6576 H   0  0  0  0  0  0  0  0  0  0  0  0
   -1.4272    1.0265   -1.0981 H   0  0  0  0  0  0  0  0  0  0  0  0
   -0.2447   -1.2457    0.9183 H   0  0  0  0  0  0  0  0  0  0  0  0
    0.7506   -0.1185    0.3293 H   0  0  0  0  0  0  0  0  0  0  0  0
    0.0537   -1.5398   -0.7705 H   0  0  0  0  0  0  0  0  0  0  0  0
  1  3  1  0  0  0  0
  1  5  1  0  0  0  0
  2  1  1  0  0  0  0
  2  8  1  0  0  0  0
  4  1  1  0  0  0  0
  6  2  1  0  0  0  0
  6  9  1  0  0  0  0
  6 10  1  0  0  0  0
  7  2  1  0  0  0  0
  9 13  1  0  0  0  0
  9 12  1  0  0  0  0
 11  6  1  0  0  0  0
 14  9  1  0  0  0  0
M  END
$$$$
