butane_opt
 OpenBabel08242015383D

 14 13  0  0  0  0  0  0  0  0999 V2000
   -3.9299    0.2693    0.0447 C   0  0  0  0  0  0  0  0  0  0  0  0
   -2.7023   -0.6231    0.0124 C   0  0  0  0  0  0  0  0  0  0  0  0
   -4.8409   -0.2997    0.0943 H   0  0  0  0  0  0  0  0  0  0  0  0
   -4.0460    0.8662   -0.8381 H   0  0  0  0  0  0  0  0  0  0  0  0
   -3.9381    0.9793    0.9064 H   0  0  0  0  0  0  0  0  0  0  0  0
   -1.4059    0.1760   -0.0249 C   0  0  0  0  0  0  0  0  0  0  0  0
   -2.7147   -1.3321   -0.8626 H   0  0  0  0  0  0  0  0  0  0  0  0
   -2.6836   -1.2355    0.9086 H   0  0  0  0  0  0  0  0  0  0  0  0
   -0.1629   -0.6853    0.0677 C   0  0  0  0  0  0  0  0  0  0  0  0
   -1.4266    0.7995    0.7883 H   0  0  0  0  0  0  0  0  0  0  0  0
   -1.3871    0.8257   -0.9464 H   0  0  0  0  0  0  0  0  0  0  0  0
   -0.2157   -1.2457    0.9195 H   0  0  0  0  0  0  0  0  0  0  0  0
    0.7442   -0.0719    0.0705 H   0  0  0  0  0  0  0  0  0  0  0  0
   -0.1033   -1.3971   -0.8034 H   0  0  0  0  0  0  0  0  0  0  0  0
  1  3  1  0  0  0  0
  1  5  1  0  0  0  0
  2  1  1  0  0  0  0
  2  8  1  0  0  0  0
  4  1  1  0  0  0  0
  6  2  1  0  0  0  0
  6  9  1  0  0  0  0
  6 10  1  0  0  0  0
  7  2  1  0  0  0  0
  9 13  1  0  0  0  0
  9 12  1  0  0  0  0
 11  6  1  0  0  0  0
 14  9  1  0  0  0  0
M  END
$$$$
