butane_opt
 OpenBabel08242015383D

 14 13  0  0  0  0  0  0  0  0999 V2000
   -3.9126    0.2942    0.0087 C   0  0  0  0  0  0  0  0  0  0  0  0
   -2.6994   -0.6499    0.0658 C   0  0  0  0  0  0  0  0  0  0  0  0
   -4.6848   -0.2423    0.0092 H   0  0  0  0  0  0  0  0  0  0  0  0
   -4.0195    0.9639   -0.9419 H   0  0  0  0  0  0  0  0  0  0  0  0
   -3.9621    0.7916    0.7760 H   0  0  0  0  0  0  0  0  0  0  0  0
   -1.4084    0.1735    0.0077 C   0  0  0  0  0  0  0  0  0  0  0  0
   -2.6305   -1.2214   -0.6774 H   0  0  0  0  0  0  0  0  0  0  0  0
   -2.7363   -1.4519    1.1416 H   0  0  0  0  0  0  0  0  0  0  0  0
   -0.2044   -0.6837    0.0173 C   0  0  0  0  0  0  0  0  0  0  0  0
   -1.4466    0.9150    0.9029 H   0  0  0  0  0  0  0  0  0  0  0  0
   -1.3788    0.7890   -0.9472 H   0  0  0  0  0  0  0  0  0  0  0  0
   -0.2882   -0.9853    0.6945 H   0  0  0  0  0  0  0  0  0  0  0  0
    0.8454    0.0120    0.3327 H   0  0  0  0  0  0  0  0  0  0  0  0
   -0.0580   -1.6261   -1.0954 H   0  0  0  0  0  0  0  0  0  0  0  0
  1  3  1  0  0  0  0
  1  2  1  0  0  0  0
  1  5  1  0  0  0  0
  2  8  1  0  0  0  0
  4  1  1  0  0  0  0
  6  9  1  0  0  0  0
  6  2  1  0  0  0  0
  6 10  1  0  0  0  0
  7  2  1  0  0  0  0
  9 13  1  0  0  0  0
  9 12  1  0  0  0  0
 11  6  1  0  0  0  0
 14  9  1  0  0  0  0
M  END
$$$$
