butane_opt
 OpenBabel08242015383D

 14 13  0  0  0  0  0  0  0  0999 V2000
   -3.9631    0.2874    0.0936 C   0  0  0  0  0  0  0  0  0  0  0  0
   -2.6785   -0.6824   -0.0421 C   0  0  0  0  0  0  0  0  0  0  0  0
   -4.7828   -0.1834    0.1417 H   0  0  0  0  0  0  0  0  0  0  0  0
   -4.1902    0.9282   -0.7660 H   0  0  0  0  0  0  0  0  0  0  0  0
   -4.0505    0.9969    1.0129 H   0  0  0  0  0  0  0  0  0  0  0  0
   -1.4018    0.1814   -0.0902 C   0  0  0  0  0  0  0  0  0  0  0  0
   -2.6485   -1.2342   -0.7674 H   0  0  0  0  0  0  0  0  0  0  0  0
   -2.7283   -1.4455    0.8531 H   0  0  0  0  0  0  0  0  0  0  0  0
   -0.1638   -0.6744    0.0970 C   0  0  0  0  0  0  0  0  0  0  0  0
   -1.4655    0.8831    0.8026 H   0  0  0  0  0  0  0  0  0  0  0  0
   -1.1850    0.9084   -1.0464 H   0  0  0  0  0  0  0  0  0  0  0  0
   -0.2445   -1.1556    0.9024 H   0  0  0  0  0  0  0  0  0  0  0  0
    0.8946    0.0074    0.3981 H   0  0  0  0  0  0  0  0  0  0  0  0
   -0.1455   -1.5026   -0.7946 H   0  0  0  0  0  0  0  0  0  0  0  0
  1  3  1  0  0  0  0
  1  5  1  0  0  0  0
  2  1  1  0  0  0  0
  2  8  1  0  0  0  0
  4  1  1  0  0  0  0
  6  2  1  0  0  0  0
  6  9  1  0  0  0  0
  6 10  1  0  0  0  0
  7  2  1  0  0  0  0
  9 13  1  0  0  0  0
  9 12  1  0  0  0  0
 11  6  1  0  0  0  0
 14  9  1  0  0  0  0
M  END
$$$$
