14
butane_opt
C  -3.989659   0.287698   0.031851
C  -2.677251  -0.640824   0.079156
H  -4.897910  -0.186769  -0.470162
H  -3.798156   0.683372  -0.791732
H  -4.122979   1.237727   1.034294
C  -1.357056   0.125789  -0.008691
H  -2.716882  -1.333060  -0.792381
H  -2.658496  -1.362245   1.008414
C  -0.167515  -0.664378   0.007388
H  -1.484607   0.961223   0.852717
H  -1.377111   0.765829  -0.912651
H  -0.245724  -1.367282   0.981631
H   0.754909  -0.050230  -0.108318
H  -0.187733  -1.117097  -0.658684
