butane_opt
 OpenBabel08242015383D

 14 13  0  0  0  0  0  0  0  0999 V2000
   -3.9060    0.2346    0.0507 C   0  0  0  0  0  0  0  0  0  0  0  0
   -2.6921   -0.6017   -0.0050 C   0  0  0  0  0  0  0  0  0  0  0  0
   -4.8408   -0.4042   -0.0535 H   0  0  0  0  0  0  0  0  0  0  0  0
   -3.9452    0.8542   -0.8541 H   0  0  0  0  0  0  0  0  0  0  0  0
   -4.0047    1.0658    1.0185 H   0  0  0  0  0  0  0  0  0  0  0  0
   -1.4582    0.2032   -0.0092 C   0  0  0  0  0  0  0  0  0  0  0  0
   -2.7791   -1.4138   -0.9619 H   0  0  0  0  0  0  0  0  0  0  0  0
   -2.6448   -1.1620    0.8408 H   0  0  0  0  0  0  0  0  0  0  0  0
   -0.1487   -0.6997    0.0837 C   0  0  0  0  0  0  0  0  0  0  0  0
   -1.3615    0.8414    0.8032 H   0  0  0  0  0  0  0  0  0  0  0  0
   -1.3895    0.9732   -0.9162 H   0  0  0  0  0  0  0  0  0  0  0  0
    0.1111   -1.4456    1.0898 H   0  0  0  0  0  0  0  0  0  0  0  0
    0.7250   -0.2242   -0.2447 H   0  0  0  0  0  0  0  0  0  0  0  0
   -0.3987   -1.2082   -0.6924 H   0  0  0  0  0  0  0  0  0  0  0  0
  1  5  1  0  0  0  0
  2  1  1  0  0  0  0
  2  8  1  0  0  0  0
  3  1  1  0  0  0  0
  4  1  1  0  0  0  0
  6  2  1  0  0  0  0
  6  9  1  0  0  0  0
  6 10  1  0  0  0  0
  7  2  1  0  0  0  0
  9 12  1  0  0  0  0
 11  6  1  0  0  0  0
 13  9  1  0  0  0  0
 14  9  1  0  0  0  0
M  END
$$$$
