butane_opt
 OpenBabel08242015383D

 14 11  0  0  0  0  0  0  0  0999 V2000
   -3.9562    0.2347    0.0605 C   0  0  0  0  0  0  0  0  0  0  0  0
   -2.7158   -0.5959   -0.0546 C   0  0  0  0  0  0  0  0  0  0  0  0
   -4.9244   -0.4171   -0.0864 H   0  0  0  0  0  0  0  0  0  0  0  0
   -4.0140    0.6336   -0.7071 H   0  0  0  0  0  0  0  0  0  0  0  0
   -3.8438    0.9782    1.0013 H   0  0  0  0  0  0  0  0  0  0  0  0
   -1.3973    0.2573    0.0121 C   0  0  0  0  0  0  0  0  0  0  0  0
   -2.7264   -1.2302   -0.9200 H   0  0  0  0  0  0  0  0  0  0  0  0
   -2.7159   -1.2321    0.8732 H   0  0  0  0  0  0  0  0  0  0  0  0
   -0.1527   -0.7266    0.0572 C   0  0  0  0  0  0  0  0  0  0  0  0
   -1.6493    0.9852    0.9314 H   0  0  0  0  0  0  0  0  0  0  0  0
   -1.2966    0.8861   -0.8295 H   0  0  0  0  0  0  0  0  0  0  0  0
    0.2419   -1.8523    1.2202 H   0  0  0  0  0  0  0  0  0  0  0  0
    0.7314   -0.2002   -0.4498 H   0  0  0  0  0  0  0  0  0  0  0  0
   -0.1636   -1.0565   -0.4637 H   0  0  0  0  0  0  0  0  0  0  0  0
  1  5  1  0  0  0  0
  2  6  1  0  0  0  0
  2  1  1  0  0  0  0
  2  8  1  0  0  0  0
  3  1  1  0  0  0  0
  4  1  1  0  0  0  0
  6  9  1  0  0  0  0
  6 10  1  0  0  0  0
  7  2  1  0  0  0  0
 11  6  1  0  0  0  0
 13  9  1  0  0  0  0
M  RAD  3   9   3  12   2  14   2
M  END
$$$$
