butane_opt
 OpenBabel08242015383D

 14 13  0  0  0  0  0  0  0  0999 V2000
   -3.9528    0.2737    0.0410 C   0  0  0  0  0  0  0  0  0  0  0  0
   -2.7018   -0.6359    0.0352 C   0  0  0  0  0  0  0  0  0  0  0  0
   -4.8295   -0.2893    0.0108 H   0  0  0  0  0  0  0  0  0  0  0  0
   -3.9919    0.8710   -0.8456 H   0  0  0  0  0  0  0  0  0  0  0  0
   -3.9535    0.9645    0.9040 H   0  0  0  0  0  0  0  0  0  0  0  0
   -1.3864    0.1816   -0.0260 C   0  0  0  0  0  0  0  0  0  0  0  0
   -2.7453   -1.3366   -0.8396 H   0  0  0  0  0  0  0  0  0  0  0  0
   -2.6740   -1.1921    0.8981 H   0  0  0  0  0  0  0  0  0  0  0  0
   -0.1687   -0.6904    0.0536 C   0  0  0  0  0  0  0  0  0  0  0  0
   -1.4235    0.8339    0.7997 H   0  0  0  0  0  0  0  0  0  0  0  0
   -1.3461    0.8560   -0.9567 H   0  0  0  0  0  0  0  0  0  0  0  0
   -0.1930   -1.2411    0.9201 H   0  0  0  0  0  0  0  0  0  0  0  0
    0.7263   -0.0875    0.1298 H   0  0  0  0  0  0  0  0  0  0  0  0
   -0.0817   -1.4024   -0.8368 H   0  0  0  0  0  0  0  0  0  0  0  0
  1  5  1  0  0  0  0
  2  1  1  0  0  0  0
  2  8  1  0  0  0  0
  3  1  1  0  0  0  0
  4  1  1  0  0  0  0
  6  2  1  0  0  0  0
  6  9  1  0  0  0  0
  6 10  1  0  0  0  0
  7  2  1  0  0  0  0
  9 13  1  0  0  0  0
  9 12  1  0  0  0  0
 11  6  1  0  0  0  0
 14  9  1  0  0  0  0
M  END
$$$$
