14
butane_opt
C  -3.919941   0.216507  -0.082904
C  -2.698860  -0.547523   0.109787
H  -4.829180  -0.424275  -0.028465
H  -3.959980   0.948862  -1.040639
H  -3.900428   0.832133   0.784092
C  -1.434812   0.206215   0.137344
H  -2.596303  -1.229088  -0.823579
H  -2.791422  -1.264961   1.099590
C  -0.167809  -0.728949  -0.051194
H  -1.510082   1.042873   1.095329
H  -1.464118   0.676220  -0.632958
H   0.157371  -1.505600   0.977692
H   0.894183  -0.019756  -0.517115
H  -0.359382  -1.263387  -0.841666
