14
butane_opt
C  -3.933724   0.266345  -0.054368
C  -2.673303  -0.632340   0.141055
H  -4.674071  -0.208460   0.037312
H  -3.971111   0.972078  -0.997219
H  -3.949106   0.868978   0.664269
C  -1.383418   0.151175   0.055727
H  -2.603456  -1.106053  -0.482821
H  -2.822050  -1.354860   1.124602
C  -0.220626  -0.667617  -0.053553
H  -1.419441   0.878049   0.951534
H  -1.491839   0.810117  -0.848509
H  -0.414699  -0.889834   0.577266
H   0.761540  -0.097065   0.419534
H   0.062299  -1.744614  -1.131031
