butane_opt
 OpenBabel08242015383D

 14 13  0  0  0  0  0  0  0  0999 V2000
   -3.9123    0.2290   -0.1086 C   0  0  0  0  0  0  0  0  0  0  0  0
   -2.6870   -0.5863    0.1749 C   0  0  0  0  0  0  0  0  0  0  0  0
   -4.7668   -0.3709   -0.1128 H   0  0  0  0  0  0  0  0  0  0  0  0
   -3.6583    0.8224   -1.0279 H   0  0  0  0  0  0  0  0  0  0  0  0
   -4.0301    0.9270    0.8019 H   0  0  0  0  0  0  0  0  0  0  0  0
   -1.4265    0.2224    0.1475 C   0  0  0  0  0  0  0  0  0  0  0  0
   -2.5128   -1.2850   -0.7090 H   0  0  0  0  0  0  0  0  0  0  0  0
   -2.9419   -1.2420    1.0577 H   0  0  0  0  0  0  0  0  0  0  0  0
   -0.1837   -0.7227   -0.0640 C   0  0  0  0  0  0  0  0  0  0  0  0
   -1.4247    0.9974    0.9875 H   0  0  0  0  0  0  0  0  0  0  0  0
   -1.6359    0.9038   -0.7417 H   0  0  0  0  0  0  0  0  0  0  0  0
    0.0825   -1.4191    0.8441 H   0  0  0  0  0  0  0  0  0  0  0  0
    0.7964   -0.0819   -0.3398 H   0  0  0  0  0  0  0  0  0  0  0  0
   -0.4250   -1.4290   -1.0786 H   0  0  0  0  0  0  0  0  0  0  0  0
  1  2  1  0  0  0  0
  1  5  1  0  0  0  0
  2  8  1  0  0  0  0
  3  1  1  0  0  0  0
  4  1  1  0  0  0  0
  6  2  1  0  0  0  0
  6 10  1  0  0  0  0
  7  2  1  0  0  0  0
  9  6  1  0  0  0  0
  9 12  1  0  0  0  0
 11  6  1  0  0  0  0
 13  9  1  0  0  0  0
 14  9  1  0  0  0  0
M  END
$$$$
