butane_opt
 OpenBabel08242015383D

 14 12  0  0  0  0  0  0  0  0999 V2000
   -3.9605    0.2935    0.0509 C   0  0  0  0  0  0  0  0  0  0  0  0
   -2.7035   -0.6821    0.0546 C   0  0  0  0  0  0  0  0  0  0  0  0
   -4.8875   -0.2901   -0.3956 H   0  0  0  0  0  0  0  0  0  0  0  0
   -3.9035    0.5561   -0.6592 H   0  0  0  0  0  0  0  0  0  0  0  0
   -4.2185    1.3750    1.1214 H   0  0  0  0  0  0  0  0  0  0  0  0
   -1.3983    0.1688   -0.0546 C   0  0  0  0  0  0  0  0  0  0  0  0
   -2.7089   -1.2666   -0.8092 H   0  0  0  0  0  0  0  0  0  0  0  0
   -2.5096   -1.3747    0.9215 H   0  0  0  0  0  0  0  0  0  0  0  0
   -0.1608   -0.6650    0.0495 C   0  0  0  0  0  0  0  0  0  0  0  0
   -1.3316    0.9141    0.7657 H   0  0  0  0  0  0  0  0  0  0  0  0
   -1.3595    0.9251   -0.9980 H   0  0  0  0  0  0  0  0  0  0  0  0
   -0.2942   -1.3988    1.1227 H   0  0  0  0  0  0  0  0  0  0  0  0
    0.7772   -0.0503   -0.0132 H   0  0  0  0  0  0  0  0  0  0  0  0
    0.0837   -1.2750   -0.7902 H   0  0  0  0  0  0  0  0  0  0  0  0
  1  2  1  0  0  0  0
  2  8  1  0  0  0  0
  3  1  1  0  0  0  0
  4  1  1  0  0  0  0
  6  9  1  0  0  0  0
  6  2  1  0  0  0  0
  6 10  1  0  0  0  0
  7  2  1  0  0  0  0
  9 12  1  0  0  0  0
 11  6  1  0  0  0  0
 13  9  1  0  0  0  0
 14  9  1  0  0  0  0
M  RAD  2   1   2   5   2
M  END
$$$$
