14
butane_opt
C  -3.930444   0.234201  -0.056509
C  -2.675339  -0.559991   0.106308
H  -4.783361  -0.390895   0.160940
H  -3.797551   0.794557  -0.974247
H  -3.831461   0.804480   0.785508
C  -1.440647   0.210355   0.044223
H  -2.600431  -1.094535  -0.561908
H  -2.941731  -1.347364   1.154105
C  -0.153042  -0.728477  -0.031206
H  -1.460231   0.896903   0.898915
H  -1.579471   0.772439  -0.710158
H  -0.282024  -1.020573   0.644548
H   0.754138  -0.086967   0.249381
H  -0.106277  -1.664369  -0.979160
