14
butane_opt
C  -3.949674   0.263042   0.031899
C  -2.707252  -0.626944   0.010822
H  -4.824309  -0.303979   0.118901
H  -4.075147   0.924919  -0.888144
H  -3.885943   0.920499   0.874540
C  -1.403963   0.191176   0.011747
H  -2.705061  -1.317591  -0.883313
H  -2.705150  -1.244049   0.895523
C  -0.157127  -0.694991   0.041954
H  -1.402364   0.880537   0.874757
H  -1.353119   0.851961  -0.906788
H  -0.116556  -1.355929   0.963483
H   0.767525  -0.109494  -0.009290
H  -0.109412  -1.299594  -0.758007
