butane_opt
 OpenBabel08242015383D

 14 13  0  0  0  0  0  0  0  0999 V2000
   -3.9415    0.3031    0.1024 C   0  0  0  0  0  0  0  0  0  0  0  0
   -2.6810   -0.6604   -0.0520 C   0  0  0  0  0  0  0  0  0  0  0  0
   -4.8275   -0.2647    0.4105 H   0  0  0  0  0  0  0  0  0  0  0  0
   -4.0277    1.2366   -0.9821 H   0  0  0  0  0  0  0  0  0  0  0  0
   -3.8069    0.8033    0.7862 H   0  0  0  0  0  0  0  0  0  0  0  0
   -1.3808    0.1017   -0.0490 C   0  0  0  0  0  0  0  0  0  0  0  0
   -2.7242   -1.4459   -0.9966 H   0  0  0  0  0  0  0  0  0  0  0  0
   -2.6120   -1.0985    0.8003 H   0  0  0  0  0  0  0  0  0  0  0  0
   -0.2222   -0.6378    0.0853 C   0  0  0  0  0  0  0  0  0  0  0  0
   -1.4496    0.8528    0.8373 H   0  0  0  0  0  0  0  0  0  0  0  0
   -1.2054    0.8432   -0.9989 H   0  0  0  0  0  0  0  0  0  0  0  0
   -0.2540   -1.2562    1.0282 H   0  0  0  0  0  0  0  0  0  0  0  0
    0.6960   -0.0212    0.2820 H   0  0  0  0  0  0  0  0  0  0  0  0
   -0.1350   -1.4014   -0.7942 H   0  0  0  0  0  0  0  0  0  0  0  0
  1  3  1  0  0  0  0
  1  5  1  0  0  0  0
  2  6  1  0  0  0  0
  2  1  1  0  0  0  0
  2  8  1  0  0  0  0
  4  1  1  0  0  0  0
  6  9  1  0  0  0  0
  6 10  1  0  0  0  0
  7  2  1  0  0  0  0
  9 13  1  0  0  0  0
  9 12  1  0  0  0  0
 11  6  1  0  0  0  0
 14  9  1  0  0  0  0
M  END
$$$$
