butane_opt
 OpenBabel08242015383D

 14 13  0  0  0  0  0  0  0  0999 V2000
   -3.9315    0.2906    0.0573 C   0  0  0  0  0  0  0  0  0  0  0  0
   -2.6847   -0.6380   -0.0448 C   0  0  0  0  0  0  0  0  0  0  0  0
   -4.8630   -0.3178    0.1243 H   0  0  0  0  0  0  0  0  0  0  0  0
   -4.1605    0.8120   -0.7637 H   0  0  0  0  0  0  0  0  0  0  0  0
   -3.7854    1.1395    1.0897 H   0  0  0  0  0  0  0  0  0  0  0  0
   -1.4217    0.1525   -0.0304 C   0  0  0  0  0  0  0  0  0  0  0  0
   -2.7016   -1.4203   -0.9658 H   0  0  0  0  0  0  0  0  0  0  0  0
   -2.5633   -1.2962    0.7362 H   0  0  0  0  0  0  0  0  0  0  0  0
   -0.1874   -0.6727    0.0954 C   0  0  0  0  0  0  0  0  0  0  0  0
   -1.4159    0.8428    0.8409 H   0  0  0  0  0  0  0  0  0  0  0  0
   -1.4220    0.7534   -0.8973 H   0  0  0  0  0  0  0  0  0  0  0  0
   -0.1921   -1.5526    1.1882 H   0  0  0  0  0  0  0  0  0  0  0  0
    0.9427    0.0786   -0.2969 H   0  0  0  0  0  0  0  0  0  0  0  0
   -0.1858   -1.0497   -0.5173 H   0  0  0  0  0  0  0  0  0  0  0  0
  1  3  1  0  0  0  0
  1  5  1  0  0  0  0
  2  6  1  0  0  0  0
  2  1  1  0  0  0  0
  2  8  1  0  0  0  0
  4  1  1  0  0  0  0
  6  9  1  0  0  0  0
  6 10  1  0  0  0  0
  7  2  1  0  0  0  0
  9 12  1  0  0  0  0
 11  6  1  0  0  0  0
 13  9  1  0  0  0  0
 14  9  1  0  0  0  0
M  END
$$$$
