butane_opt
 OpenBabel08242015383D

 14 13  0  0  0  0  0  0  0  0999 V2000
   -3.9760    0.2686   -0.0980 C   0  0  0  0  0  0  0  0  0  0  0  0
   -2.7149   -0.6241    0.1200 C   0  0  0  0  0  0  0  0  0  0  0  0
   -4.7880   -0.2281    0.1399 H   0  0  0  0  0  0  0  0  0  0  0  0
   -4.1409    1.1226   -1.0891 H   0  0  0  0  0  0  0  0  0  0  0  0
   -4.0637    0.8531    0.6901 H   0  0  0  0  0  0  0  0  0  0  0  0
   -1.3774    0.1464    0.1317 C   0  0  0  0  0  0  0  0  0  0  0  0
   -2.6985   -1.3247   -0.7015 H   0  0  0  0  0  0  0  0  0  0  0  0
   -2.6971   -1.2738    1.0850 H   0  0  0  0  0  0  0  0  0  0  0  0
   -0.1302   -0.6645   -0.0604 C   0  0  0  0  0  0  0  0  0  0  0  0
   -1.1645    1.0682    1.1218 H   0  0  0  0  0  0  0  0  0  0  0  0
   -1.4912    0.6282   -0.6107 H   0  0  0  0  0  0  0  0  0  0  0  0
   -0.1995   -1.4257    0.9171 H   0  0  0  0  0  0  0  0  0  0  0  0
    0.8864   -0.0511   -0.2962 H   0  0  0  0  0  0  0  0  0  0  0  0
   -0.2756   -1.3435   -0.9599 H   0  0  0  0  0  0  0  0  0  0  0  0
  1  2  1  0  0  0  0
  1  3  1  0  0  0  0
  1  5  1  0  0  0  0
  2  6  1  0  0  0  0
  2  8  1  0  0  0  0
  4  1  1  0  0  0  0
  6 10  1  0  0  0  0
  7  2  1  0  0  0  0
  9  6  1  0  0  0  0
  9 12  1  0  0  0  0
 11  6  1  0  0  0  0
 13  9  1  0  0  0  0
 14  9  1  0  0  0  0
M  END
$$$$
