butane_opt
 OpenBabel08242015383D

 14 13  0  0  0  0  0  0  0  0999 V2000
   -3.9239    0.2375    0.0592 C   0  0  0  0  0  0  0  0  0  0  0  0
   -2.6987   -0.5564   -0.0488 C   0  0  0  0  0  0  0  0  0  0  0  0
   -4.9370   -0.4743    0.4220 H   0  0  0  0  0  0  0  0  0  0  0  0
   -4.0660    0.9866   -0.8745 H   0  0  0  0  0  0  0  0  0  0  0  0
   -3.4889    0.6850    0.8081 H   0  0  0  0  0  0  0  0  0  0  0  0
   -1.4398    0.1911   -0.0194 C   0  0  0  0  0  0  0  0  0  0  0  0
   -2.8053   -1.2837   -0.9425 H   0  0  0  0  0  0  0  0  0  0  0  0
   -2.7137   -1.0213    0.7641 H   0  0  0  0  0  0  0  0  0  0  0  0
   -0.1570   -0.7073    0.0861 C   0  0  0  0  0  0  0  0  0  0  0  0
   -1.4439    0.8857    0.7927 H   0  0  0  0  0  0  0  0  0  0  0  0
   -1.4155    0.7872   -0.8713 H   0  0  0  0  0  0  0  0  0  0  0  0
   -0.1181   -1.4364    1.1103 H   0  0  0  0  0  0  0  0  0  0  0  0
    0.6659   -0.1602    0.0100 H   0  0  0  0  0  0  0  0  0  0  0  0
   -0.0726   -1.4368   -0.7278 H   0  0  0  0  0  0  0  0  0  0  0  0
  1  3  1  0  0  0  0
  1  5  1  0  0  0  0
  2  6  1  0  0  0  0
  2  1  1  0  0  0  0
  2  8  1  0  0  0  0
  4  1  1  0  0  0  0
  6  9  1  0  0  0  0
  6 10  1  0  0  0  0
  7  2  1  0  0  0  0
  9 12  1  0  0  0  0
 11  6  1  0  0  0  0
 13  9  1  0  0  0  0
 14  9  1  0  0  0  0
M  END
$$$$
