butane_opt
 OpenBabel08242015383D

 14 12  0  0  0  0  0  0  0  0999 V2000
   -3.9699    0.2439   -0.0457 C   0  0  0  0  0  0  0  0  0  0  0  0
   -2.6893   -0.5922    0.0855 C   0  0  0  0  0  0  0  0  0  0  0  0
   -4.8312   -0.3381    0.4033 H   0  0  0  0  0  0  0  0  0  0  0  0
   -4.1853    1.2254   -1.2357 H   0  0  0  0  0  0  0  0  0  0  0  0
   -3.8853    0.5736    0.6603 H   0  0  0  0  0  0  0  0  0  0  0  0
   -1.4205    0.2053    0.0892 C   0  0  0  0  0  0  0  0  0  0  0  0
   -2.7951   -1.3995   -0.9094 H   0  0  0  0  0  0  0  0  0  0  0  0
   -2.6978   -1.1235    0.9502 H   0  0  0  0  0  0  0  0  0  0  0  0
   -0.1351   -0.7099   -0.0294 C   0  0  0  0  0  0  0  0  0  0  0  0
   -1.2710    0.8627    1.0311 H   0  0  0  0  0  0  0  0  0  0  0  0
   -1.4833    0.7356   -0.6710 H   0  0  0  0  0  0  0  0  0  0  0  0
   -0.1491   -1.2385    0.8418 H   0  0  0  0  0  0  0  0  0  0  0  0
    0.8824   -0.0015    0.0077 H   0  0  0  0  0  0  0  0  0  0  0  0
   -0.0260   -1.5001   -0.8933 H   0  0  0  0  0  0  0  0  0  0  0  0
  1  2  1  0  0  0  0
  1  3  1  0  0  0  0
  1  5  1  0  0  0  0
  2  6  1  0  0  0  0
  2  8  1  0  0  0  0
  6 10  1  0  0  0  0
  7  2  1  0  0  0  0
  9 13  1  0  0  0  0
  9  6  1  0  0  0  0
  9 12  1  0  0  0  0
 11  6  1  0  0  0  0
 14  9  1  0  0  0  0
M  RAD  2   1   2   4   2
M  END
$$$$
