butane_opt
 OpenBabel08242015383D

 14 13  0  0  0  0  0  0  0  0999 V2000
   -3.9477    0.2595    0.0102 C   0  0  0  0  0  0  0  0  0  0  0  0
   -2.7116   -0.6062    0.0390 C   0  0  0  0  0  0  0  0  0  0  0  0
   -4.8838   -0.3523    0.1334 H   0  0  0  0  0  0  0  0  0  0  0  0
   -4.0108    0.9604   -0.9166 H   0  0  0  0  0  0  0  0  0  0  0  0
   -3.9588    0.8131    0.7737 H   0  0  0  0  0  0  0  0  0  0  0  0
   -1.4071    0.1903    0.0297 C   0  0  0  0  0  0  0  0  0  0  0  0
   -2.7422   -1.2944   -0.7981 H   0  0  0  0  0  0  0  0  0  0  0  0
   -2.7166   -1.2629    0.9484 H   0  0  0  0  0  0  0  0  0  0  0  0
   -0.1376   -0.6983    0.0295 C   0  0  0  0  0  0  0  0  0  0  0  0
   -1.4151    0.8789    0.8754 H   0  0  0  0  0  0  0  0  0  0  0  0
   -1.4075    0.8574   -0.8934 H   0  0  0  0  0  0  0  0  0  0  0  0
   -0.1052   -1.2347    0.8600 H   0  0  0  0  0  0  0  0  0  0  0  0
    0.7595   -0.1144    0.0541 H   0  0  0  0  0  0  0  0  0  0  0  0
   -0.0954   -1.4729   -0.9201 H   0  0  0  0  0  0  0  0  0  0  0  0
  1  2  1  0  0  0  0
  1  3  1  0  0  0  0
  1  5  1  0  0  0  0
  2  8  1  0  0  0  0
  4  1  1  0  0  0  0
  6  2  1  0  0  0  0
  6 10  1  0  0  0  0
  7  2  1  0  0  0  0
  9  6  1  0  0  0  0
  9 13  1  0  0  0  0
  9 12  1  0  0  0  0
 11  6  1  0  0  0  0
 14  9  1  0  0  0  0
M  END
$$$$
