14
butane_opt
C  -3.960483   0.293506   0.050878
C  -2.703453  -0.682087   0.054596
H  -4.887530  -0.290067  -0.395634
H  -3.903537   0.556134  -0.659199
H  -4.218491   1.375006   1.121446
C  -1.398261   0.168831  -0.054636
H  -2.708893  -1.266625  -0.809184
H  -2.509597  -1.374681   0.921511
C  -0.160813  -0.665006   0.049547
H  -1.331563   0.914133   0.765662
H  -1.359483   0.925055  -0.997980
H  -0.294161  -1.398830   1.122734
H   0.777169  -0.050304  -0.013172
H   0.083658  -1.274984  -0.790218
