14
butane_opt
C  -3.926140   0.251215  -0.003228
C  -2.699291  -0.602944   0.069846
H  -4.840576  -0.335026  -0.073182
H  -3.890571   0.842795  -0.916663
H  -4.009247   0.991719   0.893396
C  -1.413310   0.193904   0.033080
H  -2.683564  -1.257306  -0.751127
H  -2.785190  -1.265255   1.015601
C  -0.167890  -0.707158   0.009393
H  -1.360651   0.851772   0.870696
H  -1.391964   0.850102  -0.881667
H  -0.128207  -1.257821   0.861861
H   0.725876  -0.111055  -0.002981
H  -0.168645  -1.408768  -0.883243
