14
butane_opt
C  -3.911775   0.225348  -0.011079
C  -2.678075  -0.606287   0.040235
H  -4.834915  -0.347612   0.468077
H  -4.122270   1.128139  -1.119429
H  -3.781443   0.657252   0.667005
C  -1.448131   0.252718   0.084616
H  -2.681503  -1.268115  -0.873769
H  -2.792518  -1.184946   0.958836
C  -0.149182  -0.731211  -0.002602
H  -1.428747   0.778038   0.782368
H  -1.442335   0.878124  -0.853890
H  -0.251112  -1.091619   0.809192
H   0.721940  -0.165957   0.236440
H  -0.126528  -1.557498  -1.002606
