butane_opt
 OpenBabel08242015383D

 14 13  0  0  0  0  0  0  0  0999 V2000
   -3.8991    0.2659    0.0576 C   0  0  0  0  0  0  0  0  0  0  0  0
   -2.7136   -0.6172   -0.0473 C   0  0  0  0  0  0  0  0  0  0  0  0
   -4.7818   -0.3247    0.3118 H   0  0  0  0  0  0  0  0  0  0  0  0
   -4.0405    0.8783   -0.8667 H   0  0  0  0  0  0  0  0  0  0  0  0
   -3.6393    0.8927    1.0512 H   0  0  0  0  0  0  0  0  0  0  0  0
   -1.4163    0.1998   -0.0512 C   0  0  0  0  0  0  0  0  0  0  0  0
   -2.8455   -1.3150   -0.8828 H   0  0  0  0  0  0  0  0  0  0  0  0
   -2.6787   -1.2872    0.9161 H   0  0  0  0  0  0  0  0  0  0  0  0
   -0.1826   -0.7090    0.0839 C   0  0  0  0  0  0  0  0  0  0  0  0
   -1.4595    0.9149    0.7997 H   0  0  0  0  0  0  0  0  0  0  0  0
   -1.4483    0.8797   -0.9151 H   0  0  0  0  0  0  0  0  0  0  0  0
   -0.2275   -1.3216    0.9708 H   0  0  0  0  0  0  0  0  0  0  0  0
    0.6819   -0.1559    0.2576 H   0  0  0  0  0  0  0  0  0  0  0  0
   -0.0523   -1.2957   -0.7184 H   0  0  0  0  0  0  0  0  0  0  0  0
  1  3  1  0  0  0  0
  1  5  1  0  0  0  0
  2  1  1  0  0  0  0
  2  8  1  0  0  0  0
  4  1  1  0  0  0  0
  6  2  1  0  0  0  0
  6  9  1  0  0  0  0
  6 10  1  0  0  0  0
  7  2  1  0  0  0  0
  9 13  1  0  0  0  0
  9 12  1  0  0  0  0
 11  6  1  0  0  0  0
 14  9  1  0  0  0  0
M  END
$$$$
