14
butane_opt
C  -3.947364   0.236885  -0.065929
C  -2.732853  -0.609271   0.186896
H  -4.772596  -0.326082  -0.554730
H  -3.743001   0.800718  -0.927231
H  -4.272514   0.993945   0.729116
C  -1.399789   0.267420   0.086847
H  -2.694424  -1.100904  -0.535344
H  -2.865360  -1.445142   1.246623
C  -0.111005  -0.747369  -0.087247
H  -1.251359   1.032157   1.002957
H  -1.456156   0.607545  -0.672867
H  -0.110048  -1.203967   0.763030
H   0.687671  -0.190255  -0.079532
H  -0.215529  -1.431862  -0.991526
