butane_opt
 OpenBabel08242015383D

 14 13  0  0  0  0  0  0  0  0999 V2000
   -3.9308    0.2435    0.1385 C   0  0  0  0  0  0  0  0  0  0  0  0
   -2.6753   -0.6220   -0.0658 C   0  0  0  0  0  0  0  0  0  0  0  0
   -4.7559   -0.2189    0.1889 H   0  0  0  0  0  0  0  0  0  0  0  0
   -4.0939    0.8331   -0.7598 H   0  0  0  0  0  0  0  0  0  0  0  0
   -3.8202    1.0564    1.0553 H   0  0  0  0  0  0  0  0  0  0  0  0
   -1.4100    0.1799   -0.1502 C   0  0  0  0  0  0  0  0  0  0  0  0
   -2.8344   -1.2652   -0.9455 H   0  0  0  0  0  0  0  0  0  0  0  0
   -2.6138   -1.2526    0.7751 H   0  0  0  0  0  0  0  0  0  0  0  0
   -0.1774   -0.6773    0.1297 C   0  0  0  0  0  0  0  0  0  0  0  0
   -1.4385    0.7968    0.7148 H   0  0  0  0  0  0  0  0  0  0  0  0
   -1.5638    0.8865   -1.0777 H   0  0  0  0  0  0  0  0  0  0  0  0
   -0.4695   -1.2905    1.0602 H   0  0  0  0  0  0  0  0  0  0  0  0
    0.7286   -0.0530    0.5611 H   0  0  0  0  0  0  0  0  0  0  0  0
    0.1429   -1.4484   -0.7429 H   0  0  0  0  0  0  0  0  0  0  0  0
  1  3  1  0  0  0  0
  1  5  1  0  0  0  0
  2  1  1  0  0  0  0
  2  8  1  0  0  0  0
  4  1  1  0  0  0  0
  6  2  1  0  0  0  0
  6  9  1  0  0  0  0
  6 10  1  0  0  0  0
  7  2  1  0  0  0  0
  9 13  1  0  0  0  0
  9 12  1  0  0  0  0
 11  6  1  0  0  0  0
 14  9  1  0  0  0  0
M  END
$$$$
