14
butane_opt
C  -3.989218   0.291639  -0.007511
C  -2.675987  -0.687802   0.036900
H  -4.826312  -0.227586   0.249897
H  -4.076127   1.095190  -1.027411
H  -4.074604   0.888508   0.793665
C  -1.384653   0.165750   0.040080
H  -2.600950  -1.285412  -0.762425
H  -2.593052  -1.355206   0.985518
C  -0.161776  -0.638280   0.005757
H  -1.185435   0.973649   1.066768
H  -1.416006   0.741690  -0.808493
H  -0.298283  -1.372843   0.873098
H   0.739299  -0.084139   0.057108
H  -0.150307  -1.413440  -0.894472
