14
butane_opt
C  -3.937986   0.289959   0.063889
C  -2.675436  -0.652526  -0.077257
H  -4.807377  -0.285495   0.417669
H  -4.176265   0.942042  -0.781650
H  -3.704141   1.057545   0.985092
C  -1.382148   0.146203  -0.044721
H  -2.609868  -1.408563  -0.952933
H  -2.600783  -1.307556   0.846598
C  -0.229533  -0.680206   0.116793
H  -1.312813   0.899875   0.786651
H  -1.417690   0.857401  -0.928095
H  -0.185943  -1.343618   1.008956
H   0.702763   0.000113   0.027172
H  -0.213534  -1.115609  -0.635751
