14
butane_opt
C  -3.937523   0.316372   0.094366
C  -2.669212  -0.635457  -0.040637
H  -4.906809  -0.420472   0.245001
H  -4.225694   0.796289  -0.736236
H  -3.803642   1.068126   1.039168
C  -1.364275   0.130559  -0.093238
H  -2.748976  -1.462958  -1.000074
H  -2.536735  -1.203369   0.787072
C  -0.212908  -0.664693   0.127155
H  -1.450028   0.628586   0.539247
H  -1.360781   0.966116  -1.106853
H  -0.366898  -1.219905   0.965200
H   0.769522   0.054015   0.414313
H  -0.178047  -1.435936  -0.742950
