butane_opt
 OpenBabel08242015383D

 14 13  0  0  0  0  0  0  0  0999 V2000
   -3.9641    0.2276   -0.0988 C   0  0  0  0  0  0  0  0  0  0  0  0
   -2.7055   -0.5823    0.2089 C   0  0  0  0  0  0  0  0  0  0  0  0
   -4.9053   -0.2733   -0.4362 H   0  0  0  0  0  0  0  0  0  0  0  0
   -3.7787    0.5245   -0.8879 H   0  0  0  0  0  0  0  0  0  0  0  0
   -4.2632    1.1032    0.8233 H   0  0  0  0  0  0  0  0  0  0  0  0
   -1.4084    0.2401    0.0849 C   0  0  0  0  0  0  0  0  0  0  0  0
   -2.6068   -1.1940   -0.5072 H   0  0  0  0  0  0  0  0  0  0  0  0
   -2.8275   -1.3920    1.2287 H   0  0  0  0  0  0  0  0  0  0  0  0
   -0.1495   -0.7210   -0.0868 C   0  0  0  0  0  0  0  0  0  0  0  0
   -1.2591    1.0179    1.0277 H   0  0  0  0  0  0  0  0  0  0  0  0
   -1.3704    0.7429   -0.7407 H   0  0  0  0  0  0  0  0  0  0  0  0
   -0.0022   -1.3200    0.7866 H   0  0  0  0  0  0  0  0  0  0  0  0
    0.6951   -0.1869   -0.1336 H   0  0  0  0  0  0  0  0  0  0  0  0
    0.0344   -1.4864   -1.0124 H   0  0  0  0  0  0  0  0  0  0  0  0
  1  2  1  0  0  0  0
  1  5  1  0  0  0  0
  2  8  1  0  0  0  0
  3  1  1  0  0  0  0
  4  1  1  0  0  0  0
  6  2  1  0  0  0  0
  6 10  1  0  0  0  0
  7  2  1  0  0  0  0
  9  6  1  0  0  0  0
  9 12  1  0  0  0  0
 11  6  1  0  0  0  0
 13  9  1  0  0  0  0
 14  9  1  0  0  0  0
M  END
$$$$
