14
butane_opt
C  -3.957761   0.276627  -0.012046
C  -2.705433  -0.634941   0.052501
H  -4.840107  -0.296952   0.029081
H  -3.990360   0.960502  -0.931251
H  -3.989362   0.910525   0.822916
C  -1.392422   0.171603   0.058168
H  -2.681998  -1.276397  -0.770027
H  -2.753849  -1.294759   0.973460
C  -0.153208  -0.679321   0.000478
H  -1.306000   0.912381   0.932809
H  -1.409606   0.784897  -0.801559
H  -0.048317  -1.361599   0.944987
H   0.726192  -0.090168  -0.088975
H  -0.229382  -1.328422  -0.856453
