butane_opt
 OpenBabel08242015383D

 14 12  0  0  0  0  0  0  0  0999 V2000
   -3.8918    0.2371   -0.0577 C   0  0  0  0  0  0  0  0  0  0  0  0
   -2.7096   -0.5663    0.1138 C   0  0  0  0  0  0  0  0  0  0  0  0
   -4.8712   -0.4452    0.3065 H   0  0  0  0  0  0  0  0  0  0  0  0
   -3.8690    1.1228   -1.1183 H   0  0  0  0  0  0  0  0  0  0  0  0
   -3.8684    0.6126    0.6255 H   0  0  0  0  0  0  0  0  0  0  0  0
   -1.4371    0.2263    0.0598 C   0  0  0  0  0  0  0  0  0  0  0  0
   -2.7627   -1.1229   -0.6303 H   0  0  0  0  0  0  0  0  0  0  0  0
   -2.8503   -1.4003    1.1056 H   0  0  0  0  0  0  0  0  0  0  0  0
   -0.1811   -0.7271   -0.0183 C   0  0  0  0  0  0  0  0  0  0  0  0
   -1.3647    0.9491    0.9324 H   0  0  0  0  0  0  0  0  0  0  0  0
   -1.4941    0.6645   -0.6901 H   0  0  0  0  0  0  0  0  0  0  0  0
   -0.0705   -0.9367    0.6244 H   0  0  0  0  0  0  0  0  0  0  0  0
    0.6852   -0.1581    0.2892 H   0  0  0  0  0  0  0  0  0  0  0  0
    0.0676   -1.8012   -1.2393 H   0  0  0  0  0  0  0  0  0  0  0  0
  1  2  1  0  0  0  0
  1  3  1  0  0  0  0
  1  5  1  0  0  0  0
  2  8  1  0  0  0  0
  4  1  1  0  0  0  0
  6  2  1  0  0  0  0
  6 10  1  0  0  0  0
  7  2  1  0  0  0  0
  9  6  1  0  0  0  0
  9 13  1  0  0  0  0
  9 12  1  0  0  0  0
 11  6  1  0  0  0  0
M  RAD  2   9   2  14   2
M  END
$$$$
