14
butane_opt
C  -3.945704   0.232565  -0.067671
C  -2.723461  -0.566353   0.182053
H  -4.962926  -0.408388  -0.499285
H  -3.695419   0.712999  -0.969466
H  -4.189307   0.963797   0.833284
C  -1.439471   0.220385   0.104782
H  -2.575957  -1.139523  -0.556750
H  -2.936014  -1.368077   1.175565
C  -0.106095  -0.723968  -0.069833
H  -1.365777   0.875392   0.928905
H  -1.414506   0.868730  -0.844609
H   0.132320  -1.194465   0.762558
H   0.767766  -0.122431  -0.090516
H  -0.200260  -1.633283  -1.097273
