14
butane_opt
C  -4.020568   0.292864   0.088738
C  -2.696384  -0.656122  -0.070305
H  -4.877808  -0.216624   0.191722
H  -4.151318   0.738901  -0.659212
H  -3.759840   1.109710   1.011624
C  -1.364282   0.160024  -0.070574
H  -2.680178  -1.256449  -0.873730
H  -2.499801  -1.315740   0.933809
C  -0.153845  -0.664274   0.113691
H  -1.424405   0.678386   0.635010
H  -1.276946   0.871410  -1.018135
H  -0.413396  -1.251478   1.029051
H   0.810815  -0.031485   0.208319
H   0.053130  -1.387310  -0.767541
