butane_opt
 OpenBabel08242015383D

 14 13  0  0  0  0  0  0  0  0999 V2000
   -3.9718    0.2257    0.0875 C   0  0  0  0  0  0  0  0  0  0  0  0
   -2.7102   -0.5833   -0.0347 C   0  0  0  0  0  0  0  0  0  0  0  0
   -4.9131   -0.3806   -0.0584 H   0  0  0  0  0  0  0  0  0  0  0  0
   -3.9500    0.6163   -0.5515 H   0  0  0  0  0  0  0  0  0  0  0  0
   -3.8937    1.1168    1.1194 H   0  0  0  0  0  0  0  0  0  0  0  0
   -1.4100    0.2389   -0.0648 C   0  0  0  0  0  0  0  0  0  0  0  0
   -2.8398   -1.4780   -1.0968 H   0  0  0  0  0  0  0  0  0  0  0  0
   -2.8672   -1.0483    0.7316 H   0  0  0  0  0  0  0  0  0  0  0  0
   -0.1071   -0.7475    0.1282 C   0  0  0  0  0  0  0  0  0  0  0  0
   -1.5202    0.8374    0.6814 H   0  0  0  0  0  0  0  0  0  0  0  0
   -1.4148    1.1117   -1.0634 H   0  0  0  0  0  0  0  0  0  0  0  0
    0.0012   -1.5593    1.1411 H   0  0  0  0  0  0  0  0  0  0  0  0
    0.8241   -0.1716   -0.3040 H   0  0  0  0  0  0  0  0  0  0  0  0
   -0.0539   -1.1320   -0.5050 H   0  0  0  0  0  0  0  0  0  0  0  0
  1  5  1  0  0  0  0
  2  1  1  0  0  0  0
  2  8  1  0  0  0  0
  3  1  1  0  0  0  0
  4  1  1  0  0  0  0
  6  2  1  0  0  0  0
  6  9  1  0  0  0  0
  6 10  1  0  0  0  0
  7  2  1  0  0  0  0
  9 12  1  0  0  0  0
 11  6  1  0  0  0  0
 13  9  1  0  0  0  0
 14  9  1  0  0  0  0
M  END
$$$$
