butane_opt
 OpenBabel08242015383D

 14 13  0  0  0  0  0  0  0  0999 V2000
   -3.9671    0.2793    0.0516 C   0  0  0  0  0  0  0  0  0  0  0  0
   -2.6885   -0.6386    0.0358 C   0  0  0  0  0  0  0  0  0  0  0  0
   -4.8190   -0.2634   -0.3616 H   0  0  0  0  0  0  0  0  0  0  0  0
   -4.0064    0.6391   -0.6631 H   0  0  0  0  0  0  0  0  0  0  0  0
   -4.2883    1.1992    1.0349 H   0  0  0  0  0  0  0  0  0  0  0  0
   -1.3968    0.1531   -0.0497 C   0  0  0  0  0  0  0  0  0  0  0  0
   -2.7324   -1.1653   -0.6749 H   0  0  0  0  0  0  0  0  0  0  0  0
   -2.8345   -1.3841    1.0351 H   0  0  0  0  0  0  0  0  0  0  0  0
   -0.1230   -0.6776    0.0433 C   0  0  0  0  0  0  0  0  0  0  0  0
   -1.4162    0.8801    0.8558 H   0  0  0  0  0  0  0  0  0  0  0  0
   -1.3025    0.8300   -1.0455 H   0  0  0  0  0  0  0  0  0  0  0  0
   -0.1071   -1.2487    0.9657 H   0  0  0  0  0  0  0  0  0  0  0  0
    0.7670    0.0074    0.1229 H   0  0  0  0  0  0  0  0  0  0  0  0
   -0.1798   -1.3730   -0.7766 H   0  0  0  0  0  0  0  0  0  0  0  0
  1  5  1  0  0  0  0
  2  1  1  0  0  0  0
  2  8  1  0  0  0  0
  3  1  1  0  0  0  0
  4  1  1  0  0  0  0
  6  2  1  0  0  0  0
  6  9  1  0  0  0  0
  6 10  1  0  0  0  0
  7  2  1  0  0  0  0
  9 13  1  0  0  0  0
  9 12  1  0  0  0  0
 11  6  1  0  0  0  0
 14  9  1  0  0  0  0
M  END
$$$$
