butane_opt
 OpenBabel08242015383D

 14 13  0  0  0  0  0  0  0  0999 V2000
   -3.9637    0.2872    0.0729 C   0  0  0  0  0  0  0  0  0  0  0  0
   -2.7139   -0.6551    0.0033 C   0  0  0  0  0  0  0  0  0  0  0  0
   -4.8119   -0.2002    0.3681 H   0  0  0  0  0  0  0  0  0  0  0  0
   -4.0927    1.0297   -0.9724 H   0  0  0  0  0  0  0  0  0  0  0  0
   -3.8925    0.9937    0.9606 H   0  0  0  0  0  0  0  0  0  0  0  0
   -1.3622    0.1507   -0.0693 C   0  0  0  0  0  0  0  0  0  0  0  0
   -2.7849   -1.4756   -0.9524 H   0  0  0  0  0  0  0  0  0  0  0  0
   -2.7120   -1.1776    0.7753 H   0  0  0  0  0  0  0  0  0  0  0  0
   -0.1597   -0.6549    0.0852 C   0  0  0  0  0  0  0  0  0  0  0  0
   -1.4795    0.8223    0.6602 H   0  0  0  0  0  0  0  0  0  0  0  0
   -1.3068    0.8056   -1.0072 H   0  0  0  0  0  0  0  0  0  0  0  0
   -0.3428   -1.1992    0.9491 H   0  0  0  0  0  0  0  0  0  0  0  0
    0.7492   -0.0767    0.3736 H   0  0  0  0  0  0  0  0  0  0  0  0
    0.0255   -1.5086   -0.8240 H   0  0  0  0  0  0  0  0  0  0  0  0
  1  3  1  0  0  0  0
  1  5  1  0  0  0  0
  2  1  1  0  0  0  0
  2  8  1  0  0  0  0
  4  1  1  0  0  0  0
  6  2  1  0  0  0  0
  6  9  1  0  0  0  0
  6 10  1  0  0  0  0
  7  2  1  0  0  0  0
  9 13  1  0  0  0  0
  9 12  1  0  0  0  0
 11  6  1  0  0  0  0
 14  9  1  0  0  0  0
M  END
$$$$
