14
butane_opt
C  -3.924845   0.226240   0.056617
C  -2.710867  -0.542154  -0.033537
H  -4.973442  -0.494914  -0.056838
H  -3.894935   0.658564  -0.721797
H  -3.821212   1.063580   1.096288
C  -1.389851   0.197849   0.015883
H  -2.677317  -1.325166  -0.999714
H  -2.804527  -0.996926   0.802176
C  -0.195999  -0.726187   0.057945
H  -1.514479   0.817401   0.829162
H  -1.343920   0.999307  -0.954754
H   0.130718  -1.887432   1.249499
H   0.776212  -0.189768  -0.315769
H  -0.230714  -0.999511  -0.575855
