butane_opt
 OpenBabel08242015383D

 14 13  0  0  0  0  0  0  0  0999 V2000
   -3.9628    0.2484    0.1118 C   0  0  0  0  0  0  0  0  0  0  0  0
   -2.7006   -0.6119   -0.0073 C   0  0  0  0  0  0  0  0  0  0  0  0
   -4.8823   -0.3608    0.0650 H   0  0  0  0  0  0  0  0  0  0  0  0
   -4.0943    0.7551   -0.6830 H   0  0  0  0  0  0  0  0  0  0  0  0
   -3.8104    0.9502    1.0686 H   0  0  0  0  0  0  0  0  0  0  0  0
   -1.3868    0.2405   -0.1359 C   0  0  0  0  0  0  0  0  0  0  0  0
   -2.8257   -1.4990   -1.0449 H   0  0  0  0  0  0  0  0  0  0  0  0
   -2.5891   -1.1892    0.8422 H   0  0  0  0  0  0  0  0  0  0  0  0
   -0.1488   -0.7204    0.1321 C   0  0  0  0  0  0  0  0  0  0  0  0
   -1.5363    0.8173    0.5200 H   0  0  0  0  0  0  0  0  0  0  0  0
   -1.3073    1.0712   -1.1681 H   0  0  0  0  0  0  0  0  0  0  0  0
   -0.3485   -1.1489    0.9475 H   0  0  0  0  0  0  0  0  0  0  0  0
    0.6254   -0.2472    0.5269 H   0  0  0  0  0  0  0  0  0  0  0  0
    0.1625   -1.5358   -0.8603 H   0  0  0  0  0  0  0  0  0  0  0  0
  1  5  1  0  0  0  0
  2  1  1  0  0  0  0
  2  8  1  0  0  0  0
  3  1  1  0  0  0  0
  4  1  1  0  0  0  0
  6  2  1  0  0  0  0
  6  9  1  0  0  0  0
  6 10  1  0  0  0  0
  7  2  1  0  0  0  0
  9 13  1  0  0  0  0
  9 12  1  0  0  0  0
 11  6  1  0  0  0  0
 14  9  1  0  0  0  0
M  END
$$$$
