14
butane_opt
C  -3.956364   0.282343   0.094820
C  -2.683706  -0.654457  -0.083594
H  -4.826430  -0.293834   0.504506
H  -4.313298   1.132584  -1.030150
H  -3.712569   0.718848   0.844018
C  -1.407393   0.213816  -0.040676
H  -2.759724  -1.317379  -0.940406
H  -2.677530  -1.286731   0.794407
C  -0.167307  -0.694960   0.099093
H  -1.536177   0.855694   0.834358
H  -1.196174   0.641317  -0.845393
H  -0.185829  -1.300316   0.990165
H   0.810485  -0.026387   0.149119
H  -0.060582  -1.312471  -0.734670
