14
butane_opt
C  -3.965453   0.238185   0.028398
C  -2.684649  -0.616542   0.016322
H  -4.906610  -0.358031   0.019810
H  -3.858509   0.729218  -0.858695
H  -3.946132   1.127554   1.053024
C  -1.408770   0.237699   0.011420
H  -2.653622  -1.285191  -0.757465
H  -2.774840  -1.172354   0.916986
C  -0.162073  -0.725271   0.039432
H  -1.409147   0.697041   0.668758
H  -1.304684   0.985396  -0.927883
H  -0.079122  -1.312804   0.972757
H   0.659636  -0.139243   0.027225
H  -0.080504  -1.370517  -0.795214
