14
butane_opt
C  -4.035603   0.288857   0.072740
C  -2.682277  -0.639719   0.039432
H  -4.835186  -0.292371  -0.342468
H  -3.791398   0.578809  -0.669120
H  -4.187790   1.243518   1.111367
C  -1.355588   0.169589  -0.088008
H  -2.707244  -1.447621  -0.944854
H  -2.653031  -1.268167   0.969910
C  -0.140988  -0.673568   0.089364
H  -1.439938   0.829933   0.742852
H  -1.345753   0.846712  -0.994603
H  -0.085493  -1.428782   1.005835
H   0.781771  -0.062126   0.003885
H  -0.197545  -1.201558  -0.750020
