14
butane_opt
C  -3.981987   0.300514   0.061563
C  -2.678195  -0.678845   0.020246
H  -4.832079  -0.249333  -0.276507
H  -4.015637   0.626407  -0.648425
H  -4.116895   1.222786   1.130596
C  -1.380628   0.178886  -0.066750
H  -2.756433  -1.251057  -0.851240
H  -2.756677  -1.303388   0.902147
C  -0.129157  -0.677188   0.074381
H  -1.267915   0.802678   0.772372
H  -1.479740   0.771686  -0.954843
H  -0.390361  -1.341484   0.993086
H   0.722313  -0.097492  -0.014143
H  -0.077349  -1.135634  -0.644568
