butane_opt
 OpenBabel08242015383D

 14 13  0  0  0  0  0  0  0  0999 V2000
   -3.9892    0.2916   -0.0075 C   0  0  0  0  0  0  0  0  0  0  0  0
   -2.6760   -0.6878    0.0369 C   0  0  0  0  0  0  0  0  0  0  0  0
   -4.8263   -0.2276    0.2499 H   0  0  0  0  0  0  0  0  0  0  0  0
   -4.0761    1.0952   -1.0274 H   0  0  0  0  0  0  0  0  0  0  0  0
   -4.0746    0.8885    0.7937 H   0  0  0  0  0  0  0  0  0  0  0  0
   -1.3847    0.1658    0.0401 C   0  0  0  0  0  0  0  0  0  0  0  0
   -2.6010   -1.2854   -0.7624 H   0  0  0  0  0  0  0  0  0  0  0  0
   -2.5931   -1.3552    0.9855 H   0  0  0  0  0  0  0  0  0  0  0  0
   -0.1618   -0.6383    0.0058 C   0  0  0  0  0  0  0  0  0  0  0  0
   -1.1854    0.9736    1.0668 H   0  0  0  0  0  0  0  0  0  0  0  0
   -1.4160    0.7417   -0.8085 H   0  0  0  0  0  0  0  0  0  0  0  0
   -0.2983   -1.3728    0.8731 H   0  0  0  0  0  0  0  0  0  0  0  0
    0.7393   -0.0841    0.0571 H   0  0  0  0  0  0  0  0  0  0  0  0
   -0.1503   -1.4134   -0.8945 H   0  0  0  0  0  0  0  0  0  0  0  0
  1  2  1  0  0  0  0
  1  3  1  0  0  0  0
  1  5  1  0  0  0  0
  2  6  1  0  0  0  0
  2  8  1  0  0  0  0
  4  1  1  0  0  0  0
  6 10  1  0  0  0  0
  7  2  1  0  0  0  0
  9  6  1  0  0  0  0
  9 13  1  0  0  0  0
  9 12  1  0  0  0  0
 11  6  1  0  0  0  0
 14  9  1  0  0  0  0
M  END
$$$$
