14
butane_opt
C  -3.957985   0.257826   0.070444
C  -2.738652  -0.579473  -0.029967
H  -4.873161  -0.371719  -0.061774
H  -4.024255   0.722005  -0.724656
H  -3.712082   1.081447   1.075717
C  -1.389067   0.182947  -0.043965
H  -2.869179  -1.454327  -0.995570
H  -2.647331  -1.191157   0.780078
C  -0.129833  -0.717838   0.089397
H  -1.406321   0.907937   0.848733
H  -1.459042   0.865979  -0.931774
H  -0.109617  -1.621357   1.236552
H   0.777705  -0.155276  -0.206385
H  -0.122974  -0.964667  -0.578463
