butane_opt
 OpenBabel08242015383D

 14 13  0  0  0  0  0  0  0  0999 V2000
   -3.8969    0.2232    0.0065 C   0  0  0  0  0  0  0  0  0  0  0  0
   -2.6760   -0.5701    0.0193 C   0  0  0  0  0  0  0  0  0  0  0  0
   -4.7850   -0.4092    0.4776 H   0  0  0  0  0  0  0  0  0  0  0  0
   -4.0749    1.1841   -1.1517 H   0  0  0  0  0  0  0  0  0  0  0  0
   -3.8056    0.6154    0.6348 H   0  0  0  0  0  0  0  0  0  0  0  0
   -1.4261    0.2105    0.0604 C   0  0  0  0  0  0  0  0  0  0  0  0
   -2.7185   -1.3163   -0.9500 H   0  0  0  0  0  0  0  0  0  0  0  0
   -2.7977   -1.2131    0.9885 H   0  0  0  0  0  0  0  0  0  0  0  0
   -0.1974   -0.7164    0.0225 C   0  0  0  0  0  0  0  0  0  0  0  0
   -1.4819    0.8417    0.9273 H   0  0  0  0  0  0  0  0  0  0  0  0
   -1.6171    0.9085   -0.8057 H   0  0  0  0  0  0  0  0  0  0  0  0
   -0.0662   -1.1752    0.7705 H   0  0  0  0  0  0  0  0  0  0  0  0
    0.8022   -0.0871    0.1433 H   0  0  0  0  0  0  0  0  0  0  0  0
   -0.1171   -1.5671   -0.9304 H   0  0  0  0  0  0  0  0  0  0  0  0
  1  2  1  0  0  0  0
  1  3  1  0  0  0  0
  1  5  1  0  0  0  0
  2  6  1  0  0  0  0
  2  8  1  0  0  0  0
  4  1  1  0  0  0  0
  6 10  1  0  0  0  0
  7  2  1  0  0  0  0
  9  6  1  0  0  0  0
  9 13  1  0  0  0  0
  9 12  1  0  0  0  0
 11  6  1  0  0  0  0
 14  9  1  0  0  0  0
M  END
$$$$
