butane_opt
 OpenBabel08242015383D

 14 13  0  0  0  0  0  0  0  0999 V2000
   -3.9647    0.3148   -0.0271 C   0  0  0  0  0  0  0  0  0  0  0  0
   -2.6788   -0.6896    0.0462 C   0  0  0  0  0  0  0  0  0  0  0  0
   -4.8449   -0.2634    0.0554 H   0  0  0  0  0  0  0  0  0  0  0  0
   -3.9755    0.8898   -0.9906 H   0  0  0  0  0  0  0  0  0  0  0  0
   -4.0839    0.9860    0.8903 H   0  0  0  0  0  0  0  0  0  0  0  0
   -1.3970    0.1763    0.0732 C   0  0  0  0  0  0  0  0  0  0  0  0
   -2.6579   -1.3043   -0.7493 H   0  0  0  0  0  0  0  0  0  0  0  0
   -2.5899   -1.4753    1.1520 H   0  0  0  0  0  0  0  0  0  0  0  0
   -0.1963   -0.6551   -0.0111 C   0  0  0  0  0  0  0  0  0  0  0  0
   -1.3217    0.8555    0.9573 H   0  0  0  0  0  0  0  0  0  0  0  0
   -1.3217    0.7775   -0.8053 H   0  0  0  0  0  0  0  0  0  0  0  0
   -0.0209   -1.2969    0.8855 H   0  0  0  0  0  0  0  0  0  0  0  0
    0.7928    0.0089   -0.0769 H   0  0  0  0  0  0  0  0  0  0  0  0
   -0.1829   -1.3752   -0.8595 H   0  0  0  0  0  0  0  0  0  0  0  0
  1  2  1  0  0  0  0
  1  3  1  0  0  0  0
  1  5  1  0  0  0  0
  2  6  1  0  0  0  0
  2  8  1  0  0  0  0
  4  1  1  0  0  0  0
  6 10  1  0  0  0  0
  7  2  1  0  0  0  0
  9  6  1  0  0  0  0
  9 12  1  0  0  0  0
 11  6  1  0  0  0  0
 13  9  1  0  0  0  0
 14  9  1  0  0  0  0
M  END
$$$$
