14
butane_opt
C  -3.945200   0.260701  -0.077859
C  -2.667518  -0.583237   0.169318
H  -4.855106  -0.300023  -0.331262
H  -3.763716   0.742081  -0.879692
H  -4.165904   1.016637   0.829702
C  -1.418165   0.137267   0.106001
H  -2.552832  -1.178890  -0.653186
H  -2.588919  -1.424526   1.174507
C  -0.185245  -0.665158  -0.061892
H  -1.339140   0.713827   0.915451
H  -1.392647   0.902037  -0.934118
H  -0.139224  -1.135019   0.717633
H   0.793442  -0.100164   0.137078
H  -0.415369  -1.513217  -1.158077
