14
butane_opt
C  -3.959374   0.231109  -0.067850
C  -2.720054  -0.585505   0.143664
H  -5.018259  -0.430120   0.001620
H  -3.973897   0.894826  -1.012279
H  -4.005927   0.744588   0.738066
C  -1.420437   0.245750   0.052118
H  -2.731400  -1.022056  -0.512279
H  -2.659081  -1.443659   1.194372
C  -0.106554  -0.748828  -0.040559
H  -1.325315   1.074136   0.940958
H  -1.392299   0.833238  -0.827879
H  -0.109709  -0.933601   0.537250
H   0.713921  -0.189383   0.447294
H   0.001362  -1.764876  -1.171843
