butane_opt
 OpenBabel08242015383D

 14 13  0  0  0  0  0  0  0  0999 V2000
   -3.9151    0.2238   -0.0700 C   0  0  0  0  0  0  0  0  0  0  0  0
   -2.7128   -0.5762    0.1225 C   0  0  0  0  0  0  0  0  0  0  0  0
   -4.9200   -0.4493    0.1492 H   0  0  0  0  0  0  0  0  0  0  0  0
   -3.8410    1.0161   -1.1196 H   0  0  0  0  0  0  0  0  0  0  0  0
   -3.9656    0.7887    0.6792 H   0  0  0  0  0  0  0  0  0  0  0  0
   -1.4293    0.2395    0.0912 C   0  0  0  0  0  0  0  0  0  0  0  0
   -2.6911   -1.0419   -0.5472 H   0  0  0  0  0  0  0  0  0  0  0  0
   -2.6681   -1.4796    1.1046 H   0  0  0  0  0  0  0  0  0  0  0  0
   -0.1700   -0.7201   -0.0547 C   0  0  0  0  0  0  0  0  0  0  0  0
   -1.4483    0.9662    0.9665 H   0  0  0  0  0  0  0  0  0  0  0  0
   -1.4250    0.6582   -0.6436 H   0  0  0  0  0  0  0  0  0  0  0  0
    0.0392   -1.1214    0.6200 H   0  0  0  0  0  0  0  0  0  0  0  0
    0.6048   -0.1545    0.2047 H   0  0  0  0  0  0  0  0  0  0  0  0
    0.0258   -1.6675   -1.0847 H   0  0  0  0  0  0  0  0  0  0  0  0
  1  2  1  0  0  0  0
  1  3  1  0  0  0  0
  1  5  1  0  0  0  0
  2  8  1  0  0  0  0
  4  1  1  0  0  0  0
  6  2  1  0  0  0  0
  6 10  1  0  0  0  0
  7  2  1  0  0  0  0
  9  6  1  0  0  0  0
  9 13  1  0  0  0  0
  9 12  1  0  0  0  0
 11  6  1  0  0  0  0
 14  9  1  0  0  0  0
M  END
$$$$
