14
butane_opt
C  -3.893586   0.223172  -0.079499
C  -2.689117  -0.553976   0.139777
H  -4.922872  -0.499302  -0.125484
H  -3.867780   0.770817  -0.963932
H  -4.082754   1.017512   0.925807
C  -1.419125   0.192035   0.077543
H  -2.522438  -1.034364  -0.547013
H  -2.962047  -1.344305   1.188043
C  -0.168257  -0.720303  -0.058460
H  -1.486053   0.920552   1.050088
H  -1.612714   0.828600  -0.801105
H  -0.123143  -1.194714   0.732236
H   0.770341  -0.110568   0.041329
H  -0.144623  -1.535087  -1.004413
