14
butane_opt
C  -3.942363   0.280760   0.055177
C  -2.678642  -0.662428   0.009519
H  -4.788631  -0.268206  -0.231396
H  -3.805785   0.788302  -0.813062
H  -4.036293   1.209722   1.034079
C  -1.413112   0.178390  -0.016866
H  -2.567514  -1.291559  -0.773338
H  -2.623592  -1.319488   0.927381
C  -0.200070  -0.672013   0.059387
H  -1.366925   0.845128   0.858126
H  -1.347825   0.659858  -0.896158
H  -0.177819  -1.434702   1.026393
H   0.670313   0.008371  -0.267588
H  -0.185674  -1.145762  -0.684547
