14
butane_opt
C  -3.910990   0.307410   0.115671
C  -2.663911  -0.659382  -0.092739
H  -4.804305  -0.228224  -0.003364
H  -4.013667   0.785697  -0.645088
H  -3.900317   1.061479   1.071635
C  -1.410701   0.152982  -0.032291
H  -2.674794  -1.546519  -1.058003
H  -2.802537  -1.094975   0.721041
C  -0.223483  -0.675995   0.119165
H  -1.464524   0.647065   0.608523
H  -1.304369   0.884079  -0.961038
H  -0.025435  -1.592348   1.184089
H   0.844742  -0.000747  -0.279289
H  -0.392571  -0.848953  -0.447072
