butane_opt
 OpenBabel08242015383D

 14 13  0  0  0  0  0  0  0  0999 V2000
   -3.9555    0.2630    0.0505 C   0  0  0  0  0  0  0  0  0  0  0  0
   -2.6971   -0.6260    0.0017 C   0  0  0  0  0  0  0  0  0  0  0  0
   -4.8467   -0.3038    0.0855 H   0  0  0  0  0  0  0  0  0  0  0  0
   -4.0279    0.8715   -0.8278 H   0  0  0  0  0  0  0  0  0  0  0  0
   -3.9439    0.9840    0.9534 H   0  0  0  0  0  0  0  0  0  0  0  0
   -1.3934    0.1985   -0.0326 C   0  0  0  0  0  0  0  0  0  0  0  0
   -2.7930   -1.2842   -0.8496 H   0  0  0  0  0  0  0  0  0  0  0  0
   -2.6721   -1.3189    0.9249 H   0  0  0  0  0  0  0  0  0  0  0  0
   -0.1547   -0.6918    0.0676 C   0  0  0  0  0  0  0  0  0  0  0  0
   -1.4557    0.8191    0.7960 H   0  0  0  0  0  0  0  0  0  0  0  0
   -1.3715    0.8553   -0.9606 H   0  0  0  0  0  0  0  0  0  0  0  0
   -0.2164   -1.2548    0.9409 H   0  0  0  0  0  0  0  0  0  0  0  0
    0.7596   -0.1000    0.1429 H   0  0  0  0  0  0  0  0  0  0  0  0
   -0.0509   -1.4581   -0.8238 H   0  0  0  0  0  0  0  0  0  0  0  0
  1  3  1  0  0  0  0
  1  5  1  0  0  0  0
  2  1  1  0  0  0  0
  2  8  1  0  0  0  0
  4  1  1  0  0  0  0
  6  2  1  0  0  0  0
  6  9  1  0  0  0  0
  6 10  1  0  0  0  0
  7  2  1  0  0  0  0
  9 13  1  0  0  0  0
  9 12  1  0  0  0  0
 11  6  1  0  0  0  0
 14  9  1  0  0  0  0
M  END
$$$$
