14
butane_opt
C  -3.954657   0.304694   0.007440
C  -2.722236  -0.671710   0.061698
H  -4.746703  -0.215150   0.088232
H  -4.125278   1.006107  -0.925783
H  -3.999210   1.012392   0.904981
C  -1.384797   0.165893  -0.046357
H  -2.808985  -1.317129  -0.653011
H  -2.569148  -1.503948   1.112742
C  -0.145687  -0.660421   0.041145
H  -1.406416   0.837001   0.803431
H  -1.266264   0.723444  -0.869668
H  -0.384562  -0.910600   0.799947
H   0.843170  -0.028156   0.443426
H  -0.084606  -1.714779  -1.101279
