14
butane_opt
C  -3.917868   0.253465   0.053288
C  -2.708172  -0.598400   0.010883
H  -4.835936  -0.352529   0.083581
H  -3.951962   0.844131  -0.835060
H  -3.966735   0.926953   0.904273
C  -1.422708   0.197846  -0.036143
H  -2.803173  -1.334929  -0.895212
H  -2.683777  -1.196890   0.904415
C  -0.160334  -0.705380   0.070210
H  -1.395803   0.833174   0.796593
H  -1.386087   0.854440  -0.953001
H  -0.157445  -1.270505   0.947642
H   0.754540  -0.144538   0.105378
H  -0.081711  -1.403865  -0.797892
