14
butane_opt
C  -3.933069   0.233646   0.117496
C  -2.687640  -0.577095  -0.064817
H  -4.827755  -0.369253   0.045716
H  -3.949068   0.575267  -0.545469
H  -3.708795   1.072163   1.103839
C  -1.430870   0.212715  -0.130435
H  -2.745578  -1.161863  -0.779967
H  -2.831358  -1.190878   0.810087
C  -0.147133  -0.728845   0.120996
H  -1.578096   0.758206   0.657269
H  -1.435816   1.005975  -1.089786
H  -0.375278  -1.309188   1.014482
H   0.815905  -0.147732   0.416766
H  -0.008539  -1.397379  -0.681747
