14
butane_opt
C  -3.910294   0.292865   0.086219
C  -2.690563  -0.658880  -0.081929
H  -4.872268  -0.247620   0.409419
H  -4.298929   1.177686  -0.909160
H  -3.760655   0.737407   0.847244
C  -1.409504   0.149001  -0.002820
H  -2.688881  -1.440108  -0.976185
H  -2.827300  -1.068160   0.733533
C  -0.175619  -0.679216   0.097207
H  -1.390358   0.806284   0.815462
H  -1.262238   0.954452  -1.001192
H  -0.212173  -1.366675   1.069075
H   0.811011  -0.007656   0.002422
H  -0.288992  -1.267523  -0.748204
