butane_opt
 OpenBabel08242015383D

 14 13  0  0  0  0  0  0  0  0999 V2000
   -3.9993    0.3036   -0.1012 C   0  0  0  0  0  0  0  0  0  0  0  0
   -2.6978   -0.7067    0.0956 C   0  0  0  0  0  0  0  0  0  0  0  0
   -4.8011   -0.1869    0.1927 H   0  0  0  0  0  0  0  0  0  0  0  0
   -4.0518    1.1288   -1.1014 H   0  0  0  0  0  0  0  0  0  0  0  0
   -3.9307    0.8307    0.7151 H   0  0  0  0  0  0  0  0  0  0  0  0
   -1.3821    0.1708    0.1486 C   0  0  0  0  0  0  0  0  0  0  0  0
   -2.5279   -1.3241   -0.6796 H   0  0  0  0  0  0  0  0  0  0  0  0
   -2.7457   -1.3528    1.1126 H   0  0  0  0  0  0  0  0  0  0  0  0
   -0.1568   -0.6524   -0.0504 C   0  0  0  0  0  0  0  0  0  0  0  0
   -1.1802    1.0682    1.1517 H   0  0  0  0  0  0  0  0  0  0  0  0
   -1.5047    0.6784   -0.6268 H   0  0  0  0  0  0  0  0  0  0  0  0
    0.0584   -1.3399    0.9342 H   0  0  0  0  0  0  0  0  0  0  0  0
    0.7287   -0.0544   -0.4033 H   0  0  0  0  0  0  0  0  0  0  0  0
   -0.2696   -1.2893   -0.9816 H   0  0  0  0  0  0  0  0  0  0  0  0
  1  2  1  0  0  0  0
  1  3  1  0  0  0  0
  1  5  1  0  0  0  0
  2  6  1  0  0  0  0
  2  8  1  0  0  0  0
  4  1  1  0  0  0  0
  6 10  1  0  0  0  0
  7  2  1  0  0  0  0
  9  6  1  0  0  0  0
  9 12  1  0  0  0  0
 11  6  1  0  0  0  0
 13  9  1  0  0  0  0
 14  9  1  0  0  0  0
M  END
$$$$
