14
butane_opt
C  -3.937364   0.275738   0.017642
C  -2.693346  -0.620538   0.032364
H  -4.842029  -0.332252   0.054576
H  -3.972345   0.863345  -0.864005
H  -4.009665   0.926840   0.868155
C  -1.414370   0.169748   0.020452
H  -2.703538  -1.331331  -0.832486
H  -2.717804  -1.228525   0.900366
C  -0.161281  -0.684223   0.027573
H  -1.385222   0.898586   0.890556
H  -1.398131   0.766111  -0.874433
H  -0.135421  -1.402775   0.995662
H   0.780852  -0.062610  -0.078097
H  -0.171025  -1.249690  -0.781394
