14
butane_opt
C  -3.976026   0.268566  -0.098012
C  -2.714933  -0.624120   0.119987
H  -4.788016  -0.228111   0.139882
H  -4.140934   1.122560  -1.089112
H  -4.063735   0.853118   0.690142
C  -1.377364   0.146413   0.131712
H  -2.698498  -1.324663  -0.701525
H  -2.697133  -1.273831   1.085015
C  -0.130199  -0.664457  -0.060447
H  -1.164461   1.068216   1.121751
H  -1.491171   0.628249  -0.610690
H  -0.199484  -1.425659   0.917081
H   0.886364  -0.051143  -0.296163
H  -0.275558  -1.343549  -0.959855
