14
butane_opt
C  -4.008260   0.271965  -0.084178
C  -2.676366  -0.641236   0.145749
H  -4.815421  -0.234120   0.016144
H  -4.056364   0.902285  -1.074981
H  -3.940675   0.841864   0.753576
C  -1.373438   0.195953   0.088677
H  -2.566529  -1.159986  -0.562157
H  -2.824078  -1.397805   1.082606
C  -0.160649  -0.666136  -0.055556
H  -1.353655   0.925343   1.023267
H  -1.426113   0.667481  -0.643756
H  -0.082730  -1.224597   0.750482
H   0.722912  -0.127263   0.029564
H  -0.080582  -1.570749  -1.101643
