14
butane_opt
C  -3.952703   0.301999   0.060953
C  -2.683933  -0.642964  -0.014154
H  -4.844107  -0.317570  -0.066675
H  -3.893668   0.689546  -0.668564
H  -3.937162   1.040887   1.038820
C  -1.413548   0.153543  -0.030267
H  -2.599016  -1.451139  -0.961565
H  -2.558568  -1.197293   0.884407
C  -0.175846  -0.656681   0.056908
H  -1.380629   0.857511   0.886645
H  -1.315755   0.818192  -0.932719
H  -0.365645  -1.660597   1.209431
H   0.719430  -0.040205  -0.188341
H  -0.146390  -1.078689  -0.610939
