butane_opt
 OpenBabel08242015383D

 14 13  0  0  0  0  0  0  0  0999 V2000
   -3.9532    0.3019   -0.0836 C   0  0  0  0  0  0  0  0  0  0  0  0
   -2.6271   -0.6693    0.2030 C   0  0  0  0  0  0  0  0  0  0  0  0
   -4.8195   -0.3138   -0.4209 H   0  0  0  0  0  0  0  0  0  0  0  0
   -3.7027    0.7500   -0.9193 H   0  0  0  0  0  0  0  0  0  0  0  0
   -4.2263    1.0816    0.8152 H   0  0  0  0  0  0  0  0  0  0  0  0
   -1.4015    0.1612    0.1032 C   0  0  0  0  0  0  0  0  0  0  0  0
   -2.6404   -1.2398   -0.5981 H   0  0  0  0  0  0  0  0  0  0  0  0
   -2.7185   -1.3113    1.0786 H   0  0  0  0  0  0  0  0  0  0  0  0
   -0.2240   -0.6776   -0.0856 C   0  0  0  0  0  0  0  0  0  0  0  0
   -1.2758    0.7609    0.9665 H   0  0  0  0  0  0  0  0  0  0  0  0
   -1.5546    0.8115   -0.7949 H   0  0  0  0  0  0  0  0  0  0  0  0
   -0.2705   -1.0985    0.6708 H   0  0  0  0  0  0  0  0  0  0  0  0
    0.7510   -0.0319   -0.0145 H   0  0  0  0  0  0  0  0  0  0  0  0
   -0.1128   -1.2658   -0.9820 H   0  0  0  0  0  0  0  0  0  0  0  0
  1  2  1  0  0  0  0
  1  5  1  0  0  0  0
  2  8  1  0  0  0  0
  3  1  1  0  0  0  0
  4  1  1  0  0  0  0
  6  2  1  0  0  0  0
  6 10  1  0  0  0  0
  7  2  1  0  0  0  0
  9 13  1  0  0  0  0
  9  6  1  0  0  0  0
  9 12  1  0  0  0  0
 11  6  1  0  0  0  0
 14  9  1  0  0  0  0
M  END
$$$$
