14
butane_opt
C  -3.963775   0.223264   0.068853
C  -2.728256  -0.606459  -0.098325
H  -4.794829  -0.343875   0.562186
H  -4.287334   1.033279  -0.857543
H  -3.751677   0.812139   0.974132
C  -1.405853   0.239706  -0.025537
H  -2.677986  -1.290547  -1.046184
H  -2.708135  -1.260443   0.817006
C  -0.124079  -0.737047   0.111836
H  -1.394931   0.963406   0.862072
H  -1.444411   0.915857  -0.932266
H  -0.057707  -1.344969   1.028687
H   0.749079  -0.192684  -0.023055
H   0.033635  -1.194607  -0.615372
