14
butane_opt
C  -3.971830   0.225699   0.087525
C  -2.710189  -0.583317  -0.034727
H  -4.913133  -0.380569  -0.058445
H  -3.950039   0.616283  -0.551549
H  -3.893711   1.116762   1.119406
C  -1.409976   0.238923  -0.064838
H  -2.839828  -1.477959  -1.096784
H  -2.867195  -1.048279   0.731593
C  -0.107070  -0.747513   0.128155
H  -1.520155   0.837447   0.681438
H  -1.414762   1.111698  -1.063370
H   0.001173  -1.559262   1.141092
H   0.824137  -0.171619  -0.303959
H  -0.053869  -1.131951  -0.505044
