14
butane_opt
C  -3.923918   0.237465   0.059180
C  -2.698750  -0.556435  -0.048764
H  -4.936988  -0.474275   0.421972
H  -4.066008   0.986588  -0.874540
H  -3.488915   0.685032   0.808050
C  -1.439816   0.191128  -0.019436
H  -2.805308  -1.283732  -0.942480
H  -2.713656  -1.021271   0.764091
C  -0.157009  -0.707267   0.086135
H  -1.443928   0.885719   0.792733
H  -1.415484   0.787236  -0.871273
H  -0.118056  -1.436358   1.110346
H   0.665879  -0.160244   0.010003
H  -0.072634  -1.436785  -0.727782
