14
butane_opt
C  -3.938433   0.256628   0.038390
C  -2.698173  -0.602229   0.029254
H  -4.856480  -0.346116  -0.107364
H  -3.910792   0.708457  -0.772830
H  -3.985438   1.089239   0.989990
C  -1.406755   0.180961  -0.023298
H  -2.731959  -1.262014  -0.808500
H  -2.642010  -1.217708   0.906495
C  -0.173104  -0.697542   0.045752
H  -1.381295   0.855420   0.800748
H  -1.414765   0.830092  -0.927597
H  -0.159731  -1.417463   0.997029
H   0.774741  -0.081579   0.038320
H  -0.116877  -1.286766  -0.729694
