butane_opt
 OpenBabel08242015383D

 14 13  0  0  0  0  0  0  0  0999 V2000
   -3.9638    0.3184   -0.0689 C   0  0  0  0  0  0  0  0  0  0  0  0
   -2.7060   -0.6850    0.1020 C   0  0  0  0  0  0  0  0  0  0  0  0
   -4.7731   -0.2254   -0.0615 H   0  0  0  0  0  0  0  0  0  0  0  0
   -4.2007    1.0367   -1.0210 H   0  0  0  0  0  0  0  0  0  0  0  0
   -4.1170    0.8531    0.6848 H   0  0  0  0  0  0  0  0  0  0  0  0
   -1.3681    0.1484    0.1287 C   0  0  0  0  0  0  0  0  0  0  0  0
   -2.5797   -1.2485   -0.6335 H   0  0  0  0  0  0  0  0  0  0  0  0
   -2.9748   -1.3005    0.9782 H   0  0  0  0  0  0  0  0  0  0  0  0
   -0.1493   -0.6500   -0.0517 C   0  0  0  0  0  0  0  0  0  0  0  0
   -1.2412    0.9929    1.1460 H   0  0  0  0  0  0  0  0  0  0  0  0
   -1.4121    0.5412   -0.5649 H   0  0  0  0  0  0  0  0  0  0  0  0
    0.0578   -1.5144    0.9515 H   0  0  0  0  0  0  0  0  0  0  0  0
    0.8130   -0.0424   -0.4423 H   0  0  0  0  0  0  0  0  0  0  0  0
   -0.3739   -1.1178   -0.9094 H   0  0  0  0  0  0  0  0  0  0  0  0
  1  3  1  0  0  0  0
  1  2  1  0  0  0  0
  1  5  1  0  0  0  0
  2  6  1  0  0  0  0
  2  8  1  0  0  0  0
  4  1  1  0  0  0  0
  6 10  1  0  0  0  0
  7  2  1  0  0  0  0
  9  6  1  0  0  0  0
  9 12  1  0  0  0  0
 11  6  1  0  0  0  0
 13  9  1  0  0  0  0
 14  9  1  0  0  0  0
M  END
$$$$
