butane_opt
 OpenBabel08242015383D

 14 13  0  0  0  0  0  0  0  0999 V2000
   -3.9375    0.3164    0.0944 C   0  0  0  0  0  0  0  0  0  0  0  0
   -2.6692   -0.6355   -0.0406 C   0  0  0  0  0  0  0  0  0  0  0  0
   -4.9068   -0.4205    0.2450 H   0  0  0  0  0  0  0  0  0  0  0  0
   -4.2257    0.7963   -0.7362 H   0  0  0  0  0  0  0  0  0  0  0  0
   -3.8036    1.0681    1.0392 H   0  0  0  0  0  0  0  0  0  0  0  0
   -1.3643    0.1306   -0.0932 C   0  0  0  0  0  0  0  0  0  0  0  0
   -2.7490   -1.4630   -1.0001 H   0  0  0  0  0  0  0  0  0  0  0  0
   -2.5367   -1.2034    0.7871 H   0  0  0  0  0  0  0  0  0  0  0  0
   -0.2129   -0.6647    0.1272 C   0  0  0  0  0  0  0  0  0  0  0  0
   -1.4500    0.6286    0.5392 H   0  0  0  0  0  0  0  0  0  0  0  0
   -1.3608    0.9661   -1.1069 H   0  0  0  0  0  0  0  0  0  0  0  0
   -0.3669   -1.2199    0.9652 H   0  0  0  0  0  0  0  0  0  0  0  0
    0.7695    0.0540    0.4143 H   0  0  0  0  0  0  0  0  0  0  0  0
   -0.1780   -1.4359   -0.7429 H   0  0  0  0  0  0  0  0  0  0  0  0
  1  3  1  0  0  0  0
  1  5  1  0  0  0  0
  2  1  1  0  0  0  0
  2  8  1  0  0  0  0
  4  1  1  0  0  0  0
  6  2  1  0  0  0  0
  6  9  1  0  0  0  0
  6 10  1  0  0  0  0
  7  2  1  0  0  0  0
  9 13  1  0  0  0  0
  9 12  1  0  0  0  0
 11  6  1  0  0  0  0
 14  9  1  0  0  0  0
M  END
$$$$
