14
butane_opt
C  -3.884929   0.225472  -0.051987
C  -2.686880  -0.587852   0.161071
H  -4.804844  -0.319600  -0.352583
H  -3.460880   0.799117  -0.928351
H  -4.172962   0.882046   0.774249
C  -1.465836   0.238108   0.098326
H  -2.685523  -1.234306  -0.767331
H  -2.918525  -1.245164   1.099559
C  -0.169938  -0.723767  -0.052403
H  -1.458882   0.891704   0.923602
H  -1.576511   0.794842  -0.730391
H   0.042295  -1.314601   0.785735
H   0.727001  -0.184543  -0.241043
H  -0.231440  -1.368762  -0.967627
