14
butane_opt
C  -3.934192   0.234679   0.126697
C  -2.738011  -0.617024  -0.072019
H  -4.872795  -0.330995   0.199854
H  -4.131763   0.832370  -0.734270
H  -3.901453   1.006322   1.011510
C  -1.386419   0.267135  -0.132172
H  -2.838477  -1.231166  -0.796539
H  -2.798355  -1.311105   0.856386
C  -0.121772  -0.734647   0.139691
H  -1.619605   0.852268   0.623605
H  -1.323167   0.865052  -1.034963
H  -0.152835  -1.250802   0.908907
H   0.725936  -0.157475   0.480166
H   0.065514  -1.556314  -0.819960
