14
butane_opt
C  -3.973018   0.285202   0.129686
C  -2.702207  -0.633757  -0.105929
H  -4.840614  -0.226209   0.454447
H  -4.248965   1.105208  -0.878008
H  -3.867331   0.821859   0.968035
C  -1.392189   0.141234  -0.054713
H  -2.695426  -1.599953  -1.127217
H  -2.659815  -1.040581   0.615818
C  -0.141666  -0.650975   0.119337
H  -1.464109   0.648381   0.604867
H  -1.372291   0.794476  -0.964023
H  -0.211540  -1.466199   1.159656
H   0.893950  -0.008520   0.110817
H  -0.069009  -1.149188  -0.542531
