14
butane_opt
C  -3.981529   0.292107   0.082804
C  -2.682446  -0.661467  -0.086388
H  -4.952996  -0.249393   0.508790
H  -4.269280   0.805482  -0.713295
H  -3.818794   0.876861   0.920650
C  -1.386640   0.200871  -0.079748
H  -2.812559  -1.347582  -0.935412
H  -2.578579  -1.231848   0.770067
C  -0.143991  -0.677309   0.114288
H  -1.452299   0.806097   0.818492
H  -1.322554   0.770351  -0.954873
H  -0.249703  -1.337581   1.114569
H   0.727807  -0.134890   0.170269
H   0.031476  -1.274807  -0.628900
