14
butane_opt
C  -3.949939   0.280702  -0.048272
C  -2.685342  -0.674065   0.114653
H  -4.741818  -0.161317  -0.139411
H  -4.022873   0.937014  -0.988067
H  -4.219084   1.120208   0.896115
C  -1.379713   0.159368   0.089525
H  -2.795229  -1.386328  -0.821437
H  -2.723932  -1.070599   0.911551
C  -0.162152  -0.672050  -0.016273
H  -1.174659   0.793758   0.936444
H  -1.416036   0.743039  -0.740614
H  -0.205260  -1.448845   0.973338
H   0.734850  -0.029814  -0.405149
H  -0.314898  -1.096591  -0.843585
