butane_opt
 OpenBabel08242015383D

 14 13  0  0  0  0  0  0  0  0999 V2000
   -3.9339    0.2753    0.0234 C   0  0  0  0  0  0  0  0  0  0  0  0
   -2.7008   -0.6222    0.0374 C   0  0  0  0  0  0  0  0  0  0  0  0
   -4.8654   -0.3539    0.0959 H   0  0  0  0  0  0  0  0  0  0  0  0
   -3.9748    0.9159   -0.9196 H   0  0  0  0  0  0  0  0  0  0  0  0
   -3.9459    0.8659    0.8447 H   0  0  0  0  0  0  0  0  0  0  0  0
   -1.4063    0.1864    0.0072 C   0  0  0  0  0  0  0  0  0  0  0  0
   -2.7009   -1.3204   -0.8294 H   0  0  0  0  0  0  0  0  0  0  0  0
   -2.6794   -1.2130    0.9246 H   0  0  0  0  0  0  0  0  0  0  0  0
   -0.1732   -0.6916    0.0364 C   0  0  0  0  0  0  0  0  0  0  0  0
   -1.3348    0.8419    0.8444 H   0  0  0  0  0  0  0  0  0  0  0  0
   -1.3953    0.8160   -0.8907 H   0  0  0  0  0  0  0  0  0  0  0  0
   -0.2136   -1.2848    0.9103 H   0  0  0  0  0  0  0  0  0  0  0  0
    0.7481   -0.0818    0.0752 H   0  0  0  0  0  0  0  0  0  0  0  0
   -0.0907   -1.4337   -0.8783 H   0  0  0  0  0  0  0  0  0  0  0  0
  1  2  1  0  0  0  0
  1  3  1  0  0  0  0
  1  5  1  0  0  0  0
  2  8  1  0  0  0  0
  4  1  1  0  0  0  0
  6  9  1  0  0  0  0
  6  2  1  0  0  0  0
  6 10  1  0  0  0  0
  7  2  1  0  0  0  0
  9 13  1  0  0  0  0
  9 12  1  0  0  0  0
 11  6  1  0  0  0  0
 14  9  1  0  0  0  0
M  END
$$$$
