butane_opt
 OpenBabel08242015383D

 14 13  0  0  0  0  0  0  0  0999 V2000
   -3.9666    0.2417   -0.0902 C   0  0  0  0  0  0  0  0  0  0  0  0
   -2.7353   -0.6103    0.1551 C   0  0  0  0  0  0  0  0  0  0  0  0
   -4.8705   -0.3475    0.1312 H   0  0  0  0  0  0  0  0  0  0  0  0
   -3.7554    0.9490   -1.1242 H   0  0  0  0  0  0  0  0  0  0  0  0
   -4.0571    0.6569    0.5162 H   0  0  0  0  0  0  0  0  0  0  0  0
   -1.4137    0.2575    0.1511 C   0  0  0  0  0  0  0  0  0  0  0  0
   -2.6185   -1.4235   -0.7819 H   0  0  0  0  0  0  0  0  0  0  0  0
   -2.7113   -1.1842    1.0111 H   0  0  0  0  0  0  0  0  0  0  0  0
   -0.1174   -0.7207   -0.0757 C   0  0  0  0  0  0  0  0  0  0  0  0
   -1.3813    1.1193    1.1161 H   0  0  0  0  0  0  0  0  0  0  0  0
   -1.4573    0.7543   -0.7095 H   0  0  0  0  0  0  0  0  0  0  0  0
    0.1933   -1.4030    0.9173 H   0  0  0  0  0  0  0  0  0  0  0  0
    0.6323   -0.2656   -0.3147 H   0  0  0  0  0  0  0  0  0  0  0  0
   -0.2047   -1.3618   -1.0073 H   0  0  0  0  0  0  0  0  0  0  0  0
  1  3  1  0  0  0  0
  1  2  1  0  0  0  0
  1  5  1  0  0  0  0
  2  8  1  0  0  0  0
  4  1  1  0  0  0  0
  6  2  1  0  0  0  0
  6 10  1  0  0  0  0
  7  2  1  0  0  0  0
  9  6  1  0  0  0  0
  9 12  1  0  0  0  0
 11  6  1  0  0  0  0
 13  9  1  0  0  0  0
 14  9  1  0  0  0  0
M  END
$$$$
