butane_opt
 OpenBabel08242015383D

 14 13  0  0  0  0  0  0  0  0999 V2000
   -3.9580    0.2578    0.0704 C   0  0  0  0  0  0  0  0  0  0  0  0
   -2.7387   -0.5795   -0.0300 C   0  0  0  0  0  0  0  0  0  0  0  0
   -4.8732   -0.3717   -0.0618 H   0  0  0  0  0  0  0  0  0  0  0  0
   -4.0243    0.7220   -0.7247 H   0  0  0  0  0  0  0  0  0  0  0  0
   -3.7121    1.0814    1.0757 H   0  0  0  0  0  0  0  0  0  0  0  0
   -1.3891    0.1829   -0.0440 C   0  0  0  0  0  0  0  0  0  0  0  0
   -2.8692   -1.4543   -0.9956 H   0  0  0  0  0  0  0  0  0  0  0  0
   -2.6473   -1.1912    0.7801 H   0  0  0  0  0  0  0  0  0  0  0  0
   -0.1298   -0.7178    0.0894 C   0  0  0  0  0  0  0  0  0  0  0  0
   -1.4063    0.9079    0.8487 H   0  0  0  0  0  0  0  0  0  0  0  0
   -1.4590    0.8660   -0.9318 H   0  0  0  0  0  0  0  0  0  0  0  0
   -0.1096   -1.6214    1.2366 H   0  0  0  0  0  0  0  0  0  0  0  0
    0.7777   -0.1553   -0.2064 H   0  0  0  0  0  0  0  0  0  0  0  0
   -0.1230   -0.9647   -0.5785 H   0  0  0  0  0  0  0  0  0  0  0  0
  1  5  1  0  0  0  0
  2  1  1  0  0  0  0
  2  8  1  0  0  0  0
  3  1  1  0  0  0  0
  4  1  1  0  0  0  0
  6  2  1  0  0  0  0
  6  9  1  0  0  0  0
  6 10  1  0  0  0  0
  7  2  1  0  0  0  0
  9 12  1  0  0  0  0
 11  6  1  0  0  0  0
 13  9  1  0  0  0  0
 14  9  1  0  0  0  0
M  END
$$$$
