14
butane_opt
C  -3.899149   0.265936   0.057649
C  -2.713554  -0.617179  -0.047262
H  -4.781774  -0.324669   0.311776
H  -4.040487   0.878284  -0.866719
H  -3.639285   0.892695   1.051214
C  -1.416308   0.199813  -0.051154
H  -2.845482  -1.314983  -0.882774
H  -2.678749  -1.287188   0.916088
C  -0.182617  -0.709032   0.083890
H  -1.459547   0.914919   0.799660
H  -1.448281   0.879706  -0.915141
H  -0.227490  -1.321576   0.970756
H   0.681911  -0.155878   0.257647
H  -0.052300  -1.295669  -0.718408
