14
butane_opt
C  -3.949887   0.288005   0.053171
C  -2.669577  -0.633898  -0.010754
H  -4.837741  -0.214845  -0.223013
H  -3.880902   0.698125  -0.717988
H  -4.006555   1.210411   1.170360
C  -1.416288   0.132416   0.007945
H  -2.526620  -1.369976  -0.881583
H  -2.715075  -1.231601   0.857724
C  -0.197884  -0.654427   0.066389
H  -1.323250   0.630772   0.623293
H  -1.321041   0.782771  -0.915991
H  -0.077185  -1.523648   1.147966
H   0.763856   0.043248  -0.300976
H  -0.313689  -1.059380  -0.656819
