butane_opt
 OpenBabel08242015383D

 14 13  0  0  0  0  0  0  0  0999 V2000
   -3.9545    0.3093    0.0557 C   0  0  0  0  0  0  0  0  0  0  0  0
   -2.6638   -0.6738    0.0329 C   0  0  0  0  0  0  0  0  0  0  0  0
   -4.7960   -0.2064   -0.2523 H   0  0  0  0  0  0  0  0  0  0  0  0
   -3.8265    0.5272   -0.5970 H   0  0  0  0  0  0  0  0  0  0  0  0
   -3.9812    1.2917    1.1342 H   0  0  0  0  0  0  0  0  0  0  0  0
   -1.3964    0.1392   -0.0862 C   0  0  0  0  0  0  0  0  0  0  0  0
   -2.7320   -1.4416   -0.8585 H   0  0  0  0  0  0  0  0  0  0  0  0
   -2.5152   -1.2802    0.9148 H   0  0  0  0  0  0  0  0  0  0  0  0
   -0.2080   -0.6479    0.0648 C   0  0  0  0  0  0  0  0  0  0  0  0
   -1.3477    0.7960    0.8213 H   0  0  0  0  0  0  0  0  0  0  0  0
   -1.4997    0.8846   -1.1043 H   0  0  0  0  0  0  0  0  0  0  0  0
   -0.2724   -1.3644    1.1060 H   0  0  0  0  0  0  0  0  0  0  0  0
    0.6689    0.0055    0.1663 H   0  0  0  0  0  0  0  0  0  0  0  0
   -0.0973   -1.1942   -0.6434 H   0  0  0  0  0  0  0  0  0  0  0  0
  1  5  1  0  0  0  0
  2  1  1  0  0  0  0
  2  8  1  0  0  0  0
  3  1  1  0  0  0  0
  4  1  1  0  0  0  0
  6  2  1  0  0  0  0
  6  9  1  0  0  0  0
  6 10  1  0  0  0  0
  7  2  1  0  0  0  0
  9 13  1  0  0  0  0
  9 12  1  0  0  0  0
 11  6  1  0  0  0  0
 14  9  1  0  0  0  0
M  END
$$$$
