butane_opt
 OpenBabel08242015383D

 14 12  0  0  0  0  0  0  0  0999 V2000
   -3.9661    0.2946    0.0940 C   0  0  0  0  0  0  0  0  0  0  0  0
   -2.7039   -0.6954   -0.0426 C   0  0  0  0  0  0  0  0  0  0  0  0
   -4.7669   -0.1981   -0.2492 H   0  0  0  0  0  0  0  0  0  0  0  0
   -4.0702    0.6782   -0.6150 H   0  0  0  0  0  0  0  0  0  0  0  0
   -4.0668    1.2443    1.1409 H   0  0  0  0  0  0  0  0  0  0  0  0
   -1.3895    0.1877   -0.0541 C   0  0  0  0  0  0  0  0  0  0  0  0
   -2.7969   -1.3527   -0.8998 H   0  0  0  0  0  0  0  0  0  0  0  0
   -2.6800   -1.2147    0.7708 H   0  0  0  0  0  0  0  0  0  0  0  0
   -0.1490   -0.6620    0.0944 C   0  0  0  0  0  0  0  0  0  0  0  0
   -1.5038    0.8529    0.7770 H   0  0  0  0  0  0  0  0  0  0  0  0
   -1.3670    0.7231   -0.9804 H   0  0  0  0  0  0  0  0  0  0  0  0
   -0.0043   -1.7492    1.2467 H   0  0  0  0  0  0  0  0  0  0  0  0
    0.7773    0.0522   -0.2680 H   0  0  0  0  0  0  0  0  0  0  0  0
   -0.0915   -0.9746   -0.5265 H   0  0  0  0  0  0  0  0  0  0  0  0
  1  5  1  0  0  0  0
  2  1  1  0  0  0  0
  2  8  1  0  0  0  0
  3  1  1  0  0  0  0
  4  1  1  0  0  0  0
  6  2  1  0  0  0  0
  6  9  1  0  0  0  0
  6 10  1  0  0  0  0
  7  2  1  0  0  0  0
 11  6  1  0  0  0  0
 13  9  1  0  0  0  0
 14  9  1  0  0  0  0
M  RAD  2   9   2  12   2
M  END
$$$$
