butane_opt
 OpenBabel08242015383D

 14 12  0  0  0  0  0  0  0  0999 V2000
   -3.9248    0.2262    0.0566 C   0  0  0  0  0  0  0  0  0  0  0  0
   -2.7109   -0.5422   -0.0335 C   0  0  0  0  0  0  0  0  0  0  0  0
   -4.9734   -0.4949   -0.0568 H   0  0  0  0  0  0  0  0  0  0  0  0
   -3.8949    0.6586   -0.7218 H   0  0  0  0  0  0  0  0  0  0  0  0
   -3.8212    1.0636    1.0963 H   0  0  0  0  0  0  0  0  0  0  0  0
   -1.3899    0.1978    0.0159 C   0  0  0  0  0  0  0  0  0  0  0  0
   -2.6773   -1.3252   -0.9997 H   0  0  0  0  0  0  0  0  0  0  0  0
   -2.8045   -0.9969    0.8022 H   0  0  0  0  0  0  0  0  0  0  0  0
   -0.1960   -0.7262    0.0579 C   0  0  0  0  0  0  0  0  0  0  0  0
   -1.5145    0.8174    0.8292 H   0  0  0  0  0  0  0  0  0  0  0  0
   -1.3439    0.9993   -0.9548 H   0  0  0  0  0  0  0  0  0  0  0  0
    0.1307   -1.8874    1.2495 H   0  0  0  0  0  0  0  0  0  0  0  0
    0.7762   -0.1898   -0.3158 H   0  0  0  0  0  0  0  0  0  0  0  0
   -0.2307   -0.9995   -0.5759 H   0  0  0  0  0  0  0  0  0  0  0  0
  1  5  1  0  0  0  0
  2  6  1  0  0  0  0
  2  1  1  0  0  0  0
  2  8  1  0  0  0  0
  3  1  1  0  0  0  0
  4  1  1  0  0  0  0
  6  9  1  0  0  0  0
  6 10  1  0  0  0  0
  7  2  1  0  0  0  0
 11  6  1  0  0  0  0
 13  9  1  0  0  0  0
 14  9  1  0  0  0  0
M  RAD  2   9   2  12   2
M  END
$$$$
