14
butane_opt
C  -3.887917   0.287222  -0.063185
C  -2.684195  -0.626496   0.097423
H  -4.836325  -0.251898  -0.104670
H  -3.972936   0.964881  -1.008761
H  -3.975513   0.908385   0.808484
C  -1.420014   0.142963   0.137676
H  -2.721033  -1.373210  -0.695795
H  -2.836729  -1.279934   1.030346
C  -0.187704  -0.659375  -0.062676
H  -1.327250   0.838709   1.004919
H  -1.439532   0.790792  -0.749926
H  -0.083609  -1.490905   0.999257
H   0.733397  -0.038784  -0.240593
H  -0.420340  -1.258325  -0.913603
