butane_opt
 OpenBabel08242015383D

 14 13  0  0  0  0  0  0  0  0999 V2000
   -3.9424    0.2808    0.0552 C   0  0  0  0  0  0  0  0  0  0  0  0
   -2.6786   -0.6624    0.0095 C   0  0  0  0  0  0  0  0  0  0  0  0
   -4.7886   -0.2682   -0.2314 H   0  0  0  0  0  0  0  0  0  0  0  0
   -3.8058    0.7883   -0.8131 H   0  0  0  0  0  0  0  0  0  0  0  0
   -4.0363    1.2097    1.0341 H   0  0  0  0  0  0  0  0  0  0  0  0
   -1.4131    0.1784   -0.0169 C   0  0  0  0  0  0  0  0  0  0  0  0
   -2.5675   -1.2916   -0.7733 H   0  0  0  0  0  0  0  0  0  0  0  0
   -2.6236   -1.3195    0.9274 H   0  0  0  0  0  0  0  0  0  0  0  0
   -0.2001   -0.6720    0.0594 C   0  0  0  0  0  0  0  0  0  0  0  0
   -1.3669    0.8451    0.8581 H   0  0  0  0  0  0  0  0  0  0  0  0
   -1.3478    0.6599   -0.8962 H   0  0  0  0  0  0  0  0  0  0  0  0
   -0.1778   -1.4347    1.0264 H   0  0  0  0  0  0  0  0  0  0  0  0
    0.6703    0.0084   -0.2676 H   0  0  0  0  0  0  0  0  0  0  0  0
   -0.1857   -1.1458   -0.6845 H   0  0  0  0  0  0  0  0  0  0  0  0
  1  5  1  0  0  0  0
  2  1  1  0  0  0  0
  2  8  1  0  0  0  0
  3  1  1  0  0  0  0
  4  1  1  0  0  0  0
  6  2  1  0  0  0  0
  6  9  1  0  0  0  0
  6 10  1  0  0  0  0
  7  2  1  0  0  0  0
  9 12  1  0  0  0  0
 11  6  1  0  0  0  0
 13  9  1  0  0  0  0
 14  9  1  0  0  0  0
M  END
$$$$
