butane_opt
 OpenBabel08242015383D

 14 13  0  0  0  0  0  0  0  0999 V2000
   -3.9212    0.2552    0.0063 C   0  0  0  0  0  0  0  0  0  0  0  0
   -2.6991   -0.6100    0.0400 C   0  0  0  0  0  0  0  0  0  0  0  0
   -4.8522   -0.3497    0.1609 H   0  0  0  0  0  0  0  0  0  0  0  0
   -4.0205    0.9764   -0.9640 H   0  0  0  0  0  0  0  0  0  0  0  0
   -3.9119    0.8192    0.7955 H   0  0  0  0  0  0  0  0  0  0  0  0
   -1.4236    0.1917    0.0292 C   0  0  0  0  0  0  0  0  0  0  0  0
   -2.7020   -1.2783   -0.8124 H   0  0  0  0  0  0  0  0  0  0  0  0
   -2.7126   -1.2109    0.9080 H   0  0  0  0  0  0  0  0  0  0  0  0
   -0.1655   -0.6956    0.0200 C   0  0  0  0  0  0  0  0  0  0  0  0
   -1.3517    0.9164    0.9154 H   0  0  0  0  0  0  0  0  0  0  0  0
   -1.4484    0.7865   -0.8102 H   0  0  0  0  0  0  0  0  0  0  0  0
   -0.1082   -1.3340    0.9195 H   0  0  0  0  0  0  0  0  0  0  0  0
    0.7467   -0.1286    0.0307 H   0  0  0  0  0  0  0  0  0  0  0  0
   -0.1454   -1.3679   -0.8532 H   0  0  0  0  0  0  0  0  0  0  0  0
  1  2  1  0  0  0  0
  1  3  1  0  0  0  0
  1  5  1  0  0  0  0
  2  8  1  0  0  0  0
  4  1  1  0  0  0  0
  6  2  1  0  0  0  0
  6 10  1  0  0  0  0
  7  2  1  0  0  0  0
  9  6  1  0  0  0  0
  9 13  1  0  0  0  0
  9 12  1  0  0  0  0
 11  6  1  0  0  0  0
 14  9  1  0  0  0  0
M  END
$$$$
