14
butane_opt
C  -3.925986   0.305689   0.065527
C  -2.665956  -0.653363  -0.005585
H  -4.826256  -0.271777   0.112335
H  -4.024741   0.895734  -0.749263
H  -3.897442   1.018800   0.986705
C  -1.406776   0.137878  -0.078842
H  -2.848900  -1.312493  -0.787085
H  -2.580807  -1.272835   0.930321
C  -0.199304  -0.673009   0.089391
H  -1.431286   0.707089   0.757286
H  -1.393287   0.774156  -1.056129
H  -0.565538  -1.011837   0.781581
H   0.868442   0.060113   0.343055
H   0.029508  -1.433525  -0.763603
