butane_opt
 OpenBabel08242015383D

 14 13  0  0  0  0  0  0  0  0999 V2000
   -3.9655    0.2382    0.0284 C   0  0  0  0  0  0  0  0  0  0  0  0
   -2.6846   -0.6165    0.0163 C   0  0  0  0  0  0  0  0  0  0  0  0
   -4.9066   -0.3580    0.0198 H   0  0  0  0  0  0  0  0  0  0  0  0
   -3.8585    0.7292   -0.8587 H   0  0  0  0  0  0  0  0  0  0  0  0
   -3.9461    1.1276    1.0530 H   0  0  0  0  0  0  0  0  0  0  0  0
   -1.4088    0.2377    0.0114 C   0  0  0  0  0  0  0  0  0  0  0  0
   -2.6536   -1.2852   -0.7575 H   0  0  0  0  0  0  0  0  0  0  0  0
   -2.7748   -1.1724    0.9170 H   0  0  0  0  0  0  0  0  0  0  0  0
   -0.1621   -0.7253    0.0394 C   0  0  0  0  0  0  0  0  0  0  0  0
   -1.4091    0.6970    0.6688 H   0  0  0  0  0  0  0  0  0  0  0  0
   -1.3047    0.9854   -0.9279 H   0  0  0  0  0  0  0  0  0  0  0  0
   -0.0791   -1.3128    0.9728 H   0  0  0  0  0  0  0  0  0  0  0  0
    0.6596   -0.1392    0.0272 H   0  0  0  0  0  0  0  0  0  0  0  0
   -0.0805   -1.3705   -0.7952 H   0  0  0  0  0  0  0  0  0  0  0  0
  1  5  1  0  0  0  0
  2  1  1  0  0  0  0
  2  8  1  0  0  0  0
  3  1  1  0  0  0  0
  4  1  1  0  0  0  0
  6  2  1  0  0  0  0
  6  9  1  0  0  0  0
  6 10  1  0  0  0  0
  7  2  1  0  0  0  0
  9 12  1  0  0  0  0
 11  6  1  0  0  0  0
 13  9  1  0  0  0  0
 14  9  1  0  0  0  0
M  END
$$$$
