butane_opt
 OpenBabel08242015383D

 14 13  0  0  0  0  0  0  0  0999 V2000
   -3.9380    0.2900    0.0639 C   0  0  0  0  0  0  0  0  0  0  0  0
   -2.6754   -0.6525   -0.0773 C   0  0  0  0  0  0  0  0  0  0  0  0
   -4.8074   -0.2855    0.4177 H   0  0  0  0  0  0  0  0  0  0  0  0
   -4.1763    0.9420   -0.7816 H   0  0  0  0  0  0  0  0  0  0  0  0
   -3.7041    1.0575    0.9851 H   0  0  0  0  0  0  0  0  0  0  0  0
   -1.3821    0.1462   -0.0447 C   0  0  0  0  0  0  0  0  0  0  0  0
   -2.6099   -1.4086   -0.9529 H   0  0  0  0  0  0  0  0  0  0  0  0
   -2.6008   -1.3076    0.8466 H   0  0  0  0  0  0  0  0  0  0  0  0
   -0.2295   -0.6802    0.1168 C   0  0  0  0  0  0  0  0  0  0  0  0
   -1.3128    0.8999    0.7867 H   0  0  0  0  0  0  0  0  0  0  0  0
   -1.4177    0.8574   -0.9281 H   0  0  0  0  0  0  0  0  0  0  0  0
   -0.1859   -1.3436    1.0090 H   0  0  0  0  0  0  0  0  0  0  0  0
    0.7028    0.0001    0.0272 H   0  0  0  0  0  0  0  0  0  0  0  0
   -0.2135   -1.1156   -0.6358 H   0  0  0  0  0  0  0  0  0  0  0  0
  1  3  1  0  0  0  0
  1  5  1  0  0  0  0
  2  6  1  0  0  0  0
  2  1  1  0  0  0  0
  2  8  1  0  0  0  0
  4  1  1  0  0  0  0
  6  9  1  0  0  0  0
  6 10  1  0  0  0  0
  7  2  1  0  0  0  0
  9 12  1  0  0  0  0
 11  6  1  0  0  0  0
 13  9  1  0  0  0  0
 14  9  1  0  0  0  0
M  END
$$$$
