butane_opt
 OpenBabel08242015383D

 14 13  0  0  0  0  0  0  0  0999 V2000
   -3.9746    0.3075   -0.0768 C   0  0  0  0  0  0  0  0  0  0  0  0
   -2.7114   -0.6763    0.1725 C   0  0  0  0  0  0  0  0  0  0  0  0
   -4.8278   -0.1872   -0.4161 H   0  0  0  0  0  0  0  0  0  0  0  0
   -3.7982    0.7753   -0.9338 H   0  0  0  0  0  0  0  0  0  0  0  0
   -4.3072    1.1856    0.9357 H   0  0  0  0  0  0  0  0  0  0  0  0
   -1.3565    0.1712    0.0849 C   0  0  0  0  0  0  0  0  0  0  0  0
   -2.6338   -1.2629   -0.5882 H   0  0  0  0  0  0  0  0  0  0  0  0
   -2.8455   -1.5611    1.1705 H   0  0  0  0  0  0  0  0  0  0  0  0
   -0.1680   -0.6667   -0.0658 C   0  0  0  0  0  0  0  0  0  0  0  0
   -1.1247    0.8618    0.9699 H   0  0  0  0  0  0  0  0  0  0  0  0
   -1.5796    0.7514   -0.7708 H   0  0  0  0  0  0  0  0  0  0  0  0
   -0.0908   -1.2273    0.8010 H   0  0  0  0  0  0  0  0  0  0  0  0
    0.7815    0.0033   -0.0450 H   0  0  0  0  0  0  0  0  0  0  0  0
   -0.1054   -1.4136   -1.0322 H   0  0  0  0  0  0  0  0  0  0  0  0
  1  2  1  0  0  0  0
  1  5  1  0  0  0  0
  2  8  1  0  0  0  0
  3  1  1  0  0  0  0
  4  1  1  0  0  0  0
  6  2  1  0  0  0  0
  6 10  1  0  0  0  0
  7  2  1  0  0  0  0
  9 13  1  0  0  0  0
  9  6  1  0  0  0  0
  9 12  1  0  0  0  0
 11  6  1  0  0  0  0
 14  9  1  0  0  0  0
M  END
$$$$
