butane_opt
 OpenBabel08242015383D

 14 13  0  0  0  0  0  0  0  0999 V2000
   -3.9576    0.2450    0.1252 C   0  0  0  0  0  0  0  0  0  0  0  0
   -2.7102   -0.5877   -0.1090 C   0  0  0  0  0  0  0  0  0  0  0  0
   -4.9969   -0.4985    0.4539 H   0  0  0  0  0  0  0  0  0  0  0  0
   -4.1878    1.0989   -0.8330 H   0  0  0  0  0  0  0  0  0  0  0  0
   -3.8695    0.8141    0.9322 H   0  0  0  0  0  0  0  0  0  0  0  0
   -1.4291    0.1918   -0.0805 C   0  0  0  0  0  0  0  0  0  0  0  0
   -2.8019   -1.4992   -1.1208 H   0  0  0  0  0  0  0  0  0  0  0  0
   -2.5918   -1.0318    0.7453 H   0  0  0  0  0  0  0  0  0  0  0  0
   -0.1239   -0.6922    0.1502 C   0  0  0  0  0  0  0  0  0  0  0  0
   -1.4207    0.8497    0.7752 H   0  0  0  0  0  0  0  0  0  0  0  0
   -1.1801    0.8585   -1.0151 H   0  0  0  0  0  0  0  0  0  0  0  0
   -0.0961   -1.4472    1.1177 H   0  0  0  0  0  0  0  0  0  0  0  0
    0.7597   -0.2084   -0.0325 H   0  0  0  0  0  0  0  0  0  0  0  0
    0.0408   -1.3036   -0.6322 H   0  0  0  0  0  0  0  0  0  0  0  0
  1  3  1  0  0  0  0
  1  5  1  0  0  0  0
  2  6  1  0  0  0  0
  2  1  1  0  0  0  0
  2  8  1  0  0  0  0
  4  1  1  0  0  0  0
  6  9  1  0  0  0  0
  6 10  1  0  0  0  0
  7  2  1  0  0  0  0
  9 12  1  0  0  0  0
 11  6  1  0  0  0  0
 13  9  1  0  0  0  0
 14  9  1  0  0  0  0
M  END
$$$$
