14
butane_opt
C  -3.925912   0.280029  -0.027718
C  -2.678662  -0.655738   0.091980
H  -4.722604  -0.234716  -0.062898
H  -3.905962   1.077995  -1.056288
H  -4.073717   0.917971   0.739842
C  -1.392622   0.164914   0.100854
H  -2.698183  -1.436701  -0.818971
H  -2.843842  -1.201552   1.024563
C  -0.183458  -0.680276  -0.049856
H  -1.192358   0.898707   1.014139
H  -1.572669   0.851008  -0.807528
H  -0.180070  -1.324545   0.872756
H   0.745912  -0.108812  -0.087444
H  -0.402328  -1.202397  -0.741396
