butane_opt
 OpenBabel08242015383D

 14 13  0  0  0  0  0  0  0  0999 V2000
   -3.9305    0.2865    0.1170 C   0  0  0  0  0  0  0  0  0  0  0  0
   -2.6714   -0.6100   -0.0650 C   0  0  0  0  0  0  0  0  0  0  0  0
   -4.8051   -0.2971    0.3816 H   0  0  0  0  0  0  0  0  0  0  0  0
   -4.2097    0.8841   -0.7829 H   0  0  0  0  0  0  0  0  0  0  0  0
   -3.8612    1.1051    1.0507 H   0  0  0  0  0  0  0  0  0  0  0  0
   -1.4012    0.1129   -0.1350 C   0  0  0  0  0  0  0  0  0  0  0  0
   -2.5795   -1.4461   -1.0177 H   0  0  0  0  0  0  0  0  0  0  0  0
   -2.6929   -1.2983    0.8246 H   0  0  0  0  0  0  0  0  0  0  0  0
   -0.2034   -0.6487    0.1450 C   0  0  0  0  0  0  0  0  0  0  0  0
   -1.4847    0.6917    0.7043 H   0  0  0  0  0  0  0  0  0  0  0  0
   -1.3687    0.7690   -1.0582 H   0  0  0  0  0  0  0  0  0  0  0  0
   -0.4493   -1.2166    0.9771 H   0  0  0  0  0  0  0  0  0  0  0  0
    0.8950    0.1232    0.3466 H   0  0  0  0  0  0  0  0  0  0  0  0
   -0.0113   -1.4262   -0.7092 H   0  0  0  0  0  0  0  0  0  0  0  0
  1  3  1  0  0  0  0
  1  5  1  0  0  0  0
  2  1  1  0  0  0  0
  2  8  1  0  0  0  0
  4  1  1  0  0  0  0
  6  2  1  0  0  0  0
  6  9  1  0  0  0  0
  6 10  1  0  0  0  0
  7  2  1  0  0  0  0
  9 13  1  0  0  0  0
  9 12  1  0  0  0  0
 11  6  1  0  0  0  0
 14  9  1  0  0  0  0
M  END
$$$$
