butane_opt
 OpenBabel08242015383D

 14 13  0  0  0  0  0  0  0  0999 V2000
   -3.9128    0.2883    0.1164 C   0  0  0  0  0  0  0  0  0  0  0  0
   -2.6543   -0.6591   -0.1009 C   0  0  0  0  0  0  0  0  0  0  0  0
   -4.9084   -0.3921    0.4876 H   0  0  0  0  0  0  0  0  0  0  0  0
   -4.2738    1.0718   -0.8825 H   0  0  0  0  0  0  0  0  0  0  0  0
   -3.7504    0.9334    0.9172 H   0  0  0  0  0  0  0  0  0  0  0  0
   -1.4307    0.1693   -0.0875 C   0  0  0  0  0  0  0  0  0  0  0  0
   -2.6552   -1.4395   -1.0163 H   0  0  0  0  0  0  0  0  0  0  0  0
   -2.5251   -1.2447    0.7716 H   0  0  0  0  0  0  0  0  0  0  0  0
   -0.2109   -0.6629    0.1456 C   0  0  0  0  0  0  0  0  0  0  0  0
   -1.5116    0.8622    0.8174 H   0  0  0  0  0  0  0  0  0  0  0  0
   -1.1607    0.7932   -1.0606 H   0  0  0  0  0  0  0  0  0  0  0  0
   -0.1943   -1.2934    1.0048 H   0  0  0  0  0  0  0  0  0  0  0  0
    0.7424   -0.0732    0.1681 H   0  0  0  0  0  0  0  0  0  0  0  0
   -0.2670   -1.3059   -0.6567 H   0  0  0  0  0  0  0  0  0  0  0  0
  1  3  1  0  0  0  0
  1  5  1  0  0  0  0
  2  6  1  0  0  0  0
  2  1  1  0  0  0  0
  2  8  1  0  0  0  0
  4  1  1  0  0  0  0
  6  9  1  0  0  0  0
  6 10  1  0  0  0  0
  7  2  1  0  0  0  0
  9 13  1  0  0  0  0
  9 12  1  0  0  0  0
 11  6  1  0  0  0  0
 14  9  1  0  0  0  0
M  END
$$$$
