14
butane_opt
C  -3.903955   0.209749   0.049458
C  -2.714274  -0.570402   0.015969
H  -4.895754  -0.403651  -0.177899
H  -3.838912   0.458502  -0.544369
H  -3.838161   1.276934   1.202176
C  -1.441336   0.222768  -0.062091
H  -2.643748  -1.223581  -0.885171
H  -2.677622  -0.992516   0.809120
C  -0.160494  -0.740424   0.095203
H  -1.584637   0.710935   0.667555
H  -1.413281   1.080253  -1.074415
H  -0.150545  -1.474906   1.103901
H   0.810291  -0.128521  -0.095524
H  -0.132057  -1.274601  -0.699745
