14
butane_opt
C  -3.952743   0.244841   0.105421
C  -2.680430  -0.604149  -0.027318
H  -4.803089  -0.285855  -0.433504
H  -3.833489   0.328972  -0.498437
H  -4.041353   1.312581   1.163846
C  -1.414106   0.219370  -0.085180
H  -2.838731  -1.217775  -0.884867
H  -2.499494  -1.262975   0.898284
C  -0.177151  -0.698685   0.107080
H  -1.448967   0.769254   0.635991
H  -1.312164   0.865445  -1.056354
H  -0.176918  -1.590968   1.133750
H   0.677084  -0.163212  -0.138410
H  -0.047984  -1.170649  -0.533947
