butane_opt
 OpenBabel08242015383D

 14 13  0  0  0  0  0  0  0  0999 V2000
   -4.0007    0.2769   -0.0995 C   0  0  0  0  0  0  0  0  0  0  0  0
   -2.6669   -0.6607    0.2001 C   0  0  0  0  0  0  0  0  0  0  0  0
   -4.8310   -0.2817   -0.4286 H   0  0  0  0  0  0  0  0  0  0  0  0
   -3.8401    0.8307   -1.0295 H   0  0  0  0  0  0  0  0  0  0  0  0
   -4.2907    1.1745    0.9179 H   0  0  0  0  0  0  0  0  0  0  0  0
   -1.3908    0.1674    0.1196 C   0  0  0  0  0  0  0  0  0  0  0  0
   -2.5803   -1.2808   -0.6159 H   0  0  0  0  0  0  0  0  0  0  0  0
   -2.9923   -1.2857    1.2120 H   0  0  0  0  0  0  0  0  0  0  0  0
   -0.1186   -0.6765   -0.0910 C   0  0  0  0  0  0  0  0  0  0  0  0
   -1.2692    0.8406    0.9963 H   0  0  0  0  0  0  0  0  0  0  0  0
   -1.5155    0.8711   -0.7909 H   0  0  0  0  0  0  0  0  0  0  0  0
   -0.0080   -1.1968    0.7907 H   0  0  0  0  0  0  0  0  0  0  0  0
    0.8382   -0.0484   -0.1242 H   0  0  0  0  0  0  0  0  0  0  0  0
   -0.4009   -1.3806   -1.0126 H   0  0  0  0  0  0  0  0  0  0  0  0
  1  2  1  0  0  0  0
  1  5  1  0  0  0  0
  2  8  1  0  0  0  0
  3  1  1  0  0  0  0
  4  1  1  0  0  0  0
  6  2  1  0  0  0  0
  6 10  1  0  0  0  0
  7  2  1  0  0  0  0
  9  6  1  0  0  0  0
  9 12  1  0  0  0  0
 11  6  1  0  0  0  0
 13  9  1  0  0  0  0
 14  9  1  0  0  0  0
M  END
$$$$
