14
butane_opt
C  -4.001449   0.291751  -0.070289
C  -2.709184  -0.642961   0.160329
H  -4.800064  -0.129441   0.113060
H  -3.950303   1.028734  -0.977955
H  -4.143466   0.881242   0.785752
C  -1.330854   0.126847   0.050981
H  -2.529598  -1.239598  -0.720567
H  -2.910625  -1.303810   1.124382
C  -0.156819  -0.666894  -0.029446
H  -1.318407   0.698557   0.827237
H  -1.474422   0.786434  -0.835943
H  -0.241374  -0.772798   0.561496
H   0.844624  -0.030078   0.347838
H  -0.134399  -1.684180  -1.144056
