14
butane_opt
C  -3.889661   0.233908  -0.045314
C  -2.739037  -0.578174   0.160499
H  -4.873338  -0.380276   0.086134
H  -3.935065   0.962140  -1.111541
H  -4.035359   0.699351   0.629285
C  -1.416362   0.248267   0.057621
H  -2.642811  -1.301578  -0.669460
H  -2.821572  -1.144635   0.968331
C  -0.153916  -0.743253  -0.054736
H  -1.395350   0.874061   0.896968
H  -1.478476   0.833206  -0.782043
H  -0.155410  -1.165942   0.728794
H   0.794579  -0.070823   0.388749
H  -0.076768  -1.720120  -1.134682
