14
butane_opt
C  -3.985093   0.291473   0.089264
C  -2.687294  -0.653960  -0.039842
H  -4.785175  -0.139127  -0.158779
H  -4.051047   0.586998  -0.609384
H  -4.138195   1.151139   1.148561
C  -1.371583   0.173219  -0.040642
H  -2.654761  -1.420755  -0.964990
H  -2.778438  -1.191546   0.756721
C  -0.184645  -0.676410   0.100908
H  -1.304647   0.656380   0.634390
H  -1.184419   0.956927  -1.020140
H   0.060856  -1.535209   1.192281
H   0.744515  -0.026539  -0.210185
H  -0.206655  -1.105347  -0.576275
