14
butane_opt
C  -3.890120   0.247841   0.125481
C  -2.721914  -0.573569  -0.132622
H  -4.856981  -0.440101   0.507181
H  -4.155708   0.961026  -0.807729
H  -3.791615   0.766268   0.968617
C  -1.442121   0.193768  -0.053360
H  -2.881194  -1.465679  -1.150426
H  -2.549831  -1.040176   0.729175
C  -0.151007  -0.707962   0.141478
H  -1.562262   0.730271   0.671128
H  -1.371595   0.954582  -1.066983
H  -0.136798  -1.518673   1.178034
H   0.850671  -0.082156   0.088870
H  -0.098191  -1.246906  -0.640514
