butane_opt
 OpenBabel08242015383D

 14 13  0  0  0  0  0  0  0  0999 V2000
   -3.9040    0.2361   -0.0627 C   0  0  0  0  0  0  0  0  0  0  0  0
   -2.6948   -0.5635    0.1703 C   0  0  0  0  0  0  0  0  0  0  0  0
   -4.7967   -0.3753   -0.0020 H   0  0  0  0  0  0  0  0  0  0  0  0
   -3.9738    1.1122   -1.0877 H   0  0  0  0  0  0  0  0  0  0  0  0
   -3.9961    0.7326    0.6410 H   0  0  0  0  0  0  0  0  0  0  0  0
   -1.4344    0.1723    0.0482 C   0  0  0  0  0  0  0  0  0  0  0  0
   -2.7061   -1.1866   -0.5884 H   0  0  0  0  0  0  0  0  0  0  0  0
   -2.7091   -1.4243    1.1765 H   0  0  0  0  0  0  0  0  0  0  0  0
   -0.1573   -0.6980   -0.0583 C   0  0  0  0  0  0  0  0  0  0  0  0
   -1.4598    1.0531    0.9790 H   0  0  0  0  0  0  0  0  0  0  0  0
   -1.4564    0.5822   -0.7401 H   0  0  0  0  0  0  0  0  0  0  0  0
   -0.3705   -0.9001    0.5744 H   0  0  0  0  0  0  0  0  0  0  0  0
    0.7823   -0.1338    0.3836 H   0  0  0  0  0  0  0  0  0  0  0  0
   -0.0320   -1.6925   -1.1471 H   0  0  0  0  0  0  0  0  0  0  0  0
  1  3  1  0  0  0  0
  1  2  1  0  0  0  0
  1  5  1  0  0  0  0
  2  8  1  0  0  0  0
  4  1  1  0  0  0  0
  6  2  1  0  0  0  0
  6 10  1  0  0  0  0
  7  2  1  0  0  0  0
  9  6  1  0  0  0  0
  9 13  1  0  0  0  0
  9 12  1  0  0  0  0
 11  6  1  0  0  0  0
 14  9  1  0  0  0  0
M  END
$$$$
