butane_opt
 OpenBabel08242015383D

 14 13  0  0  0  0  0  0  0  0999 V2000
   -3.9357    0.2532    0.0442 C   0  0  0  0  0  0  0  0  0  0  0  0
   -2.6944   -0.6116    0.0149 C   0  0  0  0  0  0  0  0  0  0  0  0
   -4.8480   -0.3426   -0.0060 H   0  0  0  0  0  0  0  0  0  0  0  0
   -3.9337    0.7793   -0.8118 H   0  0  0  0  0  0  0  0  0  0  0  0
   -3.9929    1.0120    0.9448 H   0  0  0  0  0  0  0  0  0  0  0  0
   -1.4158    0.2045   -0.0135 C   0  0  0  0  0  0  0  0  0  0  0  0
   -2.7241   -1.2933   -0.8349 H   0  0  0  0  0  0  0  0  0  0  0  0
   -2.7572   -1.2005    0.8503 H   0  0  0  0  0  0  0  0  0  0  0  0
   -0.1600   -0.7042    0.0490 C   0  0  0  0  0  0  0  0  0  0  0  0
   -1.4039    0.8652    0.8385 H   0  0  0  0  0  0  0  0  0  0  0  0
   -1.4200    0.8413   -0.9043 H   0  0  0  0  0  0  0  0  0  0  0  0
   -0.1351   -1.4522    1.0215 H   0  0  0  0  0  0  0  0  0  0  0  0
    0.7779   -0.1029   -0.0367 H   0  0  0  0  0  0  0  0  0  0  0  0
   -0.1159   -1.2771   -0.7282 H   0  0  0  0  0  0  0  0  0  0  0  0
  1  5  1  0  0  0  0
  2  1  1  0  0  0  0
  2  8  1  0  0  0  0
  3  1  1  0  0  0  0
  4  1  1  0  0  0  0
  6  2  1  0  0  0  0
  6  9  1  0  0  0  0
  6 10  1  0  0  0  0
  7  2  1  0  0  0  0
  9 12  1  0  0  0  0
 11  6  1  0  0  0  0
 13  9  1  0  0  0  0
 14  9  1  0  0  0  0
M  END
$$$$
