14
butane_opt
C  -3.914292   0.247368  -0.073052
C  -2.706553  -0.559245   0.195612
H  -4.914087  -0.404973  -0.376469
H  -3.715742   0.806224  -0.901516
H  -4.101991   0.859224   0.755456
C  -1.391512   0.180711   0.105716
H  -2.641902  -1.257600  -0.670291
H  -2.828556  -1.194535   1.114452
C  -0.191496  -0.706565  -0.094344
H  -1.389035   0.864510   0.948117
H  -1.515424   0.831606  -0.870037
H  -0.179014  -1.289410   0.839060
H   0.733012  -0.121438   0.054053
H  -0.030049  -1.535037  -1.077028
