butane_opt
 OpenBabel08242015383D

 14 13  0  0  0  0  0  0  0  0999 V2000
   -3.9143    0.2474   -0.0731 C   0  0  0  0  0  0  0  0  0  0  0  0
   -2.7066   -0.5592    0.1956 C   0  0  0  0  0  0  0  0  0  0  0  0
   -4.9141   -0.4050   -0.3765 H   0  0  0  0  0  0  0  0  0  0  0  0
   -3.7157    0.8062   -0.9015 H   0  0  0  0  0  0  0  0  0  0  0  0
   -4.1020    0.8592    0.7555 H   0  0  0  0  0  0  0  0  0  0  0  0
   -1.3915    0.1807    0.1057 C   0  0  0  0  0  0  0  0  0  0  0  0
   -2.6419   -1.2576   -0.6703 H   0  0  0  0  0  0  0  0  0  0  0  0
   -2.8286   -1.1945    1.1145 H   0  0  0  0  0  0  0  0  0  0  0  0
   -0.1915   -0.7066   -0.0943 C   0  0  0  0  0  0  0  0  0  0  0  0
   -1.3890    0.8645    0.9481 H   0  0  0  0  0  0  0  0  0  0  0  0
   -1.5154    0.8316   -0.8700 H   0  0  0  0  0  0  0  0  0  0  0  0
   -0.1790   -1.2894    0.8391 H   0  0  0  0  0  0  0  0  0  0  0  0
    0.7330   -0.1214    0.0541 H   0  0  0  0  0  0  0  0  0  0  0  0
   -0.0300   -1.5350   -1.0770 H   0  0  0  0  0  0  0  0  0  0  0  0
  1  2  1  0  0  0  0
  1  5  1  0  0  0  0
  2  8  1  0  0  0  0
  3  1  1  0  0  0  0
  4  1  1  0  0  0  0
  6  2  1  0  0  0  0
  6 10  1  0  0  0  0
  7  2  1  0  0  0  0
  9 13  1  0  0  0  0
  9  6  1  0  0  0  0
  9 12  1  0  0  0  0
 11  6  1  0  0  0  0
 14  9  1  0  0  0  0
M  END
$$$$
