butane_opt
 OpenBabel08242015383D

 14 13  0  0  0  0  0  0  0  0999 V2000
   -3.9935    0.3054   -0.0420 C   0  0  0  0  0  0  0  0  0  0  0  0
   -2.6812   -0.6473    0.0760 C   0  0  0  0  0  0  0  0  0  0  0  0
   -4.9106   -0.2508   -0.0747 H   0  0  0  0  0  0  0  0  0  0  0  0
   -4.0885    0.7463   -0.8707 H   0  0  0  0  0  0  0  0  0  0  0  0
   -4.0907    0.9028    0.7677 H   0  0  0  0  0  0  0  0  0  0  0  0
   -1.3761    0.1431    0.0865 C   0  0  0  0  0  0  0  0  0  0  0  0
   -2.6888   -1.2798   -0.7781 H   0  0  0  0  0  0  0  0  0  0  0  0
   -2.6677   -1.2205    0.9971 H   0  0  0  0  0  0  0  0  0  0  0  0
   -0.1528   -0.6612   -0.0347 C   0  0  0  0  0  0  0  0  0  0  0  0
   -1.1941    0.9572    1.0600 H   0  0  0  0  0  0  0  0  0  0  0  0
   -1.4530    0.6225   -0.7011 H   0  0  0  0  0  0  0  0  0  0  0  0
    0.0558   -1.5998    1.0439 H   0  0  0  0  0  0  0  0  0  0  0  0
    0.7159   -0.0233   -0.2718 H   0  0  0  0  0  0  0  0  0  0  0  0
   -0.2698   -1.0085   -0.7204 H   0  0  0  0  0  0  0  0  0  0  0  0
  1  2  1  0  0  0  0
  1  5  1  0  0  0  0
  2  6  1  0  0  0  0
  2  8  1  0  0  0  0
  3  1  1  0  0  0  0
  4  1  1  0  0  0  0
  6 10  1  0  0  0  0
  7  2  1  0  0  0  0
  9  6  1  0  0  0  0
  9 12  1  0  0  0  0
 11  6  1  0  0  0  0
 13  9  1  0  0  0  0
 14  9  1  0  0  0  0
M  END
$$$$
