butane_opt
 OpenBabel08242015383D

 14 13  0  0  0  0  0  0  0  0999 V2000
   -3.9092    0.3084    0.0787 C   0  0  0  0  0  0  0  0  0  0  0  0
   -2.6915   -0.6801   -0.0478 C   0  0  0  0  0  0  0  0  0  0  0  0
   -4.8097   -0.2524    0.4720 H   0  0  0  0  0  0  0  0  0  0  0  0
   -4.3129    1.1334   -0.9194 H   0  0  0  0  0  0  0  0  0  0  0  0
   -3.8192    0.8204    0.8684 H   0  0  0  0  0  0  0  0  0  0  0  0
   -1.4085    0.1451   -0.0386 C   0  0  0  0  0  0  0  0  0  0  0  0
   -2.7145   -1.4389   -1.0074 H   0  0  0  0  0  0  0  0  0  0  0  0
   -2.6403   -1.1074    0.6538 H   0  0  0  0  0  0  0  0  0  0  0  0
   -0.2010   -0.6623    0.1093 C   0  0  0  0  0  0  0  0  0  0  0  0
   -1.2396    0.7175    0.8109 H   0  0  0  0  0  0  0  0  0  0  0  0
   -1.3344    0.8815   -1.0817 H   0  0  0  0  0  0  0  0  0  0  0  0
   -0.2372   -1.2380    0.9886 H   0  0  0  0  0  0  0  0  0  0  0  0
    0.7500    0.0254    0.2399 H   0  0  0  0  0  0  0  0  0  0  0  0
   -0.1575   -1.3348   -0.8006 H   0  0  0  0  0  0  0  0  0  0  0  0
  1  3  1  0  0  0  0
  1  5  1  0  0  0  0
  2  6  1  0  0  0  0
  2  1  1  0  0  0  0
  2  8  1  0  0  0  0
  4  1  1  0  0  0  0
  6  9  1  0  0  0  0
  6 10  1  0  0  0  0
  7  2  1  0  0  0  0
  9 13  1  0  0  0  0
  9 12  1  0  0  0  0
 11  6  1  0  0  0  0
 14  9  1  0  0  0  0
M  END
$$$$
