14
butane_opt
C  -3.942530   0.305435  -0.041215
C  -2.681452  -0.662047   0.081568
H  -4.815367  -0.304864   0.327139
H  -4.101215   1.294999  -1.202549
H  -3.935792   0.693983   0.642255
C  -1.393753   0.131967   0.083723
H  -2.666838  -1.261110  -0.716511
H  -2.664373  -1.264766   0.946202
C  -0.190127  -0.643335  -0.019648
H  -1.284419   1.039597   1.026088
H  -1.210927   0.462530  -0.646422
H  -0.235413  -1.201252   0.767728
H   0.639748  -0.100309  -0.091258
H  -0.245029  -1.405078  -0.924381
