butane_opt
 OpenBabel08242015383D

 14 13  0  0  0  0  0  0  0  0999 V2000
   -3.9439    0.2626    0.0544 C   0  0  0  0  0  0  0  0  0  0  0  0
   -2.7054   -0.6067   -0.0077 C   0  0  0  0  0  0  0  0  0  0  0  0
   -4.8704   -0.3239    0.1620 H   0  0  0  0  0  0  0  0  0  0  0  0
   -4.0468    0.9329   -0.8867 H   0  0  0  0  0  0  0  0  0  0  0  0
   -3.8830    0.8644    0.8892 H   0  0  0  0  0  0  0  0  0  0  0  0
   -1.4024    0.1867   -0.0218 C   0  0  0  0  0  0  0  0  0  0  0  0
   -2.8115   -1.3251   -0.8857 H   0  0  0  0  0  0  0  0  0  0  0  0
   -2.6998   -1.1967    0.8759 H   0  0  0  0  0  0  0  0  0  0  0  0
   -0.1537   -0.7014    0.0618 C   0  0  0  0  0  0  0  0  0  0  0  0
   -1.4413    0.8784    0.8187 H   0  0  0  0  0  0  0  0  0  0  0  0
   -1.3497    0.7630   -0.8754 H   0  0  0  0  0  0  0  0  0  0  0  0
   -0.1674   -1.3611    0.9791 H   0  0  0  0  0  0  0  0  0  0  0  0
    0.7759   -0.0840    0.0712 H   0  0  0  0  0  0  0  0  0  0  0  0
   -0.0675   -1.3067   -0.7572 H   0  0  0  0  0  0  0  0  0  0  0  0
  1  3  1  0  0  0  0
  1  5  1  0  0  0  0
  2  1  1  0  0  0  0
  2  8  1  0  0  0  0
  4  1  1  0  0  0  0
  6  2  1  0  0  0  0
  6  9  1  0  0  0  0
  6 10  1  0  0  0  0
  7  2  1  0  0  0  0
  9 13  1  0  0  0  0
  9 12  1  0  0  0  0
 11  6  1  0  0  0  0
 14  9  1  0  0  0  0
M  END
$$$$
