butane_opt
 OpenBabel08242015383D

 14 13  0  0  0  0  0  0  0  0999 V2000
   -3.9563    0.2781    0.0042 C   0  0  0  0  0  0  0  0  0  0  0  0
   -2.6978   -0.6387    0.0510 C   0  0  0  0  0  0  0  0  0  0  0  0
   -4.8249   -0.2841    0.1513 H   0  0  0  0  0  0  0  0  0  0  0  0
   -4.0402    1.0035   -0.9661 H   0  0  0  0  0  0  0  0  0  0  0  0
   -3.9544    0.8138    0.7526 H   0  0  0  0  0  0  0  0  0  0  0  0
   -1.4057    0.1764    0.0357 C   0  0  0  0  0  0  0  0  0  0  0  0
   -2.7390   -1.3415   -0.8372 H   0  0  0  0  0  0  0  0  0  0  0  0
   -2.7174   -1.2364    0.9403 H   0  0  0  0  0  0  0  0  0  0  0  0
   -0.1439   -0.6790    0.0119 C   0  0  0  0  0  0  0  0  0  0  0  0
   -1.3599    0.8821    0.9221 H   0  0  0  0  0  0  0  0  0  0  0  0
   -1.4063    0.8173   -0.8436 H   0  0  0  0  0  0  0  0  0  0  0  0
   -0.2010   -1.2591    0.8899 H   0  0  0  0  0  0  0  0  0  0  0  0
    0.7759   -0.0943    0.0481 H   0  0  0  0  0  0  0  0  0  0  0  0
   -0.1191   -1.4094   -0.8725 H   0  0  0  0  0  0  0  0  0  0  0  0
  1  2  1  0  0  0  0
  1  3  1  0  0  0  0
  1  5  1  0  0  0  0
  2  8  1  0  0  0  0
  4  1  1  0  0  0  0
  6  2  1  0  0  0  0
  6 10  1  0  0  0  0
  7  2  1  0  0  0  0
  9  6  1  0  0  0  0
  9 13  1  0  0  0  0
  9 12  1  0  0  0  0
 11  6  1  0  0  0  0
 14  9  1  0  0  0  0
M  END
$$$$
