14
butane_opt
C  -3.958051   0.314719   0.014848
C  -2.720223  -0.691194   0.075430
H  -4.797982  -0.289247   0.165137
H  -4.040992   1.239865  -1.045378
H  -4.161049   0.815281   0.793791
C  -1.387852   0.173460  -0.001447
H  -2.865590  -1.344810  -0.752017
H  -2.647841  -1.313635   0.903575
C  -0.141896  -0.678232   0.008786
H  -1.295336   0.780256   0.820887
H  -1.297638   0.752077  -0.873077
H  -0.264192  -0.962472   0.725263
H   0.870243   0.012790   0.507793
H  -0.040796  -1.561768  -1.023070
