14
butane_opt
C  -3.903981   0.236149  -0.062746
C  -2.694787  -0.563529   0.170293
H  -4.796660  -0.375322  -0.001974
H  -3.973771   1.112231  -1.087661
H  -3.996101   0.732647   0.640985
C  -1.434396   0.172256   0.048232
H  -2.706079  -1.186640  -0.588421
H  -2.709136  -1.424321   1.176481
C  -0.157279  -0.698044  -0.058326
H  -1.459828   1.053090   0.979015
H  -1.456404   0.582211  -0.740146
H  -0.370471  -0.900145   0.574429
H   0.782316  -0.133791   0.383623
H  -0.032037  -1.692549  -1.147122
