14
butane_opt
C  -3.949388   0.245408  -0.066964
C  -2.717525  -0.566727   0.171581
H  -4.913918  -0.495237  -0.293008
H  -3.535020   0.826826  -1.042821
H  -4.186940   1.022439   0.779275
C  -1.397849   0.211011   0.096897
H  -2.593055  -1.307035  -0.708395
H  -2.758371  -1.304911   1.173892
C  -0.163227  -0.728580  -0.055836
H  -1.308483   0.963468   0.935602
H  -1.432472   0.763499  -0.702354
H   0.020633  -1.320824   0.788351
H   0.759323  -0.080097  -0.231618
H  -0.315644  -1.483644  -0.994498
