14
butane_opt
C  -3.987937   0.231656  -0.077256
C  -2.725908  -0.561621   0.097260
H  -4.978989  -0.427579   0.498000
H  -4.081728   1.220274  -1.182019
H  -3.761352   0.426741   0.552636
C  -1.390947   0.241398   0.149390
H  -2.569014  -1.348864  -0.809887
H  -2.781880  -1.266175   1.057536
C  -0.121551  -0.751043  -0.061846
H  -1.377819   0.925286   0.908571
H  -1.414995   0.896186  -0.753450
H   0.040207  -1.106666   0.608093
H   0.722710  -0.118478   0.240806
H  -0.078230  -1.605138  -1.016953
