butane_opt
 OpenBabel08242015383D

 14 13  0  0  0  0  0  0  0  0999 V2000
   -3.9005    0.2153   -0.0735 C   0  0  0  0  0  0  0  0  0  0  0  0
   -2.6858   -0.5681    0.1722 C   0  0  0  0  0  0  0  0  0  0  0  0
   -4.7250   -0.2311   -0.3620 H   0  0  0  0  0  0  0  0  0  0  0  0
   -3.6243    0.5581   -0.8489 H   0  0  0  0  0  0  0  0  0  0  0  0
   -4.1372    1.1297    0.8906 H   0  0  0  0  0  0  0  0  0  0  0  0
   -1.4449    0.2208    0.0597 C   0  0  0  0  0  0  0  0  0  0  0  0
   -2.6398   -1.1233   -0.6103 H   0  0  0  0  0  0  0  0  0  0  0  0
   -2.8387   -1.3340    1.1819 H   0  0  0  0  0  0  0  0  0  0  0  0
   -0.1853   -0.7270   -0.0523 C   0  0  0  0  0  0  0  0  0  0  0  0
   -1.2062    0.9274    0.8529 H   0  0  0  0  0  0  0  0  0  0  0  0
   -1.6405    0.6994   -0.7263 H   0  0  0  0  0  0  0  0  0  0  0  0
   -0.1345   -1.2436    0.7576 H   0  0  0  0  0  0  0  0  0  0  0  0
    0.7378   -0.1222   -0.0510 H   0  0  0  0  0  0  0  0  0  0  0  0
   -0.2037   -1.4256   -0.8711 H   0  0  0  0  0  0  0  0  0  0  0  0
  1  2  1  0  0  0  0
  1  5  1  0  0  0  0
  2  8  1  0  0  0  0
  3  1  1  0  0  0  0
  4  1  1  0  0  0  0
  6  2  1  0  0  0  0
  6 10  1  0  0  0  0
  7  2  1  0  0  0  0
  9 13  1  0  0  0  0
  9  6  1  0  0  0  0
  9 12  1  0  0  0  0
 11  6  1  0  0  0  0
 14  9  1  0  0  0  0
M  END
$$$$
