butane_opt
 OpenBabel08242015383D

 14 13  0  0  0  0  0  0  0  0999 V2000
   -3.8901    0.2478    0.1255 C   0  0  0  0  0  0  0  0  0  0  0  0
   -2.7219   -0.5736   -0.1326 C   0  0  0  0  0  0  0  0  0  0  0  0
   -4.8570   -0.4401    0.5072 H   0  0  0  0  0  0  0  0  0  0  0  0
   -4.1557    0.9610   -0.8077 H   0  0  0  0  0  0  0  0  0  0  0  0
   -3.7916    0.7663    0.9686 H   0  0  0  0  0  0  0  0  0  0  0  0
   -1.4421    0.1938   -0.0534 C   0  0  0  0  0  0  0  0  0  0  0  0
   -2.8812   -1.4657   -1.1504 H   0  0  0  0  0  0  0  0  0  0  0  0
   -2.5498   -1.0402    0.7292 H   0  0  0  0  0  0  0  0  0  0  0  0
   -0.1510   -0.7080    0.1415 C   0  0  0  0  0  0  0  0  0  0  0  0
   -1.5623    0.7303    0.6711 H   0  0  0  0  0  0  0  0  0  0  0  0
   -1.3716    0.9546   -1.0670 H   0  0  0  0  0  0  0  0  0  0  0  0
   -0.1368   -1.5187    1.1780 H   0  0  0  0  0  0  0  0  0  0  0  0
    0.8507   -0.0822    0.0889 H   0  0  0  0  0  0  0  0  0  0  0  0
   -0.0982   -1.2469   -0.6405 H   0  0  0  0  0  0  0  0  0  0  0  0
  1  3  1  0  0  0  0
  1  5  1  0  0  0  0
  2  6  1  0  0  0  0
  2  1  1  0  0  0  0
  2  8  1  0  0  0  0
  4  1  1  0  0  0  0
  6  9  1  0  0  0  0
  6 10  1  0  0  0  0
  7  2  1  0  0  0  0
  9 12  1  0  0  0  0
 11  6  1  0  0  0  0
 13  9  1  0  0  0  0
 14  9  1  0  0  0  0
M  END
$$$$
