butane_opt
 OpenBabel08242015383D

 14 11  0  0  0  0  0  0  0  0999 V2000
   -4.0014    0.2918   -0.0703 C   0  0  0  0  0  0  0  0  0  0  0  0
   -2.7092   -0.6430    0.1603 C   0  0  0  0  0  0  0  0  0  0  0  0
   -4.8001   -0.1294    0.1131 H   0  0  0  0  0  0  0  0  0  0  0  0
   -3.9503    1.0287   -0.9780 H   0  0  0  0  0  0  0  0  0  0  0  0
   -4.1435    0.8812    0.7858 H   0  0  0  0  0  0  0  0  0  0  0  0
   -1.3309    0.1268    0.0510 C   0  0  0  0  0  0  0  0  0  0  0  0
   -2.5296   -1.2396   -0.7206 H   0  0  0  0  0  0  0  0  0  0  0  0
   -2.9106   -1.3038    1.1244 H   0  0  0  0  0  0  0  0  0  0  0  0
   -0.1568   -0.6669   -0.0294 C   0  0  0  0  0  0  0  0  0  0  0  0
   -1.3184    0.6986    0.8272 H   0  0  0  0  0  0  0  0  0  0  0  0
   -1.4744    0.7864   -0.8359 H   0  0  0  0  0  0  0  0  0  0  0  0
   -0.2414   -0.7728    0.5615 H   0  0  0  0  0  0  0  0  0  0  0  0
    0.8446   -0.0301    0.3478 H   0  0  0  0  0  0  0  0  0  0  0  0
   -0.1344   -1.6842   -1.1441 H   0  0  0  0  0  0  0  0  0  0  0  0
  1  3  1  0  0  0  0
  1  2  1  0  0  0  0
  1  5  1  0  0  0  0
  2  8  1  0  0  0  0
  4  1  1  0  0  0  0
  6 10  1  0  0  0  0
  7  2  1  0  0  0  0
  9  6  1  0  0  0  0
  9 13  1  0  0  0  0
 11  6  1  0  0  0  0
 14  9  1  0  0  0  0
M  RAD  4   2   2   6   2   9   2  12   2
M  END
$$$$
