14
butane_opt
C  -3.925170   0.262496   0.097954
C  -2.694159  -0.629139  -0.082755
H  -4.785359  -0.312715  -0.025941
H  -4.117659   0.807058  -0.651017
H  -3.813268   1.176465   1.098215
C  -1.396070   0.163884  -0.017619
H  -2.634666  -1.438050  -0.986199
H  -2.552341  -1.048185   0.611941
C  -0.206832  -0.676099   0.114556
H  -1.321837   0.662370   0.695218
H  -1.327655   0.986648  -1.085009
H  -0.071759  -1.663078   1.330964
H   0.637483  -0.076509  -0.322713
H  -0.362823  -1.025865  -0.517751
