14
butane_opt
C  -3.956442   0.290652   0.049161
C  -2.677509  -0.655708  -0.000814
H  -4.730567  -0.193416   0.031816
H  -3.947895   0.833554  -0.861770
H  -3.968234   1.019457   0.998088
C  -1.429263   0.167005  -0.018390
H  -2.815290  -1.483062  -0.953745
H  -2.550370  -1.318378   0.868550
C  -0.161402  -0.660145   0.058787
H  -1.398512   0.963270   0.907924
H  -1.343254   0.647171  -0.941498
H  -0.101481  -1.534319   1.091459
H   0.758313  -0.043607  -0.098418
H  -0.263391  -1.012482  -0.628717
