14
butane_opt
C  -3.943642   0.243864  -0.067999
C  -2.738756  -0.612860   0.124202
H  -4.861622  -0.360981   0.006082
H  -3.936400   0.909905  -1.056507
H  -4.194781   0.938625   0.732636
C  -1.372252   0.226418   0.083995
H  -2.678964  -1.169198  -0.591021
H  -2.718453  -1.290876   1.095113
C  -0.150098  -0.719084  -0.047285
H  -1.356848   1.090275   1.090864
H  -1.319080   0.603240  -0.676333
H   0.087727  -1.328235   0.762246
H   0.590661  -0.186854  -0.159386
H  -0.146147  -1.356289  -0.886606
