butane_opt
 OpenBabel08242015383D

 14 13  0  0  0  0  0  0  0  0999 V2000
   -3.9424    0.2703    0.0372 C   0  0  0  0  0  0  0  0  0  0  0  0
   -2.6895   -0.6311    0.0238 C   0  0  0  0  0  0  0  0  0  0  0  0
   -4.8594   -0.3280   -0.0479 H   0  0  0  0  0  0  0  0  0  0  0  0
   -3.9703    0.7749   -0.7915 H   0  0  0  0  0  0  0  0  0  0  0  0
   -3.9553    1.0222    0.9514 H   0  0  0  0  0  0  0  0  0  0  0  0
   -1.4137    0.1900   -0.0103 C   0  0  0  0  0  0  0  0  0  0  0  0
   -2.6866   -1.3135   -0.8544 H   0  0  0  0  0  0  0  0  0  0  0  0
   -2.7201   -1.1947    0.8813 H   0  0  0  0  0  0  0  0  0  0  0  0
   -0.1671   -0.6908    0.0530 C   0  0  0  0  0  0  0  0  0  0  0  0
   -1.3942    0.7978    0.8056 H   0  0  0  0  0  0  0  0  0  0  0  0
   -1.3696    0.8698   -0.9293 H   0  0  0  0  0  0  0  0  0  0  0  0
   -0.0873   -1.3869    0.9958 H   0  0  0  0  0  0  0  0  0  0  0  0
    0.7353   -0.0649   -0.0349 H   0  0  0  0  0  0  0  0  0  0  0  0
   -0.1677   -1.3117   -0.7613 H   0  0  0  0  0  0  0  0  0  0  0  0
  1  5  1  0  0  0  0
  2  1  1  0  0  0  0
  2  8  1  0  0  0  0
  3  1  1  0  0  0  0
  4  1  1  0  0  0  0
  6  2  1  0  0  0  0
  6  9  1  0  0  0  0
  6 10  1  0  0  0  0
  7  2  1  0  0  0  0
  9 12  1  0  0  0  0
 11  6  1  0  0  0  0
 13  9  1  0  0  0  0
 14  9  1  0  0  0  0
M  END
$$$$
