butane_opt
 OpenBabel08242015383D

 14 11  0  0  0  0  0  0  0  0999 V2000
   -3.9726    0.2732    0.0714 C   0  0  0  0  0  0  0  0  0  0  0  0
   -2.7173   -0.6153   -0.0742 C   0  0  0  0  0  0  0  0  0  0  0  0
   -4.8123   -0.2981    0.0020 H   0  0  0  0  0  0  0  0  0  0  0  0
   -4.1957    0.6216   -0.6789 H   0  0  0  0  0  0  0  0  0  0  0  0
   -3.8198    1.1268    1.0516 H   0  0  0  0  0  0  0  0  0  0  0  0
   -1.3965    0.1550   -0.0100 C   0  0  0  0  0  0  0  0  0  0  0  0
   -2.7009   -1.3365   -0.9181 H   0  0  0  0  0  0  0  0  0  0  0  0
   -2.7750   -1.2428    0.7616 H   0  0  0  0  0  0  0  0  0  0  0  0
   -0.1227   -0.6790    0.0989 C   0  0  0  0  0  0  0  0  0  0  0  0
   -1.4439    0.9267    0.8853 H   0  0  0  0  0  0  0  0  0  0  0  0
   -1.5269    0.8357   -0.9898 H   0  0  0  0  0  0  0  0  0  0  0  0
    0.1112   -1.7150    1.2285 H   0  0  0  0  0  0  0  0  0  0  0  0
    0.8171   -0.0473   -0.4378 H   0  0  0  0  0  0  0  0  0  0  0  0
   -0.2043   -0.9135   -0.4258 H   0  0  0  0  0  0  0  0  0  0  0  0
  1  5  1  0  0  0  0
  2  6  1  0  0  0  0
  2  1  1  0  0  0  0
  2  8  1  0  0  0  0
  3  1  1  0  0  0  0
  4  1  1  0  0  0  0
  6  9  1  0  0  0  0
  6 10  1  0  0  0  0
  7  2  1  0  0  0  0
 11  6  1  0  0  0  0
 13  9  1  0  0  0  0
M  RAD  3   9   3  12   2  14   2
M  END
$$$$
