butane_opt
 OpenBabel08242015383D

 14 13  0  0  0  0  0  0  0  0999 V2000
   -3.9506    0.2779    0.0469 C   0  0  0  0  0  0  0  0  0  0  0  0
   -2.6879   -0.6229    0.0146 C   0  0  0  0  0  0  0  0  0  0  0  0
   -4.9058   -0.3314    0.0931 H   0  0  0  0  0  0  0  0  0  0  0  0
   -3.9802    0.8713   -0.8395 H   0  0  0  0  0  0  0  0  0  0  0  0
   -3.9795    0.9516    0.9053 H   0  0  0  0  0  0  0  0  0  0  0  0
   -1.3916    0.1714   -0.0318 C   0  0  0  0  0  0  0  0  0  0  0  0
   -2.7627   -1.2979   -0.8550 H   0  0  0  0  0  0  0  0  0  0  0  0
   -2.6727   -1.2662    0.9243 H   0  0  0  0  0  0  0  0  0  0  0  0
   -0.1684   -0.6900    0.0564 C   0  0  0  0  0  0  0  0  0  0  0  0
   -1.4148    0.8552    0.8418 H   0  0  0  0  0  0  0  0  0  0  0  0
   -1.3337    0.8012   -0.9256 H   0  0  0  0  0  0  0  0  0  0  0  0
   -0.2582   -1.2610    0.9213 H   0  0  0  0  0  0  0  0  0  0  0  0
    0.7495   -0.0819    0.1455 H   0  0  0  0  0  0  0  0  0  0  0  0
   -0.0806   -1.3537   -0.8086 H   0  0  0  0  0  0  0  0  0  0  0  0
  1  3  1  0  0  0  0
  1  5  1  0  0  0  0
  2  1  1  0  0  0  0
  2  8  1  0  0  0  0
  4  1  1  0  0  0  0
  6  2  1  0  0  0  0
  6  9  1  0  0  0  0
  6 10  1  0  0  0  0
  7  2  1  0  0  0  0
  9 13  1  0  0  0  0
  9 12  1  0  0  0  0
 11  6  1  0  0  0  0
 14  9  1  0  0  0  0
M  END
$$$$
