butane_opt
 OpenBabel08242015383D

 14 13  0  0  0  0  0  0  0  0999 V2000
   -3.9449    0.2552    0.0820 C   0  0  0  0  0  0  0  0  0  0  0  0
   -2.7226   -0.6038    0.0015 C   0  0  0  0  0  0  0  0  0  0  0  0
   -4.9387   -0.3910    0.1193 H   0  0  0  0  0  0  0  0  0  0  0  0
   -3.9530    0.9560   -0.9307 H   0  0  0  0  0  0  0  0  0  0  0  0
   -3.9298    0.7662    0.8853 H   0  0  0  0  0  0  0  0  0  0  0  0
   -1.4356    0.2037   -0.0733 C   0  0  0  0  0  0  0  0  0  0  0  0
   -2.7978   -1.1704   -0.7155 H   0  0  0  0  0  0  0  0  0  0  0  0
   -2.5638   -1.2623    0.8226 H   0  0  0  0  0  0  0  0  0  0  0  0
   -0.1303   -0.7142    0.0868 C   0  0  0  0  0  0  0  0  0  0  0  0
   -1.3974    0.9269    0.7744 H   0  0  0  0  0  0  0  0  0  0  0  0
   -1.4620    0.7809   -0.9898 H   0  0  0  0  0  0  0  0  0  0  0  0
   -0.3198   -1.0613    0.7959 H   0  0  0  0  0  0  0  0  0  0  0  0
    0.9091   -0.0717    0.3740 H   0  0  0  0  0  0  0  0  0  0  0  0
    0.2168   -1.6291   -0.9070 H   0  0  0  0  0  0  0  0  0  0  0  0
  1  3  1  0  0  0  0
  1  5  1  0  0  0  0
  2  1  1  0  0  0  0
  2  8  1  0  0  0  0
  4  1  1  0  0  0  0
  6  2  1  0  0  0  0
  6  9  1  0  0  0  0
  6 10  1  0  0  0  0
  7  2  1  0  0  0  0
  9 13  1  0  0  0  0
  9 12  1  0  0  0  0
 11  6  1  0  0  0  0
 14  9  1  0  0  0  0
M  END
$$$$
