14
butane_opt
C  -3.933953   0.265609   0.082530
C  -2.691488  -0.604057  -0.018339
H  -4.742197  -0.319694   0.264239
H  -3.946989   0.860179  -0.833090
H  -3.819601   0.993036   1.000359
C  -1.418773   0.147175  -0.091213
H  -2.906273  -1.341892  -0.952685
H  -2.640620  -1.032672   0.781792
C  -0.164574  -0.691440   0.105999
H  -1.435690   0.782836   0.725761
H  -1.392126   0.790636  -1.008128
H  -0.373535  -1.259750   0.954015
H   0.779514  -0.053262   0.286740
H  -0.051768  -1.284148  -0.714758
