butane_opt
 OpenBabel08242015383D

 14 13  0  0  0  0  0  0  0  0999 V2000
   -3.9548    0.2499   -0.0898 C   0  0  0  0  0  0  0  0  0  0  0  0
   -2.7423   -0.5786    0.0919 C   0  0  0  0  0  0  0  0  0  0  0  0
   -5.0145   -0.5696   -0.0809 H   0  0  0  0  0  0  0  0  0  0  0  0
   -3.9781    0.9131   -1.0321 H   0  0  0  0  0  0  0  0  0  0  0  0
   -3.9046    0.8117    0.7360 H   0  0  0  0  0  0  0  0  0  0  0  0
   -1.3789    0.2359    0.1824 C   0  0  0  0  0  0  0  0  0  0  0  0
   -2.5780   -1.0804   -0.6599 H   0  0  0  0  0  0  0  0  0  0  0  0
   -2.9620   -1.2955    1.1077 H   0  0  0  0  0  0  0  0  0  0  0  0
   -0.1189   -0.7521   -0.0864 C   0  0  0  0  0  0  0  0  0  0  0  0
   -1.2520    1.0517    1.1005 H   0  0  0  0  0  0  0  0  0  0  0  0
   -1.5541    0.6946   -0.5938 H   0  0  0  0  0  0  0  0  0  0  0  0
    0.2205   -1.5138    0.9417 H   0  0  0  0  0  0  0  0  0  0  0  0
    0.7150   -0.2582   -0.4715 H   0  0  0  0  0  0  0  0  0  0  0  0
   -0.3339   -1.1097   -0.7603 H   0  0  0  0  0  0  0  0  0  0  0  0
  1  3  1  0  0  0  0
  1  2  1  0  0  0  0
  1  5  1  0  0  0  0
  2  6  1  0  0  0  0
  2  8  1  0  0  0  0
  4  1  1  0  0  0  0
  6 10  1  0  0  0  0
  7  2  1  0  0  0  0
  9  6  1  0  0  0  0
  9 12  1  0  0  0  0
 11  6  1  0  0  0  0
 13  9  1  0  0  0  0
 14  9  1  0  0  0  0
M  END
$$$$
