butane_opt
 OpenBabel08242015383D

 14 12  0  0  0  0  0  0  0  0999 V2000
   -3.9425    0.3054   -0.0412 C   0  0  0  0  0  0  0  0  0  0  0  0
   -2.6815   -0.6620    0.0816 C   0  0  0  0  0  0  0  0  0  0  0  0
   -4.8154   -0.3049    0.3271 H   0  0  0  0  0  0  0  0  0  0  0  0
   -4.1012    1.2950   -1.2025 H   0  0  0  0  0  0  0  0  0  0  0  0
   -3.9358    0.6940    0.6423 H   0  0  0  0  0  0  0  0  0  0  0  0
   -1.3938    0.1320    0.0837 C   0  0  0  0  0  0  0  0  0  0  0  0
   -2.6668   -1.2611   -0.7165 H   0  0  0  0  0  0  0  0  0  0  0  0
   -2.6644   -1.2648    0.9462 H   0  0  0  0  0  0  0  0  0  0  0  0
   -0.1901   -0.6433   -0.0196 C   0  0  0  0  0  0  0  0  0  0  0  0
   -1.2844    1.0396    1.0261 H   0  0  0  0  0  0  0  0  0  0  0  0
   -1.2109    0.4625   -0.6464 H   0  0  0  0  0  0  0  0  0  0  0  0
   -0.2354   -1.2013    0.7677 H   0  0  0  0  0  0  0  0  0  0  0  0
    0.6397   -0.1003   -0.0913 H   0  0  0  0  0  0  0  0  0  0  0  0
   -0.2450   -1.4051   -0.9244 H   0  0  0  0  0  0  0  0  0  0  0  0
  1  2  1  0  0  0  0
  1  3  1  0  0  0  0
  1  5  1  0  0  0  0
  2  6  1  0  0  0  0
  2  8  1  0  0  0  0
  6 10  1  0  0  0  0
  7  2  1  0  0  0  0
  9  6  1  0  0  0  0
  9 12  1  0  0  0  0
 11  6  1  0  0  0  0
 13  9  1  0  0  0  0
 14  9  1  0  0  0  0
M  RAD  2   1   2   4   2
M  END
$$$$
