14
butane_opt
C  -4.004298   0.299893  -0.083356
C  -2.671758  -0.695096   0.131570
H  -4.852014  -0.155983   0.256255
H  -4.039358   1.016429  -1.007513
H  -3.987738   0.906444   0.780425
C  -1.389829   0.145101   0.044683
H  -2.680418  -1.114544  -0.536434
H  -2.766567  -1.451670   1.179788
C  -0.152213  -0.629138  -0.036234
H  -1.208607   0.879819   1.005577
H  -1.423222   0.792579  -0.838688
H  -0.258397  -0.889339   0.603284
H   0.699529  -0.117902   0.497348
H   0.073953  -1.793951  -1.221794
