14
butane_opt
C  -3.950123   0.308554  -0.055671
C  -2.679485  -0.681814   0.133796
H  -4.803898  -0.208385   0.070823
H  -3.924393   1.203052  -1.211216
H  -4.008495   0.654322   0.666233
C  -1.407974   0.151413   0.087358
H  -2.584682  -1.269344  -0.663514
H  -2.549495  -1.500159   1.105957
C  -0.198324  -0.641611  -0.045397
H  -1.303830   1.032315   1.045573
H  -1.430573   0.691418  -0.723610
H  -0.257211  -1.038024   0.664148
H   0.759957   0.007063   0.153939
H  -0.121396  -1.662889  -1.183896
