butane_opt
 OpenBabel08242015383D

 14 12  0  0  0  0  0  0  0  0999 V2000
   -3.9879    0.2317   -0.0773 C   0  0  0  0  0  0  0  0  0  0  0  0
   -2.7259   -0.5616    0.0973 C   0  0  0  0  0  0  0  0  0  0  0  0
   -4.9790   -0.4276    0.4980 H   0  0  0  0  0  0  0  0  0  0  0  0
   -4.0817    1.2203   -1.1820 H   0  0  0  0  0  0  0  0  0  0  0  0
   -3.7614    0.4267    0.5526 H   0  0  0  0  0  0  0  0  0  0  0  0
   -1.3909    0.2414    0.1494 C   0  0  0  0  0  0  0  0  0  0  0  0
   -2.5690   -1.3489   -0.8099 H   0  0  0  0  0  0  0  0  0  0  0  0
   -2.7819   -1.2662    1.0575 H   0  0  0  0  0  0  0  0  0  0  0  0
   -0.1216   -0.7510   -0.0618 C   0  0  0  0  0  0  0  0  0  0  0  0
   -1.3778    0.9253    0.9086 H   0  0  0  0  0  0  0  0  0  0  0  0
   -1.4150    0.8962   -0.7534 H   0  0  0  0  0  0  0  0  0  0  0  0
    0.0402   -1.1067    0.6081 H   0  0  0  0  0  0  0  0  0  0  0  0
    0.7227   -0.1185    0.2408 H   0  0  0  0  0  0  0  0  0  0  0  0
   -0.0782   -1.6051   -1.0170 H   0  0  0  0  0  0  0  0  0  0  0  0
  1  2  1  0  0  0  0
  1  3  1  0  0  0  0
  1  5  1  0  0  0  0
  2  8  1  0  0  0  0
  4  1  1  0  0  0  0
  6 10  1  0  0  0  0
  7  2  1  0  0  0  0
  9  6  1  0  0  0  0
  9 13  1  0  0  0  0
  9 12  1  0  0  0  0
 11  6  1  0  0  0  0
 14  9  1  0  0  0  0
M  RAD  2   2   2   6   2
M  END
$$$$
