butane_opt
 OpenBabel08242015383D

 14 13  0  0  0  0  0  0  0  0999 V2000
   -3.9107    0.2114   -0.0246 C   0  0  0  0  0  0  0  0  0  0  0  0
   -2.6974   -0.5651    0.0879 C   0  0  0  0  0  0  0  0  0  0  0  0
   -4.7965   -0.3672    0.2135 H   0  0  0  0  0  0  0  0  0  0  0  0
   -3.8797    1.0645   -1.0548 H   0  0  0  0  0  0  0  0  0  0  0  0
   -3.8326    0.5915    0.7079 H   0  0  0  0  0  0  0  0  0  0  0  0
   -1.4335    0.2033    0.0431 C   0  0  0  0  0  0  0  0  0  0  0  0
   -2.7837   -1.0084   -0.6814 H   0  0  0  0  0  0  0  0  0  0  0  0
   -2.7257   -1.2688    1.0266 H   0  0  0  0  0  0  0  0  0  0  0  0
   -0.1567   -0.7116   -0.0105 C   0  0  0  0  0  0  0  0  0  0  0  0
   -1.6048    1.0033    0.9647 H   0  0  0  0  0  0  0  0  0  0  0  0
   -1.4738    0.8642   -0.8493 H   0  0  0  0  0  0  0  0  0  0  0  0
   -0.2186   -1.0092    0.6096 H   0  0  0  0  0  0  0  0  0  0  0  0
    0.6753   -0.2359    0.3213 H   0  0  0  0  0  0  0  0  0  0  0  0
    0.0043   -1.7850   -1.0484 H   0  0  0  0  0  0  0  0  0  0  0  0
  1  2  1  0  0  0  0
  1  3  1  0  0  0  0
  1  5  1  0  0  0  0
  2  8  1  0  0  0  0
  4  1  1  0  0  0  0
  6  2  1  0  0  0  0
  6 10  1  0  0  0  0
  7  2  1  0  0  0  0
  9  6  1  0  0  0  0
  9 13  1  0  0  0  0
  9 12  1  0  0  0  0
 11  6  1  0  0  0  0
 14  9  1  0  0  0  0
M  END
$$$$
