14
butane_opt
C  -3.949484   0.217168   0.045302
C  -2.704358  -0.574574  -0.035578
H  -4.836445  -0.438392   0.457655
H  -4.077521   1.097056  -1.003642
H  -3.694575   0.648701   0.814112
C  -1.407495   0.238417  -0.012065
H  -2.745774  -1.369917  -0.925222
H  -2.671353  -1.149282   0.865349
C  -0.147529  -0.722560   0.066841
H  -1.352637   1.073058   0.931860
H  -1.589249   0.787371  -0.787315
H  -0.186647  -1.372807   0.998262
H   0.593676  -0.319147   0.002461
H   0.071054  -1.338495  -0.710337
