14
butane_opt
C  -3.930509   0.286465   0.116960
C  -2.671362  -0.609972  -0.064981
H  -4.805126  -0.297142   0.381553
H  -4.209657   0.884071  -0.782861
H  -3.861163   1.105086   1.050687
C  -1.401158   0.112943  -0.134996
H  -2.579492  -1.446143  -1.017672
H  -2.692896  -1.298278   0.824614
C  -0.203353  -0.648693   0.144983
H  -1.484674   0.691718   0.704329
H  -1.368662   0.769043  -1.058162
H  -0.449292  -1.216627   0.977097
H   0.894950   0.123200   0.346559
H  -0.011263  -1.426234  -0.709183
