14
butane_opt
C  -3.959430   0.249674  -0.065478
C  -2.715407  -0.579103   0.085771
H  -5.049641  -0.493092   0.398878
H  -4.066883   1.003611  -1.136659
H  -3.824432   0.697738   0.645514
C  -1.418753   0.226284   0.088177
H  -2.673239  -1.183484  -0.762591
H  -2.669074  -1.431945   1.147274
C  -0.116542  -0.722935  -0.033848
H  -1.353129   0.979117   1.039162
H  -1.452615   0.728230  -0.686752
H  -0.065048  -1.165481   0.751088
H   0.724826  -0.131604   0.157843
H  -0.045472  -1.580695  -1.045439
