14
butane_opt
C  -3.932137   0.261302   0.030385
C  -2.707287  -0.613468   0.037179
H  -4.811844  -0.327157   0.059754
H  -3.904627   0.864808  -0.852407
H  -3.939253   0.934140   0.891441
C  -1.415079   0.201743  -0.011414
H  -2.727249  -1.343838  -0.854306
H  -2.739578  -1.209707   0.885420
C  -0.162601  -0.705255   0.045076
H  -1.373888   0.825278   0.807318
H  -1.406723   0.834665  -0.897346
H  -0.173510  -1.272480   0.936867
H   0.756175  -0.113947   0.059186
H  -0.102497  -1.388325  -0.806131
