butane_opt
 OpenBabel08242015383D

 14 13  0  0  0  0  0  0  0  0999 V2000
   -3.9594    0.2497   -0.0655 C   0  0  0  0  0  0  0  0  0  0  0  0
   -2.7154   -0.5791    0.0858 C   0  0  0  0  0  0  0  0  0  0  0  0
   -5.0496   -0.4931    0.3989 H   0  0  0  0  0  0  0  0  0  0  0  0
   -4.0669    1.0036   -1.1367 H   0  0  0  0  0  0  0  0  0  0  0  0
   -3.8244    0.6977    0.6455 H   0  0  0  0  0  0  0  0  0  0  0  0
   -1.4188    0.2263    0.0882 C   0  0  0  0  0  0  0  0  0  0  0  0
   -2.6732   -1.1835   -0.7626 H   0  0  0  0  0  0  0  0  0  0  0  0
   -2.6691   -1.4319    1.1473 H   0  0  0  0  0  0  0  0  0  0  0  0
   -0.1165   -0.7229   -0.0338 C   0  0  0  0  0  0  0  0  0  0  0  0
   -1.3531    0.9791    1.0392 H   0  0  0  0  0  0  0  0  0  0  0  0
   -1.4526    0.7282   -0.6868 H   0  0  0  0  0  0  0  0  0  0  0  0
   -0.0650   -1.1655    0.7511 H   0  0  0  0  0  0  0  0  0  0  0  0
    0.7248   -0.1316    0.1578 H   0  0  0  0  0  0  0  0  0  0  0  0
   -0.0455   -1.5807   -1.0454 H   0  0  0  0  0  0  0  0  0  0  0  0
  1  2  1  0  0  0  0
  1  3  1  0  0  0  0
  1  5  1  0  0  0  0
  2  6  1  0  0  0  0
  2  8  1  0  0  0  0
  4  1  1  0  0  0  0
  6 10  1  0  0  0  0
  7  2  1  0  0  0  0
  9  6  1  0  0  0  0
  9 13  1  0  0  0  0
  9 12  1  0  0  0  0
 11  6  1  0  0  0  0
 14  9  1  0  0  0  0
M  END
$$$$
