14
butane_opt
C  -3.942442   0.306558  -0.067351
C  -2.712632  -0.686510   0.063585
H  -4.915488  -0.283064   0.525505
H  -4.126903   1.348602  -1.162489
H  -3.945520   0.657139   0.570819
C  -1.382041   0.162130   0.107074
H  -2.648113  -1.299905  -0.718917
H  -2.607161  -1.402307   1.031665
C  -0.174354  -0.660613  -0.027857
H  -1.352498   1.101209   1.153736
H  -1.250189   0.685753  -0.627946
H  -0.085339  -1.213458   0.749421
H   0.707581  -0.048428  -0.050482
H  -0.260923  -1.482121  -0.999185
