14
butane_opt
C  -3.971270   0.311661   0.076349
C  -2.713017  -0.660089   0.011387
H  -4.838023  -0.278043  -0.255492
H  -3.912003   0.709865  -0.641597
H  -4.181696   1.179491   0.982205
C  -1.385064   0.153505  -0.060552
H  -2.714449  -1.459730  -0.823312
H  -2.612015  -1.157850   0.790192
C  -0.148297  -0.677443   0.072554
H  -1.284556   0.751557   0.723340
H  -1.367371   0.765586  -0.929367
H  -0.124075  -1.482822   1.165105
H   0.879561   0.115079  -0.035468
H  -0.281544  -1.132401  -0.678286
