14
butane_opt
C  -3.968348   0.283979  -0.077833
C  -2.708740  -0.642397   0.113072
H  -4.812975  -0.366203   0.488378
H  -4.222730   1.491348  -1.288802
H  -3.894259   0.545990   0.535742
C  -1.356615   0.168116   0.131113
H  -2.775584  -1.428240  -0.844808
H  -2.781805  -1.159326   0.994574
C  -0.135617  -0.688848  -0.052254
H  -1.268942   0.997522   1.068518
H  -1.552211   0.692023  -0.719622
H  -0.294126  -1.083964   0.734186
H   0.813168  -0.048618   0.036395
H  -0.186709  -1.546041  -1.009218
