butane_opt
 OpenBabel08242015383D

 14 13  0  0  0  0  0  0  0  0999 V2000
   -3.9090    0.2406    0.1122 C   0  0  0  0  0  0  0  0  0  0  0  0
   -2.6865   -0.5645   -0.1061 C   0  0  0  0  0  0  0  0  0  0  0  0
   -4.8283   -0.4229    0.3925 H   0  0  0  0  0  0  0  0  0  0  0  0
   -4.2065    1.0028   -0.8573 H   0  0  0  0  0  0  0  0  0  0  0  0
   -3.5802    0.6853    0.9148 H   0  0  0  0  0  0  0  0  0  0  0  0
   -1.4246    0.1738   -0.0790 C   0  0  0  0  0  0  0  0  0  0  0  0
   -2.8303   -1.1506   -0.8717 H   0  0  0  0  0  0  0  0  0  0  0  0
   -2.8049   -1.0576    0.7453 H   0  0  0  0  0  0  0  0  0  0  0  0
   -0.1775   -0.7306    0.1418 C   0  0  0  0  0  0  0  0  0  0  0  0
   -1.6109    0.9623    0.7831 H   0  0  0  0  0  0  0  0  0  0  0  0
   -1.3025    0.7897   -0.9071 H   0  0  0  0  0  0  0  0  0  0  0  0
   -0.1657   -1.3055    1.0601 H   0  0  0  0  0  0  0  0  0  0  0  0
    0.8359   -0.0605    0.0524 H   0  0  0  0  0  0  0  0  0  0  0  0
   -0.1579   -1.3519   -0.7366 H   0  0  0  0  0  0  0  0  0  0  0  0
  1  3  1  0  0  0  0
  1  5  1  0  0  0  0
  2  6  1  0  0  0  0
  2  1  1  0  0  0  0
  2  8  1  0  0  0  0
  4  1  1  0  0  0  0
  6  9  1  0  0  0  0
  6 10  1  0  0  0  0
  7  2  1  0  0  0  0
  9 12  1  0  0  0  0
 11  6  1  0  0  0  0
 13  9  1  0  0  0  0
 14  9  1  0  0  0  0
M  END
$$$$
