butane_opt
 OpenBabel08242015383D

 14 13  0  0  0  0  0  0  0  0999 V2000
   -3.9581    0.3147    0.0148 C   0  0  0  0  0  0  0  0  0  0  0  0
   -2.7202   -0.6912    0.0754 C   0  0  0  0  0  0  0  0  0  0  0  0
   -4.7980   -0.2892    0.1651 H   0  0  0  0  0  0  0  0  0  0  0  0
   -4.0410    1.2399   -1.0454 H   0  0  0  0  0  0  0  0  0  0  0  0
   -4.1610    0.8153    0.7938 H   0  0  0  0  0  0  0  0  0  0  0  0
   -1.3879    0.1735   -0.0014 C   0  0  0  0  0  0  0  0  0  0  0  0
   -2.8656   -1.3448   -0.7520 H   0  0  0  0  0  0  0  0  0  0  0  0
   -2.6478   -1.3136    0.9036 H   0  0  0  0  0  0  0  0  0  0  0  0
   -0.1419   -0.6782    0.0088 C   0  0  0  0  0  0  0  0  0  0  0  0
   -1.2953    0.7803    0.8209 H   0  0  0  0  0  0  0  0  0  0  0  0
   -1.2976    0.7521   -0.8731 H   0  0  0  0  0  0  0  0  0  0  0  0
   -0.2642   -0.9625    0.7253 H   0  0  0  0  0  0  0  0  0  0  0  0
    0.8702    0.0128    0.5078 H   0  0  0  0  0  0  0  0  0  0  0  0
   -0.0408   -1.5618   -1.0231 H   0  0  0  0  0  0  0  0  0  0  0  0
  1  2  1  0  0  0  0
  1  3  1  0  0  0  0
  1  5  1  0  0  0  0
  2  8  1  0  0  0  0
  4  1  1  0  0  0  0
  6  9  1  0  0  0  0
  6  2  1  0  0  0  0
  6 10  1  0  0  0  0
  7  2  1  0  0  0  0
  9 13  1  0  0  0  0
  9 12  1  0  0  0  0
 11  6  1  0  0  0  0
 14  9  1  0  0  0  0
M  END
$$$$
