14
butane_opt
C  -3.964165   0.305564  -0.019876
C  -2.685633  -0.660670   0.034743
H  -4.838169  -0.214111   0.174639
H  -4.082698   0.959899  -0.960483
H  -3.829630   0.916339   0.824878
C  -1.396101   0.118483   0.055455
H  -2.567825  -1.280292  -0.794511
H  -2.813518  -1.374825   0.986088
C  -0.152369  -0.658668   0.027558
H  -1.420915   0.998186   1.031118
H  -1.456108   0.746391  -0.757291
H  -0.162827  -1.304959   0.878167
H   0.784965   0.071208  -0.299753
H  -0.286495  -1.229093  -0.823798
