14
butane_opt
C  -3.969526   0.245381  -0.034256
C  -2.727317  -0.600617   0.080928
H  -4.850298  -0.331068   0.380326
H  -4.101571   1.257516  -1.203058
H  -3.951595   0.506315   0.544161
C  -1.390940   0.215957   0.068883
H  -2.602779  -1.215639  -0.708332
H  -2.797355  -1.327109   1.068423
C  -0.094926  -0.725479  -0.048334
H  -1.346703   1.069121   1.064939
H  -1.534349   0.641146  -0.584206
H  -0.253698  -1.057025   0.712357
H   0.731616  -0.096439   0.246580
H  -0.088795  -1.549060  -0.945195
