14
butane_opt
C  -3.946989   0.257860   0.079412
C  -2.682973  -0.590913  -0.029171
H  -4.800299  -0.255749  -0.348134
H  -3.894175   0.594992  -0.650809
H  -3.911845   1.291936   1.211588
C  -1.417555   0.131631  -0.044545
H  -2.739392  -1.213893  -0.806127
H  -2.659551  -1.279221   0.924580
C  -0.186263  -0.680322   0.079930
H  -1.478411   0.818164   0.753417
H  -1.136937   0.897699  -1.003133
H  -0.164319  -1.566408   1.130424
H   0.860863  -0.000972  -0.184776
H  -0.302721  -1.165775  -0.588387
