butane_opt
 OpenBabel08242015383D

 14 13  0  0  0  0  0  0  0  0999 V2000
   -3.8872    0.2339    0.0052 C   0  0  0  0  0  0  0  0  0  0  0  0
   -2.7027   -0.5708    0.0448 C   0  0  0  0  0  0  0  0  0  0  0  0
   -4.8014   -0.3194   -0.0267 H   0  0  0  0  0  0  0  0  0  0  0  0
   -3.8930    1.0249   -0.9442 H   0  0  0  0  0  0  0  0  0  0  0  0
   -3.9133    0.6434    0.6924 H   0  0  0  0  0  0  0  0  0  0  0  0
   -1.4269    0.2125    0.0621 C   0  0  0  0  0  0  0  0  0  0  0  0
   -2.7531   -1.2189   -0.8181 H   0  0  0  0  0  0  0  0  0  0  0  0
   -2.8386   -1.1824    0.9098 H   0  0  0  0  0  0  0  0  0  0  0  0
   -0.1741   -0.7159   -0.0082 C   0  0  0  0  0  0  0  0  0  0  0  0
   -1.4295    1.0408    1.0694 H   0  0  0  0  0  0  0  0  0  0  0  0
   -1.4367    0.5916   -0.6830 H   0  0  0  0  0  0  0  0  0  0  0  0
   -0.0696   -1.5339    1.0937 H   0  0  0  0  0  0  0  0  0  0  0  0
    0.7274   -0.1967   -0.3116 H   0  0  0  0  0  0  0  0  0  0  0  0
   -0.3196   -1.2385   -0.8077 H   0  0  0  0  0  0  0  0  0  0  0  0
  1  2  1  0  0  0  0
  1  5  1  0  0  0  0
  2  6  1  0  0  0  0
  2  8  1  0  0  0  0
  3  1  1  0  0  0  0
  4  1  1  0  0  0  0
  6 10  1  0  0  0  0
  7  2  1  0  0  0  0
  9  6  1  0  0  0  0
  9 12  1  0  0  0  0
 11  6  1  0  0  0  0
 13  9  1  0  0  0  0
 14  9  1  0  0  0  0
M  END
$$$$
