butane_opt
 OpenBabel08242015383D

 14 13  0  0  0  0  0  0  0  0999 V2000
   -3.9752    0.3021    0.0654 C   0  0  0  0  0  0  0  0  0  0  0  0
   -2.7013   -0.6708    0.0352 C   0  0  0  0  0  0  0  0  0  0  0  0
   -4.7930   -0.2446   -0.1249 H   0  0  0  0  0  0  0  0  0  0  0  0
   -3.9442    0.6856   -0.6627 H   0  0  0  0  0  0  0  0  0  0  0  0
   -4.2770    1.1549    0.9601 H   0  0  0  0  0  0  0  0  0  0  0  0
   -1.3909    0.1376   -0.0725 C   0  0  0  0  0  0  0  0  0  0  0  0
   -2.6866   -1.4020   -0.8615 H   0  0  0  0  0  0  0  0  0  0  0  0
   -2.5166   -1.1866    0.8263 H   0  0  0  0  0  0  0  0  0  0  0  0
   -0.1525   -0.6498    0.0721 C   0  0  0  0  0  0  0  0  0  0  0  0
   -1.3936    0.7676    0.7360 H   0  0  0  0  0  0  0  0  0  0  0  0
   -1.2148    0.9108   -0.9653 H   0  0  0  0  0  0  0  0  0  0  0  0
   -0.1815   -1.2758    1.0037 H   0  0  0  0  0  0  0  0  0  0  0  0
    0.6911   -0.0533    0.1096 H   0  0  0  0  0  0  0  0  0  0  0  0
   -0.0715   -1.2777   -0.7611 H   0  0  0  0  0  0  0  0  0  0  0  0
  1  5  1  0  0  0  0
  2  1  1  0  0  0  0
  2  8  1  0  0  0  0
  3  1  1  0  0  0  0
  4  1  1  0  0  0  0
  6  2  1  0  0  0  0
  6  9  1  0  0  0  0
  6 10  1  0  0  0  0
  7  2  1  0  0  0  0
  9 13  1  0  0  0  0
  9 12  1  0  0  0  0
 11  6  1  0  0  0  0
 14  9  1  0  0  0  0
M  END
$$$$
