butane_opt
 OpenBabel08242015383D

 14 13  0  0  0  0  0  0  0  0999 V2000
   -3.9168    0.2704   -0.0594 C   0  0  0  0  0  0  0  0  0  0  0  0
   -2.6770   -0.6409    0.0653 C   0  0  0  0  0  0  0  0  0  0  0  0
   -4.7563   -0.2648    0.2862 H   0  0  0  0  0  0  0  0  0  0  0  0
   -4.0030    1.2169   -1.1505 H   0  0  0  0  0  0  0  0  0  0  0  0
   -3.9008    0.5665    0.5491 H   0  0  0  0  0  0  0  0  0  0  0  0
   -1.4501    0.1850    0.1467 C   0  0  0  0  0  0  0  0  0  0  0  0
   -2.5980   -1.1456   -0.6365 H   0  0  0  0  0  0  0  0  0  0  0  0
   -2.7131   -1.3881    0.9400 H   0  0  0  0  0  0  0  0  0  0  0  0
   -0.1713   -0.6753   -0.0399 C   0  0  0  0  0  0  0  0  0  0  0  0
   -1.2828    1.0086    1.1388 H   0  0  0  0  0  0  0  0  0  0  0  0
   -1.4178    0.6564   -0.6456 H   0  0  0  0  0  0  0  0  0  0  0  0
   -0.1309   -1.2370    0.7396 H   0  0  0  0  0  0  0  0  0  0  0  0
    0.7254   -0.1370   -0.2369 H   0  0  0  0  0  0  0  0  0  0  0  0
   -0.3661   -1.3973   -0.9423 H   0  0  0  0  0  0  0  0  0  0  0  0
  1  2  1  0  0  0  0
  1  3  1  0  0  0  0
  1  5  1  0  0  0  0
  2  6  1  0  0  0  0
  2  8  1  0  0  0  0
  4  1  1  0  0  0  0
  6 10  1  0  0  0  0
  7  2  1  0  0  0  0
  9  6  1  0  0  0  0
  9 12  1  0  0  0  0
 11  6  1  0  0  0  0
 13  9  1  0  0  0  0
 14  9  1  0  0  0  0
M  END
$$$$
