butane_opt
 OpenBabel08242015383D

 14 13  0  0  0  0  0  0  0  0999 V2000
   -3.9742    0.2776    0.1167 C   0  0  0  0  0  0  0  0  0  0  0  0
   -2.7154   -0.6230   -0.0495 C   0  0  0  0  0  0  0  0  0  0  0  0
   -4.8345   -0.2205   -0.3361 H   0  0  0  0  0  0  0  0  0  0  0  0
   -4.0264    0.4837   -0.5628 H   0  0  0  0  0  0  0  0  0  0  0  0
   -4.2033    1.3283    1.1715 H   0  0  0  0  0  0  0  0  0  0  0  0
   -1.3757    0.1589   -0.1006 C   0  0  0  0  0  0  0  0  0  0  0  0
   -2.7964   -1.3189   -0.9199 H   0  0  0  0  0  0  0  0  0  0  0  0
   -2.5985   -1.2918    0.8713 H   0  0  0  0  0  0  0  0  0  0  0  0
   -0.1216   -0.6802    0.1285 C   0  0  0  0  0  0  0  0  0  0  0  0
   -1.4189    0.6631    0.6950 H   0  0  0  0  0  0  0  0  0  0  0  0
   -1.3868    0.8396   -1.0371 H   0  0  0  0  0  0  0  0  0  0  0  0
   -0.0637   -1.4526    1.1676 H   0  0  0  0  0  0  0  0  0  0  0  0
    0.8005   -0.0442   -0.1068 H   0  0  0  0  0  0  0  0  0  0  0  0
   -0.2492   -1.0495   -0.5814 H   0  0  0  0  0  0  0  0  0  0  0  0
  1  5  1  0  0  0  0
  2  1  1  0  0  0  0
  2  8  1  0  0  0  0
  3  1  1  0  0  0  0
  4  1  1  0  0  0  0
  6  2  1  0  0  0  0
  6  9  1  0  0  0  0
  6 10  1  0  0  0  0
  7  2  1  0  0  0  0
  9 12  1  0  0  0  0
 11  6  1  0  0  0  0
 13  9  1  0  0  0  0
 14  9  1  0  0  0  0
M  END
$$$$
