14
butane_opt
C  -3.925381   0.245624  -0.080011
C  -2.729943  -0.576205   0.162661
H  -4.940042  -0.466012  -0.502943
H  -3.785163   0.766825  -0.873330
H  -4.204813   1.067995   0.847735
C  -1.441390   0.216648   0.107681
H  -2.609321  -1.178376  -0.552222
H  -2.939193  -1.459593   1.317647
C  -0.102919  -0.723357  -0.071680
H  -1.409053   0.891725   1.001679
H  -1.421833   0.759795  -0.771999
H   0.084669  -1.280544   0.793633
H   0.874276  -0.069674  -0.174397
H  -0.266264  -1.462924  -1.074862
