butane_opt
 OpenBabel08242015383D

 14 13  0  0  0  0  0  0  0  0999 V2000
   -3.9479    0.2958   -0.0037 C   0  0  0  0  0  0  0  0  0  0  0  0
   -2.6694   -0.6500   -0.0070 C   0  0  0  0  0  0  0  0  0  0  0  0
   -4.8729   -0.2207    0.4665 H   0  0  0  0  0  0  0  0  0  0  0  0
   -4.1946    1.1958   -1.0710 H   0  0  0  0  0  0  0  0  0  0  0  0
   -3.7758    0.6792    0.6741 H   0  0  0  0  0  0  0  0  0  0  0  0
   -1.4115    0.0985    0.0593 C   0  0  0  0  0  0  0  0  0  0  0  0
   -2.6769   -1.2965   -0.7701 H   0  0  0  0  0  0  0  0  0  0  0  0
   -2.5518   -1.2839    0.9442 H   0  0  0  0  0  0  0  0  0  0  0  0
   -0.1762   -0.6294    0.0316 C   0  0  0  0  0  0  0  0  0  0  0  0
   -1.4636    0.9823    1.0429 H   0  0  0  0  0  0  0  0  0  0  0  0
   -1.2841    0.7399   -0.8141 H   0  0  0  0  0  0  0  0  0  0  0  0
   -0.1355   -1.1995    0.8923 H   0  0  0  0  0  0  0  0  0  0  0  0
    0.6920   -0.0310   -0.0730 H   0  0  0  0  0  0  0  0  0  0  0  0
   -0.3177   -1.4168   -0.8776 H   0  0  0  0  0  0  0  0  0  0  0  0
  1  3  1  0  0  0  0
  1  5  1  0  0  0  0
  2  1  1  0  0  0  0
  2  6  1  0  0  0  0
  2  8  1  0  0  0  0
  4  1  1  0  0  0  0
  6 10  1  0  0  0  0
  7  2  1  0  0  0  0
  9  6  1  0  0  0  0
  9 12  1  0  0  0  0
 11  6  1  0  0  0  0
 13  9  1  0  0  0  0
 14  9  1  0  0  0  0
M  END
$$$$
