butane_opt
 OpenBabel08242015383D

 14 12  0  0  0  0  0  0  0  0999 V2000
   -3.9695    0.2454   -0.0343 C   0  0  0  0  0  0  0  0  0  0  0  0
   -2.7273   -0.6006    0.0809 C   0  0  0  0  0  0  0  0  0  0  0  0
   -4.8503   -0.3311    0.3803 H   0  0  0  0  0  0  0  0  0  0  0  0
   -4.1016    1.2575   -1.2031 H   0  0  0  0  0  0  0  0  0  0  0  0
   -3.9516    0.5063    0.5442 H   0  0  0  0  0  0  0  0  0  0  0  0
   -1.3909    0.2160    0.0689 C   0  0  0  0  0  0  0  0  0  0  0  0
   -2.6028   -1.2156   -0.7083 H   0  0  0  0  0  0  0  0  0  0  0  0
   -2.7974   -1.3271    1.0684 H   0  0  0  0  0  0  0  0  0  0  0  0
   -0.0949   -0.7255   -0.0483 C   0  0  0  0  0  0  0  0  0  0  0  0
   -1.3467    1.0691    1.0649 H   0  0  0  0  0  0  0  0  0  0  0  0
   -1.5343    0.6411   -0.5842 H   0  0  0  0  0  0  0  0  0  0  0  0
   -0.2537   -1.0570    0.7124 H   0  0  0  0  0  0  0  0  0  0  0  0
    0.7316   -0.0964    0.2466 H   0  0  0  0  0  0  0  0  0  0  0  0
   -0.0888   -1.5491   -0.9452 H   0  0  0  0  0  0  0  0  0  0  0  0
  1  2  1  0  0  0  0
  1  3  1  0  0  0  0
  1  5  1  0  0  0  0
  2  8  1  0  0  0  0
  6  2  1  0  0  0  0
  6 10  1  0  0  0  0
  7  2  1  0  0  0  0
  9  6  1  0  0  0  0
  9 13  1  0  0  0  0
  9 12  1  0  0  0  0
 11  6  1  0  0  0  0
 14  9  1  0  0  0  0
M  RAD  2   1   2   4   2
M  END
$$$$
