butane_opt
 OpenBabel08242015383D

 14 13  0  0  0  0  0  0  0  0999 V2000
   -3.9349    0.2518   -0.0548 C   0  0  0  0  0  0  0  0  0  0  0  0
   -2.7201   -0.6103    0.1399 C   0  0  0  0  0  0  0  0  0  0  0  0
   -4.9409   -0.3843   -0.2245 H   0  0  0  0  0  0  0  0  0  0  0  0
   -3.8653    0.7671   -0.9053 H   0  0  0  0  0  0  0  0  0  0  0  0
   -4.1816    0.8877    0.8275 H   0  0  0  0  0  0  0  0  0  0  0  0
   -1.4050    0.2221    0.0785 C   0  0  0  0  0  0  0  0  0  0  0  0
   -2.7377   -1.2348   -0.6360 H   0  0  0  0  0  0  0  0  0  0  0  0
   -2.7104   -1.1868    1.0755 H   0  0  0  0  0  0  0  0  0  0  0  0
   -0.1359   -0.6895   -0.0504 C   0  0  0  0  0  0  0  0  0  0  0  0
   -1.3219    0.7851    0.8747 H   0  0  0  0  0  0  0  0  0  0  0  0
   -1.5689    0.8726   -0.7948 H   0  0  0  0  0  0  0  0  0  0  0  0
   -0.0791   -1.3368    0.8746 H   0  0  0  0  0  0  0  0  0  0  0  0
    0.6248   -0.1755    0.0400 H   0  0  0  0  0  0  0  0  0  0  0  0
    0.1117   -1.5911   -1.0687 H   0  0  0  0  0  0  0  0  0  0  0  0
  1  2  1  0  0  0  0
  1  5  1  0  0  0  0
  2  8  1  0  0  0  0
  3  1  1  0  0  0  0
  4  1  1  0  0  0  0
  6  2  1  0  0  0  0
  6 10  1  0  0  0  0
  7  2  1  0  0  0  0
  9 13  1  0  0  0  0
  9  6  1  0  0  0  0
  9 12  1  0  0  0  0
 11  6  1  0  0  0  0
 14  9  1  0  0  0  0
M  END
$$$$
