14
butane_opt
C  -3.944911   0.255196   0.082009
C  -2.722614  -0.603792   0.001482
H  -4.938677  -0.390983   0.119285
H  -3.953027   0.955977  -0.930710
H  -3.929845   0.766237   0.885335
C  -1.435629   0.203726  -0.073309
H  -2.797827  -1.170410  -0.715500
H  -2.563839  -1.262269   0.822577
C  -0.130290  -0.714243   0.086778
H  -1.397437   0.926911   0.774431
H  -1.461980   0.780893  -0.989844
H  -0.319841  -1.061286   0.795934
H   0.909129  -0.071710   0.373983
H   0.216797  -1.629134  -0.907044
