14
butane_opt
C  -3.927724   0.246824  -0.046676
C  -2.694426  -0.623991   0.071898
H  -4.709880  -0.197486   0.377983
H  -4.017159   1.319816  -1.231911
H  -3.932997   0.643706   0.475546
C  -1.402712   0.179790   0.101976
H  -2.728025  -1.223499  -0.630678
H  -2.701530  -1.313961   1.014555
C  -0.176613  -0.695568  -0.031893
H  -1.320347   1.077596   1.096632
H  -1.492770   0.550949  -0.579578
H  -0.117647  -1.085457   0.705498
H   0.706989  -0.124815  -0.029313
H  -0.288927  -1.386596  -0.954531
