butane_opt
 OpenBabel08242015383D

 14 13  0  0  0  0  0  0  0  0999 V2000
   -3.9642    0.3056   -0.0199 C   0  0  0  0  0  0  0  0  0  0  0  0
   -2.6856   -0.6607    0.0347 C   0  0  0  0  0  0  0  0  0  0  0  0
   -4.8382   -0.2141    0.1746 H   0  0  0  0  0  0  0  0  0  0  0  0
   -4.0827    0.9599   -0.9605 H   0  0  0  0  0  0  0  0  0  0  0  0
   -3.8296    0.9163    0.8249 H   0  0  0  0  0  0  0  0  0  0  0  0
   -1.3961    0.1185    0.0555 C   0  0  0  0  0  0  0  0  0  0  0  0
   -2.5678   -1.2803   -0.7945 H   0  0  0  0  0  0  0  0  0  0  0  0
   -2.8135   -1.3748    0.9861 H   0  0  0  0  0  0  0  0  0  0  0  0
   -0.1524   -0.6587    0.0276 C   0  0  0  0  0  0  0  0  0  0  0  0
   -1.4209    0.9982    1.0311 H   0  0  0  0  0  0  0  0  0  0  0  0
   -1.4561    0.7464   -0.7573 H   0  0  0  0  0  0  0  0  0  0  0  0
   -0.1628   -1.3050    0.8782 H   0  0  0  0  0  0  0  0  0  0  0  0
    0.7850    0.0712   -0.2998 H   0  0  0  0  0  0  0  0  0  0  0  0
   -0.2865   -1.2291   -0.8238 H   0  0  0  0  0  0  0  0  0  0  0  0
  1  2  1  0  0  0  0
  1  3  1  0  0  0  0
  1  5  1  0  0  0  0
  2  6  1  0  0  0  0
  2  8  1  0  0  0  0
  4  1  1  0  0  0  0
  6 10  1  0  0  0  0
  7  2  1  0  0  0  0
  9  6  1  0  0  0  0
  9 12  1  0  0  0  0
 11  6  1  0  0  0  0
 13  9  1  0  0  0  0
 14  9  1  0  0  0  0
M  END
$$$$
