butane_opt
 OpenBabel08242015383D

 14 13  0  0  0  0  0  0  0  0999 V2000
   -3.9526    0.2833    0.0688 C   0  0  0  0  0  0  0  0  0  0  0  0
   -2.6685   -0.6381   -0.0057 C   0  0  0  0  0  0  0  0  0  0  0  0
   -4.7005   -0.1902   -0.0806 H   0  0  0  0  0  0  0  0  0  0  0  0
   -3.9120    0.6865   -0.6373 H   0  0  0  0  0  0  0  0  0  0  0  0
   -3.9812    1.2614    1.0940 H   0  0  0  0  0  0  0  0  0  0  0  0
   -1.4027    0.1188   -0.0654 C   0  0  0  0  0  0  0  0  0  0  0  0
   -2.8312   -1.2544   -0.8454 H   0  0  0  0  0  0  0  0  0  0  0  0
   -2.5364   -1.1333    0.7734 H   0  0  0  0  0  0  0  0  0  0  0  0
   -0.2064   -0.6634    0.1188 C   0  0  0  0  0  0  0  0  0  0  0  0
   -1.4284    0.5821    0.6765 H   0  0  0  0  0  0  0  0  0  0  0  0
   -1.2111    0.9088   -1.1393 H   0  0  0  0  0  0  0  0  0  0  0  0
   -0.2344   -1.2707    0.9460 H   0  0  0  0  0  0  0  0  0  0  0  0
    0.8824    0.0601    0.0501 H   0  0  0  0  0  0  0  0  0  0  0  0
   -0.3386   -1.3052   -0.7703 H   0  0  0  0  0  0  0  0  0  0  0  0
  1  5  1  0  0  0  0
  2  1  1  0  0  0  0
  2  8  1  0  0  0  0
  3  1  1  0  0  0  0
  4  1  1  0  0  0  0
  6  2  1  0  0  0  0
  6  9  1  0  0  0  0
  6 10  1  0  0  0  0
  7  2  1  0  0  0  0
  9 12  1  0  0  0  0
 11  6  1  0  0  0  0
 13  9  1  0  0  0  0
 14  9  1  0  0  0  0
M  END
$$$$
