butane_opt
 OpenBabel08242015383D

 14 13  0  0  0  0  0  0  0  0999 V2000
   -3.9340    0.2656    0.0825 C   0  0  0  0  0  0  0  0  0  0  0  0
   -2.6915   -0.6041   -0.0183 C   0  0  0  0  0  0  0  0  0  0  0  0
   -4.7422   -0.3197    0.2642 H   0  0  0  0  0  0  0  0  0  0  0  0
   -3.9470    0.8602   -0.8331 H   0  0  0  0  0  0  0  0  0  0  0  0
   -3.8196    0.9930    1.0004 H   0  0  0  0  0  0  0  0  0  0  0  0
   -1.4188    0.1472   -0.0912 C   0  0  0  0  0  0  0  0  0  0  0  0
   -2.9063   -1.3419   -0.9527 H   0  0  0  0  0  0  0  0  0  0  0  0
   -2.6406   -1.0327    0.7818 H   0  0  0  0  0  0  0  0  0  0  0  0
   -0.1646   -0.6914    0.1060 C   0  0  0  0  0  0  0  0  0  0  0  0
   -1.4357    0.7828    0.7258 H   0  0  0  0  0  0  0  0  0  0  0  0
   -1.3921    0.7906   -1.0081 H   0  0  0  0  0  0  0  0  0  0  0  0
   -0.3735   -1.2597    0.9540 H   0  0  0  0  0  0  0  0  0  0  0  0
    0.7795   -0.0533    0.2867 H   0  0  0  0  0  0  0  0  0  0  0  0
   -0.0518   -1.2841   -0.7148 H   0  0  0  0  0  0  0  0  0  0  0  0
  1  3  1  0  0  0  0
  1  5  1  0  0  0  0
  2  1  1  0  0  0  0
  2  8  1  0  0  0  0
  4  1  1  0  0  0  0
  6  2  1  0  0  0  0
  6  9  1  0  0  0  0
  6 10  1  0  0  0  0
  7  2  1  0  0  0  0
  9 13  1  0  0  0  0
  9 12  1  0  0  0  0
 11  6  1  0  0  0  0
 14  9  1  0  0  0  0
M  END
$$$$
