14
butane_opt
C  -3.993473   0.305427  -0.042011
C  -2.681216  -0.647328   0.076026
H  -4.910623  -0.250843  -0.074730
H  -4.088484   0.746313  -0.870681
H  -4.090746   0.902771   0.767721
C  -1.376129   0.143126   0.086469
H  -2.688807  -1.279814  -0.778064
H  -2.667673  -1.220549   0.997138
C  -0.152771  -0.661175  -0.034706
H  -1.194050   0.957245   1.060003
H  -1.453049   0.622468  -0.701132
H   0.055850  -1.599753   1.043864
H   0.715853  -0.023334  -0.271824
H  -0.269778  -1.008538  -0.720430
