butane_opt
 OpenBabel08242015383D

 14 13  0  0  0  0  0  0  0  0999 V2000
   -3.9494    0.2454   -0.0670 C   0  0  0  0  0  0  0  0  0  0  0  0
   -2.7175   -0.5667    0.1716 C   0  0  0  0  0  0  0  0  0  0  0  0
   -4.9139   -0.4952   -0.2930 H   0  0  0  0  0  0  0  0  0  0  0  0
   -3.5350    0.8268   -1.0428 H   0  0  0  0  0  0  0  0  0  0  0  0
   -4.1869    1.0224    0.7793 H   0  0  0  0  0  0  0  0  0  0  0  0
   -1.3978    0.2110    0.0969 C   0  0  0  0  0  0  0  0  0  0  0  0
   -2.5931   -1.3070   -0.7084 H   0  0  0  0  0  0  0  0  0  0  0  0
   -2.7584   -1.3049    1.1739 H   0  0  0  0  0  0  0  0  0  0  0  0
   -0.1632   -0.7286   -0.0558 C   0  0  0  0  0  0  0  0  0  0  0  0
   -1.3085    0.9635    0.9356 H   0  0  0  0  0  0  0  0  0  0  0  0
   -1.4325    0.7635   -0.7024 H   0  0  0  0  0  0  0  0  0  0  0  0
    0.0206   -1.3208    0.7884 H   0  0  0  0  0  0  0  0  0  0  0  0
    0.7593   -0.0801   -0.2316 H   0  0  0  0  0  0  0  0  0  0  0  0
   -0.3156   -1.4836   -0.9945 H   0  0  0  0  0  0  0  0  0  0  0  0
  1  2  1  0  0  0  0
  1  5  1  0  0  0  0
  2  8  1  0  0  0  0
  3  1  1  0  0  0  0
  4  1  1  0  0  0  0
  6  2  1  0  0  0  0
  6 10  1  0  0  0  0
  7  2  1  0  0  0  0
  9  6  1  0  0  0  0
  9 12  1  0  0  0  0
 11  6  1  0  0  0  0
 13  9  1  0  0  0  0
 14  9  1  0  0  0  0
M  END
$$$$
