butane_opt
 OpenBabel08242015383D

 14 13  0  0  0  0  0  0  0  0999 V2000
   -3.9442    0.2487   -0.0663 C   0  0  0  0  0  0  0  0  0  0  0  0
   -2.7223   -0.5808    0.1001 C   0  0  0  0  0  0  0  0  0  0  0  0
   -4.9303   -0.3767    0.4358 H   0  0  0  0  0  0  0  0  0  0  0  0
   -3.9865    1.0859   -1.0514 H   0  0  0  0  0  0  0  0  0  0  0  0
   -3.8412    0.5691    0.5008 H   0  0  0  0  0  0  0  0  0  0  0  0
   -1.4111    0.1850    0.1015 C   0  0  0  0  0  0  0  0  0  0  0  0
   -2.6488   -1.2181   -0.7470 H   0  0  0  0  0  0  0  0  0  0  0  0
   -2.7851   -1.1798    0.9888 H   0  0  0  0  0  0  0  0  0  0  0  0
   -0.1301   -0.6931   -0.0499 C   0  0  0  0  0  0  0  0  0  0  0  0
   -1.4126    1.0964    0.9987 H   0  0  0  0  0  0  0  0  0  0  0  0
   -1.4536    0.5777   -0.6185 H   0  0  0  0  0  0  0  0  0  0  0  0
   -0.0859   -1.3117    0.8148 H   0  0  0  0  0  0  0  0  0  0  0  0
    0.6631   -0.2260    0.0321 H   0  0  0  0  0  0  0  0  0  0  0  0
   -0.0459   -1.4314   -0.9621 H   0  0  0  0  0  0  0  0  0  0  0  0
  1  2  1  0  0  0  0
  1  3  1  0  0  0  0
  1  5  1  0  0  0  0
  2  6  1  0  0  0  0
  2  8  1  0  0  0  0
  4  1  1  0  0  0  0
  6 10  1  0  0  0  0
  7  2  1  0  0  0  0
  9 13  1  0  0  0  0
  9  6  1  0  0  0  0
  9 12  1  0  0  0  0
 11  6  1  0  0  0  0
 14  9  1  0  0  0  0
M  END
$$$$
