butane_opt
 OpenBabel08242015383D

 14 13  0  0  0  0  0  0  0  0999 V2000
   -3.9546    0.2820   -0.0014 C   0  0  0  0  0  0  0  0  0  0  0  0
   -2.7001   -0.6343    0.0498 C   0  0  0  0  0  0  0  0  0  0  0  0
   -4.8791   -0.3532    0.0337 H   0  0  0  0  0  0  0  0  0  0  0  0
   -3.9481    0.9366   -0.9257 H   0  0  0  0  0  0  0  0  0  0  0  0
   -4.0123    0.9040    0.8384 H   0  0  0  0  0  0  0  0  0  0  0  0
   -1.3960    0.1831    0.0504 C   0  0  0  0  0  0  0  0  0  0  0  0
   -2.6976   -1.3294   -0.8026 H   0  0  0  0  0  0  0  0  0  0  0  0
   -2.7608   -1.2377    0.9323 H   0  0  0  0  0  0  0  0  0  0  0  0
   -0.1556   -0.6872    0.0126 C   0  0  0  0  0  0  0  0  0  0  0  0
   -1.3622    0.8731    0.8828 H   0  0  0  0  0  0  0  0  0  0  0  0
   -1.3512    0.7903   -0.8307 H   0  0  0  0  0  0  0  0  0  0  0  0
   -0.0362   -1.3661    0.9212 H   0  0  0  0  0  0  0  0  0  0  0  0
    0.7383   -0.1009   -0.1174 H   0  0  0  0  0  0  0  0  0  0  0  0
   -0.2389   -1.3088   -0.8229 H   0  0  0  0  0  0  0  0  0  0  0  0
  1  3  1  0  0  0  0
  1  2  1  0  0  0  0
  1  5  1  0  0  0  0
  2  6  1  0  0  0  0
  2  8  1  0  0  0  0
  4  1  1  0  0  0  0
  6 10  1  0  0  0  0
  7  2  1  0  0  0  0
  9  6  1  0  0  0  0
  9 12  1  0  0  0  0
 11  6  1  0  0  0  0
 13  9  1  0  0  0  0
 14  9  1  0  0  0  0
M  END
$$$$
