14
butane_opt
C  -3.953840   0.261657  -0.010428
C  -2.750364  -0.590986   0.037467
H  -4.939545  -0.302894   0.389529
H  -3.946845   1.196422  -1.133632
H  -3.795462   0.513399   0.639351
C  -1.388134   0.202845   0.088697
H  -2.644486  -1.371971  -0.825906
H  -2.747967  -1.192695   0.966713
C  -0.130251  -0.712807  -0.008884
H  -1.480132   0.825298   0.842839
H  -1.298292   0.757067  -0.717173
H   0.030746  -1.201543   0.789220
H   0.712179  -0.164166   0.111963
H  -0.239172  -1.454899  -0.945671
