butane_opt
 OpenBabel08242015383D

 14 13  0  0  0  0  0  0  0  0999 V2000
   -3.9493    0.2565    0.0010 C   0  0  0  0  0  0  0  0  0  0  0  0
   -2.7085   -0.6092    0.0602 C   0  0  0  0  0  0  0  0  0  0  0  0
   -4.8598   -0.3414   -0.0545 H   0  0  0  0  0  0  0  0  0  0  0  0
   -3.9314    0.8654   -0.9097 H   0  0  0  0  0  0  0  0  0  0  0  0
   -3.9486    0.9539    0.8860 H   0  0  0  0  0  0  0  0  0  0  0  0
   -1.4076    0.1929    0.0301 C   0  0  0  0  0  0  0  0  0  0  0  0
   -2.7171   -1.2806   -0.7655 H   0  0  0  0  0  0  0  0  0  0  0  0
   -2.7607   -1.2371    0.9578 H   0  0  0  0  0  0  0  0  0  0  0  0
   -0.1548   -0.6976    0.0178 C   0  0  0  0  0  0  0  0  0  0  0  0
   -1.3169    0.8606    0.8882 H   0  0  0  0  0  0  0  0  0  0  0  0
   -1.3863    0.8815   -0.8886 H   0  0  0  0  0  0  0  0  0  0  0  0
   -0.0441   -1.3171    0.8986 H   0  0  0  0  0  0  0  0  0  0  0  0
    0.7276   -0.1397   -0.0267 H   0  0  0  0  0  0  0  0  0  0  0  0
   -0.1451   -1.4322   -0.8558 H   0  0  0  0  0  0  0  0  0  0  0  0
  1  2  1  0  0  0  0
  1  5  1  0  0  0  0
  2  8  1  0  0  0  0
  3  1  1  0  0  0  0
  4  1  1  0  0  0  0
  6  2  1  0  0  0  0
  6 10  1  0  0  0  0
  7  2  1  0  0  0  0
  9  6  1  0  0  0  0
  9 12  1  0  0  0  0
 11  6  1  0  0  0  0
 13  9  1  0  0  0  0
 14  9  1  0  0  0  0
M  END
$$$$
