14
butane_opt
C  -3.932978   0.251503   0.033169
C  -2.706824  -0.606787   0.023476
H  -4.818216  -0.334948  -0.027636
H  -3.942948   0.807129  -0.797162
H  -3.917251   1.023382   0.975594
C  -1.404339   0.201630  -0.015794
H  -2.737223  -1.276944  -0.828003
H  -2.694202  -1.280415   0.930184
C  -0.166103  -0.711870   0.050523
H  -1.411389   0.867193   0.815357
H  -1.402985   0.878900  -0.928819
H  -0.192734  -1.310508   0.947879
H   0.730941  -0.116220   0.037304
H  -0.107202  -1.346729  -0.776927
