butane_opt
 OpenBabel08242015383D

 14 13  0  0  0  0  0  0  0  0999 V2000
   -3.9155    0.3118    0.0939 C   0  0  0  0  0  0  0  0  0  0  0  0
   -2.7032   -0.6445   -0.0408 C   0  0  0  0  0  0  0  0  0  0  0  0
   -4.8643   -0.3163    0.1579 H   0  0  0  0  0  0  0  0  0  0  0  0
   -4.0458    0.6902   -0.6580 H   0  0  0  0  0  0  0  0  0  0  0  0
   -3.8948    1.1928    1.0565 H   0  0  0  0  0  0  0  0  0  0  0  0
   -1.3926    0.1175   -0.0925 C   0  0  0  0  0  0  0  0  0  0  0  0
   -2.6729   -1.3269   -0.8254 H   0  0  0  0  0  0  0  0  0  0  0  0
   -2.6753   -1.2695    0.8277 H   0  0  0  0  0  0  0  0  0  0  0  0
   -0.1840   -0.6683    0.1028 C   0  0  0  0  0  0  0  0  0  0  0  0
   -1.5586    0.7026    0.7053 H   0  0  0  0  0  0  0  0  0  0  0  0
   -1.3314    0.9689   -1.1633 H   0  0  0  0  0  0  0  0  0  0  0  0
   -0.4964   -1.1913    0.9683 H   0  0  0  0  0  0  0  0  0  0  0  0
    0.9069    0.0257    0.3560 H   0  0  0  0  0  0  0  0  0  0  0  0
   -0.0689   -1.3330   -0.7217 H   0  0  0  0  0  0  0  0  0  0  0  0
  1  3  1  0  0  0  0
  1  5  1  0  0  0  0
  2  1  1  0  0  0  0
  2  8  1  0  0  0  0
  4  1  1  0  0  0  0
  6  2  1  0  0  0  0
  6  9  1  0  0  0  0
  6 10  1  0  0  0  0
  7  2  1  0  0  0  0
  9 13  1  0  0  0  0
  9 12  1  0  0  0  0
 11  6  1  0  0  0  0
 14  9  1  0  0  0  0
M  END
$$$$
