butane_opt
 OpenBabel08242015383D

 14 13  0  0  0  0  0  0  0  0999 V2000
   -3.9728    0.2240    0.0659 C   0  0  0  0  0  0  0  0  0  0  0  0
   -2.7316   -0.5718   -0.0690 C   0  0  0  0  0  0  0  0  0  0  0  0
   -4.9440   -0.3757    0.5152 H   0  0  0  0  0  0  0  0  0  0  0  0
   -4.1591    1.0434   -0.9325 H   0  0  0  0  0  0  0  0  0  0  0  0
   -3.6324    0.8165    0.9125 H   0  0  0  0  0  0  0  0  0  0  0  0
   -1.3675    0.1990   -0.0012 C   0  0  0  0  0  0  0  0  0  0  0  0
   -2.7398   -1.3562   -0.9833 H   0  0  0  0  0  0  0  0  0  0  0  0
   -2.7653   -1.0092    0.7554 H   0  0  0  0  0  0  0  0  0  0  0  0
   -0.1440   -0.7225    0.0774 C   0  0  0  0  0  0  0  0  0  0  0  0
   -1.5043    0.8298    0.8136 H   0  0  0  0  0  0  0  0  0  0  0  0
   -1.2916    1.0305   -1.0174 H   0  0  0  0  0  0  0  0  0  0  0  0
   -0.0432   -1.4692    1.1385 H   0  0  0  0  0  0  0  0  0  0  0  0
    0.7148   -0.1681    0.1046 H   0  0  0  0  0  0  0  0  0  0  0  0
   -0.0617   -1.3778   -0.7437 H   0  0  0  0  0  0  0  0  0  0  0  0
  1  3  1  0  0  0  0
  1  5  1  0  0  0  0
  2  6  1  0  0  0  0
  2  1  1  0  0  0  0
  2  8  1  0  0  0  0
  4  1  1  0  0  0  0
  6  9  1  0  0  0  0
  6 10  1  0  0  0  0
  7  2  1  0  0  0  0
  9 13  1  0  0  0  0
  9 12  1  0  0  0  0
 11  6  1  0  0  0  0
 14  9  1  0  0  0  0
M  END
$$$$
