butane_opt
 OpenBabel08242015383D

 14 13  0  0  0  0  0  0  0  0999 V2000
   -3.9807    0.2593   -0.0528 C   0  0  0  0  0  0  0  0  0  0  0  0
   -2.6941   -0.6488    0.0642 C   0  0  0  0  0  0  0  0  0  0  0  0
   -4.8035   -0.2326   -0.0118 H   0  0  0  0  0  0  0  0  0  0  0  0
   -3.9171    0.8615   -0.9310 H   0  0  0  0  0  0  0  0  0  0  0  0
   -4.0903    0.9667    0.8397 H   0  0  0  0  0  0  0  0  0  0  0  0
   -1.3828    0.2129    0.1027 C   0  0  0  0  0  0  0  0  0  0  0  0
   -2.6071   -1.2326   -0.7019 H   0  0  0  0  0  0  0  0  0  0  0  0
   -2.8121   -1.3815    1.1561 H   0  0  0  0  0  0  0  0  0  0  0  0
   -0.1508   -0.6771   -0.0246 C   0  0  0  0  0  0  0  0  0  0  0  0
   -1.3155    0.9943    1.0408 H   0  0  0  0  0  0  0  0  0  0  0  0
   -1.5571    0.8127   -0.7538 H   0  0  0  0  0  0  0  0  0  0  0  0
    0.0659   -1.5434    0.9050 H   0  0  0  0  0  0  0  0  0  0  0  0
    0.7736   -0.0835   -0.2644 H   0  0  0  0  0  0  0  0  0  0  0  0
   -0.2748   -1.3761   -0.8833 H   0  0  0  0  0  0  0  0  0  0  0  0
  1  3  1  0  0  0  0
  1  2  1  0  0  0  0
  1  5  1  0  0  0  0
  2  6  1  0  0  0  0
  2  8  1  0  0  0  0
  4  1  1  0  0  0  0
  6 10  1  0  0  0  0
  7  2  1  0  0  0  0
  9  6  1  0  0  0  0
  9 12  1  0  0  0  0
 11  6  1  0  0  0  0
 13  9  1  0  0  0  0
 14  9  1  0  0  0  0
M  END
$$$$
