14
butane_opt
C  -3.996029   0.286199   0.121354
C  -2.654752  -0.686511  -0.076523
H  -4.774680  -0.173830   0.499065
H  -4.155079   1.032475  -0.900410
H  -3.926375   0.903823   0.890157
C  -1.386750   0.160919  -0.099722
H  -2.841331  -1.472560  -1.030231
H  -2.536223  -1.031765   0.678044
C  -0.168794  -0.656560   0.131338
H  -1.509262   0.893724   0.777869
H  -1.216687   0.766949  -1.010305
H  -0.326128  -1.307746   1.084726
H   0.796814  -0.101422   0.184045
H  -0.070656  -1.213022  -0.653908
