butane_opt
 OpenBabel08242015383D

 14 13  0  0  0  0  0  0  0  0999 V2000
   -3.9589    0.2342   -0.0399 C   0  0  0  0  0  0  0  0  0  0  0  0
   -2.7340   -0.5731    0.1370 C   0  0  0  0  0  0  0  0  0  0  0  0
   -4.9864   -0.4586   -0.0288 H   0  0  0  0  0  0  0  0  0  0  0  0
   -3.9114    0.8495   -0.8585 H   0  0  0  0  0  0  0  0  0  0  0  0
   -4.0899    0.7747    0.7880 H   0  0  0  0  0  0  0  0  0  0  0  0
   -1.3997    0.2341    0.0205 C   0  0  0  0  0  0  0  0  0  0  0  0
   -2.7133   -1.1168   -0.6761 H   0  0  0  0  0  0  0  0  0  0  0  0
   -2.8174   -1.3398    1.1149 H   0  0  0  0  0  0  0  0  0  0  0  0
   -0.0951   -0.7419   -0.0557 C   0  0  0  0  0  0  0  0  0  0  0  0
   -1.4148    1.0221    1.0087 H   0  0  0  0  0  0  0  0  0  0  0  0
   -1.5187    0.8609   -0.8950 H   0  0  0  0  0  0  0  0  0  0  0  0
   -0.2500   -1.1088    0.7342 H   0  0  0  0  0  0  0  0  0  0  0  0
    0.8230   -0.2458    0.5179 H   0  0  0  0  0  0  0  0  0  0  0  0
    0.1360   -1.5867   -1.0244 H   0  0  0  0  0  0  0  0  0  0  0  0
  1  3  1  0  0  0  0
  1  2  1  0  0  0  0
  1  5  1  0  0  0  0
  2  8  1  0  0  0  0
  4  1  1  0  0  0  0
  6  2  1  0  0  0  0
  6 10  1  0  0  0  0
  7  2  1  0  0  0  0
  9  6  1  0  0  0  0
  9 13  1  0  0  0  0
  9 12  1  0  0  0  0
 11  6  1  0  0  0  0
 14  9  1  0  0  0  0
M  END
$$$$
