14
butane_opt
C  -3.877017   0.242401  -0.090355
C  -2.706263  -0.590079   0.132541
H  -4.794143  -0.396104  -0.167608
H  -3.850351   0.758097  -0.932681
H  -3.875092   0.972147   0.687939
C  -1.436713   0.204359   0.136287
H  -2.676594  -1.123269  -0.574756
H  -3.000151  -1.222718   1.003551
C  -0.187861  -0.733810  -0.056430
H  -1.280848   0.965430   1.067574
H  -1.634993   0.837827  -0.679423
H   0.235414  -1.399942   0.833612
H   0.685547  -0.112817  -0.358911
H  -0.353977  -1.235392  -0.868254
