butane_opt
 OpenBabel08242015383D

 14 13  0  0  0  0  0  0  0  0999 V2000
   -3.9007    0.2373    0.0958 C   0  0  0  0  0  0  0  0  0  0  0  0
   -2.7242   -0.5748    0.0094 C   0  0  0  0  0  0  0  0  0  0  0  0
   -4.8926   -0.3947   -0.0525 H   0  0  0  0  0  0  0  0  0  0  0  0
   -3.8253    0.9282   -0.7799 H   0  0  0  0  0  0  0  0  0  0  0  0
   -3.9272    0.7764    0.8696 H   0  0  0  0  0  0  0  0  0  0  0  0
   -1.4184    0.2293   -0.0835 C   0  0  0  0  0  0  0  0  0  0  0  0
   -2.8782   -1.3005   -0.8835 H   0  0  0  0  0  0  0  0  0  0  0  0
   -2.5747   -1.1777    0.8656 H   0  0  0  0  0  0  0  0  0  0  0  0
   -0.1661   -0.7156    0.0897 C   0  0  0  0  0  0  0  0  0  0  0  0
   -1.3454    0.6671    0.6990 H   0  0  0  0  0  0  0  0  0  0  0  0
   -1.3701    0.9315   -1.0163 H   0  0  0  0  0  0  0  0  0  0  0  0
   -0.2763   -1.1105    0.8124 H   0  0  0  0  0  0  0  0  0  0  0  0
    0.5549   -0.3130    0.4516 H   0  0  0  0  0  0  0  0  0  0  0  0
    0.0511   -1.6254   -0.9046 H   0  0  0  0  0  0  0  0  0  0  0  0
  1  5  1  0  0  0  0
  2  1  1  0  0  0  0
  2  8  1  0  0  0  0
  3  1  1  0  0  0  0
  4  1  1  0  0  0  0
  6  2  1  0  0  0  0
  6  9  1  0  0  0  0
  6 10  1  0  0  0  0
  7  2  1  0  0  0  0
  9 13  1  0  0  0  0
  9 12  1  0  0  0  0
 11  6  1  0  0  0  0
 14  9  1  0  0  0  0
M  END
$$$$
