14
butane_opt
C  -3.910231   0.260006  -0.069210
C  -2.688482  -0.608170   0.132014
H  -4.786157  -0.274504  -0.078366
H  -3.754772   1.140186  -1.193831
H  -4.187058   0.741630   0.628513
C  -1.424880   0.151177   0.163204
H  -2.614116  -1.264345  -0.725734
H  -2.639570  -1.275224   0.995461
C  -0.196072  -0.691670  -0.063942
H  -1.285343   0.903321   1.095582
H  -1.594905   0.634007  -0.660986
H   0.018933  -1.201560   0.740848
H   0.764200   0.014289  -0.410219
H  -0.318048  -1.198281  -0.914657
