butane_opt
 OpenBabel08242015383D

 14 13  0  0  0  0  0  0  0  0999 V2000
   -3.9542    0.2865    0.0969 C   0  0  0  0  0  0  0  0  0  0  0  0
   -2.7366   -0.6438   -0.0973 C   0  0  0  0  0  0  0  0  0  0  0  0
   -4.9426   -0.2945    0.3879 H   0  0  0  0  0  0  0  0  0  0  0  0
   -4.2177    1.0072   -0.8437 H   0  0  0  0  0  0  0  0  0  0  0  0
   -3.7694    0.8519    0.9543 H   0  0  0  0  0  0  0  0  0  0  0  0
   -1.3902    0.1629   -0.0598 C   0  0  0  0  0  0  0  0  0  0  0  0
   -2.6395   -1.2984   -0.8960 H   0  0  0  0  0  0  0  0  0  0  0  0
   -2.6559   -1.1397    0.7143 H   0  0  0  0  0  0  0  0  0  0  0  0
   -0.1472   -0.6932    0.1280 C   0  0  0  0  0  0  0  0  0  0  0  0
   -1.4664    0.9736    0.8151 H   0  0  0  0  0  0  0  0  0  0  0  0
   -1.2497    0.7234   -0.9131 H   0  0  0  0  0  0  0  0  0  0  0  0
   -0.0163   -1.4715    1.0971 H   0  0  0  0  0  0  0  0  0  0  0  0
    0.8792    0.0382   -0.0566 H   0  0  0  0  0  0  0  0  0  0  0  0
   -0.2198   -1.2036   -0.6225 H   0  0  0  0  0  0  0  0  0  0  0  0
  1  3  1  0  0  0  0
  1  5  1  0  0  0  0
  2  6  1  0  0  0  0
  2  1  1  0  0  0  0
  2  8  1  0  0  0  0
  4  1  1  0  0  0  0
  6  9  1  0  0  0  0
  6 10  1  0  0  0  0
  7  2  1  0  0  0  0
  9 12  1  0  0  0  0
 11  6  1  0  0  0  0
 13  9  1  0  0  0  0
 14  9  1  0  0  0  0
M  END
$$$$
