14
butane_opt
C  -3.915507   0.311795   0.093921
C  -2.703203  -0.644497  -0.040782
H  -4.864284  -0.316278   0.157924
H  -4.045832   0.690207  -0.657975
H  -3.894781   1.192834   1.056455
C  -1.392560   0.117499  -0.092516
H  -2.672864  -1.326923  -0.825366
H  -2.675312  -1.269451   0.827671
C  -0.184025  -0.668342   0.102826
H  -1.558586   0.702570   0.705314
H  -1.331420   0.968934  -1.163346
H  -0.496434  -1.191333   0.968323
H   0.906899   0.025731   0.355957
H  -0.068909  -1.333037  -0.721675
