14
butane_opt
C  -3.933925   0.226569  -0.056044
C  -2.727790  -0.553261   0.068790
H  -4.903440  -0.423525  -0.091700
H  -3.909498   0.873556  -0.949767
H  -4.021170   0.826301   0.778266
C  -1.400198   0.232527   0.132011
H  -2.760831  -1.223350  -0.729699
H  -2.771941  -1.326961   1.094442
C  -0.133405  -0.737687  -0.036250
H  -1.393527   0.948495   1.033554
H  -1.341689   0.790140  -0.641979
H   0.127743  -1.483465   0.971195
H   0.643577  -0.270888  -0.480328
H  -0.307239  -1.220675  -0.864447
