butane_opt
 OpenBabel08242015383D

 14 10  0  0  0  0  0  0  0  0999 V2000
   -4.0014    0.2960   -0.0241 C   0  0  0  0  0  0  0  0  0  0  0  0
   -2.6865   -0.6462    0.1354 C   0  0  0  0  0  0  0  0  0  0  0  0
   -4.8570   -0.2266    0.0752 H   0  0  0  0  0  0  0  0  0  0  0  0
   -3.9530    1.1591   -1.0255 H   0  0  0  0  0  0  0  0  0  0  0  0
   -4.1632    0.7122    0.6295 H   0  0  0  0  0  0  0  0  0  0  0  0
   -1.3921    0.1373    0.0383 C   0  0  0  0  0  0  0  0  0  0  0  0
   -2.7228   -1.2699   -0.7276 H   0  0  0  0  0  0  0  0  0  0  0  0
   -2.6388   -1.3158    1.0822 H   0  0  0  0  0  0  0  0  0  0  0  0
   -0.1281   -0.6410   -0.0304 C   0  0  0  0  0  0  0  0  0  0  0  0
   -1.3512    0.7068    0.8154 H   0  0  0  0  0  0  0  0  0  0  0  0
   -1.2379    0.6897   -0.8003 H   0  0  0  0  0  0  0  0  0  0  0  0
   -0.4096   -0.8166    0.5943 H   0  0  0  0  0  0  0  0  0  0  0  0
    0.7563   -0.1026    0.4230 H   0  0  0  0  0  0  0  0  0  0  0  0
    0.0486   -1.7637   -1.1485 H   0  0  0  0  0  0  0  0  0  0  0  0
  1  3  1  0  0  0  0
  1  2  1  0  0  0  0
  1  5  1  0  0  0  0
  2  8  1  0  0  0  0
  4  1  1  0  0  0  0
  6 10  1  0  0  0  0
  7  2  1  0  0  0  0
  9 13  1  0  0  0  0
  9 12  1  0  0  0  0
 11  6  1  0  0  0  0
M  RAD  4   2   2   6   3   9   3  14   2
M  END
$$$$
