butane_opt
 OpenBabel08242015383D

 14 12  0  0  0  0  0  0  0  0999 V2000
   -3.9511    0.3123   -0.0077 C   0  0  0  0  0  0  0  0  0  0  0  0
   -2.6927   -0.6843    0.0325 C   0  0  0  0  0  0  0  0  0  0  0  0
   -4.7458   -0.2345    0.4192 H   0  0  0  0  0  0  0  0  0  0  0  0
   -4.1235    1.3824   -1.1728 H   0  0  0  0  0  0  0  0  0  0  0  0
   -3.8147    0.5584    0.6303 H   0  0  0  0  0  0  0  0  0  0  0  0
   -1.3677    0.1589    0.0799 C   0  0  0  0  0  0  0  0  0  0  0  0
   -2.6497   -1.4126   -0.8354 H   0  0  0  0  0  0  0  0  0  0  0  0
   -2.6919   -1.2167    0.8645 H   0  0  0  0  0  0  0  0  0  0  0  0
   -0.1983   -0.6688   -0.0052 C   0  0  0  0  0  0  0  0  0  0  0  0
   -1.3012    0.8536    1.0289 H   0  0  0  0  0  0  0  0  0  0  0  0
   -1.5044    0.7187   -0.7380 H   0  0  0  0  0  0  0  0  0  0  0  0
   -0.2473   -1.1356    0.8348 H   0  0  0  0  0  0  0  0  0  0  0  0
    0.7617   -0.0368    0.0611 H   0  0  0  0  0  0  0  0  0  0  0  0
   -0.2145   -1.3259   -0.8961 H   0  0  0  0  0  0  0  0  0  0  0  0
  1  2  1  0  0  0  0
  1  3  1  0  0  0  0
  1  5  1  0  0  0  0
  2  6  1  0  0  0  0
  2  8  1  0  0  0  0
  6 10  1  0  0  0  0
  7  2  1  0  0  0  0
  9 13  1  0  0  0  0
  9  6  1  0  0  0  0
  9 12  1  0  0  0  0
 11  6  1  0  0  0  0
 14  9  1  0  0  0  0
M  RAD  2   1   2   4   2
M  END
$$$$
