14
butane_opt
C  -3.991780   0.290950  -0.006427
C  -2.698461  -0.670906   0.079744
H  -4.779388  -0.217500   0.160396
H  -4.134574   1.128621  -0.957979
H  -3.915816   0.666318   0.675163
C  -1.415769   0.171502   0.047545
H  -2.640978  -1.308702  -0.721950
H  -2.732797  -1.212677   0.888591
C  -0.126694  -0.675771  -0.019630
H  -1.336283   0.885834   0.856150
H  -1.333706   0.822776  -0.855474
H  -0.307236  -1.070105   0.724479
H   0.887458  -0.067809   0.312993
H   0.039298  -1.472598  -0.908385
