butane_opt
 OpenBabel08242015383D

 14 13  0  0  0  0  0  0  0  0999 V2000
   -3.9635    0.3074    0.0379 C   0  0  0  0  0  0  0  0  0  0  0  0
   -2.6493   -0.6777    0.0659 C   0  0  0  0  0  0  0  0  0  0  0  0
   -4.8119   -0.1891   -0.3840 H   0  0  0  0  0  0  0  0  0  0  0  0
   -3.7489    0.6563   -0.7001 H   0  0  0  0  0  0  0  0  0  0  0  0
   -4.1685    1.1693    1.1067 H   0  0  0  0  0  0  0  0  0  0  0  0
   -1.4024    0.1525   -0.0203 C   0  0  0  0  0  0  0  0  0  0  0  0
   -2.6378   -1.3793   -0.8542 H   0  0  0  0  0  0  0  0  0  0  0  0
   -2.6561   -1.3113    0.9199 H   0  0  0  0  0  0  0  0  0  0  0  0
   -0.2049   -0.6292    0.0376 C   0  0  0  0  0  0  0  0  0  0  0  0
   -1.2794    0.6287    0.7608 H   0  0  0  0  0  0  0  0  0  0  0  0
   -1.4819    0.9089   -1.0570 H   0  0  0  0  0  0  0  0  0  0  0  0
   -0.1926   -1.3894    1.0136 H   0  0  0  0  0  0  0  0  0  0  0  0
    0.7453   -0.0357    0.0920 H   0  0  0  0  0  0  0  0  0  0  0  0
   -0.1940   -1.3434   -0.8581 H   0  0  0  0  0  0  0  0  0  0  0  0
  1  2  1  0  0  0  0
  1  5  1  0  0  0  0
  2  8  1  0  0  0  0
  3  1  1  0  0  0  0
  4  1  1  0  0  0  0
  6  9  1  0  0  0  0
  6  2  1  0  0  0  0
  6 10  1  0  0  0  0
  7  2  1  0  0  0  0
  9 13  1  0  0  0  0
  9 12  1  0  0  0  0
 11  6  1  0  0  0  0
 14  9  1  0  0  0  0
M  END
$$$$
