butane_opt
 OpenBabel08242015383D

 14 12  0  0  0  0  0  0  0  0999 V2000
   -3.9098    0.2793   -0.0503 C   0  0  0  0  0  0  0  0  0  0  0  0
   -2.6393   -0.6261    0.0673 C   0  0  0  0  0  0  0  0  0  0  0  0
   -4.8976   -0.3764    0.3345 H   0  0  0  0  0  0  0  0  0  0  0  0
   -4.0896    1.3054   -1.2279 H   0  0  0  0  0  0  0  0  0  0  0  0
   -3.9880    0.5446    0.5715 H   0  0  0  0  0  0  0  0  0  0  0  0
   -1.4044    0.1768    0.1466 C   0  0  0  0  0  0  0  0  0  0  0  0
   -2.6496   -1.2493   -0.7681 H   0  0  0  0  0  0  0  0  0  0  0  0
   -2.7537   -1.3168    0.9514 H   0  0  0  0  0  0  0  0  0  0  0  0
   -0.2278   -0.6723   -0.0405 C   0  0  0  0  0  0  0  0  0  0  0  0
   -1.2857    0.8168    1.0202 H   0  0  0  0  0  0  0  0  0  0  0  0
   -1.4583    0.6576   -0.6809 H   0  0  0  0  0  0  0  0  0  0  0  0
    0.0295   -1.1916    0.7997 H   0  0  0  0  0  0  0  0  0  0  0  0
    0.6573   -0.0750   -0.0605 H   0  0  0  0  0  0  0  0  0  0  0  0
   -0.4003   -1.4661   -1.0098 H   0  0  0  0  0  0  0  0  0  0  0  0
  1  2  1  0  0  0  0
  1  3  1  0  0  0  0
  1  5  1  0  0  0  0
  2  6  1  0  0  0  0
  2  8  1  0  0  0  0
  6 10  1  0  0  0  0
  7  2  1  0  0  0  0
  9  6  1  0  0  0  0
  9 12  1  0  0  0  0
 11  6  1  0  0  0  0
 13  9  1  0  0  0  0
 14  9  1  0  0  0  0
M  RAD  2   1   2   4   2
M  END
$$$$
