14
butane_opt
C  -3.900703   0.237302   0.095780
C  -2.724188  -0.574821   0.009403
H  -4.892595  -0.394734  -0.052513
H  -3.825331   0.928180  -0.779871
H  -3.927207   0.776369   0.869560
C  -1.418369   0.229280  -0.083451
H  -2.878192  -1.300530  -0.883483
H  -2.574708  -1.177712   0.865645
C  -0.166138  -0.715572   0.089661
H  -1.345436   0.667093   0.698986
H  -1.370091   0.931504  -1.016255
H  -0.276295  -1.110459   0.812428
H   0.554897  -0.313050   0.451557
H   0.051088  -1.625378  -0.904618
