14
butane_opt
C  -3.972771   0.223984   0.065897
C  -2.731570  -0.571844  -0.069005
H  -4.944029  -0.375682   0.515213
H  -4.159109   1.043399  -0.932520
H  -3.632384   0.816452   0.912483
C  -1.367468   0.198968  -0.001175
H  -2.739847  -1.356230  -0.983311
H  -2.765304  -1.009203   0.755370
C  -0.143954  -0.722498   0.077363
H  -1.504278   0.829773   0.813642
H  -1.291645   1.030451  -1.017391
H  -0.043181  -1.469240   1.138525
H   0.714841  -0.168139   0.104556
H  -0.061730  -1.377806  -0.743749
