butane_opt
 OpenBabel08242015383D

 14 13  0  0  0  0  0  0  0  0999 V2000
   -3.8867    0.2204    0.1369 C   0  0  0  0  0  0  0  0  0  0  0  0
   -2.7038   -0.5921   -0.1091 C   0  0  0  0  0  0  0  0  0  0  0  0
   -4.7871   -0.3133    0.4214 H   0  0  0  0  0  0  0  0  0  0  0  0
   -3.9700    1.0019   -0.8439 H   0  0  0  0  0  0  0  0  0  0  0  0
   -3.6647    0.7047    0.8784 H   0  0  0  0  0  0  0  0  0  0  0  0
   -1.4819    0.2568   -0.0902 C   0  0  0  0  0  0  0  0  0  0  0  0
   -2.8664   -1.3003   -1.0078 H   0  0  0  0  0  0  0  0  0  0  0  0
   -2.6090   -1.1460    0.7042 H   0  0  0  0  0  0  0  0  0  0  0  0
   -0.1584   -0.7335    0.1415 C   0  0  0  0  0  0  0  0  0  0  0  0
   -1.4738    0.9198    0.7703 H   0  0  0  0  0  0  0  0  0  0  0  0
   -1.4241    0.7527   -0.9932 H   0  0  0  0  0  0  0  0  0  0  0  0
   -0.3103   -1.4212    1.0640 H   0  0  0  0  0  0  0  0  0  0  0  0
    0.7611   -0.0874    0.1325 H   0  0  0  0  0  0  0  0  0  0  0  0
    0.0761   -1.3849   -0.6525 H   0  0  0  0  0  0  0  0  0  0  0  0
  1  3  1  0  0  0  0
  1  5  1  0  0  0  0
  2  6  1  0  0  0  0
  2  1  1  0  0  0  0
  2  8  1  0  0  0  0
  4  1  1  0  0  0  0
  6  9  1  0  0  0  0
  6 10  1  0  0  0  0
  7  2  1  0  0  0  0
  9 12  1  0  0  0  0
 11  6  1  0  0  0  0
 13  9  1  0  0  0  0
 14  9  1  0  0  0  0
M  END
$$$$
