butane_opt
 OpenBabel08242015383D

 14 12  0  0  0  0  0  0  0  0999 V2000
   -3.9247    0.2054    0.0511 C   0  0  0  0  0  0  0  0  0  0  0  0
   -2.6972   -0.5565    0.0134 C   0  0  0  0  0  0  0  0  0  0  0  0
   -4.8544   -0.4515   -0.2334 H   0  0  0  0  0  0  0  0  0  0  0  0
   -3.7488    0.5566   -0.7022 H   0  0  0  0  0  0  0  0  0  0  0  0
   -4.0444    1.3059    1.2246 H   0  0  0  0  0  0  0  0  0  0  0  0
   -1.4159    0.2159   -0.0137 C   0  0  0  0  0  0  0  0  0  0  0  0
   -2.7409   -1.2995   -0.8366 H   0  0  0  0  0  0  0  0  0  0  0  0
   -2.7828   -1.0705    0.8187 H   0  0  0  0  0  0  0  0  0  0  0  0
   -0.1493   -0.7254    0.0667 C   0  0  0  0  0  0  0  0  0  0  0  0
   -1.5684    0.7025    0.6246 H   0  0  0  0  0  0  0  0  0  0  0  0
   -1.5575    1.0114   -1.0516 H   0  0  0  0  0  0  0  0  0  0  0  0
   -0.0662   -1.5542    1.1069 H   0  0  0  0  0  0  0  0  0  0  0  0
    0.7514   -0.2087   -0.1276 H   0  0  0  0  0  0  0  0  0  0  0  0
   -0.1462   -1.1461   -0.7143 H   0  0  0  0  0  0  0  0  0  0  0  0
  2  1  1  0  0  0  0
  2  8  1  0  0  0  0
  3  1  1  0  0  0  0
  4  1  1  0  0  0  0
  6  2  1  0  0  0  0
  6  9  1  0  0  0  0
  6 10  1  0  0  0  0
  7  2  1  0  0  0  0
  9 12  1  0  0  0  0
 11  6  1  0  0  0  0
 13  9  1  0  0  0  0
 14  9  1  0  0  0  0
M  RAD  2   1   2   5   2
M  END
$$$$
