14
butane_opt
C  -3.995502   0.319562   0.061813
C  -2.694853  -0.689762   0.019956
H  -4.805836  -0.157619  -0.014737
H  -4.198594   0.769702  -0.753795
H  -3.938599   0.943529   0.979238
C  -1.373822   0.172585  -0.085252
H  -2.716242  -1.327803  -0.800291
H  -2.636416  -1.336438   0.897959
C  -0.155125  -0.657181   0.092129
H  -1.220460   0.712910   0.690201
H  -1.256446   0.937413  -0.984170
H  -0.324606  -1.046641   0.872338
H   0.727598  -0.092576   0.378777
H  -0.033042  -1.618755  -0.918610
