14
butane_opt
C  -3.961979   0.238927  -0.044883
C  -2.701058  -0.616106   0.127822
H  -4.907805  -0.399139   0.007664
H  -3.884895   1.074765  -1.120413
H  -4.145453   0.772196   0.651501
C  -1.383701   0.217344   0.094229
H  -2.789242  -1.231974  -0.630418
H  -2.653313  -1.160065   1.027528
C  -0.163270  -0.696205  -0.061466
H  -1.403623   0.877567   0.995431
H  -1.472539   0.859327  -0.841385
H   0.070081  -1.181871   0.708625
H   0.678109  -0.193426   0.209390
H   0.005006  -1.628863  -0.998196
