butane_opt
 OpenBabel08242015383D

 14 13  0  0  0  0  0  0  0  0999 V2000
   -3.9736    0.2923    0.0238 C   0  0  0  0  0  0  0  0  0  0  0  0
   -2.7091   -0.6265    0.0441 C   0  0  0  0  0  0  0  0  0  0  0  0
   -4.8710   -0.2809    0.2080 H   0  0  0  0  0  0  0  0  0  0  0  0
   -4.0607    0.8383   -0.8196 H   0  0  0  0  0  0  0  0  0  0  0  0
   -3.8456    0.9486    0.9152 H   0  0  0  0  0  0  0  0  0  0  0  0
   -1.4050    0.1809   -0.0580 C   0  0  0  0  0  0  0  0  0  0  0  0
   -2.6546   -1.3708   -0.8078 H   0  0  0  0  0  0  0  0  0  0  0  0
   -2.7505   -1.4082    1.0014 H   0  0  0  0  0  0  0  0  0  0  0  0
   -0.1396   -0.6815    0.0573 C   0  0  0  0  0  0  0  0  0  0  0  0
   -1.3127    0.7952    0.8057 H   0  0  0  0  0  0  0  0  0  0  0  0
   -1.2255    0.7825   -0.9149 H   0  0  0  0  0  0  0  0  0  0  0  0
   -0.3840   -1.0896    0.8019 H   0  0  0  0  0  0  0  0  0  0  0  0
    0.7759   -0.1570    0.4180 H   0  0  0  0  0  0  0  0  0  0  0  0
    0.0281   -1.5004   -0.9866 H   0  0  0  0  0  0  0  0  0  0  0  0
  1  2  1  0  0  0  0
  1  3  1  0  0  0  0
  1  5  1  0  0  0  0
  2  8  1  0  0  0  0
  4  1  1  0  0  0  0
  6  2  1  0  0  0  0
  6  9  1  0  0  0  0
  6 10  1  0  0  0  0
  7  2  1  0  0  0  0
  9 13  1  0  0  0  0
  9 12  1  0  0  0  0
 11  6  1  0  0  0  0
 14  9  1  0  0  0  0
M  END
$$$$
