butane_opt
 OpenBabel08242015383D

 14 13  0  0  0  0  0  0  0  0999 V2000
   -3.9470    0.2734    0.0223 C   0  0  0  0  0  0  0  0  0  0  0  0
   -2.6979   -0.6329    0.0292 C   0  0  0  0  0  0  0  0  0  0  0  0
   -4.8473   -0.3020    0.0123 H   0  0  0  0  0  0  0  0  0  0  0  0
   -3.9559    0.8819   -0.8655 H   0  0  0  0  0  0  0  0  0  0  0  0
   -3.9798    1.0327    0.9091 H   0  0  0  0  0  0  0  0  0  0  0  0
   -1.3940    0.1680    0.0087 C   0  0  0  0  0  0  0  0  0  0  0  0
   -2.6949   -1.3045   -0.8386 H   0  0  0  0  0  0  0  0  0  0  0  0
   -2.7194   -1.2650    0.9151 H   0  0  0  0  0  0  0  0  0  0  0  0
   -0.1735   -0.6798    0.0417 C   0  0  0  0  0  0  0  0  0  0  0  0
   -1.3986    0.8867    0.8879 H   0  0  0  0  0  0  0  0  0  0  0  0
   -1.3518    0.7934   -0.8740 H   0  0  0  0  0  0  0  0  0  0  0  0
   -0.0684   -1.3740    0.9836 H   0  0  0  0  0  0  0  0  0  0  0  0
    0.7363   -0.0832   -0.1162 H   0  0  0  0  0  0  0  0  0  0  0  0
   -0.2040   -1.2795   -0.7836 H   0  0  0  0  0  0  0  0  0  0  0  0
  1  2  1  0  0  0  0
  1  5  1  0  0  0  0
  2  8  1  0  0  0  0
  3  1  1  0  0  0  0
  4  1  1  0  0  0  0
  6  2  1  0  0  0  0
  6  9  1  0  0  0  0
  6 10  1  0  0  0  0
  7  2  1  0  0  0  0
  9 12  1  0  0  0  0
 11  6  1  0  0  0  0
 13  9  1  0  0  0  0
 14  9  1  0  0  0  0
M  END
$$$$
