butane_opt
 OpenBabel08242015383D

 14 13  0  0  0  0  0  0  0  0999 V2000
   -3.8994    0.3108    0.0918 C   0  0  0  0  0  0  0  0  0  0  0  0
   -2.6796   -0.6704    0.0113 C   0  0  0  0  0  0  0  0  0  0  0  0
   -4.7680   -0.1483   -0.3260 H   0  0  0  0  0  0  0  0  0  0  0  0
   -3.7247    0.4561   -0.5661 H   0  0  0  0  0  0  0  0  0  0  0  0
   -4.1815    1.2555    1.0811 H   0  0  0  0  0  0  0  0  0  0  0  0
   -1.4029    0.1671   -0.0674 C   0  0  0  0  0  0  0  0  0  0  0  0
   -2.8273   -1.3915   -0.8714 H   0  0  0  0  0  0  0  0  0  0  0  0
   -2.6855   -1.2004    0.8221 H   0  0  0  0  0  0  0  0  0  0  0  0
   -0.2234   -0.6782    0.0776 C   0  0  0  0  0  0  0  0  0  0  0  0
   -1.5546    0.6691    0.6391 H   0  0  0  0  0  0  0  0  0  0  0  0
   -1.3211    0.8664   -1.0991 H   0  0  0  0  0  0  0  0  0  0  0  0
   -0.2409   -1.4086    1.0815 H   0  0  0  0  0  0  0  0  0  0  0  0
    0.8201    0.0534   -0.0104 H   0  0  0  0  0  0  0  0  0  0  0  0
   -0.1280   -1.1464   -0.6165 H   0  0  0  0  0  0  0  0  0  0  0  0
  1  5  1  0  0  0  0
  2  1  1  0  0  0  0
  2  8  1  0  0  0  0
  3  1  1  0  0  0  0
  4  1  1  0  0  0  0
  6  2  1  0  0  0  0
  6  9  1  0  0  0  0
  6 10  1  0  0  0  0
  7  2  1  0  0  0  0
  9 12  1  0  0  0  0
 11  6  1  0  0  0  0
 13  9  1  0  0  0  0
 14  9  1  0  0  0  0
M  END
$$$$
