14
butane_opt
C  -3.910973   0.224170   0.114763
C  -2.727885  -0.561542  -0.027290
H  -4.912033  -0.467620   0.127717
H  -3.953055   0.824830  -0.752025
H  -3.772431   0.911348   0.985935
C  -1.451518   0.222926  -0.116868
H  -2.874958  -1.213426  -0.947603
H  -2.508901  -1.232766   0.822468
C  -0.121191  -0.716534   0.100012
H  -1.571505   0.758079   0.581724
H  -1.432056   0.926550  -1.017611
H  -0.391638  -1.234374   0.963120
H   0.799877  -0.177152   0.625352
H   0.149568  -1.616599  -0.815411
