butane_opt
 OpenBabel08242015383D

 14 13  0  0  0  0  0  0  0  0999 V2000
   -3.9668    0.3062   -0.0244 C   0  0  0  0  0  0  0  0  0  0  0  0
   -2.6897   -0.6489    0.0921 C   0  0  0  0  0  0  0  0  0  0  0  0
   -4.8698   -0.2364    0.0100 H   0  0  0  0  0  0  0  0  0  0  0  0
   -4.0211    1.2504   -1.1639 H   0  0  0  0  0  0  0  0  0  0  0  0
   -4.0844    0.7310    0.7023 H   0  0  0  0  0  0  0  0  0  0  0  0
   -1.3881    0.1057    0.0859 C   0  0  0  0  0  0  0  0  0  0  0  0
   -2.7523   -1.2921   -0.6781 H   0  0  0  0  0  0  0  0  0  0  0  0
   -2.8715   -1.3049    0.9677 H   0  0  0  0  0  0  0  0  0  0  0  0
   -0.1575   -0.6516   -0.0296 C   0  0  0  0  0  0  0  0  0  0  0  0
   -1.3502    0.8943    1.0927 H   0  0  0  0  0  0  0  0  0  0  0  0
   -1.3563    0.7392   -0.7695 H   0  0  0  0  0  0  0  0  0  0  0  0
   -0.0416   -1.1554    0.7703 H   0  0  0  0  0  0  0  0  0  0  0  0
    0.9337    0.0586   -0.0302 H   0  0  0  0  0  0  0  0  0  0  0  0
   -0.2300   -1.4528   -1.0038 H   0  0  0  0  0  0  0  0  0  0  0  0
  1  3  1  0  0  0  0
  1  2  1  0  0  0  0
  1  5  1  0  0  0  0
  2  8  1  0  0  0  0
  4  1  1  0  0  0  0
  6  2  1  0  0  0  0
  6 10  1  0  0  0  0
  7  2  1  0  0  0  0
  9  6  1  0  0  0  0
  9 12  1  0  0  0  0
 11  6  1  0  0  0  0
 13  9  1  0  0  0  0
 14  9  1  0  0  0  0
M  END
$$$$
