butane_opt
 OpenBabel08242015383D

 14 13  0  0  0  0  0  0  0  0999 V2000
   -3.9969    0.2980    0.0069 C   0  0  0  0  0  0  0  0  0  0  0  0
   -2.7092   -0.6695    0.0717 C   0  0  0  0  0  0  0  0  0  0  0  0
   -4.7347   -0.1555    0.1429 H   0  0  0  0  0  0  0  0  0  0  0  0
   -4.0942    1.0610   -0.9095 H   0  0  0  0  0  0  0  0  0  0  0  0
   -4.0519    0.8174    0.7424 H   0  0  0  0  0  0  0  0  0  0  0  0
   -1.3858    0.1509   -0.0184 C   0  0  0  0  0  0  0  0  0  0  0  0
   -2.5441   -1.3324   -0.6905 H   0  0  0  0  0  0  0  0  0  0  0  0
   -2.7171   -1.4627    1.1409 H   0  0  0  0  0  0  0  0  0  0  0  0
   -0.1545   -0.6487   -0.0116 C   0  0  0  0  0  0  0  0  0  0  0  0
   -1.3016    0.9235    0.9429 H   0  0  0  0  0  0  0  0  0  0  0  0
   -1.3693    0.7090   -0.8868 H   0  0  0  0  0  0  0  0  0  0  0  0
   -0.2403   -0.9997    0.7709 H   0  0  0  0  0  0  0  0  0  0  0  0
    0.7696    0.0180    0.5962 H   0  0  0  0  0  0  0  0  0  0  0  0
    0.1681   -1.5972   -1.0237 H   0  0  0  0  0  0  0  0  0  0  0  0
  1  2  1  0  0  0  0
  1  3  1  0  0  0  0
  1  5  1  0  0  0  0
  2  8  1  0  0  0  0
  4  1  1  0  0  0  0
  6  9  1  0  0  0  0
  6  2  1  0  0  0  0
  6 10  1  0  0  0  0
  7  2  1  0  0  0  0
  9 13  1  0  0  0  0
  9 12  1  0  0  0  0
 11  6  1  0  0  0  0
 14  9  1  0  0  0  0
M  END
$$$$
