butane_opt
 OpenBabel08242015383D

 14 13  0  0  0  0  0  0  0  0999 V2000
   -3.9032    0.2168    0.1139 C   0  0  0  0  0  0  0  0  0  0  0  0
   -2.6900   -0.5654   -0.0112 C   0  0  0  0  0  0  0  0  0  0  0  0
   -4.8899   -0.4636   -0.1141 H   0  0  0  0  0  0  0  0  0  0  0  0
   -3.9203    0.6868   -0.6711 H   0  0  0  0  0  0  0  0  0  0  0  0
   -3.8220    1.0766    1.0691 H   0  0  0  0  0  0  0  0  0  0  0  0
   -1.4296    0.2095   -0.1095 C   0  0  0  0  0  0  0  0  0  0  0  0
   -2.8973   -1.2614   -0.8458 H   0  0  0  0  0  0  0  0  0  0  0  0
   -2.5760   -1.0253    0.7201 H   0  0  0  0  0  0  0  0  0  0  0  0
   -0.1736   -0.7169    0.0968 C   0  0  0  0  0  0  0  0  0  0  0  0
   -1.4590    0.7338    0.5914 H   0  0  0  0  0  0  0  0  0  0  0  0
   -1.4689    1.0222   -1.1576 H   0  0  0  0  0  0  0  0  0  0  0  0
   -0.3794   -1.3128    1.1324 H   0  0  0  0  0  0  0  0  0  0  0  0
    0.6035   -0.2293    0.4307 H   0  0  0  0  0  0  0  0  0  0  0  0
    0.1614   -1.4781   -0.7934 H   0  0  0  0  0  0  0  0  0  0  0  0
  1  5  1  0  0  0  0
  2  1  1  0  0  0  0
  2  8  1  0  0  0  0
  3  1  1  0  0  0  0
  4  1  1  0  0  0  0
  6  2  1  0  0  0  0
  6  9  1  0  0  0  0
  6 10  1  0  0  0  0
  7  2  1  0  0  0  0
  9 13  1  0  0  0  0
  9 12  1  0  0  0  0
 11  6  1  0  0  0  0
 14  9  1  0  0  0  0
M  END
$$$$
