butane_opt
 OpenBabel08242015383D

 14 12  0  0  0  0  0  0  0  0999 V2000
   -3.9106    0.2441    0.0735 C   0  0  0  0  0  0  0  0  0  0  0  0
   -2.7220   -0.5565    0.0149 C   0  0  0  0  0  0  0  0  0  0  0  0
   -4.9202   -0.4814   -0.3944 H   0  0  0  0  0  0  0  0  0  0  0  0
   -3.7714    0.4204   -0.5896 H   0  0  0  0  0  0  0  0  0  0  0  0
   -3.8160    1.3437    1.2197 H   0  0  0  0  0  0  0  0  0  0  0  0
   -1.4032    0.1823   -0.0649 C   0  0  0  0  0  0  0  0  0  0  0  0
   -2.6836   -1.2838   -0.9166 H   0  0  0  0  0  0  0  0  0  0  0  0
   -2.8049   -1.2035    0.9375 H   0  0  0  0  0  0  0  0  0  0  0  0
   -0.1716   -0.7121    0.0870 C   0  0  0  0  0  0  0  0  0  0  0  0
   -1.5547    0.7005    0.7151 H   0  0  0  0  0  0  0  0  0  0  0  0
   -1.3909    1.0574   -1.1070 H   0  0  0  0  0  0  0  0  0  0  0  0
   -0.1643   -1.4951    1.0053 H   0  0  0  0  0  0  0  0  0  0  0  0
    0.6416   -0.2069   -0.0831 H   0  0  0  0  0  0  0  0  0  0  0  0
   -0.0618   -1.2358   -0.6236 H   0  0  0  0  0  0  0  0  0  0  0  0
  2  1  1  0  0  0  0
  2  8  1  0  0  0  0
  3  1  1  0  0  0  0
  4  1  1  0  0  0  0
  6  2  1  0  0  0  0
  6  9  1  0  0  0  0
  6 10  1  0  0  0  0
  7  2  1  0  0  0  0
  9 12  1  0  0  0  0
 11  6  1  0  0  0  0
 13  9  1  0  0  0  0
 14  9  1  0  0  0  0
M  RAD  2   1   2   5   2
M  END
$$$$
