14
butane_opt
C  -3.959263   0.268625   0.048711
C  -2.707190  -0.611212   0.020765
H  -4.821642  -0.292205  -0.095062
H  -3.965058   0.773200  -0.773958
H  -4.035189   1.062607   0.996272
C  -1.390408   0.171739  -0.030802
H  -2.719958  -1.342028  -0.842086
H  -2.704095  -1.282723   0.930641
C  -0.147968  -0.688853   0.053863
H  -1.388658   0.831881   0.792309
H  -1.366484   0.821668  -0.944548
H  -0.229497  -1.337398   0.993337
H   0.768429  -0.072861   0.029568
H  -0.102340  -1.309558  -0.744218
