butane_opt
 OpenBabel08242015383D

 14 13  0  0  0  0  0  0  0  0999 V2000
   -3.9210    0.2814   -0.0327 C   0  0  0  0  0  0  0  0  0  0  0  0
   -2.6640   -0.6531    0.1168 C   0  0  0  0  0  0  0  0  0  0  0  0
   -4.8378   -0.3304   -0.2322 H   0  0  0  0  0  0  0  0  0  0  0  0
   -3.7292    0.7001   -0.8494 H   0  0  0  0  0  0  0  0  0  0  0  0
   -4.1238    1.1847    0.9250 H   0  0  0  0  0  0  0  0  0  0  0  0
   -1.4485    0.1677    0.0593 C   0  0  0  0  0  0  0  0  0  0  0  0
   -2.4893   -1.2873   -0.6850 H   0  0  0  0  0  0  0  0  0  0  0  0
   -2.7069   -1.3473    0.9688 H   0  0  0  0  0  0  0  0  0  0  0  0
   -0.1948   -0.6683   -0.0109 C   0  0  0  0  0  0  0  0  0  0  0  0
   -1.1885    0.7713    0.8698 H   0  0  0  0  0  0  0  0  0  0  0  0
   -1.4268    1.0018   -0.9697 H   0  0  0  0  0  0  0  0  0  0  0  0
   -0.1216   -1.2167    0.8934 H   0  0  0  0  0  0  0  0  0  0  0  0
    0.6627   -0.0951   -0.0400 H   0  0  0  0  0  0  0  0  0  0  0  0
   -0.3229   -1.4098   -0.9835 H   0  0  0  0  0  0  0  0  0  0  0  0
  1  2  1  0  0  0  0
  1  5  1  0  0  0  0
  2  8  1  0  0  0  0
  3  1  1  0  0  0  0
  4  1  1  0  0  0  0
  6  2  1  0  0  0  0
  6 10  1  0  0  0  0
  7  2  1  0  0  0  0
  9  6  1  0  0  0  0
  9 12  1  0  0  0  0
 11  6  1  0  0  0  0
 13  9  1  0  0  0  0
 14  9  1  0  0  0  0
M  END
$$$$
