14
butane_opt
C  -3.974348   0.297388  -0.058070
C  -2.671288  -0.678103   0.123849
H  -4.763330  -0.184407  -0.153301
H  -3.984702   1.018772  -0.978301
H  -4.249735   0.977050   0.740931
C  -1.386549   0.159666   0.145585
H  -2.648292  -1.473435  -0.801718
H  -2.883977  -1.232192   0.881173
C  -0.173974  -0.639950  -0.084980
H  -1.296847   0.785986   0.977492
H  -1.445496   0.695754  -0.665836
H   0.125425  -1.567136   1.035696
H   0.832069  -0.014742  -0.351490
H  -0.278109  -1.090597  -0.723411
