14
butane_opt
C  -3.887936   0.207448   0.069775
C  -2.706807  -0.540543   0.006449
H  -4.774125  -0.447714   0.144007
H  -3.911060   0.725536  -0.766547
H  -3.964070   1.043432   0.995508
C  -1.435565   0.216153  -0.080442
H  -2.890831  -1.232032  -0.937151
H  -2.605424  -1.287640   0.906808
C  -0.155238  -0.736187   0.112166
H  -1.548495   0.778067   0.609428
H  -1.362364   1.080963  -1.094077
H  -0.286526  -1.054378   0.804897
H   0.691077  -0.223905   0.370057
H  -0.092706  -1.648839  -0.894796
