14
butane_opt
C  -3.968128   0.293509   0.068500
C  -2.720312  -0.655021   0.008999
H  -4.783817  -0.150996  -0.129214
H  -3.966895   0.584838  -0.636619
H  -4.176139   1.292234   1.149162
C  -1.386132   0.129795  -0.089537
H  -2.705577  -1.326920  -0.861710
H  -2.791640  -1.218302   0.921650
C  -0.122802  -0.665765   0.093711
H  -1.265152   0.858807   0.789775
H  -1.314701   0.870684  -1.087664
H  -0.319490  -1.378662   1.018049
H   0.792325  -0.048492   0.070206
H  -0.126186  -1.193832  -0.707470
