14
butane_opt
C  -3.981724   0.233706  -0.098874
C  -2.697293  -0.584547   0.113957
H  -4.944217  -0.389700   0.069866
H  -4.047898   1.018938  -0.990360
H  -3.997918   0.740342   0.639361
C  -1.401843   0.228811   0.164783
H  -2.687457  -1.263500  -0.773584
H  -2.883021  -1.216274   1.015410
C  -0.110816  -0.733273  -0.036110
H  -1.293414   0.878746   1.012662
H  -1.570510   0.757564  -0.641010
H   0.228072  -1.300256   0.778785
H   0.805778  -0.137344  -0.517838
H  -0.313218  -1.294947  -0.891363
