butane_opt
 OpenBabel08242015383D

 14 13  0  0  0  0  0  0  0  0999 V2000
   -3.9269    0.2522   -0.0492 C   0  0  0  0  0  0  0  0  0  0  0  0
   -2.6955   -0.5608    0.0329 C   0  0  0  0  0  0  0  0  0  0  0  0
   -4.8541   -0.2926    0.3114 H   0  0  0  0  0  0  0  0  0  0  0  0
   -4.1834    1.0362   -0.9836 H   0  0  0  0  0  0  0  0  0  0  0  0
   -3.7224    0.6152    0.6476 H   0  0  0  0  0  0  0  0  0  0  0  0
   -1.3912    0.1537    0.1169 C   0  0  0  0  0  0  0  0  0  0  0  0
   -2.6688   -1.2268   -0.7685 H   0  0  0  0  0  0  0  0  0  0  0  0
   -2.7786   -1.3301    1.0192 H   0  0  0  0  0  0  0  0  0  0  0  0
   -0.1652   -0.6938   -0.0273 C   0  0  0  0  0  0  0  0  0  0  0  0
   -1.4107    0.9452    1.1086 H   0  0  0  0  0  0  0  0  0  0  0  0
   -1.5132    0.7908   -0.7111 H   0  0  0  0  0  0  0  0  0  0  0  0
   -0.1398   -1.4112    0.9547 H   0  0  0  0  0  0  0  0  0  0  0  0
    0.7707   -0.1183   -0.0961 H   0  0  0  0  0  0  0  0  0  0  0  0
   -0.3738   -1.2957   -0.9429 H   0  0  0  0  0  0  0  0  0  0  0  0
  1  2  1  0  0  0  0
  1  3  1  0  0  0  0
  1  5  1  0  0  0  0
  2  6  1  0  0  0  0
  2  8  1  0  0  0  0
  4  1  1  0  0  0  0
  6 10  1  0  0  0  0
  7  2  1  0  0  0  0
  9  6  1  0  0  0  0
  9 12  1  0  0  0  0
 11  6  1  0  0  0  0
 13  9  1  0  0  0  0
 14  9  1  0  0  0  0
M  END
$$$$
