14
butane_opt
C  -3.958933   0.234242  -0.039904
C  -2.734011  -0.573052   0.136972
H  -4.986359  -0.458589  -0.028807
H  -3.911416   0.849492  -0.858547
H  -4.089931   0.774680   0.788028
C  -1.399661   0.234052   0.020546
H  -2.713332  -1.116798  -0.676131
H  -2.817446  -1.339844   1.114897
C  -0.095117  -0.741909  -0.055669
H  -1.414765   1.022111   1.008730
H  -1.518681   0.860865  -0.894992
H  -0.249966  -1.108777   0.734181
H   0.823047  -0.245842   0.517949
H   0.136015  -1.586717  -1.024390
