butane_opt
 OpenBabel08242015383D

 14 13  0  0  0  0  0  0  0  0999 V2000
   -4.0030    0.2804   -0.0622 C   0  0  0  0  0  0  0  0  0  0  0  0
   -2.6721   -0.6660    0.1189 C   0  0  0  0  0  0  0  0  0  0  0  0
   -4.8991   -0.2138   -0.1890 H   0  0  0  0  0  0  0  0  0  0  0  0
   -3.9434    1.0997   -1.0472 H   0  0  0  0  0  0  0  0  0  0  0  0
   -4.1902    0.8043    0.6875 H   0  0  0  0  0  0  0  0  0  0  0  0
   -1.3830    0.1736    0.1610 C   0  0  0  0  0  0  0  0  0  0  0  0
   -2.6808   -1.3440   -0.7828 H   0  0  0  0  0  0  0  0  0  0  0  0
   -2.7848   -1.1833    0.9768 H   0  0  0  0  0  0  0  0  0  0  0  0
   -0.1137   -0.6811   -0.0614 C   0  0  0  0  0  0  0  0  0  0  0  0
   -1.2925    0.9057    1.0217 H   0  0  0  0  0  0  0  0  0  0  0  0
   -1.4920    0.7190   -0.6918 H   0  0  0  0  0  0  0  0  0  0  0  0
    0.0253   -1.3487    0.8841 H   0  0  0  0  0  0  0  0  0  0  0  0
    0.8009   -0.1222   -0.4675 H   0  0  0  0  0  0  0  0  0  0  0  0
   -0.4894   -1.0714   -0.8305 H   0  0  0  0  0  0  0  0  0  0  0  0
  1  2  1  0  0  0  0
  1  5  1  0  0  0  0
  2  6  1  0  0  0  0
  2  8  1  0  0  0  0
  3  1  1  0  0  0  0
  4  1  1  0  0  0  0
  6 10  1  0  0  0  0
  7  2  1  0  0  0  0
  9  6  1  0  0  0  0
  9 12  1  0  0  0  0
 11  6  1  0  0  0  0
 13  9  1  0  0  0  0
 14  9  1  0  0  0  0
M  END
$$$$
