14
butane_opt
C  -3.947100   0.243278  -0.062005
C  -2.767952  -0.584261   0.105412
H  -4.902769  -0.402825  -0.023632
H  -3.822943   0.845595  -0.951424
H  -4.037820   1.007535   0.766626
C  -1.407505   0.219588   0.096918
H  -2.692317  -1.230162  -0.751540
H  -2.868781  -1.341369   1.038565
C  -0.078132  -0.734067  -0.032712
H  -1.455812   1.053311   1.094061
H  -1.358785   0.709802  -0.719853
H   0.137767  -1.427555   0.887608
H   0.816672  -0.210537  -0.378756
H  -0.410227  -1.209281  -0.787651
