butane_opt
 OpenBabel08242015383D

 14 13  0  0  0  0  0  0  0  0999 V2000
   -3.9443    0.2541    0.0479 C   0  0  0  0  0  0  0  0  0  0  0  0
   -2.7157   -0.6282    0.0070 C   0  0  0  0  0  0  0  0  0  0  0  0
   -4.9210   -0.3942    0.0072 H   0  0  0  0  0  0  0  0  0  0  0  0
   -3.9169    0.7985   -0.7452 H   0  0  0  0  0  0  0  0  0  0  0  0
   -4.0917    1.0370    1.0166 H   0  0  0  0  0  0  0  0  0  0  0  0
   -1.3862    0.2356   -0.0287 C   0  0  0  0  0  0  0  0  0  0  0  0
   -2.8337   -1.2546   -0.8542 H   0  0  0  0  0  0  0  0  0  0  0  0
   -2.5881   -1.2426    0.9367 H   0  0  0  0  0  0  0  0  0  0  0  0
   -0.1657   -0.7113    0.0765 C   0  0  0  0  0  0  0  0  0  0  0  0
   -1.3666    0.8064    0.7177 H   0  0  0  0  0  0  0  0  0  0  0  0
   -1.2880    0.9833   -1.0874 H   0  0  0  0  0  0  0  0  0  0  0  0
   -0.0969   -1.2806    0.9642 H   0  0  0  0  0  0  0  0  0  0  0  0
    0.7125   -0.2399    0.1568 H   0  0  0  0  0  0  0  0  0  0  0  0
   -0.0639   -1.5205   -0.9003 H   0  0  0  0  0  0  0  0  0  0  0  0
  1  5  1  0  0  0  0
  2  1  1  0  0  0  0
  2  8  1  0  0  0  0
  3  1  1  0  0  0  0
  4  1  1  0  0  0  0
  6  2  1  0  0  0  0
  6  9  1  0  0  0  0
  6 10  1  0  0  0  0
  7  2  1  0  0  0  0
  9 13  1  0  0  0  0
  9 12  1  0  0  0  0
 11  6  1  0  0  0  0
 14  9  1  0  0  0  0
M  END
$$$$
