14
butane_opt
C  -4.005797   0.307047   0.089982
C  -2.711912  -0.662699  -0.016914
H  -4.801315  -0.217440  -0.359448
H  -3.942782   0.469916  -0.562148
H  -4.133402   1.347744   1.160097
C  -1.332553   0.165892  -0.080216
H  -2.761243  -1.334297  -0.864686
H  -2.705997  -1.332480   0.885355
C  -0.144765  -0.680261   0.083813
H  -1.334189   0.807828   0.803565
H  -1.445774   0.900081  -1.015368
H  -0.200314  -1.617670   1.172427
H   0.811044   0.023320  -0.041517
H  -0.192548  -1.061482  -0.575659
