14
butane_opt
C  -3.930445   0.278678  -0.050779
C  -2.721271  -0.632336   0.118793
H  -4.742414  -0.185587  -0.343604
H  -3.984158   0.707267  -0.848810
H  -4.121530   1.172877   0.978738
C  -1.396158   0.170890   0.043794
H  -2.696406  -1.244419  -0.623992
H  -2.803766  -1.464234   1.201759
C  -0.147724  -0.671070  -0.022993
H  -1.377967   0.889868   0.995531
H  -1.276867   0.686096  -0.843557
H  -0.072200  -1.260379   0.880072
H   0.750515  -0.129434  -0.135995
H  -0.352286  -1.377060  -0.889993
