14
butane_opt
C  -3.973877   0.256487   0.068820
C  -2.727695  -0.601390  -0.052949
H  -4.897102  -0.360857   0.560367
H  -4.146818   1.092023  -1.001951
H  -3.873711   0.679437   0.867185
C  -1.377662   0.205979  -0.053674
H  -2.725668  -1.336852  -0.907170
H  -2.675173  -1.291161   0.778721
C  -0.123398  -0.706094   0.092955
H  -1.433578   1.065580   0.936702
H  -1.243596   0.700019  -0.848469
H  -0.126537  -1.252737   0.989659
H   0.620612  -0.269879   0.118894
H  -0.061887  -1.358682  -0.734464
