butane_opt
 OpenBabel08242015383D

 14 13  0  0  0  0  0  0  0  0999 V2000
   -3.9550    0.2279   -0.0776 C   0  0  0  0  0  0  0  0  0  0  0  0
   -2.7053   -0.5893    0.1968 C   0  0  0  0  0  0  0  0  0  0  0  0
   -4.7811   -0.3351   -0.3163 H   0  0  0  0  0  0  0  0  0  0  0  0
   -3.6556    0.6623   -0.9495 H   0  0  0  0  0  0  0  0  0  0  0  0
   -4.2057    1.0234    0.8182 H   0  0  0  0  0  0  0  0  0  0  0  0
   -1.4118    0.2294    0.0934 C   0  0  0  0  0  0  0  0  0  0  0  0
   -2.6951   -1.1891   -0.5780 H   0  0  0  0  0  0  0  0  0  0  0  0
   -2.8543   -1.2425    1.0623 H   0  0  0  0  0  0  0  0  0  0  0  0
   -0.1305   -0.7119   -0.0861 C   0  0  0  0  0  0  0  0  0  0  0  0
   -1.3765    0.8717    0.8955 H   0  0  0  0  0  0  0  0  0  0  0  0
   -1.5932    0.8341   -0.8181 H   0  0  0  0  0  0  0  0  0  0  0  0
   -0.0866   -1.2864    0.7391 H   0  0  0  0  0  0  0  0  0  0  0  0
    0.6567   -0.1718    0.0806 H   0  0  0  0  0  0  0  0  0  0  0  0
   -0.0065   -1.5171   -0.9891 H   0  0  0  0  0  0  0  0  0  0  0  0
  1  2  1  0  0  0  0
  1  5  1  0  0  0  0
  2  8  1  0  0  0  0
  3  1  1  0  0  0  0
  4  1  1  0  0  0  0
  6  2  1  0  0  0  0
  6 10  1  0  0  0  0
  7  2  1  0  0  0  0
  9 13  1  0  0  0  0
  9  6  1  0  0  0  0
  9 12  1  0  0  0  0
 11  6  1  0  0  0  0
 14  9  1  0  0  0  0
M  END
$$$$
