butane_opt
 OpenBabel08242015383D

 14 12  0  0  0  0  0  0  0  0999 V2000
   -3.9007    0.2191    0.0919 C   0  0  0  0  0  0  0  0  0  0  0  0
   -2.6869   -0.5924    0.0037 C   0  0  0  0  0  0  0  0  0  0  0  0
   -4.7726   -0.3199   -0.3071 H   0  0  0  0  0  0  0  0  0  0  0  0
   -3.8826    0.4759   -0.5179 H   0  0  0  0  0  0  0  0  0  0  0  0
   -4.1229    1.3930    1.1822 H   0  0  0  0  0  0  0  0  0  0  0  0
   -1.4262    0.2125   -0.1115 C   0  0  0  0  0  0  0  0  0  0  0  0
   -2.7422   -1.2905   -0.9257 H   0  0  0  0  0  0  0  0  0  0  0  0
   -2.6063   -1.1734    0.8106 H   0  0  0  0  0  0  0  0  0  0  0  0
   -0.1723   -0.7070    0.1063 C   0  0  0  0  0  0  0  0  0  0  0  0
   -1.5725    0.8340    0.7274 H   0  0  0  0  0  0  0  0  0  0  0  0
   -1.3692    0.7829   -1.0203 H   0  0  0  0  0  0  0  0  0  0  0  0
   -0.2891   -1.5131    1.1350 H   0  0  0  0  0  0  0  0  0  0  0  0
    0.6702   -0.2041   -0.1494 H   0  0  0  0  0  0  0  0  0  0  0  0
   -0.0693   -1.0575   -0.5235 H   0  0  0  0  0  0  0  0  0  0  0  0
  2  1  1  0  0  0  0
  2  8  1  0  0  0  0
  3  1  1  0  0  0  0
  4  1  1  0  0  0  0
  6  2  1  0  0  0  0
  6  9  1  0  0  0  0
  6 10  1  0  0  0  0
  7  2  1  0  0  0  0
  9 12  1  0  0  0  0
 11  6  1  0  0  0  0
 13  9  1  0  0  0  0
 14  9  1  0  0  0  0
M  RAD  2   1   2   5   2
M  END
$$$$
