14
butane_opt
C  -3.918470   0.237805   0.100156
C  -2.722767  -0.573989  -0.047496
H  -4.986338  -0.464006  -0.201659
H  -3.761602   0.517317  -0.629439
H  -4.045242   1.310821   1.245100
C  -1.434524   0.212472  -0.091364
H  -2.879471  -1.278668  -0.900573
H  -2.484296  -1.332569   0.871570
C  -0.140307  -0.725365   0.110941
H  -1.544609   0.863136   0.771832
H  -1.398394   0.911125  -1.017327
H  -0.123634  -1.611047   1.124212
H   0.853117  -0.117076  -0.061573
H  -0.048262  -1.081473  -0.572714
