14
butane_opt
C  -3.926005   0.290731  -0.048526
C  -2.668616  -0.638888   0.144777
H  -4.865136  -0.322875   0.043952
H  -3.891143   0.989021  -0.934435
H  -3.958948   0.836175   0.684827
C  -1.376763   0.167567   0.036928
H  -2.739749  -1.406821  -0.731857
H  -2.603480  -1.178722   1.028497
C  -0.214589  -0.671689  -0.031891
H  -1.271448   0.787711   0.808422
H  -1.518602   0.816412  -0.776258
H  -0.345904  -1.062843   0.737152
H   0.633653  -0.148183   0.379961
H  -0.216424  -1.579404  -1.043568
