14
butane_opt
C  -3.980682   0.259341  -0.052827
C  -2.694119  -0.648791   0.064188
H  -4.803494  -0.232551  -0.011789
H  -3.917105   0.861492  -0.931009
H  -4.090289   0.966652   0.839668
C  -1.382771   0.212901   0.102699
H  -2.607126  -1.232584  -0.701930
H  -2.812074  -1.381524   1.156095
C  -0.150811  -0.677057  -0.024604
H  -1.315509   0.994292   1.040820
H  -1.557066   0.812677  -0.753840
H   0.065947  -1.543405   0.904993
H   0.773554  -0.083533  -0.264410
H  -0.274812  -1.376084  -0.883342
