butane_opt
 OpenBabel08242015383D

 14 13  0  0  0  0  0  0  0  0999 V2000
   -3.9955    0.3196    0.0618 C   0  0  0  0  0  0  0  0  0  0  0  0
   -2.6949   -0.6898    0.0200 C   0  0  0  0  0  0  0  0  0  0  0  0
   -4.8058   -0.1576   -0.0147 H   0  0  0  0  0  0  0  0  0  0  0  0
   -4.1986    0.7697   -0.7538 H   0  0  0  0  0  0  0  0  0  0  0  0
   -3.9386    0.9435    0.9792 H   0  0  0  0  0  0  0  0  0  0  0  0
   -1.3738    0.1726   -0.0853 C   0  0  0  0  0  0  0  0  0  0  0  0
   -2.7162   -1.3278   -0.8003 H   0  0  0  0  0  0  0  0  0  0  0  0
   -2.6364   -1.3364    0.8980 H   0  0  0  0  0  0  0  0  0  0  0  0
   -0.1551   -0.6572    0.0921 C   0  0  0  0  0  0  0  0  0  0  0  0
   -1.2205    0.7129    0.6902 H   0  0  0  0  0  0  0  0  0  0  0  0
   -1.2564    0.9374   -0.9842 H   0  0  0  0  0  0  0  0  0  0  0  0
   -0.3246   -1.0466    0.8723 H   0  0  0  0  0  0  0  0  0  0  0  0
    0.7276   -0.0926    0.3788 H   0  0  0  0  0  0  0  0  0  0  0  0
   -0.0330   -1.6188   -0.9186 H   0  0  0  0  0  0  0  0  0  0  0  0
  1  5  1  0  0  0  0
  2  1  1  0  0  0  0
  2  8  1  0  0  0  0
  3  1  1  0  0  0  0
  4  1  1  0  0  0  0
  6  2  1  0  0  0  0
  6  9  1  0  0  0  0
  6 10  1  0  0  0  0
  7  2  1  0  0  0  0
  9 13  1  0  0  0  0
  9 12  1  0  0  0  0
 11  6  1  0  0  0  0
 14  9  1  0  0  0  0
M  END
$$$$
