14
butane_opt
C  -3.940238   0.245986  -0.063598
C  -2.748280  -0.618033   0.139989
H  -4.861863  -0.351677  -0.163762
H  -3.872964   0.801608  -0.903818
H  -4.022467   1.033011   0.915073
C  -1.417677   0.238099   0.043457
H  -2.594709  -1.117100  -0.556890
H  -2.976289  -1.270988   1.061757
C  -0.106761  -0.728171  -0.034095
H  -1.265037   0.901868   0.991551
H  -1.446057   0.829708  -0.793647
H  -0.043065  -1.234374   0.811230
H   0.852670  -0.188811   0.086196
H  -0.228335  -1.541405  -1.020089
