butane_opt
 OpenBabel08242015383D

 14 13  0  0  0  0  0  0  0  0999 V2000
   -3.9598    0.2777    0.0449 C   0  0  0  0  0  0  0  0  0  0  0  0
   -2.6968   -0.6390    0.0261 C   0  0  0  0  0  0  0  0  0  0  0  0
   -4.8405   -0.2909   -0.1008 H   0  0  0  0  0  0  0  0  0  0  0  0
   -3.9475    0.7943   -0.8042 H   0  0  0  0  0  0  0  0  0  0  0  0
   -4.0237    1.0401    0.9360 H   0  0  0  0  0  0  0  0  0  0  0  0
   -1.4012    0.1753   -0.0121 C   0  0  0  0  0  0  0  0  0  0  0  0
   -2.7964   -1.3266   -0.8482 H   0  0  0  0  0  0  0  0  0  0  0  0
   -2.6624   -1.2041    0.8521 H   0  0  0  0  0  0  0  0  0  0  0  0
   -0.1452   -0.6818    0.0520 C   0  0  0  0  0  0  0  0  0  0  0  0
   -1.4071    0.8025    0.8283 H   0  0  0  0  0  0  0  0  0  0  0  0
   -1.3815    0.8539   -0.9511 H   0  0  0  0  0  0  0  0  0  0  0  0
   -0.1419   -1.3735    0.9843 H   0  0  0  0  0  0  0  0  0  0  0  0
    0.7753   -0.0862   -0.0359 H   0  0  0  0  0  0  0  0  0  0  0  0
   -0.1727   -1.2617   -0.7399 H   0  0  0  0  0  0  0  0  0  0  0  0
  1  5  1  0  0  0  0
  2  1  1  0  0  0  0
  2  8  1  0  0  0  0
  3  1  1  0  0  0  0
  4  1  1  0  0  0  0
  6  2  1  0  0  0  0
  6  9  1  0  0  0  0
  6 10  1  0  0  0  0
  7  2  1  0  0  0  0
  9 12  1  0  0  0  0
 11  6  1  0  0  0  0
 13  9  1  0  0  0  0
 14  9  1  0  0  0  0
M  END
$$$$
