butane_opt
 OpenBabel08242015383D

 14 13  0  0  0  0  0  0  0  0999 V2000
   -3.9327    0.2703    0.1187 C   0  0  0  0  0  0  0  0  0  0  0  0
   -2.6743   -0.6585   -0.0262 C   0  0  0  0  0  0  0  0  0  0  0  0
   -4.8355   -0.2970    0.0488 H   0  0  0  0  0  0  0  0  0  0  0  0
   -4.1831    0.7676   -0.6774 H   0  0  0  0  0  0  0  0  0  0  0  0
   -4.0638    1.1627    1.1550 H   0  0  0  0  0  0  0  0  0  0  0  0
   -1.4190    0.1980   -0.1611 C   0  0  0  0  0  0  0  0  0  0  0  0
   -2.7351   -1.3485   -0.9474 H   0  0  0  0  0  0  0  0  0  0  0  0
   -2.7131   -1.2961    0.8676 H   0  0  0  0  0  0  0  0  0  0  0  0
   -0.1520   -0.6894    0.1262 C   0  0  0  0  0  0  0  0  0  0  0  0
   -1.3896    0.8673    0.6744 H   0  0  0  0  0  0  0  0  0  0  0  0
   -1.3656    0.8939   -1.0961 H   0  0  0  0  0  0  0  0  0  0  0  0
   -0.4418   -1.2371    0.9034 H   0  0  0  0  0  0  0  0  0  0  0  0
    0.8199   -0.0717    0.5448 H   0  0  0  0  0  0  0  0  0  0  0  0
    0.0505   -1.3638   -0.6883 H   0  0  0  0  0  0  0  0  0  0  0  0
  1  5  1  0  0  0  0
  2  1  1  0  0  0  0
  2  8  1  0  0  0  0
  3  1  1  0  0  0  0
  4  1  1  0  0  0  0
  6  2  1  0  0  0  0
  6  9  1  0  0  0  0
  6 10  1  0  0  0  0
  7  2  1  0  0  0  0
  9 13  1  0  0  0  0
  9 12  1  0  0  0  0
 11  6  1  0  0  0  0
 14  9  1  0  0  0  0
M  END
$$$$
