butane_opt
 OpenBabel08242015383D

 14 13  0  0  0  0  0  0  0  0999 V2000
   -3.9471    0.2433   -0.0620 C   0  0  0  0  0  0  0  0  0  0  0  0
   -2.7680   -0.5843    0.1054 C   0  0  0  0  0  0  0  0  0  0  0  0
   -4.9028   -0.4028   -0.0236 H   0  0  0  0  0  0  0  0  0  0  0  0
   -3.8229    0.8456   -0.9514 H   0  0  0  0  0  0  0  0  0  0  0  0
   -4.0378    1.0075    0.7666 H   0  0  0  0  0  0  0  0  0  0  0  0
   -1.4075    0.2196    0.0969 C   0  0  0  0  0  0  0  0  0  0  0  0
   -2.6923   -1.2302   -0.7515 H   0  0  0  0  0  0  0  0  0  0  0  0
   -2.8688   -1.3414    1.0386 H   0  0  0  0  0  0  0  0  0  0  0  0
   -0.0781   -0.7341   -0.0327 C   0  0  0  0  0  0  0  0  0  0  0  0
   -1.4558    1.0533    1.0941 H   0  0  0  0  0  0  0  0  0  0  0  0
   -1.3588    0.7098   -0.7199 H   0  0  0  0  0  0  0  0  0  0  0  0
    0.1378   -1.4276    0.8876 H   0  0  0  0  0  0  0  0  0  0  0  0
    0.8167   -0.2105   -0.3788 H   0  0  0  0  0  0  0  0  0  0  0  0
   -0.4102   -1.2093   -0.7877 H   0  0  0  0  0  0  0  0  0  0  0  0
  1  3  1  0  0  0  0
  1  2  1  0  0  0  0
  1  5  1  0  0  0  0
  2  8  1  0  0  0  0
  4  1  1  0  0  0  0
  6  2  1  0  0  0  0
  6 10  1  0  0  0  0
  7  2  1  0  0  0  0
  9  6  1  0  0  0  0
  9 12  1  0  0  0  0
 11  6  1  0  0  0  0
 13  9  1  0  0  0  0
 14  9  1  0  0  0  0
M  END
$$$$
