butane_opt
 OpenBabel08242015383D

 14 12  0  0  0  0  0  0  0  0999 V2000
   -3.9362    0.2263   -0.0703 C   0  0  0  0  0  0  0  0  0  0  0  0
   -2.6833   -0.5748    0.1276 C   0  0  0  0  0  0  0  0  0  0  0  0
   -4.8299   -0.3676    0.1742 H   0  0  0  0  0  0  0  0  0  0  0  0
   -3.9522    0.9941   -1.0203 H   0  0  0  0  0  0  0  0  0  0  0  0
   -3.7852    0.7222    0.7527 H   0  0  0  0  0  0  0  0  0  0  0  0
   -1.4488    0.2182    0.0458 C   0  0  0  0  0  0  0  0  0  0  0  0
   -2.5205   -1.0910   -0.6139 H   0  0  0  0  0  0  0  0  0  0  0  0
   -2.9059   -1.3772    1.2414 H   0  0  0  0  0  0  0  0  0  0  0  0
   -0.1475   -0.7298   -0.0235 C   0  0  0  0  0  0  0  0  0  0  0  0
   -1.3720    0.9772    0.9889 H   0  0  0  0  0  0  0  0  0  0  0  0
   -1.4917    0.8149   -0.7820 H   0  0  0  0  0  0  0  0  0  0  0  0
   -0.3349   -0.9747    0.5944 H   0  0  0  0  0  0  0  0  0  0  0  0
    0.8057    0.0322    0.2944 H   0  0  0  0  0  0  0  0  0  0  0  0
   -0.0414   -1.8952   -1.2092 H   0  0  0  0  0  0  0  0  0  0  0  0
  1  2  1  0  0  0  0
  1  3  1  0  0  0  0
  1  5  1  0  0  0  0
  2  8  1  0  0  0  0
  4  1  1  0  0  0  0
  6  2  1  0  0  0  0
  6 10  1  0  0  0  0
  7  2  1  0  0  0  0
  9  6  1  0  0  0  0
  9 13  1  0  0  0  0
  9 12  1  0  0  0  0
 11  6  1  0  0  0  0
M  RAD  2   9   2  14   2
M  END
$$$$
