butane_opt
 OpenBabel08242015383D

 14 13  0  0  0  0  0  0  0  0999 V2000
   -3.9353    0.2917   -0.0708 C   0  0  0  0  0  0  0  0  0  0  0  0
   -2.6786   -0.6125    0.1261 C   0  0  0  0  0  0  0  0  0  0  0  0
   -4.7695   -0.2388   -0.1645 H   0  0  0  0  0  0  0  0  0  0  0  0
   -3.9355    1.0039   -1.0888 H   0  0  0  0  0  0  0  0  0  0  0  0
   -4.1436    0.8561    0.7477 H   0  0  0  0  0  0  0  0  0  0  0  0
   -1.4015    0.1291    0.1605 C   0  0  0  0  0  0  0  0  0  0  0  0
   -2.5930   -1.3406   -0.7558 H   0  0  0  0  0  0  0  0  0  0  0  0
   -2.7777   -1.2286    0.9427 H   0  0  0  0  0  0  0  0  0  0  0  0
   -0.1764   -0.6688   -0.0738 C   0  0  0  0  0  0  0  0  0  0  0  0
   -1.0623    0.7849    1.0090 H   0  0  0  0  0  0  0  0  0  0  0  0
   -1.5555    0.5669   -0.6345 H   0  0  0  0  0  0  0  0  0  0  0  0
   -0.1338   -1.5158    0.9503 H   0  0  0  0  0  0  0  0  0  0  0  0
    0.8285    0.0619   -0.3706 H   0  0  0  0  0  0  0  0  0  0  0  0
   -0.5735   -1.0569   -0.8582 H   0  0  0  0  0  0  0  0  0  0  0  0
  1  2  1  0  0  0  0
  1  5  1  0  0  0  0
  2  6  1  0  0  0  0
  2  8  1  0  0  0  0
  3  1  1  0  0  0  0
  4  1  1  0  0  0  0
  6 10  1  0  0  0  0
  7  2  1  0  0  0  0
  9  6  1  0  0  0  0
  9 12  1  0  0  0  0
 11  6  1  0  0  0  0
 13  9  1  0  0  0  0
 14  9  1  0  0  0  0
M  END
$$$$
