butane_opt
 OpenBabel08242015383D

 14 13  0  0  0  0  0  0  0  0999 V2000
   -4.0087    0.3208    0.0408 C   0  0  0  0  0  0  0  0  0  0  0  0
   -2.7395   -0.6618    0.0352 C   0  0  0  0  0  0  0  0  0  0  0  0
   -4.8499   -0.2557   -0.1523 H   0  0  0  0  0  0  0  0  0  0  0  0
   -3.8501    0.5423   -0.5769 H   0  0  0  0  0  0  0  0  0  0  0  0
   -4.1471    1.2136    1.0918 H   0  0  0  0  0  0  0  0  0  0  0  0
   -1.3557    0.1466   -0.0384 C   0  0  0  0  0  0  0  0  0  0  0  0
   -2.6419   -1.4692   -0.9031 H   0  0  0  0  0  0  0  0  0  0  0  0
   -2.5568   -1.0801    0.7710 H   0  0  0  0  0  0  0  0  0  0  0  0
   -0.1348   -0.6606    0.0661 C   0  0  0  0  0  0  0  0  0  0  0  0
   -1.3270    0.6911    0.7153 H   0  0  0  0  0  0  0  0  0  0  0  0
   -1.2512    0.8209   -1.0544 H   0  0  0  0  0  0  0  0  0  0  0  0
   -0.1600   -1.4752    1.1873 H   0  0  0  0  0  0  0  0  0  0  0  0
    0.7937   -0.1003   -0.1433 H   0  0  0  0  0  0  0  0  0  0  0  0
   -0.1912   -1.0936   -0.6743 H   0  0  0  0  0  0  0  0  0  0  0  0
  1  5  1  0  0  0  0
  2  1  1  0  0  0  0
  2  8  1  0  0  0  0
  3  1  1  0  0  0  0
  4  1  1  0  0  0  0
  6  2  1  0  0  0  0
  6  9  1  0  0  0  0
  6 10  1  0  0  0  0
  7  2  1  0  0  0  0
  9 12  1  0  0  0  0
 11  6  1  0  0  0  0
 13  9  1  0  0  0  0
 14  9  1  0  0  0  0
M  END
$$$$
