butane_opt
 OpenBabel08242015383D

 14 13  0  0  0  0  0  0  0  0999 V2000
   -3.9111    0.2384    0.0371 C   0  0  0  0  0  0  0  0  0  0  0  0
   -2.7320   -0.5624    0.0393 C   0  0  0  0  0  0  0  0  0  0  0  0
   -4.8582   -0.4600   -0.1408 H   0  0  0  0  0  0  0  0  0  0  0  0
   -3.7272    0.6348   -0.8100 H   0  0  0  0  0  0  0  0  0  0  0  0
   -4.1131    1.0972    0.9944 H   0  0  0  0  0  0  0  0  0  0  0  0
   -1.3982    0.2090   -0.0072 C   0  0  0  0  0  0  0  0  0  0  0  0
   -2.7653   -1.3889   -0.9412 H   0  0  0  0  0  0  0  0  0  0  0  0
   -2.6338   -1.0958    0.9019 H   0  0  0  0  0  0  0  0  0  0  0  0
   -0.1520   -0.7479    0.0435 C   0  0  0  0  0  0  0  0  0  0  0  0
   -1.5325    0.9962    0.8722 H   0  0  0  0  0  0  0  0  0  0  0  0
   -1.3418    0.8556   -0.9439 H   0  0  0  0  0  0  0  0  0  0  0  0
   -0.1031   -1.5172    1.1068 H   0  0  0  0  0  0  0  0  0  0  0  0
    0.7744   -0.1897   -0.2913 H   0  0  0  0  0  0  0  0  0  0  0  0
   -0.3563   -1.0686   -0.6141 H   0  0  0  0  0  0  0  0  0  0  0  0
  1  2  1  0  0  0  0
  1  5  1  0  0  0  0
  2  8  1  0  0  0  0
  3  1  1  0  0  0  0
  4  1  1  0  0  0  0
  6  2  1  0  0  0  0
  6  9  1  0  0  0  0
  6 10  1  0  0  0  0
  7  2  1  0  0  0  0
  9 12  1  0  0  0  0
 11  6  1  0  0  0  0
 13  9  1  0  0  0  0
 14  9  1  0  0  0  0
M  END
$$$$
