14
butane_opt
C  -3.945708   0.291228  -0.004830
C  -2.686810  -0.645074   0.076119
H  -4.877833  -0.338894  -0.082481
H  -3.852807   0.860012  -0.927620
H  -4.035839   1.037153   0.901056
C  -1.409881   0.146491   0.007541
H  -2.624228  -1.133305  -0.617014
H  -2.753343  -1.460350   1.196832
C  -0.174687  -0.666499   0.017296
H  -1.508910   0.933898   0.908763
H  -1.406419   0.800139  -0.930729
H  -0.253761  -1.079041   0.668241
H   0.897079   0.058763   0.174311
H  -0.034749  -1.650839  -1.037016
