butane_opt
 OpenBabel08242015383D

 14 13  0  0  0  0  0  0  0  0999 V2000
   -3.9102    0.2600   -0.0692 C   0  0  0  0  0  0  0  0  0  0  0  0
   -2.6885   -0.6082    0.1320 C   0  0  0  0  0  0  0  0  0  0  0  0
   -4.7862   -0.2745   -0.0784 H   0  0  0  0  0  0  0  0  0  0  0  0
   -3.7548    1.1402   -1.1938 H   0  0  0  0  0  0  0  0  0  0  0  0
   -4.1871    0.7416    0.6285 H   0  0  0  0  0  0  0  0  0  0  0  0
   -1.4249    0.1512    0.1632 C   0  0  0  0  0  0  0  0  0  0  0  0
   -2.6141   -1.2643   -0.7257 H   0  0  0  0  0  0  0  0  0  0  0  0
   -2.6396   -1.2752    0.9955 H   0  0  0  0  0  0  0  0  0  0  0  0
   -0.1961   -0.6917   -0.0639 C   0  0  0  0  0  0  0  0  0  0  0  0
   -1.2853    0.9033    1.0956 H   0  0  0  0  0  0  0  0  0  0  0  0
   -1.5949    0.6340   -0.6610 H   0  0  0  0  0  0  0  0  0  0  0  0
    0.0189   -1.2016    0.7408 H   0  0  0  0  0  0  0  0  0  0  0  0
    0.7642    0.0143   -0.4102 H   0  0  0  0  0  0  0  0  0  0  0  0
   -0.3180   -1.1983   -0.9147 H   0  0  0  0  0  0  0  0  0  0  0  0
  1  2  1  0  0  0  0
  1  5  1  0  0  0  0
  2  6  1  0  0  0  0
  2  8  1  0  0  0  0
  3  1  1  0  0  0  0
  4  1  1  0  0  0  0
  6 10  1  0  0  0  0
  7  2  1  0  0  0  0
  9  6  1  0  0  0  0
  9 12  1  0  0  0  0
 11  6  1  0  0  0  0
 13  9  1  0  0  0  0
 14  9  1  0  0  0  0
M  END
$$$$
