butane_opt
 OpenBabel08242015383D

 14 13  0  0  0  0  0  0  0  0999 V2000
   -3.9287    0.2542    0.0374 C   0  0  0  0  0  0  0  0  0  0  0  0
   -2.6917   -0.6086    0.0095 C   0  0  0  0  0  0  0  0  0  0  0  0
   -4.8469   -0.3248    0.0513 H   0  0  0  0  0  0  0  0  0  0  0  0
   -3.9891    0.8643   -0.8350 H   0  0  0  0  0  0  0  0  0  0  0  0
   -3.9324    0.9707    0.9254 H   0  0  0  0  0  0  0  0  0  0  0  0
   -1.4092    0.1884   -0.0076 C   0  0  0  0  0  0  0  0  0  0  0  0
   -2.7191   -1.3152   -0.8644 H   0  0  0  0  0  0  0  0  0  0  0  0
   -2.7310   -1.2427    0.8979 H   0  0  0  0  0  0  0  0  0  0  0  0
   -0.1752   -0.6941    0.0557 C   0  0  0  0  0  0  0  0  0  0  0  0
   -1.4518    0.9122    0.8478 H   0  0  0  0  0  0  0  0  0  0  0  0
   -1.4037    0.7887   -0.8934 H   0  0  0  0  0  0  0  0  0  0  0  0
   -0.0712   -1.4182    1.0164 H   0  0  0  0  0  0  0  0  0  0  0  0
    0.7496   -0.1046   -0.0596 H   0  0  0  0  0  0  0  0  0  0  0  0
   -0.1733   -1.2767   -0.7706 H   0  0  0  0  0  0  0  0  0  0  0  0
  1  3  1  0  0  0  0
  1  5  1  0  0  0  0
  2  1  1  0  0  0  0
  2  8  1  0  0  0  0
  4  1  1  0  0  0  0
  6  2  1  0  0  0  0
  6  9  1  0  0  0  0
  6 10  1  0  0  0  0
  7  2  1  0  0  0  0
  9 12  1  0  0  0  0
 11  6  1  0  0  0  0
 13  9  1  0  0  0  0
 14  9  1  0  0  0  0
M  END
$$$$
