butane_opt
 OpenBabel08242015383D

 14 13  0  0  0  0  0  0  0  0999 V2000
   -3.8770    0.2424   -0.0904 C   0  0  0  0  0  0  0  0  0  0  0  0
   -2.7063   -0.5901    0.1325 C   0  0  0  0  0  0  0  0  0  0  0  0
   -4.7941   -0.3961   -0.1676 H   0  0  0  0  0  0  0  0  0  0  0  0
   -3.8504    0.7581   -0.9327 H   0  0  0  0  0  0  0  0  0  0  0  0
   -3.8751    0.9721    0.6879 H   0  0  0  0  0  0  0  0  0  0  0  0
   -1.4367    0.2044    0.1363 C   0  0  0  0  0  0  0  0  0  0  0  0
   -2.6766   -1.1233   -0.5748 H   0  0  0  0  0  0  0  0  0  0  0  0
   -3.0002   -1.2227    1.0036 H   0  0  0  0  0  0  0  0  0  0  0  0
   -0.1879   -0.7338   -0.0564 C   0  0  0  0  0  0  0  0  0  0  0  0
   -1.2808    0.9654    1.0676 H   0  0  0  0  0  0  0  0  0  0  0  0
   -1.6350    0.8378   -0.6794 H   0  0  0  0  0  0  0  0  0  0  0  0
    0.2354   -1.3999    0.8336 H   0  0  0  0  0  0  0  0  0  0  0  0
    0.6855   -0.1128   -0.3589 H   0  0  0  0  0  0  0  0  0  0  0  0
   -0.3540   -1.2354   -0.8683 H   0  0  0  0  0  0  0  0  0  0  0  0
  1  2  1  0  0  0  0
  1  5  1  0  0  0  0
  2  6  1  0  0  0  0
  2  8  1  0  0  0  0
  3  1  1  0  0  0  0
  4  1  1  0  0  0  0
  6 10  1  0  0  0  0
  7  2  1  0  0  0  0
  9  6  1  0  0  0  0
  9 12  1  0  0  0  0
 11  6  1  0  0  0  0
 13  9  1  0  0  0  0
 14  9  1  0  0  0  0
M  END
$$$$
