butane_opt
 OpenBabel08242015383D

 14 11  0  0  0  0  0  0  0  0999 V2000
   -3.9139    0.2113   -0.0219 C   0  0  0  0  0  0  0  0  0  0  0  0
   -2.6954   -0.5636    0.0754 C   0  0  0  0  0  0  0  0  0  0  0  0
   -4.8790   -0.4632    0.3455 H   0  0  0  0  0  0  0  0  0  0  0  0
   -3.9674    1.3386   -1.2549 H   0  0  0  0  0  0  0  0  0  0  0  0
   -3.8197    0.4572    0.5256 H   0  0  0  0  0  0  0  0  0  0  0  0
   -1.4262    0.2298    0.0994 C   0  0  0  0  0  0  0  0  0  0  0  0
   -2.6820   -1.3638   -0.8369 H   0  0  0  0  0  0  0  0  0  0  0  0
   -2.6233   -1.1324    1.0081 H   0  0  0  0  0  0  0  0  0  0  0  0
   -0.1921   -0.7294   -0.0327 C   0  0  0  0  0  0  0  0  0  0  0  0
   -1.4521    1.0389    1.0515 H   0  0  0  0  0  0  0  0  0  0  0  0
   -1.4039    0.7975   -0.7512 H   0  0  0  0  0  0  0  0  0  0  0  0
   -0.0735   -1.1716    0.6642 H   0  0  0  0  0  0  0  0  0  0  0  0
    0.6550   -0.2530    0.0763 H   0  0  0  0  0  0  0  0  0  0  0  0
   -0.0125   -1.5042   -0.9113 H   0  0  0  0  0  0  0  0  0  0  0  0
  1  2  1  0  0  0  0
  1  3  1  0  0  0  0
  2  6  1  0  0  0  0
  2  8  1  0  0  0  0
  6 10  1  0  0  0  0
  7  2  1  0  0  0  0
  9 13  1  0  0  0  0
  9  6  1  0  0  0  0
  9 12  1  0  0  0  0
 11  6  1  0  0  0  0
 14  9  1  0  0  0  0
M  RAD  3   1   3   4   2   5   2
M  END
$$$$
