14
butane_opt
C  -3.873041   0.240001   0.113978
C  -2.696552  -0.575007  -0.037994
H  -4.922739  -0.533780   0.224381
H  -3.909379   0.795422  -0.740846
H  -3.865880   0.963593   1.040104
C  -1.457226   0.218978  -0.114812
H  -2.766524  -1.413238  -0.954815
H  -2.806378  -1.161386   0.787298
C  -0.161927  -0.732546   0.112408
H  -1.540878   0.759922   0.679683
H  -1.431181   1.106015  -1.114662
H  -0.374729  -1.152118   0.978252
H   0.721772  -0.229197   0.435140
H   0.160026  -1.448421  -0.767789
