butane_opt
 OpenBabel08242015383D

 14 13  0  0  0  0  0  0  0  0999 V2000
   -4.0058    0.3070    0.0900 C   0  0  0  0  0  0  0  0  0  0  0  0
   -2.7119   -0.6627   -0.0169 C   0  0  0  0  0  0  0  0  0  0  0  0
   -4.8013   -0.2174   -0.3594 H   0  0  0  0  0  0  0  0  0  0  0  0
   -3.9428    0.4699   -0.5621 H   0  0  0  0  0  0  0  0  0  0  0  0
   -4.1334    1.3477    1.1601 H   0  0  0  0  0  0  0  0  0  0  0  0
   -1.3326    0.1659   -0.0802 C   0  0  0  0  0  0  0  0  0  0  0  0
   -2.7612   -1.3343   -0.8647 H   0  0  0  0  0  0  0  0  0  0  0  0
   -2.7060   -1.3325    0.8854 H   0  0  0  0  0  0  0  0  0  0  0  0
   -0.1448   -0.6803    0.0838 C   0  0  0  0  0  0  0  0  0  0  0  0
   -1.3342    0.8078    0.8036 H   0  0  0  0  0  0  0  0  0  0  0  0
   -1.4458    0.9001   -1.0154 H   0  0  0  0  0  0  0  0  0  0  0  0
   -0.2003   -1.6177    1.1724 H   0  0  0  0  0  0  0  0  0  0  0  0
    0.8110    0.0233   -0.0415 H   0  0  0  0  0  0  0  0  0  0  0  0
   -0.1925   -1.0615   -0.5757 H   0  0  0  0  0  0  0  0  0  0  0  0
  1  5  1  0  0  0  0
  2  1  1  0  0  0  0
  2  8  1  0  0  0  0
  3  1  1  0  0  0  0
  4  1  1  0  0  0  0
  6  2  1  0  0  0  0
  6  9  1  0  0  0  0
  6 10  1  0  0  0  0
  7  2  1  0  0  0  0
  9 12  1  0  0  0  0
 11  6  1  0  0  0  0
 13  9  1  0  0  0  0
 14  9  1  0  0  0  0
M  END
$$$$
