butane_opt
 OpenBabel08242015383D

 14 13  0  0  0  0  0  0  0  0999 V2000
   -3.9668    0.2790   -0.0649 C   0  0  0  0  0  0  0  0  0  0  0  0
   -2.6732   -0.6460    0.1574 C   0  0  0  0  0  0  0  0  0  0  0  0
   -4.8509   -0.3387   -0.1554 H   0  0  0  0  0  0  0  0  0  0  0  0
   -4.0534    1.0144   -1.0345 H   0  0  0  0  0  0  0  0  0  0  0  0
   -4.1613    0.9507    0.8272 H   0  0  0  0  0  0  0  0  0  0  0  0
   -1.3908    0.1568    0.0672 C   0  0  0  0  0  0  0  0  0  0  0  0
   -2.7271   -1.2046   -0.5443 H   0  0  0  0  0  0  0  0  0  0  0  0
   -2.7932   -1.2669    1.1246 H   0  0  0  0  0  0  0  0  0  0  0  0
   -0.1302   -0.6705   -0.0333 C   0  0  0  0  0  0  0  0  0  0  0  0
   -1.4816    0.7584    0.8539 H   0  0  0  0  0  0  0  0  0  0  0  0
   -1.3749    0.8215   -0.8453 H   0  0  0  0  0  0  0  0  0  0  0  0
   -0.1983   -0.9149    0.5574 H   0  0  0  0  0  0  0  0  0  0  0  0
    0.7988   -0.0173    0.1874 H   0  0  0  0  0  0  0  0  0  0  0  0
   -0.2330   -1.7093   -1.1142 H   0  0  0  0  0  0  0  0  0  0  0  0
  1  2  1  0  0  0  0
  1  5  1  0  0  0  0
  2  8  1  0  0  0  0
  3  1  1  0  0  0  0
  4  1  1  0  0  0  0
  6  2  1  0  0  0  0
  6 10  1  0  0  0  0
  7  2  1  0  0  0  0
  9  6  1  0  0  0  0
  9 13  1  0  0  0  0
  9 12  1  0  0  0  0
 11  6  1  0  0  0  0
 14  9  1  0  0  0  0
M  END
$$$$
