butane_opt
 OpenBabel08242015383D

 14 13  0  0  0  0  0  0  0  0999 V2000
   -3.9304    0.2787   -0.0508 C   0  0  0  0  0  0  0  0  0  0  0  0
   -2.7213   -0.6323    0.1188 C   0  0  0  0  0  0  0  0  0  0  0  0
   -4.7424   -0.1856   -0.3436 H   0  0  0  0  0  0  0  0  0  0  0  0
   -3.9842    0.7073   -0.8488 H   0  0  0  0  0  0  0  0  0  0  0  0
   -4.1215    1.1729    0.9787 H   0  0  0  0  0  0  0  0  0  0  0  0
   -1.3962    0.1709    0.0438 C   0  0  0  0  0  0  0  0  0  0  0  0
   -2.6964   -1.2444   -0.6240 H   0  0  0  0  0  0  0  0  0  0  0  0
   -2.8038   -1.4642    1.2018 H   0  0  0  0  0  0  0  0  0  0  0  0
   -0.1477   -0.6711   -0.0230 C   0  0  0  0  0  0  0  0  0  0  0  0
   -1.3780    0.8899    0.9955 H   0  0  0  0  0  0  0  0  0  0  0  0
   -1.2769    0.6861   -0.8436 H   0  0  0  0  0  0  0  0  0  0  0  0
   -0.0722   -1.2604    0.8801 H   0  0  0  0  0  0  0  0  0  0  0  0
    0.7505   -0.1294   -0.1360 H   0  0  0  0  0  0  0  0  0  0  0  0
   -0.3523   -1.3771   -0.8900 H   0  0  0  0  0  0  0  0  0  0  0  0
  1  2  1  0  0  0  0
  1  5  1  0  0  0  0
  2  8  1  0  0  0  0
  3  1  1  0  0  0  0
  4  1  1  0  0  0  0
  6  2  1  0  0  0  0
  6 10  1  0  0  0  0
  7  2  1  0  0  0  0
  9  6  1  0  0  0  0
  9 12  1  0  0  0  0
 11  6  1  0  0  0  0
 13  9  1  0  0  0  0
 14  9  1  0  0  0  0
M  END
$$$$
