14
butane_opt
C  -3.932658   0.270330   0.118729
C  -2.674287  -0.658467  -0.026213
H  -4.835533  -0.296977   0.048829
H  -4.183054   0.767574  -0.677441
H  -4.063780   1.162715   1.154973
C  -1.419023   0.198015  -0.161115
H  -2.735100  -1.348543  -0.947397
H  -2.713121  -1.296121   0.867601
C  -0.152007  -0.689433   0.126161
H  -1.389605   0.867341   0.674430
H  -1.365648   0.893903  -1.096093
H  -0.441775  -1.237104   0.903412
H   0.819927  -0.071723   0.544801
H   0.050505  -1.363843  -0.688274
