14
butane_opt
C  -3.913934   0.211282  -0.021937
C  -2.695411  -0.563571   0.075352
H  -4.879026  -0.463162   0.345512
H  -3.967366   1.338617  -1.254904
H  -3.819741   0.457153   0.525625
C  -1.426231   0.229773   0.099371
H  -2.682011  -1.363766  -0.836868
H  -2.623313  -1.132437   1.008142
C  -0.192134  -0.729433  -0.032710
H  -1.452140   1.038906   1.051495
H  -1.403858   0.797478  -0.751216
H  -0.073506  -1.171591   0.664244
H   0.654956  -0.252980   0.076264
H  -0.012539  -1.504169  -0.911265
