14
butane_opt
C  -3.934767   0.225998  -0.097512
C  -2.743101  -0.619899   0.183716
H  -4.879616  -0.337252  -0.374849
H  -3.787801   0.624595  -0.790319
H  -4.168844   1.191945   0.997256
C  -1.431054   0.247052   0.088402
H  -2.679067  -1.225333  -0.618925
H  -2.850225  -1.278070   1.105370
C  -0.109573  -0.736172  -0.053716
H  -1.373669   0.942135   0.861903
H  -1.526670   1.099620  -0.918972
H   0.197029  -1.296244   0.801210
H   0.814868  -0.133354  -0.035322
H  -0.145014  -1.498602  -1.001473
