14
butane_opt
C  -3.904818   0.243906   0.070203
C  -2.707389  -0.601096   0.038386
H  -4.867556  -0.395281  -0.385039
H  -3.881602   0.495889  -0.644393
H  -4.031337   1.260564   1.129292
C  -1.425300   0.221068  -0.101988
H  -2.753765  -1.165177  -0.774444
H  -2.783367  -1.120057   0.905092
C  -0.155492  -0.737892   0.075304
H  -1.301929   0.893198   0.825903
H  -1.460486   0.855191  -0.975875
H  -0.351909  -1.455011   1.023699
H   0.827845  -0.070912   0.028101
H  -0.073731  -1.307489  -0.634045
