butane_opt
 OpenBabel08242015383D

 14 12  0  0  0  0  0  0  0  0999 V2000
   -3.8906    0.2585    0.0858 C   0  0  0  0  0  0  0  0  0  0  0  0
   -2.6861   -0.6258   -0.0067 C   0  0  0  0  0  0  0  0  0  0  0  0
   -4.9073   -0.3636   -0.2439 H   0  0  0  0  0  0  0  0  0  0  0  0
   -3.8216    0.5332   -0.4951 H   0  0  0  0  0  0  0  0  0  0  0  0
   -4.1103    1.4130    1.2645 H   0  0  0  0  0  0  0  0  0  0  0  0
   -1.4559    0.1973   -0.1062 C   0  0  0  0  0  0  0  0  0  0  0  0
   -2.6580   -1.3630   -0.8817 H   0  0  0  0  0  0  0  0  0  0  0  0
   -2.7311   -1.2211    0.7667 H   0  0  0  0  0  0  0  0  0  0  0  0
   -0.1708   -0.7036    0.1007 C   0  0  0  0  0  0  0  0  0  0  0  0
   -1.3813    0.7780    0.7024 H   0  0  0  0  0  0  0  0  0  0  0  0
   -1.3835    0.8655   -1.0301 H   0  0  0  0  0  0  0  0  0  0  0  0
   -0.2642   -1.5487    1.1330 H   0  0  0  0  0  0  0  0  0  0  0  0
    0.7740   -0.0274   -0.0465 H   0  0  0  0  0  0  0  0  0  0  0  0
   -0.0890   -1.0617   -0.5226 H   0  0  0  0  0  0  0  0  0  0  0  0
  2  1  1  0  0  0  0
  2  8  1  0  0  0  0
  3  1  1  0  0  0  0
  4  1  1  0  0  0  0
  6  2  1  0  0  0  0
  6  9  1  0  0  0  0
  6 10  1  0  0  0  0
  7  2  1  0  0  0  0
  9 12  1  0  0  0  0
 11  6  1  0  0  0  0
 13  9  1  0  0  0  0
 14  9  1  0  0  0  0
M  RAD  2   1   2   5   2
M  END
$$$$
