butane_opt
 OpenBabel08242015383D

 14 12  0  0  0  0  0  0  0  0999 V2000
   -3.8993    0.2571    0.0642 C   0  0  0  0  0  0  0  0  0  0  0  0
   -2.6922   -0.6024    0.0121 C   0  0  0  0  0  0  0  0  0  0  0  0
   -4.8698   -0.3017   -0.2455 H   0  0  0  0  0  0  0  0  0  0  0  0
   -3.8837    0.4130   -0.5299 H   0  0  0  0  0  0  0  0  0  0  0  0
   -3.9829    1.1861    1.1123 H   0  0  0  0  0  0  0  0  0  0  0  0
   -1.4589    0.2140   -0.0850 C   0  0  0  0  0  0  0  0  0  0  0  0
   -2.8423   -1.3431   -0.8506 H   0  0  0  0  0  0  0  0  0  0  0  0
   -2.6265   -1.3399    0.9151 H   0  0  0  0  0  0  0  0  0  0  0  0
   -0.1680   -0.7105    0.0805 C   0  0  0  0  0  0  0  0  0  0  0  0
   -1.3506    0.9280    0.7389 H   0  0  0  0  0  0  0  0  0  0  0  0
   -1.4692    0.8659   -1.0681 H   0  0  0  0  0  0  0  0  0  0  0  0
   -0.1287   -1.4991    1.0983 H   0  0  0  0  0  0  0  0  0  0  0  0
    0.7447   -0.1013    0.1416 H   0  0  0  0  0  0  0  0  0  0  0  0
   -0.0089   -1.1837   -0.6675 H   0  0  0  0  0  0  0  0  0  0  0  0
  1  5  1  0  0  0  0
  2  1  1  0  0  0  0
  2  8  1  0  0  0  0
  3  1  1  0  0  0  0
  6  2  1  0  0  0  0
  6  9  1  0  0  0  0
  6 10  1  0  0  0  0
  7  2  1  0  0  0  0
  9 13  1  0  0  0  0
  9 12  1  0  0  0  0
 11  6  1  0  0  0  0
 14  9  1  0  0  0  0
M  RAD  2   1   2   4   2
M  END
$$$$
