butane_opt
 OpenBabel08242015383D

 14 13  0  0  0  0  0  0  0  0999 V2000
   -3.8730    0.2400    0.1140 C   0  0  0  0  0  0  0  0  0  0  0  0
   -2.6966   -0.5750   -0.0380 C   0  0  0  0  0  0  0  0  0  0  0  0
   -4.9227   -0.5338    0.2244 H   0  0  0  0  0  0  0  0  0  0  0  0
   -3.9094    0.7954   -0.7408 H   0  0  0  0  0  0  0  0  0  0  0  0
   -3.8659    0.9636    1.0401 H   0  0  0  0  0  0  0  0  0  0  0  0
   -1.4572    0.2190   -0.1148 C   0  0  0  0  0  0  0  0  0  0  0  0
   -2.7665   -1.4132   -0.9548 H   0  0  0  0  0  0  0  0  0  0  0  0
   -2.8064   -1.1614    0.7873 H   0  0  0  0  0  0  0  0  0  0  0  0
   -0.1619   -0.7325    0.1124 C   0  0  0  0  0  0  0  0  0  0  0  0
   -1.5409    0.7599    0.6797 H   0  0  0  0  0  0  0  0  0  0  0  0
   -1.4312    1.1060   -1.1147 H   0  0  0  0  0  0  0  0  0  0  0  0
   -0.3747   -1.1521    0.9783 H   0  0  0  0  0  0  0  0  0  0  0  0
    0.7218   -0.2292    0.4351 H   0  0  0  0  0  0  0  0  0  0  0  0
    0.1600   -1.4484   -0.7678 H   0  0  0  0  0  0  0  0  0  0  0  0
  1  3  1  0  0  0  0
  1  5  1  0  0  0  0
  2  1  1  0  0  0  0
  2  8  1  0  0  0  0
  4  1  1  0  0  0  0
  6  2  1  0  0  0  0
  6  9  1  0  0  0  0
  6 10  1  0  0  0  0
  7  2  1  0  0  0  0
  9 13  1  0  0  0  0
  9 12  1  0  0  0  0
 11  6  1  0  0  0  0
 14  9  1  0  0  0  0
M  END
$$$$
