14
butane_opt
C  -3.921029   0.252023   0.006145
C  -2.722219  -0.562957   0.069489
H  -4.851206  -0.400985   0.083425
H  -3.837047   0.970471  -0.989577
H  -3.876453   0.720637   0.815933
C  -1.401645   0.201699   0.017936
H  -2.667962  -1.295856  -0.758760
H  -2.799680  -1.352128   1.074694
C  -0.161214  -0.735041   0.006193
H  -1.511208   0.816799   0.836543
H  -1.383860   0.958134  -0.914342
H  -0.197905  -1.010244   0.695092
H   0.769390  -0.101649   0.405992
H  -0.184055  -1.644343  -1.042656
