14
butane_opt
C  -3.930759   0.232603   0.100832
C  -2.684352  -0.592001  -0.096099
H  -4.874521  -0.451522   0.109453
H  -3.910467   0.740202  -0.749922
H  -3.725339   1.080426   1.116205
C  -1.435369   0.217189  -0.052953
H  -2.826362  -1.334176  -0.943431
H  -2.667614  -1.088372   0.704420
C  -0.170610  -0.705671   0.127590
H  -1.596906   0.898852   0.770689
H  -1.288535   0.814054  -0.867108
H   0.058765  -1.673593   1.276139
H   0.571395  -0.242059  -0.459686
H  -0.110251  -1.043262  -0.447743
