14
butane_opt
C  -3.944283   0.254071   0.047916
C  -2.715736  -0.628218   0.006978
H  -4.921001  -0.394177   0.007164
H  -3.916946   0.798470  -0.745232
H  -4.091748   1.036987   1.016605
C  -1.386170   0.235582  -0.028747
H  -2.833650  -1.254636  -0.854175
H  -2.588147  -1.242644   0.936693
C  -0.165737  -0.711283   0.076534
H  -1.366586   0.806396   0.717749
H  -1.288040   0.983344  -1.087369
H  -0.096931  -1.280599   0.964216
H   0.712484  -0.239903   0.156797
H  -0.063940  -1.520521  -0.900256
