14
butane_opt
C  -4.000290   0.307398  -0.002362
C  -2.676766  -0.681732   0.095574
H  -4.795526  -0.237289   0.006921
H  -4.142366   0.980642  -0.935198
H  -4.028705   0.904842   0.869401
C  -1.356072   0.151549  -0.030640
H  -2.839571  -1.170324  -0.693821
H  -2.633564  -1.407784   1.004842
C  -0.157260  -0.651945   0.022229
H  -1.261916   0.919167   0.819589
H  -1.328605   0.700816  -0.806304
H  -0.357856  -0.923575   0.699289
H   0.639996  -0.232229   0.443362
H   0.021218  -1.524068  -1.035148
