butane_opt
 OpenBabel08242015383D

 14 13  0  0  0  0  0  0  0  0999 V2000
   -3.9405    0.2798    0.0022 C   0  0  0  0  0  0  0  0  0  0  0  0
   -2.6888   -0.6234    0.0716 C   0  0  0  0  0  0  0  0  0  0  0  0
   -4.8592   -0.3279    0.0375 H   0  0  0  0  0  0  0  0  0  0  0  0
   -3.9961    0.9484   -0.9160 H   0  0  0  0  0  0  0  0  0  0  0  0
   -3.9676    0.8659    0.8219 H   0  0  0  0  0  0  0  0  0  0  0  0
   -1.4100    0.1608    0.0152 C   0  0  0  0  0  0  0  0  0  0  0  0
   -2.6618   -1.3135   -0.7973 H   0  0  0  0  0  0  0  0  0  0  0  0
   -2.7199   -1.2538    0.9531 H   0  0  0  0  0  0  0  0  0  0  0  0
   -0.1731   -0.6801    0.0174 C   0  0  0  0  0  0  0  0  0  0  0  0
   -1.3450    0.8498    0.8717 H   0  0  0  0  0  0  0  0  0  0  0  0
   -1.3874    0.8113   -0.8774 H   0  0  0  0  0  0  0  0  0  0  0  0
   -0.1907   -1.1833    0.8674 H   0  0  0  0  0  0  0  0  0  0  0  0
    0.7725   -0.0429    0.1210 H   0  0  0  0  0  0  0  0  0  0  0  0
   -0.1263   -1.4719   -0.9359 H   0  0  0  0  0  0  0  0  0  0  0  0
  1  3  1  0  0  0  0
  1  2  1  0  0  0  0
  1  5  1  0  0  0  0
  2  8  1  0  0  0  0
  4  1  1  0  0  0  0
  6  9  1  0  0  0  0
  6  2  1  0  0  0  0
  6 10  1  0  0  0  0
  7  2  1  0  0  0  0
  9 13  1  0  0  0  0
  9 12  1  0  0  0  0
 11  6  1  0  0  0  0
 14  9  1  0  0  0  0
M  END
$$$$
