14
butane_opt
C  -3.973186   0.295470  -0.059036
C  -2.707192  -0.665774   0.136348
H  -4.765820  -0.206432   0.110425
H  -3.982680   1.006585  -1.078282
H  -4.120071   0.884995   0.707324
C  -1.350455   0.184656   0.054746
H  -2.700602  -1.267296  -0.596333
H  -2.741774  -1.534705   1.230846
C  -0.148795  -0.673466  -0.069171
H  -1.298754   0.968580   0.960378
H  -1.484809   0.723889  -0.724904
H  -0.436382  -0.986474   0.642797
H   0.687718  -0.110499   0.469784
H  -0.017950  -1.635009  -1.072346
