14
butane_opt
C  -3.934552   0.249641  -0.004681
C  -2.701270  -0.592093   0.054821
H  -4.851318  -0.382891   0.128751
H  -3.934901   1.005002  -1.009344
H  -3.905271   0.833687   0.770552
C  -1.414608   0.185315   0.043123
H  -2.744253  -1.258659  -0.762249
H  -2.716554  -1.277590   0.983577
C  -0.158169  -0.700859   0.000518
H  -1.410182   0.938982   0.947111
H  -1.469844   0.776545  -0.813416
H  -0.121748  -1.272068   0.869081
H   0.763448  -0.107596   0.074220
H  -0.132166  -1.426036  -0.890530
