14
butane_opt
C  -3.942515   0.277099   0.039838
C  -2.691510  -0.628404   0.025105
H  -4.840460  -0.300525  -0.118812
H  -3.911664   0.736782  -0.766568
H  -4.028652   1.074031   0.982133
C  -1.396229   0.177909  -0.012480
H  -2.688640  -1.313307  -0.844766
H  -2.659511  -1.265191   0.933902
C  -0.177986  -0.682225   0.054984
H  -1.363791   0.762310   0.764540
H  -1.368580   0.864987  -0.966502
H  -0.157960  -1.331454   0.964851
H   0.735077  -0.100400  -0.006804
H  -0.235998  -1.331278  -0.768448
