14
butane_opt
C  -3.966798   0.306189  -0.024377
C  -2.689728  -0.648896   0.092148
H  -4.869768  -0.236440   0.009968
H  -4.021111   1.250424  -1.163929
H  -4.084367   0.730979   0.702328
C  -1.388076   0.105676   0.085935
H  -2.752306  -1.292107  -0.678052
H  -2.871472  -1.304879   0.967736
C  -0.157539  -0.651625  -0.029599
H  -1.350247   0.894326   1.092707
H  -1.356273   0.739181  -0.769463
H  -0.041636  -1.155442   0.770329
H   0.933693   0.058566  -0.030236
H  -0.230036  -1.452782  -1.003826
