butane_opt
 OpenBabel08242015383D

 14 13  0  0  0  0  0  0  0  0999 V2000
   -3.9308    0.2326    0.1008 C   0  0  0  0  0  0  0  0  0  0  0  0
   -2.6844   -0.5920   -0.0961 C   0  0  0  0  0  0  0  0  0  0  0  0
   -4.8745   -0.4515    0.1095 H   0  0  0  0  0  0  0  0  0  0  0  0
   -3.9105    0.7402   -0.7499 H   0  0  0  0  0  0  0  0  0  0  0  0
   -3.7253    1.0804    1.1162 H   0  0  0  0  0  0  0  0  0  0  0  0
   -1.4354    0.2172   -0.0530 C   0  0  0  0  0  0  0  0  0  0  0  0
   -2.8264   -1.3342   -0.9434 H   0  0  0  0  0  0  0  0  0  0  0  0
   -2.6676   -1.0884    0.7044 H   0  0  0  0  0  0  0  0  0  0  0  0
   -0.1706   -0.7057    0.1276 C   0  0  0  0  0  0  0  0  0  0  0  0
   -1.5969    0.8989    0.7707 H   0  0  0  0  0  0  0  0  0  0  0  0
   -1.2885    0.8141   -0.8671 H   0  0  0  0  0  0  0  0  0  0  0  0
    0.0588   -1.6736    1.2761 H   0  0  0  0  0  0  0  0  0  0  0  0
    0.5714   -0.2421   -0.4597 H   0  0  0  0  0  0  0  0  0  0  0  0
   -0.1103   -1.0433   -0.4477 H   0  0  0  0  0  0  0  0  0  0  0  0
  1  3  1  0  0  0  0
  1  5  1  0  0  0  0
  2  6  1  0  0  0  0
  2  1  1  0  0  0  0
  2  8  1  0  0  0  0
  4  1  1  0  0  0  0
  6  9  1  0  0  0  0
  6 10  1  0  0  0  0
  7  2  1  0  0  0  0
  9 12  1  0  0  0  0
 11  6  1  0  0  0  0
 13  9  1  0  0  0  0
 14  9  1  0  0  0  0
M  END
$$$$
