14
butane_opt
C  -4.008972   0.278065  -0.014627
C  -2.679831  -0.649483   0.051562
H  -4.967207  -0.361285   0.323290
H  -4.190542   1.343519  -1.123906
H  -3.865973   0.691649   0.625961
C  -1.362155   0.163315   0.096756
H  -2.613938  -1.409883  -0.837563
H  -2.729269  -1.253173   0.912601
C  -0.127219  -0.667753  -0.020247
H  -1.471330   0.870683   0.977785
H  -1.322344   0.909243  -0.808198
H  -0.205920  -1.156451   0.853865
H   0.711521  -0.137724   0.042420
H  -0.210006  -1.473645  -0.954046
