butane_opt
 OpenBabel08242015383D

 14 13  0  0  0  0  0  0  0  0999 V2000
   -3.9751    0.2595   -0.0853 C   0  0  0  0  0  0  0  0  0  0  0  0
   -2.7101   -0.6348    0.1843 C   0  0  0  0  0  0  0  0  0  0  0  0
   -4.8444   -0.3335   -0.4510 H   0  0  0  0  0  0  0  0  0  0  0  0
   -3.7349    0.8700   -0.9753 H   0  0  0  0  0  0  0  0  0  0  0  0
   -4.3258    1.1352    0.8001 H   0  0  0  0  0  0  0  0  0  0  0  0
   -1.3877    0.1825    0.0823 C   0  0  0  0  0  0  0  0  0  0  0  0
   -2.6489   -1.1249   -0.4750 H   0  0  0  0  0  0  0  0  0  0  0  0
   -2.6713   -1.4455    1.2489 H   0  0  0  0  0  0  0  0  0  0  0  0
   -0.1313   -0.6752   -0.0682 C   0  0  0  0  0  0  0  0  0  0  0  0
   -1.2041    0.9818    1.0629 H   0  0  0  0  0  0  0  0  0  0  0  0
   -1.5329    0.6084   -0.6847 H   0  0  0  0  0  0  0  0  0  0  0  0
    0.0101   -1.1965    0.7068 H   0  0  0  0  0  0  0  0  0  0  0  0
    0.6261   -0.1592   -0.0654 H   0  0  0  0  0  0  0  0  0  0  0  0
   -0.2328   -1.4128   -1.0828 H   0  0  0  0  0  0  0  0  0  0  0  0
  1  2  1  0  0  0  0
  1  5  1  0  0  0  0
  2  8  1  0  0  0  0
  3  1  1  0  0  0  0
  4  1  1  0  0  0  0
  6  2  1  0  0  0  0
  6 10  1  0  0  0  0
  7  2  1  0  0  0  0
  9 13  1  0  0  0  0
  9  6  1  0  0  0  0
  9 12  1  0  0  0  0
 11  6  1  0  0  0  0
 14  9  1  0  0  0  0
M  END
$$$$
