14
butane_opt
C  -3.911606   0.229774   0.120633
C  -2.706115  -0.550779  -0.019400
H  -4.895251  -0.451206  -0.301751
H  -3.562670   0.519751  -0.683733
H  -4.110774   1.244620   1.154771
C  -1.431278   0.216367  -0.092093
H  -2.872293  -1.395362  -1.019569
H  -2.673109  -1.113186   0.812247
C  -0.165046  -0.735364   0.114560
H  -1.407009   0.748126   0.650701
H  -1.407361   1.012076  -1.021666
H  -0.141422  -1.605808   1.174839
H   0.839468  -0.130179  -0.116938
H  -0.205981  -1.227291  -0.621578
