butane_opt
 OpenBabel08242015383D

 14 13  0  0  0  0  0  0  0  0999 V2000
   -3.9116    0.2298    0.1206 C   0  0  0  0  0  0  0  0  0  0  0  0
   -2.7061   -0.5508   -0.0194 C   0  0  0  0  0  0  0  0  0  0  0  0
   -4.8953   -0.4512   -0.3018 H   0  0  0  0  0  0  0  0  0  0  0  0
   -3.5627    0.5198   -0.6837 H   0  0  0  0  0  0  0  0  0  0  0  0
   -4.1108    1.2446    1.1548 H   0  0  0  0  0  0  0  0  0  0  0  0
   -1.4313    0.2164   -0.0921 C   0  0  0  0  0  0  0  0  0  0  0  0
   -2.8723   -1.3954   -1.0196 H   0  0  0  0  0  0  0  0  0  0  0  0
   -2.6731   -1.1132    0.8122 H   0  0  0  0  0  0  0  0  0  0  0  0
   -0.1650   -0.7354    0.1146 C   0  0  0  0  0  0  0  0  0  0  0  0
   -1.4070    0.7481    0.6507 H   0  0  0  0  0  0  0  0  0  0  0  0
   -1.4074    1.0121   -1.0217 H   0  0  0  0  0  0  0  0  0  0  0  0
   -0.1414   -1.6058    1.1748 H   0  0  0  0  0  0  0  0  0  0  0  0
    0.8395   -0.1302   -0.1169 H   0  0  0  0  0  0  0  0  0  0  0  0
   -0.2060   -1.2273   -0.6216 H   0  0  0  0  0  0  0  0  0  0  0  0
  1  5  1  0  0  0  0
  2  1  1  0  0  0  0
  2  8  1  0  0  0  0
  3  1  1  0  0  0  0
  4  1  1  0  0  0  0
  6  2  1  0  0  0  0
  6  9  1  0  0  0  0
  6 10  1  0  0  0  0
  7  2  1  0  0  0  0
  9 12  1  0  0  0  0
 11  6  1  0  0  0  0
 13  9  1  0  0  0  0
 14  9  1  0  0  0  0
M  END
$$$$
