14
butane_opt
C  -3.904521   0.242637  -0.041353
C  -2.705076  -0.576109   0.133817
H  -4.854954  -0.446069  -0.356065
H  -3.727320   0.650313  -0.813695
H  -4.189191   0.986176   0.884235
C  -1.412046   0.233024   0.052843
H  -2.628250  -1.248310  -0.638253
H  -2.878283  -1.237027   1.116176
C  -0.178465  -0.726842  -0.003601
H  -1.403445   0.790401   0.792052
H  -1.385796   0.865755  -0.806460
H   0.047667  -1.149387   0.767308
H   0.617941  -0.288896  -0.212147
H  -0.187978  -1.495593  -1.000043
