14
butane_opt
C  -3.960545   0.239689  -0.096034
C  -2.692390  -0.608898   0.158847
H  -4.855612  -0.413340  -0.259547
H  -3.749453   0.910968  -1.039391
H  -4.050096   0.819944   0.751642
C  -1.406624   0.240197   0.157568
H  -2.633860  -1.328581  -0.643578
H  -2.814991  -1.178704   1.025598
C  -0.159440  -0.712686  -0.079461
H  -1.214235   1.002354   1.071762
H  -1.661145   0.887727  -0.696789
H   0.146116  -1.488883   0.931736
H   0.702839  -0.233755  -0.404653
H  -0.266664  -1.357118  -0.980706
