butane_opt
 OpenBabel08242015383D

 14 13  0  0  0  0  0  0  0  0999 V2000
   -3.9533    0.2523    0.0028 C   0  0  0  0  0  0  0  0  0  0  0  0
   -2.7026   -0.6173    0.0531 C   0  0  0  0  0  0  0  0  0  0  0  0
   -4.8328   -0.3207    0.0778 H   0  0  0  0  0  0  0  0  0  0  0  0
   -4.0076    1.0141   -0.9853 H   0  0  0  0  0  0  0  0  0  0  0  0
   -3.9587    0.8542    0.8069 H   0  0  0  0  0  0  0  0  0  0  0  0
   -1.4000    0.1947    0.0312 C   0  0  0  0  0  0  0  0  0  0  0  0
   -2.7321   -1.2785   -0.8009 H   0  0  0  0  0  0  0  0  0  0  0  0
   -2.7525   -1.2279    0.9493 H   0  0  0  0  0  0  0  0  0  0  0  0
   -0.1481   -0.6950    0.0146 C   0  0  0  0  0  0  0  0  0  0  0  0
   -1.4186    0.9422    0.9460 H   0  0  0  0  0  0  0  0  0  0  0  0
   -1.4185    0.7487   -0.7965 H   0  0  0  0  0  0  0  0  0  0  0  0
   -0.0708   -1.3173    0.8839 H   0  0  0  0  0  0  0  0  0  0  0  0
    0.7538   -0.1350   -0.0312 H   0  0  0  0  0  0  0  0  0  0  0  0
   -0.1370   -1.3625   -0.8474 H   0  0  0  0  0  0  0  0  0  0  0  0
  1  2  1  0  0  0  0
  1  3  1  0  0  0  0
  1  5  1  0  0  0  0
  2  8  1  0  0  0  0
  4  1  1  0  0  0  0
  6  2  1  0  0  0  0
  6 10  1  0  0  0  0
  7  2  1  0  0  0  0
  9  6  1  0  0  0  0
  9 12  1  0  0  0  0
 11  6  1  0  0  0  0
 13  9  1  0  0  0  0
 14  9  1  0  0  0  0
M  END
$$$$
