butane_opt
 OpenBabel08242015383D

 14 13  0  0  0  0  0  0  0  0999 V2000
   -4.0126    0.3244   -0.0707 C   0  0  0  0  0  0  0  0  0  0  0  0
   -2.6742   -0.6750    0.1025 C   0  0  0  0  0  0  0  0  0  0  0  0
   -4.9641   -0.3202   -0.0767 H   0  0  0  0  0  0  0  0  0  0  0  0
   -4.0044    1.1452   -1.0593 H   0  0  0  0  0  0  0  0  0  0  0  0
   -4.1398    0.7197    0.6296 H   0  0  0  0  0  0  0  0  0  0  0  0
   -1.3826    0.1270    0.1700 C   0  0  0  0  0  0  0  0  0  0  0  0
   -2.6637   -1.3293   -0.6962 H   0  0  0  0  0  0  0  0  0  0  0  0
   -2.7344   -1.3484    1.0136 H   0  0  0  0  0  0  0  0  0  0  0  0
   -0.1237   -0.6476   -0.0594 C   0  0  0  0  0  0  0  0  0  0  0  0
   -1.2040    0.9030    1.0923 H   0  0  0  0  0  0  0  0  0  0  0  0
   -1.4436    0.7672   -0.7245 H   0  0  0  0  0  0  0  0  0  0  0  0
    0.0928   -1.2863    0.8331 H   0  0  0  0  0  0  0  0  0  0  0  0
    0.7347    0.0018   -0.3743 H   0  0  0  0  0  0  0  0  0  0  0  0
   -0.3962   -1.2676   -0.9342 H   0  0  0  0  0  0  0  0  0  0  0  0
  1  2  1  0  0  0  0
  1  5  1  0  0  0  0
  2  6  1  0  0  0  0
  2  8  1  0  0  0  0
  3  1  1  0  0  0  0
  4  1  1  0  0  0  0
  6 10  1  0  0  0  0
  7  2  1  0  0  0  0
  9  6  1  0  0  0  0
  9 12  1  0  0  0  0
 11  6  1  0  0  0  0
 13  9  1  0  0  0  0
 14  9  1  0  0  0  0
M  END
$$$$
