14
butane_opt
C  -3.896885   0.230525   0.048167
C  -2.686652  -0.574558   0.068316
H  -4.878881  -0.377041  -0.418387
H  -3.615595   0.597329  -0.717575
H  -4.133589   1.195668   1.138710
C  -1.439187   0.204212  -0.066938
H  -2.744829  -1.346722  -0.780853
H  -2.743499  -1.292043   1.010551
C  -0.182726  -0.685599   0.045399
H  -1.514693   0.922811   0.767594
H  -1.509956   0.799363  -0.963107
H  -0.052318  -1.482819   1.031340
H   0.691257  -0.191625   0.082620
H  -0.067161  -1.392076  -0.803832
