butane_opt
 OpenBabel08242015383D

 14 13  0  0  0  0  0  0  0  0999 V2000
   -3.8746    0.2422    0.0082 C   0  0  0  0  0  0  0  0  0  0  0  0
   -2.7133   -0.5963    0.0548 C   0  0  0  0  0  0  0  0  0  0  0  0
   -4.8301   -0.3271    0.1945 H   0  0  0  0  0  0  0  0  0  0  0  0
   -3.8769    1.1431   -1.1557 H   0  0  0  0  0  0  0  0  0  0  0  0
   -3.8785    0.5977    0.6584 H   0  0  0  0  0  0  0  0  0  0  0  0
   -1.4277    0.2025    0.0711 C   0  0  0  0  0  0  0  0  0  0  0  0
   -2.7320   -1.2941   -0.9178 H   0  0  0  0  0  0  0  0  0  0  0  0
   -2.8169   -1.1537    0.8905 H   0  0  0  0  0  0  0  0  0  0  0  0
   -0.1906   -0.7205   -0.0005 C   0  0  0  0  0  0  0  0  0  0  0  0
   -1.4883    1.0339    1.0625 H   0  0  0  0  0  0  0  0  0  0  0  0
   -1.5114    0.8118   -0.8115 H   0  0  0  0  0  0  0  0  0  0  0  0
   -0.0684   -1.2913    0.8756 H   0  0  0  0  0  0  0  0  0  0  0  0
    0.7657   -0.1192   -0.1699 H   0  0  0  0  0  0  0  0  0  0  0  0
   -0.1216   -1.3992   -0.8274 H   0  0  0  0  0  0  0  0  0  0  0  0
  1  2  1  0  0  0  0
  1  3  1  0  0  0  0
  1  5  1  0  0  0  0
  2  6  1  0  0  0  0
  2  8  1  0  0  0  0
  4  1  1  0  0  0  0
  6 10  1  0  0  0  0
  7  2  1  0  0  0  0
  9  6  1  0  0  0  0
  9 12  1  0  0  0  0
 11  6  1  0  0  0  0
 13  9  1  0  0  0  0
 14  9  1  0  0  0  0
M  END
$$$$
