14
butane_opt
C  -3.960761   0.224307  -0.038355
C  -2.720477  -0.581384   0.115447
H  -4.854392  -0.418536   0.058312
H  -4.005534   1.002092  -0.986453
H  -3.957772   0.774610   0.806451
C  -1.404761   0.265341   0.032850
H  -2.713964  -1.220345  -0.677245
H  -2.663723  -1.479104   1.103425
C  -0.133910  -0.731054  -0.007442
H  -1.434296   0.870687   0.828953
H  -1.318622   0.914046  -0.868060
H  -0.094536  -0.957741   0.677516
H   0.700353  -0.232559   0.411140
H  -0.014169  -1.865778  -1.212603
