14
butane_opt
C  -4.022007   0.282008   0.105901
C  -2.673198  -0.664709  -0.113663
H  -4.768657  -0.181204   0.480459
H  -4.306319   0.943043  -0.836249
H  -3.717581   0.907119   0.917962
C  -1.389887   0.178391  -0.055883
H  -2.604872  -1.425557  -0.972604
H  -2.704369  -1.230997   0.780280
C  -0.153634  -0.679573   0.131736
H  -1.346681   0.907604   0.888295
H  -1.168212   0.848019  -1.055077
H  -0.229485  -1.387997   1.094022
H   0.737910  -0.033430  -0.050881
H  -0.068615  -1.186394  -0.618101
