butane_opt
 OpenBabel08242015383D

 14 13  0  0  0  0  0  0  0  0999 V2000
   -3.9394    0.2426   -0.0437 C   0  0  0  0  0  0  0  0  0  0  0  0
   -2.7037   -0.5955    0.0911 C   0  0  0  0  0  0  0  0  0  0  0  0
   -4.9138   -0.4095    0.0096 H   0  0  0  0  0  0  0  0  0  0  0  0
   -3.8727    0.8887   -0.9424 H   0  0  0  0  0  0  0  0  0  0  0  0
   -3.9095    0.8750    0.7092 H   0  0  0  0  0  0  0  0  0  0  0  0
   -1.4359    0.1968    0.0862 C   0  0  0  0  0  0  0  0  0  0  0  0
   -2.5833   -1.1656   -0.7114 H   0  0  0  0  0  0  0  0  0  0  0  0
   -2.8856   -1.1920    0.9714 H   0  0  0  0  0  0  0  0  0  0  0  0
   -0.1143   -0.7114   -0.0349 C   0  0  0  0  0  0  0  0  0  0  0  0
   -1.3706    1.0987    1.0865 H   0  0  0  0  0  0  0  0  0  0  0  0
   -1.5805    0.6407   -0.7498 H   0  0  0  0  0  0  0  0  0  0  0  0
   -0.0173   -1.4629    0.9511 H   0  0  0  0  0  0  0  0  0  0  0  0
    0.7740   -0.1760   -0.2317 H   0  0  0  0  0  0  0  0  0  0  0  0
   -0.3355   -1.1751   -0.8008 H   0  0  0  0  0  0  0  0  0  0  0  0
  1  3  1  0  0  0  0
  1  2  1  0  0  0  0
  1  5  1  0  0  0  0
  2  8  1  0  0  0  0
  4  1  1  0  0  0  0
  6  2  1  0  0  0  0
  6 10  1  0  0  0  0
  7  2  1  0  0  0  0
  9  6  1  0  0  0  0
  9 12  1  0  0  0  0
 11  6  1  0  0  0  0
 13  9  1  0  0  0  0
 14  9  1  0  0  0  0
M  END
$$$$
