butane_opt
 OpenBabel08242015383D

 14 13  0  0  0  0  0  0  0  0999 V2000
   -3.9539    0.2378    0.1084 C   0  0  0  0  0  0  0  0  0  0  0  0
   -2.7504   -0.5649   -0.0873 C   0  0  0  0  0  0  0  0  0  0  0  0
   -5.0038   -0.5277    0.3246 H   0  0  0  0  0  0  0  0  0  0  0  0
   -4.1073    0.7474   -0.7142 H   0  0  0  0  0  0  0  0  0  0  0  0
   -3.8224    1.0316    1.0641 H   0  0  0  0  0  0  0  0  0  0  0  0
   -1.3849    0.2394   -0.1173 C   0  0  0  0  0  0  0  0  0  0  0  0
   -2.7304   -1.2176   -0.8107 H   0  0  0  0  0  0  0  0  0  0  0  0
   -2.6921   -1.3147    0.9003 H   0  0  0  0  0  0  0  0  0  0  0  0
   -0.1186   -0.7467    0.1350 C   0  0  0  0  0  0  0  0  0  0  0  0
   -1.3807    0.8223    0.7007 H   0  0  0  0  0  0  0  0  0  0  0  0
   -1.3365    0.9818   -1.1111 H   0  0  0  0  0  0  0  0  0  0  0  0
   -0.2913   -1.2176    0.9299 H   0  0  0  0  0  0  0  0  0  0  0  0
    0.7703   -0.1973    0.4333 H   0  0  0  0  0  0  0  0  0  0  0  0
    0.1071   -1.5889   -0.7329 H   0  0  0  0  0  0  0  0  0  0  0  0
  1  3  1  0  0  0  0
  1  5  1  0  0  0  0
  2  1  1  0  0  0  0
  2  8  1  0  0  0  0
  4  1  1  0  0  0  0
  6  2  1  0  0  0  0
  6  9  1  0  0  0  0
  6 10  1  0  0  0  0
  7  2  1  0  0  0  0
  9 13  1  0  0  0  0
  9 12  1  0  0  0  0
 11  6  1  0  0  0  0
 14  9  1  0  0  0  0
M  END
$$$$
