butane_opt
 OpenBabel08242015383D

 14 12  0  0  0  0  0  0  0  0999 V2000
   -3.8868    0.2206   -0.0314 C   0  0  0  0  0  0  0  0  0  0  0  0
   -2.7398   -0.5568    0.0849 C   0  0  0  0  0  0  0  0  0  0  0  0
   -4.8497   -0.4326    0.4115 H   0  0  0  0  0  0  0  0  0  0  0  0
   -3.9219    1.4120   -1.3637 H   0  0  0  0  0  0  0  0  0  0  0  0
   -3.8096    0.5371    0.5427 H   0  0  0  0  0  0  0  0  0  0  0  0
   -1.4353    0.1892    0.1334 C   0  0  0  0  0  0  0  0  0  0  0  0
   -2.5487   -1.2961   -0.7890 H   0  0  0  0  0  0  0  0  0  0  0  0
   -2.8376   -1.0711    0.8582 H   0  0  0  0  0  0  0  0  0  0  0  0
   -0.1493   -0.7113   -0.0499 C   0  0  0  0  0  0  0  0  0  0  0  0
   -1.3447    0.9255    0.9990 H   0  0  0  0  0  0  0  0  0  0  0  0
   -1.5595    0.6596   -0.6965 H   0  0  0  0  0  0  0  0  0  0  0  0
   -0.2373   -1.2169    0.7616 H   0  0  0  0  0  0  0  0  0  0  0  0
    0.7639   -0.1717   -0.0519 H   0  0  0  0  0  0  0  0  0  0  0  0
   -0.1229   -1.5050   -0.9209 H   0  0  0  0  0  0  0  0  0  0  0  0
  1  2  1  0  0  0  0
  1  3  1  0  0  0  0
  1  5  1  0  0  0  0
  2  6  1  0  0  0  0
  2  8  1  0  0  0  0
  6 10  1  0  0  0  0
  7  2  1  0  0  0  0
  9  6  1  0  0  0  0
  9 12  1  0  0  0  0
 11  6  1  0  0  0  0
 13  9  1  0  0  0  0
 14  9  1  0  0  0  0
M  RAD  2   1   2   4   2
M  END
$$$$
