14
butane_opt
C  -3.992802   0.289738   0.003484
C  -2.701182  -0.645732   0.083886
H  -4.905322  -0.353392   0.045895
H  -4.055292   1.066265  -0.910088
H  -4.074426   0.869518   0.798344
C  -1.358976   0.162038  -0.028354
H  -2.917486  -1.176830  -0.755465
H  -2.609997  -1.328635   1.029856
C  -0.140447  -0.692520   0.020607
H  -1.268936   0.965691   0.933599
H  -1.327352   0.772587  -0.865810
H  -0.311181  -1.031783   0.785947
H   0.771842  -0.002101   0.390567
H   0.004922  -1.644930  -1.028852
