14
butane_opt
C  -3.937527   0.267449   0.018891
C  -2.689205  -0.615309   0.054289
H  -4.853734  -0.327933   0.015087
H  -3.944086   0.912155  -0.903962
H  -4.021388   0.913839   0.854534
C  -1.413071   0.172916   0.003023
H  -2.725519  -1.296129  -0.780230
H  -2.679073  -1.238149   0.954089
C  -0.159594  -0.693565   0.028486
H  -1.397528   0.825325   0.819902
H  -1.382757   0.820670  -0.887268
H  -0.247612  -1.162940   0.844497
H   0.764292  -0.049727   0.116643
H  -0.134486  -1.451027  -0.869710
