14
butane_opt
C  -3.905322   0.220343  -0.054930
C  -2.696180  -0.543704   0.155421
H  -5.033548  -0.557919  -0.337615
H  -3.587895   0.635887  -0.826862
H  -4.181357   1.093078   0.877219
C  -1.433871   0.224939   0.061381
H  -2.515892  -1.195452  -0.711131
H  -2.714592  -1.332352   1.177664
C  -0.168896  -0.746985  -0.018996
H  -1.470480   0.834378   0.900615
H  -1.409366   0.985184  -0.902428
H   0.008881  -1.174050   0.631979
H   0.703463  -0.146954  -0.083809
H  -0.313986  -1.517245  -0.983875
