14
butane_opt
C  -3.969545   0.236274  -0.036123
C  -2.741192  -0.561060   0.057803
H  -4.947515  -0.455521   0.400102
H  -3.993833   1.146605  -1.122859
H  -3.782438   0.616125   0.614965
C  -1.388973   0.219906   0.121119
H  -2.638424  -1.408195  -0.853184
H  -2.749005  -1.142910   0.933942
C  -0.120320  -0.730398  -0.012630
H  -1.383179   0.918093   0.995645
H  -1.335845   0.845045  -0.851641
H  -0.079355  -1.306119   0.763351
H   0.701376  -0.262842  -0.145278
H  -0.146277  -1.400166  -0.892258
