butane_opt
 OpenBabel08242015383D

 14 13  0  0  0  0  0  0  0  0999 V2000
   -3.9572    0.2952    0.1197 C   0  0  0  0  0  0  0  0  0  0  0  0
   -2.6666   -0.6428   -0.0116 C   0  0  0  0  0  0  0  0  0  0  0  0
   -4.8885   -0.3332   -0.1631 H   0  0  0  0  0  0  0  0  0  0  0  0
   -3.9279    0.6678   -0.5889 H   0  0  0  0  0  0  0  0  0  0  0  0
   -3.9772    1.2620    1.1142 H   0  0  0  0  0  0  0  0  0  0  0  0
   -1.3671    0.1383   -0.1162 C   0  0  0  0  0  0  0  0  0  0  0  0
   -2.7690   -1.4132   -0.9876 H   0  0  0  0  0  0  0  0  0  0  0  0
   -2.5883   -1.1588    0.7333 H   0  0  0  0  0  0  0  0  0  0  0  0
   -0.2266   -0.6741    0.1052 C   0  0  0  0  0  0  0  0  0  0  0  0
   -1.4615    0.7399    0.6869 H   0  0  0  0  0  0  0  0  0  0  0  0
   -1.2896    0.9918   -1.2406 H   0  0  0  0  0  0  0  0  0  0  0  0
   -0.3326   -1.3796    1.1119 H   0  0  0  0  0  0  0  0  0  0  0  0
    0.8363   -0.0056    0.2907 H   0  0  0  0  0  0  0  0  0  0  0  0
   -0.0394   -1.2403   -0.6374 H   0  0  0  0  0  0  0  0  0  0  0  0
  1  5  1  0  0  0  0
  2  1  1  0  0  0  0
  2  8  1  0  0  0  0
  3  1  1  0  0  0  0
  4  1  1  0  0  0  0
  6  2  1  0  0  0  0
  6  9  1  0  0  0  0
  6 10  1  0  0  0  0
  7  2  1  0  0  0  0
  9 13  1  0  0  0  0
  9 12  1  0  0  0  0
 11  6  1  0  0  0  0
 14  9  1  0  0  0  0
M  END
$$$$
