14
butane_opt
C  -3.970737   0.241109   0.026902
C  -2.726745  -0.558878  -0.005614
H  -4.984178  -0.472221   0.036920
H  -4.022862   0.900919  -0.887993
H  -3.790837   0.885701   0.870981
C  -1.393155   0.204861   0.039287
H  -2.856693  -1.303101  -0.945050
H  -2.771715  -1.218301   0.933011
C  -0.123458  -0.720143   0.023110
H  -1.325871   0.962510   0.991794
H  -1.421003   0.711870  -0.759462
H   0.068717  -1.721052   1.157412
H   0.684005  -0.192835  -0.241360
H  -0.030492  -1.034891  -0.699740
