butane_opt
 OpenBabel08242015383D

 14 13  0  0  0  0  0  0  0  0999 V2000
   -3.8777    0.2305    0.1359 C   0  0  0  0  0  0  0  0  0  0  0  0
   -2.7223   -0.5696   -0.1038 C   0  0  0  0  0  0  0  0  0  0  0  0
   -4.7764   -0.3608    0.2875 H   0  0  0  0  0  0  0  0  0  0  0  0
   -4.1701    0.9799   -0.8312 H   0  0  0  0  0  0  0  0  0  0  0  0
   -3.8097    0.7820    0.9227 H   0  0  0  0  0  0  0  0  0  0  0  0
   -1.4187    0.2027   -0.0809 C   0  0  0  0  0  0  0  0  0  0  0  0
   -2.8648   -1.3014   -1.0000 H   0  0  0  0  0  0  0  0  0  0  0  0
   -2.5986   -1.0939    0.7039 H   0  0  0  0  0  0  0  0  0  0  0  0
   -0.1811   -0.7302    0.1111 C   0  0  0  0  0  0  0  0  0  0  0  0
   -1.5386    0.9475    0.7455 H   0  0  0  0  0  0  0  0  0  0  0  0
   -1.2879    0.7496   -0.8869 H   0  0  0  0  0  0  0  0  0  0  0  0
   -0.3096   -1.4274    1.1676 H   0  0  0  0  0  0  0  0  0  0  0  0
    0.7856   -0.2059    0.0681 H   0  0  0  0  0  0  0  0  0  0  0  0
   -0.0199   -1.1425   -0.5032 H   0  0  0  0  0  0  0  0  0  0  0  0
  1  3  1  0  0  0  0
  1  5  1  0  0  0  0
  2  6  1  0  0  0  0
  2  1  1  0  0  0  0
  2  8  1  0  0  0  0
  4  1  1  0  0  0  0
  6  9  1  0  0  0  0
  6 10  1  0  0  0  0
  7  2  1  0  0  0  0
  9 12  1  0  0  0  0
 11  6  1  0  0  0  0
 13  9  1  0  0  0  0
 14  9  1  0  0  0  0
M  END
$$$$
