butane_opt
 OpenBabel08242015383D

 14 13  0  0  0  0  0  0  0  0999 V2000
   -3.9986    0.2394   -0.0398 C   0  0  0  0  0  0  0  0  0  0  0  0
   -2.7318   -0.5896    0.0794 C   0  0  0  0  0  0  0  0  0  0  0  0
   -4.9063   -0.4259   -0.0184 H   0  0  0  0  0  0  0  0  0  0  0  0
   -3.9013    0.9799   -0.9684 H   0  0  0  0  0  0  0  0  0  0  0  0
   -3.7907    0.7155    0.7301 H   0  0  0  0  0  0  0  0  0  0  0  0
   -1.3949    0.2231    0.0972 C   0  0  0  0  0  0  0  0  0  0  0  0
   -2.6368   -1.3710   -0.8056 H   0  0  0  0  0  0  0  0  0  0  0  0
   -2.8031   -1.0922    0.9515 H   0  0  0  0  0  0  0  0  0  0  0  0
   -0.1072   -0.7166   -0.0220 C   0  0  0  0  0  0  0  0  0  0  0  0
   -1.3828    1.0872    1.1218 H   0  0  0  0  0  0  0  0  0  0  0  0
   -1.5336    0.7849   -0.7752 H   0  0  0  0  0  0  0  0  0  0  0  0
    0.1772   -1.5612    0.9679 H   0  0  0  0  0  0  0  0  0  0  0  0
    0.7270   -0.2478   -0.3959 H   0  0  0  0  0  0  0  0  0  0  0  0
   -0.1959   -1.2124   -0.7503 H   0  0  0  0  0  0  0  0  0  0  0  0
  1  3  1  0  0  0  0
  1  2  1  0  0  0  0
  1  5  1  0  0  0  0
  2  6  1  0  0  0  0
  2  8  1  0  0  0  0
  4  1  1  0  0  0  0
  6 10  1  0  0  0  0
  7  2  1  0  0  0  0
  9  6  1  0  0  0  0
  9 12  1  0  0  0  0
 11  6  1  0  0  0  0
 13  9  1  0  0  0  0
 14  9  1  0  0  0  0
M  END
$$$$
