butane_opt
 OpenBabel08242015383D

 14 13  0  0  0  0  0  0  0  0999 V2000
   -3.9379    0.2548    0.0404 C   0  0  0  0  0  0  0  0  0  0  0  0
   -2.6917   -0.5967   -0.0011 C   0  0  0  0  0  0  0  0  0  0  0  0
   -4.8700   -0.3649    0.1596 H   0  0  0  0  0  0  0  0  0  0  0  0
   -4.0223    0.9475   -0.9127 H   0  0  0  0  0  0  0  0  0  0  0  0
   -3.8673    0.8445    0.8672 H   0  0  0  0  0  0  0  0  0  0  0  0
   -1.4149    0.1867   -0.0009 C   0  0  0  0  0  0  0  0  0  0  0  0
   -2.7131   -1.2685   -0.8611 H   0  0  0  0  0  0  0  0  0  0  0  0
   -2.7131   -1.2569    0.9249 H   0  0  0  0  0  0  0  0  0  0  0  0
   -0.1692   -0.7057    0.0550 C   0  0  0  0  0  0  0  0  0  0  0  0
   -1.4240    0.8855    0.8755 H   0  0  0  0  0  0  0  0  0  0  0  0
   -1.3509    0.8158   -0.8861 H   0  0  0  0  0  0  0  0  0  0  0  0
   -0.1329   -1.2945    0.9093 H   0  0  0  0  0  0  0  0  0  0  0  0
    0.7725   -0.1054    0.0383 H   0  0  0  0  0  0  0  0  0  0  0  0
   -0.1321   -1.3418   -0.8070 H   0  0  0  0  0  0  0  0  0  0  0  0
  1  3  1  0  0  0  0
  1  5  1  0  0  0  0
  2  6  1  0  0  0  0
  2  1  1  0  0  0  0
  2  8  1  0  0  0  0
  4  1  1  0  0  0  0
  6  9  1  0  0  0  0
  6 10  1  0  0  0  0
  7  2  1  0  0  0  0
  9 12  1  0  0  0  0
 11  6  1  0  0  0  0
 13  9  1  0  0  0  0
 14  9  1  0  0  0  0
M  END
$$$$
