butane_opt
 OpenBabel08242015383D

 14 13  0  0  0  0  0  0  0  0999 V2000
   -3.9823    0.3144    0.0220 C   0  0  0  0  0  0  0  0  0  0  0  0
   -2.7074   -0.6801    0.0095 C   0  0  0  0  0  0  0  0  0  0  0  0
   -4.7431   -0.2260    0.4235 H   0  0  0  0  0  0  0  0  0  0  0  0
   -4.2138    1.3281   -1.0829 H   0  0  0  0  0  0  0  0  0  0  0  0
   -3.8659    0.6172    0.6416 H   0  0  0  0  0  0  0  0  0  0  0  0
   -1.3634    0.1615    0.0378 C   0  0  0  0  0  0  0  0  0  0  0  0
   -2.8217   -1.4803   -0.9771 H   0  0  0  0  0  0  0  0  0  0  0  0
   -2.7187   -1.3491    0.8832 H   0  0  0  0  0  0  0  0  0  0  0  0
   -0.1594   -0.6598    0.0520 C   0  0  0  0  0  0  0  0  0  0  0  0
   -1.3782    0.8631    0.8586 H   0  0  0  0  0  0  0  0  0  0  0  0
   -1.3607    0.7969   -0.7976 H   0  0  0  0  0  0  0  0  0  0  0  0
    0.0005   -1.0653    0.8155 H   0  0  0  0  0  0  0  0  0  0  0  0
    0.7664   -0.0450    0.0557 H   0  0  0  0  0  0  0  0  0  0  0  0
   -0.1749   -1.5003   -0.8949 H   0  0  0  0  0  0  0  0  0  0  0  0
  1  3  1  0  0  0  0
  1  5  1  0  0  0  0
  2  1  1  0  0  0  0
  2  6  1  0  0  0  0
  2  8  1  0  0  0  0
  4  1  1  0  0  0  0
  6  9  1  0  0  0  0
  6 10  1  0  0  0  0
  7  2  1  0  0  0  0
  9 13  1  0  0  0  0
  9 12  1  0  0  0  0
 11  6  1  0  0  0  0
 14  9  1  0  0  0  0
M  END
$$$$
