butane_opt
 OpenBabel08242015383D

 14 13  0  0  0  0  0  0  0  0999 V2000
   -3.9023    0.2837   -0.0786 C   0  0  0  0  0  0  0  0  0  0  0  0
   -2.6787   -0.6389    0.1443 C   0  0  0  0  0  0  0  0  0  0  0  0
   -4.7754   -0.2304   -0.2915 H   0  0  0  0  0  0  0  0  0  0  0  0
   -3.9510    0.8429   -0.9665 H   0  0  0  0  0  0  0  0  0  0  0  0
   -4.1175    0.9829    0.8062 H   0  0  0  0  0  0  0  0  0  0  0  0
   -1.4174    0.1177    0.1042 C   0  0  0  0  0  0  0  0  0  0  0  0
   -2.5969   -1.1885   -0.6387 H   0  0  0  0  0  0  0  0  0  0  0  0
   -2.7537   -1.2891    1.1186 H   0  0  0  0  0  0  0  0  0  0  0  0
   -0.1885   -0.6503   -0.0683 C   0  0  0  0  0  0  0  0  0  0  0  0
   -1.2248    1.0282    1.1115 H   0  0  0  0  0  0  0  0  0  0  0  0
   -1.6804    0.6569   -0.7306 H   0  0  0  0  0  0  0  0  0  0  0  0
   -0.1091   -1.3270    0.9248 H   0  0  0  0  0  0  0  0  0  0  0  0
    0.7905   -0.0359   -0.2683 H   0  0  0  0  0  0  0  0  0  0  0  0
   -0.3706   -1.2562   -0.8310 H   0  0  0  0  0  0  0  0  0  0  0  0
  1  2  1  0  0  0  0
  1  5  1  0  0  0  0
  2  8  1  0  0  0  0
  3  1  1  0  0  0  0
  4  1  1  0  0  0  0
  6  2  1  0  0  0  0
  6 10  1  0  0  0  0
  7  2  1  0  0  0  0
  9  6  1  0  0  0  0
  9 12  1  0  0  0  0
 11  6  1  0  0  0  0
 13  9  1  0  0  0  0
 14  9  1  0  0  0  0
M  END
$$$$
