14
butane_opt
C  -4.012564   0.324395  -0.070658
C  -2.674156  -0.674982   0.102524
H  -4.964107  -0.320249  -0.076741
H  -4.004426   1.145192  -1.059284
H  -4.139821   0.719691   0.629636
C  -1.382605   0.127032   0.170008
H  -2.663736  -1.329348  -0.696190
H  -2.734418  -1.348418   1.013642
C  -0.123732  -0.647597  -0.059395
H  -1.203963   0.903023   1.092295
H  -1.443602   0.767230  -0.724451
H   0.092822  -1.286267   0.833120
H   0.734745   0.001831  -0.374329
H  -0.396180  -1.267620  -0.934247
