14
butane_opt
C  -3.960548   0.306838  -0.077386
C  -2.715085  -0.645957   0.117287
H  -4.855211  -0.219953  -0.085867
H  -3.974510   0.941681  -1.036995
H  -4.357413   0.913784   0.695724
C  -1.346090   0.133935   0.128637
H  -2.700519  -1.252625  -0.641139
H  -2.796867  -1.345152   1.053126
C  -0.154442  -0.655691  -0.051772
H  -1.245262   1.036210   1.109132
H  -1.511303   0.503369  -0.593400
H   0.106804  -1.514771   0.937425
H   0.867409   0.026449  -0.448139
H  -0.458670  -1.204058  -0.922928
