butane_opt
 OpenBabel08242015383D

 14 13  0  0  0  0  0  0  0  0999 V2000
   -3.9023    0.2555    0.0832 C   0  0  0  0  0  0  0  0  0  0  0  0
   -2.6934   -0.5813   -0.0552 C   0  0  0  0  0  0  0  0  0  0  0  0
   -5.0037   -0.5014    0.5157 H   0  0  0  0  0  0  0  0  0  0  0  0
   -3.9567    0.9896   -0.8941 H   0  0  0  0  0  0  0  0  0  0  0  0
   -3.6952    0.7596    0.8393 H   0  0  0  0  0  0  0  0  0  0  0  0
   -1.4253    0.2021   -0.0448 C   0  0  0  0  0  0  0  0  0  0  0  0
   -2.8277   -1.5104   -1.0093 H   0  0  0  0  0  0  0  0  0  0  0  0
   -2.7138   -1.0408    0.7203 H   0  0  0  0  0  0  0  0  0  0  0  0
   -0.1857   -0.7334    0.1116 C   0  0  0  0  0  0  0  0  0  0  0  0
   -1.4337    0.8779    0.7674 H   0  0  0  0  0  0  0  0  0  0  0  0
   -1.4641    0.9543   -1.0172 H   0  0  0  0  0  0  0  0  0  0  0  0
   -0.1620   -1.2864    0.9775 H   0  0  0  0  0  0  0  0  0  0  0  0
    0.7070   -0.1902    0.1505 H   0  0  0  0  0  0  0  0  0  0  0  0
    0.0107   -1.2522   -0.7371 H   0  0  0  0  0  0  0  0  0  0  0  0
  1  3  1  0  0  0  0
  1  5  1  0  0  0  0
  2  6  1  0  0  0  0
  2  1  1  0  0  0  0
  2  8  1  0  0  0  0
  4  1  1  0  0  0  0
  6  9  1  0  0  0  0
  6 10  1  0  0  0  0
  7  2  1  0  0  0  0
  9 13  1  0  0  0  0
  9 12  1  0  0  0  0
 11  6  1  0  0  0  0
 14  9  1  0  0  0  0
M  END
$$$$
