butane_opt
 OpenBabel08242015383D

 14 13  0  0  0  0  0  0  0  0999 V2000
   -3.9303    0.2490    0.0171 C   0  0  0  0  0  0  0  0  0  0  0  0
   -2.6997   -0.5936    0.0418 C   0  0  0  0  0  0  0  0  0  0  0  0
   -4.8479   -0.3347    0.0761 H   0  0  0  0  0  0  0  0  0  0  0  0
   -3.9594    0.8777   -0.8876 H   0  0  0  0  0  0  0  0  0  0  0  0
   -3.9225    0.8870    0.8724 H   0  0  0  0  0  0  0  0  0  0  0  0
   -1.4137    0.1888   -0.0061 C   0  0  0  0  0  0  0  0  0  0  0  0
   -2.7228   -1.2325   -0.7574 H   0  0  0  0  0  0  0  0  0  0  0  0
   -2.7360   -1.2619    0.9666 H   0  0  0  0  0  0  0  0  0  0  0  0
   -0.1622   -0.7082    0.0371 C   0  0  0  0  0  0  0  0  0  0  0  0
   -1.3984    0.9083    0.8616 H   0  0  0  0  0  0  0  0  0  0  0  0
   -1.3735    0.8398   -0.9143 H   0  0  0  0  0  0  0  0  0  0  0  0
   -0.1566   -1.1931    0.8676 H   0  0  0  0  0  0  0  0  0  0  0  0
    0.7233   -0.1259    0.1610 H   0  0  0  0  0  0  0  0  0  0  0  0
   -0.1493   -1.4824   -0.8966 H   0  0  0  0  0  0  0  0  0  0  0  0
  1  2  1  0  0  0  0
  1  3  1  0  0  0  0
  1  5  1  0  0  0  0
  2  8  1  0  0  0  0
  4  1  1  0  0  0  0
  6  9  1  0  0  0  0
  6  2  1  0  0  0  0
  6 10  1  0  0  0  0
  7  2  1  0  0  0  0
  9 13  1  0  0  0  0
  9 12  1  0  0  0  0
 11  6  1  0  0  0  0
 14  9  1  0  0  0  0
M  END
$$$$
