14
butane_opt
C  -3.957540   0.239271  -0.055582
C  -2.745280  -0.592040   0.121798
H  -4.765946  -0.296580   0.197224
H  -4.018018   0.963612  -1.034937
H  -3.950897   0.883799   0.875853
C  -1.410143   0.211411   0.026133
H  -2.755370  -1.245347  -0.640118
H  -2.715720  -1.318808   1.023161
C  -0.108144  -0.700654  -0.003028
H  -1.364663   0.700460   0.825721
H  -1.461986   0.859600  -0.823447
H  -0.161321  -0.975059   0.648124
H   0.793758  -0.122848   0.418867
H   0.021817  -1.794644  -1.164526
