14
butane_opt
C  -3.982102   0.278174   0.090043
C  -2.676572  -0.622279  -0.086644
H  -4.729591  -0.247277   0.397046
H  -4.194679   0.906018  -0.778346
H  -3.701382   0.825600   0.898817
C  -1.414145   0.152436  -0.033387
H  -2.702435  -1.517036  -1.059357
H  -2.613255  -1.059093   0.698207
C  -0.150552  -0.686317   0.141484
H  -1.355528   0.792147   0.695060
H  -1.419140   0.949572  -1.007058
H  -0.276056  -1.409412   1.087205
H   0.886119   0.025709  -0.147362
H  -0.251733  -1.176181  -0.669617
