butane_opt
 OpenBabel08242015383D

 14 13  0  0  0  0  0  0  0  0999 V2000
   -3.9553    0.2694   -0.0279 C   0  0  0  0  0  0  0  0  0  0  0  0
   -2.6820   -0.6170    0.0911 C   0  0  0  0  0  0  0  0  0  0  0  0
   -4.9163   -0.3791    0.2673 H   0  0  0  0  0  0  0  0  0  0  0  0
   -3.7462    1.2056   -1.1899 H   0  0  0  0  0  0  0  0  0  0  0  0
   -3.8549    0.5452    0.5961 H   0  0  0  0  0  0  0  0  0  0  0  0
   -1.4403    0.1746    0.0729 C   0  0  0  0  0  0  0  0  0  0  0  0
   -2.6069   -1.2088   -0.7491 H   0  0  0  0  0  0  0  0  0  0  0  0
   -2.6985   -1.1318    0.9783 H   0  0  0  0  0  0  0  0  0  0  0  0
   -0.1697   -0.6847   -0.0246 C   0  0  0  0  0  0  0  0  0  0  0  0
   -1.3418    0.9681    1.0490 H   0  0  0  0  0  0  0  0  0  0  0  0
   -1.4019    0.6579   -0.6923 H   0  0  0  0  0  0  0  0  0  0  0  0
   -0.0892   -1.2138    0.7528 H   0  0  0  0  0  0  0  0  0  0  0  0
    0.8322   -0.1102    0.1098 H   0  0  0  0  0  0  0  0  0  0  0  0
   -0.2498   -1.5096   -1.0533 H   0  0  0  0  0  0  0  0  0  0  0  0
  1  2  1  0  0  0  0
  1  3  1  0  0  0  0
  1  5  1  0  0  0  0
  2  8  1  0  0  0  0
  4  1  1  0  0  0  0
  6  2  1  0  0  0  0
  6 10  1  0  0  0  0
  7  2  1  0  0  0  0
  9  6  1  0  0  0  0
  9 13  1  0  0  0  0
  9 12  1  0  0  0  0
 11  6  1  0  0  0  0
 14  9  1  0  0  0  0
M  END
$$$$
