14
butane_opt
C  -3.959824   0.296004   0.113066
C  -2.639038  -0.645486  -0.097433
H  -4.803972  -0.254418   0.373091
H  -4.172232   1.049799  -0.828035
H  -3.820172   0.795479   0.922752
C  -1.409365   0.154317  -0.061801
H  -2.644064  -1.421518  -0.946275
H  -2.580215  -1.374042   0.812161
C  -0.224369  -0.665045   0.113795
H  -1.453928   0.825879   0.761795
H  -1.107894   0.800476  -1.020700
H  -0.228361  -1.226911   0.949025
H   0.755226  -0.017326   0.237578
H  -0.187106  -1.287966  -0.647330
