butane_opt
 OpenBabel08242015383D

 14 13  0  0  0  0  0  0  0  0999 V2000
   -3.9537    0.2998    0.1030 C   0  0  0  0  0  0  0  0  0  0  0  0
   -2.6599   -0.6544   -0.0664 C   0  0  0  0  0  0  0  0  0  0  0  0
   -4.8967   -0.3107    0.4062 H   0  0  0  0  0  0  0  0  0  0  0  0
   -4.2408    1.1691   -0.8912 H   0  0  0  0  0  0  0  0  0  0  0  0
   -3.6906    0.8049    0.7677 H   0  0  0  0  0  0  0  0  0  0  0  0
   -1.3599    0.1338   -0.0260 C   0  0  0  0  0  0  0  0  0  0  0  0
   -2.7210   -1.4767   -1.1080 H   0  0  0  0  0  0  0  0  0  0  0  0
   -2.5274   -1.0568    0.6052 H   0  0  0  0  0  0  0  0  0  0  0  0
   -0.2242   -0.6691    0.0981 C   0  0  0  0  0  0  0  0  0  0  0  0
   -1.4057    0.6950    0.7788 H   0  0  0  0  0  0  0  0  0  0  0  0
   -1.4482    0.8302   -0.9793 H   0  0  0  0  0  0  0  0  0  0  0  0
   -0.3328   -1.3166    1.0363 H   0  0  0  0  0  0  0  0  0  0  0  0
    0.7626   -0.0117    0.1106 H   0  0  0  0  0  0  0  0  0  0  0  0
   -0.1575   -1.1034   -0.5958 H   0  0  0  0  0  0  0  0  0  0  0  0
  1  3  1  0  0  0  0
  1  5  1  0  0  0  0
  2  6  1  0  0  0  0
  2  1  1  0  0  0  0
  2  8  1  0  0  0  0
  4  1  1  0  0  0  0
  6  9  1  0  0  0  0
  6 10  1  0  0  0  0
  7  2  1  0  0  0  0
  9 13  1  0  0  0  0
  9 12  1  0  0  0  0
 11  6  1  0  0  0  0
 14  9  1  0  0  0  0
M  END
$$$$
