butane_opt
 OpenBabel08242015383D

 14 13  0  0  0  0  0  0  0  0999 V2000
   -3.9095    0.2314   -0.0850 C   0  0  0  0  0  0  0  0  0  0  0  0
   -2.7037   -0.5552    0.1391 C   0  0  0  0  0  0  0  0  0  0  0  0
   -4.7959   -0.3995    0.0027 H   0  0  0  0  0  0  0  0  0  0  0  0
   -3.8008    1.0462   -1.1615 H   0  0  0  0  0  0  0  0  0  0  0  0
   -3.8219    0.6478    0.6138 H   0  0  0  0  0  0  0  0  0  0  0  0
   -1.4424    0.1873    0.1488 C   0  0  0  0  0  0  0  0  0  0  0  0
   -2.7750   -1.2795   -0.8221 H   0  0  0  0  0  0  0  0  0  0  0  0
   -2.7319   -1.1213    1.0219 H   0  0  0  0  0  0  0  0  0  0  0  0
   -0.1513   -0.7121   -0.0639 C   0  0  0  0  0  0  0  0  0  0  0  0
   -1.4718    0.9508    1.0810 H   0  0  0  0  0  0  0  0  0  0  0  0
   -1.6381    0.6349   -0.5373 H   0  0  0  0  0  0  0  0  0  0  0  0
    0.1147   -1.4118    0.8272 H   0  0  0  0  0  0  0  0  0  0  0  0
    0.7348   -0.1634   -0.3579 H   0  0  0  0  0  0  0  0  0  0  0  0
   -0.3598   -1.1778   -0.9166 H   0  0  0  0  0  0  0  0  0  0  0  0
  1  3  1  0  0  0  0
  1  2  1  0  0  0  0
  1  5  1  0  0  0  0
  2  6  1  0  0  0  0
  2  8  1  0  0  0  0
  4  1  1  0  0  0  0
  6 10  1  0  0  0  0
  7  2  1  0  0  0  0
  9  6  1  0  0  0  0
  9 12  1  0  0  0  0
 11  6  1  0  0  0  0
 13  9  1  0  0  0  0
 14  9  1  0  0  0  0
M  END
$$$$
