14
butane_opt
C  -3.953734   0.299829   0.103012
C  -2.659879  -0.654383  -0.066352
H  -4.896742  -0.310715   0.406238
H  -4.240800   1.169089  -0.891211
H  -3.690618   0.804941   0.767659
C  -1.359899   0.133750  -0.026034
H  -2.721001  -1.476734  -1.107958
H  -2.527442  -1.056799   0.605209
C  -0.224229  -0.669090   0.098119
H  -1.405719   0.695017   0.778842
H  -1.448222   0.830172  -0.979338
H  -0.332794  -1.316558   1.036303
H   0.762563  -0.011681   0.110620
H  -0.157456  -1.103397  -0.595841
