14
butane_opt
C  -3.945264   0.270653   0.038570
C  -2.698769  -0.613746   0.030482
H  -4.864998  -0.314810   0.015897
H  -3.970407   0.883610  -0.853772
H  -3.992777   0.948422   0.919613
C  -1.395835   0.166566  -0.023550
H  -2.702090  -1.284614  -0.806523
H  -2.666730  -1.293937   0.925063
C  -0.168526  -0.687487   0.047939
H  -1.385646   0.870763   0.844501
H  -1.343853   0.806707  -0.930845
H  -0.253146  -1.220934   0.897792
H   0.754487  -0.100679   0.126839
H  -0.092528  -1.399259  -0.829679
