butane_opt
 OpenBabel08242015383D

 14 12  0  0  0  0  0  0  0  0999 V2000
   -3.9760    0.2284    0.0644 C   0  0  0  0  0  0  0  0  0  0  0  0
   -2.6967   -0.6069   -0.0587 C   0  0  0  0  0  0  0  0  0  0  0  0
   -4.8355   -0.3921   -0.0606 H   0  0  0  0  0  0  0  0  0  0  0  0
   -3.9629    0.5979   -0.6125 H   0  0  0  0  0  0  0  0  0  0  0  0
   -4.0251    1.1685    1.1216 H   0  0  0  0  0  0  0  0  0  0  0  0
   -1.3965    0.2417   -0.0210 C   0  0  0  0  0  0  0  0  0  0  0  0
   -2.7270   -1.2788   -0.9068 H   0  0  0  0  0  0  0  0  0  0  0  0
   -2.7708   -1.1118    0.8763 H   0  0  0  0  0  0  0  0  0  0  0  0
   -0.1460   -0.7249    0.0955 C   0  0  0  0  0  0  0  0  0  0  0  0
   -1.3439    0.8415    0.7714 H   0  0  0  0  0  0  0  0  0  0  0  0
   -1.4326    0.9140   -0.9375 H   0  0  0  0  0  0  0  0  0  0  0  0
    0.1451   -1.6273    1.1446 H   0  0  0  0  0  0  0  0  0  0  0  0
    0.6271   -0.2679   -0.3817 H   0  0  0  0  0  0  0  0  0  0  0  0
   -0.0912   -0.9905   -0.4652 H   0  0  0  0  0  0  0  0  0  0  0  0
  1  5  1  0  0  0  0
  2  6  1  0  0  0  0
  2  1  1  0  0  0  0
  2  8  1  0  0  0  0
  3  1  1  0  0  0  0
  4  1  1  0  0  0  0
  6  9  1  0  0  0  0
  6 10  1  0  0  0  0
  7  2  1  0  0  0  0
  9 12  1  0  0  0  0
 11  6  1  0  0  0  0
 13  9  1  0  0  0  0
M  RAD  2   9   2  14   2
M  END
$$$$
