14
butane_opt
C  -3.966318   0.252705  -0.046926
C  -2.718420  -0.611204   0.060437
H  -4.940969  -0.389841  -0.010962
H  -3.918280   0.890641  -0.988597
H  -3.976793   0.769555   0.714016
C  -1.387143   0.243890   0.147917
H  -2.784508  -1.301092  -0.791832
H  -2.730605  -1.254836   1.012831
C  -0.135506  -0.728181  -0.029102
H  -1.445470   0.911583   0.935984
H  -1.460975   0.875401  -0.705562
H   0.362896  -1.505901   0.864066
H   0.640240  -0.180861  -0.383694
H  -0.276143  -1.179257  -0.788822
