butane_opt
 OpenBabel08242015383D

 14 13  0  0  0  0  0  0  0  0999 V2000
   -3.9053    0.2203   -0.0549 C   0  0  0  0  0  0  0  0  0  0  0  0
   -2.6962   -0.5437    0.1554 C   0  0  0  0  0  0  0  0  0  0  0  0
   -5.0335   -0.5579   -0.3376 H   0  0  0  0  0  0  0  0  0  0  0  0
   -3.5879    0.6359   -0.8269 H   0  0  0  0  0  0  0  0  0  0  0  0
   -4.1814    1.0931    0.8772 H   0  0  0  0  0  0  0  0  0  0  0  0
   -1.4339    0.2249    0.0614 C   0  0  0  0  0  0  0  0  0  0  0  0
   -2.5159   -1.1955   -0.7111 H   0  0  0  0  0  0  0  0  0  0  0  0
   -2.7146   -1.3324    1.1777 H   0  0  0  0  0  0  0  0  0  0  0  0
   -0.1689   -0.7470   -0.0190 C   0  0  0  0  0  0  0  0  0  0  0  0
   -1.4705    0.8344    0.9006 H   0  0  0  0  0  0  0  0  0  0  0  0
   -1.4094    0.9852   -0.9024 H   0  0  0  0  0  0  0  0  0  0  0  0
    0.0089   -1.1741    0.6320 H   0  0  0  0  0  0  0  0  0  0  0  0
    0.7035   -0.1470   -0.0838 H   0  0  0  0  0  0  0  0  0  0  0  0
   -0.3140   -1.5172   -0.9839 H   0  0  0  0  0  0  0  0  0  0  0  0
  1  2  1  0  0  0  0
  1  5  1  0  0  0  0
  2  8  1  0  0  0  0
  3  1  1  0  0  0  0
  4  1  1  0  0  0  0
  6  2  1  0  0  0  0
  6 10  1  0  0  0  0
  7  2  1  0  0  0  0
  9  6  1  0  0  0  0
  9 12  1  0  0  0  0
 11  6  1  0  0  0  0
 13  9  1  0  0  0  0
 14  9  1  0  0  0  0
M  END
$$$$
