14
butane_opt
C  -3.887350   0.228838  -0.057490
C  -2.696744  -0.570370   0.138646
H  -4.778382  -0.411988  -0.038079
H  -4.087273   0.946041  -1.033354
H  -3.950462   0.797251   0.737834
C  -1.434043   0.212304   0.043446
H  -2.521561  -1.107468  -0.578759
H  -2.872135  -1.431945   1.211679
C  -0.180531  -0.711253  -0.040950
H  -1.417379   0.979576   1.076736
H  -1.514938   0.776060  -0.800739
H  -0.192882  -1.066230   0.686740
H   0.783541  -0.044482   0.274805
H  -0.077258  -1.823713  -1.153780
