14
butane_opt
C  -3.926190   0.295971  -0.039433
C  -2.731623  -0.660439   0.106334
H  -4.761751  -0.181555   0.171566
H  -3.968078   1.044900  -1.040371
H  -4.080853   0.818639   0.740361
C  -1.389717   0.158494   0.023956
H  -2.731783  -1.124695  -0.580848
H  -2.677419  -1.515349   1.151622
C  -0.176814  -0.685509  -0.001146
H  -1.283505   0.947234   1.000036
H  -1.413842   0.758096  -0.941468
H  -0.200631  -0.788060   0.538199
H   0.773130   0.036775   0.456423
H  -0.019990  -1.758664  -1.184178
