14
butane_opt
C  -3.942315   0.267963   0.040393
C  -2.697303  -0.613918   0.001608
H  -4.824630  -0.301465   0.149227
H  -4.054584   0.888218  -0.863534
H  -3.848571   0.903618   0.917894
C  -1.405519   0.175696  -0.003829
H  -2.718323  -1.347280  -0.881441
H  -2.704310  -1.162918   0.832019
C  -0.165329  -0.698156   0.062087
H  -1.412502   0.839031   0.826750
H  -1.345135   0.831337  -0.950888
H  -0.194118  -1.347169   0.980581
H   0.786767  -0.063669  -0.020823
H  -0.185075  -1.279308  -0.750609
