butane_opt
 OpenBabel08242015383D

 14 12  0  0  0  0  0  0  0  0999 V2000
   -3.9759    0.2870   -0.0241 C   0  0  0  0  0  0  0  0  0  0  0  0
   -2.7166   -0.6358    0.0775 C   0  0  0  0  0  0  0  0  0  0  0  0
   -4.8048   -0.2215    0.3032 H   0  0  0  0  0  0  0  0  0  0  0  0
   -4.1376    1.3225   -1.2576 H   0  0  0  0  0  0  0  0  0  0  0  0
   -3.9899    0.5240    0.6179 H   0  0  0  0  0  0  0  0  0  0  0  0
   -1.3986    0.1272    0.0816 C   0  0  0  0  0  0  0  0  0  0  0  0
   -2.7895   -1.3787   -0.7599 H   0  0  0  0  0  0  0  0  0  0  0  0
   -2.5636   -1.2133    0.9383 H   0  0  0  0  0  0  0  0  0  0  0  0
   -0.1170   -0.6536   -0.0109 C   0  0  0  0  0  0  0  0  0  0  0  0
   -1.3608    0.9434    0.9762 H   0  0  0  0  0  0  0  0  0  0  0  0
   -1.4250    0.7278   -0.7572 H   0  0  0  0  0  0  0  0  0  0  0  0
   -0.1390   -1.0982    0.7445 H   0  0  0  0  0  0  0  0  0  0  0  0
    0.8386   -0.0046    0.1340 H   0  0  0  0  0  0  0  0  0  0  0  0
   -0.1734   -1.5479   -1.0680 H   0  0  0  0  0  0  0  0  0  0  0  0
  1  2  1  0  0  0  0
  1  3  1  0  0  0  0
  1  5  1  0  0  0  0
  2  6  1  0  0  0  0
  2  8  1  0  0  0  0
  6 10  1  0  0  0  0
  7  2  1  0  0  0  0
  9  6  1  0  0  0  0
  9 13  1  0  0  0  0
  9 12  1  0  0  0  0
 11  6  1  0  0  0  0
 14  9  1  0  0  0  0
M  RAD  2   1   2   4   2
M  END
$$$$
