butane_opt
 OpenBabel08242015383D

 14 13  0  0  0  0  0  0  0  0999 V2000
   -3.9806    0.2841    0.1043 C   0  0  0  0  0  0  0  0  0  0  0  0
   -2.7070   -0.6858   -0.0576 C   0  0  0  0  0  0  0  0  0  0  0  0
   -4.8889   -0.2111    0.2114 H   0  0  0  0  0  0  0  0  0  0  0  0
   -4.2181    0.9528   -0.7848 H   0  0  0  0  0  0  0  0  0  0  0  0
   -3.8402    1.0516    1.0298 H   0  0  0  0  0  0  0  0  0  0  0  0
   -1.3633    0.1864   -0.0979 C   0  0  0  0  0  0  0  0  0  0  0  0
   -2.6045   -1.3105   -0.8191 H   0  0  0  0  0  0  0  0  0  0  0  0
   -2.6930   -1.3176    0.8690 H   0  0  0  0  0  0  0  0  0  0  0  0
   -0.1729   -0.6788    0.1074 C   0  0  0  0  0  0  0  0  0  0  0  0
   -1.3669    0.9049    0.7175 H   0  0  0  0  0  0  0  0  0  0  0  0
   -1.2496    0.9459   -1.0401 H   0  0  0  0  0  0  0  0  0  0  0  0
   -0.4007   -1.2099    0.9639 H   0  0  0  0  0  0  0  0  0  0  0  0
    0.7432   -0.0282    0.3430 H   0  0  0  0  0  0  0  0  0  0  0  0
    0.1774   -1.5338   -0.7469 H   0  0  0  0  0  0  0  0  0  0  0  0
  1  3  1  0  0  0  0
  1  5  1  0  0  0  0
  2  1  1  0  0  0  0
  2  8  1  0  0  0  0
  4  1  1  0  0  0  0
  6  2  1  0  0  0  0
  6  9  1  0  0  0  0
  6 10  1  0  0  0  0
  7  2  1  0  0  0  0
  9 13  1  0  0  0  0
  9 12  1  0  0  0  0
 11  6  1  0  0  0  0
 14  9  1  0  0  0  0
M  END
$$$$
