14
butane_opt
C  -3.955305   0.269437  -0.027931
C  -2.682016  -0.616998   0.091057
H  -4.916268  -0.379124   0.267345
H  -3.746176   1.205635  -1.189903
H  -3.854913   0.545180   0.596134
C  -1.440276   0.174580   0.072880
H  -2.606925  -1.208847  -0.749148
H  -2.698508  -1.131794   0.978255
C  -0.169720  -0.684709  -0.024638
H  -1.341792   0.968064   1.048974
H  -1.401914   0.657908  -0.692254
H  -0.089247  -1.213796   0.752823
H   0.832202  -0.110208   0.109813
H  -0.249835  -1.509650  -1.053285
