butane_opt
 OpenBabel08242015383D

 14 13  0  0  0  0  0  0  0  0999 V2000
   -3.9223    0.2592   -0.0374 C   0  0  0  0  0  0  0  0  0  0  0  0
   -2.7318   -0.6000    0.0543 C   0  0  0  0  0  0  0  0  0  0  0  0
   -4.8557   -0.3748    0.4365 H   0  0  0  0  0  0  0  0  0  0  0  0
   -4.1455    1.1661   -1.1775 H   0  0  0  0  0  0  0  0  0  0  0  0
   -3.9523    0.5798    0.6195 H   0  0  0  0  0  0  0  0  0  0  0  0
   -1.4057    0.2095    0.1133 C   0  0  0  0  0  0  0  0  0  0  0  0
   -2.9336   -1.2510   -0.8358 H   0  0  0  0  0  0  0  0  0  0  0  0
   -2.8440   -1.3570    0.9747 H   0  0  0  0  0  0  0  0  0  0  0  0
   -0.1136   -0.7089   -0.0140 C   0  0  0  0  0  0  0  0  0  0  0  0
   -1.4469    0.9145    1.0285 H   0  0  0  0  0  0  0  0  0  0  0  0
   -1.3556    0.8376   -0.8401 H   0  0  0  0  0  0  0  0  0  0  0  0
    0.0626   -1.1285    0.7222 H   0  0  0  0  0  0  0  0  0  0  0  0
    0.6753   -0.2567    0.0560 H   0  0  0  0  0  0  0  0  0  0  0  0
   -0.1365   -1.5102   -0.9878 H   0  0  0  0  0  0  0  0  0  0  0  0
  1  2  1  0  0  0  0
  1  3  1  0  0  0  0
  1  5  1  0  0  0  0
  2  6  1  0  0  0  0
  2  8  1  0  0  0  0
  4  1  1  0  0  0  0
  6 10  1  0  0  0  0
  7  2  1  0  0  0  0
  9 13  1  0  0  0  0
  9  6  1  0  0  0  0
  9 12  1  0  0  0  0
 11  6  1  0  0  0  0
 14  9  1  0  0  0  0
M  END
$$$$
