butane_opt
 OpenBabel08242015383D

 14 13  0  0  0  0  0  0  0  0999 V2000
   -3.9957    0.3110    0.1076 C   0  0  0  0  0  0  0  0  0  0  0  0
   -2.6978   -0.6379   -0.0472 C   0  0  0  0  0  0  0  0  0  0  0  0
   -4.9241   -0.2697    0.2376 H   0  0  0  0  0  0  0  0  0  0  0  0
   -4.1203    0.8729   -0.8022 H   0  0  0  0  0  0  0  0  0  0  0  0
   -3.9504    1.0835    1.0352 H   0  0  0  0  0  0  0  0  0  0  0  0
   -1.3657    0.1184   -0.0968 C   0  0  0  0  0  0  0  0  0  0  0  0
   -2.7592   -1.3639   -0.9260 H   0  0  0  0  0  0  0  0  0  0  0  0
   -2.6888   -1.3473    0.8456 H   0  0  0  0  0  0  0  0  0  0  0  0
   -0.1411   -0.6443    0.0963 C   0  0  0  0  0  0  0  0  0  0  0  0
   -1.3180    0.7755    0.6853 H   0  0  0  0  0  0  0  0  0  0  0  0
   -1.1748    0.7130   -1.0273 H   0  0  0  0  0  0  0  0  0  0  0  0
   -0.5218   -1.2817    1.1124 H   0  0  0  0  0  0  0  0  0  0  0  0
    0.7182   -0.0314    0.3584 H   0  0  0  0  0  0  0  0  0  0  0  0
    0.1116   -1.3864   -0.7900 H   0  0  0  0  0  0  0  0  0  0  0  0
  1  3  1  0  0  0  0
  1  5  1  0  0  0  0
  2  1  1  0  0  0  0
  2  8  1  0  0  0  0
  4  1  1  0  0  0  0
  6  2  1  0  0  0  0
  6  9  1  0  0  0  0
  6 10  1  0  0  0  0
  7  2  1  0  0  0  0
  9 13  1  0  0  0  0
  9 12  1  0  0  0  0
 11  6  1  0  0  0  0
 14  9  1  0  0  0  0
M  END
$$$$
