butane_opt
 OpenBabel08242015383D

 14 13  0  0  0  0  0  0  0  0999 V2000
   -3.9604    0.2178   -0.0592 C   0  0  0  0  0  0  0  0  0  0  0  0
   -2.7180   -0.5987    0.1224 C   0  0  0  0  0  0  0  0  0  0  0  0
   -4.8006   -0.3312   -0.2341 H   0  0  0  0  0  0  0  0  0  0  0  0
   -3.8435    0.6314   -0.8137 H   0  0  0  0  0  0  0  0  0  0  0  0
   -4.1054    1.0490    0.8755 H   0  0  0  0  0  0  0  0  0  0  0  0
   -1.3944    0.2500    0.0805 C   0  0  0  0  0  0  0  0  0  0  0  0
   -2.7865   -1.2717   -0.6776 H   0  0  0  0  0  0  0  0  0  0  0  0
   -2.7872   -1.2112    1.0285 H   0  0  0  0  0  0  0  0  0  0  0  0
   -0.1285   -0.7400   -0.0233 C   0  0  0  0  0  0  0  0  0  0  0  0
   -1.4967    0.9480    0.9236 H   0  0  0  0  0  0  0  0  0  0  0  0
   -1.5262    1.0747   -0.9103 H   0  0  0  0  0  0  0  0  0  0  0  0
    0.2641   -1.3524    0.8792 H   0  0  0  0  0  0  0  0  0  0  0  0
    0.6875   -0.2057   -0.1662 H   0  0  0  0  0  0  0  0  0  0  0  0
   -0.2126   -1.3758   -0.8874 H   0  0  0  0  0  0  0  0  0  0  0  0
  1  2  1  0  0  0  0
  1  5  1  0  0  0  0
  2  8  1  0  0  0  0
  3  1  1  0  0  0  0
  4  1  1  0  0  0  0
  6  2  1  0  0  0  0
  6 10  1  0  0  0  0
  7  2  1  0  0  0  0
  9  6  1  0  0  0  0
  9 12  1  0  0  0  0
 11  6  1  0  0  0  0
 13  9  1  0  0  0  0
 14  9  1  0  0  0  0
M  END
$$$$
