butane_opt
 OpenBabel08242015383D

 14 13  0  0  0  0  0  0  0  0999 V2000
   -3.9616    0.2489    0.0375 C   0  0  0  0  0  0  0  0  0  0  0  0
   -2.7085   -0.5989    0.0082 C   0  0  0  0  0  0  0  0  0  0  0  0
   -4.8888   -0.3571    0.0724 H   0  0  0  0  0  0  0  0  0  0  0  0
   -3.9901    0.8289   -0.8350 H   0  0  0  0  0  0  0  0  0  0  0  0
   -3.8954    0.9656    0.9064 H   0  0  0  0  0  0  0  0  0  0  0  0
   -1.4039    0.2045    0.0005 C   0  0  0  0  0  0  0  0  0  0  0  0
   -2.6685   -1.3738   -0.8785 H   0  0  0  0  0  0  0  0  0  0  0  0
   -2.7325   -1.1822    0.8633 H   0  0  0  0  0  0  0  0  0  0  0  0
   -0.1443   -0.7072    0.0552 C   0  0  0  0  0  0  0  0  0  0  0  0
   -1.4026    0.8717    0.8364 H   0  0  0  0  0  0  0  0  0  0  0  0
   -1.3755    0.8739   -0.9201 H   0  0  0  0  0  0  0  0  0  0  0  0
   -0.0310   -1.4558    1.0314 H   0  0  0  0  0  0  0  0  0  0  0  0
    0.7636   -0.1248   -0.0852 H   0  0  0  0  0  0  0  0  0  0  0  0
   -0.1793   -1.2873   -0.7451 H   0  0  0  0  0  0  0  0  0  0  0  0
  1  3  1  0  0  0  0
  1  5  1  0  0  0  0
  2  1  1  0  0  0  0
  2  8  1  0  0  0  0
  4  1  1  0  0  0  0
  6  2  1  0  0  0  0
  6  9  1  0  0  0  0
  6 10  1  0  0  0  0
  7  2  1  0  0  0  0
  9 12  1  0  0  0  0
 11  6  1  0  0  0  0
 13  9  1  0  0  0  0
 14  9  1  0  0  0  0
M  END
$$$$
