butane_opt
 OpenBabel08242015383D

 14 13  0  0  0  0  0  0  0  0999 V2000
   -3.9605    0.3068   -0.0774 C   0  0  0  0  0  0  0  0  0  0  0  0
   -2.7151   -0.6460    0.1173 C   0  0  0  0  0  0  0  0  0  0  0  0
   -4.8552   -0.2200   -0.0859 H   0  0  0  0  0  0  0  0  0  0  0  0
   -3.9745    0.9417   -1.0370 H   0  0  0  0  0  0  0  0  0  0  0  0
   -4.3574    0.9138    0.6957 H   0  0  0  0  0  0  0  0  0  0  0  0
   -1.3461    0.1339    0.1286 C   0  0  0  0  0  0  0  0  0  0  0  0
   -2.7005   -1.2526   -0.6411 H   0  0  0  0  0  0  0  0  0  0  0  0
   -2.7969   -1.3452    1.0531 H   0  0  0  0  0  0  0  0  0  0  0  0
   -0.1544   -0.6557   -0.0518 C   0  0  0  0  0  0  0  0  0  0  0  0
   -1.2453    1.0362    1.1091 H   0  0  0  0  0  0  0  0  0  0  0  0
   -1.5113    0.5034   -0.5934 H   0  0  0  0  0  0  0  0  0  0  0  0
    0.1068   -1.5148    0.9374 H   0  0  0  0  0  0  0  0  0  0  0  0
    0.8674    0.0264   -0.4481 H   0  0  0  0  0  0  0  0  0  0  0  0
   -0.4587   -1.2041   -0.9229 H   0  0  0  0  0  0  0  0  0  0  0  0
  1  2  1  0  0  0  0
  1  5  1  0  0  0  0
  2  6  1  0  0  0  0
  2  8  1  0  0  0  0
  3  1  1  0  0  0  0
  4  1  1  0  0  0  0
  6 10  1  0  0  0  0
  7  2  1  0  0  0  0
  9  6  1  0  0  0  0
  9 12  1  0  0  0  0
 11  6  1  0  0  0  0
 13  9  1  0  0  0  0
 14  9  1  0  0  0  0
M  END
$$$$
