14
butane_opt
C  -3.949012   0.236575  -0.068357
C  -2.686074  -0.593337   0.158155
H  -4.883337  -0.397148   0.058463
H  -3.745952   0.955593  -1.118242
H  -3.885197   0.758354   0.661934
C  -1.411337   0.243221   0.057124
H  -2.769325  -1.087608  -0.539406
H  -2.788366  -1.303481   1.065182
C  -0.170865  -0.724693  -0.057391
H  -1.411857   1.064969   1.064269
H  -1.407962   0.668205  -0.637493
H  -0.235360  -1.166037   0.670510
H   0.701390  -0.170264   0.146330
H   0.006603  -1.741286  -1.068140
