14
butane_opt
C  -3.934430   0.304889  -0.048868
C  -2.666492  -0.656591   0.095125
H  -4.893294  -0.319199   0.393352
H  -4.189765   1.354611  -1.150626
H  -3.818625   0.591426   0.483421
C  -1.428569   0.131353   0.100229
H  -2.571949  -1.403799  -0.757831
H  -2.684688  -1.178710   0.968590
C  -0.175442  -0.667693  -0.042677
H  -1.345983   0.897760   1.027829
H  -1.389582   0.579269  -0.702357
H  -0.318728  -1.028468   0.698216
H   0.843847   0.042031   0.110846
H  -0.199930  -1.333481  -0.943748
