butane_opt
 OpenBabel08242015383D

 14 13  0  0  0  0  0  0  0  0999 V2000
   -4.0235    0.2858    0.0897 C   0  0  0  0  0  0  0  0  0  0  0  0
   -2.6954   -0.6442    0.0166 C   0  0  0  0  0  0  0  0  0  0  0  0
   -4.8826   -0.2114   -0.3352 H   0  0  0  0  0  0  0  0  0  0  0  0
   -3.8371    0.6685   -0.6529 H   0  0  0  0  0  0  0  0  0  0  0  0
   -4.1356    1.2327    1.0946 H   0  0  0  0  0  0  0  0  0  0  0  0
   -1.3897    0.1520   -0.0934 C   0  0  0  0  0  0  0  0  0  0  0  0
   -2.6909   -1.4029   -0.9037 H   0  0  0  0  0  0  0  0  0  0  0  0
   -2.6150   -1.0942    0.7793 H   0  0  0  0  0  0  0  0  0  0  0  0
   -0.1449   -0.6530    0.1001 C   0  0  0  0  0  0  0  0  0  0  0  0
   -1.2728    0.6660    0.7827 H   0  0  0  0  0  0  0  0  0  0  0  0
   -1.2407    0.7361   -0.9589 H   0  0  0  0  0  0  0  0  0  0  0  0
   -0.1216   -1.4735    1.1944 H   0  0  0  0  0  0  0  0  0  0  0  0
    0.8556   -0.0356   -0.2053 H   0  0  0  0  0  0  0  0  0  0  0  0
   -0.0789   -1.2261   -0.6837 H   0  0  0  0  0  0  0  0  0  0  0  0
  1  5  1  0  0  0  0
  2  1  1  0  0  0  0
  2  8  1  0  0  0  0
  3  1  1  0  0  0  0
  4  1  1  0  0  0  0
  6  2  1  0  0  0  0
  6  9  1  0  0  0  0
  6 10  1  0  0  0  0
  7  2  1  0  0  0  0
  9 12  1  0  0  0  0
 11  6  1  0  0  0  0
 13  9  1  0  0  0  0
 14  9  1  0  0  0  0
M  END
$$$$
