butane_opt
 OpenBabel08242015383D

 14 13  0  0  0  0  0  0  0  0999 V2000
   -3.9695    0.2363   -0.0361 C   0  0  0  0  0  0  0  0  0  0  0  0
   -2.7412   -0.5611    0.0578 C   0  0  0  0  0  0  0  0  0  0  0  0
   -4.9475   -0.4555    0.4001 H   0  0  0  0  0  0  0  0  0  0  0  0
   -3.9938    1.1466   -1.1229 H   0  0  0  0  0  0  0  0  0  0  0  0
   -3.7824    0.6161    0.6150 H   0  0  0  0  0  0  0  0  0  0  0  0
   -1.3890    0.2199    0.1211 C   0  0  0  0  0  0  0  0  0  0  0  0
   -2.6384   -1.4082   -0.8532 H   0  0  0  0  0  0  0  0  0  0  0  0
   -2.7490   -1.1429    0.9339 H   0  0  0  0  0  0  0  0  0  0  0  0
   -0.1203   -0.7304   -0.0126 C   0  0  0  0  0  0  0  0  0  0  0  0
   -1.3832    0.9181    0.9956 H   0  0  0  0  0  0  0  0  0  0  0  0
   -1.3358    0.8450   -0.8516 H   0  0  0  0  0  0  0  0  0  0  0  0
   -0.0794   -1.3061    0.7634 H   0  0  0  0  0  0  0  0  0  0  0  0
    0.7014   -0.2628   -0.1453 H   0  0  0  0  0  0  0  0  0  0  0  0
   -0.1463   -1.4002   -0.8923 H   0  0  0  0  0  0  0  0  0  0  0  0
  1  2  1  0  0  0  0
  1  3  1  0  0  0  0
  1  5  1  0  0  0  0
  2  6  1  0  0  0  0
  2  8  1  0  0  0  0
  4  1  1  0  0  0  0
  6 10  1  0  0  0  0
  7  2  1  0  0  0  0
  9  6  1  0  0  0  0
  9 12  1  0  0  0  0
 11  6  1  0  0  0  0
 13  9  1  0  0  0  0
 14  9  1  0  0  0  0
M  END
$$$$
