14
butane_opt
C  -3.937811   0.297209   0.078353
C  -2.702174  -0.640692  -0.007428
H  -4.875423  -0.216985  -0.176876
H  -3.934559   0.915511  -0.813364
H  -4.134365   1.032299   0.988053
C  -1.400702   0.119938   0.001334
H  -2.659587  -1.529857  -0.997736
H  -2.599490  -1.177781   0.801807
C  -0.177242  -0.664156   0.062578
H  -1.416708   0.777420   0.854469
H  -1.315104   0.795518  -1.056032
H  -0.089303  -1.443542   1.075981
H   0.866078   0.054590  -0.279299
H  -0.271018  -0.990485  -0.549536
