butane_opt
 OpenBabel08242015383D

 14 13  0  0  0  0  0  0  0  0999 V2000
   -4.0055    0.3116   -0.0638 C   0  0  0  0  0  0  0  0  0  0  0  0
   -2.7156   -0.6511    0.1172 C   0  0  0  0  0  0  0  0  0  0  0  0
   -4.8760   -0.2347   -0.0769 H   0  0  0  0  0  0  0  0  0  0  0  0
   -3.9094    0.9732   -1.0186 H   0  0  0  0  0  0  0  0  0  0  0  0
   -4.1267    0.9720    0.7785 H   0  0  0  0  0  0  0  0  0  0  0  0
   -1.3426    0.1245    0.1435 C   0  0  0  0  0  0  0  0  0  0  0  0
   -2.4936   -1.4034   -0.7340 H   0  0  0  0  0  0  0  0  0  0  0  0
   -2.9075   -1.3451    1.0446 H   0  0  0  0  0  0  0  0  0  0  0  0
   -0.1652   -0.6603   -0.0571 C   0  0  0  0  0  0  0  0  0  0  0  0
   -1.2446    0.8384    0.9616 H   0  0  0  0  0  0  0  0  0  0  0  0
   -1.3676    0.8282   -0.8523 H   0  0  0  0  0  0  0  0  0  0  0  0
    0.1244   -1.2865    0.7814 H   0  0  0  0  0  0  0  0  0  0  0  0
    0.8253   -0.0831   -0.1891 H   0  0  0  0  0  0  0  0  0  0  0  0
   -0.3293   -1.1942   -0.8952 H   0  0  0  0  0  0  0  0  0  0  0  0
  1  2  1  0  0  0  0
  1  5  1  0  0  0  0
  2  6  1  0  0  0  0
  2  8  1  0  0  0  0
  3  1  1  0  0  0  0
  4  1  1  0  0  0  0
  6 10  1  0  0  0  0
  7  2  1  0  0  0  0
  9  6  1  0  0  0  0
  9 12  1  0  0  0  0
 11  6  1  0  0  0  0
 13  9  1  0  0  0  0
 14  9  1  0  0  0  0
M  END
$$$$
