butane_opt
 OpenBabel08242015383D

 14 13  0  0  0  0  0  0  0  0999 V2000
   -3.9250    0.2583   -0.0159 C   0  0  0  0  0  0  0  0  0  0  0  0
   -2.7308   -0.6192    0.0275 C   0  0  0  0  0  0  0  0  0  0  0  0
   -5.0148   -0.4339    0.4138 H   0  0  0  0  0  0  0  0  0  0  0  0
   -4.1497    1.1469   -1.0711 H   0  0  0  0  0  0  0  0  0  0  0  0
   -3.7581    0.6506    0.6866 H   0  0  0  0  0  0  0  0  0  0  0  0
   -1.3897    0.2280    0.0956 C   0  0  0  0  0  0  0  0  0  0  0  0
   -2.6336   -1.3787   -0.9248 H   0  0  0  0  0  0  0  0  0  0  0  0
   -2.8449   -1.1635    0.9391 H   0  0  0  0  0  0  0  0  0  0  0  0
   -0.1418   -0.7227   -0.0130 C   0  0  0  0  0  0  0  0  0  0  0  0
   -1.4794    0.9134    0.9977 H   0  0  0  0  0  0  0  0  0  0  0  0
   -1.3454    0.9565   -0.8325 H   0  0  0  0  0  0  0  0  0  0  0  0
    0.0164   -1.3171    0.8817 H   0  0  0  0  0  0  0  0  0  0  0  0
    0.6402   -0.2531   -0.0174 H   0  0  0  0  0  0  0  0  0  0  0  0
   -0.1725   -1.3550   -0.7872 H   0  0  0  0  0  0  0  0  0  0  0  0
  1  2  1  0  0  0  0
  1  3  1  0  0  0  0
  1  5  1  0  0  0  0
  2  6  1  0  0  0  0
  2  8  1  0  0  0  0
  4  1  1  0  0  0  0
  6 10  1  0  0  0  0
  7  2  1  0  0  0  0
  9  6  1  0  0  0  0
  9 12  1  0  0  0  0
 11  6  1  0  0  0  0
 13  9  1  0  0  0  0
 14  9  1  0  0  0  0
M  END
$$$$
