14
butane_opt
C  -3.923252   0.244072   0.094998
C  -2.730576  -0.585729  -0.024699
H  -4.820979  -0.342918   0.250772
H  -4.071514   0.969031  -0.975271
H  -3.877149   0.684813   0.831025
C  -1.437184   0.218592  -0.017831
H  -2.721398  -1.421062  -0.988282
H  -2.805225  -0.997333   0.698593
C  -0.118543  -0.719837   0.074958
H  -1.363738   0.815047   0.680090
H  -1.385708   0.865020  -0.960288
H  -0.297909  -1.412516   1.066691
H   0.794879  -0.091855   0.072063
H   0.049207  -1.423484  -0.770236
