14
butane_opt
C  -3.894072   0.286675   0.051338
C  -2.683583  -0.648981   0.022904
H  -4.833114  -0.282786  -0.267875
H  -4.020764   0.470524  -0.536601
H  -3.977284   1.358559   1.141223
C  -1.422085   0.147390  -0.076844
H  -2.711412  -1.250172  -0.813373
H  -2.623499  -1.411931   0.937461
C  -0.185173  -0.664135   0.076024
H  -1.510172   0.859450   0.722677
H  -1.453393   0.967892  -1.058347
H  -0.232443  -1.353183   1.008761
H   0.734121  -0.051199   0.161788
H  -0.181308  -1.248644  -0.683808
