14
butane_opt
C  -3.900653   0.246300  -0.047011
C  -2.700482  -0.596640   0.121172
H  -4.756603  -0.390579   0.160400
H  -3.916314   0.931543  -1.022043
H  -3.947330   0.941910   0.796252
C  -1.444558   0.169739   0.031382
H  -2.583608  -1.141737  -0.608863
H  -2.692812  -1.383823   1.113652
C  -0.193016  -0.682931  -0.030099
H  -1.442762   0.883702   0.999609
H  -1.419756   0.872335  -0.909986
H  -0.272997  -1.019574   0.683605
H   0.767132  -0.034287   0.431136
H   0.086051  -1.766615  -1.146147
