butane_opt
 OpenBabel08242015383D

 14 13  0  0  0  0  0  0  0  0999 V2000
   -3.9570    0.2557    0.1279 C   0  0  0  0  0  0  0  0  0  0  0  0
   -2.6957   -0.6222   -0.0137 C   0  0  0  0  0  0  0  0  0  0  0  0
   -4.8092   -0.3081   -0.1327 H   0  0  0  0  0  0  0  0  0  0  0  0
   -3.9655    0.7505   -0.6686 H   0  0  0  0  0  0  0  0  0  0  0  0
   -4.0448    0.9951    0.9793 H   0  0  0  0  0  0  0  0  0  0  0  0
   -1.3868    0.2220   -0.1262 C   0  0  0  0  0  0  0  0  0  0  0  0
   -2.8469   -1.5294   -1.0321 H   0  0  0  0  0  0  0  0  0  0  0  0
   -2.6420   -1.1321    0.8676 H   0  0  0  0  0  0  0  0  0  0  0  0
   -0.1625   -0.7138    0.1347 C   0  0  0  0  0  0  0  0  0  0  0  0
   -1.5430    0.8267    0.6225 H   0  0  0  0  0  0  0  0  0  0  0  0
   -1.4452    0.9817   -1.1142 H   0  0  0  0  0  0  0  0  0  0  0  0
   -0.1840   -1.2633    0.9649 H   0  0  0  0  0  0  0  0  0  0  0  0
    0.8129   -0.0860    0.2112 H   0  0  0  0  0  0  0  0  0  0  0  0
    0.0598   -1.4044   -0.7324 H   0  0  0  0  0  0  0  0  0  0  0  0
  1  5  1  0  0  0  0
  2  1  1  0  0  0  0
  2  8  1  0  0  0  0
  3  1  1  0  0  0  0
  4  1  1  0  0  0  0
  6  2  1  0  0  0  0
  6  9  1  0  0  0  0
  6 10  1  0  0  0  0
  7  2  1  0  0  0  0
  9 13  1  0  0  0  0
  9 12  1  0  0  0  0
 11  6  1  0  0  0  0
 14  9  1  0  0  0  0
M  END
$$$$
