butane_opt
 OpenBabel08242015383D

 14 13  0  0  0  0  0  0  0  0999 V2000
   -3.9279    0.3020   -0.0386 C   0  0  0  0  0  0  0  0  0  0  0  0
   -2.6603   -0.6528    0.0898 C   0  0  0  0  0  0  0  0  0  0  0  0
   -4.9039   -0.3006    0.2150 H   0  0  0  0  0  0  0  0  0  0  0  0
   -3.9940    1.1544   -1.1702 H   0  0  0  0  0  0  0  0  0  0  0  0
   -4.0444    0.5670    0.5567 H   0  0  0  0  0  0  0  0  0  0  0  0
   -1.4245    0.1383    0.1075 C   0  0  0  0  0  0  0  0  0  0  0  0
   -2.6445   -1.3053   -0.6966 H   0  0  0  0  0  0  0  0  0  0  0  0
   -2.7337   -1.2406    1.0227 H   0  0  0  0  0  0  0  0  0  0  0  0
   -0.1761   -0.6645   -0.0450 C   0  0  0  0  0  0  0  0  0  0  0  0
   -1.2211    0.9875    1.0626 H   0  0  0  0  0  0  0  0  0  0  0  0
   -1.5592    0.8120   -0.7849 H   0  0  0  0  0  0  0  0  0  0  0  0
   -0.1814   -1.1377    0.6964 H   0  0  0  0  0  0  0  0  0  0  0  0
    0.8119   -0.0609    0.1511 H   0  0  0  0  0  0  0  0  0  0  0  0
   -0.2893   -1.4269   -0.9991 H   0  0  0  0  0  0  0  0  0  0  0  0
  1  2  1  0  0  0  0
  1  3  1  0  0  0  0
  1  5  1  0  0  0  0
  2  6  1  0  0  0  0
  2  8  1  0  0  0  0
  4  1  1  0  0  0  0
  6 10  1  0  0  0  0
  7  2  1  0  0  0  0
  9  6  1  0  0  0  0
  9 13  1  0  0  0  0
  9 12  1  0  0  0  0
 11  6  1  0  0  0  0
 14  9  1  0  0  0  0
M  END
$$$$
