butane_opt
 OpenBabel08242015383D

 14 13  0  0  0  0  0  0  0  0999 V2000
   -3.9045    0.2426   -0.0414 C   0  0  0  0  0  0  0  0  0  0  0  0
   -2.7051   -0.5761    0.1338 C   0  0  0  0  0  0  0  0  0  0  0  0
   -4.8550   -0.4461   -0.3561 H   0  0  0  0  0  0  0  0  0  0  0  0
   -3.7273    0.6503   -0.8137 H   0  0  0  0  0  0  0  0  0  0  0  0
   -4.1892    0.9862    0.8842 H   0  0  0  0  0  0  0  0  0  0  0  0
   -1.4120    0.2330    0.0528 C   0  0  0  0  0  0  0  0  0  0  0  0
   -2.6282   -1.2483   -0.6383 H   0  0  0  0  0  0  0  0  0  0  0  0
   -2.8783   -1.2370    1.1162 H   0  0  0  0  0  0  0  0  0  0  0  0
   -0.1785   -0.7268   -0.0036 C   0  0  0  0  0  0  0  0  0  0  0  0
   -1.4034    0.7904    0.7921 H   0  0  0  0  0  0  0  0  0  0  0  0
   -1.3858    0.8658   -0.8065 H   0  0  0  0  0  0  0  0  0  0  0  0
    0.0477   -1.1494    0.7673 H   0  0  0  0  0  0  0  0  0  0  0  0
    0.6179   -0.2889   -0.2121 H   0  0  0  0  0  0  0  0  0  0  0  0
   -0.1880   -1.4956   -1.0000 H   0  0  0  0  0  0  0  0  0  0  0  0
  1  2  1  0  0  0  0
  1  5  1  0  0  0  0
  2  8  1  0  0  0  0
  3  1  1  0  0  0  0
  4  1  1  0  0  0  0
  6  2  1  0  0  0  0
  6 10  1  0  0  0  0
  7  2  1  0  0  0  0
  9  6  1  0  0  0  0
  9 12  1  0  0  0  0
 11  6  1  0  0  0  0
 13  9  1  0  0  0  0
 14  9  1  0  0  0  0
M  END
$$$$
