14
butane_opt
C  -3.923836   0.268571  -0.045442
C  -2.670022  -0.623703   0.151144
H  -4.663276  -0.221945  -0.264330
H  -3.908760   0.778226  -0.876288
H  -4.142745   0.937441   0.854166
C  -1.412369   0.175407   0.044882
H  -2.784489  -1.304726  -0.692653
H  -2.631587  -1.314017   0.994452
C  -0.203139  -0.680518  -0.018837
H  -1.423459   0.765428   0.835429
H  -1.495571   0.869966  -0.893146
H  -0.082929  -1.052518   0.780019
H   0.793064  -0.040647   0.109730
H  -0.198836  -1.539013  -1.013849
