butane_opt
 OpenBabel08242015383D

 14 13  0  0  0  0  0  0  0  0999 V2000
   -3.9380    0.2328    0.1416 C   0  0  0  0  0  0  0  0  0  0  0  0
   -2.7587   -0.5874   -0.0219 C   0  0  0  0  0  0  0  0  0  0  0  0
   -4.8733   -0.3101   -0.0765 H   0  0  0  0  0  0  0  0  0  0  0  0
   -3.9546    0.7599   -0.6957 H   0  0  0  0  0  0  0  0  0  0  0  0
   -3.9774    1.1225    1.1152 H   0  0  0  0  0  0  0  0  0  0  0  0
   -1.4074    0.1965   -0.1320 C   0  0  0  0  0  0  0  0  0  0  0  0
   -2.7346   -1.4287   -1.0254 H   0  0  0  0  0  0  0  0  0  0  0  0
   -2.7606   -1.0642    0.6664 H   0  0  0  0  0  0  0  0  0  0  0  0
   -0.1295   -0.7189    0.1266 C   0  0  0  0  0  0  0  0  0  0  0  0
   -1.4022    0.7608    0.6305 H   0  0  0  0  0  0  0  0  0  0  0  0
   -1.3556    1.0578   -1.1983 H   0  0  0  0  0  0  0  0  0  0  0  0
   -0.2294   -1.3646    1.1181 H   0  0  0  0  0  0  0  0  0  0  0  0
    0.8342   -0.1137    0.2930 H   0  0  0  0  0  0  0  0  0  0  0  0
    0.2227   -1.3791   -0.7245 H   0  0  0  0  0  0  0  0  0  0  0  0
  1  5  1  0  0  0  0
  2  1  1  0  0  0  0
  2  8  1  0  0  0  0
  3  1  1  0  0  0  0
  4  1  1  0  0  0  0
  6  2  1  0  0  0  0
  6  9  1  0  0  0  0
  6 10  1  0  0  0  0
  7  2  1  0  0  0  0
  9 13  1  0  0  0  0
  9 12  1  0  0  0  0
 11  6  1  0  0  0  0
 14  9  1  0  0  0  0
M  END
$$$$
