14
butane_opt
C  -3.960349   0.279308   0.041731
C  -2.699410  -0.641656   0.010276
H  -4.846606  -0.303670   0.128800
H  -4.021959   0.912067  -0.869750
H  -3.974191   0.945890   0.911188
C  -1.381559   0.178260  -0.019673
H  -2.729718  -1.317548  -0.854255
H  -2.686770  -1.243236   0.866244
C  -0.160830  -0.682723   0.055937
H  -1.392133   0.919282   0.860982
H  -1.350902   0.802841  -0.896698
H  -0.194112  -1.364924   0.987022
H   0.731693  -0.091147   0.048442
H  -0.133224  -1.331149  -0.795229
