14
butane_opt
C  -3.956273   0.239924  -0.065444
C  -2.736241  -0.589729   0.103209
H  -4.809779  -0.299928   0.250333
H  -3.927294   1.045498  -1.134755
H  -3.852970   0.550083   0.640981
C  -1.412191   0.237507   0.087785
H  -2.818411  -1.173675  -0.637073
H  -2.714996  -1.228466   1.071653
C  -0.135661  -0.711250  -0.043469
H  -1.329126   0.990506   1.073769
H  -1.356477   0.639769  -0.671157
H  -0.005364  -1.213253   0.760914
H   0.654514  -0.273384   0.060382
H   0.008112  -1.618187  -1.028476
