butane_opt
 OpenBabel08242015383D

 14 13  0  0  0  0  0  0  0  0999 V2000
   -3.9763    0.2950    0.1211 C   0  0  0  0  0  0  0  0  0  0  0  0
   -2.7263   -0.6211   -0.0282 C   0  0  0  0  0  0  0  0  0  0  0  0
   -4.8450   -0.2796    0.1170 H   0  0  0  0  0  0  0  0  0  0  0  0
   -4.0349    0.9350   -0.8709 H   0  0  0  0  0  0  0  0  0  0  0  0
   -3.9496    0.7525    0.9397 H   0  0  0  0  0  0  0  0  0  0  0  0
   -1.3841    0.1360   -0.0836 C   0  0  0  0  0  0  0  0  0  0  0  0
   -2.6979   -1.3890   -0.9437 H   0  0  0  0  0  0  0  0  0  0  0  0
   -2.5961   -1.0584    0.6883 H   0  0  0  0  0  0  0  0  0  0  0  0
   -0.1456   -0.6730    0.1109 C   0  0  0  0  0  0  0  0  0  0  0  0
   -1.3177    0.7911    0.6597 H   0  0  0  0  0  0  0  0  0  0  0  0
   -1.1854    0.8478   -1.0626 H   0  0  0  0  0  0  0  0  0  0  0  0
   -0.3056   -1.2213    0.9524 H   0  0  0  0  0  0  0  0  0  0  0  0
    0.7095   -0.1292    0.2835 H   0  0  0  0  0  0  0  0  0  0  0  0
   -0.0116   -1.3717   -0.7770 H   0  0  0  0  0  0  0  0  0  0  0  0
  1  5  1  0  0  0  0
  2  1  1  0  0  0  0
  2  8  1  0  0  0  0
  3  1  1  0  0  0  0
  4  1  1  0  0  0  0
  6  2  1  0  0  0  0
  6  9  1  0  0  0  0
  6 10  1  0  0  0  0
  7  2  1  0  0  0  0
  9 13  1  0  0  0  0
  9 12  1  0  0  0  0
 11  6  1  0  0  0  0
 14  9  1  0  0  0  0
M  END
$$$$
