14
butane_opt
C  -3.902268   0.255471   0.083183
C  -2.693363  -0.581257  -0.055206
H  -5.003705  -0.501358   0.515713
H  -3.956694   0.989627  -0.894096
H  -3.695241   0.759628   0.839261
C  -1.425298   0.202121  -0.044806
H  -2.827652  -1.510369  -1.009314
H  -2.713789  -1.040849   0.720293
C  -0.185684  -0.733424   0.111650
H  -1.433742   0.877887   0.767430
H  -1.464102   0.954298  -1.017230
H  -0.162015  -1.286387   0.977478
H   0.706969  -0.190187   0.150480
H   0.010702  -1.252244  -0.737115
