butane_opt
 OpenBabel08242015383D

 14 12  0  0  0  0  0  0  0  0999 V2000
   -4.0090    0.2781   -0.0146 C   0  0  0  0  0  0  0  0  0  0  0  0
   -2.6798   -0.6495    0.0516 C   0  0  0  0  0  0  0  0  0  0  0  0
   -4.9672   -0.3613    0.3233 H   0  0  0  0  0  0  0  0  0  0  0  0
   -4.1905    1.3435   -1.1239 H   0  0  0  0  0  0  0  0  0  0  0  0
   -3.8660    0.6916    0.6260 H   0  0  0  0  0  0  0  0  0  0  0  0
   -1.3622    0.1633    0.0968 C   0  0  0  0  0  0  0  0  0  0  0  0
   -2.6139   -1.4099   -0.8376 H   0  0  0  0  0  0  0  0  0  0  0  0
   -2.7293   -1.2532    0.9126 H   0  0  0  0  0  0  0  0  0  0  0  0
   -0.1272   -0.6678   -0.0202 C   0  0  0  0  0  0  0  0  0  0  0  0
   -1.4713    0.8707    0.9778 H   0  0  0  0  0  0  0  0  0  0  0  0
   -1.3223    0.9092   -0.8082 H   0  0  0  0  0  0  0  0  0  0  0  0
   -0.2059   -1.1565    0.8539 H   0  0  0  0  0  0  0  0  0  0  0  0
    0.7115   -0.1377    0.0424 H   0  0  0  0  0  0  0  0  0  0  0  0
   -0.2100   -1.4736   -0.9540 H   0  0  0  0  0  0  0  0  0  0  0  0
  1  2  1  0  0  0  0
  1  3  1  0  0  0  0
  1  5  1  0  0  0  0
  2  6  1  0  0  0  0
  2  8  1  0  0  0  0
  6 10  1  0  0  0  0
  7  2  1  0  0  0  0
  9 13  1  0  0  0  0
  9  6  1  0  0  0  0
  9 12  1  0  0  0  0
 11  6  1  0  0  0  0
 14  9  1  0  0  0  0
M  RAD  2   1   2   4   2
M  END
$$$$
