butane_opt
 OpenBabel08242015383D

 14 13  0  0  0  0  0  0  0  0999 V2000
   -3.9608    0.2712   -0.0127 C   0  0  0  0  0  0  0  0  0  0  0  0
   -2.7120   -0.6199    0.0812 C   0  0  0  0  0  0  0  0  0  0  0  0
   -4.8509   -0.2992   -0.0860 H   0  0  0  0  0  0  0  0  0  0  0  0
   -3.9049    0.8841   -0.9333 H   0  0  0  0  0  0  0  0  0  0  0  0
   -4.0308    0.9729    0.8508 H   0  0  0  0  0  0  0  0  0  0  0  0
   -1.3929    0.1752    0.0442 C   0  0  0  0  0  0  0  0  0  0  0  0
   -2.6740   -1.2700   -0.7279 H   0  0  0  0  0  0  0  0  0  0  0  0
   -2.7167   -1.3102    1.0098 H   0  0  0  0  0  0  0  0  0  0  0  0
   -0.1543   -0.6823    0.0039 C   0  0  0  0  0  0  0  0  0  0  0  0
   -1.3224    0.8087    0.8718 H   0  0  0  0  0  0  0  0  0  0  0  0
   -1.3989    0.8051   -0.8534 H   0  0  0  0  0  0  0  0  0  0  0  0
   -0.0909   -1.2372    0.8369 H   0  0  0  0  0  0  0  0  0  0  0  0
    0.7613   -0.0901   -0.0046 H   0  0  0  0  0  0  0  0  0  0  0  0
   -0.1623   -1.4586   -0.9296 H   0  0  0  0  0  0  0  0  0  0  0  0
  1  2  1  0  0  0  0
  1  5  1  0  0  0  0
  2  8  1  0  0  0  0
  3  1  1  0  0  0  0
  4  1  1  0  0  0  0
  6  2  1  0  0  0  0
  6 10  1  0  0  0  0
  7  2  1  0  0  0  0
  9  6  1  0  0  0  0
  9 12  1  0  0  0  0
 11  6  1  0  0  0  0
 13  9  1  0  0  0  0
 14  9  1  0  0  0  0
M  END
$$$$
