butane_opt
 OpenBabel08242015383D

 14 13  0  0  0  0  0  0  0  0999 V2000
   -3.9263    0.2306    0.1118 C   0  0  0  0  0  0  0  0  0  0  0  0
   -2.7463   -0.6188   -0.0996 C   0  0  0  0  0  0  0  0  0  0  0  0
   -4.8356   -0.3074    0.5086 H   0  0  0  0  0  0  0  0  0  0  0  0
   -4.3183    1.0152   -0.8593 H   0  0  0  0  0  0  0  0  0  0  0  0
   -3.8314    0.7437    0.9739 H   0  0  0  0  0  0  0  0  0  0  0  0
   -1.4298    0.2352   -0.0978 C   0  0  0  0  0  0  0  0  0  0  0  0
   -2.7331   -1.2793   -0.9899 H   0  0  0  0  0  0  0  0  0  0  0  0
   -2.7207   -1.1141    0.7255 H   0  0  0  0  0  0  0  0  0  0  0  0
   -0.0989   -0.7172    0.1537 C   0  0  0  0  0  0  0  0  0  0  0  0
   -1.5375    0.9664    0.8200 H   0  0  0  0  0  0  0  0  0  0  0  0
   -1.2927    0.8395   -0.9573 H   0  0  0  0  0  0  0  0  0  0  0  0
   -0.1279   -1.3486    1.0615 H   0  0  0  0  0  0  0  0  0  0  0  0
    0.7104   -0.1608    0.0590 H   0  0  0  0  0  0  0  0  0  0  0  0
    0.0995   -1.4017   -0.7434 H   0  0  0  0  0  0  0  0  0  0  0  0
  1  3  1  0  0  0  0
  1  5  1  0  0  0  0
  2  6  1  0  0  0  0
  2  1  1  0  0  0  0
  2  8  1  0  0  0  0
  4  1  1  0  0  0  0
  6  9  1  0  0  0  0
  6 10  1  0  0  0  0
  7  2  1  0  0  0  0
  9 12  1  0  0  0  0
 11  6  1  0  0  0  0
 13  9  1  0  0  0  0
 14  9  1  0  0  0  0
M  END
$$$$
