14
butane_opt
C  -3.959119   0.301891   0.083484
C  -2.691317  -0.676155  -0.065264
H  -4.790345  -0.218168   0.341145
H  -4.143301   1.203627  -0.938711
H  -3.966765   0.801848   0.880000
C  -1.396632   0.156040  -0.039264
H  -2.804385  -1.416267  -0.945345
H  -2.598030  -1.410903   0.883088
C  -0.138582  -0.641285   0.090760
H  -1.450108   0.857433   0.912064
H  -1.417470   0.742977  -0.871215
H  -0.366278  -1.248619   1.041487
H   0.853756  -0.085954   0.097520
H  -0.131353  -1.344495  -0.834980
