butane_opt
 OpenBabel08242015383D

 14 13  0  0  0  0  0  0  0  0999 V2000
   -3.9591    0.3019    0.0835 C   0  0  0  0  0  0  0  0  0  0  0  0
   -2.6913   -0.6762   -0.0653 C   0  0  0  0  0  0  0  0  0  0  0  0
   -4.7903   -0.2182    0.3411 H   0  0  0  0  0  0  0  0  0  0  0  0
   -4.1433    1.2036   -0.9387 H   0  0  0  0  0  0  0  0  0  0  0  0
   -3.9668    0.8018    0.8800 H   0  0  0  0  0  0  0  0  0  0  0  0
   -1.3966    0.1560   -0.0393 C   0  0  0  0  0  0  0  0  0  0  0  0
   -2.8044   -1.4163   -0.9453 H   0  0  0  0  0  0  0  0  0  0  0  0
   -2.5980   -1.4109    0.8831 H   0  0  0  0  0  0  0  0  0  0  0  0
   -0.1386   -0.6413    0.0908 C   0  0  0  0  0  0  0  0  0  0  0  0
   -1.4501    0.8574    0.9121 H   0  0  0  0  0  0  0  0  0  0  0  0
   -1.4175    0.7430   -0.8712 H   0  0  0  0  0  0  0  0  0  0  0  0
   -0.3663   -1.2486    1.0415 H   0  0  0  0  0  0  0  0  0  0  0  0
    0.8538   -0.0860    0.0975 H   0  0  0  0  0  0  0  0  0  0  0  0
   -0.1314   -1.3445   -0.8350 H   0  0  0  0  0  0  0  0  0  0  0  0
  1  3  1  0  0  0  0
  1  5  1  0  0  0  0
  2  6  1  0  0  0  0
  2  1  1  0  0  0  0
  2  8  1  0  0  0  0
  4  1  1  0  0  0  0
  6  9  1  0  0  0  0
  6 10  1  0  0  0  0
  7  2  1  0  0  0  0
  9 13  1  0  0  0  0
  9 12  1  0  0  0  0
 11  6  1  0  0  0  0
 14  9  1  0  0  0  0
M  END
$$$$
