14
butane_opt
C  -3.935373   0.239483  -0.018671
C  -2.670206  -0.574622   0.069985
H  -4.970913  -0.462047   0.144758
H  -3.903633   1.053469  -0.993449
H  -3.883230   0.784433   0.677875
C  -1.428866   0.199204   0.047849
H  -2.660941  -1.091126  -0.651072
H  -2.709779  -1.458877   1.062935
C  -0.189295  -0.725336   0.002339
H  -1.323926   0.892627   0.933922
H  -1.422982   0.857894  -0.813109
H  -0.205671  -0.931176   0.657890
H   0.782665  -0.070023   0.183236
H  -0.027078  -1.728712  -1.043441
