14
butane_opt
C  -3.976309   0.295044   0.121051
C  -2.726291  -0.621149  -0.028232
H  -4.844991  -0.279642   0.117039
H  -4.034898   0.934951  -0.870852
H  -3.949594   0.752472   0.939695
C  -1.384083   0.136044  -0.083573
H  -2.697941  -1.389012  -0.943684
H  -2.596089  -1.058406   0.688276
C  -0.145566  -0.672975   0.110863
H  -1.317728   0.791116   0.659698
H  -1.185405   0.847793  -1.062561
H  -0.305586  -1.221289   0.952436
H   0.709509  -0.129190   0.283457
H  -0.011637  -1.371663  -0.777016
