butane_opt
 OpenBabel08242015383D

 14 13  0  0  0  0  0  0  0  0999 V2000
   -3.9928    0.2897    0.0035 C   0  0  0  0  0  0  0  0  0  0  0  0
   -2.7012   -0.6457    0.0839 C   0  0  0  0  0  0  0  0  0  0  0  0
   -4.9053   -0.3534    0.0459 H   0  0  0  0  0  0  0  0  0  0  0  0
   -4.0553    1.0663   -0.9101 H   0  0  0  0  0  0  0  0  0  0  0  0
   -4.0744    0.8695    0.7983 H   0  0  0  0  0  0  0  0  0  0  0  0
   -1.3590    0.1620   -0.0284 C   0  0  0  0  0  0  0  0  0  0  0  0
   -2.9175   -1.1768   -0.7555 H   0  0  0  0  0  0  0  0  0  0  0  0
   -2.6100   -1.3286    1.0299 H   0  0  0  0  0  0  0  0  0  0  0  0
   -0.1404   -0.6925    0.0206 C   0  0  0  0  0  0  0  0  0  0  0  0
   -1.2689    0.9657    0.9336 H   0  0  0  0  0  0  0  0  0  0  0  0
   -1.3274    0.7726   -0.8658 H   0  0  0  0  0  0  0  0  0  0  0  0
   -0.3112   -1.0318    0.7859 H   0  0  0  0  0  0  0  0  0  0  0  0
    0.7718   -0.0021    0.3906 H   0  0  0  0  0  0  0  0  0  0  0  0
    0.0049   -1.6449   -1.0289 H   0  0  0  0  0  0  0  0  0  0  0  0
  1  3  1  0  0  0  0
  1  2  1  0  0  0  0
  1  5  1  0  0  0  0
  2  8  1  0  0  0  0
  4  1  1  0  0  0  0
  6  9  1  0  0  0  0
  6  2  1  0  0  0  0
  6 10  1  0  0  0  0
  7  2  1  0  0  0  0
  9 13  1  0  0  0  0
  9 12  1  0  0  0  0
 11  6  1  0  0  0  0
 14  9  1  0  0  0  0
M  END
$$$$
