butane_opt
 OpenBabel08242015383D

 14 13  0  0  0  0  0  0  0  0999 V2000
   -3.9183    0.2092    0.0836 C   0  0  0  0  0  0  0  0  0  0  0  0
   -2.6951   -0.5823   -0.0093 C   0  0  0  0  0  0  0  0  0  0  0  0
   -4.7351   -0.3182    0.0729 H   0  0  0  0  0  0  0  0  0  0  0  0
   -4.0441    0.9502   -0.8353 H   0  0  0  0  0  0  0  0  0  0  0  0
   -3.8560    1.0490    1.0224 H   0  0  0  0  0  0  0  0  0  0  0  0
   -1.4228    0.2047   -0.0821 C   0  0  0  0  0  0  0  0  0  0  0  0
   -2.7095   -1.2013   -0.8692 H   0  0  0  0  0  0  0  0  0  0  0  0
   -2.6699   -1.3564    0.9418 H   0  0  0  0  0  0  0  0  0  0  0  0
   -0.1740   -0.7198    0.0821 C   0  0  0  0  0  0  0  0  0  0  0  0
   -1.3799    0.8650    0.7914 H   0  0  0  0  0  0  0  0  0  0  0  0
   -1.4919    0.9031   -1.0653 H   0  0  0  0  0  0  0  0  0  0  0  0
   -0.4177   -1.1431    0.8815 H   0  0  0  0  0  0  0  0  0  0  0  0
    0.6963   -0.0960    0.4709 H   0  0  0  0  0  0  0  0  0  0  0  0
    0.1262   -1.4747   -0.8674 H   0  0  0  0  0  0  0  0  0  0  0  0
  1  5  1  0  0  0  0
  2  1  1  0  0  0  0
  2  8  1  0  0  0  0
  3  1  1  0  0  0  0
  4  1  1  0  0  0  0
  6  2  1  0  0  0  0
  6  9  1  0  0  0  0
  6 10  1  0  0  0  0
  7  2  1  0  0  0  0
  9 13  1  0  0  0  0
  9 12  1  0  0  0  0
 11  6  1  0  0  0  0
 14  9  1  0  0  0  0
M  END
$$$$
