14
butane_opt
C  -3.927014   0.288651  -0.099001
C  -2.699661  -0.630444   0.153703
H  -4.814072  -0.279479  -0.072081
H  -3.878168   0.964787  -1.035608
H  -4.287796   0.925353   0.726276
C  -1.388657   0.134847   0.143084
H  -2.582835  -1.368731  -0.719536
H  -2.758138  -1.179199   1.055703
C  -0.183365  -0.684232  -0.077252
H  -1.132203   0.988335   1.172775
H  -1.507680   0.741608  -0.754136
H  -0.069446  -1.406647   0.820928
H   0.881330   0.062991  -0.363764
H  -0.480099  -1.211413  -0.807540
