butane_opt
 OpenBabel08242015383D

 14 13  0  0  0  0  0  0  0  0999 V2000
   -3.9354    0.2395   -0.0187 C   0  0  0  0  0  0  0  0  0  0  0  0
   -2.6702   -0.5746    0.0700 C   0  0  0  0  0  0  0  0  0  0  0  0
   -4.9709   -0.4620    0.1448 H   0  0  0  0  0  0  0  0  0  0  0  0
   -3.9036    1.0535   -0.9934 H   0  0  0  0  0  0  0  0  0  0  0  0
   -3.8832    0.7844    0.6779 H   0  0  0  0  0  0  0  0  0  0  0  0
   -1.4289    0.1992    0.0478 C   0  0  0  0  0  0  0  0  0  0  0  0
   -2.6609   -1.0911   -0.6511 H   0  0  0  0  0  0  0  0  0  0  0  0
   -2.7098   -1.4589    1.0629 H   0  0  0  0  0  0  0  0  0  0  0  0
   -0.1893   -0.7253    0.0023 C   0  0  0  0  0  0  0  0  0  0  0  0
   -1.3239    0.8926    0.9339 H   0  0  0  0  0  0  0  0  0  0  0  0
   -1.4230    0.8579   -0.8131 H   0  0  0  0  0  0  0  0  0  0  0  0
   -0.2057   -0.9312    0.6579 H   0  0  0  0  0  0  0  0  0  0  0  0
    0.7827   -0.0700    0.1832 H   0  0  0  0  0  0  0  0  0  0  0  0
   -0.0271   -1.7287   -1.0434 H   0  0  0  0  0  0  0  0  0  0  0  0
  1  2  1  0  0  0  0
  1  3  1  0  0  0  0
  1  5  1  0  0  0  0
  2  8  1  0  0  0  0
  4  1  1  0  0  0  0
  6  2  1  0  0  0  0
  6 10  1  0  0  0  0
  7  2  1  0  0  0  0
  9  6  1  0  0  0  0
  9 13  1  0  0  0  0
  9 12  1  0  0  0  0
 11  6  1  0  0  0  0
 14  9  1  0  0  0  0
M  END
$$$$
