butane_opt
 OpenBabel08242015383D

 14 13  0  0  0  0  0  0  0  0999 V2000
   -3.9374    0.3017    0.1063 C   0  0  0  0  0  0  0  0  0  0  0  0
   -2.6748   -0.6503   -0.0406 C   0  0  0  0  0  0  0  0  0  0  0  0
   -4.8093   -0.2664    0.2724 H   0  0  0  0  0  0  0  0  0  0  0  0
   -3.9896    0.8673   -0.7710 H   0  0  0  0  0  0  0  0  0  0  0  0
   -3.9110    1.0300    1.0007 H   0  0  0  0  0  0  0  0  0  0  0  0
   -1.4343    0.1248   -0.1218 C   0  0  0  0  0  0  0  0  0  0  0  0
   -2.7378   -1.4427   -0.9062 H   0  0  0  0  0  0  0  0  0  0  0  0
   -2.5208   -1.1619    0.7752 H   0  0  0  0  0  0  0  0  0  0  0  0
   -0.1573   -0.6675    0.1207 C   0  0  0  0  0  0  0  0  0  0  0  0
   -1.3153    0.6742    0.7082 H   0  0  0  0  0  0  0  0  0  0  0  0
   -1.4716    0.8693   -1.0936 H   0  0  0  0  0  0  0  0  0  0  0  0
   -0.5854   -1.0498    0.9707 H   0  0  0  0  0  0  0  0  0  0  0  0
    0.8104    0.0990    0.4280 H   0  0  0  0  0  0  0  0  0  0  0  0
   -0.0617   -1.3823   -0.7127 H   0  0  0  0  0  0  0  0  0  0  0  0
  1  3  1  0  0  0  0
  1  5  1  0  0  0  0
  2  1  1  0  0  0  0
  2  8  1  0  0  0  0
  4  1  1  0  0  0  0
  6  2  1  0  0  0  0
  6  9  1  0  0  0  0
  6 10  1  0  0  0  0
  7  2  1  0  0  0  0
  9 13  1  0  0  0  0
  9 12  1  0  0  0  0
 11  6  1  0  0  0  0
 14  9  1  0  0  0  0
M  END
$$$$
