butane_opt
 OpenBabel08242015383D

 14 12  0  0  0  0  0  0  0  0999 V2000
   -3.9552    0.2518    0.1099 C   0  0  0  0  0  0  0  0  0  0  0  0
   -2.7227   -0.5983   -0.0654 C   0  0  0  0  0  0  0  0  0  0  0  0
   -4.8917   -0.3731   -0.1824 H   0  0  0  0  0  0  0  0  0  0  0  0
   -3.8960    0.6230   -0.6107 H   0  0  0  0  0  0  0  0  0  0  0  0
   -3.9152    0.9226    1.0552 H   0  0  0  0  0  0  0  0  0  0  0  0
   -1.4207    0.2476   -0.0572 C   0  0  0  0  0  0  0  0  0  0  0  0
   -2.8767   -1.4174   -0.9517 H   0  0  0  0  0  0  0  0  0  0  0  0
   -2.7548   -1.1779    0.7482 H   0  0  0  0  0  0  0  0  0  0  0  0
   -0.1019   -0.7168    0.1010 C   0  0  0  0  0  0  0  0  0  0  0  0
   -1.5275    1.0320    0.8294 H   0  0  0  0  0  0  0  0  0  0  0  0
   -1.3142    0.8138   -0.9462 H   0  0  0  0  0  0  0  0  0  0  0  0
    0.0449   -1.8330    1.3542 H   0  0  0  0  0  0  0  0  0  0  0  0
    0.6280   -0.2551   -0.3625 H   0  0  0  0  0  0  0  0  0  0  0  0
   -0.1222   -1.0259   -0.5183 H   0  0  0  0  0  0  0  0  0  0  0  0
  1  5  1  0  0  0  0
  2  6  1  0  0  0  0
  2  1  1  0  0  0  0
  2  8  1  0  0  0  0
  3  1  1  0  0  0  0
  4  1  1  0  0  0  0
  6  9  1  0  0  0  0
  6 10  1  0  0  0  0
  7  2  1  0  0  0  0
 11  6  1  0  0  0  0
 13  9  1  0  0  0  0
 14  9  1  0  0  0  0
M  RAD  2   9   2  12   2
M  END
$$$$
