14
butane_opt
C  -3.967947   0.263889  -0.008350
C  -2.701213  -0.623557   0.070618
H  -4.880355  -0.257041   0.006104
H  -3.899245   0.975331  -0.900710
H  -3.922754   0.820314   0.801155
C  -1.393437   0.179563   0.010655
H  -2.806382  -1.146230  -0.597472
H  -2.766215  -1.400855   1.079139
C  -0.151039  -0.682176   0.024084
H  -1.288010   0.907369   0.921652
H  -1.363579   0.892649  -0.954065
H  -0.149938  -0.972905   0.646979
H   0.598177  -0.199916   0.276328
H   0.002953  -1.764576  -1.063817
