butane_opt
 OpenBabel08242015383D

 14 12  0  0  0  0  0  0  0  0999 V2000
   -3.9312    0.2408   -0.0564 C   0  0  0  0  0  0  0  0  0  0  0  0
   -2.6868   -0.5571    0.1082 C   0  0  0  0  0  0  0  0  0  0  0  0
   -4.9712   -0.5309    0.3007 H   0  0  0  0  0  0  0  0  0  0  0  0
   -3.9341    1.2083   -1.2580 H   0  0  0  0  0  0  0  0  0  0  0  0
   -3.8042    0.4566    0.5729 H   0  0  0  0  0  0  0  0  0  0  0  0
   -1.4021    0.2016    0.1253 C   0  0  0  0  0  0  0  0  0  0  0  0
   -2.7331   -1.0655   -0.6484 H   0  0  0  0  0  0  0  0  0  0  0  0
   -2.8309   -1.1831    0.9607 H   0  0  0  0  0  0  0  0  0  0  0  0
   -0.1912   -0.7328   -0.0649 C   0  0  0  0  0  0  0  0  0  0  0  0
   -1.5069    0.9260    1.0523 H   0  0  0  0  0  0  0  0  0  0  0  0
   -1.2930    0.8179   -0.7641 H   0  0  0  0  0  0  0  0  0  0  0  0
    0.0323   -1.0973    0.6629 H   0  0  0  0  0  0  0  0  0  0  0  0
    0.7142   -0.1244    0.2140 H   0  0  0  0  0  0  0  0  0  0  0  0
   -0.1543   -1.7222   -1.0766 H   0  0  0  0  0  0  0  0  0  0  0  0
  1  2  1  0  0  0  0
  1  3  1  0  0  0  0
  1  5  1  0  0  0  0
  2  6  1  0  0  0  0
  2  8  1  0  0  0  0
  6 10  1  0  0  0  0
  7  2  1  0  0  0  0
  9  6  1  0  0  0  0
  9 13  1  0  0  0  0
  9 12  1  0  0  0  0
 11  6  1  0  0  0  0
 14  9  1  0  0  0  0
M  RAD  2   1   2   4   2
M  END
$$$$
