butane_opt
 OpenBabel08242015383D

 14 12  0  0  0  0  0  0  0  0999 V2000
   -3.9608    0.2243   -0.0384 C   0  0  0  0  0  0  0  0  0  0  0  0
   -2.7205   -0.5814    0.1154 C   0  0  0  0  0  0  0  0  0  0  0  0
   -4.8544   -0.4185    0.0583 H   0  0  0  0  0  0  0  0  0  0  0  0
   -4.0055    1.0021   -0.9865 H   0  0  0  0  0  0  0  0  0  0  0  0
   -3.9578    0.7746    0.8065 H   0  0  0  0  0  0  0  0  0  0  0  0
   -1.4048    0.2653    0.0328 C   0  0  0  0  0  0  0  0  0  0  0  0
   -2.7140   -1.2203   -0.6772 H   0  0  0  0  0  0  0  0  0  0  0  0
   -2.6637   -1.4791    1.1034 H   0  0  0  0  0  0  0  0  0  0  0  0
   -0.1339   -0.7311   -0.0074 C   0  0  0  0  0  0  0  0  0  0  0  0
   -1.4343    0.8707    0.8290 H   0  0  0  0  0  0  0  0  0  0  0  0
   -1.3186    0.9140   -0.8681 H   0  0  0  0  0  0  0  0  0  0  0  0
   -0.0945   -0.9577    0.6775 H   0  0  0  0  0  0  0  0  0  0  0  0
    0.7004   -0.2326    0.4111 H   0  0  0  0  0  0  0  0  0  0  0  0
   -0.0142   -1.8658   -1.2126 H   0  0  0  0  0  0  0  0  0  0  0  0
  1  3  1  0  0  0  0
  1  2  1  0  0  0  0
  1  5  1  0  0  0  0
  2  8  1  0  0  0  0
  4  1  1  0  0  0  0
  6  2  1  0  0  0  0
  6 10  1  0  0  0  0
  7  2  1  0  0  0  0
  9  6  1  0  0  0  0
  9 13  1  0  0  0  0
  9 12  1  0  0  0  0
 11  6  1  0  0  0  0
M  RAD  2   9   2  14   2
M  END
$$$$
