butane_opt
 OpenBabel08242015383D

 14 13  0  0  0  0  0  0  0  0999 V2000
   -3.8969    0.2305    0.0482 C   0  0  0  0  0  0  0  0  0  0  0  0
   -2.6867   -0.5746    0.0683 C   0  0  0  0  0  0  0  0  0  0  0  0
   -4.8789   -0.3770   -0.4184 H   0  0  0  0  0  0  0  0  0  0  0  0
   -3.6156    0.5973   -0.7176 H   0  0  0  0  0  0  0  0  0  0  0  0
   -4.1336    1.1957    1.1387 H   0  0  0  0  0  0  0  0  0  0  0  0
   -1.4392    0.2042   -0.0669 C   0  0  0  0  0  0  0  0  0  0  0  0
   -2.7448   -1.3467   -0.7809 H   0  0  0  0  0  0  0  0  0  0  0  0
   -2.7435   -1.2920    1.0106 H   0  0  0  0  0  0  0  0  0  0  0  0
   -0.1827   -0.6856    0.0454 C   0  0  0  0  0  0  0  0  0  0  0  0
   -1.5147    0.9228    0.7676 H   0  0  0  0  0  0  0  0  0  0  0  0
   -1.5100    0.7994   -0.9631 H   0  0  0  0  0  0  0  0  0  0  0  0
   -0.0523   -1.4828    1.0313 H   0  0  0  0  0  0  0  0  0  0  0  0
    0.6913   -0.1916    0.0826 H   0  0  0  0  0  0  0  0  0  0  0  0
   -0.0672   -1.3921   -0.8038 H   0  0  0  0  0  0  0  0  0  0  0  0
  1  2  1  0  0  0  0
  1  5  1  0  0  0  0
  2  8  1  0  0  0  0
  3  1  1  0  0  0  0
  4  1  1  0  0  0  0
  6  9  1  0  0  0  0
  6  2  1  0  0  0  0
  6 10  1  0  0  0  0
  7  2  1  0  0  0  0
  9 13  1  0  0  0  0
  9 12  1  0  0  0  0
 11  6  1  0  0  0  0
 14  9  1  0  0  0  0
M  END
$$$$
