butane_opt
 OpenBabel08242015383D

 14 11  0  0  0  0  0  0  0  0999 V2000
   -3.9118    0.2223   -0.0517 C   0  0  0  0  0  0  0  0  0  0  0  0
   -2.7161   -0.5474    0.1382 C   0  0  0  0  0  0  0  0  0  0  0  0
   -4.7701   -0.4121    0.1469 H   0  0  0  0  0  0  0  0  0  0  0  0
   -3.7628    1.0405   -1.0690 H   0  0  0  0  0  0  0  0  0  0  0  0
   -4.0617    0.6082    0.5947 H   0  0  0  0  0  0  0  0  0  0  0  0
   -1.4312    0.2031    0.0733 C   0  0  0  0  0  0  0  0  0  0  0  0
   -2.6025   -1.0907   -0.6255 H   0  0  0  0  0  0  0  0  0  0  0  0
   -2.8699   -1.2161    1.1186 H   0  0  0  0  0  0  0  0  0  0  0  0
   -0.1487   -0.7369   -0.0450 C   0  0  0  0  0  0  0  0  0  0  0  0
   -1.3935    0.8316    0.9278 H   0  0  0  0  0  0  0  0  0  0  0  0
   -1.3815    0.9160   -0.7870 H   0  0  0  0  0  0  0  0  0  0  0  0
   -0.2229   -0.8616    0.5332 H   0  0  0  0  0  0  0  0  0  0  0  0
    0.7377   -0.1746    0.3513 H   0  0  0  0  0  0  0  0  0  0  0  0
   -0.1671   -1.8371   -1.1860 H   0  0  0  0  0  0  0  0  0  0  0  0
  1  2  1  0  0  0  0
  1  3  1  0  0  0  0
  1  5  1  0  0  0  0
  2  8  1  0  0  0  0
  4  1  1  0  0  0  0
  6  2  1  0  0  0  0
  6 10  1  0  0  0  0
  7  2  1  0  0  0  0
  9  6  1  0  0  0  0
  9 13  1  0  0  0  0
 11  6  1  0  0  0  0
M  RAD  3   9   3  12   2  14   2
M  END
$$$$
