14
butane_opt
C  -3.975937   0.287013  -0.024080
C  -2.716609  -0.635778   0.077482
H  -4.804784  -0.221480   0.303179
H  -4.137613   1.322483  -1.257630
H  -3.989865   0.524035   0.617876
C  -1.398574   0.127160   0.081568
H  -2.789454  -1.378701  -0.759917
H  -2.563554  -1.213269   0.938293
C  -0.116991  -0.653589  -0.010874
H  -1.360769   0.943352   0.976219
H  -1.424967   0.727791  -0.757178
H  -0.139011  -1.098237   0.744500
H   0.838634  -0.004561   0.133961
H  -0.173409  -1.547874  -1.068011
