14
butane_opt
C  -3.998410   0.282963   0.071752
C  -2.664606  -0.623803   0.003715
H  -4.899325  -0.313194  -0.292572
H  -3.851117   0.482689  -0.495786
H  -4.224384   1.317399   1.169485
C  -1.389996   0.143009  -0.061076
H  -2.823179  -1.457199  -0.907714
H  -2.643714  -1.188172   0.787559
C  -0.129717  -0.663498   0.081643
H  -1.276818   0.698385   0.723696
H  -1.420018   1.052671  -1.115562
H  -0.252271  -1.547883   1.161483
H   0.695371  -0.103536  -0.060166
H  -0.132219  -1.093525  -0.604314
