14
butane_opt
C  -3.943548   0.290717   0.100794
C  -2.634919  -0.652031  -0.053937
H  -4.831989  -0.265331   0.203428
H  -4.067172   0.901382  -0.821727
H  -3.857999   0.910540   0.893388
C  -1.408857   0.164263  -0.093085
H  -2.782000  -1.314725  -0.931262
H  -2.491314  -1.277453   0.845215
C  -0.240912  -0.682819   0.125939
H  -1.316778   0.874615   0.795833
H  -1.337283   0.709542  -0.869532
H  -0.318227  -1.168703   1.004004
H   0.733258  -0.017105   0.065949
H  -0.023344  -1.259745  -0.725029
