butane_opt
 OpenBabel08242015383D

 14 12  0  0  0  0  0  0  0  0999 V2000
   -3.9462    0.2453    0.0865 C   0  0  0  0  0  0  0  0  0  0  0  0
   -2.7397   -0.6197   -0.0158 C   0  0  0  0  0  0  0  0  0  0  0  0
   -4.8548   -0.3103   -0.3119 H   0  0  0  0  0  0  0  0  0  0  0  0
   -3.8361    0.5312   -0.6182 H   0  0  0  0  0  0  0  0  0  0  0  0
   -4.0383    1.3219    1.2045 H   0  0  0  0  0  0  0  0  0  0  0  0
   -1.4097    0.2466   -0.0758 C   0  0  0  0  0  0  0  0  0  0  0  0
   -2.9301   -1.2728   -0.7605 H   0  0  0  0  0  0  0  0  0  0  0  0
   -2.6690   -1.2425    0.8825 H   0  0  0  0  0  0  0  0  0  0  0  0
   -0.1342   -0.7409    0.1023 C   0  0  0  0  0  0  0  0  0  0  0  0
   -1.4457    0.6978    0.6128 H   0  0  0  0  0  0  0  0  0  0  0  0
   -1.2198    0.9871   -1.0582 H   0  0  0  0  0  0  0  0  0  0  0  0
   -0.0793   -1.2930    1.0054 H   0  0  0  0  0  0  0  0  0  0  0  0
    0.7654   -0.2036   -0.0262 H   0  0  0  0  0  0  0  0  0  0  0  0
    0.0459   -1.2651   -0.6423 H   0  0  0  0  0  0  0  0  0  0  0  0
  2  1  1  0  0  0  0
  2  8  1  0  0  0  0
  3  1  1  0  0  0  0
  4  1  1  0  0  0  0
  6  2  1  0  0  0  0
  6  9  1  0  0  0  0
  6 10  1  0  0  0  0
  7  2  1  0  0  0  0
  9 12  1  0  0  0  0
 11  6  1  0  0  0  0
 13  9  1  0  0  0  0
 14  9  1  0  0  0  0
M  RAD  2   1   2   5   2
M  END
$$$$
