14
butane_opt
C  -3.983735   0.224521   0.100076
C  -2.716962  -0.578988  -0.047951
H  -4.781377  -0.198728   0.226743
H  -4.175531   0.735481  -0.747378
H  -3.799645   0.937044   1.032795
C  -1.399800   0.198868  -0.086517
H  -2.819139  -1.365242  -0.934685
H  -2.627595  -1.178418   0.856098
C  -0.116128  -0.705475   0.115764
H  -1.510149   0.695583   0.600625
H  -1.338281   1.158054  -1.163255
H  -0.373624  -1.161905   0.929861
H   0.805910  -0.150679   0.422348
H   0.196331  -1.610895  -0.788219
