14
butane_opt
C  -3.914713   0.315256  -0.071200
C  -2.684612  -0.673294   0.115130
H  -4.921074  -0.346117  -0.182658
H  -3.911556   1.044144  -1.011302
H  -4.073654   0.996178   0.712046
C  -1.378009   0.157023   0.134974
H  -2.612869  -1.394978  -0.714784
H  -2.769580  -1.377823   1.101545
C  -0.212356  -0.659998  -0.078363
H  -1.124147   0.956175   1.159602
H  -1.620949   0.639663  -0.639265
H  -0.055538  -1.482579   1.017020
H   0.715417  -0.058104  -0.350314
H  -0.382072  -1.106724  -0.835993
