14
butane_opt
C  -3.946325   0.230232   0.112921
C  -2.677748  -0.587140  -0.051713
H  -4.774774  -0.277853  -0.192395
H  -3.920012   0.541391  -0.638248
H  -3.902178   1.162098   1.121268
C  -1.434530   0.213930  -0.094667
H  -2.802318  -1.259338  -0.915364
H  -2.544683  -1.235071   0.825076
C  -0.174389  -0.692557   0.127176
H  -1.403421   0.826004   0.735214
H  -1.335378   0.758645  -1.046992
H  -0.128186  -1.557404   1.136618
H   0.674247  -0.199884  -0.117188
H  -0.092350  -1.189726  -0.555018
