butane_opt
 OpenBabel08242015383D

 14 13  0  0  0  0  0  0  0  0999 V2000
   -3.9837    0.2245    0.1001 C   0  0  0  0  0  0  0  0  0  0  0  0
   -2.7170   -0.5790   -0.0480 C   0  0  0  0  0  0  0  0  0  0  0  0
   -4.7814   -0.1987    0.2267 H   0  0  0  0  0  0  0  0  0  0  0  0
   -4.1755    0.7355   -0.7474 H   0  0  0  0  0  0  0  0  0  0  0  0
   -3.7996    0.9370    1.0328 H   0  0  0  0  0  0  0  0  0  0  0  0
   -1.3998    0.1989   -0.0865 C   0  0  0  0  0  0  0  0  0  0  0  0
   -2.8191   -1.3652   -0.9347 H   0  0  0  0  0  0  0  0  0  0  0  0
   -2.6276   -1.1784    0.8561 H   0  0  0  0  0  0  0  0  0  0  0  0
   -0.1161   -0.7055    0.1158 C   0  0  0  0  0  0  0  0  0  0  0  0
   -1.5101    0.6956    0.6006 H   0  0  0  0  0  0  0  0  0  0  0  0
   -1.3383    1.1581   -1.1633 H   0  0  0  0  0  0  0  0  0  0  0  0
   -0.3736   -1.1619    0.9299 H   0  0  0  0  0  0  0  0  0  0  0  0
    0.8059   -0.1507    0.4223 H   0  0  0  0  0  0  0  0  0  0  0  0
    0.1963   -1.6109   -0.7882 H   0  0  0  0  0  0  0  0  0  0  0  0
  1  3  1  0  0  0  0
  1  5  1  0  0  0  0
  2  1  1  0  0  0  0
  2  8  1  0  0  0  0
  4  1  1  0  0  0  0
  6  2  1  0  0  0  0
  6  9  1  0  0  0  0
  6 10  1  0  0  0  0
  7  2  1  0  0  0  0
  9 13  1  0  0  0  0
  9 12  1  0  0  0  0
 11  6  1  0  0  0  0
 14  9  1  0  0  0  0
M  END
$$$$
