butane_opt
 OpenBabel08242015383D

 14 13  0  0  0  0  0  0  0  0999 V2000
   -3.9369    0.2635    0.0649 C   0  0  0  0  0  0  0  0  0  0  0  0
   -2.6855   -0.6091    0.0171 C   0  0  0  0  0  0  0  0  0  0  0  0
   -4.9935   -0.5116    0.0112 H   0  0  0  0  0  0  0  0  0  0  0  0
   -4.0255    0.7659   -0.7132 H   0  0  0  0  0  0  0  0  0  0  0  0
   -3.7463    0.9743    0.9473 H   0  0  0  0  0  0  0  0  0  0  0  0
   -1.4407    0.2048   -0.0789 C   0  0  0  0  0  0  0  0  0  0  0  0
   -2.6850   -1.2652   -0.7991 H   0  0  0  0  0  0  0  0  0  0  0  0
   -2.7248   -1.1313    0.8956 H   0  0  0  0  0  0  0  0  0  0  0  0
   -0.1567   -0.7013    0.1089 C   0  0  0  0  0  0  0  0  0  0  0  0
   -1.3938    0.7038    0.6771 H   0  0  0  0  0  0  0  0  0  0  0  0
   -1.4264    1.0009   -1.1337 H   0  0  0  0  0  0  0  0  0  0  0  0
   -0.2435   -1.1322    0.8232 H   0  0  0  0  0  0  0  0  0  0  0  0
    0.7972   -0.1196    0.3525 H   0  0  0  0  0  0  0  0  0  0  0  0
    0.0503   -1.6789   -0.9822 H   0  0  0  0  0  0  0  0  0  0  0  0
  1  5  1  0  0  0  0
  2  1  1  0  0  0  0
  2  8  1  0  0  0  0
  3  1  1  0  0  0  0
  4  1  1  0  0  0  0
  6  2  1  0  0  0  0
  6  9  1  0  0  0  0
  6 10  1  0  0  0  0
  7  2  1  0  0  0  0
  9 13  1  0  0  0  0
  9 12  1  0  0  0  0
 11  6  1  0  0  0  0
 14  9  1  0  0  0  0
M  END
$$$$
