14
butane_opt
C  -3.961601   0.280362  -0.085208
C  -2.628344  -0.656900   0.161119
H  -4.771285  -0.259370  -0.213738
H  -3.900140   1.114924  -1.162549
H  -4.125519   0.908738   0.604186
C  -1.405070   0.129276   0.157206
H  -2.705832  -1.354993  -0.689189
H  -2.599442  -1.251001   0.963893
C  -0.212521  -0.638719  -0.072561
H  -1.220457   0.967609   1.191590
H  -1.421015   0.731908  -0.657823
H   0.055145  -1.409349   0.917889
H   0.651760  -0.025352  -0.451824
H  -0.510504  -1.259671  -1.013592
