14
butane_opt
C  -3.948045   0.226835  -0.049795
C  -2.743098  -0.586316   0.099536
H  -4.903339  -0.388460   0.061672
H  -3.866123   0.897411  -0.979627
H  -4.113910   0.931061   0.774066
C  -1.406532   0.209142   0.069237
H  -2.803089  -1.200240  -0.690362
H  -2.829452  -1.170838   1.041370
C  -0.103132  -0.717461  -0.007023
H  -1.379860   0.888965   0.926047
H  -1.584564   0.899271  -0.813486
H   0.189345  -1.194198   0.796971
H   0.789150  -0.157341  -0.072169
H  -0.112933  -1.580669  -0.950404
