14
butane_opt
C  -3.970875   0.293064   0.120783
C  -2.646862  -0.642713  -0.026642
H  -4.804130  -0.229712   0.060341
H  -4.058059   0.866946  -0.702249
H  -3.774317   1.017126   0.963757
C  -1.389636   0.118660  -0.155776
H  -2.856896  -1.263089  -0.826251
H  -2.543031  -1.256297   0.788543
C  -0.198400  -0.673334   0.133926
H  -1.373853   0.894557   0.716854
H  -1.408404   0.767262  -1.096961
H  -0.595236  -1.018643   0.934649
H   0.821889   0.040448   0.495282
H   0.011287  -1.435586  -0.787960
