14
butane_opt
C  -3.917346   0.296189   0.100413
C  -2.651251  -0.654083  -0.038234
H  -4.824096  -0.282488   0.190328
H  -4.105108   0.655205  -0.570094
H  -3.946934   1.181801   1.108674
C  -1.393872   0.142478  -0.154949
H  -2.805858  -1.269080  -0.853178
H  -2.536073  -1.239679   0.786511
C  -0.237232  -0.669012   0.135542
H  -1.364348   0.774637   0.688652
H  -1.261603   0.874646  -1.122075
H  -0.510250  -1.165508   1.022144
H   0.654622  -0.066017   0.478373
H   0.074205  -1.347647  -0.782683
