butane_opt
 OpenBabel08242015383D

 14 13  0  0  0  0  0  0  0  0999 V2000
   -3.9933    0.3126   -0.0546 C   0  0  0  0  0  0  0  0  0  0  0  0
   -2.7029   -0.6709    0.1539 C   0  0  0  0  0  0  0  0  0  0  0  0
   -4.7567   -0.1798   -0.4522 H   0  0  0  0  0  0  0  0  0  0  0  0
   -3.6543    0.7581   -0.8497 H   0  0  0  0  0  0  0  0  0  0  0  0
   -4.2891    1.0491    0.8595 H   0  0  0  0  0  0  0  0  0  0  0  0
   -1.3598    0.1621    0.0948 C   0  0  0  0  0  0  0  0  0  0  0  0
   -2.7093   -1.3352   -0.6874 H   0  0  0  0  0  0  0  0  0  0  0  0
   -2.5455   -1.3762    1.1063 H   0  0  0  0  0  0  0  0  0  0  0  0
   -0.1827   -0.6646   -0.0487 C   0  0  0  0  0  0  0  0  0  0  0  0
   -1.2106    0.8064    0.9292 H   0  0  0  0  0  0  0  0  0  0  0  0
   -1.3565    0.8172   -0.9197 H   0  0  0  0  0  0  0  0  0  0  0  0
   -0.1485   -1.2516    0.7875 H   0  0  0  0  0  0  0  0  0  0  0  0
    0.7416   -0.0133   -0.1736 H   0  0  0  0  0  0  0  0  0  0  0  0
   -0.2601   -1.3957   -0.9102 H   0  0  0  0  0  0  0  0  0  0  0  0
  1  2  1  0  0  0  0
  1  5  1  0  0  0  0
  2  8  1  0  0  0  0
  3  1  1  0  0  0  0
  4  1  1  0  0  0  0
  6  2  1  0  0  0  0
  6 10  1  0  0  0  0
  7  2  1  0  0  0  0
  9  6  1  0  0  0  0
  9 12  1  0  0  0  0
 11  6  1  0  0  0  0
 13  9  1  0  0  0  0
 14  9  1  0  0  0  0
M  END
$$$$
