14
butane_opt
C  -3.937274   0.280898  -0.026190
C  -2.672642  -0.656006   0.130061
H  -4.668131  -0.197642   0.094299
H  -3.903267   1.062311  -1.054321
H  -3.999643   0.860806   0.677179
C  -1.406348   0.183609   0.042351
H  -2.679394  -1.292942  -0.603531
H  -2.717099  -1.268273   0.997260
C  -0.213759  -0.677887  -0.031371
H  -1.328400   0.747473   0.817792
H  -1.302721   0.807175  -0.849114
H  -0.538720  -0.947247   0.680155
H   0.862623   0.004104   0.389889
H  -0.013874  -1.787734  -1.155193
