14
butane_opt
C  -3.888860   0.250654  -0.016256
C  -2.691270  -0.599239   0.055794
H  -4.777560  -0.261683   0.309691
H  -3.931878   0.936416  -0.891622
H  -3.874735   0.732527   0.731292
C  -1.447625   0.197603   0.036194
H  -2.733445  -1.278279  -0.745154
H  -2.791519  -1.356031   1.029972
C  -0.186085  -0.701772   0.013879
H  -1.391738   0.840364   0.842132
H  -1.520522   0.948101  -0.963771
H  -0.211514  -1.033067   0.698395
H   0.725734  -0.073432   0.347430
H   0.022835  -1.687691  -1.018769
