14
butane_opt
C  -3.931053   0.277028  -0.058258
C  -2.697390  -0.620530   0.151918
H  -4.807842  -0.284633  -0.413126
H  -3.746088   0.821060  -0.877712
H  -4.238069   1.197204   0.966859
C  -1.386265   0.127519   0.039243
H  -2.727302  -1.107634  -0.572263
H  -2.621365  -1.411122   1.186284
C  -0.201971  -0.685526  -0.032223
H  -1.281200   0.970698   1.018523
H  -1.479458   0.658219  -0.855565
H  -0.243462  -1.134026   0.806824
H   0.940390   0.080735  -0.059112
H  -0.231979  -1.432775  -0.980951
