14
butane_opt
C  -3.889040   0.230092  -0.073461
C  -2.703524  -0.592393   0.144864
H  -4.962675  -0.405422  -0.242830
H  -3.794791   0.991117  -1.089296
H  -4.050131   0.794099   0.690866
C  -1.449246   0.210296   0.165332
H  -2.441700  -1.297185  -0.661190
H  -2.857523  -1.184828   0.988402
C  -0.178600  -0.706143  -0.098970
H  -1.259222   1.094713   1.134770
H  -1.562409   0.799954  -0.711322
H   0.132529  -1.559950   0.960732
H   0.675543  -0.179157  -0.405450
H  -0.246221  -1.253500  -0.860911
