14
butane_opt
C  -3.915896   0.249110  -0.028641
C  -2.767731  -0.607743   0.103425
H  -4.846102  -0.325287   0.218761
H  -3.849585   1.080730  -1.076404
H  -4.118053   0.639002   0.473580
C  -1.409010   0.239329   0.047379
H  -2.762873  -1.127574  -0.553911
H  -2.784651  -1.401159   1.138317
C  -0.116315  -0.739690  -0.040829
H  -1.326248   1.103480   1.010753
H  -1.469506   0.703678  -0.688454
H  -0.185479  -0.984979   0.611341
H   0.779207  -0.155007   0.373230
H   0.054742  -1.717509  -1.095484
