14
butane_opt
C  -3.915011   0.225459   0.057475
C  -2.696441  -0.568759   0.034659
H  -4.956302  -0.401767  -0.329860
H  -3.672930   0.382881  -0.562187
H  -4.070994   1.378114   1.241884
C  -1.432745   0.218649  -0.092870
H  -2.702346  -1.322564  -0.862316
H  -2.611564  -1.117060   0.966919
C  -0.145574  -0.716602   0.071251
H  -1.557372   0.763285   0.671414
H  -1.463418   0.805934  -0.959751
H  -0.299509  -1.566349   1.159263
H   0.745273  -0.093352  -0.042683
H  -0.126791  -1.231169  -0.624655
