butane_opt
 OpenBabel08242015383D

 14 12  0  0  0  0  0  0  0  0999 V2000
   -3.8863    0.2604   -0.0021 C   0  0  0  0  0  0  0  0  0  0  0  0
   -2.6924   -0.6014    0.0564 C   0  0  0  0  0  0  0  0  0  0  0  0
   -4.9340   -0.4349   -0.1001 H   0  0  0  0  0  0  0  0  0  0  0  0
   -3.8242    0.8400   -0.9505 H   0  0  0  0  0  0  0  0  0  0  0  0
   -4.0931    0.9597    0.8869 H   0  0  0  0  0  0  0  0  0  0  0  0
   -1.4158    0.2035    0.0886 C   0  0  0  0  0  0  0  0  0  0  0  0
   -2.7889   -1.4570   -0.9508 H   0  0  0  0  0  0  0  0  0  0  0  0
   -2.8167   -1.0446    0.9245 H   0  0  0  0  0  0  0  0  0  0  0  0
   -0.1852   -0.7014   -0.0188 C   0  0  0  0  0  0  0  0  0  0  0  0
   -1.3734    0.8359    0.9233 H   0  0  0  0  0  0  0  0  0  0  0  0
   -1.3765    0.8196   -0.8009 H   0  0  0  0  0  0  0  0  0  0  0  0
   -0.0198   -1.6574    1.1530 H   0  0  0  0  0  0  0  0  0  0  0  0
    0.5864   -0.1789   -0.4653 H   0  0  0  0  0  0  0  0  0  0  0  0
   -0.2006   -1.1058   -0.6454 H   0  0  0  0  0  0  0  0  0  0  0  0
  1  2  1  0  0  0  0
  1  5  1  0  0  0  0
  2  6  1  0  0  0  0
  2  8  1  0  0  0  0
  3  1  1  0  0  0  0
  4  1  1  0  0  0  0
  6 10  1  0  0  0  0
  7  2  1  0  0  0  0
  9  6  1  0  0  0  0
 11  6  1  0  0  0  0
 13  9  1  0  0  0  0
 14  9  1  0  0  0  0
M  RAD  2   9   2  12   2
M  END
$$$$
