butane_opt
 OpenBabel08242015383D

 14 11  0  0  0  0  0  0  0  0999 V2000
   -3.9150    0.2255    0.0575 C   0  0  0  0  0  0  0  0  0  0  0  0
   -2.6964   -0.5688    0.0347 C   0  0  0  0  0  0  0  0  0  0  0  0
   -4.9563   -0.4018   -0.3299 H   0  0  0  0  0  0  0  0  0  0  0  0
   -3.6729    0.3829   -0.5622 H   0  0  0  0  0  0  0  0  0  0  0  0
   -4.0710    1.3781    1.2419 H   0  0  0  0  0  0  0  0  0  0  0  0
   -1.4327    0.2186   -0.0929 C   0  0  0  0  0  0  0  0  0  0  0  0
   -2.7023   -1.3226   -0.8623 H   0  0  0  0  0  0  0  0  0  0  0  0
   -2.6116   -1.1171    0.9669 H   0  0  0  0  0  0  0  0  0  0  0  0
   -0.1456   -0.7166    0.0713 C   0  0  0  0  0  0  0  0  0  0  0  0
   -1.5574    0.7633    0.6714 H   0  0  0  0  0  0  0  0  0  0  0  0
   -1.4634    0.8059   -0.9598 H   0  0  0  0  0  0  0  0  0  0  0  0
   -0.2995   -1.5663    1.1593 H   0  0  0  0  0  0  0  0  0  0  0  0
    0.7453   -0.0934   -0.0427 H   0  0  0  0  0  0  0  0  0  0  0  0
   -0.1268   -1.2312   -0.6247 H   0  0  0  0  0  0  0  0  0  0  0  0
  2  1  1  0  0  0  0
  2  8  1  0  0  0  0
  3  1  1  0  0  0  0
  4  1  1  0  0  0  0
  6  9  1  0  0  0  0
  6 10  1  0  0  0  0
  7  2  1  0  0  0  0
  9 12  1  0  0  0  0
 11  6  1  0  0  0  0
 13  9  1  0  0  0  0
 14  9  1  0  0  0  0
M  RAD  4   1   2   2   2   5   2   6   2
M  END
$$$$
