butane_opt
 OpenBabel08242015383D

 14 13  0  0  0  0  0  0  0  0999 V2000
   -3.9338    0.2767   -0.0030 C   0  0  0  0  0  0  0  0  0  0  0  0
   -2.6746   -0.6570    0.0620 C   0  0  0  0  0  0  0  0  0  0  0  0
   -4.7163   -0.1848    0.2100 H   0  0  0  0  0  0  0  0  0  0  0  0
   -3.9424    0.9314   -0.9885 H   0  0  0  0  0  0  0  0  0  0  0  0
   -3.9371    0.9712    0.8801 H   0  0  0  0  0  0  0  0  0  0  0  0
   -1.4072    0.1667   -0.0054 C   0  0  0  0  0  0  0  0  0  0  0  0
   -2.5649   -1.1051   -0.5694 H   0  0  0  0  0  0  0  0  0  0  0  0
   -2.8573   -1.3721    1.0666 H   0  0  0  0  0  0  0  0  0  0  0  0
   -0.2073   -0.6830    0.0128 C   0  0  0  0  0  0  0  0  0  0  0  0
   -1.3242    0.9000    0.8423 H   0  0  0  0  0  0  0  0  0  0  0  0
   -1.3318    0.8440   -0.8802 H   0  0  0  0  0  0  0  0  0  0  0  0
   -0.4619   -0.9837    0.7004 H   0  0  0  0  0  0  0  0  0  0  0  0
    0.8447   -0.0266    0.4432 H   0  0  0  0  0  0  0  0  0  0  0  0
   -0.0693   -1.6835   -1.0790 H   0  0  0  0  0  0  0  0  0  0  0  0
  1  2  1  0  0  0  0
  1  3  1  0  0  0  0
  1  5  1  0  0  0  0
  2  8  1  0  0  0  0
  4  1  1  0  0  0  0
  6  9  1  0  0  0  0
  6  2  1  0  0  0  0
  6 10  1  0  0  0  0
  7  2  1  0  0  0  0
  9 13  1  0  0  0  0
  9 12  1  0  0  0  0
 11  6  1  0  0  0  0
 14  9  1  0  0  0  0
M  END
$$$$
