butane_opt
 OpenBabel08242015383D

 14 13  0  0  0  0  0  0  0  0999 V2000
   -3.9147    0.3153   -0.0712 C   0  0  0  0  0  0  0  0  0  0  0  0
   -2.6846   -0.6733    0.1151 C   0  0  0  0  0  0  0  0  0  0  0  0
   -4.9211   -0.3461   -0.1827 H   0  0  0  0  0  0  0  0  0  0  0  0
   -3.9116    1.0441   -1.0113 H   0  0  0  0  0  0  0  0  0  0  0  0
   -4.0737    0.9962    0.7120 H   0  0  0  0  0  0  0  0  0  0  0  0
   -1.3780    0.1570    0.1350 C   0  0  0  0  0  0  0  0  0  0  0  0
   -2.6129   -1.3950   -0.7148 H   0  0  0  0  0  0  0  0  0  0  0  0
   -2.7696   -1.3778    1.1015 H   0  0  0  0  0  0  0  0  0  0  0  0
   -0.2124   -0.6600   -0.0784 C   0  0  0  0  0  0  0  0  0  0  0  0
   -1.1241    0.9562    1.1596 H   0  0  0  0  0  0  0  0  0  0  0  0
   -1.6209    0.6397   -0.6393 H   0  0  0  0  0  0  0  0  0  0  0  0
   -0.0555   -1.4826    1.0170 H   0  0  0  0  0  0  0  0  0  0  0  0
    0.7154   -0.0581   -0.3503 H   0  0  0  0  0  0  0  0  0  0  0  0
   -0.3821   -1.1067   -0.8360 H   0  0  0  0  0  0  0  0  0  0  0  0
  1  2  1  0  0  0  0
  1  5  1  0  0  0  0
  2  6  1  0  0  0  0
  2  8  1  0  0  0  0
  3  1  1  0  0  0  0
  4  1  1  0  0  0  0
  6 10  1  0  0  0  0
  7  2  1  0  0  0  0
  9  6  1  0  0  0  0
  9 12  1  0  0  0  0
 11  6  1  0  0  0  0
 13  9  1  0  0  0  0
 14  9  1  0  0  0  0
M  END
$$$$
