14
butane_opt
C  -4.002209   0.294845   0.093436
C  -2.699986  -0.671901  -0.030918
H  -4.941952  -0.315903  -0.211406
H  -3.990877   0.579367  -0.459225
H  -3.986234   1.314970   1.197872
C  -1.369863   0.182474  -0.106904
H  -2.622921  -1.364913  -0.851095
H  -2.722671  -1.245686   0.829003
C  -0.143513  -0.678187   0.113721
H  -1.455972   0.762989   0.651960
H  -1.399870   0.856340  -1.081977
H  -0.044120  -1.400717   1.083696
H   0.734781  -0.104779   0.063291
H  -0.028999  -1.080558  -0.544398
