14
butane_opt
C  -3.988072   0.296456  -0.063787
C  -2.688663  -0.650752   0.102236
H  -4.832313  -0.165205  -0.051511
H  -3.990038   0.934522  -0.962122
H  -3.911062   0.921134   0.753974
C  -1.387719   0.159628   0.106161
H  -2.726780  -1.342618  -0.722757
H  -2.726153  -1.375886   1.026315
C  -0.166009  -0.657867  -0.046162
H  -1.178660   0.950559   1.002657
H  -1.420889   0.512014  -0.645476
H  -0.018863  -1.413262   0.972919
H   0.702130  -0.131312  -0.268386
H  -0.191357  -1.099598  -0.841611
