14
butane_opt
C  -3.950697   0.298565  -0.017861
C  -2.658214  -0.691998   0.040597
H  -4.827303  -0.184812   0.203935
H  -4.315441   1.113516  -0.984693
H  -3.997404   0.806554   0.717557
C  -1.387277   0.168184   0.063206
H  -2.726003  -1.243433  -0.764802
H  -2.774245  -1.325916   1.005112
C  -0.169679  -0.669437   0.003352
H  -1.515028   0.961786   0.932630
H  -1.261604   0.624124  -0.723759
H  -0.110766  -1.147656   0.860136
H   0.818178  -0.037866  -0.102809
H  -0.314934  -1.292272  -0.822534
