14
butane_opt
C  -3.936852   0.263494   0.064904
C  -2.685452  -0.609071   0.017058
H  -4.993454  -0.511619   0.011165
H  -4.025452   0.765859  -0.713191
H  -3.746321   0.974254   0.947341
C  -1.440664   0.204819  -0.078860
H  -2.684985  -1.265166  -0.799128
H  -2.724776  -1.131257   0.895645
C  -0.156697  -0.701342   0.108920
H  -1.393764   0.703801   0.677083
H  -1.426369   1.000877  -1.133690
H  -0.243512  -1.132152   0.823164
H   0.797200  -0.119582   0.352512
H   0.050257  -1.678900  -0.982215
