butane_opt
 OpenBabel08242015383D

 14 13  0  0  0  0  0  0  0  0999 V2000
   -3.9478    0.2674    0.0428 C   0  0  0  0  0  0  0  0  0  0  0  0
   -2.6972   -0.6193   -0.0029 C   0  0  0  0  0  0  0  0  0  0  0  0
   -4.8875   -0.3523    0.1926 H   0  0  0  0  0  0  0  0  0  0  0  0
   -4.0628    0.9472   -0.8962 H   0  0  0  0  0  0  0  0  0  0  0  0
   -3.8525    0.8870    0.8918 H   0  0  0  0  0  0  0  0  0  0  0  0
   -1.4107    0.1862   -0.0137 C   0  0  0  0  0  0  0  0  0  0  0  0
   -2.7424   -1.3213   -0.8722 H   0  0  0  0  0  0  0  0  0  0  0  0
   -2.6390   -1.2171    0.8470 H   0  0  0  0  0  0  0  0  0  0  0  0
   -0.1558   -0.6924    0.0568 C   0  0  0  0  0  0  0  0  0  0  0  0
   -1.3778    0.8677    0.8539 H   0  0  0  0  0  0  0  0  0  0  0  0
   -1.3589    0.7877   -0.8634 H   0  0  0  0  0  0  0  0  0  0  0  0
   -0.2100   -1.3414    0.9938 H   0  0  0  0  0  0  0  0  0  0  0  0
    0.7534   -0.1102    0.0368 H   0  0  0  0  0  0  0  0  0  0  0  0
   -0.1018   -1.3200   -0.7496 H   0  0  0  0  0  0  0  0  0  0  0  0
  1  3  1  0  0  0  0
  1  5  1  0  0  0  0
  2  1  1  0  0  0  0
  2  8  1  0  0  0  0
  4  1  1  0  0  0  0
  6  2  1  0  0  0  0
  6  9  1  0  0  0  0
  6 10  1  0  0  0  0
  7  2  1  0  0  0  0
  9 12  1  0  0  0  0
 11  6  1  0  0  0  0
 13  9  1  0  0  0  0
 14  9  1  0  0  0  0
M  END
$$$$
