butane_opt
 OpenBabel08242015383D

 14 13  0  0  0  0  0  0  0  0999 V2000
   -3.9974    0.2810   -0.0295 C   0  0  0  0  0  0  0  0  0  0  0  0
   -2.6935   -0.6323    0.0909 C   0  0  0  0  0  0  0  0  0  0  0  0
   -4.9524   -0.3477   -0.0940 H   0  0  0  0  0  0  0  0  0  0  0  0
   -3.9837    1.0421   -1.0689 H   0  0  0  0  0  0  0  0  0  0  0  0
   -4.0617    0.8370    0.7372 H   0  0  0  0  0  0  0  0  0  0  0  0
   -1.4105    0.1589    0.1266 C   0  0  0  0  0  0  0  0  0  0  0  0
   -2.5504   -1.4047   -0.8504 H   0  0  0  0  0  0  0  0  0  0  0  0
   -2.7358   -1.1874    0.8576 H   0  0  0  0  0  0  0  0  0  0  0  0
   -0.1248   -0.6694   -0.0383 C   0  0  0  0  0  0  0  0  0  0  0  0
   -1.0823    0.9103    1.0154 H   0  0  0  0  0  0  0  0  0  0  0  0
   -1.4561    0.8204   -0.7627 H   0  0  0  0  0  0  0  0  0  0  0  0
   -0.0109   -1.5051    1.0070 H   0  0  0  0  0  0  0  0  0  0  0  0
    0.8515   -0.1277   -0.3703 H   0  0  0  0  0  0  0  0  0  0  0  0
   -0.3183   -1.1640   -0.8044 H   0  0  0  0  0  0  0  0  0  0  0  0
  1  2  1  0  0  0  0
  1  5  1  0  0  0  0
  2  6  1  0  0  0  0
  2  8  1  0  0  0  0
  3  1  1  0  0  0  0
  4  1  1  0  0  0  0
  6 10  1  0  0  0  0
  7  2  1  0  0  0  0
  9  6  1  0  0  0  0
  9 12  1  0  0  0  0
 11  6  1  0  0  0  0
 13  9  1  0  0  0  0
 14  9  1  0  0  0  0
M  END
$$$$
