14
butane_opt
C  -3.932579   0.277183  -0.011191
C  -2.725420  -0.642375   0.074751
H  -4.937947  -0.343801   0.060112
H  -3.971225   0.921987  -0.880754
H  -3.944999   0.756928   0.748139
C  -1.392889   0.214636   0.032745
H  -2.805411  -1.177303  -0.620190
H  -2.663382  -1.285671   1.030351
C  -0.155513  -0.708071   0.013933
H  -1.406056   0.813184   0.774485
H  -1.305287   1.019528  -0.929078
H  -0.221733  -0.942776   0.654489
H   0.652529  -0.239151   0.320832
H   0.067535  -1.739847  -1.117472
