14
butane_opt
C  -3.947259   0.260387   0.044163
C  -2.706985  -0.610511  -0.013307
H  -4.854687  -0.334485   0.193356
H  -3.998983   0.885264  -0.880059
H  -3.875366   0.907833   0.907701
C  -1.402455   0.198791  -0.005634
H  -2.800532  -1.294355  -0.867213
H  -2.695755  -1.263157   0.881917
C  -0.158708  -0.695550   0.059765
H  -1.415253   0.878900   0.842451
H  -1.344446   0.816731  -0.911615
H  -0.097369  -1.396831   1.022958
H   0.718097  -0.136162   0.016595
H  -0.083123  -1.366479  -0.784418
