butane_opt
 OpenBabel08242015383D

 14 13  0  0  0  0  0  0  0  0999 V2000
   -3.9043    0.2361    0.1312 C   0  0  0  0  0  0  0  0  0  0  0  0
   -2.7069   -0.5944   -0.0434 C   0  0  0  0  0  0  0  0  0  0  0  0
   -4.7908   -0.3928    0.2629 H   0  0  0  0  0  0  0  0  0  0  0  0
   -3.8765    0.9067   -0.7924 H   0  0  0  0  0  0  0  0  0  0  0  0
   -3.7698    0.9510    1.0179 H   0  0  0  0  0  0  0  0  0  0  0  0
   -1.4478    0.1990   -0.1509 C   0  0  0  0  0  0  0  0  0  0  0  0
   -2.8660   -1.3537   -0.9702 H   0  0  0  0  0  0  0  0  0  0  0  0
   -2.5936   -1.0393    0.6858 H   0  0  0  0  0  0  0  0  0  0  0  0
   -0.1723   -0.7101    0.1475 C   0  0  0  0  0  0  0  0  0  0  0  0
   -1.5727    0.8280    0.6538 H   0  0  0  0  0  0  0  0  0  0  0  0
   -1.2311    0.9730   -1.0562 H   0  0  0  0  0  0  0  0  0  0  0  0
   -0.3860   -1.1880    0.9790 H   0  0  0  0  0  0  0  0  0  0  0  0
    0.7525   -0.1561    0.3500 H   0  0  0  0  0  0  0  0  0  0  0  0
    0.0870   -1.5797   -0.7351 H   0  0  0  0  0  0  0  0  0  0  0  0
  1  3  1  0  0  0  0
  1  5  1  0  0  0  0
  2  1  1  0  0  0  0
  2  8  1  0  0  0  0
  4  1  1  0  0  0  0
  6  2  1  0  0  0  0
  6  9  1  0  0  0  0
  6 10  1  0  0  0  0
  7  2  1  0  0  0  0
  9 13  1  0  0  0  0
  9 12  1  0  0  0  0
 11  6  1  0  0  0  0
 14  9  1  0  0  0  0
M  END
$$$$
