butane_opt
 OpenBabel08242015383D

 14 12  0  0  0  0  0  0  0  0999 V2000
   -3.9182    0.3060    0.0935 C   0  0  0  0  0  0  0  0  0  0  0  0
   -2.6742   -0.6538   -0.0883 C   0  0  0  0  0  0  0  0  0  0  0  0
   -4.8499   -0.3934    0.1033 H   0  0  0  0  0  0  0  0  0  0  0  0
   -4.1984    0.7080   -0.6622 H   0  0  0  0  0  0  0  0  0  0  0  0
   -3.8161    1.1912    1.0802 H   0  0  0  0  0  0  0  0  0  0  0  0
   -1.4132    0.1752   -0.0417 C   0  0  0  0  0  0  0  0  0  0  0  0
   -2.6048   -1.4098   -0.9805 H   0  0  0  0  0  0  0  0  0  0  0  0
   -2.6878   -1.1939    0.7485 H   0  0  0  0  0  0  0  0  0  0  0  0
   -0.2189   -0.6707    0.1066 C   0  0  0  0  0  0  0  0  0  0  0  0
   -1.3958    0.7467    0.7594 H   0  0  0  0  0  0  0  0  0  0  0  0
   -1.1461    0.6818   -0.9394 H   0  0  0  0  0  0  0  0  0  0  0  0
   -0.0640   -1.7198    1.3230 H   0  0  0  0  0  0  0  0  0  0  0  0
    0.7454   -0.0615   -0.2683 H   0  0  0  0  0  0  0  0  0  0  0  0
   -0.3142   -0.8786   -0.4945 H   0  0  0  0  0  0  0  0  0  0  0  0
  1  3  1  0  0  0  0
  1  5  1  0  0  0  0
  2  6  1  0  0  0  0
  2  1  1  0  0  0  0
  2  8  1  0  0  0  0
  4  1  1  0  0  0  0
  6  9  1  0  0  0  0
  6 10  1  0  0  0  0
  7  2  1  0  0  0  0
 11  6  1  0  0  0  0
 13  9  1  0  0  0  0
 14  9  1  0  0  0  0
M  RAD  2   9   2  12   2
M  END
$$$$
