butane_opt
 OpenBabel08242015383D

 14 13  0  0  0  0  0  0  0  0999 V2000
   -3.9483    0.2166    0.1134 C   0  0  0  0  0  0  0  0  0  0  0  0
   -2.6928   -0.5428   -0.0657 C   0  0  0  0  0  0  0  0  0  0  0  0
   -4.9247   -0.4417    0.3839 H   0  0  0  0  0  0  0  0  0  0  0  0
   -3.9583    1.0286   -0.9326 H   0  0  0  0  0  0  0  0  0  0  0  0
   -3.7072    0.7354    1.0085 H   0  0  0  0  0  0  0  0  0  0  0  0
   -1.4352    0.2035   -0.0675 C   0  0  0  0  0  0  0  0  0  0  0  0
   -2.7016   -1.4826   -1.1365 H   0  0  0  0  0  0  0  0  0  0  0  0
   -2.5660   -1.0152    0.7462 H   0  0  0  0  0  0  0  0  0  0  0  0
   -0.1634   -0.7168    0.0996 C   0  0  0  0  0  0  0  0  0  0  0  0
   -1.5069    0.7903    0.7586 H   0  0  0  0  0  0  0  0  0  0  0  0
   -1.3166    0.9156   -1.0055 H   0  0  0  0  0  0  0  0  0  0  0  0
   -0.2720   -1.4820    1.1153 H   0  0  0  0  0  0  0  0  0  0  0  0
    0.7527   -0.1270    0.2379 H   0  0  0  0  0  0  0  0  0  0  0  0
    0.0684   -1.3152   -0.6978 H   0  0  0  0  0  0  0  0  0  0  0  0
  1  3  1  0  0  0  0
  1  5  1  0  0  0  0
  2  1  1  0  0  0  0
  2  8  1  0  0  0  0
  4  1  1  0  0  0  0
  6  2  1  0  0  0  0
  6  9  1  0  0  0  0
  6 10  1  0  0  0  0
  7  2  1  0  0  0  0
  9 13  1  0  0  0  0
  9 12  1  0  0  0  0
 11  6  1  0  0  0  0
 14  9  1  0  0  0  0
M  END
$$$$
