14
butane_opt
C  -3.996028   0.287226  -0.024668
C  -2.724780  -0.629220   0.106930
H  -4.897226  -0.231699   0.079679
H  -3.927565   1.069529  -1.049313
H  -3.964731   0.773944   0.796672
C  -1.356704   0.141845   0.016442
H  -2.629985  -1.210899  -0.649505
H  -2.771265  -1.359684   1.095956
C  -0.153069  -0.661344   0.001556
H  -1.368110   0.849596   0.901705
H  -1.312005   0.831207  -0.860022
H  -0.052171  -0.982000   0.671739
H   0.745200  -0.032214   0.409724
H  -0.112383  -1.844306  -1.211573
