14
butane_opt
C  -3.959330   0.297661  -0.054711
C  -2.702877  -0.690990   0.145846
H  -4.747204  -0.258698  -0.386082
H  -3.851557   0.800340  -0.878796
H  -4.403444   1.132645   0.842030
C  -1.374714   0.176233   0.096392
H  -2.650472  -1.189446  -0.570527
H  -2.786550  -1.390723   1.126016
C  -0.141058  -0.672595  -0.026108
H  -1.375834   0.776621   0.778726
H  -1.474788   0.913541  -0.872261
H  -0.070051  -1.028184   0.617499
H   0.760455  -0.075005  -0.115754
H  -0.281311  -1.484497  -1.040399
