butane_opt
 OpenBabel08242015383D

 14 13  0  0  0  0  0  0  0  0999 V2000
   -3.9465    0.2202   -0.0376 C   0  0  0  0  0  0  0  0  0  0  0  0
   -2.7393   -0.5912    0.1528 C   0  0  0  0  0  0  0  0  0  0  0  0
   -4.7994   -0.2985   -0.0872 H   0  0  0  0  0  0  0  0  0  0  0  0
   -3.7336    1.0559   -1.1582 H   0  0  0  0  0  0  0  0  0  0  0  0
   -4.0978    0.8493    0.6831 H   0  0  0  0  0  0  0  0  0  0  0  0
   -1.4304    0.2210    0.0732 C   0  0  0  0  0  0  0  0  0  0  0  0
   -2.8425   -1.2089   -0.5928 H   0  0  0  0  0  0  0  0  0  0  0  0
   -2.8123   -1.2756    1.0576 H   0  0  0  0  0  0  0  0  0  0  0  0
   -0.1190   -0.7144   -0.0574 C   0  0  0  0  0  0  0  0  0  0  0  0
   -1.3485    0.9944    0.9987 H   0  0  0  0  0  0  0  0  0  0  0  0
   -1.2985    0.8436   -0.8530 H   0  0  0  0  0  0  0  0  0  0  0  0
   -0.1353   -1.1179    0.6577 H   0  0  0  0  0  0  0  0  0  0  0  0
    0.7481   -0.2069    0.1896 H   0  0  0  0  0  0  0  0  0  0  0  0
    0.1090   -1.7356   -1.0873 H   0  0  0  0  0  0  0  0  0  0  0  0
  1  2  1  0  0  0  0
  1  5  1  0  0  0  0
  2  8  1  0  0  0  0
  3  1  1  0  0  0  0
  4  1  1  0  0  0  0
  6  2  1  0  0  0  0
  6 10  1  0  0  0  0
  7  2  1  0  0  0  0
  9  6  1  0  0  0  0
  9 13  1  0  0  0  0
  9 12  1  0  0  0  0
 11  6  1  0  0  0  0
 14  9  1  0  0  0  0
M  END
$$$$
