butane_opt
 OpenBabel08242015383D

 14 11  0  0  0  0  0  0  0  0999 V2000
   -3.8588    0.2474   -0.0403 C   0  0  0  0  0  0  0  0  0  0  0  0
   -2.7241   -0.5896    0.0844 C   0  0  0  0  0  0  0  0  0  0  0  0
   -4.8118   -0.4422    0.4696 H   0  0  0  0  0  0  0  0  0  0  0  0
   -3.9899    1.3031   -1.2546 H   0  0  0  0  0  0  0  0  0  0  0  0
   -3.8390    0.3688    0.4858 H   0  0  0  0  0  0  0  0  0  0  0  0
   -1.4276    0.2017    0.0976 C   0  0  0  0  0  0  0  0  0  0  0  0
   -2.7983   -1.2079   -0.8364 H   0  0  0  0  0  0  0  0  0  0  0  0
   -2.7273   -1.0722    0.8796 H   0  0  0  0  0  0  0  0  0  0  0  0
   -0.1893   -0.7209   -0.0129 C   0  0  0  0  0  0  0  0  0  0  0  0
   -1.3875    0.9787    1.0548 H   0  0  0  0  0  0  0  0  0  0  0  0
   -1.5820    0.7635   -0.7101 H   0  0  0  0  0  0  0  0  0  0  0  0
    0.0058   -1.0273    0.7300 H   0  0  0  0  0  0  0  0  0  0  0  0
    0.6584   -0.2052    0.0109 H   0  0  0  0  0  0  0  0  0  0  0  0
   -0.1465   -1.6081   -1.0072 H   0  0  0  0  0  0  0  0  0  0  0  0
  1  2  1  0  0  0  0
  1  3  1  0  0  0  0
  2  6  1  0  0  0  0
  2  8  1  0  0  0  0
  6 10  1  0  0  0  0
  7  2  1  0  0  0  0
  9 13  1  0  0  0  0
  9  6  1  0  0  0  0
  9 12  1  0  0  0  0
 11  6  1  0  0  0  0
 14  9  1  0  0  0  0
M  RAD  3   1   3   4   2   5   2
M  END
$$$$
