14
butane_opt
C  -3.907959   0.212102  -0.021612
C  -2.720040  -0.571510   0.040586
H  -4.924418  -0.461966   0.461632
H  -4.042761   1.202975  -1.137561
H  -3.856337   0.718274   0.610349
C  -1.416936   0.239495   0.058103
H  -2.658293  -1.113734  -0.751260
H  -2.823193  -1.227541   0.986696
C  -0.171096  -0.739335   0.014091
H  -1.327924   0.998940   1.041030
H  -1.311345   0.668211  -0.695683
H   0.053561  -1.187480   0.775834
H   0.650720  -0.226154  -0.015240
H  -0.149496  -1.559972  -0.964259
