butane_opt
 OpenBabel08242015383D

 14 13  0  0  0  0  0  0  0  0999 V2000
   -3.9830    0.2960    0.1070 C   0  0  0  0  0  0  0  0  0  0  0  0
   -2.6932   -0.6734   -0.1072 C   0  0  0  0  0  0  0  0  0  0  0  0
   -4.8277   -0.2344    0.0897 H   0  0  0  0  0  0  0  0  0  0  0  0
   -4.2430    0.8696   -0.8044 H   0  0  0  0  0  0  0  0  0  0  0  0
   -3.9004    1.0480    0.9911 H   0  0  0  0  0  0  0  0  0  0  0  0
   -1.4019    0.1387   -0.0109 C   0  0  0  0  0  0  0  0  0  0  0  0
   -2.8909   -1.2836   -0.9475 H   0  0  0  0  0  0  0  0  0  0  0  0
   -2.6198   -1.1508    0.7272 H   0  0  0  0  0  0  0  0  0  0  0  0
   -0.1344   -0.6666    0.1118 C   0  0  0  0  0  0  0  0  0  0  0  0
   -1.5217    0.8104    0.7944 H   0  0  0  0  0  0  0  0  0  0  0  0
   -1.2763    0.8085   -0.9779 H   0  0  0  0  0  0  0  0  0  0  0  0
    0.0551   -1.5503    1.2328 H   0  0  0  0  0  0  0  0  0  0  0  0
    0.8963    0.0440   -0.3258 H   0  0  0  0  0  0  0  0  0  0  0  0
   -0.1837   -0.9418   -0.5345 H   0  0  0  0  0  0  0  0  0  0  0  0
  1  5  1  0  0  0  0
  2  6  1  0  0  0  0
  2  1  1  0  0  0  0
  2  8  1  0  0  0  0
  3  1  1  0  0  0  0
  4  1  1  0  0  0  0
  6  9  1  0  0  0  0
  6 10  1  0  0  0  0
  7  2  1  0  0  0  0
  9 12  1  0  0  0  0
 11  6  1  0  0  0  0
 13  9  1  0  0  0  0
 14  9  1  0  0  0  0
M  END
$$$$
