butane_opt
 OpenBabel08242015383D

 14 13  0  0  0  0  0  0  0  0999 V2000
   -3.9616    0.2804   -0.0852 C   0  0  0  0  0  0  0  0  0  0  0  0
   -2.6283   -0.6569    0.1611 C   0  0  0  0  0  0  0  0  0  0  0  0
   -4.7713   -0.2594   -0.2137 H   0  0  0  0  0  0  0  0  0  0  0  0
   -3.9001    1.1149   -1.1625 H   0  0  0  0  0  0  0  0  0  0  0  0
   -4.1255    0.9087    0.6042 H   0  0  0  0  0  0  0  0  0  0  0  0
   -1.4051    0.1293    0.1572 C   0  0  0  0  0  0  0  0  0  0  0  0
   -2.7058   -1.3550   -0.6892 H   0  0  0  0  0  0  0  0  0  0  0  0
   -2.5994   -1.2510    0.9639 H   0  0  0  0  0  0  0  0  0  0  0  0
   -0.2125   -0.6387   -0.0726 C   0  0  0  0  0  0  0  0  0  0  0  0
   -1.2205    0.9676    1.1916 H   0  0  0  0  0  0  0  0  0  0  0  0
   -1.4210    0.7319   -0.6578 H   0  0  0  0  0  0  0  0  0  0  0  0
    0.0551   -1.4093    0.9179 H   0  0  0  0  0  0  0  0  0  0  0  0
    0.6518   -0.0254   -0.4518 H   0  0  0  0  0  0  0  0  0  0  0  0
   -0.5105   -1.2597   -1.0136 H   0  0  0  0  0  0  0  0  0  0  0  0
  1  2  1  0  0  0  0
  1  5  1  0  0  0  0
  2  8  1  0  0  0  0
  3  1  1  0  0  0  0
  4  1  1  0  0  0  0
  6  2  1  0  0  0  0
  6 10  1  0  0  0  0
  7  2  1  0  0  0  0
  9  6  1  0  0  0  0
  9 12  1  0  0  0  0
 11  6  1  0  0  0  0
 13  9  1  0  0  0  0
 14  9  1  0  0  0  0
M  END
$$$$
