14
butane_opt
C  -3.931055   0.249077   0.037558
C  -2.696832  -0.595894   0.023267
H  -4.851818  -0.357057   0.095314
H  -3.988419   0.872833  -0.858036
H  -3.910992   0.892824   0.888829
C  -1.413671   0.190727  -0.026548
H  -2.787681  -1.245050  -0.844852
H  -2.653771  -1.217579   0.914260
C  -0.158416  -0.703399   0.050248
H  -1.448610   0.887185   0.834963
H  -1.417409   0.814530  -0.898428
H  -0.202155  -1.282346   0.968444
H   0.744104  -0.102077   0.165009
H  -0.099564  -1.433797  -0.850427
