butane_opt
 OpenBabel08242015383D

 14 13  0  0  0  0  0  0  0  0999 V2000
   -3.9880    0.3075    0.0653 C   0  0  0  0  0  0  0  0  0  0  0  0
   -2.6791   -0.6696   -0.0037 C   0  0  0  0  0  0  0  0  0  0  0  0
   -4.8884   -0.2792    0.0111 H   0  0  0  0  0  0  0  0  0  0  0  0
   -4.0474    0.9015   -0.8601 H   0  0  0  0  0  0  0  0  0  0  0  0
   -4.1544    1.0233    0.8713 H   0  0  0  0  0  0  0  0  0  0  0  0
   -1.3775    0.1496    0.0006 C   0  0  0  0  0  0  0  0  0  0  0  0
   -2.6922   -1.4396   -0.8878 H   0  0  0  0  0  0  0  0  0  0  0  0
   -2.7976   -1.1373    0.8019 H   0  0  0  0  0  0  0  0  0  0  0  0
   -0.1334   -0.6708    0.0461 C   0  0  0  0  0  0  0  0  0  0  0  0
   -1.3386    0.7450    0.8389 H   0  0  0  0  0  0  0  0  0  0  0  0
   -1.4193    0.7966   -0.9209 H   0  0  0  0  0  0  0  0  0  0  0  0
   -0.1521   -1.3984    0.9547 H   0  0  0  0  0  0  0  0  0  0  0  0
    0.8712   -0.0216   -0.0538 H   0  0  0  0  0  0  0  0  0  0  0  0
   -0.2708   -1.0339   -0.5669 H   0  0  0  0  0  0  0  0  0  0  0  0
  1  5  1  0  0  0  0
  2  6  1  0  0  0  0
  2  1  1  0  0  0  0
  2  8  1  0  0  0  0
  3  1  1  0  0  0  0
  4  1  1  0  0  0  0
  6  9  1  0  0  0  0
  6 10  1  0  0  0  0
  7  2  1  0  0  0  0
  9 12  1  0  0  0  0
 11  6  1  0  0  0  0
 13  9  1  0  0  0  0
 14  9  1  0  0  0  0
M  END
$$$$
