14
butane_opt
C  -3.954693   0.276978   0.042938
C  -2.709978  -0.624791   0.009266
H  -4.881570  -0.333030   0.086607
H  -4.022340   0.876216  -0.822018
H  -3.957411   0.925343   0.920291
C  -1.393865   0.181320  -0.023971
H  -2.689978  -1.276804  -0.824034
H  -2.689621  -1.302143   0.919470
C  -0.155641  -0.689726   0.057849
H  -1.393717   0.859548   0.812048
H  -1.328256   0.842932  -0.927949
H  -0.162030  -1.285461   0.924463
H   0.777485  -0.073105   0.149473
H  -0.107110  -1.432273  -0.832475
