butane_opt
 OpenBabel08242015383D

 14 13  0  0  0  0  0  0  0  0999 V2000
   -3.9530    0.3069   -0.0723 C   0  0  0  0  0  0  0  0  0  0  0  0
   -2.6868   -0.6360    0.0834 C   0  0  0  0  0  0  0  0  0  0  0  0
   -4.7804   -0.2633   -0.0053 H   0  0  0  0  0  0  0  0  0  0  0  0
   -3.9792    1.0336   -1.0755 H   0  0  0  0  0  0  0  0  0  0  0  0
   -3.9301    0.8163    0.6760 H   0  0  0  0  0  0  0  0  0  0  0  0
   -1.4033    0.1451    0.1587 C   0  0  0  0  0  0  0  0  0  0  0  0
   -2.6415   -1.2493   -0.7197 H   0  0  0  0  0  0  0  0  0  0  0  0
   -2.6810   -1.4365    1.0647 H   0  0  0  0  0  0  0  0  0  0  0  0
   -0.1644   -0.6706   -0.0654 C   0  0  0  0  0  0  0  0  0  0  0  0
   -1.2832    0.8222    1.1394 H   0  0  0  0  0  0  0  0  0  0  0  0
   -1.4122    0.5672   -0.6046 H   0  0  0  0  0  0  0  0  0  0  0  0
   -0.0831   -1.3527    0.8708 H   0  0  0  0  0  0  0  0  0  0  0  0
    0.8038    0.0381   -0.4017 H   0  0  0  0  0  0  0  0  0  0  0  0
   -0.5584   -1.1391   -0.7728 H   0  0  0  0  0  0  0  0  0  0  0  0
  1  3  1  0  0  0  0
  1  2  1  0  0  0  0
  1  5  1  0  0  0  0
  2  6  1  0  0  0  0
  2  8  1  0  0  0  0
  4  1  1  0  0  0  0
  6 10  1  0  0  0  0
  7  2  1  0  0  0  0
  9  6  1  0  0  0  0
  9 12  1  0  0  0  0
 11  6  1  0  0  0  0
 13  9  1  0  0  0  0
 14  9  1  0  0  0  0
M  END
$$$$
