butane_opt
 OpenBabel08242015383D

 14 13  0  0  0  0  0  0  0  0999 V2000
   -3.9367    0.2796    0.0074 C   0  0  0  0  0  0  0  0  0  0  0  0
   -2.6891   -0.6242    0.0578 C   0  0  0  0  0  0  0  0  0  0  0  0
   -4.8531   -0.3235    0.0259 H   0  0  0  0  0  0  0  0  0  0  0  0
   -3.9270    0.8955   -0.8796 H   0  0  0  0  0  0  0  0  0  0  0  0
   -4.0343    0.9102    0.8491 H   0  0  0  0  0  0  0  0  0  0  0  0
   -1.4074    0.1630    0.0070 C   0  0  0  0  0  0  0  0  0  0  0  0
   -2.7306   -1.2263   -0.7522 H   0  0  0  0  0  0  0  0  0  0  0  0
   -2.6954   -1.2912    0.9686 H   0  0  0  0  0  0  0  0  0  0  0  0
   -0.1724   -0.6788    0.0209 C   0  0  0  0  0  0  0  0  0  0  0  0
   -1.3564    0.8447    0.8835 H   0  0  0  0  0  0  0  0  0  0  0  0
   -1.4397    0.7564   -0.8719 H   0  0  0  0  0  0  0  0  0  0  0  0
   -0.2120   -1.2029    0.8792 H   0  0  0  0  0  0  0  0  0  0  0  0
    0.7897   -0.0524    0.1255 H   0  0  0  0  0  0  0  0  0  0  0  0
   -0.1090   -1.4538   -0.9149 H   0  0  0  0  0  0  0  0  0  0  0  0
  1  3  1  0  0  0  0
  1  2  1  0  0  0  0
  1  5  1  0  0  0  0
  2  8  1  0  0  0  0
  4  1  1  0  0  0  0
  6  9  1  0  0  0  0
  6  2  1  0  0  0  0
  6 10  1  0  0  0  0
  7  2  1  0  0  0  0
  9 13  1  0  0  0  0
  9 12  1  0  0  0  0
 11  6  1  0  0  0  0
 14  9  1  0  0  0  0
M  END
$$$$
