butane_opt
 OpenBabel08242015383D

 14 13  0  0  0  0  0  0  0  0999 V2000
   -3.9460    0.2476    0.0701 C   0  0  0  0  0  0  0  0  0  0  0  0
   -2.7200   -0.6041   -0.0466 C   0  0  0  0  0  0  0  0  0  0  0  0
   -4.7756   -0.3148    0.0112 H   0  0  0  0  0  0  0  0  0  0  0  0
   -3.9957    0.7834   -0.8208 H   0  0  0  0  0  0  0  0  0  0  0  0
   -3.9531    1.0041    0.9535 H   0  0  0  0  0  0  0  0  0  0  0  0
   -1.4002    0.2320   -0.0006 C   0  0  0  0  0  0  0  0  0  0  0  0
   -2.7567   -1.2913   -0.8676 H   0  0  0  0  0  0  0  0  0  0  0  0
   -2.8586   -1.2754    0.8481 H   0  0  0  0  0  0  0  0  0  0  0  0
   -0.1552   -0.7473    0.0632 C   0  0  0  0  0  0  0  0  0  0  0  0
   -1.4402    0.9382    0.8999 H   0  0  0  0  0  0  0  0  0  0  0  0
   -1.2442    0.8383   -0.8652 H   0  0  0  0  0  0  0  0  0  0  0  0
    0.1153   -1.5501    1.1148 H   0  0  0  0  0  0  0  0  0  0  0  0
    0.8157   -0.1344   -0.2311 H   0  0  0  0  0  0  0  0  0  0  0  0
   -0.2715   -0.9877   -0.5890 H   0  0  0  0  0  0  0  0  0  0  0  0
  1  5  1  0  0  0  0
  2  6  1  0  0  0  0
  2  1  1  0  0  0  0
  2  8  1  0  0  0  0
  3  1  1  0  0  0  0
  4  1  1  0  0  0  0
  6  9  1  0  0  0  0
  6 10  1  0  0  0  0
  7  2  1  0  0  0  0
  9 12  1  0  0  0  0
 11  6  1  0  0  0  0
 13  9  1  0  0  0  0
 14  9  1  0  0  0  0
M  END
$$$$
