14
butane_opt
C  -3.969102   0.319318  -0.090447
C  -2.695537  -0.645903   0.107219
H  -4.963533  -0.368822   0.507802
H  -4.150555   1.334990  -1.159120
H  -3.906155   0.537385   0.497409
C  -1.345969   0.135774   0.144824
H  -2.565341  -1.414449  -0.814570
H  -2.795892  -1.284021   0.980882
C  -0.176611  -0.674483  -0.047879
H  -1.235786   0.925274   1.113197
H  -1.475893   0.741108  -0.744050
H  -0.121192  -1.046931   0.763449
H   0.753593  -0.038080  -0.041422
H  -0.317691  -1.472641  -1.070712
