14
butane_opt
C  -3.926370   0.293844  -0.082058
C  -2.657687  -0.653555   0.144853
H  -4.846062  -0.265377  -0.433033
H  -3.863396   0.829391  -0.958680
H  -4.177056   1.033625   0.845031
C  -1.375519   0.145315   0.133351
H  -2.684133  -1.112175  -0.558847
H  -2.639121  -1.470167   1.193398
C  -0.244839  -0.656060  -0.076168
H  -1.300196   0.977427   1.046262
H  -1.456834   0.692074  -0.748447
H  -0.006638  -1.399105   0.868945
H   0.670639   0.027359  -0.245233
H  -0.287116  -1.344017  -1.018820
