14
butane_opt
C  -3.947500   0.280501  -0.017223
C  -2.660288  -0.646009   0.025970
H  -4.921176  -0.302063   0.335480
H  -3.975882   1.224590  -1.090657
H  -3.970876   0.715340   0.651982
C  -1.417344   0.135454   0.110980
H  -2.654309  -1.248150  -0.765538
H  -2.698667  -1.236758   0.809851
C  -0.181325  -0.643074   0.016707
H  -1.311195   0.832189   0.975133
H  -1.401155   0.789679  -0.787828
H   0.062724  -1.298113   0.816900
H   0.657106  -0.086051  -0.213171
H  -0.347688  -1.385359  -0.942282
