14
butane_opt
C  -3.902669   0.236487   0.122002
C  -2.696625  -0.599196  -0.111507
H  -4.792945  -0.418572   0.320097
H  -4.204403   0.899483  -0.781282
H  -3.585059   0.849215   1.014456
C  -1.439664   0.234406  -0.062141
H  -2.627935  -1.375591  -1.074805
H  -2.711932  -1.020574   0.629567
C  -0.181677  -0.724118   0.145811
H  -1.590043   0.766619   0.718549
H  -1.399120   0.922515  -0.981984
H  -0.079897  -1.639803   1.153376
H   0.787299  -0.007804  -0.091372
H  -0.174485  -1.198538  -0.573031
