butane_opt
 OpenBabel08242015383D

 14 13  0  0  0  0  0  0  0  0999 V2000
   -3.9480    0.2268   -0.0498 C   0  0  0  0  0  0  0  0  0  0  0  0
   -2.7431   -0.5863    0.0995 C   0  0  0  0  0  0  0  0  0  0  0  0
   -4.9033   -0.3885    0.0617 H   0  0  0  0  0  0  0  0  0  0  0  0
   -3.8661    0.8974   -0.9796 H   0  0  0  0  0  0  0  0  0  0  0  0
   -4.1139    0.9311    0.7741 H   0  0  0  0  0  0  0  0  0  0  0  0
   -1.4065    0.2091    0.0692 C   0  0  0  0  0  0  0  0  0  0  0  0
   -2.8031   -1.2002   -0.6904 H   0  0  0  0  0  0  0  0  0  0  0  0
   -2.8295   -1.1708    1.0414 H   0  0  0  0  0  0  0  0  0  0  0  0
   -0.1031   -0.7175   -0.0070 C   0  0  0  0  0  0  0  0  0  0  0  0
   -1.3799    0.8890    0.9260 H   0  0  0  0  0  0  0  0  0  0  0  0
   -1.5846    0.8993   -0.8135 H   0  0  0  0  0  0  0  0  0  0  0  0
    0.1893   -1.1942    0.7970 H   0  0  0  0  0  0  0  0  0  0  0  0
    0.7892   -0.1573   -0.0722 H   0  0  0  0  0  0  0  0  0  0  0  0
   -0.1129   -1.5807   -0.9504 H   0  0  0  0  0  0  0  0  0  0  0  0
  1  3  1  0  0  0  0
  1  2  1  0  0  0  0
  1  5  1  0  0  0  0
  2  8  1  0  0  0  0
  4  1  1  0  0  0  0
  6  2  1  0  0  0  0
  6 10  1  0  0  0  0
  7  2  1  0  0  0  0
  9  6  1  0  0  0  0
  9 12  1  0  0  0  0
 11  6  1  0  0  0  0
 13  9  1  0  0  0  0
 14  9  1  0  0  0  0
M  END
$$$$
