14
butane_opt
C  -3.941749   0.229853  -0.065479
C  -2.687269  -0.606119   0.145322
H  -4.905328  -0.407721  -0.248513
H  -3.828994   0.742921  -0.977837
H  -4.136172   1.021535   0.814378
C  -1.426385   0.273957   0.075545
H  -2.668806  -1.100565  -0.604070
H  -2.955028  -1.455018   1.200166
C  -0.136721  -0.740474  -0.036285
H  -1.458965   0.997872   0.930244
H  -1.442902   0.746831  -0.625050
H   0.079018  -1.252867   0.732057
H   0.743025  -0.102664  -0.202723
H  -0.124324  -1.561902  -1.019276
