butane_opt
 OpenBabel08242015383D

 14 13  0  0  0  0  0  0  0  0999 V2000
   -3.9461    0.2748    0.0313 C   0  0  0  0  0  0  0  0  0  0  0  0
   -2.6999   -0.6173    0.0096 C   0  0  0  0  0  0  0  0  0  0  0  0
   -4.8243   -0.2993    0.1281 H   0  0  0  0  0  0  0  0  0  0  0  0
   -4.0782    0.9168   -0.8823 H   0  0  0  0  0  0  0  0  0  0  0  0
   -3.9050    0.9025    0.8860 H   0  0  0  0  0  0  0  0  0  0  0  0
   -1.3913    0.1676    0.0002 C   0  0  0  0  0  0  0  0  0  0  0  0
   -2.7139   -1.3252   -0.8416 H   0  0  0  0  0  0  0  0  0  0  0  0
   -2.7022   -1.2388    0.8949 H   0  0  0  0  0  0  0  0  0  0  0  0
   -0.1693   -0.6876    0.0498 C   0  0  0  0  0  0  0  0  0  0  0  0
   -1.3732    0.8182    0.8458 H   0  0  0  0  0  0  0  0  0  0  0  0
   -1.4193    0.7886   -0.8804 H   0  0  0  0  0  0  0  0  0  0  0  0
   -0.1634   -1.2888    0.9575 H   0  0  0  0  0  0  0  0  0  0  0  0
    0.7798   -0.0560    0.0222 H   0  0  0  0  0  0  0  0  0  0  0  0
   -0.1508   -1.3228   -0.7825 H   0  0  0  0  0  0  0  0  0  0  0  0
  1  3  1  0  0  0  0
  1  5  1  0  0  0  0
  2  1  1  0  0  0  0
  2  8  1  0  0  0  0
  4  1  1  0  0  0  0
  6  2  1  0  0  0  0
  6  9  1  0  0  0  0
  6 10  1  0  0  0  0
  7  2  1  0  0  0  0
  9 12  1  0  0  0  0
 11  6  1  0  0  0  0
 13  9  1  0  0  0  0
 14  9  1  0  0  0  0
M  END
$$$$
