butane_opt
 OpenBabel08242015383D

 14 13  0  0  0  0  0  0  0  0999 V2000
   -3.9463    0.2302    0.1129 C   0  0  0  0  0  0  0  0  0  0  0  0
   -2.6777   -0.5871   -0.0517 C   0  0  0  0  0  0  0  0  0  0  0  0
   -4.7748   -0.2779   -0.1924 H   0  0  0  0  0  0  0  0  0  0  0  0
   -3.9200    0.5414   -0.6382 H   0  0  0  0  0  0  0  0  0  0  0  0
   -3.9022    1.1621    1.1213 H   0  0  0  0  0  0  0  0  0  0  0  0
   -1.4345    0.2139   -0.0947 C   0  0  0  0  0  0  0  0  0  0  0  0
   -2.8023   -1.2593   -0.9154 H   0  0  0  0  0  0  0  0  0  0  0  0
   -2.5447   -1.2351    0.8251 H   0  0  0  0  0  0  0  0  0  0  0  0
   -0.1744   -0.6926    0.1272 C   0  0  0  0  0  0  0  0  0  0  0  0
   -1.4034    0.8260    0.7352 H   0  0  0  0  0  0  0  0  0  0  0  0
   -1.3354    0.7586   -1.0470 H   0  0  0  0  0  0  0  0  0  0  0  0
   -0.1282   -1.5574    1.1366 H   0  0  0  0  0  0  0  0  0  0  0  0
    0.6742   -0.1999   -0.1172 H   0  0  0  0  0  0  0  0  0  0  0  0
   -0.0924   -1.1897   -0.5550 H   0  0  0  0  0  0  0  0  0  0  0  0
  1  5  1  0  0  0  0
  2  1  1  0  0  0  0
  2  8  1  0  0  0  0
  3  1  1  0  0  0  0
  4  1  1  0  0  0  0
  6  2  1  0  0  0  0
  6  9  1  0  0  0  0
  6 10  1  0  0  0  0
  7  2  1  0  0  0  0
  9 12  1  0  0  0  0
 11  6  1  0  0  0  0
 13  9  1  0  0  0  0
 14  9  1  0  0  0  0
M  END
$$$$
