14
butane_opt
C  -3.941203   0.265123  -0.001128
C  -2.690110  -0.625588   0.040823
H  -4.841131  -0.313931   0.170928
H  -3.982978   1.020163  -0.974177
H  -3.922444   0.878531   0.803729
C  -1.402521   0.181411   0.040293
H  -2.684621  -1.256333  -0.792243
H  -2.711886  -1.268827   0.964791
C  -0.180594  -0.693379   0.012517
H  -1.393778   0.885601   0.930573
H  -1.318981   0.778530  -0.812166
H  -0.152199  -1.260244   0.876041
H   0.747131  -0.077641   0.002914
H  -0.186241  -1.386318  -0.859163
