butane_opt
 OpenBabel08242015383D

 14 13  0  0  0  0  0  0  0  0999 V2000
   -3.9111    0.2753    0.1117 C   0  0  0  0  0  0  0  0  0  0  0  0
   -2.6873   -0.6394   -0.0793 C   0  0  0  0  0  0  0  0  0  0  0  0
   -4.7237   -0.2589    0.3249 H   0  0  0  0  0  0  0  0  0  0  0  0
   -4.0184    0.9582   -0.8177 H   0  0  0  0  0  0  0  0  0  0  0  0
   -3.8425    1.1248    1.0836 H   0  0  0  0  0  0  0  0  0  0  0  0
   -1.4205    0.1514   -0.1064 C   0  0  0  0  0  0  0  0  0  0  0  0
   -2.9372   -1.4067   -0.9751 H   0  0  0  0  0  0  0  0  0  0  0  0
   -2.5921   -1.1779    0.7332 H   0  0  0  0  0  0  0  0  0  0  0  0
   -0.1937   -0.6733    0.1245 C   0  0  0  0  0  0  0  0  0  0  0  0
   -1.4334    0.8767    0.7896 H   0  0  0  0  0  0  0  0  0  0  0  0
   -1.2703    0.6962   -1.0237 H   0  0  0  0  0  0  0  0  0  0  0  0
   -0.3633   -1.3970    1.1327 H   0  0  0  0  0  0  0  0  0  0  0  0
    0.7875   -0.0188    0.1111 H   0  0  0  0  0  0  0  0  0  0  0  0
   -0.0978   -1.1971   -0.5108 H   0  0  0  0  0  0  0  0  0  0  0  0
  1  3  1  0  0  0  0
  1  5  1  0  0  0  0
  2  1  1  0  0  0  0
  2  8  1  0  0  0  0
  4  1  1  0  0  0  0
  6  2  1  0  0  0  0
  6  9  1  0  0  0  0
  6 10  1  0  0  0  0
  7  2  1  0  0  0  0
  9 12  1  0  0  0  0
 11  6  1  0  0  0  0
 13  9  1  0  0  0  0
 14  9  1  0  0  0  0
M  END
$$$$
