14
butane_opt
C  -3.924328   0.312567  -0.015286
C  -2.687314  -0.645090   0.050495
H  -4.934455  -0.270759  -0.035459
H  -3.821505   1.035347  -1.023693
H  -4.029863   0.783439   0.700116
C  -1.372798   0.124761   0.099923
H  -2.599232  -1.334374  -0.707648
H  -2.708572  -1.352785   0.961562
C  -0.199951  -0.660189  -0.020528
H  -1.386427   1.105028   1.173602
H  -1.420372   0.638704  -0.713969
H  -0.179289  -1.491076   0.963447
H   0.707614  -0.077490  -0.454882
H  -0.448506  -1.085960  -0.805123
