butane_opt
 OpenBabel08242015383D

 14 12  0  0  0  0  0  0  0  0999 V2000
   -3.9391    0.2196    0.0721 C   0  0  0  0  0  0  0  0  0  0  0  0
   -2.6973   -0.5479   -0.0572 C   0  0  0  0  0  0  0  0  0  0  0  0
   -4.9531   -0.4863    0.0588 H   0  0  0  0  0  0  0  0  0  0  0  0
   -3.9783    0.7519   -0.7006 H   0  0  0  0  0  0  0  0  0  0  0  0
   -3.8311    1.1005    1.1180 H   0  0  0  0  0  0  0  0  0  0  0  0
   -1.4126    0.2017   -0.0003 C   0  0  0  0  0  0  0  0  0  0  0  0
   -2.7092   -1.3637   -1.0720 H   0  0  0  0  0  0  0  0  0  0  0  0
   -2.7254   -1.0549    0.7400 H   0  0  0  0  0  0  0  0  0  0  0  0
   -0.1464   -0.7186    0.0938 C   0  0  0  0  0  0  0  0  0  0  0  0
   -1.4966    0.7498    0.7524 H   0  0  0  0  0  0  0  0  0  0  0  0
   -1.2347    0.9470   -1.0003 H   0  0  0  0  0  0  0  0  0  0  0  0
   -0.0857   -1.7683    1.2549 H   0  0  0  0  0  0  0  0  0  0  0  0
    0.6276   -0.1691   -0.3941 H   0  0  0  0  0  0  0  0  0  0  0  0
   -0.2477   -1.0632   -0.5719 H   0  0  0  0  0  0  0  0  0  0  0  0
  1  5  1  0  0  0  0
  2  6  1  0  0  0  0
  2  1  1  0  0  0  0
  2  8  1  0  0  0  0
  3  1  1  0  0  0  0
  4  1  1  0  0  0  0
  6  9  1  0  0  0  0
  6 10  1  0  0  0  0
  7  2  1  0  0  0  0
 11  6  1  0  0  0  0
 13  9  1  0  0  0  0
 14  9  1  0  0  0  0
M  RAD  2   9   2  12   2
M  END
$$$$
