butane_opt
 OpenBabel08242015383D

 14 13  0  0  0  0  0  0  0  0999 V2000
   -3.9832    0.2162    0.0617 C   0  0  0  0  0  0  0  0  0  0  0  0
   -2.6949   -0.5722    0.0346 C   0  0  0  0  0  0  0  0  0  0  0  0
   -4.9053   -0.4551    0.0928 H   0  0  0  0  0  0  0  0  0  0  0  0
   -3.8129    0.8545   -0.8083 H   0  0  0  0  0  0  0  0  0  0  0  0
   -4.0287    1.0109    1.0182 H   0  0  0  0  0  0  0  0  0  0  0  0
   -1.4177    0.2066   -0.0875 C   0  0  0  0  0  0  0  0  0  0  0  0
   -2.8500   -1.2870   -0.9004 H   0  0  0  0  0  0  0  0  0  0  0  0
   -2.5651   -1.0888    0.8935 H   0  0  0  0  0  0  0  0  0  0  0  0
   -0.1353   -0.7191    0.0832 C   0  0  0  0  0  0  0  0  0  0  0  0
   -1.3977    0.7737    0.7082 H   0  0  0  0  0  0  0  0  0  0  0  0
   -1.3141    1.0157   -1.0415 H   0  0  0  0  0  0  0  0  0  0  0  0
   -0.2184   -1.1498    0.8534 H   0  0  0  0  0  0  0  0  0  0  0  0
    0.6835   -0.1645    0.4306 H   0  0  0  0  0  0  0  0  0  0  0  0
    0.1825   -1.5995   -0.9232 H   0  0  0  0  0  0  0  0  0  0  0  0
  1  3  1  0  0  0  0
  1  5  1  0  0  0  0
  2  1  1  0  0  0  0
  2  8  1  0  0  0  0
  4  1  1  0  0  0  0
  6  2  1  0  0  0  0
  6  9  1  0  0  0  0
  6 10  1  0  0  0  0
  7  2  1  0  0  0  0
  9 13  1  0  0  0  0
  9 12  1  0  0  0  0
 11  6  1  0  0  0  0
 14  9  1  0  0  0  0
M  END
$$$$
