14
butane_opt
C  -3.923299   0.263040   0.099374
C  -2.693087  -0.589788  -0.087068
H  -4.994113  -0.474347   0.031531
H  -3.926457   0.682508  -0.678313
H  -3.844433   0.919058   1.043043
C  -1.458083   0.201822  -0.019359
H  -2.596215  -1.337544  -0.935894
H  -2.671523  -1.088646   0.630678
C  -0.153332  -0.708865   0.119570
H  -1.492182   0.784345   0.813286
H  -1.210564   0.908945  -0.972870
H  -0.014632  -1.678512   1.203383
H   0.765292  -0.165579  -0.496638
H  -0.293175  -1.019440  -0.512348
