butane_opt
 OpenBabel08242015383D

 14 12  0  0  0  0  0  0  0  0999 V2000
   -3.9960    0.2872   -0.0247 C   0  0  0  0  0  0  0  0  0  0  0  0
   -2.7248   -0.6292    0.1069 C   0  0  0  0  0  0  0  0  0  0  0  0
   -4.8972   -0.2317    0.0797 H   0  0  0  0  0  0  0  0  0  0  0  0
   -3.9276    1.0695   -1.0493 H   0  0  0  0  0  0  0  0  0  0  0  0
   -3.9647    0.7739    0.7967 H   0  0  0  0  0  0  0  0  0  0  0  0
   -1.3567    0.1418    0.0164 C   0  0  0  0  0  0  0  0  0  0  0  0
   -2.6300   -1.2109   -0.6495 H   0  0  0  0  0  0  0  0  0  0  0  0
   -2.7713   -1.3597    1.0960 H   0  0  0  0  0  0  0  0  0  0  0  0
   -0.1531   -0.6613    0.0016 C   0  0  0  0  0  0  0  0  0  0  0  0
   -1.3681    0.8496    0.9017 H   0  0  0  0  0  0  0  0  0  0  0  0
   -1.3120    0.8312   -0.8600 H   0  0  0  0  0  0  0  0  0  0  0  0
   -0.0522   -0.9820    0.6717 H   0  0  0  0  0  0  0  0  0  0  0  0
    0.7452   -0.0322    0.4097 H   0  0  0  0  0  0  0  0  0  0  0  0
   -0.1124   -1.8443   -1.2116 H   0  0  0  0  0  0  0  0  0  0  0  0
  1  3  1  0  0  0  0
  1  2  1  0  0  0  0
  1  5  1  0  0  0  0
  2  8  1  0  0  0  0
  4  1  1  0  0  0  0
  6  2  1  0  0  0  0
  6 10  1  0  0  0  0
  7  2  1  0  0  0  0
  9  6  1  0  0  0  0
  9 13  1  0  0  0  0
  9 12  1  0  0  0  0
 11  6  1  0  0  0  0
M  RAD  2   9   2  14   2
M  END
$$$$
