14
butane_opt
C  -3.883720   0.282515   0.092396
C  -2.695856  -0.622436  -0.057230
H  -4.774501  -0.313611   0.478084
H  -4.341181   1.086379  -0.872376
H  -3.667396   0.671397   0.696419
C  -1.407227   0.154274  -0.036732
H  -2.719520  -1.526290  -1.151145
H  -2.774913  -1.040384   0.759060
C  -0.199445  -0.677873   0.108217
H  -1.496080   0.806435   0.819166
H  -1.356590   0.933306  -0.976461
H  -0.227684  -1.332547   1.066600
H   0.684118  -0.053645   0.076275
H  -0.121042  -1.347533  -0.761925
