butane_opt
 OpenBabel08242015383D

 14 13  0  0  0  0  0  0  0  0999 V2000
   -3.8890    0.2301   -0.0735 C   0  0  0  0  0  0  0  0  0  0  0  0
   -2.7035   -0.5924    0.1449 C   0  0  0  0  0  0  0  0  0  0  0  0
   -4.9627   -0.4054   -0.2428 H   0  0  0  0  0  0  0  0  0  0  0  0
   -3.7948    0.9911   -1.0893 H   0  0  0  0  0  0  0  0  0  0  0  0
   -4.0501    0.7941    0.6909 H   0  0  0  0  0  0  0  0  0  0  0  0
   -1.4492    0.2103    0.1653 C   0  0  0  0  0  0  0  0  0  0  0  0
   -2.4417   -1.2972   -0.6612 H   0  0  0  0  0  0  0  0  0  0  0  0
   -2.8575   -1.1848    0.9884 H   0  0  0  0  0  0  0  0  0  0  0  0
   -0.1786   -0.7061   -0.0990 C   0  0  0  0  0  0  0  0  0  0  0  0
   -1.2592    1.0947    1.1348 H   0  0  0  0  0  0  0  0  0  0  0  0
   -1.5624    0.8000   -0.7113 H   0  0  0  0  0  0  0  0  0  0  0  0
    0.1325   -1.5599    0.9607 H   0  0  0  0  0  0  0  0  0  0  0  0
    0.6755   -0.1792   -0.4054 H   0  0  0  0  0  0  0  0  0  0  0  0
   -0.2462   -1.2535   -0.8609 H   0  0  0  0  0  0  0  0  0  0  0  0
  1  2  1  0  0  0  0
  1  5  1  0  0  0  0
  2  6  1  0  0  0  0
  2  8  1  0  0  0  0
  3  1  1  0  0  0  0
  4  1  1  0  0  0  0
  6 10  1  0  0  0  0
  7  2  1  0  0  0  0
  9  6  1  0  0  0  0
  9 12  1  0  0  0  0
 11  6  1  0  0  0  0
 13  9  1  0  0  0  0
 14  9  1  0  0  0  0
M  END
$$$$
