butane_opt
 OpenBabel08242015383D

 14 13  0  0  0  0  0  0  0  0999 V2000
   -3.9573    0.2459   -0.0092 C   0  0  0  0  0  0  0  0  0  0  0  0
   -2.7030   -0.5991    0.0522 C   0  0  0  0  0  0  0  0  0  0  0  0
   -4.8451   -0.3367    0.1736 H   0  0  0  0  0  0  0  0  0  0  0  0
   -4.0124    0.9952   -0.9818 H   0  0  0  0  0  0  0  0  0  0  0  0
   -3.9030    0.7971    0.7960 H   0  0  0  0  0  0  0  0  0  0  0  0
   -1.4063    0.2000    0.0458 C   0  0  0  0  0  0  0  0  0  0  0  0
   -2.7247   -1.2787   -0.7723 H   0  0  0  0  0  0  0  0  0  0  0  0
   -2.7930   -1.2018    0.9356 H   0  0  0  0  0  0  0  0  0  0  0  0
   -0.1377   -0.7111    0.0164 C   0  0  0  0  0  0  0  0  0  0  0  0
   -1.3716    0.8774    0.8900 H   0  0  0  0  0  0  0  0  0  0  0  0
   -1.4551    0.8285   -0.8412 H   0  0  0  0  0  0  0  0  0  0  0  0
   -0.1003   -1.2033    0.8525 H   0  0  0  0  0  0  0  0  0  0  0  0
    0.7519   -0.1405    0.0111 H   0  0  0  0  0  0  0  0  0  0  0  0
   -0.1148   -1.4374   -0.9068 H   0  0  0  0  0  0  0  0  0  0  0  0
  1  2  1  0  0  0  0
  1  3  1  0  0  0  0
  1  5  1  0  0  0  0
  2  8  1  0  0  0  0
  4  1  1  0  0  0  0
  6  2  1  0  0  0  0
  6 10  1  0  0  0  0
  7  2  1  0  0  0  0
  9  6  1  0  0  0  0
  9 12  1  0  0  0  0
 11  6  1  0  0  0  0
 13  9  1  0  0  0  0
 14  9  1  0  0  0  0
M  END
$$$$
