butane_opt
 OpenBabel08242015383D

 14 13  0  0  0  0  0  0  0  0999 V2000
   -3.9159    0.2491   -0.0286 C   0  0  0  0  0  0  0  0  0  0  0  0
   -2.7677   -0.6077    0.1034 C   0  0  0  0  0  0  0  0  0  0  0  0
   -4.8461   -0.3253    0.2188 H   0  0  0  0  0  0  0  0  0  0  0  0
   -3.8496    1.0807   -1.0764 H   0  0  0  0  0  0  0  0  0  0  0  0
   -4.1181    0.6390    0.4736 H   0  0  0  0  0  0  0  0  0  0  0  0
   -1.4090    0.2393    0.0474 C   0  0  0  0  0  0  0  0  0  0  0  0
   -2.7629   -1.1276   -0.5539 H   0  0  0  0  0  0  0  0  0  0  0  0
   -2.7847   -1.4012    1.1383 H   0  0  0  0  0  0  0  0  0  0  0  0
   -0.1163   -0.7397   -0.0408 C   0  0  0  0  0  0  0  0  0  0  0  0
   -1.3262    1.1035    1.0108 H   0  0  0  0  0  0  0  0  0  0  0  0
   -1.4695    0.7037   -0.6885 H   0  0  0  0  0  0  0  0  0  0  0  0
   -0.1855   -0.9850    0.6113 H   0  0  0  0  0  0  0  0  0  0  0  0
    0.7792   -0.1550    0.3732 H   0  0  0  0  0  0  0  0  0  0  0  0
    0.0547   -1.7175   -1.0955 H   0  0  0  0  0  0  0  0  0  0  0  0
  1  2  1  0  0  0  0
  1  3  1  0  0  0  0
  1  5  1  0  0  0  0
  2  8  1  0  0  0  0
  4  1  1  0  0  0  0
  6  2  1  0  0  0  0
  6 10  1  0  0  0  0
  7  2  1  0  0  0  0
  9  6  1  0  0  0  0
  9 13  1  0  0  0  0
  9 12  1  0  0  0  0
 11  6  1  0  0  0  0
 14  9  1  0  0  0  0
M  END
$$$$
