14
butane_opt
C  -3.926047   0.276899  -0.071199
C  -2.676468  -0.628445   0.079618
H  -4.807804  -0.306868   0.424759
H  -4.151574   1.237280  -1.184729
H  -3.928723   0.495660   0.490196
C  -1.390543   0.173484   0.158449
H  -2.544250  -1.270530  -0.777561
H  -2.746226  -1.268055   1.014249
C  -0.196607  -0.672303  -0.041499
H  -1.269620   0.802407   0.983876
H  -1.540952   0.769945  -0.663168
H  -0.060150  -1.054918   0.710371
H   0.584893  -0.108577  -0.108118
H  -0.267816  -1.566640  -1.007642
