butane_opt
 OpenBabel08242015383D

 14 13  0  0  0  0  0  0  0  0999 V2000
   -3.9435    0.2907    0.1008 C   0  0  0  0  0  0  0  0  0  0  0  0
   -2.6349   -0.6520   -0.0539 C   0  0  0  0  0  0  0  0  0  0  0  0
   -4.8320   -0.2653    0.2034 H   0  0  0  0  0  0  0  0  0  0  0  0
   -4.0672    0.9014   -0.8217 H   0  0  0  0  0  0  0  0  0  0  0  0
   -3.8580    0.9105    0.8934 H   0  0  0  0  0  0  0  0  0  0  0  0
   -1.4089    0.1643   -0.0931 C   0  0  0  0  0  0  0  0  0  0  0  0
   -2.7820   -1.3147   -0.9313 H   0  0  0  0  0  0  0  0  0  0  0  0
   -2.4913   -1.2775    0.8452 H   0  0  0  0  0  0  0  0  0  0  0  0
   -0.2409   -0.6828    0.1259 C   0  0  0  0  0  0  0  0  0  0  0  0
   -1.3168    0.8746    0.7958 H   0  0  0  0  0  0  0  0  0  0  0  0
   -1.3373    0.7095   -0.8695 H   0  0  0  0  0  0  0  0  0  0  0  0
   -0.3182   -1.1687    1.0040 H   0  0  0  0  0  0  0  0  0  0  0  0
    0.7333   -0.0171    0.0659 H   0  0  0  0  0  0  0  0  0  0  0  0
   -0.0233   -1.2597   -0.7250 H   0  0  0  0  0  0  0  0  0  0  0  0
  1  3  1  0  0  0  0
  1  5  1  0  0  0  0
  2  1  1  0  0  0  0
  2  8  1  0  0  0  0
  4  1  1  0  0  0  0
  6  2  1  0  0  0  0
  6  9  1  0  0  0  0
  6 10  1  0  0  0  0
  7  2  1  0  0  0  0
  9 12  1  0  0  0  0
 11  6  1  0  0  0  0
 13  9  1  0  0  0  0
 14  9  1  0  0  0  0
M  END
$$$$
