14
butane_opt
C  -3.931564   0.307144   0.083635
C  -2.688027  -0.667755  -0.058119
H  -4.712881  -0.238054  -0.263563
H  -3.968757   0.643290  -0.593999
H  -3.930734   1.291356   1.260603
C  -1.407809   0.140354  -0.051984
H  -2.759911  -1.300119  -0.919132
H  -2.645033  -1.392974   0.881296
C  -0.195720  -0.654973   0.110500
H  -1.471268   0.809646   0.771085
H  -1.349293   0.869399  -0.982779
H  -0.149423  -1.609026   1.265411
H   0.881710   0.066970  -0.321799
H  -0.286277  -1.071575  -0.625113
