butane_opt
 OpenBabel08242015383D

 14 13  0  0  0  0  0  0  0  0999 V2000
   -3.9243    0.3126   -0.0153 C   0  0  0  0  0  0  0  0  0  0  0  0
   -2.6873   -0.6451    0.0505 C   0  0  0  0  0  0  0  0  0  0  0  0
   -4.9345   -0.2708   -0.0355 H   0  0  0  0  0  0  0  0  0  0  0  0
   -3.8215    1.0353   -1.0237 H   0  0  0  0  0  0  0  0  0  0  0  0
   -4.0299    0.7834    0.7001 H   0  0  0  0  0  0  0  0  0  0  0  0
   -1.3728    0.1248    0.0999 C   0  0  0  0  0  0  0  0  0  0  0  0
   -2.5992   -1.3344   -0.7076 H   0  0  0  0  0  0  0  0  0  0  0  0
   -2.7086   -1.3528    0.9616 H   0  0  0  0  0  0  0  0  0  0  0  0
   -0.2000   -0.6602   -0.0205 C   0  0  0  0  0  0  0  0  0  0  0  0
   -1.3864    1.1050    1.1736 H   0  0  0  0  0  0  0  0  0  0  0  0
   -1.4204    0.6387   -0.7140 H   0  0  0  0  0  0  0  0  0  0  0  0
   -0.1793   -1.4911    0.9634 H   0  0  0  0  0  0  0  0  0  0  0  0
    0.7076   -0.0775   -0.4549 H   0  0  0  0  0  0  0  0  0  0  0  0
   -0.4485   -1.0860   -0.8051 H   0  0  0  0  0  0  0  0  0  0  0  0
  1  2  1  0  0  0  0
  1  5  1  0  0  0  0
  2  6  1  0  0  0  0
  2  8  1  0  0  0  0
  3  1  1  0  0  0  0
  4  1  1  0  0  0  0
  6 10  1  0  0  0  0
  7  2  1  0  0  0  0
  9  6  1  0  0  0  0
  9 12  1  0  0  0  0
 11  6  1  0  0  0  0
 13  9  1  0  0  0  0
 14  9  1  0  0  0  0
M  END
$$$$
