butane_opt
 OpenBabel08242015383D

 14 13  0  0  0  0  0  0  0  0999 V2000
   -3.8978    0.2445    0.0901 C   0  0  0  0  0  0  0  0  0  0  0  0
   -2.7206   -0.5957   -0.0081 C   0  0  0  0  0  0  0  0  0  0  0  0
   -4.7692   -0.3702    0.1135 H   0  0  0  0  0  0  0  0  0  0  0  0
   -4.0073    0.8050   -0.7598 H   0  0  0  0  0  0  0  0  0  0  0  0
   -4.0578    1.0006    1.0192 H   0  0  0  0  0  0  0  0  0  0  0  0
   -1.4075    0.2121   -0.1185 C   0  0  0  0  0  0  0  0  0  0  0  0
   -2.8597   -1.2042   -0.7653 H   0  0  0  0  0  0  0  0  0  0  0  0
   -2.6173   -1.2872    0.8234 H   0  0  0  0  0  0  0  0  0  0  0  0
   -0.1588   -0.7257    0.1124 C   0  0  0  0  0  0  0  0  0  0  0  0
   -1.4360    0.8694    0.6775 H   0  0  0  0  0  0  0  0  0  0  0  0
   -1.4062    0.8091   -1.0286 H   0  0  0  0  0  0  0  0  0  0  0  0
   -0.3997   -1.0885    0.7928 H   0  0  0  0  0  0  0  0  0  0  0  0
    0.6984   -0.1259    0.4545 H   0  0  0  0  0  0  0  0  0  0  0  0
    0.0786   -1.5100   -0.8035 H   0  0  0  0  0  0  0  0  0  0  0  0
  1  3  1  0  0  0  0
  1  5  1  0  0  0  0
  2  1  1  0  0  0  0
  2  8  1  0  0  0  0
  4  1  1  0  0  0  0
  6  2  1  0  0  0  0
  6  9  1  0  0  0  0
  6 10  1  0  0  0  0
  7  2  1  0  0  0  0
  9 13  1  0  0  0  0
  9 12  1  0  0  0  0
 11  6  1  0  0  0  0
 14  9  1  0  0  0  0
M  END
$$$$
