14
butane_opt
C  -3.896955   0.276917   0.042820
C  -2.681193  -0.627872   0.005685
H  -4.793729  -0.269120  -0.240492
H  -3.984684   0.517847  -0.649558
H  -4.109091   1.360068   1.133543
C  -1.430079   0.157477  -0.046588
H  -2.728044  -1.273442  -0.735438
H  -2.536787  -1.371396   0.951479
C  -0.187368  -0.665903   0.091011
H  -1.511737   0.752802   0.742277
H  -1.323685   0.742974  -0.934672
H  -0.185613  -1.431508   1.103197
H   0.770127   0.066886  -0.238951
H  -0.279270  -1.243320  -0.780446
