butane_opt
 OpenBabel08242015383D

 14 12  0  0  0  0  0  0  0  0999 V2000
   -3.9171    0.2806   -0.0081 C   0  0  0  0  0  0  0  0  0  0  0  0
   -2.6691   -0.6582    0.0938 C   0  0  0  0  0  0  0  0  0  0  0  0
   -4.8816   -0.2681   -0.2974 H   0  0  0  0  0  0  0  0  0  0  0  0
   -3.8885    0.6599   -0.6884 H   0  0  0  0  0  0  0  0  0  0  0  0
   -4.1630    1.3608    1.1465 H   0  0  0  0  0  0  0  0  0  0  0  0
   -1.3983    0.1778   -0.0012 C   0  0  0  0  0  0  0  0  0  0  0  0
   -2.5236   -1.3418   -0.7712 H   0  0  0  0  0  0  0  0  0  0  0  0
   -2.7571   -1.2536    0.8986 H   0  0  0  0  0  0  0  0  0  0  0  0
   -0.2175   -0.6817    0.0408 C   0  0  0  0  0  0  0  0  0  0  0  0
   -1.2846    0.6656    0.6881 H   0  0  0  0  0  0  0  0  0  0  0  0
   -1.3049    0.9012   -0.9419 H   0  0  0  0  0  0  0  0  0  0  0  0
   -0.2100   -1.2714    0.9220 H   0  0  0  0  0  0  0  0  0  0  0  0
    0.7367   -0.0418   -0.1722 H   0  0  0  0  0  0  0  0  0  0  0  0
   -0.2998   -1.3161   -0.8028 H   0  0  0  0  0  0  0  0  0  0  0  0
  1  2  1  0  0  0  0
  2  8  1  0  0  0  0
  3  1  1  0  0  0  0
  4  1  1  0  0  0  0
  6  9  1  0  0  0  0
  6  2  1  0  0  0  0
  6 10  1  0  0  0  0
  7  2  1  0  0  0  0
  9 12  1  0  0  0  0
 11  6  1  0  0  0  0
 13  9  1  0  0  0  0
 14  9  1  0  0  0  0
M  RAD  2   1   2   5   2
M  END
$$$$
