14
butane_opt
C  -3.997353   0.281009  -0.029539
C  -2.693533  -0.632256   0.090927
H  -4.952445  -0.347718  -0.094039
H  -3.983736   1.042110  -1.068879
H  -4.061709   0.836976   0.737201
C  -1.410501   0.158924   0.126607
H  -2.550395  -1.404680  -0.850442
H  -2.735846  -1.187447   0.857617
C  -0.124802  -0.669440  -0.038348
H  -1.082272   0.910330   1.015385
H  -1.456081   0.820423  -0.762663
H  -0.010868  -1.505139   1.006982
H   0.851465  -0.127747  -0.370285
H  -0.318312  -1.163984  -0.804442
