butane_opt
 OpenBabel08242015383D

 14 13  0  0  0  0  0  0  0  0999 V2000
   -3.9784    0.2964    0.0973 C   0  0  0  0  0  0  0  0  0  0  0  0
   -2.6838   -0.6728   -0.0750 C   0  0  0  0  0  0  0  0  0  0  0  0
   -4.7941   -0.1971    0.5283 H   0  0  0  0  0  0  0  0  0  0  0  0
   -4.2168    1.0108   -0.8096 H   0  0  0  0  0  0  0  0  0  0  0  0
   -3.8995    0.7233    0.8400 H   0  0  0  0  0  0  0  0  0  0  0  0
   -1.3977    0.1738   -0.0671 C   0  0  0  0  0  0  0  0  0  0  0  0
   -2.7763   -1.4270   -1.0172 H   0  0  0  0  0  0  0  0  0  0  0  0
   -2.6501   -1.1701    0.7782 H   0  0  0  0  0  0  0  0  0  0  0  0
   -0.1378   -0.6376    0.0926 C   0  0  0  0  0  0  0  0  0  0  0  0
   -1.4412    0.8250    0.8259 H   0  0  0  0  0  0  0  0  0  0  0  0
   -1.2646    0.7924   -0.9303 H   0  0  0  0  0  0  0  0  0  0  0  0
   -0.3874   -1.4223    1.0526 H   0  0  0  0  0  0  0  0  0  0  0  0
    0.6779   -0.1725    0.2879 H   0  0  0  0  0  0  0  0  0  0  0  0
    0.0861   -1.3412   -0.7009 H   0  0  0  0  0  0  0  0  0  0  0  0
  1  3  1  0  0  0  0
  1  5  1  0  0  0  0
  2  6  1  0  0  0  0
  2  1  1  0  0  0  0
  2  8  1  0  0  0  0
  4  1  1  0  0  0  0
  6  9  1  0  0  0  0
  6 10  1  0  0  0  0
  7  2  1  0  0  0  0
  9 13  1  0  0  0  0
  9 12  1  0  0  0  0
 11  6  1  0  0  0  0
 14  9  1  0  0  0  0
M  END
$$$$
