14
butane_opt
C  -3.902843   0.237724   0.107670
C  -2.694841  -0.604350  -0.090476
H  -4.910679  -0.447596   0.418784
H  -4.088789   0.981857  -0.930884
H  -3.702674   0.731249   0.948848
C  -1.420058   0.234716  -0.044659
H  -2.771508  -1.262642  -0.951877
H  -2.555439  -1.083321   0.672134
C  -0.177927  -0.718342   0.107778
H  -1.585931   1.010693   0.777748
H  -1.279177   0.818381  -0.932921
H  -0.347742  -1.529676   1.136835
H   0.589667  -0.240394  -0.000838
H   0.015632  -1.279973  -0.685097
