butane_opt
 OpenBabel08242015383D

 14 13  0  0  0  0  0  0  0  0999 V2000
   -3.9591    0.2758   -0.0032 C   0  0  0  0  0  0  0  0  0  0  0  0
   -2.6977   -0.6284    0.0485 C   0  0  0  0  0  0  0  0  0  0  0  0
   -4.8825   -0.3199   -0.0062 H   0  0  0  0  0  0  0  0  0  0  0  0
   -4.0034    0.8987   -0.8787 H   0  0  0  0  0  0  0  0  0  0  0  0
   -4.0304    0.9645    0.8652 H   0  0  0  0  0  0  0  0  0  0  0  0
   -1.3814    0.1705    0.0460 C   0  0  0  0  0  0  0  0  0  0  0  0
   -2.6663   -1.3198   -0.8122 H   0  0  0  0  0  0  0  0  0  0  0  0
   -2.7597   -1.2382    0.9661 H   0  0  0  0  0  0  0  0  0  0  0  0
   -0.1617   -0.6830    0.0170 C   0  0  0  0  0  0  0  0  0  0  0  0
   -1.3468    0.8475    0.8990 H   0  0  0  0  0  0  0  0  0  0  0  0
   -1.3875    0.8231   -0.8537 H   0  0  0  0  0  0  0  0  0  0  0  0
   -0.0669   -1.3500    0.9341 H   0  0  0  0  0  0  0  0  0  0  0  0
    0.7392   -0.1039   -0.1541 H   0  0  0  0  0  0  0  0  0  0  0  0
   -0.2148   -1.2954   -0.8125 H   0  0  0  0  0  0  0  0  0  0  0  0
  1  2  1  0  0  0  0
  1  5  1  0  0  0  0
  2  8  1  0  0  0  0
  3  1  1  0  0  0  0
  4  1  1  0  0  0  0
  6  2  1  0  0  0  0
  6 10  1  0  0  0  0
  7  2  1  0  0  0  0
  9  6  1  0  0  0  0
  9 12  1  0  0  0  0
 11  6  1  0  0  0  0
 13  9  1  0  0  0  0
 14  9  1  0  0  0  0
M  END
$$$$
