14
butane_opt
C  -3.939066   0.219567   0.072128
C  -2.697263  -0.547936  -0.057181
H  -4.953090  -0.486279   0.058795
H  -3.978318   0.751914  -0.700604
H  -3.831092   1.100489   1.118003
C  -1.412590   0.201652  -0.000272
H  -2.709233  -1.363665  -1.072044
H  -2.725380  -1.054858   0.739957
C  -0.146446  -0.718581   0.093830
H  -1.496612   0.749762   0.752399
H  -1.234726   0.946960  -1.000263
H  -0.085729  -1.768319   1.254888
H   0.627613  -0.169060  -0.394094
H  -0.247748  -1.063186  -0.571893
