butane_opt
 OpenBabel08242015383D

 14 13  0  0  0  0  0  0  0  0999 V2000
   -3.9765    0.2782    0.1296 C   0  0  0  0  0  0  0  0  0  0  0  0
   -2.6686   -0.6128   -0.1593 C   0  0  0  0  0  0  0  0  0  0  0  0
   -4.7954   -0.3300    0.5856 H   0  0  0  0  0  0  0  0  0  0  0  0
   -4.2477    1.1142   -0.8454 H   0  0  0  0  0  0  0  0  0  0  0  0
   -3.6332    0.8583    0.9561 H   0  0  0  0  0  0  0  0  0  0  0  0
   -1.3939    0.1365   -0.0701 C   0  0  0  0  0  0  0  0  0  0  0  0
   -2.7535   -1.3919   -1.0642 H   0  0  0  0  0  0  0  0  0  0  0  0
   -2.3472   -1.3156    0.7789 H   0  0  0  0  0  0  0  0  0  0  0  0
   -0.2074   -0.6514    0.1413 C   0  0  0  0  0  0  0  0  0  0  0  0
   -1.5038    0.7792    0.7623 H   0  0  0  0  0  0  0  0  0  0  0  0
   -1.1878    0.7359   -1.0168 H   0  0  0  0  0  0  0  0  0  0  0  0
   -0.2075   -1.4250    1.2132 H   0  0  0  0  0  0  0  0  0  0  0  0
    0.7952    0.0243    0.1903 H   0  0  0  0  0  0  0  0  0  0  0  0
   -0.2076   -1.2829   -0.6324 H   0  0  0  0  0  0  0  0  0  0  0  0
  1  3  1  0  0  0  0
  1  5  1  0  0  0  0
  2  6  1  0  0  0  0
  2  1  1  0  0  0  0
  2  8  1  0  0  0  0
  4  1  1  0  0  0  0
  6  9  1  0  0  0  0
  6 10  1  0  0  0  0
  7  2  1  0  0  0  0
  9 13  1  0  0  0  0
  9 12  1  0  0  0  0
 11  6  1  0  0  0  0
 14  9  1  0  0  0  0
M  END
$$$$
