butane_opt
 OpenBabel08242015383D

 14 12  0  0  0  0  0  0  0  0999 V2000
   -3.9248    0.2809   -0.0074 C   0  0  0  0  0  0  0  0  0  0  0  0
   -2.6723   -0.6478    0.0353 C   0  0  0  0  0  0  0  0  0  0  0  0
   -4.8967   -0.2856    0.3395 H   0  0  0  0  0  0  0  0  0  0  0  0
   -4.1553    1.3403   -1.1096 H   0  0  0  0  0  0  0  0  0  0  0  0
   -3.8257    0.5799    0.6314 H   0  0  0  0  0  0  0  0  0  0  0  0
   -1.3982    0.1743    0.0737 C   0  0  0  0  0  0  0  0  0  0  0  0
   -2.6271   -1.3198   -0.7559 H   0  0  0  0  0  0  0  0  0  0  0  0
   -2.6617   -1.3022    0.9167 H   0  0  0  0  0  0  0  0  0  0  0  0
   -0.2173   -0.6845   -0.0144 C   0  0  0  0  0  0  0  0  0  0  0  0
   -1.0906    1.0257    1.0372 H   0  0  0  0  0  0  0  0  0  0  0  0
   -1.4238    0.7750   -0.8323 H   0  0  0  0  0  0  0  0  0  0  0  0
   -0.2973   -1.2272    0.8441 H   0  0  0  0  0  0  0  0  0  0  0  0
    0.7003   -0.0347    0.2061 H   0  0  0  0  0  0  0  0  0  0  0  0
   -0.1837   -1.5056   -0.9269 H   0  0  0  0  0  0  0  0  0  0  0  0
  1  2  1  0  0  0  0
  1  3  1  0  0  0  0
  1  5  1  0  0  0  0
  2  6  1  0  0  0  0
  2  8  1  0  0  0  0
  6 10  1  0  0  0  0
  7  2  1  0  0  0  0
  9  6  1  0  0  0  0
  9 13  1  0  0  0  0
  9 12  1  0  0  0  0
 11  6  1  0  0  0  0
 14  9  1  0  0  0  0
M  RAD  2   1   2   4   2
M  END
$$$$
