butane_opt
 OpenBabel08242015383D

 14 12  0  0  0  0  0  0  0  0999 V2000
   -3.8970    0.2769    0.0428 C   0  0  0  0  0  0  0  0  0  0  0  0
   -2.6812   -0.6279    0.0057 C   0  0  0  0  0  0  0  0  0  0  0  0
   -4.7937   -0.2691   -0.2405 H   0  0  0  0  0  0  0  0  0  0  0  0
   -3.9847    0.5178   -0.6496 H   0  0  0  0  0  0  0  0  0  0  0  0
   -4.1091    1.3601    1.1335 H   0  0  0  0  0  0  0  0  0  0  0  0
   -1.4301    0.1575   -0.0466 C   0  0  0  0  0  0  0  0  0  0  0  0
   -2.7280   -1.2734   -0.7354 H   0  0  0  0  0  0  0  0  0  0  0  0
   -2.5368   -1.3714    0.9515 H   0  0  0  0  0  0  0  0  0  0  0  0
   -0.1874   -0.6659    0.0910 C   0  0  0  0  0  0  0  0  0  0  0  0
   -1.5117    0.7528    0.7423 H   0  0  0  0  0  0  0  0  0  0  0  0
   -1.3237    0.7430   -0.9347 H   0  0  0  0  0  0  0  0  0  0  0  0
   -0.1856   -1.4315    1.1032 H   0  0  0  0  0  0  0  0  0  0  0  0
    0.7701    0.0669   -0.2390 H   0  0  0  0  0  0  0  0  0  0  0  0
   -0.2793   -1.2433   -0.7804 H   0  0  0  0  0  0  0  0  0  0  0  0
  2  1  1  0  0  0  0
  2  8  1  0  0  0  0
  3  1  1  0  0  0  0
  4  1  1  0  0  0  0
  6  2  1  0  0  0  0
  6  9  1  0  0  0  0
  6 10  1  0  0  0  0
  7  2  1  0  0  0  0
  9 12  1  0  0  0  0
 11  6  1  0  0  0  0
 13  9  1  0  0  0  0
 14  9  1  0  0  0  0
M  RAD  2   1   2   5   2
M  END
$$$$
