14
butane_opt
C  -3.858842   0.247400  -0.040331
C  -2.724054  -0.589605   0.084400
H  -4.811836  -0.442194   0.469568
H  -3.989915   1.303106  -1.254611
H  -3.839032   0.368774   0.485768
C  -1.427563   0.201706   0.097602
H  -2.798336  -1.207928  -0.836355
H  -2.727292  -1.072187   0.879597
C  -0.189305  -0.720923  -0.012943
H  -1.387501   0.978653   1.054764
H  -1.581987   0.763484  -0.710126
H   0.005775  -1.027335   0.730042
H   0.658389  -0.205185   0.010867
H  -0.146478  -1.608060  -1.007166
