14
butane_opt
C  -3.962123   0.299562  -0.089268
C  -2.714069  -0.672833   0.109886
H  -4.868956  -0.266272  -0.112117
H  -4.074417   0.907081  -0.974822
H  -4.116375   0.901530   0.762495
C  -1.376116   0.205891   0.150263
H  -2.604493  -1.177649  -0.544685
H  -2.899943  -1.373750   1.105830
C  -0.139059  -0.696704  -0.081469
H  -1.301774   0.988393   1.045812
H  -1.289567   0.654667  -0.586037
H   0.007495  -1.468364   0.918972
H   0.763591  -0.016364  -0.351355
H  -0.336476  -1.253434  -0.902787
