butane_opt
 OpenBabel08242015383D

 14 13  0  0  0  0  0  0  0  0999 V2000
   -3.9504    0.2920    0.1099 C   0  0  0  0  0  0  0  0  0  0  0  0
   -2.6895   -0.6069   -0.0956 C   0  0  0  0  0  0  0  0  0  0  0  0
   -4.8868   -0.3432    0.3631 H   0  0  0  0  0  0  0  0  0  0  0  0
   -4.1217    0.9369   -0.8031 H   0  0  0  0  0  0  0  0  0  0  0  0
   -3.8683    0.8376    0.9143 H   0  0  0  0  0  0  0  0  0  0  0  0
   -1.3658    0.1423   -0.0747 C   0  0  0  0  0  0  0  0  0  0  0  0
   -2.8781   -1.3925   -0.9387 H   0  0  0  0  0  0  0  0  0  0  0  0
   -2.4303   -1.1963    0.7608 H   0  0  0  0  0  0  0  0  0  0  0  0
   -0.1858   -0.6635    0.1170 C   0  0  0  0  0  0  0  0  0  0  0  0
   -1.4496    0.7830    0.7373 H   0  0  0  0  0  0  0  0  0  0  0  0
   -1.3066    0.6803   -0.8851 H   0  0  0  0  0  0  0  0  0  0  0  0
   -0.3849   -1.3594    1.1285 H   0  0  0  0  0  0  0  0  0  0  0  0
    0.6666   -0.1260    0.0763 H   0  0  0  0  0  0  0  0  0  0  0  0
   -0.0575   -1.2484   -0.6168 H   0  0  0  0  0  0  0  0  0  0  0  0
  1  3  1  0  0  0  0
  1  5  1  0  0  0  0
  2  6  1  0  0  0  0
  2  1  1  0  0  0  0
  2  8  1  0  0  0  0
  4  1  1  0  0  0  0
  6  9  1  0  0  0  0
  6 10  1  0  0  0  0
  7  2  1  0  0  0  0
  9 12  1  0  0  0  0
 11  6  1  0  0  0  0
 13  9  1  0  0  0  0
 14  9  1  0  0  0  0
M  END
$$$$
