14
butane_opt
C  -3.947328   0.256215  -0.007089
C  -2.714699  -0.612489   0.078886
H  -4.851033  -0.324742  -0.046246
H  -3.892168   0.854048  -0.920055
H  -4.054092   0.989972   0.875887
C  -1.403586   0.189884   0.033735
H  -2.705481  -1.285949  -0.747413
H  -2.757090  -1.206282   0.955305
C  -0.147926  -0.702894   0.002524
H  -1.375784   0.868075   0.876479
H  -1.406538   0.824670  -0.861479
H  -0.091043  -1.304540   0.899683
H   0.772209  -0.089359  -0.007337
H  -0.102654  -1.368442  -0.874942
