14
butane_opt
C  -3.945990   0.247641   0.070121
C  -2.720025  -0.604071  -0.046603
H  -4.775624  -0.314821   0.011185
H  -3.995718   0.783428  -0.820829
H  -3.953104   1.004097   0.953467
C  -1.400207   0.232019  -0.000644
H  -2.756702  -1.291280  -0.867586
H  -2.858559  -1.275394   0.848061
C  -0.155151  -0.747284   0.063158
H  -1.440177   0.938166   0.899939
H  -1.244163   0.838286  -0.865223
H   0.115350  -1.550064   1.114766
H   0.815748  -0.134392  -0.231127
H  -0.271540  -0.987684  -0.588952
