14
butane_opt
C  -3.904347   0.236084   0.131182
C  -2.706872  -0.594374  -0.043403
H  -4.790781  -0.392788   0.262905
H  -3.876502   0.906712  -0.792447
H  -3.769774   0.951025   1.017919
C  -1.447762   0.199033  -0.150864
H  -2.866000  -1.353701  -0.970222
H  -2.593563  -1.039346   0.685760
C  -0.172317  -0.710085   0.147454
H  -1.572700   0.828047   0.653814
H  -1.231092   0.972987  -1.056160
H  -0.386047  -1.187965   0.978995
H   0.752481  -0.156058   0.349983
H   0.087037  -1.579708  -0.735150
