14
butane_opt
C  -3.983197   0.216191   0.061682
C  -2.694930  -0.572172   0.034578
H  -4.905278  -0.455078   0.092791
H  -3.812893   0.854501  -0.808264
H  -4.028734   1.010860   1.018228
C  -1.417731   0.206558  -0.087485
H  -2.850034  -1.286996  -0.900404
H  -2.565098  -1.088840   0.893495
C  -0.135259  -0.719122   0.083179
H  -1.397738   0.773659   0.708160
H  -1.314082   1.015652  -1.041513
H  -0.218351  -1.149807   0.853408
H   0.683517  -0.164528   0.430562
H   0.182542  -1.599518  -0.923162
