14
butane_opt
C  -3.911889   0.286522   0.140605
C  -2.673452  -0.611782  -0.110928
H  -4.880213  -0.271428   0.403271
H  -4.207275   0.907929  -0.810347
H  -3.801130   0.795076   0.870670
C  -1.423505   0.125591  -0.116707
H  -2.983494  -1.383519  -1.122639
H  -2.533993  -1.125944   0.734069
C  -0.170568  -0.663071   0.150654
H  -1.477712   0.894703   0.847755
H  -1.339207   0.754902  -0.970816
H  -0.246439  -1.473571   1.187081
H   0.790795  -0.019044   0.165710
H  -0.201173  -1.196370  -0.625487
