butane_opt
 OpenBabel08242015383D

 14 13  0  0  0  0  0  0  0  0999 V2000
   -3.9122    0.2407   -0.0909 C   0  0  0  0  0  0  0  0  0  0  0  0
   -2.7101   -0.5854    0.0955 C   0  0  0  0  0  0  0  0  0  0  0  0
   -5.0403   -0.5328   -0.0522 H   0  0  0  0  0  0  0  0  0  0  0  0
   -3.8906    0.9185   -0.9221 H   0  0  0  0  0  0  0  0  0  0  0  0
   -3.9045    0.9489    0.7708 H   0  0  0  0  0  0  0  0  0  0  0  0
   -1.3900    0.2271    0.1483 C   0  0  0  0  0  0  0  0  0  0  0  0
   -2.6322   -1.0936   -0.6102 H   0  0  0  0  0  0  0  0  0  0  0  0
   -2.8078   -1.3067    1.0777 H   0  0  0  0  0  0  0  0  0  0  0  0
   -0.1710   -0.7259   -0.0780 C   0  0  0  0  0  0  0  0  0  0  0  0
   -1.3771    0.8932    1.1037 H   0  0  0  0  0  0  0  0  0  0  0  0
   -1.5791    0.7533   -0.6244 H   0  0  0  0  0  0  0  0  0  0  0  0
    0.1086   -1.5439    0.9261 H   0  0  0  0  0  0  0  0  0  0  0  0
    0.6722   -0.1909   -0.2501 H   0  0  0  0  0  0  0  0  0  0  0  0
   -0.3463   -1.2240   -0.8576 H   0  0  0  0  0  0  0  0  0  0  0  0
  1  3  1  0  0  0  0
  1  2  1  0  0  0  0
  1  5  1  0  0  0  0
  2  6  1  0  0  0  0
  2  8  1  0  0  0  0
  4  1  1  0  0  0  0
  6 10  1  0  0  0  0
  7  2  1  0  0  0  0
  9  6  1  0  0  0  0
  9 12  1  0  0  0  0
 11  6  1  0  0  0  0
 13  9  1  0  0  0  0
 14  9  1  0  0  0  0
M  END
$$$$
