14
butane_opt
C  -3.919018   0.236970  -0.049748
C  -2.713602  -0.588026   0.063660
H  -4.935136  -0.344924   0.445744
H  -3.966203   1.151751  -1.202174
H  -3.818726   0.623578   0.624656
C  -1.438932   0.198758   0.091047
H  -2.700287  -1.037315  -0.639792
H  -2.723603  -1.273462   1.008876
C  -0.132100  -0.724413  -0.002988
H  -1.314093   1.050965   0.990840
H  -1.420510   0.713911  -0.745962
H  -0.133462  -1.089960   0.712207
H   0.812451  -0.076589   0.068158
H  -0.353466  -1.694484  -1.090623
