butane_opt
 OpenBabel08242015383D

 14 12  0  0  0  0  0  0  0  0999 V2000
   -3.9041    0.2195    0.0566 C   0  0  0  0  0  0  0  0  0  0  0  0
   -2.6995   -0.5561   -0.0642 C   0  0  0  0  0  0  0  0  0  0  0  0
   -4.8442   -0.3890    0.2792 H   0  0  0  0  0  0  0  0  0  0  0  0
   -4.0151    0.7535   -0.7594 H   0  0  0  0  0  0  0  0  0  0  0  0
   -3.7979    0.9378    0.9766 H   0  0  0  0  0  0  0  0  0  0  0  0
   -1.4525    0.2132    0.0087 C   0  0  0  0  0  0  0  0  0  0  0  0
   -2.7589   -1.2803   -1.0089 H   0  0  0  0  0  0  0  0  0  0  0  0
   -2.7493   -1.1213    0.8483 H   0  0  0  0  0  0  0  0  0  0  0  0
   -0.1758   -0.7347    0.0681 C   0  0  0  0  0  0  0  0  0  0  0  0
   -1.5040    0.9124    0.8112 H   0  0  0  0  0  0  0  0  0  0  0  0
   -1.3099    0.8684   -0.9396 H   0  0  0  0  0  0  0  0  0  0  0  0
   -0.0082   -1.6504    1.2808 H   0  0  0  0  0  0  0  0  0  0  0  0
    0.8273   -0.0385   -0.2390 H   0  0  0  0  0  0  0  0  0  0  0  0
   -0.0843   -1.1686   -0.6047 H   0  0  0  0  0  0  0  0  0  0  0  0
  1  3  1  0  0  0  0
  1  5  1  0  0  0  0
  2  6  1  0  0  0  0
  2  1  1  0  0  0  0
  2  8  1  0  0  0  0
  4  1  1  0  0  0  0
  6  9  1  0  0  0  0
  6 10  1  0  0  0  0
  7  2  1  0  0  0  0
 11  6  1  0  0  0  0
 13  9  1  0  0  0  0
 14  9  1  0  0  0  0
M  RAD  2   9   2  12   2
M  END
$$$$
