butane_opt
 OpenBabel08242015383D

 14 13  0  0  0  0  0  0  0  0999 V2000
   -3.8902    0.2389   -0.0698 C   0  0  0  0  0  0  0  0  0  0  0  0
   -2.7336   -0.5785    0.1488 C   0  0  0  0  0  0  0  0  0  0  0  0
   -4.9098   -0.4346   -0.2320 H   0  0  0  0  0  0  0  0  0  0  0  0
   -3.7452    0.7223   -0.9313 H   0  0  0  0  0  0  0  0  0  0  0  0
   -3.9141    0.9315    0.8606 H   0  0  0  0  0  0  0  0  0  0  0  0
   -1.4280    0.2426    0.0684 C   0  0  0  0  0  0  0  0  0  0  0  0
   -2.5913   -1.1523   -0.6117 H   0  0  0  0  0  0  0  0  0  0  0  0
   -2.7845   -1.3169    1.1328 H   0  0  0  0  0  0  0  0  0  0  0  0
   -0.1544   -0.7277   -0.0496 C   0  0  0  0  0  0  0  0  0  0  0  0
   -1.2528    0.9499    0.8811 H   0  0  0  0  0  0  0  0  0  0  0  0
   -1.6582    0.7368   -0.7262 H   0  0  0  0  0  0  0  0  0  0  0  0
   -0.0694   -1.2520    0.7885 H   0  0  0  0  0  0  0  0  0  0  0  0
    0.6572   -0.2878    0.0531 H   0  0  0  0  0  0  0  0  0  0  0  0
   -0.2489   -1.4972   -0.9291 H   0  0  0  0  0  0  0  0  0  0  0  0
  1  2  1  0  0  0  0
  1  5  1  0  0  0  0
  2  8  1  0  0  0  0
  3  1  1  0  0  0  0
  4  1  1  0  0  0  0
  6  2  1  0  0  0  0
  6 10  1  0  0  0  0
  7  2  1  0  0  0  0
  9 13  1  0  0  0  0
  9  6  1  0  0  0  0
  9 12  1  0  0  0  0
 11  6  1  0  0  0  0
 14  9  1  0  0  0  0
M  END
$$$$
