butane_opt
 OpenBabel08242015383D

 14 13  0  0  0  0  0  0  0  0999 V2000
   -3.9422    0.2916    0.0837 C   0  0  0  0  0  0  0  0  0  0  0  0
   -2.6433   -0.6580   -0.0299 C   0  0  0  0  0  0  0  0  0  0  0  0
   -4.7868   -0.2777   -0.1056 H   0  0  0  0  0  0  0  0  0  0  0  0
   -3.9774    0.5995   -0.6728 H   0  0  0  0  0  0  0  0  0  0  0  0
   -4.0455    1.3039    1.1718 H   0  0  0  0  0  0  0  0  0  0  0  0
   -1.4110    0.1517   -0.0893 C   0  0  0  0  0  0  0  0  0  0  0  0
   -2.7551   -1.2742   -0.8430 H   0  0  0  0  0  0  0  0  0  0  0  0
   -2.4833   -1.4201    0.9693 H   0  0  0  0  0  0  0  0  0  0  0  0
   -0.2227   -0.6780    0.1131 C   0  0  0  0  0  0  0  0  0  0  0  0
   -1.5068    0.8053    0.7624 H   0  0  0  0  0  0  0  0  0  0  0  0
   -1.2374    0.9261   -1.0907 H   0  0  0  0  0  0  0  0  0  0  0  0
   -0.3147   -1.2270    0.9154 H   0  0  0  0  0  0  0  0  0  0  0  0
    0.8151    0.0781    0.0684 H   0  0  0  0  0  0  0  0  0  0  0  0
   -0.1081   -1.2548   -0.6556 H   0  0  0  0  0  0  0  0  0  0  0  0
  1  5  1  0  0  0  0
  2  1  1  0  0  0  0
  2  8  1  0  0  0  0
  3  1  1  0  0  0  0
  4  1  1  0  0  0  0
  6  2  1  0  0  0  0
  6  9  1  0  0  0  0
  6 10  1  0  0  0  0
  7  2  1  0  0  0  0
  9 12  1  0  0  0  0
 11  6  1  0  0  0  0
 13  9  1  0  0  0  0
 14  9  1  0  0  0  0
M  END
$$$$
