14
butane_opt
C  -3.929642   0.239462  -0.085869
C  -2.727199  -0.610100   0.190112
H  -4.876216  -0.306683  -0.324986
H  -3.794870   0.753966  -0.969819
H  -4.216329   0.988565   0.735138
C  -1.384432   0.243864   0.079092
H  -2.878427  -1.138492  -0.508287
H  -2.748366  -1.438115   1.169218
C  -0.134962  -0.735995  -0.068450
H  -1.383254   1.143726   1.053799
H  -1.561928   0.777489  -0.761514
H  -0.104329  -1.169900   0.708122
H   0.739087  -0.176028  -0.024407
H  -0.072116  -1.575897  -1.046907
