butane_opt
 OpenBabel08242015383D

 14 13  0  0  0  0  0  0  0  0999 V2000
   -3.9349    0.2845    0.1152 C   0  0  0  0  0  0  0  0  0  0  0  0
   -2.6742   -0.6286   -0.0290 C   0  0  0  0  0  0  0  0  0  0  0  0
   -4.7684   -0.2682   -0.1422 H   0  0  0  0  0  0  0  0  0  0  0  0
   -3.9729    0.7909   -0.7602 H   0  0  0  0  0  0  0  0  0  0  0  0
   -3.8908    1.0689    1.1137 H   0  0  0  0  0  0  0  0  0  0  0  0
   -1.4172    0.1346   -0.0933 C   0  0  0  0  0  0  0  0  0  0  0  0
   -2.5690   -1.3853   -0.8611 H   0  0  0  0  0  0  0  0  0  0  0  0
   -2.5870   -1.3463    0.8632 H   0  0  0  0  0  0  0  0  0  0  0  0
   -0.2173   -0.6572    0.1258 C   0  0  0  0  0  0  0  0  0  0  0  0
   -1.5045    0.7415    0.6608 H   0  0  0  0  0  0  0  0  0  0  0  0
   -1.2295    0.9117   -1.1657 H   0  0  0  0  0  0  0  0  0  0  0  0
   -0.2162   -1.1364    0.8933 H   0  0  0  0  0  0  0  0  0  0  0  0
    0.7018   -0.0569    0.1997 H   0  0  0  0  0  0  0  0  0  0  0  0
   -0.0867   -1.3670   -0.7918 H   0  0  0  0  0  0  0  0  0  0  0  0
  1  5  1  0  0  0  0
  2  1  1  0  0  0  0
  2  8  1  0  0  0  0
  3  1  1  0  0  0  0
  4  1  1  0  0  0  0
  6  2  1  0  0  0  0
  6  9  1  0  0  0  0
  6 10  1  0  0  0  0
  7  2  1  0  0  0  0
  9 13  1  0  0  0  0
  9 12  1  0  0  0  0
 11  6  1  0  0  0  0
 14  9  1  0  0  0  0
M  END
$$$$
