14
butane_opt
C  -3.918666   0.223879   0.108927
C  -2.744904  -0.551901  -0.039286
H  -4.797367  -0.432005   0.103234
H  -3.828199   0.793773  -0.752226
H  -3.815951   1.151608   1.150096
C  -1.424087   0.191025  -0.122910
H  -2.854242  -1.252572  -0.876834
H  -2.647242  -1.241635   0.807972
C  -0.145328  -0.726892   0.104858
H  -1.480112   0.837587   0.724795
H  -1.371665   0.886456  -1.020283
H  -0.376839  -1.386144   1.040524
H   0.795288  -0.102634   0.405565
H   0.144784  -1.353592  -0.738930
