14
butane_opt
C  -3.936764   0.270911   0.112791
C  -2.657141  -0.629717  -0.000289
H  -4.883121  -0.334034  -0.015161
H  -3.978960   0.751268  -0.674306
H  -3.960358   1.162441   1.101907
C  -1.385301   0.146124  -0.133165
H  -2.592143  -1.343566  -0.949112
H  -2.667178  -1.128174   0.745843
C  -0.244080  -0.667546   0.110131
H  -1.428683   0.710238   0.692832
H  -1.403537   0.994580  -1.232284
H  -0.302197  -1.227504   1.048234
H   0.807296  -0.042733   0.492942
H   0.043304  -1.458578  -0.802288
