butane_opt
 OpenBabel08242015383D

 14 13  0  0  0  0  0  0  0  0999 V2000
   -4.0105    0.3204   -0.0398 C   0  0  0  0  0  0  0  0  0  0  0  0
   -2.6896   -0.6666    0.1307 C   0  0  0  0  0  0  0  0  0  0  0  0
   -4.8594   -0.2587   -0.1730 H   0  0  0  0  0  0  0  0  0  0  0  0
   -3.9315    0.7337   -0.8239 H   0  0  0  0  0  0  0  0  0  0  0  0
   -4.1292    1.0149    0.8518 H   0  0  0  0  0  0  0  0  0  0  0  0
   -1.3826    0.1397    0.0462 C   0  0  0  0  0  0  0  0  0  0  0  0
   -2.5570   -1.2733   -0.6379 H   0  0  0  0  0  0  0  0  0  0  0  0
   -2.8574   -1.2717    1.0225 H   0  0  0  0  0  0  0  0  0  0  0  0
   -0.1534   -0.6538   -0.0159 C   0  0  0  0  0  0  0  0  0  0  0  0
   -1.2766    0.7262    0.8429 H   0  0  0  0  0  0  0  0  0  0  0  0
   -1.3428    0.7564   -0.9618 H   0  0  0  0  0  0  0  0  0  0  0  0
    0.0357   -1.1319    0.7085 H   0  0  0  0  0  0  0  0  0  0  0  0
    0.7997   -0.0043    0.1472 H   0  0  0  0  0  0  0  0  0  0  0  0
   -0.1228   -1.4141   -0.9629 H   0  0  0  0  0  0  0  0  0  0  0  0
  1  2  1  0  0  0  0
  1  5  1  0  0  0  0
  2  8  1  0  0  0  0
  3  1  1  0  0  0  0
  4  1  1  0  0  0  0
  6  2  1  0  0  0  0
  6 10  1  0  0  0  0
  7  2  1  0  0  0  0
  9  6  1  0  0  0  0
  9 13  1  0  0  0  0
  9 12  1  0  0  0  0
 11  6  1  0  0  0  0
 14  9  1  0  0  0  0
M  END
$$$$
