14
butane_opt
C  -3.913583   0.217502  -0.062549
C  -2.702374  -0.555971   0.107467
H  -4.807923  -0.354080   0.289442
H  -4.006522   0.943526  -0.964597
H  -3.932352   0.734501   0.734065
C  -1.438530   0.194577   0.043375
H  -2.496935  -1.047368  -0.510157
H  -2.828130  -1.352117   1.076566
C  -0.148159  -0.721042  -0.024792
H  -1.399360   0.977613   0.956463
H  -1.482250   0.765745  -0.813524
H  -0.266253  -0.951748   0.587959
H   0.704659  -0.115693   0.388941
H  -0.052146  -1.713826  -1.095972
