14
butane_opt
C  -3.959792   0.276161   0.050401
C  -2.694078  -0.627189  -0.014773
H  -4.860176  -0.316046   0.167862
H  -4.100927   0.888292  -0.855338
H  -3.932782   0.914343   0.906944
C  -1.396280   0.169163  -0.018480
H  -2.717735  -1.284613  -0.840488
H  -2.629248  -1.254641   0.883349
C  -0.162244  -0.684155   0.067130
H  -1.392440   0.842824   0.824943
H  -1.319010   0.832341  -0.923454
H  -0.183100  -1.272491   0.966446
H   0.761325  -0.084859   0.063673
H  -0.097894  -1.344220  -0.774260
