14
butane_opt
C  -3.942237   0.291618   0.083712
C  -2.643298  -0.658008  -0.029910
H  -4.786778  -0.277650  -0.105627
H  -3.977412   0.599478  -0.672843
H  -4.045463   1.303931   1.171803
C  -1.410959   0.151716  -0.089325
H  -2.755129  -1.274174  -0.843004
H  -2.483300  -1.420075   0.969288
C  -0.222707  -0.678004   0.113128
H  -1.506823   0.805265   0.762413
H  -1.237424   0.926120  -1.090720
H  -0.314690  -1.227005   0.915419
H   0.815138   0.078073   0.068413
H  -0.108061  -1.254848  -0.655569
