butane_opt
 OpenBabel08242015383D

 14 12  0  0  0  0  0  0  0  0999 V2000
   -3.9752    0.2364   -0.0595 C   0  0  0  0  0  0  0  0  0  0  0  0
   -2.7187   -0.5985    0.1036 C   0  0  0  0  0  0  0  0  0  0  0  0
   -4.9347   -0.3908    0.3173 H   0  0  0  0  0  0  0  0  0  0  0  0
   -3.8094    1.2717   -1.3109 H   0  0  0  0  0  0  0  0  0  0  0  0
   -3.9440    0.5368    0.5475 H   0  0  0  0  0  0  0  0  0  0  0  0
   -1.4141    0.2051    0.1402 C   0  0  0  0  0  0  0  0  0  0  0  0
   -2.7373   -1.3001   -0.7154 H   0  0  0  0  0  0  0  0  0  0  0  0
   -2.6866   -1.1667    1.0171 H   0  0  0  0  0  0  0  0  0  0  0  0
   -0.1340   -0.6949   -0.0763 C   0  0  0  0  0  0  0  0  0  0  0  0
   -1.3951    1.1087    1.1026 H   0  0  0  0  0  0  0  0  0  0  0  0
   -1.4030    0.8030   -0.6685 H   0  0  0  0  0  0  0  0  0  0  0  0
    0.0722   -1.3072    0.8294 H   0  0  0  0  0  0  0  0  0  0  0  0
    0.7572   -0.2458   -0.0173 H   0  0  0  0  0  0  0  0  0  0  0  0
   -0.0478   -1.5652   -1.0144 H   0  0  0  0  0  0  0  0  0  0  0  0
  1  2  1  0  0  0  0
  1  3  1  0  0  0  0
  1  5  1  0  0  0  0
  2  6  1  0  0  0  0
  2  8  1  0  0  0  0
  6 10  1  0  0  0  0
  7  2  1  0  0  0  0
  9 13  1  0  0  0  0
  9  6  1  0  0  0  0
  9 12  1  0  0  0  0
 11  6  1  0  0  0  0
 14  9  1  0  0  0  0
M  RAD  2   1   2   4   2
M  END
$$$$
