butane_opt
 OpenBabel08242015383D

 14 13  0  0  0  0  0  0  0  0999 V2000
   -3.9164    0.2338   -0.0961 C   0  0  0  0  0  0  0  0  0  0  0  0
   -2.7089   -0.5932    0.1283 C   0  0  0  0  0  0  0  0  0  0  0  0
   -4.8679   -0.4106   -0.1260 H   0  0  0  0  0  0  0  0  0  0  0  0
   -3.6265    0.8051   -1.0113 H   0  0  0  0  0  0  0  0  0  0  0  0
   -4.0237    0.8989    0.7774 H   0  0  0  0  0  0  0  0  0  0  0  0
   -1.4367    0.2312    0.1510 C   0  0  0  0  0  0  0  0  0  0  0  0
   -2.5720   -1.0401   -0.5987 H   0  0  0  0  0  0  0  0  0  0  0  0
   -2.7798   -1.3659    1.1731 H   0  0  0  0  0  0  0  0  0  0  0  0
   -0.1680   -0.6986   -0.0923 C   0  0  0  0  0  0  0  0  0  0  0  0
   -1.5362    1.0395    1.0894 H   0  0  0  0  0  0  0  0  0  0  0  0
   -1.4510    0.6627   -0.5835 H   0  0  0  0  0  0  0  0  0  0  0  0
    0.1656   -1.5405    0.9489 H   0  0  0  0  0  0  0  0  0  0  0  0
    0.7246   -0.2298   -0.3550 H   0  0  0  0  0  0  0  0  0  0  0  0
   -0.3049   -1.3743   -0.9559 H   0  0  0  0  0  0  0  0  0  0  0  0
  1  2  1  0  0  0  0
  1  5  1  0  0  0  0
  2  6  1  0  0  0  0
  2  8  1  0  0  0  0
  3  1  1  0  0  0  0
  4  1  1  0  0  0  0
  6 10  1  0  0  0  0
  7  2  1  0  0  0  0
  9  6  1  0  0  0  0
  9 12  1  0  0  0  0
 11  6  1  0  0  0  0
 13  9  1  0  0  0  0
 14  9  1  0  0  0  0
M  END
$$$$
