14
butane_opt
C  -3.951602   0.299984  -0.102697
C  -2.666961  -0.645226   0.123114
H  -4.911638  -0.292184   0.173777
H  -3.945598   1.012657  -1.063903
H  -4.045457   0.915874   0.708497
C  -1.378834   0.132749   0.128669
H  -2.546706  -1.234904  -0.656967
H  -2.771246  -1.430945   1.158739
C  -0.194268  -0.680572  -0.058165
H  -1.354904   1.064233   1.122754
H  -1.275992   0.677488  -0.626717
H  -0.137916  -1.182365   0.721904
H   0.780459  -0.080141  -0.221742
H  -0.488711  -1.212748  -0.973414
