butane_opt
 OpenBabel08242015383D

 14 13  0  0  0  0  0  0  0  0999 V2000
   -3.9130    0.2883    0.0774 C   0  0  0  0  0  0  0  0  0  0  0  0
   -2.6766   -0.6464   -0.0413 C   0  0  0  0  0  0  0  0  0  0  0  0
   -4.8837   -0.3158    0.2005 H   0  0  0  0  0  0  0  0  0  0  0  0
   -4.0758    0.7264   -0.6118 H   0  0  0  0  0  0  0  0  0  0  0  0
   -3.9322    1.1327    1.0646 H   0  0  0  0  0  0  0  0  0  0  0  0
   -1.4102    0.1948   -0.1186 C   0  0  0  0  0  0  0  0  0  0  0  0
   -2.7287   -1.2659   -0.8022 H   0  0  0  0  0  0  0  0  0  0  0  0
   -2.5870   -1.3363    0.9672 H   0  0  0  0  0  0  0  0  0  0  0  0
   -0.2072   -0.6852    0.1220 C   0  0  0  0  0  0  0  0  0  0  0  0
   -1.3207    0.7052    0.6320 H   0  0  0  0  0  0  0  0  0  0  0  0
   -1.2649    0.7657   -0.9890 H   0  0  0  0  0  0  0  0  0  0  0  0
   -0.4217   -1.1681    0.8879 H   0  0  0  0  0  0  0  0  0  0  0  0
    0.7216   -0.0576    0.4035 H   0  0  0  0  0  0  0  0  0  0  0  0
   -0.0269   -1.4813   -0.7768 H   0  0  0  0  0  0  0  0  0  0  0  0
  1  3  1  0  0  0  0
  1  5  1  0  0  0  0
  2  1  1  0  0  0  0
  2  8  1  0  0  0  0
  4  1  1  0  0  0  0
  6  2  1  0  0  0  0
  6  9  1  0  0  0  0
  6 10  1  0  0  0  0
  7  2  1  0  0  0  0
  9 13  1  0  0  0  0
  9 12  1  0  0  0  0
 11  6  1  0  0  0  0
 14  9  1  0  0  0  0
M  END
$$$$
