14
butane_opt
C  -3.963039   0.277649  -0.000170
C  -2.694625  -0.630852   0.044769
H  -4.885304  -0.318423   0.044368
H  -3.943018   0.927281  -0.922181
H  -4.001248   0.936723   0.823894
C  -1.394813   0.169610   0.048209
H  -2.714588  -1.328142  -0.812895
H  -2.687256  -1.272494   0.960555
C  -0.160835  -0.682385   0.011623
H  -1.377622   0.867233   0.907448
H  -1.384943   0.809778  -0.831014
H  -0.040513  -1.329029   0.926718
H   0.760519  -0.084207  -0.098023
H  -0.197712  -1.283407  -0.810349
