butane_opt
 OpenBabel08242015383D

 14 13  0  0  0  0  0  0  0  0999 V2000
   -3.9489    0.2686    0.1119 C   0  0  0  0  0  0  0  0  0  0  0  0
   -2.6763   -0.5753   -0.0024 C   0  0  0  0  0  0  0  0  0  0  0  0
   -4.8854   -0.4293    0.0536 H   0  0  0  0  0  0  0  0  0  0  0  0
   -3.8469    0.8088   -0.8173 H   0  0  0  0  0  0  0  0  0  0  0  0
   -3.8882    0.7892    0.8693 H   0  0  0  0  0  0  0  0  0  0  0  0
   -1.4267    0.1638   -0.1020 C   0  0  0  0  0  0  0  0  0  0  0  0
   -2.7816   -1.2692   -0.8350 H   0  0  0  0  0  0  0  0  0  0  0  0
   -2.7109   -1.2204    0.8341 H   0  0  0  0  0  0  0  0  0  0  0  0
   -0.1772   -0.6917    0.1056 C   0  0  0  0  0  0  0  0  0  0  0  0
   -1.5075    0.7013    0.6684 H   0  0  0  0  0  0  0  0  0  0  0  0
   -1.3196    0.9249   -1.0462 H   0  0  0  0  0  0  0  0  0  0  0  0
   -0.3150   -0.9671    0.8436 H   0  0  0  0  0  0  0  0  0  0  0  0
    0.7281   -0.1514    0.4320 H   0  0  0  0  0  0  0  0  0  0  0  0
    0.2250   -1.6475   -0.9657 H   0  0  0  0  0  0  0  0  0  0  0  0
  1  5  1  0  0  0  0
  2  1  1  0  0  0  0
  2  8  1  0  0  0  0
  3  1  1  0  0  0  0
  4  1  1  0  0  0  0
  6  2  1  0  0  0  0
  6  9  1  0  0  0  0
  6 10  1  0  0  0  0
  7  2  1  0  0  0  0
  9 13  1  0  0  0  0
  9 12  1  0  0  0  0
 11  6  1  0  0  0  0
 14  9  1  0  0  0  0
M  END
$$$$
