14
butane_opt
C  -3.973478   0.308939  -0.047014
C  -2.686689  -0.646806   0.061046
H  -4.880390  -0.290822   0.175204
H  -4.005601   1.020126  -1.060898
H  -4.181606   0.693798   0.667744
C  -1.403707   0.157398   0.110378
H  -2.740387  -1.221023  -0.730287
H  -2.744653  -1.390873   1.064016
C  -0.113498  -0.669844  -0.040218
H  -1.264234   0.951778   1.042593
H  -1.555624   0.502059  -0.596103
H  -0.073144  -1.252670   0.875300
H   0.843160  -0.027710  -0.222012
H  -0.295896  -1.221247  -0.790379
