14
butane_opt
C  -3.958484   0.250557   0.144722
C  -2.702603  -0.593563  -0.135946
H  -4.880108  -0.443110   0.498112
H  -4.184817   1.062382  -0.791059
H  -3.718717   0.786641   0.923672
C  -1.427335   0.213674  -0.086188
H  -2.863091  -1.386139  -1.049844
H  -2.715399  -1.118877   0.656541
C  -0.102111  -0.698359   0.157119
H  -1.618669   0.732568   0.611816
H  -1.237603   0.778858  -0.995731
H  -0.175731  -1.420331   1.144460
H   0.806420  -0.160714   0.145722
H  -0.141593  -1.353346  -0.668582
