14
butane_opt
C  -3.967419   0.223523  -0.062147
C  -2.717415  -0.556413   0.115420
H  -4.948120  -0.411581   0.138193
H  -4.090559   1.039792  -0.998015
H  -3.753650   0.716673   0.690871
C  -1.443971   0.201906   0.088491
H  -2.728211  -1.228485  -0.752567
H  -2.759247  -1.276033   1.059775
C  -0.116685  -0.712965  -0.021042
H  -1.296155   0.898719   0.884458
H  -1.379972   0.889556  -0.854468
H   0.039085  -1.156724   0.679761
H   0.800793  -0.120307   0.173199
H   0.034820  -1.709403  -1.083374
