butane_opt
 OpenBabel08242015383D

 14 13  0  0  0  0  0  0  0  0999 V2000
   -3.9954    0.3102    0.0716 C   0  0  0  0  0  0  0  0  0  0  0  0
   -2.7066   -0.6628   -0.0283 C   0  0  0  0  0  0  0  0  0  0  0  0
   -4.8700   -0.2416   -0.1147 H   0  0  0  0  0  0  0  0  0  0  0  0
   -4.1235    0.6866   -0.6181 H   0  0  0  0  0  0  0  0  0  0  0  0
   -4.0228    1.0344    1.0136 H   0  0  0  0  0  0  0  0  0  0  0  0
   -1.3983    0.1574   -0.0658 C   0  0  0  0  0  0  0  0  0  0  0  0
   -2.7331   -1.1978   -0.7407 H   0  0  0  0  0  0  0  0  0  0  0  0
   -2.5662   -1.3977    0.9960 H   0  0  0  0  0  0  0  0  0  0  0  0
   -0.1252   -0.6647    0.0990 C   0  0  0  0  0  0  0  0  0  0  0  0
   -1.3762    0.7504    0.6687 H   0  0  0  0  0  0  0  0  0  0  0  0
   -1.2580    0.8093   -0.9502 H   0  0  0  0  0  0  0  0  0  0  0  0
   -0.2212   -1.1598    0.9451 H   0  0  0  0  0  0  0  0  0  0  0  0
    0.8824   -0.0509    0.1312 H   0  0  0  0  0  0  0  0  0  0  0  0
   -0.0437   -1.3843   -0.8276 H   0  0  0  0  0  0  0  0  0  0  0  0
  1  5  1  0  0  0  0
  2  1  1  0  0  0  0
  2  8  1  0  0  0  0
  3  1  1  0  0  0  0
  4  1  1  0  0  0  0
  6  2  1  0  0  0  0
  6  9  1  0  0  0  0
  6 10  1  0  0  0  0
  7  2  1  0  0  0  0
  9 13  1  0  0  0  0
  9 12  1  0  0  0  0
 11  6  1  0  0  0  0
 14  9  1  0  0  0  0
M  END
$$$$
