14
butane_opt
C  -3.916677   0.281609   0.108545
C  -2.691380  -0.612511  -0.000407
H  -4.872927  -0.374558  -0.375292
H  -3.877205   0.562635  -0.569486
H  -4.123734   1.261359   1.144251
C  -1.393646   0.183462  -0.102789
H  -2.815467  -1.462376  -1.031082
H  -2.603612  -1.226427   0.887973
C  -0.186028  -0.709254   0.110021
H  -1.467137   0.859735   0.680172
H  -1.242210   0.813491  -1.076662
H  -0.308328  -1.531515   1.105366
H   0.754950  -0.002446  -0.105766
H  -0.188951  -1.098022  -0.563150
