butane_opt
 OpenBabel08242015383D

 14 13  0  0  0  0  0  0  0  0999 V2000
   -3.9190    0.2995   -0.0593 C   0  0  0  0  0  0  0  0  0  0  0  0
   -2.7024   -0.6441    0.0966 C   0  0  0  0  0  0  0  0  0  0  0  0
   -4.6410   -0.2167    0.2583 H   0  0  0  0  0  0  0  0  0  0  0  0
   -3.9342    1.2447   -1.1345 H   0  0  0  0  0  0  0  0  0  0  0  0
   -3.9604    0.6450    0.5854 H   0  0  0  0  0  0  0  0  0  0  0  0
   -1.3995    0.1308    0.0964 C   0  0  0  0  0  0  0  0  0  0  0  0
   -2.5304   -1.2930   -0.7038 H   0  0  0  0  0  0  0  0  0  0  0  0
   -2.6784   -1.3939    1.0912 H   0  0  0  0  0  0  0  0  0  0  0  0
   -0.2262   -0.6453   -0.0525 C   0  0  0  0  0  0  0  0  0  0  0  0
   -1.2719    1.0938    1.1625 H   0  0  0  0  0  0  0  0  0  0  0  0
   -1.3813    0.4523   -0.6681 H   0  0  0  0  0  0  0  0  0  0  0  0
   -0.0933   -1.2301    0.8432 H   0  0  0  0  0  0  0  0  0  0  0  0
    0.7111   -0.0222   -0.0103 H   0  0  0  0  0  0  0  0  0  0  0  0
   -0.3182   -1.4003   -0.9866 H   0  0  0  0  0  0  0  0  0  0  0  0
  1  2  1  0  0  0  0
  1  3  1  0  0  0  0
  1  5  1  0  0  0  0
  2  8  1  0  0  0  0
  4  1  1  0  0  0  0
  6  2  1  0  0  0  0
  6 10  1  0  0  0  0
  7  2  1  0  0  0  0
  9 13  1  0  0  0  0
  9  6  1  0  0  0  0
  9 12  1  0  0  0  0
 11  6  1  0  0  0  0
 14  9  1  0  0  0  0
M  END
$$$$
