14
butane_opt
C  -3.904056   0.219463   0.056627
C  -2.699463  -0.556065  -0.064188
H  -4.844152  -0.388954   0.279228
H  -4.015060   0.753474  -0.759377
H  -3.797941   0.937800   0.976594
C  -1.452500   0.213168   0.008664
H  -2.758873  -1.280262  -1.008857
H  -2.749256  -1.121339   0.848310
C  -0.175838  -0.734724   0.068086
H  -1.504034   0.912386   0.811218
H  -1.309874   0.868439  -0.939615
H  -0.008170  -1.650357   1.280759
H   0.827326  -0.038499  -0.238981
H  -0.084290  -1.168645  -0.604675
