butane_opt
 OpenBabel08242015383D

 14 13  0  0  0  0  0  0  0  0999 V2000
   -3.9356    0.2592   -0.0020 C   0  0  0  0  0  0  0  0  0  0  0  0
   -2.7114   -0.6146    0.0793 C   0  0  0  0  0  0  0  0  0  0  0  0
   -4.8572   -0.3448   -0.1100 H   0  0  0  0  0  0  0  0  0  0  0  0
   -3.8604    0.8051   -0.8682 H   0  0  0  0  0  0  0  0  0  0  0  0
   -4.0885    0.9857    0.8818 H   0  0  0  0  0  0  0  0  0  0  0  0
   -1.3997    0.2063    0.0249 C   0  0  0  0  0  0  0  0  0  0  0  0
   -2.7345   -1.2703   -0.7777 H   0  0  0  0  0  0  0  0  0  0  0  0
   -2.7487   -1.2517    0.9668 H   0  0  0  0  0  0  0  0  0  0  0  0
   -0.1541   -0.7061    0.0051 C   0  0  0  0  0  0  0  0  0  0  0  0
   -1.4030    0.8828    0.8728 H   0  0  0  0  0  0  0  0  0  0  0  0
   -1.4272    0.8300   -0.8478 H   0  0  0  0  0  0  0  0  0  0  0  0
   -0.1116   -1.3410    0.9232 H   0  0  0  0  0  0  0  0  0  0  0  0
    0.7744   -0.1234   -0.0229 H   0  0  0  0  0  0  0  0  0  0  0  0
   -0.1515   -1.3886   -0.8567 H   0  0  0  0  0  0  0  0  0  0  0  0
  1  2  1  0  0  0  0
  1  5  1  0  0  0  0
  2  8  1  0  0  0  0
  3  1  1  0  0  0  0
  4  1  1  0  0  0  0
  6  2  1  0  0  0  0
  6 10  1  0  0  0  0
  7  2  1  0  0  0  0
  9  6  1  0  0  0  0
  9 12  1  0  0  0  0
 11  6  1  0  0  0  0
 13  9  1  0  0  0  0
 14  9  1  0  0  0  0
M  END
$$$$
