butane_opt
 OpenBabel08242015383D

 14 12  0  0  0  0  0  0  0  0999 V2000
   -3.9624    0.2723    0.0376 C   0  0  0  0  0  0  0  0  0  0  0  0
   -2.7183   -0.6642   -0.0218 C   0  0  0  0  0  0  0  0  0  0  0  0
   -4.7967   -0.2008    0.4296 H   0  0  0  0  0  0  0  0  0  0  0  0
   -4.2315    1.3295   -1.0439 H   0  0  0  0  0  0  0  0  0  0  0  0
   -3.6873    0.6780    0.7457 H   0  0  0  0  0  0  0  0  0  0  0  0
   -1.3828    0.1647    0.0515 C   0  0  0  0  0  0  0  0  0  0  0  0
   -2.6986   -1.3436   -0.8650 H   0  0  0  0  0  0  0  0  0  0  0  0
   -2.6600   -1.0914    0.7181 H   0  0  0  0  0  0  0  0  0  0  0  0
   -0.1730   -0.6630    0.0449 C   0  0  0  0  0  0  0  0  0  0  0  0
   -1.4150    0.8270    0.7973 H   0  0  0  0  0  0  0  0  0  0  0  0
   -1.1858    0.8653   -0.9063 H   0  0  0  0  0  0  0  0  0  0  0  0
   -0.0899   -1.2959    0.9599 H   0  0  0  0  0  0  0  0  0  0  0  0
    0.6731   -0.1189    0.0765 H   0  0  0  0  0  0  0  0  0  0  0  0
   -0.1139   -1.4394   -0.8735 H   0  0  0  0  0  0  0  0  0  0  0  0
  1  3  1  0  0  0  0
  1  5  1  0  0  0  0
  2  1  1  0  0  0  0
  2  6  1  0  0  0  0
  2  8  1  0  0  0  0
  6 10  1  0  0  0  0
  7  2  1  0  0  0  0
  9  6  1  0  0  0  0
  9 13  1  0  0  0  0
  9 12  1  0  0  0  0
 11  6  1  0  0  0  0
 14  9  1  0  0  0  0
M  RAD  2   1   2   4   2
M  END
$$$$
