14
butane_opt
C  -3.935430   0.253767   0.036901
C  -2.716786  -0.605319   0.021069
H  -4.836469  -0.356082   0.089674
H  -4.050153   0.911880  -0.866336
H  -3.941806   0.883365   0.896653
C  -1.401625   0.204982  -0.015222
H  -2.732867  -1.292925  -0.829030
H  -2.738685  -1.237148   0.890459
C  -0.147837  -0.710111   0.043106
H  -1.397077   0.899084   0.854754
H  -1.388651   0.811407  -0.889602
H  -0.197843  -1.300038   0.929693
H   0.723078  -0.144793   0.103493
H  -0.029678  -1.368731  -0.778113
