butane_opt
 OpenBabel08242015383D

 14 11  0  0  0  0  0  0  0  0999 V2000
   -3.9112    0.2269   -0.0648 C   0  0  0  0  0  0  0  0  0  0  0  0
   -2.7574   -0.5771    0.1523 C   0  0  0  0  0  0  0  0  0  0  0  0
   -4.6836   -0.2826    0.0303 H   0  0  0  0  0  0  0  0  0  0  0  0
   -3.8281    0.9817   -1.1295 H   0  0  0  0  0  0  0  0  0  0  0  0
   -3.9131    0.7143    0.6264 H   0  0  0  0  0  0  0  0  0  0  0  0
   -1.4262    0.2319    0.0859 C   0  0  0  0  0  0  0  0  0  0  0  0
   -2.7312   -1.2119   -0.6111 H   0  0  0  0  0  0  0  0  0  0  0  0
   -2.7917   -1.3340    1.1717 H   0  0  0  0  0  0  0  0  0  0  0  0
   -0.1410   -0.7173   -0.0294 C   0  0  0  0  0  0  0  0  0  0  0  0
   -1.3210    0.8489    0.9477 H   0  0  0  0  0  0  0  0  0  0  0  0
   -1.5210    0.9178   -0.9064 H   0  0  0  0  0  0  0  0  0  0  0  0
   -0.1030   -0.9173    0.5083 H   0  0  0  0  0  0  0  0  0  0  0  0
    0.7015   -0.1859    0.2262 H   0  0  0  0  0  0  0  0  0  0  0  0
   -0.0214   -1.9638   -1.2227 H   0  0  0  0  0  0  0  0  0  0  0  0
  1  3  1  0  0  0  0
  1  2  1  0  0  0  0
  1  5  1  0  0  0  0
  2  8  1  0  0  0  0
  4  1  1  0  0  0  0
  6  2  1  0  0  0  0
  6 10  1  0  0  0  0
  7  2  1  0  0  0  0
  9  6  1  0  0  0  0
  9 13  1  0  0  0  0
 11  6  1  0  0  0  0
M  RAD  3   9   3  12   2  14   2
M  END
$$$$
