14
butane_opt
C  -3.889769   0.221528   0.067085
C  -2.744418  -0.549927  -0.035380
H  -4.829711  -0.433201   0.269592
H  -3.937780   1.003361  -0.893313
H  -3.752253   0.795827   0.927493
C  -1.431319   0.197173  -0.046660
H  -2.889365  -1.302683  -0.931216
H  -2.563151  -1.114919   0.752665
C  -0.168939  -0.736901   0.085353
H  -1.470518   1.071329   0.924437
H  -1.422694   0.829702  -0.897619
H  -0.077476  -1.490377   1.093616
H   0.847903  -0.116997   0.021826
H  -0.116786  -1.292172  -0.678666
