14
butane_opt
C  -3.876197   0.223807   0.052016
C  -2.727155  -0.578184   0.029973
H  -4.845548  -0.431742  -0.169699
H  -3.828781   0.559898  -0.629491
H  -4.030173   1.267741   1.172074
C  -1.413205   0.241523  -0.058890
H  -2.620682  -1.367894  -0.969536
H  -2.858095  -1.162574   0.900271
C  -0.178601  -0.754848   0.088048
H  -1.478484   0.762403   0.698713
H  -1.421542   1.096602  -1.113046
H  -0.066926  -1.333951   1.028829
H   0.696919  -0.162285  -0.044581
H  -0.189202  -1.318037  -0.702070
