14
butane_opt
C  -3.907240   0.247302  -0.077055
C  -2.702969  -0.587192   0.110693
H  -4.862235  -0.449965   0.410448
H  -4.063439   1.133881  -1.159497
H  -3.811843   0.491911   0.534448
C  -1.429928   0.214339   0.125490
H  -2.580240  -1.317051  -0.658334
H  -2.802571  -1.187276   0.952356
C  -0.168513  -0.689104  -0.029561
H  -1.423873   0.905643   0.999671
H  -1.475020   0.836872  -0.754918
H  -0.029938  -1.147658   0.642805
H   0.585117  -0.253937   0.000628
H  -0.054940  -1.714304  -1.146822
