14
butane_opt
C  -3.989057   0.291075  -0.023150
C  -2.688617  -0.657746   0.107413
H  -4.792787  -0.211297  -0.160811
H  -3.974567   0.875080  -0.906421
H  -4.208819   1.062387   0.853151
C  -1.404505   0.135962   0.014221
H  -2.707864  -1.218701  -0.627547
H  -2.663601  -1.297248   1.065499
C  -0.144954  -0.675665  -0.020538
H  -1.375588   0.922687   0.990465
H  -1.261087   0.570418  -0.804095
H  -0.038615  -1.102291   0.850724
H   0.879292   0.054548   0.076005
H  -0.177609  -1.229651  -0.840597
