14
butane_opt
C  -3.900105   0.241994  -0.058669
C  -2.714879  -0.556486   0.140911
H  -4.927610  -0.519006  -0.307819
H  -3.765502   0.717660  -0.961996
H  -4.084905   1.021046   0.896236
C  -1.402695   0.220070   0.096020
H  -2.645351  -1.269895  -0.642245
H  -2.899614  -1.331320   1.134508
C  -0.174420  -0.710711  -0.073182
H  -1.392033   0.925705   0.931576
H  -1.493034   0.759049  -0.725812
H   0.011681  -1.551028   0.897642
H   0.627653  -0.237654  -0.063277
H  -0.129106  -1.334040  -0.945083
