butane_opt
 OpenBabel08242015383D

 14 13  0  0  0  0  0  0  0  0999 V2000
   -3.9450    0.2802   -0.0083 C   0  0  0  0  0  0  0  0  0  0  0  0
   -2.6984   -0.6406    0.0646 C   0  0  0  0  0  0  0  0  0  0  0  0
   -4.8773   -0.3059    0.0992 H   0  0  0  0  0  0  0  0  0  0  0  0
   -4.0297    0.9483   -0.9332 H   0  0  0  0  0  0  0  0  0  0  0  0
   -3.9781    0.8751    0.8027 H   0  0  0  0  0  0  0  0  0  0  0  0
   -1.4003    0.1789    0.0248 C   0  0  0  0  0  0  0  0  0  0  0  0
   -2.6636   -1.2509   -0.7427 H   0  0  0  0  0  0  0  0  0  0  0  0
   -2.7145   -1.3244    0.9937 H   0  0  0  0  0  0  0  0  0  0  0  0
   -0.1630   -0.6790    0.0143 C   0  0  0  0  0  0  0  0  0  0  0  0
   -1.3468    0.8700    0.8890 H   0  0  0  0  0  0  0  0  0  0  0  0
   -1.4376    0.8061   -0.8348 H   0  0  0  0  0  0  0  0  0  0  0  0
   -0.1449   -1.1885    0.8260 H   0  0  0  0  0  0  0  0  0  0  0  0
    0.7715   -0.0794    0.1554 H   0  0  0  0  0  0  0  0  0  0  0  0
   -0.1279   -1.5003   -0.9725 H   0  0  0  0  0  0  0  0  0  0  0  0
  1  2  1  0  0  0  0
  1  3  1  0  0  0  0
  1  5  1  0  0  0  0
  2  8  1  0  0  0  0
  4  1  1  0  0  0  0
  6  2  1  0  0  0  0
  6 10  1  0  0  0  0
  7  2  1  0  0  0  0
  9  6  1  0  0  0  0
  9 13  1  0  0  0  0
  9 12  1  0  0  0  0
 11  6  1  0  0  0  0
 14  9  1  0  0  0  0
M  END
$$$$
