14
butane_opt
C  -3.890203   0.238879  -0.069783
C  -2.733552  -0.578490   0.148846
H  -4.909757  -0.434567  -0.231964
H  -3.745184   0.722306  -0.931337
H  -3.914117   0.931535   0.860648
C  -1.428037   0.242641   0.068399
H  -2.591307  -1.152319  -0.611653
H  -2.784471  -1.316876   1.132794
C  -0.154399  -0.727724  -0.049592
H  -1.252758   0.949898   0.881134
H  -1.658189   0.736805  -0.726226
H  -0.069414  -1.252034   0.788539
H   0.657171  -0.287845   0.053089
H  -0.248929  -1.497232  -0.929114
