butane_opt
 OpenBabel08242015383D

 14 12  0  0  0  0  0  0  0  0999 V2000
   -3.9243    0.2942   -0.0262 C   0  0  0  0  0  0  0  0  0  0  0  0
   -2.6667   -0.6584    0.1449 C   0  0  0  0  0  0  0  0  0  0  0  0
   -4.6741   -0.2510    0.0119 H   0  0  0  0  0  0  0  0  0  0  0  0
   -3.9042    1.1033   -1.0289 H   0  0  0  0  0  0  0  0  0  0  0  0
   -4.0132    0.6277    0.5768 H   0  0  0  0  0  0  0  0  0  0  0  0
   -1.4296    0.1745    0.0497 C   0  0  0  0  0  0  0  0  0  0  0  0
   -2.7494   -1.2672   -0.6629 H   0  0  0  0  0  0  0  0  0  0  0  0
   -2.7358   -1.2975    1.0386 H   0  0  0  0  0  0  0  0  0  0  0  0
   -0.1945   -0.6739   -0.0460 C   0  0  0  0  0  0  0  0  0  0  0  0
   -1.5099    0.8123    0.8827 H   0  0  0  0  0  0  0  0  0  0  0  0
   -1.3896    0.7686   -0.8802 H   0  0  0  0  0  0  0  0  0  0  0  0
   -0.3249   -0.8050    0.6235 H   0  0  0  0  0  0  0  0  0  0  0  0
    0.8108   -0.0058    0.4394 H   0  0  0  0  0  0  0  0  0  0  0  0
    0.0010   -1.7673   -1.1221 H   0  0  0  0  0  0  0  0  0  0  0  0
  1  3  1  0  0  0  0
  1  2  1  0  0  0  0
  1  5  1  0  0  0  0
  2  8  1  0  0  0  0
  4  1  1  0  0  0  0
  6  2  1  0  0  0  0
  6 10  1  0  0  0  0
  7  2  1  0  0  0  0
  9  6  1  0  0  0  0
  9 13  1  0  0  0  0
  9 12  1  0  0  0  0
 11  6  1  0  0  0  0
M  RAD  2   9   2  14   2
M  END
$$$$
