14
butane_opt
C  -3.929797   0.264856   0.047907
C  -2.701156  -0.600300   0.001439
H  -4.888616  -0.398750   0.052218
H  -3.982190   0.812039  -0.811115
H  -3.881737   0.902974   0.901175
C  -1.413766   0.192283  -0.010492
H  -2.752453  -1.306058  -0.871088
H  -2.710819  -1.181544   0.857079
C  -0.159806  -0.705297   0.052183
H  -1.432525   0.876743   0.829438
H  -1.386608   0.822860  -0.879025
H  -0.160013  -1.467681   1.025948
H   0.750013  -0.099425  -0.017703
H  -0.121134  -1.256250  -0.728151
