butane_opt
 OpenBabel08242015383D

 14 13  0  0  0  0  0  0  0  0999 V2000
   -3.9313    0.2515    0.0966 C   0  0  0  0  0  0  0  0  0  0  0  0
   -2.7371   -0.5908   -0.0903 C   0  0  0  0  0  0  0  0  0  0  0  0
   -4.8031   -0.3351    0.5419 H   0  0  0  0  0  0  0  0  0  0  0  0
   -4.0869    1.0872   -0.9599 H   0  0  0  0  0  0  0  0  0  0  0  0
   -3.5896    0.6088    0.8008 H   0  0  0  0  0  0  0  0  0  0  0  0
   -1.4250    0.1839   -0.0213 C   0  0  0  0  0  0  0  0  0  0  0  0
   -2.8505   -1.3264   -0.9976 H   0  0  0  0  0  0  0  0  0  0  0  0
   -2.5553   -1.0420    0.6275 H   0  0  0  0  0  0  0  0  0  0  0  0
   -0.1323   -0.7178    0.1030 C   0  0  0  0  0  0  0  0  0  0  0  0
   -1.5604    0.7938    0.7688 H   0  0  0  0  0  0  0  0  0  0  0  0
   -1.3300    0.9657   -0.9220 H   0  0  0  0  0  0  0  0  0  0  0  0
   -0.1300   -1.3158    0.9963 H   0  0  0  0  0  0  0  0  0  0  0  0
    0.7797   -0.1177    0.1534 H   0  0  0  0  0  0  0  0  0  0  0  0
   -0.1945   -1.3033   -0.6524 H   0  0  0  0  0  0  0  0  0  0  0  0
  1  3  1  0  0  0  0
  1  5  1  0  0  0  0
  2  6  1  0  0  0  0
  2  1  1  0  0  0  0
  2  8  1  0  0  0  0
  4  1  1  0  0  0  0
  6  9  1  0  0  0  0
  6 10  1  0  0  0  0
  7  2  1  0  0  0  0
  9 13  1  0  0  0  0
  9 12  1  0  0  0  0
 11  6  1  0  0  0  0
 14  9  1  0  0  0  0
M  END
$$$$
