butane_opt
 OpenBabel08242015383D

 14 13  0  0  0  0  0  0  0  0999 V2000
   -3.9947    0.2987   -0.0801 C   0  0  0  0  0  0  0  0  0  0  0  0
   -2.7131   -0.6444    0.1506 C   0  0  0  0  0  0  0  0  0  0  0  0
   -4.8884   -0.2552   -0.3532 H   0  0  0  0  0  0  0  0  0  0  0  0
   -3.8952    0.7004   -0.7720 H   0  0  0  0  0  0  0  0  0  0  0  0
   -4.3110    1.1452    0.8232 H   0  0  0  0  0  0  0  0  0  0  0  0
   -1.3585    0.1523    0.0860 C   0  0  0  0  0  0  0  0  0  0  0  0
   -2.6878   -1.2607   -0.6108 H   0  0  0  0  0  0  0  0  0  0  0  0
   -2.6077   -1.3336    1.1574 H   0  0  0  0  0  0  0  0  0  0  0  0
   -0.1456   -0.6711   -0.0259 C   0  0  0  0  0  0  0  0  0  0  0  0
   -1.2919    0.7733    0.8517 H   0  0  0  0  0  0  0  0  0  0  0  0
   -1.3095    0.7627   -0.7406 H   0  0  0  0  0  0  0  0  0  0  0  0
    0.0046   -1.2141    0.7570 H   0  0  0  0  0  0  0  0  0  0  0  0
    0.8395   -0.0163   -0.2871 H   0  0  0  0  0  0  0  0  0  0  0  0
   -0.3285   -1.4049   -0.9627 H   0  0  0  0  0  0  0  0  0  0  0  0
  1  2  1  0  0  0  0
  1  5  1  0  0  0  0
  2  8  1  0  0  0  0
  3  1  1  0  0  0  0
  4  1  1  0  0  0  0
  6  2  1  0  0  0  0
  6 10  1  0  0  0  0
  7  2  1  0  0  0  0
  9  6  1  0  0  0  0
  9 12  1  0  0  0  0
 11  6  1  0  0  0  0
 13  9  1  0  0  0  0
 14  9  1  0  0  0  0
M  END
$$$$
