14
butane_opt
C  -3.958877   0.288283   0.125788
C  -2.713231  -0.672337  -0.139598
H  -4.708828  -0.172732   0.425148
H  -4.292801   1.118232  -0.868441
H  -3.663616   0.915180   1.035998
C  -1.392831   0.174183  -0.065127
H  -2.803896  -1.390955  -1.097165
H  -2.546611  -1.365275   0.756467
C  -0.159712  -0.667768   0.139705
H  -1.538805   0.834048   0.759615
H  -1.227520   0.796805  -0.938900
H  -0.174325  -1.467684   1.193742
H   0.809416   0.062532   0.034262
H  -0.209793  -1.222260  -0.603426
