butane_opt
 OpenBabel08242015383D

 14 13  0  0  0  0  0  0  0  0999 V2000
   -3.9986    0.3082   -0.0793 C   0  0  0  0  0  0  0  0  0  0  0  0
   -2.6980   -0.6765    0.1665 C   0  0  0  0  0  0  0  0  0  0  0  0
   -4.7888   -0.1819   -0.3235 H   0  0  0  0  0  0  0  0  0  0  0  0
   -3.7857    0.7100   -0.8446 H   0  0  0  0  0  0  0  0  0  0  0  0
   -4.1863    1.1467    0.8113 H   0  0  0  0  0  0  0  0  0  0  0  0
   -1.3913    0.1349    0.0773 C   0  0  0  0  0  0  0  0  0  0  0  0
   -2.6476   -1.1903   -0.5176 H   0  0  0  0  0  0  0  0  0  0  0  0
   -2.8498   -1.3532    1.0511 H   0  0  0  0  0  0  0  0  0  0  0  0
   -0.1183   -0.6672   -0.0466 C   0  0  0  0  0  0  0  0  0  0  0  0
   -1.4365    0.8633    1.0049 H   0  0  0  0  0  0  0  0  0  0  0  0
   -1.3314    0.7954   -0.7683 H   0  0  0  0  0  0  0  0  0  0  0  0
    0.0553   -1.1606    0.7611 H   0  0  0  0  0  0  0  0  0  0  0  0
    0.8145    0.0221   -0.1422 H   0  0  0  0  0  0  0  0  0  0  0  0
   -0.4348   -1.3085   -0.9924 H   0  0  0  0  0  0  0  0  0  0  0  0
  1  2  1  0  0  0  0
  1  5  1  0  0  0  0
  2  8  1  0  0  0  0
  3  1  1  0  0  0  0
  4  1  1  0  0  0  0
  6  2  1  0  0  0  0
  6 10  1  0  0  0  0
  7  2  1  0  0  0  0
  9  6  1  0  0  0  0
  9 12  1  0  0  0  0
 11  6  1  0  0  0  0
 13  9  1  0  0  0  0
 14  9  1  0  0  0  0
M  END
$$$$
