butane_opt
 OpenBabel08242015383D

 14 13  0  0  0  0  0  0  0  0999 V2000
   -3.9345    0.2992   -0.0181 C   0  0  0  0  0  0  0  0  0  0  0  0
   -2.6647   -0.6430    0.1372 C   0  0  0  0  0  0  0  0  0  0  0  0
   -4.8960   -0.2786   -0.3638 H   0  0  0  0  0  0  0  0  0  0  0  0
   -3.7729    0.8472   -0.8898 H   0  0  0  0  0  0  0  0  0  0  0  0
   -4.2001    1.0990    0.8697 H   0  0  0  0  0  0  0  0  0  0  0  0
   -1.3969    0.1389    0.0442 C   0  0  0  0  0  0  0  0  0  0  0  0
   -2.6369   -1.2887   -0.6755 H   0  0  0  0  0  0  0  0  0  0  0  0
   -2.6664   -1.2943    1.0456 H   0  0  0  0  0  0  0  0  0  0  0  0
   -0.2323   -0.6801   -0.0313 C   0  0  0  0  0  0  0  0  0  0  0  0
   -1.3297    0.7173    0.8005 H   0  0  0  0  0  0  0  0  0  0  0  0
   -1.1829    0.8264   -0.8387 H   0  0  0  0  0  0  0  0  0  0  0  0
   -0.2112   -1.1646    0.7953 H   0  0  0  0  0  0  0  0  0  0  0  0
    0.8571    0.0761    0.1198 H   0  0  0  0  0  0  0  0  0  0  0  0
   -0.2493   -1.3964   -1.0167 H   0  0  0  0  0  0  0  0  0  0  0  0
  1  2  1  0  0  0  0
  1  5  1  0  0  0  0
  2  8  1  0  0  0  0
  3  1  1  0  0  0  0
  4  1  1  0  0  0  0
  6  2  1  0  0  0  0
  6 10  1  0  0  0  0
  7  2  1  0  0  0  0
  9  6  1  0  0  0  0
  9 13  1  0  0  0  0
  9 12  1  0  0  0  0
 11  6  1  0  0  0  0
 14  9  1  0  0  0  0
M  END
$$$$
