14
butane_opt
C  -3.984575   0.293236   0.001169
C  -2.697781  -0.653371   0.002149
H  -4.896042  -0.248132   0.352191
H  -4.181295   0.968971  -0.996614
H  -3.975632   0.775221   0.748848
C  -1.398034   0.152889   0.053195
H  -2.672289  -1.156902  -0.757507
H  -2.798815  -1.396933   0.966898
C  -0.110249  -0.667122   0.024242
H  -1.311466   1.000207   0.988438
H  -1.431305   0.797187  -0.861150
H  -0.113735  -1.214945   0.861972
H   0.833714  -0.100776   0.016183
H  -0.193988  -1.400511  -0.848093
