14
butane_opt
C  -3.967067   0.292657   0.111778
C  -2.707859  -0.653250  -0.128913
H  -4.838237  -0.372771   0.518803
H  -4.372552   0.995244  -0.723175
H  -3.692331   0.897378   1.012776
C  -1.385556   0.186856  -0.096022
H  -2.679441  -1.460227  -1.094953
H  -2.576083  -1.270819   0.792235
C  -0.152693  -0.670659   0.164608
H  -1.368650   0.787999   0.762454
H  -1.301945   0.865817  -0.961649
H  -0.299064  -1.354752   1.107513
H   0.663057  -0.153140   0.032620
H   0.014263  -1.268375  -0.636643
