14
butane_opt
C  -3.955748   0.271587   0.122614
C  -2.724697  -0.616733  -0.016844
H  -4.929015  -0.388803  -0.176138
H  -3.992493   0.492777  -0.563987
H  -4.032086   1.219183   1.128939
C  -1.404385   0.203999  -0.142558
H  -2.878005  -1.292075  -0.914918
H  -2.760803  -1.187785   0.829033
C  -0.091122  -0.717678   0.110328
H  -1.510069   0.775543   0.655589
H  -1.345865   0.911321  -1.078444
H  -0.411953  -1.349351   1.039562
H   0.758573  -0.109770   0.266191
H   0.203090  -1.259414  -0.599707
