14
butane_opt
C  -3.945625   0.248284  -0.054756
C  -2.752700  -0.602011   0.160470
H  -4.906630  -0.354401  -0.446091
H  -3.782131   0.626941  -0.766383
H  -4.025122   1.018475   0.790769
C  -1.409146   0.233909   0.067352
H  -2.523129  -1.259446  -0.615308
H  -2.856485  -1.287336   1.159402
C  -0.117354  -0.718217  -0.027259
H  -1.291190   0.855569   0.807830
H  -1.480931   1.011935  -0.857323
H   0.021342  -1.238899   0.738992
H   0.698944  -0.242220  -0.034723
H  -0.168059  -1.592829  -1.081539
