butane_opt
 OpenBabel08242015383D

 14 13  0  0  0  0  0  0  0  0999 V2000
   -3.9523    0.3184   -0.0810 C   0  0  0  0  0  0  0  0  0  0  0  0
   -2.6582   -0.6443    0.1015 C   0  0  0  0  0  0  0  0  0  0  0  0
   -4.8632   -0.2895    0.3405 H   0  0  0  0  0  0  0  0  0  0  0  0
   -3.8884    1.2109   -1.1947 H   0  0  0  0  0  0  0  0  0  0  0  0
   -3.8635    0.7052    0.5792 H   0  0  0  0  0  0  0  0  0  0  0  0
   -1.4000    0.1131    0.1538 C   0  0  0  0  0  0  0  0  0  0  0  0
   -2.5661   -1.3673   -0.6893 H   0  0  0  0  0  0  0  0  0  0  0  0
   -2.8621   -1.3279    1.0413 H   0  0  0  0  0  0  0  0  0  0  0  0
   -0.2094   -0.6368   -0.0503 C   0  0  0  0  0  0  0  0  0  0  0  0
   -1.3077    0.8362    1.0267 H   0  0  0  0  0  0  0  0  0  0  0  0
   -1.4238    0.6723   -0.6991 H   0  0  0  0  0  0  0  0  0  0  0  0
   -0.1106   -1.2168    0.7363 H   0  0  0  0  0  0  0  0  0  0  0  0
    0.8326    0.0497   -0.1253 H   0  0  0  0  0  0  0  0  0  0  0  0
   -0.3846   -1.5012   -1.0871 H   0  0  0  0  0  0  0  0  0  0  0  0
  1  2  1  0  0  0  0
  1  3  1  0  0  0  0
  1  5  1  0  0  0  0
  2  6  1  0  0  0  0
  2  8  1  0  0  0  0
  4  1  1  0  0  0  0
  6 10  1  0  0  0  0
  7  2  1  0  0  0  0
  9  6  1  0  0  0  0
  9 12  1  0  0  0  0
 11  6  1  0  0  0  0
 13  9  1  0  0  0  0
 14  9  1  0  0  0  0
M  END
$$$$
