14
butane_opt
C  -3.928163   0.297053   0.037868
C  -2.698040  -0.642300  -0.017613
H  -4.643305  -0.156290   0.362532
H  -4.095601   0.911879  -0.793620
H  -3.868408   0.936603   0.947775
C  -1.399513   0.129044  -0.068778
H  -2.736119  -1.314071  -0.749355
H  -2.629845  -1.417322   0.973126
C  -0.196602  -0.647771   0.093983
H  -1.350860   0.830747   0.815485
H  -1.329209   0.806734  -0.966548
H  -0.365092  -1.059128   0.830085
H   0.737800  -0.024674   0.361275
H  -0.108325  -1.585612  -0.908058
