14
butane_opt
C  -4.010456   0.287500  -0.072166
C  -2.707210  -0.653243   0.172384
H  -4.824317  -0.179249  -0.277220
H  -3.696235   0.883519  -0.997440
H  -4.275591   1.071298   0.715472
C  -1.349181   0.146053   0.100605
H  -2.564525  -1.234552  -0.604423
H  -2.674789  -1.363142   1.130380
C  -0.171883  -0.675903  -0.061414
H  -1.131515   0.840743   1.053115
H  -1.400454   0.859140  -0.845928
H  -0.056252  -1.109972   0.672034
H   0.782381  -0.017610  -0.021722
H  -0.331853  -1.475731  -1.048937
