butane_opt
 OpenBabel08242015383D

 14 13  0  0  0  0  0  0  0  0999 V2000
   -3.9891    0.2911   -0.0232 C   0  0  0  0  0  0  0  0  0  0  0  0
   -2.6886   -0.6577    0.1074 C   0  0  0  0  0  0  0  0  0  0  0  0
   -4.7928   -0.2113   -0.1608 H   0  0  0  0  0  0  0  0  0  0  0  0
   -3.9746    0.8751   -0.9064 H   0  0  0  0  0  0  0  0  0  0  0  0
   -4.2088    1.0624    0.8532 H   0  0  0  0  0  0  0  0  0  0  0  0
   -1.4045    0.1360    0.0142 C   0  0  0  0  0  0  0  0  0  0  0  0
   -2.7079   -1.2187   -0.6275 H   0  0  0  0  0  0  0  0  0  0  0  0
   -2.6636   -1.2972    1.0655 H   0  0  0  0  0  0  0  0  0  0  0  0
   -0.1450   -0.6757   -0.0205 C   0  0  0  0  0  0  0  0  0  0  0  0
   -1.3756    0.9227    0.9905 H   0  0  0  0  0  0  0  0  0  0  0  0
   -1.2611    0.5704   -0.8041 H   0  0  0  0  0  0  0  0  0  0  0  0
   -0.0386   -1.1023    0.8507 H   0  0  0  0  0  0  0  0  0  0  0  0
    0.8793    0.0545    0.0760 H   0  0  0  0  0  0  0  0  0  0  0  0
   -0.1776   -1.2297   -0.8406 H   0  0  0  0  0  0  0  0  0  0  0  0
  1  2  1  0  0  0  0
  1  5  1  0  0  0  0
  2  8  1  0  0  0  0
  3  1  1  0  0  0  0
  4  1  1  0  0  0  0
  6  2  1  0  0  0  0
  6 10  1  0  0  0  0
  7  2  1  0  0  0  0
  9  6  1  0  0  0  0
  9 13  1  0  0  0  0
  9 12  1  0  0  0  0
 11  6  1  0  0  0  0
 14  9  1  0  0  0  0
M  END
$$$$
