butane_opt
 OpenBabel08242015383D

 14 13  0  0  0  0  0  0  0  0999 V2000
   -3.9478    0.2476    0.1265 C   0  0  0  0  0  0  0  0  0  0  0  0
   -2.7032   -0.6161   -0.0566 C   0  0  0  0  0  0  0  0  0  0  0  0
   -4.8574   -0.3637    0.0530 H   0  0  0  0  0  0  0  0  0  0  0  0
   -3.9633    0.7951   -0.7887 H   0  0  0  0  0  0  0  0  0  0  0  0
   -3.8050    1.0608    1.1586 H   0  0  0  0  0  0  0  0  0  0  0  0
   -1.3890    0.2358   -0.1449 C   0  0  0  0  0  0  0  0  0  0  0  0
   -2.8370   -1.2651   -0.8971 H   0  0  0  0  0  0  0  0  0  0  0  0
   -2.4845   -1.2341    0.8152 H   0  0  0  0  0  0  0  0  0  0  0  0
   -0.1804   -0.7162    0.1516 C   0  0  0  0  0  0  0  0  0  0  0  0
   -1.4415    0.8111    0.6975 H   0  0  0  0  0  0  0  0  0  0  0  0
   -1.3630    0.7908   -1.0372 H   0  0  0  0  0  0  0  0  0  0  0  0
   -0.3713   -1.2985    0.9971 H   0  0  0  0  0  0  0  0  0  0  0  0
    0.6806   -0.1520    0.2700 H   0  0  0  0  0  0  0  0  0  0  0  0
    0.0769   -1.4263   -0.7599 H   0  0  0  0  0  0  0  0  0  0  0  0
  1  5  1  0  0  0  0
  2  1  1  0  0  0  0
  2  8  1  0  0  0  0
  3  1  1  0  0  0  0
  4  1  1  0  0  0  0
  6  2  1  0  0  0  0
  6  9  1  0  0  0  0
  6 10  1  0  0  0  0
  7  2  1  0  0  0  0
  9 13  1  0  0  0  0
  9 12  1  0  0  0  0
 11  6  1  0  0  0  0
 14  9  1  0  0  0  0
M  END
$$$$
