14
butane_opt
C  -3.952792   0.256451  -0.059079
C  -2.668685  -0.584646   0.122102
H  -4.940004  -0.465658  -0.067829
H  -3.741521   0.942670  -0.985121
H  -3.955622   0.794809   0.680672
C  -1.405203   0.190700   0.125970
H  -2.525357  -1.223304  -0.729724
H  -2.910559  -1.214204   0.987441
C  -0.181226  -0.715003  -0.061944
H  -1.327054   0.939414   1.008988
H  -1.577937   0.685800  -0.700266
H   0.019706  -1.373742   0.787622
H   0.726765  -0.155780  -0.205429
H  -0.292024  -1.170570  -0.827710
