butane_opt
 OpenBabel08242015383D

 14 12  0  0  0  0  0  0  0  0999 V2000
   -3.9060    0.2455    0.0641 C   0  0  0  0  0  0  0  0  0  0  0  0
   -2.7152   -0.5823    0.0502 C   0  0  0  0  0  0  0  0  0  0  0  0
   -4.7767   -0.3101   -0.3467 H   0  0  0  0  0  0  0  0  0  0  0  0
   -3.6730    0.4949   -0.6422 H   0  0  0  0  0  0  0  0  0  0  0  0
   -4.0096    1.3189    1.2911 H   0  0  0  0  0  0  0  0  0  0  0  0
   -1.4487    0.1735   -0.0877 C   0  0  0  0  0  0  0  0  0  0  0  0
   -2.8116   -1.3924   -0.9227 H   0  0  0  0  0  0  0  0  0  0  0  0
   -2.7327   -1.0540    0.7592 H   0  0  0  0  0  0  0  0  0  0  0  0
   -0.1625   -0.7129    0.0722 C   0  0  0  0  0  0  0  0  0  0  0  0
   -1.3967    0.7762    0.7067 H   0  0  0  0  0  0  0  0  0  0  0  0
   -1.3365    0.9575   -1.0799 H   0  0  0  0  0  0  0  0  0  0  0  0
   -0.1665   -1.5349    1.1646 H   0  0  0  0  0  0  0  0  0  0  0  0
    0.8067   -0.0390    0.0190 H   0  0  0  0  0  0  0  0  0  0  0  0
   -0.1542   -1.1702   -0.6209 H   0  0  0  0  0  0  0  0  0  0  0  0
  2  1  1  0  0  0  0
  2  8  1  0  0  0  0
  3  1  1  0  0  0  0
  4  1  1  0  0  0  0
  6  2  1  0  0  0  0
  6  9  1  0  0  0  0
  6 10  1  0  0  0  0
  7  2  1  0  0  0  0
  9 12  1  0  0  0  0
 11  6  1  0  0  0  0
 13  9  1  0  0  0  0
 14  9  1  0  0  0  0
M  RAD  2   1   2   5   2
M  END
$$$$
