14
butane_opt
C  -3.925280   0.199299   0.097665
C  -2.708077  -0.539716  -0.051294
H  -4.841195  -0.323940   0.100145
H  -3.944405   0.737170  -0.712503
H  -3.779409   1.002443   1.082067
C  -1.429218   0.197641  -0.092185
H  -2.772499  -1.089843  -0.839607
H  -2.622690  -1.216331   0.942782
C  -0.158007  -0.723315   0.104531
H  -1.666128   0.819618   0.650279
H  -1.296119   0.922439  -1.065283
H  -0.268683  -1.282411   1.042311
H   0.835384  -0.086803   0.361630
H  -0.013769  -1.582221  -0.840810
