butane_opt
 OpenBabel08242015383D

 14 13  0  0  0  0  0  0  0  0999 V2000
   -3.9557    0.2716    0.1226 C   0  0  0  0  0  0  0  0  0  0  0  0
   -2.7247   -0.6167   -0.0168 C   0  0  0  0  0  0  0  0  0  0  0  0
   -4.9290   -0.3888   -0.1761 H   0  0  0  0  0  0  0  0  0  0  0  0
   -3.9925    0.4928   -0.5640 H   0  0  0  0  0  0  0  0  0  0  0  0
   -4.0321    1.2192    1.1289 H   0  0  0  0  0  0  0  0  0  0  0  0
   -1.4044    0.2040   -0.1426 C   0  0  0  0  0  0  0  0  0  0  0  0
   -2.8780   -1.2921   -0.9149 H   0  0  0  0  0  0  0  0  0  0  0  0
   -2.7608   -1.1878    0.8290 H   0  0  0  0  0  0  0  0  0  0  0  0
   -0.0911   -0.7177    0.1103 C   0  0  0  0  0  0  0  0  0  0  0  0
   -1.5101    0.7755    0.6556 H   0  0  0  0  0  0  0  0  0  0  0  0
   -1.3459    0.9113   -1.0784 H   0  0  0  0  0  0  0  0  0  0  0  0
   -0.4120   -1.3494    1.0396 H   0  0  0  0  0  0  0  0  0  0  0  0
    0.7586   -0.1098    0.2662 H   0  0  0  0  0  0  0  0  0  0  0  0
    0.2031   -1.2594   -0.5997 H   0  0  0  0  0  0  0  0  0  0  0  0
  1  5  1  0  0  0  0
  2  1  1  0  0  0  0
  2  8  1  0  0  0  0
  3  1  1  0  0  0  0
  4  1  1  0  0  0  0
  6  2  1  0  0  0  0
  6  9  1  0  0  0  0
  6 10  1  0  0  0  0
  7  2  1  0  0  0  0
  9 13  1  0  0  0  0
  9 12  1  0  0  0  0
 11  6  1  0  0  0  0
 14  9  1  0  0  0  0
M  END
$$$$
