14
butane_opt
C  -3.968571   0.300170  -0.061764
C  -2.731446  -0.683666   0.152930
H  -4.840990  -0.247342  -0.187786
H  -3.794851   0.862413  -0.990285
H  -4.305718   1.097921   0.748550
C  -1.360894   0.185956   0.073748
H  -2.649181  -1.245912  -0.573910
H  -2.713263  -1.301470   1.084754
C  -0.169638  -0.685619  -0.060541
H  -1.298409   0.982298   1.057458
H  -1.359119   0.619855  -0.729242
H  -0.013879  -1.296559   0.871841
H   0.837270   0.006991  -0.110421
H  -0.147780  -1.342443  -0.974082
