14
butane_opt
C  -3.932927   0.280884  -0.003048
C  -2.712640  -0.635201   0.108867
H  -4.826966  -0.167325  -0.308614
H  -3.861015   0.856224  -0.870996
H  -4.352749   1.094254   0.931133
C  -1.366848   0.161615   0.028942
H  -2.766344  -1.376991  -0.741438
H  -2.659840  -1.390266   1.043621
C  -0.172685  -0.676591   0.002077
H  -1.262651   0.719690   0.754689
H  -1.459869   0.881360  -0.949837
H  -0.286237  -1.083481   0.816517
H   0.816679  -0.014574   0.061669
H  -0.138816  -1.549582  -0.952466
