14
butane_opt
C  -3.986153   0.301584  -0.045289
C  -2.698154  -0.661601   0.144877
H  -4.902829  -0.346608  -0.401135
H  -3.754167   0.764417  -0.791882
H  -4.319030   1.069558   0.845305
C  -1.412228   0.163497   0.037182
H  -2.615216  -1.059426  -0.543271
H  -2.728670  -1.416592   1.154862
C  -0.134707  -0.656949  -0.032847
H  -1.257197   0.895103   0.947008
H  -1.344447   0.654368  -0.751038
H  -0.125002  -1.191725   0.767964
H   0.875770  -0.039885  -0.049174
H  -0.095873  -1.564696  -0.999224
