butane_opt
 OpenBabel08242015383D

 14 13  0  0  0  0  0  0  0  0999 V2000
   -3.9129    0.2350   -0.0564 C   0  0  0  0  0  0  0  0  0  0  0  0
   -2.7263   -0.5589    0.1125 C   0  0  0  0  0  0  0  0  0  0  0  0
   -4.8550   -0.3360   -0.1600 H   0  0  0  0  0  0  0  0  0  0  0  0
   -3.7543    0.7014   -0.8088 H   0  0  0  0  0  0  0  0  0  0  0  0
   -3.9044    0.9428    0.8816 H   0  0  0  0  0  0  0  0  0  0  0  0
   -1.3967    0.2173    0.0676 C   0  0  0  0  0  0  0  0  0  0  0  0
   -2.6965   -1.2165   -0.7348 H   0  0  0  0  0  0  0  0  0  0  0  0
   -2.8552   -1.2742    1.0519 H   0  0  0  0  0  0  0  0  0  0  0  0
   -0.1543   -0.7339    0.0010 C   0  0  0  0  0  0  0  0  0  0  0  0
   -1.4241    0.8121    0.8911 H   0  0  0  0  0  0  0  0  0  0  0  0
   -1.6154    0.8614   -0.8378 H   0  0  0  0  0  0  0  0  0  0  0  0
   -0.0374   -1.2710    0.7948 H   0  0  0  0  0  0  0  0  0  0  0  0
    0.7139   -0.1351   -0.2164 H   0  0  0  0  0  0  0  0  0  0  0  0
   -0.3118   -1.4718   -0.9099 H   0  0  0  0  0  0  0  0  0  0  0  0
  1  2  1  0  0  0  0
  1  5  1  0  0  0  0
  2  8  1  0  0  0  0
  3  1  1  0  0  0  0
  4  1  1  0  0  0  0
  6  2  1  0  0  0  0
  6 10  1  0  0  0  0
  7  2  1  0  0  0  0
  9  6  1  0  0  0  0
  9 12  1  0  0  0  0
 11  6  1  0  0  0  0
 13  9  1  0  0  0  0
 14  9  1  0  0  0  0
M  END
$$$$
