butane_opt
 OpenBabel08242015383D

 14 12  0  0  0  0  0  0  0  0999 V2000
   -3.9769    0.2575   -0.0425 C   0  0  0  0  0  0  0  0  0  0  0  0
   -2.7253   -0.6102    0.0728 C   0  0  0  0  0  0  0  0  0  0  0  0
   -4.9088   -0.4220    0.3151 H   0  0  0  0  0  0  0  0  0  0  0  0
   -4.0725    1.2283   -1.2149 H   0  0  0  0  0  0  0  0  0  0  0  0
   -3.8885    0.5748    0.6164 H   0  0  0  0  0  0  0  0  0  0  0  0
   -1.3880    0.2155    0.0774 C   0  0  0  0  0  0  0  0  0  0  0  0
   -2.7670   -1.1337   -0.6660 H   0  0  0  0  0  0  0  0  0  0  0  0
   -2.7194   -1.1909    0.9258 H   0  0  0  0  0  0  0  0  0  0  0  0
   -0.1423   -0.7412   -0.0215 C   0  0  0  0  0  0  0  0  0  0  0  0
   -1.1965    1.1406    1.1167 H   0  0  0  0  0  0  0  0  0  0  0  0
   -1.3980    0.6271   -0.5471 H   0  0  0  0  0  0  0  0  0  0  0  0
   -0.0448   -1.2355    0.8304 H   0  0  0  0  0  0  0  0  0  0  0  0
    0.8680   -0.0641   -0.1086 H   0  0  0  0  0  0  0  0  0  0  0  0
   -0.0929   -1.4577   -0.9233 H   0  0  0  0  0  0  0  0  0  0  0  0
  1  2  1  0  0  0  0
  1  3  1  0  0  0  0
  1  5  1  0  0  0  0
  2  6  1  0  0  0  0
  2  8  1  0  0  0  0
  6 10  1  0  0  0  0
  7  2  1  0  0  0  0
  9  6  1  0  0  0  0
  9 12  1  0  0  0  0
 11  6  1  0  0  0  0
 13  9  1  0  0  0  0
 14  9  1  0  0  0  0
M  RAD  2   1   2   4   2
M  END
$$$$
