14
butane_opt
C  -3.911186   0.226929  -0.064811
C  -2.757372  -0.577117   0.152265
H  -4.683618  -0.282627   0.030332
H  -3.828147   0.981668  -1.129488
H  -3.913109   0.714301   0.626390
C  -1.426191   0.231911   0.085899
H  -2.731209  -1.211872  -0.611141
H  -2.791664  -1.334001   1.171731
C  -0.140995  -0.717303  -0.029421
H  -1.320978   0.848925   0.947708
H  -1.521012   0.917834  -0.906432
H  -0.103024  -0.917316   0.508333
H   0.701465  -0.185942   0.226221
H  -0.021422  -1.963803  -1.222712
