14
butane_opt
C  -3.916472   0.257293   0.048307
C  -2.696877  -0.622660  -0.025123
H  -4.828289  -0.334336   0.513955
H  -4.048947   1.066519  -0.988032
H  -3.725751   0.761122   0.842769
C  -1.425971   0.210084  -0.025074
H  -2.876647  -1.392638  -0.957070
H  -2.614439  -1.150354   0.793579
C  -0.163040  -0.701347   0.073798
H  -1.472521   0.918468   0.792387
H  -1.575123   0.709462  -0.822192
H  -0.250738  -1.360786   1.031471
H   0.766839  -0.070242   0.186431
H   0.011903  -1.321205  -0.821691
