butane_opt
 OpenBabel08242015383D

 14 13  0  0  0  0  0  0  0  0999 V2000
   -3.9509    0.2384   -0.0261 C   0  0  0  0  0  0  0  0  0  0  0  0
   -2.6836   -0.5749    0.1268 C   0  0  0  0  0  0  0  0  0  0  0  0
   -4.9245   -0.4470   -0.3903 H   0  0  0  0  0  0  0  0  0  0  0  0
   -3.6727    0.6989   -0.8284 H   0  0  0  0  0  0  0  0  0  0  0  0
   -4.1551    1.1097    0.8931 H   0  0  0  0  0  0  0  0  0  0  0  0
   -1.3955    0.1851    0.0381 C   0  0  0  0  0  0  0  0  0  0  0  0
   -2.6874   -1.1311   -0.6387 H   0  0  0  0  0  0  0  0  0  0  0  0
   -2.6966   -1.3660    1.1069 H   0  0  0  0  0  0  0  0  0  0  0  0
   -0.1614   -0.6983   -0.0392 C   0  0  0  0  0  0  0  0  0  0  0  0
   -1.5052    0.9839    1.0084 H   0  0  0  0  0  0  0  0  0  0  0  0
   -1.4005    0.7559   -0.8263 H   0  0  0  0  0  0  0  0  0  0  0  0
   -0.2275   -1.2776    0.8616 H   0  0  0  0  0  0  0  0  0  0  0  0
    0.6627   -0.2851   -0.1173 H   0  0  0  0  0  0  0  0  0  0  0  0
   -0.0916   -1.3439   -0.8331 H   0  0  0  0  0  0  0  0  0  0  0  0
  1  2  1  0  0  0  0
  1  5  1  0  0  0  0
  2  8  1  0  0  0  0
  3  1  1  0  0  0  0
  4  1  1  0  0  0  0
  6  2  1  0  0  0  0
  6 10  1  0  0  0  0
  7  2  1  0  0  0  0
  9  6  1  0  0  0  0
  9 12  1  0  0  0  0
 11  6  1  0  0  0  0
 13  9  1  0  0  0  0
 14  9  1  0  0  0  0
M  END
$$$$
