14
butane_opt
C  -3.934889   0.284460   0.115216
C  -2.674241  -0.628574  -0.029029
H  -4.768450  -0.268160  -0.142211
H  -3.972936   0.790912  -0.760171
H  -3.890756   1.068948   1.113740
C  -1.417203   0.134565  -0.093259
H  -2.568952  -1.385320  -0.861084
H  -2.587009  -1.346297   0.863216
C  -0.217321  -0.657232   0.125832
H  -1.504498   0.741454   0.660823
H  -1.229490   0.911726  -1.165744
H  -0.216158  -1.136381   0.893348
H   0.701751  -0.056861   0.199742
H  -0.086722  -1.367036  -0.791806
