14
butane_opt
C  -3.905953   0.245541   0.064113
C  -2.715189  -0.582313   0.050193
H  -4.776719  -0.310137  -0.346663
H  -3.673021   0.494928  -0.642189
H  -4.009605   1.318944   1.291147
C  -1.448707   0.173531  -0.087697
H  -2.811622  -1.392418  -0.922747
H  -2.732693  -1.054047   0.759170
C  -0.162467  -0.712894   0.072233
H  -1.396710   0.776170   0.706707
H  -1.336524   0.957469  -1.079878
H  -0.166499  -1.534878   1.164564
H   0.806735  -0.038980   0.019046
H  -0.154231  -1.170177  -0.620860
