butane_opt
 OpenBabel08242015383D

 14 13  0  0  0  0  0  0  0  0999 V2000
   -3.9329    0.2809   -0.0030 C   0  0  0  0  0  0  0  0  0  0  0  0
   -2.7126   -0.6352    0.1089 C   0  0  0  0  0  0  0  0  0  0  0  0
   -4.8270   -0.1673   -0.3086 H   0  0  0  0  0  0  0  0  0  0  0  0
   -3.8610    0.8562   -0.8710 H   0  0  0  0  0  0  0  0  0  0  0  0
   -4.3527    1.0943    0.9311 H   0  0  0  0  0  0  0  0  0  0  0  0
   -1.3668    0.1616    0.0289 C   0  0  0  0  0  0  0  0  0  0  0  0
   -2.7663   -1.3770   -0.7414 H   0  0  0  0  0  0  0  0  0  0  0  0
   -2.6598   -1.3903    1.0436 H   0  0  0  0  0  0  0  0  0  0  0  0
   -0.1727   -0.6766    0.0021 C   0  0  0  0  0  0  0  0  0  0  0  0
   -1.2627    0.7197    0.7547 H   0  0  0  0  0  0  0  0  0  0  0  0
   -1.4599    0.8814   -0.9498 H   0  0  0  0  0  0  0  0  0  0  0  0
   -0.2862   -1.0835    0.8165 H   0  0  0  0  0  0  0  0  0  0  0  0
    0.8167   -0.0146    0.0617 H   0  0  0  0  0  0  0  0  0  0  0  0
   -0.1388   -1.5496   -0.9525 H   0  0  0  0  0  0  0  0  0  0  0  0
  1  2  1  0  0  0  0
  1  5  1  0  0  0  0
  2  8  1  0  0  0  0
  3  1  1  0  0  0  0
  4  1  1  0  0  0  0
  6  2  1  0  0  0  0
  6 10  1  0  0  0  0
  7  2  1  0  0  0  0
  9  6  1  0  0  0  0
  9 13  1  0  0  0  0
  9 12  1  0  0  0  0
 11  6  1  0  0  0  0
 14  9  1  0  0  0  0
M  END
$$$$
