butane_opt
 OpenBabel08242015383D

 14 13  0  0  0  0  0  0  0  0999 V2000
   -3.9559    0.2684    0.0441 C   0  0  0  0  0  0  0  0  0  0  0  0
   -2.6925   -0.6303    0.0095 C   0  0  0  0  0  0  0  0  0  0  0  0
   -4.8410   -0.2846    0.1646 H   0  0  0  0  0  0  0  0  0  0  0  0
   -4.0746    0.9837   -0.9103 H   0  0  0  0  0  0  0  0  0  0  0  0
   -3.9694    0.8676    0.8723 H   0  0  0  0  0  0  0  0  0  0  0  0
   -1.3987    0.1795   -0.0090 C   0  0  0  0  0  0  0  0  0  0  0  0
   -2.7759   -1.3824   -0.9062 H   0  0  0  0  0  0  0  0  0  0  0  0
   -2.6770   -1.2047    0.8349 H   0  0  0  0  0  0  0  0  0  0  0  0
   -0.1479   -0.6864    0.0590 C   0  0  0  0  0  0  0  0  0  0  0  0
   -1.4266    0.8794    0.8550 H   0  0  0  0  0  0  0  0  0  0  0  0
   -1.3375    0.8189   -0.9134 H   0  0  0  0  0  0  0  0  0  0  0  0
   -0.1838   -1.2982    0.9643 H   0  0  0  0  0  0  0  0  0  0  0  0
    0.7340   -0.1069    0.0079 H   0  0  0  0  0  0  0  0  0  0  0  0
   -0.1266   -1.3149   -0.7863 H   0  0  0  0  0  0  0  0  0  0  0  0
  1  3  1  0  0  0  0
  1  5  1  0  0  0  0
  2  1  1  0  0  0  0
  2  8  1  0  0  0  0
  4  1  1  0  0  0  0
  6  2  1  0  0  0  0
  6  9  1  0  0  0  0
  6 10  1  0  0  0  0
  7  2  1  0  0  0  0
  9 12  1  0  0  0  0
 11  6  1  0  0  0  0
 13  9  1  0  0  0  0
 14  9  1  0  0  0  0
M  END
$$$$
