14
butane_opt
C  -3.893306   0.315919   0.040097
C  -2.687168  -0.680474   0.035517
H  -4.893419  -0.352307  -0.275973
H  -3.939461   0.517281  -0.587562
H  -4.045184   1.413647   1.208793
C  -1.390179   0.156864  -0.049133
H  -2.657868  -1.355858  -0.795326
H  -2.646652  -1.162529   0.825195
C  -0.226352  -0.657461   0.070493
H  -1.414429   0.524374   0.698742
H  -1.368886   1.018374  -1.126025
H  -0.164906  -1.391062   1.039851
H   0.735610  -0.048849   0.070663
H  -0.275789  -1.255403  -0.717848
