14
butane_opt
C  -3.955061   0.274973   0.006992
C  -2.699464  -0.636833   0.047612
H  -4.833008  -0.252221   0.131031
H  -3.992200   0.994036  -0.949961
H  -4.023908   0.844654   0.819335
C  -1.385726   0.183170   0.027035
H  -2.759948  -1.335784  -0.832099
H  -2.684633  -1.283432   0.944991
C  -0.158826  -0.686696   0.019207
H  -1.391315   0.860692   0.866238
H  -1.395061   0.816359  -0.841761
H  -0.166671  -1.227950   0.871547
H   0.761175  -0.088707   0.084873
H  -0.150537  -1.407625  -0.880541
