14
butane_opt
C  -3.977472   0.289549  -0.121394
C  -2.679955  -0.634974   0.224488
H  -4.908939  -0.285150  -0.374787
H  -3.792845   0.676266  -0.942534
H  -4.185486   1.145110   0.842378
C  -1.411788   0.144095   0.114486
H  -2.612953  -1.303944  -0.546300
H  -2.737706  -1.373595   1.181164
C  -0.165365  -0.666954  -0.091686
H  -1.159817   0.805116   0.946431
H  -1.495386   0.851627  -0.822040
H   0.081264  -1.110819   0.671816
H   0.741152  -0.037463   0.054375
H  -0.163823  -1.418814  -1.057222
