butane_opt
 OpenBabel08242015383D

 14 12  0  0  0  0  0  0  0  0999 V2000
   -3.9378    0.2362   -0.0154 C   0  0  0  0  0  0  0  0  0  0  0  0
   -2.7455   -0.5768    0.0964 C   0  0  0  0  0  0  0  0  0  0  0  0
   -4.8540   -0.3772    0.1918 H   0  0  0  0  0  0  0  0  0  0  0  0
   -3.8126    1.2067   -1.1673 H   0  0  0  0  0  0  0  0  0  0  0  0
   -3.9552    0.4761    0.4900 H   0  0  0  0  0  0  0  0  0  0  0  0
   -1.4198    0.2417    0.0934 C   0  0  0  0  0  0  0  0  0  0  0  0
   -2.6901   -1.2765   -0.8291 H   0  0  0  0  0  0  0  0  0  0  0  0
   -2.7875   -1.1800    0.9467 H   0  0  0  0  0  0  0  0  0  0  0  0
   -0.1286   -0.7231   -0.0460 C   0  0  0  0  0  0  0  0  0  0  0  0
   -1.2987    0.8945    0.9902 H   0  0  0  0  0  0  0  0  0  0  0  0
   -1.3009    0.6842   -0.6822 H   0  0  0  0  0  0  0  0  0  0  0  0
    0.0449   -1.2279    0.8179 H   0  0  0  0  0  0  0  0  0  0  0  0
    0.5790   -0.2955    0.1057 H   0  0  0  0  0  0  0  0  0  0  0  0
   -0.1521   -1.5283   -1.0058 H   0  0  0  0  0  0  0  0  0  0  0  0
  1  2  1  0  0  0  0
  1  3  1  0  0  0  0
  2  8  1  0  0  0  0
  4  1  1  0  0  0  0
  6  2  1  0  0  0  0
  6 10  1  0  0  0  0
  7  2  1  0  0  0  0
  9  6  1  0  0  0  0
  9 13  1  0  0  0  0
  9 12  1  0  0  0  0
 11  6  1  0  0  0  0
 14  9  1  0  0  0  0
M  RAD  2   1   2   5   2
M  END
$$$$
