butane_opt
 OpenBabel08242015383D

 14 13  0  0  0  0  0  0  0  0999 V2000
   -3.9490    0.2838   -0.0993 C   0  0  0  0  0  0  0  0  0  0  0  0
   -2.6686   -0.6498    0.1473 C   0  0  0  0  0  0  0  0  0  0  0  0
   -4.8085   -0.2842   -0.0732 H   0  0  0  0  0  0  0  0  0  0  0  0
   -3.9657    1.0348   -1.1031 H   0  0  0  0  0  0  0  0  0  0  0  0
   -4.0747    0.9614    0.6802 H   0  0  0  0  0  0  0  0  0  0  0  0
   -1.4285    0.1662    0.1463 C   0  0  0  0  0  0  0  0  0  0  0  0
   -2.6758   -1.4033   -0.6662 H   0  0  0  0  0  0  0  0  0  0  0  0
   -2.6661   -1.3039    1.0299 H   0  0  0  0  0  0  0  0  0  0  0  0
   -0.1884   -0.6578   -0.0753 C   0  0  0  0  0  0  0  0  0  0  0  0
   -1.1876    0.9068    1.0769 H   0  0  0  0  0  0  0  0  0  0  0  0
   -1.4644    0.5389   -0.5292 H   0  0  0  0  0  0  0  0  0  0  0  0
    0.0663   -1.4082    0.8950 H   0  0  0  0  0  0  0  0  0  0  0  0
    0.7563    0.0119   -0.4509 H   0  0  0  0  0  0  0  0  0  0  0  0
   -0.2179   -1.1932   -0.8601 H   0  0  0  0  0  0  0  0  0  0  0  0
  1  3  1  0  0  0  0
  1  2  1  0  0  0  0
  1  5  1  0  0  0  0
  2  8  1  0  0  0  0
  4  1  1  0  0  0  0
  6  2  1  0  0  0  0
  6 10  1  0  0  0  0
  7  2  1  0  0  0  0
  9  6  1  0  0  0  0
  9 12  1  0  0  0  0
 11  6  1  0  0  0  0
 13  9  1  0  0  0  0
 14  9  1  0  0  0  0
M  END
$$$$
