butane_opt
 OpenBabel08242015383D

 14 13  0  0  0  0  0  0  0  0999 V2000
   -3.9303    0.2548    0.0007 C   0  0  0  0  0  0  0  0  0  0  0  0
   -2.7071   -0.6059    0.0439 C   0  0  0  0  0  0  0  0  0  0  0  0
   -4.8243   -0.3132    0.1435 H   0  0  0  0  0  0  0  0  0  0  0  0
   -3.9721    0.9987   -0.9943 H   0  0  0  0  0  0  0  0  0  0  0  0
   -3.9090    0.8105    0.7913 H   0  0  0  0  0  0  0  0  0  0  0  0
   -1.4140    0.1879    0.0522 C   0  0  0  0  0  0  0  0  0  0  0  0
   -2.7436   -1.2756   -0.8098 H   0  0  0  0  0  0  0  0  0  0  0  0
   -2.7256   -1.2200    0.9319 H   0  0  0  0  0  0  0  0  0  0  0  0
   -0.1593   -0.7014    0.0129 C   0  0  0  0  0  0  0  0  0  0  0  0
   -1.3907    0.8774    0.8991 H   0  0  0  0  0  0  0  0  0  0  0  0
   -1.3878    0.8078   -0.8591 H   0  0  0  0  0  0  0  0  0  0  0  0
   -0.0924   -1.2771    0.8655 H   0  0  0  0  0  0  0  0  0  0  0  0
    0.7466   -0.1263    0.0060 H   0  0  0  0  0  0  0  0  0  0  0  0
   -0.1940   -1.3742   -0.8635 H   0  0  0  0  0  0  0  0  0  0  0  0
  1  2  1  0  0  0  0
  1  3  1  0  0  0  0
  1  5  1  0  0  0  0
  2  6  1  0  0  0  0
  2  8  1  0  0  0  0
  4  1  1  0  0  0  0
  6 10  1  0  0  0  0
  7  2  1  0  0  0  0
  9  6  1  0  0  0  0
  9 12  1  0  0  0  0
 11  6  1  0  0  0  0
 13  9  1  0  0  0  0
 14  9  1  0  0  0  0
M  END
$$$$
