butane_opt
 OpenBabel08242015383D

 14 13  0  0  0  0  0  0  0  0999 V2000
   -3.9589    0.2883    0.1258 C   0  0  0  0  0  0  0  0  0  0  0  0
   -2.7132   -0.6723   -0.1396 C   0  0  0  0  0  0  0  0  0  0  0  0
   -4.7088   -0.1727    0.4251 H   0  0  0  0  0  0  0  0  0  0  0  0
   -4.2928    1.1182   -0.8684 H   0  0  0  0  0  0  0  0  0  0  0  0
   -3.6636    0.9152    1.0360 H   0  0  0  0  0  0  0  0  0  0  0  0
   -1.3928    0.1742   -0.0651 C   0  0  0  0  0  0  0  0  0  0  0  0
   -2.8039   -1.3910   -1.0972 H   0  0  0  0  0  0  0  0  0  0  0  0
   -2.5466   -1.3653    0.7565 H   0  0  0  0  0  0  0  0  0  0  0  0
   -0.1597   -0.6678    0.1397 C   0  0  0  0  0  0  0  0  0  0  0  0
   -1.5388    0.8340    0.7596 H   0  0  0  0  0  0  0  0  0  0  0  0
   -1.2275    0.7968   -0.9389 H   0  0  0  0  0  0  0  0  0  0  0  0
   -0.1743   -1.4677    1.1937 H   0  0  0  0  0  0  0  0  0  0  0  0
    0.8094    0.0625    0.0343 H   0  0  0  0  0  0  0  0  0  0  0  0
   -0.2098   -1.2223   -0.6034 H   0  0  0  0  0  0  0  0  0  0  0  0
  1  3  1  0  0  0  0
  1  5  1  0  0  0  0
  2  6  1  0  0  0  0
  2  1  1  0  0  0  0
  2  8  1  0  0  0  0
  4  1  1  0  0  0  0
  6  9  1  0  0  0  0
  6 10  1  0  0  0  0
  7  2  1  0  0  0  0
  9 12  1  0  0  0  0
 11  6  1  0  0  0  0
 13  9  1  0  0  0  0
 14  9  1  0  0  0  0
M  END
$$$$
