14
butane_opt
C  -3.940719   0.264071  -0.004508
C  -2.691820  -0.627976   0.079183
H  -4.811289  -0.289212  -0.097998
H  -3.900836   0.867397  -0.878471
H  -4.037363   1.014628   0.877768
C  -1.413940   0.176568   0.027635
H  -2.682102  -1.297792  -0.771291
H  -2.727916  -1.262092   0.972406
C  -0.166740  -0.683294  -0.000702
H  -1.366134   0.860688   0.918816
H  -1.399062   0.826854  -0.880458
H  -0.133838  -1.303893   0.912075
H   0.755746  -0.085865   0.018333
H  -0.169315  -1.351908  -0.844127
