14
butane_opt
C  -3.994570   0.310094   0.152960
C  -2.715907  -0.659486  -0.080736
H  -4.924686  -0.254006   0.119738
H  -4.081636   0.800195  -0.732248
H  -4.038777   1.088669   1.056019
C  -1.346285   0.146464  -0.121375
H  -2.628203  -1.394359  -0.935485
H  -2.625624  -1.214671   0.725122
C  -0.138660  -0.682983   0.150736
H  -1.465372   0.598298   0.575987
H  -1.139616   0.968429  -1.147624
H  -0.331342  -1.106240   0.981767
H   0.753067  -0.059021   0.321582
H  -0.177028  -1.278846  -0.723306
