butane_opt
 OpenBabel08242015383D

 14 13  0  0  0  0  0  0  0  0999 V2000
   -3.9668    0.2563   -0.0984 C   0  0  0  0  0  0  0  0  0  0  0  0
   -2.7319   -0.5887    0.1567 C   0  0  0  0  0  0  0  0  0  0  0  0
   -4.9250   -0.4343   -0.1159 H   0  0  0  0  0  0  0  0  0  0  0  0
   -3.8425    0.8291   -1.0018 H   0  0  0  0  0  0  0  0  0  0  0  0
   -4.0172    0.9474    0.7616 H   0  0  0  0  0  0  0  0  0  0  0  0
   -1.3882    0.1814    0.1011 C   0  0  0  0  0  0  0  0  0  0  0  0
   -2.7341   -1.0964   -0.5707 H   0  0  0  0  0  0  0  0  0  0  0  0
   -2.7403   -1.4160    1.2285 H   0  0  0  0  0  0  0  0  0  0  0  0
   -0.1149   -0.6972   -0.0572 C   0  0  0  0  0  0  0  0  0  0  0  0
   -1.3566    0.9995    1.0920 H   0  0  0  0  0  0  0  0  0  0  0  0
   -1.4318    0.7556   -0.7371 H   0  0  0  0  0  0  0  0  0  0  0  0
    0.0032   -1.1707    0.6483 H   0  0  0  0  0  0  0  0  0  0  0  0
    0.5756   -0.2421   -0.0560 H   0  0  0  0  0  0  0  0  0  0  0  0
   -0.1169   -1.4980   -1.0633 H   0  0  0  0  0  0  0  0  0  0  0  0
  1  2  1  0  0  0  0
  1  5  1  0  0  0  0
  2  8  1  0  0  0  0
  3  1  1  0  0  0  0
  4  1  1  0  0  0  0
  6  2  1  0  0  0  0
  6 10  1  0  0  0  0
  7  2  1  0  0  0  0
  9 13  1  0  0  0  0
  9  6  1  0  0  0  0
  9 12  1  0  0  0  0
 11  6  1  0  0  0  0
 14  9  1  0  0  0  0
M  END
$$$$
