butane_opt
 OpenBabel08242015383D

 14 13  0  0  0  0  0  0  0  0999 V2000
   -3.9241    0.2462    0.0654 C   0  0  0  0  0  0  0  0  0  0  0  0
   -2.7313   -0.5543    0.0173 C   0  0  0  0  0  0  0  0  0  0  0  0
   -4.8015   -0.3615   -0.1877 H   0  0  0  0  0  0  0  0  0  0  0  0
   -3.8578    0.4541   -0.5795 H   0  0  0  0  0  0  0  0  0  0  0  0
   -3.8758    1.1733    1.1482 H   0  0  0  0  0  0  0  0  0  0  0  0
   -1.4077    0.1707   -0.0737 C   0  0  0  0  0  0  0  0  0  0  0  0
   -2.7813   -1.3291   -0.9494 H   0  0  0  0  0  0  0  0  0  0  0  0
   -2.7295   -1.1300    0.8166 H   0  0  0  0  0  0  0  0  0  0  0  0
   -0.1596   -0.7087    0.0979 C   0  0  0  0  0  0  0  0  0  0  0  0
   -1.4538    0.7217    0.6306 H   0  0  0  0  0  0  0  0  0  0  0  0
   -1.4962    1.0284   -1.0825 H   0  0  0  0  0  0  0  0  0  0  0  0
   -0.0861   -1.4820    1.0752 H   0  0  0  0  0  0  0  0  0  0  0  0
    0.8133   -0.1477    0.1146 H   0  0  0  0  0  0  0  0  0  0  0  0
   -0.1007   -1.2482   -0.7584 H   0  0  0  0  0  0  0  0  0  0  0  0
  1  5  1  0  0  0  0
  2  1  1  0  0  0  0
  2  8  1  0  0  0  0
  3  1  1  0  0  0  0
  4  1  1  0  0  0  0
  6  2  1  0  0  0  0
  6  9  1  0  0  0  0
  6 10  1  0  0  0  0
  7  2  1  0  0  0  0
  9 13  1  0  0  0  0
  9 12  1  0  0  0  0
 11  6  1  0  0  0  0
 14  9  1  0  0  0  0
M  END
$$$$
