butane_opt
 OpenBabel08242015383D

 14 13  0  0  0  0  0  0  0  0999 V2000
   -3.9528    0.2565   -0.0591 C   0  0  0  0  0  0  0  0  0  0  0  0
   -2.6687   -0.5846    0.1221 C   0  0  0  0  0  0  0  0  0  0  0  0
   -4.9400   -0.4657   -0.0678 H   0  0  0  0  0  0  0  0  0  0  0  0
   -3.7415    0.9427   -0.9851 H   0  0  0  0  0  0  0  0  0  0  0  0
   -3.9556    0.7948    0.6807 H   0  0  0  0  0  0  0  0  0  0  0  0
   -1.4052    0.1907    0.1260 C   0  0  0  0  0  0  0  0  0  0  0  0
   -2.5254   -1.2233   -0.7297 H   0  0  0  0  0  0  0  0  0  0  0  0
   -2.9106   -1.2142    0.9874 H   0  0  0  0  0  0  0  0  0  0  0  0
   -0.1812   -0.7150   -0.0619 C   0  0  0  0  0  0  0  0  0  0  0  0
   -1.3271    0.9394    1.0090 H   0  0  0  0  0  0  0  0  0  0  0  0
   -1.5779    0.6858   -0.7003 H   0  0  0  0  0  0  0  0  0  0  0  0
    0.0197   -1.3737    0.7876 H   0  0  0  0  0  0  0  0  0  0  0  0
    0.7268   -0.1558   -0.2054 H   0  0  0  0  0  0  0  0  0  0  0  0
   -0.2920   -1.1706   -0.8277 H   0  0  0  0  0  0  0  0  0  0  0  0
  1  2  1  0  0  0  0
  1  5  1  0  0  0  0
  2  6  1  0  0  0  0
  2  8  1  0  0  0  0
  3  1  1  0  0  0  0
  4  1  1  0  0  0  0
  6 10  1  0  0  0  0
  7  2  1  0  0  0  0
  9  6  1  0  0  0  0
  9 12  1  0  0  0  0
 11  6  1  0  0  0  0
 13  9  1  0  0  0  0
 14  9  1  0  0  0  0
M  END
$$$$
