14
butane_opt
C  -3.913170   0.251721   0.065527
C  -2.713878  -0.568669   0.005059
H  -4.842819  -0.383928  -0.289604
H  -3.895067   0.436467  -0.584521
H  -3.881619   1.223833   1.143612
C  -1.416004   0.207024  -0.062173
H  -2.710176  -1.232199  -0.774434
H  -2.723234  -1.234141   0.965452
C  -0.189415  -0.739338   0.078208
H  -1.507562   0.741948   0.705702
H  -1.290128   0.882500  -1.061386
H  -0.243399  -1.460217   1.060230
H   0.875130   0.029426   0.023866
H  -0.027637  -1.276788  -0.760013
