14
butane_opt
C  -3.980802   0.274906   0.076358
C  -2.689613  -0.665134  -0.041375
H  -4.809217  -0.201807   0.302528
H  -4.347129   1.083040  -0.842002
H  -4.058130   0.955202   0.884308
C  -1.373972   0.152738  -0.046824
H  -2.833472  -1.450312  -0.888925
H  -2.550921  -1.192905   0.787309
C  -0.137322  -0.656681   0.105320
H  -1.463564   0.811657   0.777089
H  -1.315486   0.936660  -1.075585
H  -0.173077  -1.274295   0.991051
H   0.860867   0.003418   0.253149
H  -0.157555  -1.406497  -0.886000
