butane_opt
 OpenBabel08242015383D

 14 13  0  0  0  0  0  0  0  0999 V2000
   -3.9585    0.2506    0.1447 C   0  0  0  0  0  0  0  0  0  0  0  0
   -2.7026   -0.5936   -0.1359 C   0  0  0  0  0  0  0  0  0  0  0  0
   -4.8801   -0.4431    0.4981 H   0  0  0  0  0  0  0  0  0  0  0  0
   -4.1848    1.0624   -0.7911 H   0  0  0  0  0  0  0  0  0  0  0  0
   -3.7187    0.7866    0.9237 H   0  0  0  0  0  0  0  0  0  0  0  0
   -1.4273    0.2137   -0.0862 C   0  0  0  0  0  0  0  0  0  0  0  0
   -2.8631   -1.3861   -1.0498 H   0  0  0  0  0  0  0  0  0  0  0  0
   -2.7154   -1.1189    0.6565 H   0  0  0  0  0  0  0  0  0  0  0  0
   -0.1021   -0.6984    0.1571 C   0  0  0  0  0  0  0  0  0  0  0  0
   -1.6187    0.7326    0.6118 H   0  0  0  0  0  0  0  0  0  0  0  0
   -1.2376    0.7789   -0.9957 H   0  0  0  0  0  0  0  0  0  0  0  0
   -0.1757   -1.4203    1.1445 H   0  0  0  0  0  0  0  0  0  0  0  0
    0.8064   -0.1607    0.1457 H   0  0  0  0  0  0  0  0  0  0  0  0
   -0.1416   -1.3533   -0.6686 H   0  0  0  0  0  0  0  0  0  0  0  0
  1  3  1  0  0  0  0
  1  5  1  0  0  0  0
  2  6  1  0  0  0  0
  2  1  1  0  0  0  0
  2  8  1  0  0  0  0
  4  1  1  0  0  0  0
  6  9  1  0  0  0  0
  6 10  1  0  0  0  0
  7  2  1  0  0  0  0
  9 12  1  0  0  0  0
 11  6  1  0  0  0  0
 13  9  1  0  0  0  0
 14  9  1  0  0  0  0
M  END
$$$$
