butane_opt
 OpenBabel08242015383D

 14 12  0  0  0  0  0  0  0  0999 V2000
   -3.9523    0.2900   -0.0495 C   0  0  0  0  0  0  0  0  0  0  0  0
   -2.6579   -0.6615    0.1022 C   0  0  0  0  0  0  0  0  0  0  0  0
   -4.8511   -0.2295    0.2741 H   0  0  0  0  0  0  0  0  0  0  0  0
   -4.0579    1.3090   -1.2079 H   0  0  0  0  0  0  0  0  0  0  0  0
   -3.8791    0.6444    0.5511 H   0  0  0  0  0  0  0  0  0  0  0  0
   -1.3891    0.1721    0.1056 C   0  0  0  0  0  0  0  0  0  0  0  0
   -2.5114   -1.2765   -0.7010 H   0  0  0  0  0  0  0  0  0  0  0  0
   -2.6220   -1.3852    1.0718 H   0  0  0  0  0  0  0  0  0  0  0  0
   -0.2368   -0.6647   -0.0679 C   0  0  0  0  0  0  0  0  0  0  0  0
   -1.3230    0.9400    1.0576 H   0  0  0  0  0  0  0  0  0  0  0  0
   -1.3648    0.5081   -0.6639 H   0  0  0  0  0  0  0  0  0  0  0  0
   -0.2847   -1.1132    0.7808 H   0  0  0  0  0  0  0  0  0  0  0  0
    0.7954    0.0191    0.1707 H   0  0  0  0  0  0  0  0  0  0  0  0
   -0.1127   -1.4874   -1.0417 H   0  0  0  0  0  0  0  0  0  0  0  0
  1  2  1  0  0  0  0
  1  3  1  0  0  0  0
  1  5  1  0  0  0  0
  2  6  1  0  0  0  0
  2  8  1  0  0  0  0
  6 10  1  0  0  0  0
  7  2  1  0  0  0  0
  9  6  1  0  0  0  0
  9 13  1  0  0  0  0
  9 12  1  0  0  0  0
 11  6  1  0  0  0  0
 14  9  1  0  0  0  0
M  RAD  2   1   2   4   2
M  END
$$$$
