14
butane_opt
C  -3.945405   0.224332   0.018998
C  -2.755407  -0.574824   0.014348
H  -4.860718  -0.383533   0.267654
H  -4.030629   1.188238  -1.074433
H  -3.892589   0.576810   0.616107
C  -1.405538   0.253671   0.046923
H  -2.808620  -1.263095  -0.857788
H  -2.687524  -1.320683   0.964126
C  -0.137053  -0.726970   0.010586
H  -1.286125   1.056468   1.082011
H  -1.402167   0.719092  -0.723567
H   0.089166  -1.485772   0.895288
H   0.751143  -0.218726   0.058715
H   0.022913  -1.444469  -0.909918
