butane_opt
 OpenBabel08242015383D

 14 13  0  0  0  0  0  0  0  0999 V2000
   -3.9754    0.2760    0.0785 C   0  0  0  0  0  0  0  0  0  0  0  0
   -2.7024   -0.6142   -0.0373 C   0  0  0  0  0  0  0  0  0  0  0  0
   -4.8267   -0.3324    0.4038 H   0  0  0  0  0  0  0  0  0  0  0  0
   -4.0872    1.0692   -0.9191 H   0  0  0  0  0  0  0  0  0  0  0  0
   -3.8788    0.6791    0.7871 H   0  0  0  0  0  0  0  0  0  0  0  0
   -1.4131    0.1671   -0.0558 C   0  0  0  0  0  0  0  0  0  0  0  0
   -2.7040   -1.3185   -0.9241 H   0  0  0  0  0  0  0  0  0  0  0  0
   -2.6119   -1.3184    0.8744 H   0  0  0  0  0  0  0  0  0  0  0  0
   -0.1217   -0.6889    0.0734 C   0  0  0  0  0  0  0  0  0  0  0  0
   -1.4251    1.0523    0.8983 H   0  0  0  0  0  0  0  0  0  0  0  0
   -1.2563    0.7613   -0.8539 H   0  0  0  0  0  0  0  0  0  0  0  0
   -0.4515   -1.1980    0.9960 H   0  0  0  0  0  0  0  0  0  0  0  0
    0.8222   -0.0902    0.1984 H   0  0  0  0  0  0  0  0  0  0  0  0
   -0.0387   -1.4578   -0.7733 H   0  0  0  0  0  0  0  0  0  0  0  0
  1  3  1  0  0  0  0
  1  5  1  0  0  0  0
  2  1  1  0  0  0  0
  2  8  1  0  0  0  0
  4  1  1  0  0  0  0
  6  2  1  0  0  0  0
  6  9  1  0  0  0  0
  6 10  1  0  0  0  0
  7  2  1  0  0  0  0
  9 13  1  0  0  0  0
  9 12  1  0  0  0  0
 11  6  1  0  0  0  0
 14  9  1  0  0  0  0
M  END
$$$$
