14
butane_opt
C  -3.915708   0.228331  -0.047939
C  -2.737868  -0.592169   0.077361
H  -4.827746  -0.309155   0.460246
H  -4.225185   1.183701  -1.222637
H  -3.874735   0.428730   0.458882
C  -1.448420   0.241675   0.116839
H  -2.661229  -1.252928  -0.660286
H  -2.842616  -1.189733   0.964361
C  -0.110561  -0.717138  -0.058214
H  -1.357151   1.073216   1.097765
H  -1.420733   0.671930  -0.652368
H  -0.107559  -1.244435   0.777836
H   0.743968  -0.249032   0.060629
H   0.109315  -1.510234  -0.965608
