butane_opt
 OpenBabel08242015383D

 14 13  0  0  0  0  0  0  0  0999 V2000
   -3.9270    0.2965    0.0495 C   0  0  0  0  0  0  0  0  0  0  0  0
   -2.6768   -0.6415    0.0382 C   0  0  0  0  0  0  0  0  0  0  0  0
   -4.7980   -0.3031   -0.1653 H   0  0  0  0  0  0  0  0  0  0  0  0
   -3.9231    0.6221   -0.6796 H   0  0  0  0  0  0  0  0  0  0  0  0
   -4.2522    1.3387    1.0976 H   0  0  0  0  0  0  0  0  0  0  0  0
   -1.3780    0.1366   -0.0602 C   0  0  0  0  0  0  0  0  0  0  0  0
   -2.7192   -1.4838   -0.8953 H   0  0  0  0  0  0  0  0  0  0  0  0
   -2.5025   -1.2734    0.8369 H   0  0  0  0  0  0  0  0  0  0  0  0
   -0.2253   -0.6612    0.0704 C   0  0  0  0  0  0  0  0  0  0  0  0
   -1.1865    0.7338    0.7933 H   0  0  0  0  0  0  0  0  0  0  0  0
   -1.3257    0.9272   -1.0256 H   0  0  0  0  0  0  0  0  0  0  0  0
   -0.3012   -1.3887    0.9896 H   0  0  0  0  0  0  0  0  0  0  0  0
    0.6318   -0.0661    0.0288 H   0  0  0  0  0  0  0  0  0  0  0  0
   -0.1417   -1.1440   -0.6539 H   0  0  0  0  0  0  0  0  0  0  0  0
  1  5  1  0  0  0  0
  2  1  1  0  0  0  0
  2  8  1  0  0  0  0
  3  1  1  0  0  0  0
  4  1  1  0  0  0  0
  6  2  1  0  0  0  0
  6  9  1  0  0  0  0
  6 10  1  0  0  0  0
  7  2  1  0  0  0  0
  9 12  1  0  0  0  0
 11  6  1  0  0  0  0
 13  9  1  0  0  0  0
 14  9  1  0  0  0  0
M  END
$$$$
