butane_opt
 OpenBabel08242015383D

 14 13  0  0  0  0  0  0  0  0999 V2000
   -3.9120    0.3043    0.1275 C   0  0  0  0  0  0  0  0  0  0  0  0
   -2.6874   -0.6324   -0.0847 C   0  0  0  0  0  0  0  0  0  0  0  0
   -4.8532   -0.3009    0.3503 H   0  0  0  0  0  0  0  0  0  0  0  0
   -4.0908    1.0236   -0.8056 H   0  0  0  0  0  0  0  0  0  0  0  0
   -4.0070    0.9650    0.8621 H   0  0  0  0  0  0  0  0  0  0  0  0
   -1.3957    0.0946   -0.0625 C   0  0  0  0  0  0  0  0  0  0  0  0
   -2.7072   -1.5692   -1.0894 H   0  0  0  0  0  0  0  0  0  0  0  0
   -2.7172   -1.0598    0.7312 H   0  0  0  0  0  0  0  0  0  0  0  0
   -0.1854   -0.6571    0.1127 C   0  0  0  0  0  0  0  0  0  0  0  0
   -1.4093    0.7347    0.7882 H   0  0  0  0  0  0  0  0  0  0  0  0
   -1.3390    0.8146   -1.0757 H   0  0  0  0  0  0  0  0  0  0  0  0
   -0.3415   -1.3541    1.0998 H   0  0  0  0  0  0  0  0  0  0  0  0
    0.7669    0.0084    0.0660 H   0  0  0  0  0  0  0  0  0  0  0  0
   -0.1605   -1.0349   -0.5666 H   0  0  0  0  0  0  0  0  0  0  0  0
  1  3  1  0  0  0  0
  1  5  1  0  0  0  0
  2  6  1  0  0  0  0
  2  1  1  0  0  0  0
  2  8  1  0  0  0  0
  4  1  1  0  0  0  0
  6  9  1  0  0  0  0
  6 10  1  0  0  0  0
  7  2  1  0  0  0  0
  9 12  1  0  0  0  0
 11  6  1  0  0  0  0
 13  9  1  0  0  0  0
 14  9  1  0  0  0  0
M  END
$$$$
