butane_opt
 OpenBabel08242015383D

 14 13  0  0  0  0  0  0  0  0999 V2000
   -3.9067    0.2249    0.0740 C   0  0  0  0  0  0  0  0  0  0  0  0
   -2.6950   -0.5433   -0.0019 C   0  0  0  0  0  0  0  0  0  0  0  0
   -4.9009   -0.4186    0.0704 H   0  0  0  0  0  0  0  0  0  0  0  0
   -3.9485    0.8223   -0.7635 H   0  0  0  0  0  0  0  0  0  0  0  0
   -3.6425    0.8627    0.8427 H   0  0  0  0  0  0  0  0  0  0  0  0
   -1.4439    0.2055   -0.0716 C   0  0  0  0  0  0  0  0  0  0  0  0
   -2.8274   -1.1338   -0.7203 H   0  0  0  0  0  0  0  0  0  0  0  0
   -2.7316   -1.3386    0.9958 H   0  0  0  0  0  0  0  0  0  0  0  0
   -0.1609   -0.7209    0.0741 C   0  0  0  0  0  0  0  0  0  0  0  0
   -1.6554    0.7882    0.6750 H   0  0  0  0  0  0  0  0  0  0  0  0
   -1.3253    0.7947   -0.9462 H   0  0  0  0  0  0  0  0  0  0  0  0
   -0.3104   -1.0491    0.7666 H   0  0  0  0  0  0  0  0  0  0  0  0
    0.6638   -0.2167    0.5032 H   0  0  0  0  0  0  0  0  0  0  0  0
    0.1316   -1.5926   -0.9338 H   0  0  0  0  0  0  0  0  0  0  0  0
  1  5  1  0  0  0  0
  2  1  1  0  0  0  0
  2  8  1  0  0  0  0
  3  1  1  0  0  0  0
  4  1  1  0  0  0  0
  6  2  1  0  0  0  0
  6  9  1  0  0  0  0
  6 10  1  0  0  0  0
  7  2  1  0  0  0  0
  9 13  1  0  0  0  0
  9 12  1  0  0  0  0
 11  6  1  0  0  0  0
 14  9  1  0  0  0  0
M  END
$$$$
