14
butane_opt
C  -3.909992   0.223455   0.083527
C  -2.716756  -0.587988   0.019943
H  -4.770489  -0.324284   0.088237
H  -3.792783   0.855740  -0.801500
H  -3.847761   0.872584   0.867102
C  -1.414537   0.239658  -0.120281
H  -2.815065  -1.216422  -0.838370
H  -2.712908  -1.284518   1.035526
C  -0.166027  -0.734071   0.096881
H  -1.580586   1.046902   0.786358
H  -1.452407   0.839316  -0.986933
H  -0.421473  -1.098782   0.809347
H   0.718370  -0.153369   0.455329
H   0.138648  -1.724898  -0.977345
