14
butane_opt
C  -3.980985   0.302678  -0.009696
C  -2.684128  -0.675194   0.091442
H  -4.909519  -0.240384  -0.041378
H  -4.022703   0.986053  -1.009468
H  -4.131326   0.866154   0.784337
C  -1.404319   0.195120   0.040142
H  -2.787111  -1.396166  -0.687962
H  -2.609442  -1.444189   1.065749
C  -0.148860  -0.663794   0.000046
H  -1.334914   0.708100   0.826100
H  -1.253917   0.898920  -0.901860
H  -0.159030  -0.949713   0.697620
H   0.804002  -0.085072   0.225217
H  -0.016070  -1.699896  -1.053537
