butane_opt
 OpenBabel08242015383D

 14 13  0  0  0  0  0  0  0  0999 V2000
   -3.9324    0.3026    0.0177 C   0  0  0  0  0  0  0  0  0  0  0  0
   -2.6701   -0.6417    0.0632 C   0  0  0  0  0  0  0  0  0  0  0  0
   -4.7799   -0.2819    0.0247 H   0  0  0  0  0  0  0  0  0  0  0  0
   -3.7281    0.8727   -0.8959 H   0  0  0  0  0  0  0  0  0  0  0  0
   -4.0351    0.9450    0.8900 H   0  0  0  0  0  0  0  0  0  0  0  0
   -1.4052    0.1366   -0.0114 C   0  0  0  0  0  0  0  0  0  0  0  0
   -2.6739   -1.2623   -0.7370 H   0  0  0  0  0  0  0  0  0  0  0  0
   -2.7934   -1.3884    1.0103 H   0  0  0  0  0  0  0  0  0  0  0  0
   -0.2182   -0.6487    0.0030 C   0  0  0  0  0  0  0  0  0  0  0  0
   -1.2211    0.9359    0.8816 H   0  0  0  0  0  0  0  0  0  0  0  0
   -1.3960    0.7876   -0.8871 H   0  0  0  0  0  0  0  0  0  0  0  0
   -0.3528   -1.2147    0.9050 H   0  0  0  0  0  0  0  0  0  0  0  0
    0.6609   -0.0696    0.2675 H   0  0  0  0  0  0  0  0  0  0  0  0
   -0.0263   -1.5737   -0.8795 H   0  0  0  0  0  0  0  0  0  0  0  0
  1  3  1  0  0  0  0
  1  2  1  0  0  0  0
  1  5  1  0  0  0  0
  2  8  1  0  0  0  0
  4  1  1  0  0  0  0
  6  9  1  0  0  0  0
  6  2  1  0  0  0  0
  6 10  1  0  0  0  0
  7  2  1  0  0  0  0
  9 13  1  0  0  0  0
  9 12  1  0  0  0  0
 11  6  1  0  0  0  0
 14  9  1  0  0  0  0
M  END
$$$$
