14
butane_opt
C  -3.926491   0.257278   0.112037
C  -2.694438  -0.646363  -0.059291
H  -4.704922  -0.250279  -0.244369
H  -3.994868   0.722583  -0.583531
H  -4.008899   1.172201   1.108556
C  -1.416253   0.186303  -0.079246
H  -2.713119  -1.254148  -0.857993
H  -2.530086  -1.297214   0.751698
C  -0.162320  -0.692023   0.111474
H  -1.417464   0.931095   0.787545
H  -1.439915   0.882890  -0.998375
H  -0.261940  -1.536117   1.190065
H   0.723521  -0.083082  -0.109464
H  -0.269957  -1.032687  -0.582169
