butane_opt
 OpenBabel08242015383D

 14 13  0  0  0  0  0  0  0  0999 V2000
   -3.9390    0.2835    0.0884 C   0  0  0  0  0  0  0  0  0  0  0  0
   -2.6578   -0.6364   -0.0790 C   0  0  0  0  0  0  0  0  0  0  0  0
   -4.9025   -0.3438    0.0390 H   0  0  0  0  0  0  0  0  0  0  0  0
   -3.9185    0.6905   -0.6179 H   0  0  0  0  0  0  0  0  0  0  0  0
   -3.9202    1.2287    1.0510 H   0  0  0  0  0  0  0  0  0  0  0  0
   -1.3973    0.1405   -0.0439 C   0  0  0  0  0  0  0  0  0  0  0  0
   -2.7590   -1.3389   -0.9152 H   0  0  0  0  0  0  0  0  0  0  0  0
   -2.6345   -1.0473    0.7174 H   0  0  0  0  0  0  0  0  0  0  0  0
   -0.2232   -0.6685    0.1359 C   0  0  0  0  0  0  0  0  0  0  0  0
   -1.3757    0.7031    0.7872 H   0  0  0  0  0  0  0  0  0  0  0  0
   -1.3255    0.8926   -1.0659 H   0  0  0  0  0  0  0  0  0  0  0  0
    0.0308   -1.5591    1.2353 H   0  0  0  0  0  0  0  0  0  0  0  0
    0.7330   -0.0305   -0.4023 H   0  0  0  0  0  0  0  0  0  0  0  0
   -0.3671   -1.0975   -0.5484 H   0  0  0  0  0  0  0  0  0  0  0  0
  1  5  1  0  0  0  0
  2  6  1  0  0  0  0
  2  1  1  0  0  0  0
  2  8  1  0  0  0  0
  3  1  1  0  0  0  0
  4  1  1  0  0  0  0
  6  9  1  0  0  0  0
  6 10  1  0  0  0  0
  7  2  1  0  0  0  0
  9 12  1  0  0  0  0
 11  6  1  0  0  0  0
 13  9  1  0  0  0  0
 14  9  1  0  0  0  0
M  END
$$$$
