14
butane_opt
C  -3.938452   0.303501  -0.000984
C  -2.674185  -0.677916   0.098087
H  -4.749652  -0.162667   0.137835
H  -3.853131   1.105925  -1.082799
H  -3.991070   0.697245   0.744046
C  -1.405918   0.130649   0.022921
H  -2.795275  -1.293608  -0.796464
H  -2.541454  -1.325183   0.980270
C  -0.192930  -0.646753   0.008790
H  -1.455042   0.880511   0.908409
H  -1.496461   0.926961  -0.991257
H  -0.403105  -0.875851   0.611613
H   0.796138  -0.042812   0.406503
H  -0.038194  -1.680279  -1.093011
