14
butane_opt
C  -3.986051   0.261073  -0.107217
C  -2.734540  -0.623467   0.222398
H  -4.929937  -0.367371  -0.396664
H  -3.631229   0.690604  -0.963544
H  -4.116597   1.109213   0.850693
C  -1.405779   0.218602   0.099108
H  -2.603616  -1.105803  -0.567025
H  -2.821198  -1.288480   1.136763
C  -0.122604  -0.706638  -0.088696
H  -1.245195   0.957788   1.031781
H  -1.340650   0.730765  -0.713882
H  -0.060164  -1.323689   0.709363
H   0.777922  -0.154936  -0.181715
H  -0.068957  -1.526292  -0.972643
