14
butane_opt
C  -3.952191   0.277761   0.086167
C  -2.685759  -0.636031   0.001413
H  -4.928943  -0.330165   0.078284
H  -4.153925   0.840152  -0.799075
H  -4.006253   1.082168   1.078826
C  -1.364094   0.168008  -0.112482
H  -2.734709  -1.313914  -0.786610
H  -2.618788  -1.193898   0.806109
C  -0.192641  -0.672283   0.087648
H  -1.471072   0.754129   0.689232
H  -1.209113   0.838848  -1.001160
H  -0.354422  -1.201897   0.939677
H   0.729256  -0.124554   0.468754
H   0.077426  -1.481455  -0.798433
