butane_opt
 OpenBabel08242015383D

 14 12  0  0  0  0  0  0  0  0999 V2000
   -3.9112    0.2518    0.0359 C   0  0  0  0  0  0  0  0  0  0  0  0
   -2.7087   -0.5770    0.0534 C   0  0  0  0  0  0  0  0  0  0  0  0
   -4.9154   -0.5183   -0.2463 H   0  0  0  0  0  0  0  0  0  0  0  0
   -3.6859    0.4002   -0.5895 H   0  0  0  0  0  0  0  0  0  0  0  0
   -3.8781    1.3001    1.1912 H   0  0  0  0  0  0  0  0  0  0  0  0
   -1.4164    0.2116   -0.0636 C   0  0  0  0  0  0  0  0  0  0  0  0
   -2.7697   -1.3049   -0.8297 H   0  0  0  0  0  0  0  0  0  0  0  0
   -2.7750   -1.0568    0.8398 H   0  0  0  0  0  0  0  0  0  0  0  0
   -0.1817   -0.7200    0.0733 C   0  0  0  0  0  0  0  0  0  0  0  0
   -1.4787    0.6697    0.6958 H   0  0  0  0  0  0  0  0  0  0  0  0
   -1.3971    1.0493   -1.0753 H   0  0  0  0  0  0  0  0  0  0  0  0
   -0.1117   -1.4821    1.0407 H   0  0  0  0  0  0  0  0  0  0  0  0
    0.6643   -0.1560    0.0078 H   0  0  0  0  0  0  0  0  0  0  0  0
   -0.0671   -1.3909   -0.7270 H   0  0  0  0  0  0  0  0  0  0  0  0
  1  2  1  0  0  0  0
  2  8  1  0  0  0  0
  3  1  1  0  0  0  0
  4  1  1  0  0  0  0
  6  2  1  0  0  0  0
  6  9  1  0  0  0  0
  6 10  1  0  0  0  0
  7  2  1  0  0  0  0
  9 12  1  0  0  0  0
 11  6  1  0  0  0  0
 13  9  1  0  0  0  0
 14  9  1  0  0  0  0
M  RAD  2   1   2   5   2
M  END
$$$$
