butane_opt
 OpenBabel08242015383D

 14 13  0  0  0  0  0  0  0  0999 V2000
   -3.9666    0.3107    0.0498 C   0  0  0  0  0  0  0  0  0  0  0  0
   -2.7111   -0.6669    0.0549 C   0  0  0  0  0  0  0  0  0  0  0  0
   -4.8172   -0.2151   -0.3622 H   0  0  0  0  0  0  0  0  0  0  0  0
   -4.1140    0.5441   -0.5558 H   0  0  0  0  0  0  0  0  0  0  0  0
   -4.1524    1.3036    1.1040 H   0  0  0  0  0  0  0  0  0  0  0  0
   -1.3912    0.1284   -0.0603 C   0  0  0  0  0  0  0  0  0  0  0  0
   -2.7117   -1.3694   -0.8106 H   0  0  0  0  0  0  0  0  0  0  0  0
   -2.7380   -1.1534    0.8296 H   0  0  0  0  0  0  0  0  0  0  0  0
   -0.1295   -0.6695    0.0697 C   0  0  0  0  0  0  0  0  0  0  0  0
   -1.3316    0.6664    0.7328 H   0  0  0  0  0  0  0  0  0  0  0  0
   -1.2167    0.9604   -1.1282 H   0  0  0  0  0  0  0  0  0  0  0  0
   -0.2506   -1.3169    0.9603 H   0  0  0  0  0  0  0  0  0  0  0  0
    0.7877    0.0542    0.0517 H   0  0  0  0  0  0  0  0  0  0  0  0
   -0.1080   -1.1873   -0.7164 H   0  0  0  0  0  0  0  0  0  0  0  0
  1  2  1  0  0  0  0
  1  5  1  0  0  0  0
  2  8  1  0  0  0  0
  3  1  1  0  0  0  0
  4  1  1  0  0  0  0
  6  2  1  0  0  0  0
  6  9  1  0  0  0  0
  6 10  1  0  0  0  0
  7  2  1  0  0  0  0
  9 12  1  0  0  0  0
 11  6  1  0  0  0  0
 13  9  1  0  0  0  0
 14  9  1  0  0  0  0
M  END
$$$$
