butane_opt
 OpenBabel08242015383D

 14 13  0  0  0  0  0  0  0  0999 V2000
   -3.9371    0.2911    0.1246 C   0  0  0  0  0  0  0  0  0  0  0  0
   -2.6670   -0.6568   -0.0283 C   0  0  0  0  0  0  0  0  0  0  0  0
   -4.7720   -0.3021   -0.0753 H   0  0  0  0  0  0  0  0  0  0  0  0
   -3.9323    0.8743   -0.7550 H   0  0  0  0  0  0  0  0  0  0  0  0
   -4.0857    1.1023    1.1313 H   0  0  0  0  0  0  0  0  0  0  0  0
   -1.4159    0.1172   -0.1185 C   0  0  0  0  0  0  0  0  0  0  0  0
   -2.6538   -1.3991   -0.9229 H   0  0  0  0  0  0  0  0  0  0  0  0
   -2.4328   -1.2333    0.8163 H   0  0  0  0  0  0  0  0  0  0  0  0
   -0.2111   -0.6312    0.1201 C   0  0  0  0  0  0  0  0  0  0  0  0
   -1.3819    0.6870    0.6486 H   0  0  0  0  0  0  0  0  0  0  0  0
   -1.2369    1.0622   -1.1376 H   0  0  0  0  0  0  0  0  0  0  0  0
   -0.3258   -1.1868    1.0156 H   0  0  0  0  0  0  0  0  0  0  0  0
    0.6887   -0.0871    0.4307 H   0  0  0  0  0  0  0  0  0  0  0  0
   -0.1159   -1.4509   -0.8806 H   0  0  0  0  0  0  0  0  0  0  0  0
  1  5  1  0  0  0  0
  2  1  1  0  0  0  0
  2  8  1  0  0  0  0
  3  1  1  0  0  0  0
  4  1  1  0  0  0  0
  6  2  1  0  0  0  0
  6  9  1  0  0  0  0
  6 10  1  0  0  0  0
  7  2  1  0  0  0  0
  9 13  1  0  0  0  0
  9 12  1  0  0  0  0
 11  6  1  0  0  0  0
 14  9  1  0  0  0  0
M  END
$$$$
