butane_opt
 OpenBabel08242015383D

 14 13  0  0  0  0  0  0  0  0999 V2000
   -3.9154    0.2276   -0.0088 C   0  0  0  0  0  0  0  0  0  0  0  0
   -2.7724   -0.5878    0.0558 C   0  0  0  0  0  0  0  0  0  0  0  0
   -4.8303   -0.3288   -0.2123 H   0  0  0  0  0  0  0  0  0  0  0  0
   -3.9454    0.9279   -0.8831 H   0  0  0  0  0  0  0  0  0  0  0  0
   -4.1023    0.9206    0.8042 H   0  0  0  0  0  0  0  0  0  0  0  0
   -1.3979    0.2232    0.0889 C   0  0  0  0  0  0  0  0  0  0  0  0
   -2.8795   -1.3006   -0.7647 H   0  0  0  0  0  0  0  0  0  0  0  0
   -2.6701   -1.1544    0.8835 H   0  0  0  0  0  0  0  0  0  0  0  0
   -0.1181   -0.7359   -0.0146 C   0  0  0  0  0  0  0  0  0  0  0  0
   -1.3964    0.8967    0.9495 H   0  0  0  0  0  0  0  0  0  0  0  0
   -1.4277    0.8483   -0.7309 H   0  0  0  0  0  0  0  0  0  0  0  0
    0.1665   -1.5247    0.9645 H   0  0  0  0  0  0  0  0  0  0  0  0
    0.7373   -0.2403   -0.3487 H   0  0  0  0  0  0  0  0  0  0  0  0
   -0.2079   -1.0496   -0.6771 H   0  0  0  0  0  0  0  0  0  0  0  0
  1  2  1  0  0  0  0
  1  5  1  0  0  0  0
  2  6  1  0  0  0  0
  2  8  1  0  0  0  0
  3  1  1  0  0  0  0
  4  1  1  0  0  0  0
  6 10  1  0  0  0  0
  7  2  1  0  0  0  0
  9  6  1  0  0  0  0
  9 12  1  0  0  0  0
 11  6  1  0  0  0  0
 13  9  1  0  0  0  0
 14  9  1  0  0  0  0
M  END
$$$$
