14
butane_opt
C  -3.897036   0.231778   0.104911
C  -2.693278  -0.553905  -0.054609
H  -4.910383  -0.472158   0.004370
H  -3.955364   0.802867  -0.755027
H  -3.833107   0.852788   0.941902
C  -1.433344   0.193184  -0.044292
H  -2.973626  -1.363432  -1.021750
H  -2.531473  -1.074029   0.707844
C  -0.149676  -0.738578   0.096973
H  -1.600777   0.926412   0.804046
H  -1.491864   0.961915  -0.990089
H  -0.165244  -1.525984   1.157960
H   0.721998  -0.078826  -0.114588
H  -0.180767  -1.113455  -0.531682
