butane_opt
 OpenBabel08242015383D

 14 13  0  0  0  0  0  0  0  0999 V2000
   -3.9730    0.2918   -0.0535 C   0  0  0  0  0  0  0  0  0  0  0  0
   -2.7389   -0.6335    0.1578 C   0  0  0  0  0  0  0  0  0  0  0  0
   -4.8720   -0.2968   -0.3844 H   0  0  0  0  0  0  0  0  0  0  0  0
   -3.7355    0.8013   -0.9932 H   0  0  0  0  0  0  0  0  0  0  0  0
   -4.3335    1.0842    0.8944 H   0  0  0  0  0  0  0  0  0  0  0  0
   -1.3722    0.1551    0.0993 C   0  0  0  0  0  0  0  0  0  0  0  0
   -2.7155   -1.2383   -0.6478 H   0  0  0  0  0  0  0  0  0  0  0  0
   -2.7936   -1.3348    1.0360 H   0  0  0  0  0  0  0  0  0  0  0  0
   -0.1072   -0.6689   -0.0533 C   0  0  0  0  0  0  0  0  0  0  0  0
   -1.4518    0.8022    0.8984 H   0  0  0  0  0  0  0  0  0  0  0  0
   -1.3647    0.7587   -0.7528 H   0  0  0  0  0  0  0  0  0  0  0  0
   -0.0835   -1.3233    0.8305 H   0  0  0  0  0  0  0  0  0  0  0  0
    0.8313   -0.0666   -0.2419 H   0  0  0  0  0  0  0  0  0  0  0  0
   -0.2211   -1.3807   -1.0054 H   0  0  0  0  0  0  0  0  0  0  0  0
  1  2  1  0  0  0  0
  1  5  1  0  0  0  0
  2  8  1  0  0  0  0
  3  1  1  0  0  0  0
  4  1  1  0  0  0  0
  6  2  1  0  0  0  0
  6 10  1  0  0  0  0
  7  2  1  0  0  0  0
  9  6  1  0  0  0  0
  9 12  1  0  0  0  0
 11  6  1  0  0  0  0
 13  9  1  0  0  0  0
 14  9  1  0  0  0  0
M  END
$$$$
