butane_opt
 OpenBabel08242015383D

 14 13  0  0  0  0  0  0  0  0999 V2000
   -3.9404    0.2880   -0.0600 C   0  0  0  0  0  0  0  0  0  0  0  0
   -2.6791   -0.6385    0.1124 C   0  0  0  0  0  0  0  0  0  0  0  0
   -4.8619   -0.2814   -0.0020 H   0  0  0  0  0  0  0  0  0  0  0  0
   -3.8922    1.0092   -1.0053 H   0  0  0  0  0  0  0  0  0  0  0  0
   -4.0245    0.8839    0.8254 H   0  0  0  0  0  0  0  0  0  0  0  0
   -1.3932    0.1587    0.0695 C   0  0  0  0  0  0  0  0  0  0  0  0
   -2.7445   -1.1986   -0.6759 H   0  0  0  0  0  0  0  0  0  0  0  0
   -2.5879   -1.2666    0.9752 H   0  0  0  0  0  0  0  0  0  0  0  0
   -0.1870   -0.6817   -0.0405 C   0  0  0  0  0  0  0  0  0  0  0  0
   -1.2708    0.9708    1.0704 H   0  0  0  0  0  0  0  0  0  0  0  0
   -1.4144    0.5540   -0.7049 H   0  0  0  0  0  0  0  0  0  0  0  0
   -0.2213   -1.3421    0.8814 H   0  0  0  0  0  0  0  0  0  0  0  0
    0.8540   -0.0245   -0.0457 H   0  0  0  0  0  0  0  0  0  0  0  0
   -0.4579   -1.2764   -0.8592 H   0  0  0  0  0  0  0  0  0  0  0  0
  1  3  1  0  0  0  0
  1  2  1  0  0  0  0
  1  5  1  0  0  0  0
  2  8  1  0  0  0  0
  4  1  1  0  0  0  0
  6  2  1  0  0  0  0
  6 10  1  0  0  0  0
  7  2  1  0  0  0  0
  9  6  1  0  0  0  0
  9 12  1  0  0  0  0
 11  6  1  0  0  0  0
 13  9  1  0  0  0  0
 14  9  1  0  0  0  0
M  END
$$$$
