14
butane_opt
C  -3.865951   0.235207   0.069538
C  -2.722788  -0.596978  -0.056995
H  -4.783913  -0.299813   0.356823
H  -4.125332   0.950508  -0.819268
H  -3.736049   0.787231   0.877572
C  -1.418221   0.193846  -0.029809
H  -2.792042  -1.335609  -0.998753
H  -2.744011  -0.937624   0.709547
C  -0.174795  -0.709878   0.110384
H  -1.409829   0.878528   0.856557
H  -1.533597   0.905919  -0.915308
H  -0.200434  -1.480845   1.125676
H   0.649256  -0.224082  -0.155267
H  -0.149769  -1.211053  -0.708620
