butane_opt
 OpenBabel08242015383D

 14 13  0  0  0  0  0  0  0  0999 V2000
   -3.9389    0.2215    0.0547 C   0  0  0  0  0  0  0  0  0  0  0  0
   -2.7758   -0.5834   -0.0485 C   0  0  0  0  0  0  0  0  0  0  0  0
   -4.7488   -0.2396    0.4960 H   0  0  0  0  0  0  0  0  0  0  0  0
   -4.0952    0.9710   -0.9731 H   0  0  0  0  0  0  0  0  0  0  0  0
   -3.7679    0.8004    0.8504 H   0  0  0  0  0  0  0  0  0  0  0  0
   -1.4037    0.2481    0.0032 C   0  0  0  0  0  0  0  0  0  0  0  0
   -2.8623   -1.3599   -1.0383 H   0  0  0  0  0  0  0  0  0  0  0  0
   -2.6848   -1.1647    0.7587 H   0  0  0  0  0  0  0  0  0  0  0  0
   -0.1116   -0.7245    0.0939 C   0  0  0  0  0  0  0  0  0  0  0  0
   -1.5182    0.7935    0.8097 H   0  0  0  0  0  0  0  0  0  0  0  0
   -1.3080    0.8450   -0.8943 H   0  0  0  0  0  0  0  0  0  0  0  0
    0.0619   -1.4386    1.0006 H   0  0  0  0  0  0  0  0  0  0  0  0
    0.7592   -0.2398   -0.0838 H   0  0  0  0  0  0  0  0  0  0  0  0
   -0.1054   -1.3465   -0.7255 H   0  0  0  0  0  0  0  0  0  0  0  0
  1  3  1  0  0  0  0
  1  5  1  0  0  0  0
  2  6  1  0  0  0  0
  2  1  1  0  0  0  0
  2  8  1  0  0  0  0
  4  1  1  0  0  0  0
  6  9  1  0  0  0  0
  6 10  1  0  0  0  0
  7  2  1  0  0  0  0
  9 12  1  0  0  0  0
 11  6  1  0  0  0  0
 13  9  1  0  0  0  0
 14  9  1  0  0  0  0
M  END
$$$$
