butane_opt
 OpenBabel08242015383D

 14 13  0  0  0  0  0  0  0  0999 V2000
   -3.9497    0.2450   -0.0390 C   0  0  0  0  0  0  0  0  0  0  0  0
   -2.6731   -0.5795    0.0335 C   0  0  0  0  0  0  0  0  0  0  0  0
   -4.9445   -0.4695    0.4128 H   0  0  0  0  0  0  0  0  0  0  0  0
   -4.0760    1.0996   -1.0323 H   0  0  0  0  0  0  0  0  0  0  0  0
   -3.6743    0.5833    0.6608 H   0  0  0  0  0  0  0  0  0  0  0  0
   -1.4247    0.1884    0.0809 C   0  0  0  0  0  0  0  0  0  0  0  0
   -2.6480   -1.0982   -0.6750 H   0  0  0  0  0  0  0  0  0  0  0  0
   -2.7080   -1.3039    1.1264 H   0  0  0  0  0  0  0  0  0  0  0  0
   -0.1628   -0.7121   -0.0239 C   0  0  0  0  0  0  0  0  0  0  0  0
   -1.4106    1.0394    1.0653 H   0  0  0  0  0  0  0  0  0  0  0  0
   -1.3871    0.8411   -0.8176 H   0  0  0  0  0  0  0  0  0  0  0  0
   -0.2038   -1.1488    0.7545 H   0  0  0  0  0  0  0  0  0  0  0  0
    0.7502   -0.2123    0.2608 H   0  0  0  0  0  0  0  0  0  0  0  0
   -0.1713   -1.5333   -0.9866 H   0  0  0  0  0  0  0  0  0  0  0  0
  1  2  1  0  0  0  0
  1  3  1  0  0  0  0
  1  5  1  0  0  0  0
  2  6  1  0  0  0  0
  2  8  1  0  0  0  0
  4  1  1  0  0  0  0
  6 10  1  0  0  0  0
  7  2  1  0  0  0  0
  9  6  1  0  0  0  0
  9 13  1  0  0  0  0
  9 12  1  0  0  0  0
 11  6  1  0  0  0  0
 14  9  1  0  0  0  0
M  END
$$$$
