14
butane_opt
C  -3.911234   0.251798   0.035870
C  -2.708704  -0.576956   0.053378
H  -4.915426  -0.518309  -0.246284
H  -3.685948   0.400156  -0.589483
H  -3.878097   1.300060   1.191177
C  -1.416353   0.211631  -0.063553
H  -2.769680  -1.304884  -0.829691
H  -2.774977  -1.056827   0.839819
C  -0.181705  -0.720002   0.073321
H  -1.478680   0.669657   0.695824
H  -1.397105   1.049277  -1.075334
H  -0.111660  -1.482097   1.040696
H   0.664250  -0.156037   0.007766
H  -0.067139  -1.390893  -0.727048
