14
butane_opt
C  -3.960008   0.252444   0.080727
C  -2.719245  -0.602024  -0.031140
H  -4.779608  -0.330509   0.142044
H  -4.149122   0.899070  -0.851602
H  -3.872486   0.820917   0.922501
C  -1.372018   0.224847  -0.064909
H  -2.759004  -1.381359  -0.908808
H  -2.777851  -1.158021   0.857096
C  -0.149469  -0.705826   0.088280
H  -1.351304   1.005200   0.810230
H  -1.324797   0.669565  -0.788357
H  -0.168986  -1.525406   1.063009
H   0.608798  -0.244029  -0.005499
H  -0.016659  -1.260148  -0.675101
