butane_opt
 OpenBabel08242015383D

 14 13  0  0  0  0  0  0  0  0999 V2000
   -3.9449    0.2572   -0.0225 C   0  0  0  0  0  0  0  0  0  0  0  0
   -2.7052   -0.6064    0.0723 C   0  0  0  0  0  0  0  0  0  0  0  0
   -4.8954   -0.3679    0.0632 H   0  0  0  0  0  0  0  0  0  0  0  0
   -3.9801    0.9020   -0.9516 H   0  0  0  0  0  0  0  0  0  0  0  0
   -3.9792    0.8865    0.8218 H   0  0  0  0  0  0  0  0  0  0  0  0
   -1.4065    0.2040    0.0566 C   0  0  0  0  0  0  0  0  0  0  0  0
   -2.7542   -1.2863   -0.7968 H   0  0  0  0  0  0  0  0  0  0  0  0
   -2.7619   -1.2537    0.9900 H   0  0  0  0  0  0  0  0  0  0  0  0
   -0.1387   -0.7045    0.0026 C   0  0  0  0  0  0  0  0  0  0  0  0
   -1.3826    0.8995    0.9009 H   0  0  0  0  0  0  0  0  0  0  0  0
   -1.4486    0.8021   -0.8342 H   0  0  0  0  0  0  0  0  0  0  0  0
   -0.0681   -1.3259    0.8736 H   0  0  0  0  0  0  0  0  0  0  0  0
    0.7811   -0.1248   -0.0500 H   0  0  0  0  0  0  0  0  0  0  0  0
   -0.1819   -1.4070   -0.8868 H   0  0  0  0  0  0  0  0  0  0  0  0
  1  3  1  0  0  0  0
  1  2  1  0  0  0  0
  1  5  1  0  0  0  0
  2  8  1  0  0  0  0
  4  1  1  0  0  0  0
  6  2  1  0  0  0  0
  6 10  1  0  0  0  0
  7  2  1  0  0  0  0
  9  6  1  0  0  0  0
  9 12  1  0  0  0  0
 11  6  1  0  0  0  0
 13  9  1  0  0  0  0
 14  9  1  0  0  0  0
M  END
$$$$
