14
butane_opt
C  -3.934006   0.246280   0.059450
C  -2.746692  -0.612625  -0.001332
H  -4.904742  -0.349473   0.293103
H  -4.034599   0.843340  -0.864011
H  -3.889919   0.979127   0.977841
C  -1.397856   0.215878  -0.048938
H  -2.726297  -1.303945  -0.855674
H  -2.709218  -1.172217   0.837147
C  -0.144646  -0.704703   0.070834
H  -1.415370   0.716347   0.763334
H  -1.210545   1.111291  -1.117518
H  -0.199113  -1.195970   0.944135
H   0.605770  -0.245441   0.432795
H   0.150237  -1.630342  -0.938322
