butane_opt
 OpenBabel08242015383D

 14 13  0  0  0  0  0  0  0  0999 V2000
   -3.9385    0.3035   -0.0010 C   0  0  0  0  0  0  0  0  0  0  0  0
   -2.6742   -0.6779    0.0981 C   0  0  0  0  0  0  0  0  0  0  0  0
   -4.7497   -0.1627    0.1378 H   0  0  0  0  0  0  0  0  0  0  0  0
   -3.8531    1.1059   -1.0828 H   0  0  0  0  0  0  0  0  0  0  0  0
   -3.9911    0.6972    0.7440 H   0  0  0  0  0  0  0  0  0  0  0  0
   -1.4059    0.1306    0.0229 C   0  0  0  0  0  0  0  0  0  0  0  0
   -2.7953   -1.2936   -0.7965 H   0  0  0  0  0  0  0  0  0  0  0  0
   -2.5415   -1.3252    0.9803 H   0  0  0  0  0  0  0  0  0  0  0  0
   -0.1929   -0.6468    0.0088 C   0  0  0  0  0  0  0  0  0  0  0  0
   -1.4550    0.8805    0.9084 H   0  0  0  0  0  0  0  0  0  0  0  0
   -1.4965    0.9270   -0.9913 H   0  0  0  0  0  0  0  0  0  0  0  0
   -0.4031   -0.8759    0.6116 H   0  0  0  0  0  0  0  0  0  0  0  0
    0.7961   -0.0428    0.4065 H   0  0  0  0  0  0  0  0  0  0  0  0
   -0.0382   -1.6803   -1.0930 H   0  0  0  0  0  0  0  0  0  0  0  0
  1  2  1  0  0  0  0
  1  3  1  0  0  0  0
  1  5  1  0  0  0  0
  2  8  1  0  0  0  0
  4  1  1  0  0  0  0
  6  2  1  0  0  0  0
  6 10  1  0  0  0  0
  7  2  1  0  0  0  0
  9  6  1  0  0  0  0
  9 13  1  0  0  0  0
  9 12  1  0  0  0  0
 11  6  1  0  0  0  0
 14  9  1  0  0  0  0
M  END
$$$$
