14
butane_opt
C  -3.976116   0.302786  -0.078609
C  -2.721253  -0.679522   0.069662
H  -4.817957  -0.229610  -0.002394
H  -3.950020   0.992275  -0.959436
H  -4.157988   1.072385   0.770814
C  -1.384847   0.147802   0.131061
H  -2.671287  -1.172125  -0.571830
H  -2.779141  -1.384681   1.061585
C  -0.141499  -0.678492  -0.034192
H  -1.203122   0.998484   1.107321
H  -1.386666   0.642651  -0.596849
H   0.180799  -1.407343   0.914253
H   0.925768   0.068645  -0.522223
H  -0.503103  -1.137934  -0.794985
