14
butane_opt
C  -3.925578   0.229381   0.028315
C  -2.749519  -0.596007   0.051136
H  -4.938576  -0.402504  -0.317276
H  -3.839605   0.393262  -0.495582
H  -4.165411   1.402263   1.204031
C  -1.426337   0.265192  -0.066102
H  -2.724225  -1.250238  -0.796061
H  -2.761294  -1.327480   0.940663
C  -0.094478  -0.731757   0.079456
H  -1.560228   0.787826   0.669966
H  -1.354571   0.896251  -0.970460
H  -0.015975  -1.500575   1.006876
H   0.772581  -0.167253  -0.094276
H  -0.063163  -1.325951  -0.758050
