butane_opt
 OpenBabel08242015383D

 14 13  0  0  0  0  0  0  0  0999 V2000
   -3.9621    0.2628    0.1270 C   0  0  0  0  0  0  0  0  0  0  0  0
   -2.7151   -0.6222   -0.0523 C   0  0  0  0  0  0  0  0  0  0  0  0
   -4.8311   -0.2455    0.2525 H   0  0  0  0  0  0  0  0  0  0  0  0
   -3.9312    0.8444   -0.8082 H   0  0  0  0  0  0  0  0  0  0  0  0
   -3.9226    0.9383    0.9587 H   0  0  0  0  0  0  0  0  0  0  0  0
   -1.3903    0.2078   -0.1231 C   0  0  0  0  0  0  0  0  0  0  0  0
   -2.9932   -1.2764   -0.8538 H   0  0  0  0  0  0  0  0  0  0  0  0
   -2.6642   -1.2897    0.8116 H   0  0  0  0  0  0  0  0  0  0  0  0
   -0.1431   -0.6961    0.1089 C   0  0  0  0  0  0  0  0  0  0  0  0
   -1.5299    0.8469    0.6445 H   0  0  0  0  0  0  0  0  0  0  0  0
   -1.2141    0.7573   -1.0187 H   0  0  0  0  0  0  0  0  0  0  0  0
   -0.3331   -1.1860    1.0053 H   0  0  0  0  0  0  0  0  0  0  0  0
    0.6424   -0.1917    0.5098 H   0  0  0  0  0  0  0  0  0  0  0  0
    0.2590   -1.4960   -0.8049 H   0  0  0  0  0  0  0  0  0  0  0  0
  1  3  1  0  0  0  0
  1  5  1  0  0  0  0
  2  1  1  0  0  0  0
  2  8  1  0  0  0  0
  4  1  1  0  0  0  0
  6  2  1  0  0  0  0
  6  9  1  0  0  0  0
  6 10  1  0  0  0  0
  7  2  1  0  0  0  0
  9 13  1  0  0  0  0
  9 12  1  0  0  0  0
 11  6  1  0  0  0  0
 14  9  1  0  0  0  0
M  END
$$$$
