14
butane_opt
C  -3.952471   0.246337   0.102036
C  -2.700917  -0.602851  -0.057366
H  -4.948487  -0.397297  -0.021610
H  -3.912995   0.633221  -0.711550
H  -3.888875   1.047055   1.027803
C  -1.426906   0.238832  -0.070795
H  -2.884054  -1.369735  -1.000730
H  -2.587058  -1.173497   0.679108
C  -0.122976  -0.710924   0.115570
H  -1.436523   0.960566   0.814323
H  -1.401606   0.779551  -0.864559
H   0.043300  -1.777419   1.323985
H   0.640828  -0.198469  -0.297166
H  -0.201904  -1.044892  -0.526767
