butane_opt
 OpenBabel08242015383D

 14 13  0  0  0  0  0  0  0  0999 V2000
   -3.9104    0.3129   -0.0514 C   0  0  0  0  0  0  0  0  0  0  0  0
   -2.6678   -0.6759    0.0997 C   0  0  0  0  0  0  0  0  0  0  0  0
   -4.7866   -0.2879   -0.1072 H   0  0  0  0  0  0  0  0  0  0  0  0
   -3.9898    0.9898   -0.9941 H   0  0  0  0  0  0  0  0  0  0  0  0
   -3.9687    1.0532    0.8634 H   0  0  0  0  0  0  0  0  0  0  0  0
   -1.4092    0.1303    0.0774 C   0  0  0  0  0  0  0  0  0  0  0  0
   -2.7965   -1.3623   -0.7454 H   0  0  0  0  0  0  0  0  0  0  0  0
   -2.7384   -1.3263    1.0116 H   0  0  0  0  0  0  0  0  0  0  0  0
   -0.2021   -0.6649   -0.0429 C   0  0  0  0  0  0  0  0  0  0  0  0
   -1.2734    0.9818    1.0936 H   0  0  0  0  0  0  0  0  0  0  0  0
   -1.5038    0.7068   -0.6631 H   0  0  0  0  0  0  0  0  0  0  0  0
   -0.2120   -1.3867    0.9390 H   0  0  0  0  0  0  0  0  0  0  0  0
    0.7740    0.0717   -0.2600 H   0  0  0  0  0  0  0  0  0  0  0  0
   -0.2738   -1.1145   -0.6970 H   0  0  0  0  0  0  0  0  0  0  0  0
  1  2  1  0  0  0  0
  1  5  1  0  0  0  0
  2  8  1  0  0  0  0
  3  1  1  0  0  0  0
  4  1  1  0  0  0  0
  6  2  1  0  0  0  0
  6 10  1  0  0  0  0
  7  2  1  0  0  0  0
  9  6  1  0  0  0  0
  9 12  1  0  0  0  0
 11  6  1  0  0  0  0
 13  9  1  0  0  0  0
 14  9  1  0  0  0  0
M  END
$$$$
