14
butane_opt
C  -3.915756   0.266109   0.056297
C  -2.687255  -0.597987  -0.044834
H  -4.982936  -0.526760   0.009338
H  -4.052361   0.712122  -0.771272
H  -3.819095   1.128023   1.147895
C  -1.425714   0.192142  -0.021878
H  -2.629031  -1.286345  -0.928764
H  -2.571525  -1.222972   0.790272
C  -0.177331  -0.705606   0.079849
H  -1.601568   0.871672   0.889704
H  -1.263103   0.691430  -0.885791
H   0.033073  -1.663404   1.247854
H   0.776565  -0.063772  -0.357515
H  -0.416589  -0.956543  -0.489911
