butane_opt
 OpenBabel08242015383D

 14 13  0  0  0  0  0  0  0  0999 V2000
   -3.9830    0.2891   -0.0709 C   0  0  0  0  0  0  0  0  0  0  0  0
   -2.7009   -0.6502    0.0798 C   0  0  0  0  0  0  0  0  0  0  0  0
   -4.8413   -0.1836    0.2456 H   0  0  0  0  0  0  0  0  0  0  0  0
   -4.1051    1.2450   -1.1461 H   0  0  0  0  0  0  0  0  0  0  0  0
   -3.8487    0.7478    0.6504 H   0  0  0  0  0  0  0  0  0  0  0  0
   -1.3542    0.1256    0.1357 C   0  0  0  0  0  0  0  0  0  0  0  0
   -2.6902   -1.2049   -0.5801 H   0  0  0  0  0  0  0  0  0  0  0  0
   -2.7457   -1.3534    1.0721 H   0  0  0  0  0  0  0  0  0  0  0  0
   -0.1595   -0.6665   -0.0620 C   0  0  0  0  0  0  0  0  0  0  0  0
   -1.3607    0.9482    1.1094 H   0  0  0  0  0  0  0  0  0  0  0  0
   -1.4352    0.7993   -0.7796 H   0  0  0  0  0  0  0  0  0  0  0  0
   -0.1693   -1.1839    0.7333 H   0  0  0  0  0  0  0  0  0  0  0  0
    0.8440    0.0602    0.0991 H   0  0  0  0  0  0  0  0  0  0  0  0
   -0.3278   -1.5037   -1.0058 H   0  0  0  0  0  0  0  0  0  0  0  0
  1  2  1  0  0  0  0
  1  3  1  0  0  0  0
  1  5  1  0  0  0  0
  2  6  1  0  0  0  0
  2  8  1  0  0  0  0
  4  1  1  0  0  0  0
  6 10  1  0  0  0  0
  7  2  1  0  0  0  0
  9 13  1  0  0  0  0
  9  6  1  0  0  0  0
  9 12  1  0  0  0  0
 11  6  1  0  0  0  0
 14  9  1  0  0  0  0
M  END
$$$$
