butane_opt
 OpenBabel08242015383D

 14 13  0  0  0  0  0  0  0  0999 V2000
   -3.9600    0.2524    0.0807 C   0  0  0  0  0  0  0  0  0  0  0  0
   -2.7192   -0.6020   -0.0311 C   0  0  0  0  0  0  0  0  0  0  0  0
   -4.7796   -0.3305    0.1420 H   0  0  0  0  0  0  0  0  0  0  0  0
   -4.1491    0.8991   -0.8516 H   0  0  0  0  0  0  0  0  0  0  0  0
   -3.8725    0.8209    0.9225 H   0  0  0  0  0  0  0  0  0  0  0  0
   -1.3720    0.2248   -0.0649 C   0  0  0  0  0  0  0  0  0  0  0  0
   -2.7590   -1.3814   -0.9088 H   0  0  0  0  0  0  0  0  0  0  0  0
   -2.7779   -1.1580    0.8571 H   0  0  0  0  0  0  0  0  0  0  0  0
   -0.1495   -0.7058    0.0883 C   0  0  0  0  0  0  0  0  0  0  0  0
   -1.3513    1.0052    0.8102 H   0  0  0  0  0  0  0  0  0  0  0  0
   -1.3248    0.6696   -0.7884 H   0  0  0  0  0  0  0  0  0  0  0  0
   -0.1690   -1.5254    1.0630 H   0  0  0  0  0  0  0  0  0  0  0  0
    0.6088   -0.2440   -0.0055 H   0  0  0  0  0  0  0  0  0  0  0  0
   -0.0167   -1.2601   -0.6751 H   0  0  0  0  0  0  0  0  0  0  0  0
  1  3  1  0  0  0  0
  1  5  1  0  0  0  0
  2  1  1  0  0  0  0
  2  8  1  0  0  0  0
  4  1  1  0  0  0  0
  6  2  1  0  0  0  0
  6  9  1  0  0  0  0
  6 10  1  0  0  0  0
  7  2  1  0  0  0  0
  9 12  1  0  0  0  0
 11  6  1  0  0  0  0
 13  9  1  0  0  0  0
 14  9  1  0  0  0  0
M  END
$$$$
