butane_opt
 OpenBabel08242015383D

 14 13  0  0  0  0  0  0  0  0999 V2000
   -3.9442    0.2510   -0.0043 C   0  0  0  0  0  0  0  0  0  0  0  0
   -2.7062   -0.5905    0.0649 C   0  0  0  0  0  0  0  0  0  0  0  0
   -4.8443   -0.3401    0.0750 H   0  0  0  0  0  0  0  0  0  0  0  0
   -3.9554    0.9270   -0.9290 H   0  0  0  0  0  0  0  0  0  0  0  0
   -3.9445    0.8652    0.8102 H   0  0  0  0  0  0  0  0  0  0  0  0
   -1.4081    0.1935    0.0312 C   0  0  0  0  0  0  0  0  0  0  0  0
   -2.7086   -1.3145   -0.8234 H   0  0  0  0  0  0  0  0  0  0  0  0
   -2.7589   -1.2431    0.9632 H   0  0  0  0  0  0  0  0  0  0  0  0
   -0.1548   -0.7086    0.0056 C   0  0  0  0  0  0  0  0  0  0  0  0
   -1.3576    0.8839    0.9169 H   0  0  0  0  0  0  0  0  0  0  0  0
   -1.4228    0.7931   -0.8440 H   0  0  0  0  0  0  0  0  0  0  0  0
   -0.1099   -1.2876    0.8823 H   0  0  0  0  0  0  0  0  0  0  0  0
    0.7879   -0.1049    0.0519 H   0  0  0  0  0  0  0  0  0  0  0  0
   -0.1467   -1.3850   -0.8325 H   0  0  0  0  0  0  0  0  0  0  0  0
  1  2  1  0  0  0  0
  1  3  1  0  0  0  0
  1  5  1  0  0  0  0
  2  8  1  0  0  0  0
  4  1  1  0  0  0  0
  6  2  1  0  0  0  0
  6 10  1  0  0  0  0
  7  2  1  0  0  0  0
  9  6  1  0  0  0  0
  9 13  1  0  0  0  0
  9 12  1  0  0  0  0
 11  6  1  0  0  0  0
 14  9  1  0  0  0  0
M  END
$$$$
