14
butane_opt
C  -3.994793   0.299253   0.048387
C  -2.672235  -0.660497   0.024432
H  -4.853881  -0.273913  -0.039942
H  -3.987373   0.823825  -0.746071
H  -3.937863   1.020642   0.900608
C  -1.369369   0.183487  -0.029274
H  -2.727135  -1.307723  -0.787645
H  -2.793627  -1.369774   0.998006
C  -0.171519  -0.672808   0.052154
H  -1.267070   0.717697   0.730801
H  -1.341188   0.947131  -1.098009
H  -0.251833  -1.141495   0.927920
H   0.701053  -0.047979   0.367106
H  -0.093614  -1.638173  -0.961234
