14
butane_opt
C  -3.989662   0.287879   0.122023
C  -2.707169  -0.677411  -0.040718
H  -4.815594  -0.220604   0.035564
H  -4.008671   0.846548  -0.695092
H  -3.917586   1.010718   0.993410
C  -1.383708   0.180643  -0.134645
H  -2.836913  -1.304628  -0.760480
H  -2.467232  -1.290545   0.817649
C  -0.145833  -0.673962   0.114292
H  -1.489636   0.869500   0.694268
H  -1.305751   0.862199  -1.067640
H  -0.389030  -1.112524   0.967879
H   0.692058  -0.109874   0.482710
H   0.202469  -1.436601  -0.793333
