butane_opt
 OpenBabel08242015383D

 14 13  0  0  0  0  0  0  0  0999 V2000
   -3.9534    0.3061   -0.0329 C   0  0  0  0  0  0  0  0  0  0  0  0
   -2.6619   -0.6414    0.0854 C   0  0  0  0  0  0  0  0  0  0  0  0
   -4.9521   -0.3511    0.1310 H   0  0  0  0  0  0  0  0  0  0  0  0
   -4.0234    1.1411   -1.0553 H   0  0  0  0  0  0  0  0  0  0  0  0
   -3.8194    0.7116    0.7230 H   0  0  0  0  0  0  0  0  0  0  0  0
   -1.4112    0.1381    0.0408 C   0  0  0  0  0  0  0  0  0  0  0  0
   -2.6053   -1.2874   -0.6829 H   0  0  0  0  0  0  0  0  0  0  0  0
   -2.7388   -1.4458    1.1894 H   0  0  0  0  0  0  0  0  0  0  0  0
   -0.1681   -0.6529   -0.0019 C   0  0  0  0  0  0  0  0  0  0  0  0
   -1.4352    0.9634    0.9406 H   0  0  0  0  0  0  0  0  0  0  0  0
   -1.3140    0.6609   -0.7440 H   0  0  0  0  0  0  0  0  0  0  0  0
   -0.2397   -0.9603    0.7519 H   0  0  0  0  0  0  0  0  0  0  0  0
    0.6978   -0.0808    0.1643 H   0  0  0  0  0  0  0  0  0  0  0  0
   -0.2586   -1.6349   -1.1537 H   0  0  0  0  0  0  0  0  0  0  0  0
  1  2  1  0  0  0  0
  1  3  1  0  0  0  0
  1  5  1  0  0  0  0
  2  8  1  0  0  0  0
  4  1  1  0  0  0  0
  6  2  1  0  0  0  0
  6 10  1  0  0  0  0
  7  2  1  0  0  0  0
  9  6  1  0  0  0  0
  9 13  1  0  0  0  0
  9 12  1  0  0  0  0
 11  6  1  0  0  0  0
 14  9  1  0  0  0  0
M  END
$$$$
