butane_opt
 OpenBabel08242015383D

 14 13  0  0  0  0  0  0  0  0999 V2000
   -3.9506    0.2260    0.0708 C   0  0  0  0  0  0  0  0  0  0  0  0
   -2.7344   -0.5712   -0.0259 C   0  0  0  0  0  0  0  0  0  0  0  0
   -4.8424   -0.3660    0.1980 H   0  0  0  0  0  0  0  0  0  0  0  0
   -4.0553    0.9175   -0.8628 H   0  0  0  0  0  0  0  0  0  0  0  0
   -3.8627    0.7592    0.8919 H   0  0  0  0  0  0  0  0  0  0  0  0
   -1.4099    0.2441   -0.0178 C   0  0  0  0  0  0  0  0  0  0  0  0
   -2.7328   -1.4267   -1.0478 H   0  0  0  0  0  0  0  0  0  0  0  0
   -2.6787   -1.2416    0.8544 H   0  0  0  0  0  0  0  0  0  0  0  0
   -0.1212   -0.7144    0.0782 C   0  0  0  0  0  0  0  0  0  0  0  0
   -1.2829    0.7835    0.7843 H   0  0  0  0  0  0  0  0  0  0  0  0
   -1.4672    0.9775   -0.9741 H   0  0  0  0  0  0  0  0  0  0  0  0
   -0.1710   -1.3049    1.0605 H   0  0  0  0  0  0  0  0  0  0  0  0
    0.5995   -0.3574    0.0454 H   0  0  0  0  0  0  0  0  0  0  0  0
    0.0910   -1.4400   -0.7833 H   0  0  0  0  0  0  0  0  0  0  0  0
  1  3  1  0  0  0  0
  1  5  1  0  0  0  0
  2  6  1  0  0  0  0
  2  1  1  0  0  0  0
  2  8  1  0  0  0  0
  4  1  1  0  0  0  0
  6  9  1  0  0  0  0
  6 10  1  0  0  0  0
  7  2  1  0  0  0  0
  9 12  1  0  0  0  0
 11  6  1  0  0  0  0
 13  9  1  0  0  0  0
 14  9  1  0  0  0  0
M  END
$$$$
