14
butane_opt
C  -3.906602   0.230764  -0.012131
C  -2.737309  -0.580597   0.027045
H  -4.832434  -0.393969   0.456314
H  -4.063878   1.172912  -1.162585
H  -3.630044   0.648026   0.680175
C  -1.417082   0.188524   0.080549
H  -2.696181  -1.048185  -0.786893
H  -2.913524  -1.156318   0.881984
C  -0.143212  -0.719803  -0.024807
H  -1.517850   1.056375   1.036524
H  -1.466847   0.705370  -0.704649
H  -0.066327  -1.403334   0.981997
H   0.729017  -0.133658   0.111472
H  -0.121506  -1.360711  -0.914176
