14
butane_opt
C  -3.962148   0.262809   0.127000
C  -2.715125  -0.622152  -0.052338
H  -4.831134  -0.245477   0.252493
H  -3.931182   0.844383  -0.808179
H  -3.922565   0.938292   0.958675
C  -1.390269   0.207784  -0.123138
H  -2.993219  -1.276398  -0.853793
H  -2.664171  -1.289655   0.811578
C  -0.143095  -0.696089   0.108853
H  -1.529946   0.846860   0.644509
H  -1.214134   0.757347  -1.018710
H  -0.333138  -1.185999   1.005339
H   0.642435  -0.191732   0.509825
H   0.259005  -1.496019  -0.804948
