butane_opt
 OpenBabel08242015383D

 14 12  0  0  0  0  0  0  0  0999 V2000
   -3.9598    0.2387    0.0428 C   0  0  0  0  0  0  0  0  0  0  0  0
   -2.7329   -0.6007    0.0043 C   0  0  0  0  0  0  0  0  0  0  0  0
   -4.8646   -0.3569   -0.1908 H   0  0  0  0  0  0  0  0  0  0  0  0
   -3.7543    0.6930   -0.8845 H   0  0  0  0  0  0  0  0  0  0  0  0
   -3.9847    0.9693    0.9849 H   0  0  0  0  0  0  0  0  0  0  0  0
   -1.4063    0.2594    0.0116 C   0  0  0  0  0  0  0  0  0  0  0  0
   -2.8034   -1.2599   -0.8169 H   0  0  0  0  0  0  0  0  0  0  0  0
   -2.6945   -1.1618    0.8681 H   0  0  0  0  0  0  0  0  0  0  0  0
   -0.1417   -0.7344    0.0337 C   0  0  0  0  0  0  0  0  0  0  0  0
   -1.2374    1.0242    0.9227 H   0  0  0  0  0  0  0  0  0  0  0  0
   -1.4001    0.7955   -0.7587 H   0  0  0  0  0  0  0  0  0  0  0  0
    0.1666   -1.7808    1.1884 H   0  0  0  0  0  0  0  0  0  0  0  0
    0.7103   -0.2212   -0.3135 H   0  0  0  0  0  0  0  0  0  0  0  0
   -0.2664   -1.1326   -0.6131 H   0  0  0  0  0  0  0  0  0  0  0  0
  1  5  1  0  0  0  0
  2  6  1  0  0  0  0
  2  1  1  0  0  0  0
  2  8  1  0  0  0  0
  3  1  1  0  0  0  0
  4  1  1  0  0  0  0
  6  9  1  0  0  0  0
  6 10  1  0  0  0  0
  7  2  1  0  0  0  0
 11  6  1  0  0  0  0
 13  9  1  0  0  0  0
 14  9  1  0  0  0  0
M  RAD  2   9   2  12   2
M  END
$$$$
