butane_opt
 OpenBabel08242015383D

 14 13  0  0  0  0  0  0  0  0999 V2000
   -3.9791    0.3102   -0.0334 C   0  0  0  0  0  0  0  0  0  0  0  0
   -2.7114   -0.6544    0.0560 C   0  0  0  0  0  0  0  0  0  0  0  0
   -4.8177   -0.2381   -0.1482 H   0  0  0  0  0  0  0  0  0  0  0  0
   -3.9542    0.7379   -0.8191 H   0  0  0  0  0  0  0  0  0  0  0  0
   -4.1000    0.9811    0.8204 H   0  0  0  0  0  0  0  0  0  0  0  0
   -1.4085    0.1587    0.0877 C   0  0  0  0  0  0  0  0  0  0  0  0
   -2.6793   -1.1897   -0.7185 H   0  0  0  0  0  0  0  0  0  0  0  0
   -2.7035   -1.3992    1.0420 H   0  0  0  0  0  0  0  0  0  0  0  0
   -0.1321   -0.6843    0.0032 C   0  0  0  0  0  0  0  0  0  0  0  0
   -1.3242    0.8394    0.9866 H   0  0  0  0  0  0  0  0  0  0  0  0
   -1.3291    0.7103   -0.7069 H   0  0  0  0  0  0  0  0  0  0  0  0
    0.0482   -1.4260    0.8748 H   0  0  0  0  0  0  0  0  0  0  0  0
    0.8871    0.1211   -0.4447 H   0  0  0  0  0  0  0  0  0  0  0  0
   -0.3110   -1.1420   -0.7997 H   0  0  0  0  0  0  0  0  0  0  0  0
  1  2  1  0  0  0  0
  1  5  1  0  0  0  0
  2  6  1  0  0  0  0
  2  8  1  0  0  0  0
  3  1  1  0  0  0  0
  4  1  1  0  0  0  0
  6 10  1  0  0  0  0
  7  2  1  0  0  0  0
  9  6  1  0  0  0  0
  9 12  1  0  0  0  0
 11  6  1  0  0  0  0
 13  9  1  0  0  0  0
 14  9  1  0  0  0  0
M  END
$$$$
