14
butane_opt
C  -3.938212   0.287728  -0.038633
C  -2.694219  -0.633553   0.125689
H  -4.739174  -0.266507  -0.298059
H  -3.809707   0.948992  -0.917761
H  -4.273411   1.029679   0.848831
C  -1.379415   0.121763   0.079170
H  -2.665082  -1.236590  -0.662338
H  -2.563330  -1.312998   0.945538
C  -0.179025  -0.672666  -0.036652
H  -1.328349   0.837130   0.952191
H  -1.439778   0.710535  -0.764819
H  -0.322088  -1.192896   0.854097
H   0.789973   0.001355  -0.206970
H  -0.369021  -1.222101  -0.879156
