14
butane_opt
C  -3.913920   0.215910  -0.057121
C  -2.676407  -0.540528   0.145328
H  -4.874785  -0.429898   0.041676
H  -3.859358   0.900580  -0.987682
H  -3.927361   0.740312   0.745460
C  -1.445036   0.193188   0.052685
H  -2.829269  -1.154401  -0.694521
H  -2.743922  -1.294213   1.064554
C  -0.167197  -0.728652  -0.018211
H  -1.520214   0.912763   0.878817
H  -1.446836   1.018997  -0.931629
H   0.003639  -0.943209   0.496719
H   0.758636  -0.137688   0.381966
H  -0.142359  -1.781857  -1.073418
