14
butane_opt
C  -3.937129   0.291073   0.124599
C  -2.666952  -0.656772  -0.028333
H  -4.771958  -0.302130  -0.075346
H  -3.932260   0.874278  -0.755027
H  -4.085739   1.102267   1.131303
C  -1.415895   0.117203  -0.118537
H  -2.653779  -1.399143  -0.922936
H  -2.432848  -1.233281   0.816276
C  -0.211121  -0.631201   0.120102
H  -1.381864   0.687049   0.648551
H  -1.236944   1.062240  -1.137557
H  -0.325850  -1.186774   1.015612
H   0.688709  -0.087114   0.430724
H  -0.115944  -1.450864  -0.880643
