14
butane_opt
C  -3.882173   0.221984   0.062771
C  -2.696997  -0.575404   0.001428
H  -4.812607  -0.399099  -0.374696
H  -3.845273   0.395331  -0.538662
H  -3.982819   1.351033   1.209354
C  -1.454464   0.210779  -0.078596
H  -2.857238  -1.187673  -0.738434
H  -2.708225  -1.242811   0.950313
C  -0.148024  -0.722425   0.106935
H  -1.649056   0.867219   0.703515
H  -1.373559   0.860841  -0.992651
H  -0.103812  -1.407961   1.064454
H   0.611211  -0.248117  -0.216148
H  -0.100423  -1.112683  -0.707533
