butane_opt
 OpenBabel08242015383D

 14 13  0  0  0  0  0  0  0  0999 V2000
   -3.9522    0.2778    0.0862 C   0  0  0  0  0  0  0  0  0  0  0  0
   -2.6858   -0.6360    0.0014 C   0  0  0  0  0  0  0  0  0  0  0  0
   -4.9289   -0.3302    0.0783 H   0  0  0  0  0  0  0  0  0  0  0  0
   -4.1539    0.8402   -0.7991 H   0  0  0  0  0  0  0  0  0  0  0  0
   -4.0063    1.0822    1.0788 H   0  0  0  0  0  0  0  0  0  0  0  0
   -1.3641    0.1680   -0.1125 C   0  0  0  0  0  0  0  0  0  0  0  0
   -2.7347   -1.3139   -0.7866 H   0  0  0  0  0  0  0  0  0  0  0  0
   -2.6188   -1.1939    0.8061 H   0  0  0  0  0  0  0  0  0  0  0  0
   -0.1926   -0.6723    0.0876 C   0  0  0  0  0  0  0  0  0  0  0  0
   -1.4711    0.7541    0.6892 H   0  0  0  0  0  0  0  0  0  0  0  0
   -1.2091    0.8388   -1.0012 H   0  0  0  0  0  0  0  0  0  0  0  0
   -0.3544   -1.2019    0.9397 H   0  0  0  0  0  0  0  0  0  0  0  0
    0.7293   -0.1246    0.4688 H   0  0  0  0  0  0  0  0  0  0  0  0
    0.0774   -1.4815   -0.7984 H   0  0  0  0  0  0  0  0  0  0  0  0
  1  5  1  0  0  0  0
  2  1  1  0  0  0  0
  2  8  1  0  0  0  0
  3  1  1  0  0  0  0
  4  1  1  0  0  0  0
  6  2  1  0  0  0  0
  6  9  1  0  0  0  0
  6 10  1  0  0  0  0
  7  2  1  0  0  0  0
  9 13  1  0  0  0  0
  9 12  1  0  0  0  0
 11  6  1  0  0  0  0
 14  9  1  0  0  0  0
M  END
$$$$
