butane_opt
 OpenBabel08242015383D

 14 13  0  0  0  0  0  0  0  0999 V2000
   -3.9100    0.2235    0.0835 C   0  0  0  0  0  0  0  0  0  0  0  0
   -2.7168   -0.5880    0.0199 C   0  0  0  0  0  0  0  0  0  0  0  0
   -4.7705   -0.3243    0.0882 H   0  0  0  0  0  0  0  0  0  0  0  0
   -3.7928    0.8557   -0.8015 H   0  0  0  0  0  0  0  0  0  0  0  0
   -3.8478    0.8726    0.8671 H   0  0  0  0  0  0  0  0  0  0  0  0
   -1.4145    0.2397   -0.1203 C   0  0  0  0  0  0  0  0  0  0  0  0
   -2.8151   -1.2164   -0.8384 H   0  0  0  0  0  0  0  0  0  0  0  0
   -2.7129   -1.2845    1.0355 H   0  0  0  0  0  0  0  0  0  0  0  0
   -0.1660   -0.7341    0.0969 C   0  0  0  0  0  0  0  0  0  0  0  0
   -1.5806    1.0469    0.7864 H   0  0  0  0  0  0  0  0  0  0  0  0
   -1.4524    0.8393   -0.9869 H   0  0  0  0  0  0  0  0  0  0  0  0
   -0.4215   -1.0988    0.8093 H   0  0  0  0  0  0  0  0  0  0  0  0
    0.7184   -0.1534    0.4553 H   0  0  0  0  0  0  0  0  0  0  0  0
    0.1386   -1.7249   -0.9773 H   0  0  0  0  0  0  0  0  0  0  0  0
  1  3  1  0  0  0  0
  1  5  1  0  0  0  0
  2  1  1  0  0  0  0
  2  8  1  0  0  0  0
  4  1  1  0  0  0  0
  6  2  1  0  0  0  0
  6  9  1  0  0  0  0
  6 10  1  0  0  0  0
  7  2  1  0  0  0  0
  9 13  1  0  0  0  0
  9 12  1  0  0  0  0
 11  6  1  0  0  0  0
 14  9  1  0  0  0  0
M  END
$$$$
