butane_opt
 OpenBabel08242015383D

 14 12  0  0  0  0  0  0  0  0999 V2000
   -3.9382    0.2546    0.0540 C   0  0  0  0  0  0  0  0  0  0  0  0
   -2.7251   -0.6132   -0.0447 C   0  0  0  0  0  0  0  0  0  0  0  0
   -4.8375   -0.3537   -0.1245 H   0  0  0  0  0  0  0  0  0  0  0  0
   -4.0977    0.7277   -0.7934 H   0  0  0  0  0  0  0  0  0  0  0  0
   -3.8536    1.0873    1.0747 H   0  0  0  0  0  0  0  0  0  0  0  0
   -1.4113    0.2420    0.0262 C   0  0  0  0  0  0  0  0  0  0  0  0
   -2.8589   -1.4034   -0.8910 H   0  0  0  0  0  0  0  0  0  0  0  0
   -2.9282   -1.2679    0.8685 H   0  0  0  0  0  0  0  0  0  0  0  0
   -0.1046   -0.7147    0.0707 C   0  0  0  0  0  0  0  0  0  0  0  0
   -1.3783    0.8720    0.8169 H   0  0  0  0  0  0  0  0  0  0  0  0
   -1.4335    0.8811   -0.8982 H   0  0  0  0  0  0  0  0  0  0  0  0
    0.0548   -1.7789    1.2454 H   0  0  0  0  0  0  0  0  0  0  0  0
    0.7286   -0.1957   -0.4292 H   0  0  0  0  0  0  0  0  0  0  0  0
   -0.2660   -1.0478   -0.6549 H   0  0  0  0  0  0  0  0  0  0  0  0
  1  5  1  0  0  0  0
  2  6  1  0  0  0  0
  2  1  1  0  0  0  0
  2  8  1  0  0  0  0
  3  1  1  0  0  0  0
  4  1  1  0  0  0  0
  6  9  1  0  0  0  0
  6 10  1  0  0  0  0
  7  2  1  0  0  0  0
 11  6  1  0  0  0  0
 13  9  1  0  0  0  0
 14  9  1  0  0  0  0
M  RAD  2   9   2  12   2
M  END
$$$$
