butane_opt
 OpenBabel08242015383D

 14 13  0  0  0  0  0  0  0  0999 V2000
   -4.0051    0.2658    0.0704 C   0  0  0  0  0  0  0  0  0  0  0  0
   -2.6850   -0.6679    0.0236 C   0  0  0  0  0  0  0  0  0  0  0  0
   -4.8408   -0.2308   -0.3513 H   0  0  0  0  0  0  0  0  0  0  0  0
   -3.8771    0.6634   -0.6544 H   0  0  0  0  0  0  0  0  0  0  0  0
   -4.0827    1.3428    1.1100 H   0  0  0  0  0  0  0  0  0  0  0  0
   -1.3970    0.1854   -0.0598 C   0  0  0  0  0  0  0  0  0  0  0  0
   -2.8350   -1.3713   -0.8804 H   0  0  0  0  0  0  0  0  0  0  0  0
   -2.5964   -1.0315    0.8121 H   0  0  0  0  0  0  0  0  0  0  0  0
   -0.1293   -0.6894    0.0770 C   0  0  0  0  0  0  0  0  0  0  0  0
   -1.3307    0.7275    0.7063 H   0  0  0  0  0  0  0  0  0  0  0  0
   -1.4033    0.9175   -1.0069 H   0  0  0  0  0  0  0  0  0  0  0  0
   -0.1739   -1.4652    1.1318 H   0  0  0  0  0  0  0  0  0  0  0  0
    0.8569   -0.0054   -0.1169 H   0  0  0  0  0  0  0  0  0  0  0  0
   -0.1527   -1.1508   -0.6053 H   0  0  0  0  0  0  0  0  0  0  0  0
  1  5  1  0  0  0  0
  2  1  1  0  0  0  0
  2  8  1  0  0  0  0
  3  1  1  0  0  0  0
  4  1  1  0  0  0  0
  6  2  1  0  0  0  0
  6  9  1  0  0  0  0
  6 10  1  0  0  0  0
  7  2  1  0  0  0  0
  9 12  1  0  0  0  0
 11  6  1  0  0  0  0
 13  9  1  0  0  0  0
 14  9  1  0  0  0  0
M  END
$$$$
