14
butane_opt
C  -3.886191   0.246260   0.098031
C  -2.745265  -0.550645  -0.035466
H  -4.862861  -0.413226   0.308892
H  -3.937316   0.975660  -0.864485
H  -3.737787   0.736518   0.840099
C  -1.428446   0.208597  -0.070599
H  -2.869046  -1.584830  -1.051259
H  -2.591648  -1.103317   0.755302
C  -0.160321  -0.749050   0.105543
H  -1.628918   0.897680   0.746627
H  -1.334663   0.800431  -0.954715
H  -0.122240  -1.374839   0.968569
H   0.797104  -0.006760   0.173016
H  -0.101027  -1.235774  -0.662211
