butane_opt
 OpenBabel08242015383D

 14 13  0  0  0  0  0  0  0  0999 V2000
   -3.9897    0.2879    0.1220 C   0  0  0  0  0  0  0  0  0  0  0  0
   -2.7072   -0.6774   -0.0407 C   0  0  0  0  0  0  0  0  0  0  0  0
   -4.8156   -0.2206    0.0356 H   0  0  0  0  0  0  0  0  0  0  0  0
   -4.0087    0.8465   -0.6951 H   0  0  0  0  0  0  0  0  0  0  0  0
   -3.9176    1.0107    0.9934 H   0  0  0  0  0  0  0  0  0  0  0  0
   -1.3837    0.1806   -0.1346 C   0  0  0  0  0  0  0  0  0  0  0  0
   -2.8369   -1.3046   -0.7605 H   0  0  0  0  0  0  0  0  0  0  0  0
   -2.4672   -1.2905    0.8176 H   0  0  0  0  0  0  0  0  0  0  0  0
   -0.1458   -0.6740    0.1143 C   0  0  0  0  0  0  0  0  0  0  0  0
   -1.4896    0.8695    0.6943 H   0  0  0  0  0  0  0  0  0  0  0  0
   -1.3058    0.8622   -1.0676 H   0  0  0  0  0  0  0  0  0  0  0  0
   -0.3890   -1.1125    0.9679 H   0  0  0  0  0  0  0  0  0  0  0  0
    0.6921   -0.1099    0.4827 H   0  0  0  0  0  0  0  0  0  0  0  0
    0.2025   -1.4366   -0.7933 H   0  0  0  0  0  0  0  0  0  0  0  0
  1  5  1  0  0  0  0
  2  1  1  0  0  0  0
  2  8  1  0  0  0  0
  3  1  1  0  0  0  0
  4  1  1  0  0  0  0
  6  2  1  0  0  0  0
  6  9  1  0  0  0  0
  6 10  1  0  0  0  0
  7  2  1  0  0  0  0
  9 13  1  0  0  0  0
  9 12  1  0  0  0  0
 11  6  1  0  0  0  0
 14  9  1  0  0  0  0
M  END
$$$$
