14
butane_opt
C  -3.962786   0.259176   0.079116
C  -2.699992  -0.598385  -0.009839
H  -4.820846  -0.392587  -0.083628
H  -3.897245   0.723459  -0.721369
H  -3.899465   1.068611   1.021088
C  -1.408422   0.197405  -0.053622
H  -2.921532  -1.431244  -1.023145
H  -2.704564  -1.162408   0.867477
C  -0.149667  -0.693040   0.081046
H  -1.341359   0.725720   0.728592
H  -1.406849   0.943425  -0.961223
H  -0.110746  -1.446709   1.105678
H   0.664596  -0.203083  -0.011434
H   0.054295  -1.273630  -0.625100
