butane_opt
 OpenBabel08242015383D

 14 13  0  0  0  0  0  0  0  0999 V2000
   -3.9490    0.2197   -0.0724 C   0  0  0  0  0  0  0  0  0  0  0  0
   -2.7306   -0.5848    0.1032 C   0  0  0  0  0  0  0  0  0  0  0  0
   -4.6955   -0.3058    0.0332 H   0  0  0  0  0  0  0  0  0  0  0  0
   -3.8568    1.0322   -1.1602 H   0  0  0  0  0  0  0  0  0  0  0  0
   -3.9742    0.7410    0.5806 H   0  0  0  0  0  0  0  0  0  0  0  0
   -1.4290    0.2568    0.1617 C   0  0  0  0  0  0  0  0  0  0  0  0
   -2.7319   -1.2756   -0.6661 H   0  0  0  0  0  0  0  0  0  0  0  0
   -2.8946   -1.2944    1.0623 H   0  0  0  0  0  0  0  0  0  0  0  0
   -0.1282   -0.7373   -0.0869 C   0  0  0  0  0  0  0  0  0  0  0  0
   -1.1629    1.1266    1.1667 H   0  0  0  0  0  0  0  0  0  0  0  0
   -1.5454    0.7097   -0.6025 H   0  0  0  0  0  0  0  0  0  0  0  0
    0.1719   -1.6124    0.9378 H   0  0  0  0  0  0  0  0  0  0  0  0
    0.7940   -0.1433   -0.2718 H   0  0  0  0  0  0  0  0  0  0  0  0
   -0.2971   -1.2747   -0.8850 H   0  0  0  0  0  0  0  0  0  0  0  0
  1  3  1  0  0  0  0
  1  2  1  0  0  0  0
  1  5  1  0  0  0  0
  2  6  1  0  0  0  0
  2  8  1  0  0  0  0
  4  1  1  0  0  0  0
  6 10  1  0  0  0  0
  7  2  1  0  0  0  0
  9  6  1  0  0  0  0
  9 12  1  0  0  0  0
 11  6  1  0  0  0  0
 13  9  1  0  0  0  0
 14  9  1  0  0  0  0
M  END
$$$$
