14
butane_opt
C  -3.923770   0.278352   0.095705
C  -2.696108  -0.626795  -0.027081
H  -4.820078  -0.225456   0.149614
H  -4.235383   0.973949  -0.810071
H  -3.851129   0.956013   0.971648
C  -1.382883   0.124989  -0.054820
H  -2.645793  -1.300692  -0.864522
H  -2.624140  -1.097633   0.745474
C  -0.197341  -0.668280   0.092854
H  -1.495747   0.634355   0.651505
H  -1.261379   0.873710  -1.170867
H  -0.491022  -1.191097   0.927873
H   0.862310   0.050679   0.378584
H  -0.064804  -1.436612  -0.839657
