butane_opt
 OpenBabel08242015383D

 14 12  0  0  0  0  0  0  0  0999 V2000
   -3.9209    0.2538    0.1055 C   0  0  0  0  0  0  0  0  0  0  0  0
   -2.6894   -0.6051   -0.0800 C   0  0  0  0  0  0  0  0  0  0  0  0
   -4.9011   -0.4608   -0.0465 H   0  0  0  0  0  0  0  0  0  0  0  0
   -3.7541    0.7730   -0.7124 H   0  0  0  0  0  0  0  0  0  0  0  0
   -3.7875    1.0808    1.0457 H   0  0  0  0  0  0  0  0  0  0  0  0
   -1.4289    0.1990   -0.0185 C   0  0  0  0  0  0  0  0  0  0  0  0
   -2.7604   -1.3355   -0.9574 H   0  0  0  0  0  0  0  0  0  0  0  0
   -2.7675   -1.0087    0.6975 H   0  0  0  0  0  0  0  0  0  0  0  0
   -0.1816   -0.6999    0.1033 C   0  0  0  0  0  0  0  0  0  0  0  0
   -1.5500    0.7588    0.7077 H   0  0  0  0  0  0  0  0  0  0  0  0
   -1.2784    0.9176   -0.9710 H   0  0  0  0  0  0  0  0  0  0  0  0
    0.1507   -1.7104    1.2322 H   0  0  0  0  0  0  0  0  0  0  0  0
    0.6924   -0.2242   -0.3405 H   0  0  0  0  0  0  0  0  0  0  0  0
   -0.4221   -1.0397   -0.4772 H   0  0  0  0  0  0  0  0  0  0  0  0
  1  5  1  0  0  0  0
  2  6  1  0  0  0  0
  2  1  1  0  0  0  0
  2  8  1  0  0  0  0
  3  1  1  0  0  0  0
  4  1  1  0  0  0  0
  6  9  1  0  0  0  0
  6 10  1  0  0  0  0
  7  2  1  0  0  0  0
 11  6  1  0  0  0  0
 13  9  1  0  0  0  0
 14  9  1  0  0  0  0
M  RAD  2   9   2  12   2
M  END
$$$$
