14
butane_opt
C  -3.943143   0.266852  -0.008021
C  -2.691821  -0.616505   0.056075
H  -4.831702  -0.285414   0.001018
H  -3.959626   0.879748  -0.932772
H  -3.984460   0.928386   0.844277
C  -1.402893   0.166408   0.048427
H  -2.648726  -1.233378  -0.745022
H  -2.699302  -1.289950   0.968772
C  -0.174025  -0.685678   0.004379
H  -1.386228   0.892182   0.934074
H  -1.388615   0.772483  -0.806840
H  -0.130950  -1.325411   0.913622
H   0.757577  -0.058469  -0.100827
H  -0.211759  -1.320832  -0.850077
