14
butane_opt
C  -3.912042   0.304296   0.127500
C  -2.687419  -0.632431  -0.084659
H  -4.853240  -0.300899   0.350342
H  -4.090806   1.023566  -0.805556
H  -4.006977   0.964953   0.862126
C  -1.395736   0.094588  -0.062542
H  -2.707247  -1.569216  -1.089386
H  -2.717228  -1.059788   0.731154
C  -0.185442  -0.657082   0.112681
H  -1.409281   0.734708   0.788162
H  -1.339002   0.814634  -1.075730
H  -0.341477  -1.354053   1.099771
H   0.766941   0.008372   0.066018
H  -0.160546  -1.034941  -0.566647
