butane_opt
 OpenBabel08242015383D

 14 13  0  0  0  0  0  0  0  0999 V2000
   -3.9763    0.2879    0.1230 C   0  0  0  0  0  0  0  0  0  0  0  0
   -2.7272   -0.6556   -0.0864 C   0  0  0  0  0  0  0  0  0  0  0  0
   -4.8349   -0.1917    0.3910 H   0  0  0  0  0  0  0  0  0  0  0  0
   -4.2285    1.1321   -0.8693 H   0  0  0  0  0  0  0  0  0  0  0  0
   -3.9218    0.8550    0.9216 H   0  0  0  0  0  0  0  0  0  0  0  0
   -1.3756    0.1444   -0.0843 C   0  0  0  0  0  0  0  0  0  0  0  0
   -2.7928   -1.4089   -0.9964 H   0  0  0  0  0  0  0  0  0  0  0  0
   -2.5257   -1.1491    0.7142 H   0  0  0  0  0  0  0  0  0  0  0  0
   -0.1218   -0.6670    0.1256 C   0  0  0  0  0  0  0  0  0  0  0  0
   -1.4419    0.8203    0.7932 H   0  0  0  0  0  0  0  0  0  0  0  0
   -1.2291    0.7015   -1.0112 H   0  0  0  0  0  0  0  0  0  0  0  0
   -0.4243   -1.2399    1.0515 H   0  0  0  0  0  0  0  0  0  0  0  0
    0.8108   -0.1043    0.1645 H   0  0  0  0  0  0  0  0  0  0  0  0
   -0.0199   -1.1895   -0.6815 H   0  0  0  0  0  0  0  0  0  0  0  0
  1  3  1  0  0  0  0
  1  5  1  0  0  0  0
  2  6  1  0  0  0  0
  2  1  1  0  0  0  0
  2  8  1  0  0  0  0
  4  1  1  0  0  0  0
  6  9  1  0  0  0  0
  6 10  1  0  0  0  0
  7  2  1  0  0  0  0
  9 13  1  0  0  0  0
  9 12  1  0  0  0  0
 11  6  1  0  0  0  0
 14  9  1  0  0  0  0
M  END
$$$$
