butane_opt
 OpenBabel08242015383D

 14 13  0  0  0  0  0  0  0  0999 V2000
   -3.9821    0.2812    0.0704 C   0  0  0  0  0  0  0  0  0  0  0  0
   -2.6755   -0.6385   -0.0751 C   0  0  0  0  0  0  0  0  0  0  0  0
   -5.0308   -0.3853   -0.0017 H   0  0  0  0  0  0  0  0  0  0  0  0
   -4.1004    0.8199   -0.7429 H   0  0  0  0  0  0  0  0  0  0  0  0
   -3.9998    1.0688    0.9926 H   0  0  0  0  0  0  0  0  0  0  0  0
   -1.3871    0.1574   -0.0071 C   0  0  0  0  0  0  0  0  0  0  0  0
   -2.7958   -1.2332   -0.8964 H   0  0  0  0  0  0  0  0  0  0  0  0
   -2.6215   -1.2799    0.8631 H   0  0  0  0  0  0  0  0  0  0  0  0
   -0.1481   -0.6829    0.0898 C   0  0  0  0  0  0  0  0  0  0  0  0
   -1.3946    0.9501    0.9482 H   0  0  0  0  0  0  0  0  0  0  0  0
   -1.3326    0.8879   -0.8580 H   0  0  0  0  0  0  0  0  0  0  0  0
    0.0175   -1.6045    1.2261 H   0  0  0  0  0  0  0  0  0  0  0  0
    0.8492   -0.0600   -0.4206 H   0  0  0  0  0  0  0  0  0  0  0  0
   -0.2903   -1.0621   -0.5871 H   0  0  0  0  0  0  0  0  0  0  0  0
  1  5  1  0  0  0  0
  2  6  1  0  0  0  0
  2  1  1  0  0  0  0
  2  8  1  0  0  0  0
  3  1  1  0  0  0  0
  4  1  1  0  0  0  0
  6  9  1  0  0  0  0
  6 10  1  0  0  0  0
  7  2  1  0  0  0  0
  9 12  1  0  0  0  0
 11  6  1  0  0  0  0
 13  9  1  0  0  0  0
 14  9  1  0  0  0  0
M  END
$$$$
