14
butane_opt
C  -3.912348   0.299743  -0.033801
C  -2.667479  -0.678583   0.054756
H  -4.782942  -0.259032   0.372205
H  -3.939221   1.267810  -1.198477
H  -3.916002   0.741142   0.686657
C  -1.414715   0.154340   0.074476
H  -2.792828  -1.199392  -0.678193
H  -2.716948  -1.355286   0.944990
C  -0.201778  -0.670135  -0.004623
H  -1.314942   0.963194   1.032767
H  -1.513354   0.611836  -0.610062
H  -0.205004  -1.120516   0.741870
H   0.723591   0.004049   0.008186
H  -0.233664  -1.366020  -0.986234
