butane_opt
 OpenBabel08242015383D

 14 12  0  0  0  0  0  0  0  0999 V2000
   -3.9296    0.3200    0.0891 C   0  0  0  0  0  0  0  0  0  0  0  0
   -2.6736   -0.6637   -0.0535 C   0  0  0  0  0  0  0  0  0  0  0  0
   -4.9996   -0.3902    0.1428 H   0  0  0  0  0  0  0  0  0  0  0  0
   -4.0520    0.8730   -0.7665 H   0  0  0  0  0  0  0  0  0  0  0  0
   -3.8395    1.0921    1.0380 H   0  0  0  0  0  0  0  0  0  0  0  0
   -1.3953    0.1345   -0.0347 C   0  0  0  0  0  0  0  0  0  0  0  0
   -2.6941   -1.5418   -1.1002 H   0  0  0  0  0  0  0  0  0  0  0  0
   -2.6364   -1.0117    0.6959 H   0  0  0  0  0  0  0  0  0  0  0  0
   -0.1961   -0.6622    0.0844 C   0  0  0  0  0  0  0  0  0  0  0  0
   -1.4169    0.6535    0.7583 H   0  0  0  0  0  0  0  0  0  0  0  0
   -1.2730    0.8411   -0.9324 H   0  0  0  0  0  0  0  0  0  0  0  0
   -0.1920   -1.5986    1.2927 H   0  0  0  0  0  0  0  0  0  0  0  0
    0.7319   -0.0235   -0.1343 H   0  0  0  0  0  0  0  0  0  0  0  0
   -0.3124   -0.9141   -0.5270 H   0  0  0  0  0  0  0  0  0  0  0  0
  1  3  1  0  0  0  0
  1  5  1  0  0  0  0
  2  6  1  0  0  0  0
  2  1  1  0  0  0  0
  2  8  1  0  0  0  0
  4  1  1  0  0  0  0
  6  9  1  0  0  0  0
  6 10  1  0  0  0  0
  7  2  1  0  0  0  0
 11  6  1  0  0  0  0
 13  9  1  0  0  0  0
 14  9  1  0  0  0  0
M  RAD  2   9   2  12   2
M  END
$$$$
