14
butane_opt
C  -3.939495   0.230839  -0.026299
C  -2.677072  -0.581556   0.113840
H  -4.901725  -0.404761  -0.466327
H  -3.816267   0.708404  -0.782365
H  -4.084410   1.156647   0.931743
C  -1.433618   0.181930   0.039223
H  -2.772493  -0.990322  -0.583652
H  -2.781566  -1.406404   1.151716
C  -0.159802  -0.704090  -0.021046
H  -1.512973   0.907988   0.986557
H  -1.354848   0.833848  -0.883132
H  -0.010726  -1.323544   0.787840
H   0.824106  -0.067438   0.001026
H  -0.101031  -1.427837  -0.983645
