butane_opt
 OpenBabel08242015383D

 14 12  0  0  0  0  0  0  0  0999 V2000
   -3.9427    0.2834    0.0128 C   0  0  0  0  0  0  0  0  0  0  0  0
   -2.6848   -0.6175    0.0937 C   0  0  0  0  0  0  0  0  0  0  0  0
   -4.8846   -0.3432   -0.3321 H   0  0  0  0  0  0  0  0  0  0  0  0
   -3.8308    0.5738   -0.7120 H   0  0  0  0  0  0  0  0  0  0  0  0
   -4.1300    1.3973    1.0783 H   0  0  0  0  0  0  0  0  0  0  0  0
   -1.3699    0.1358   -0.0188 C   0  0  0  0  0  0  0  0  0  0  0  0
   -2.5588   -1.3809   -0.7653 H   0  0  0  0  0  0  0  0  0  0  0  0
   -2.6345   -1.1235    0.8999 H   0  0  0  0  0  0  0  0  0  0  0  0
   -0.2209   -0.6894    0.0375 C   0  0  0  0  0  0  0  0  0  0  0  0
   -1.3338    0.6618    0.7447 H   0  0  0  0  0  0  0  0  0  0  0  0
   -1.3410    0.8062   -1.0203 H   0  0  0  0  0  0  0  0  0  0  0  0
   -0.2589   -1.2908    0.9321 H   0  0  0  0  0  0  0  0  0  0  0  0
    0.7379    0.0606   -0.1243 H   0  0  0  0  0  0  0  0  0  0  0  0
   -0.1632   -1.1800   -0.7157 H   0  0  0  0  0  0  0  0  0  0  0  0
  1  2  1  0  0  0  0
  2  8  1  0  0  0  0
  3  1  1  0  0  0  0
  4  1  1  0  0  0  0
  6  9  1  0  0  0  0
  6  2  1  0  0  0  0
  6 10  1  0  0  0  0
  7  2  1  0  0  0  0
  9 12  1  0  0  0  0
 11  6  1  0  0  0  0
 13  9  1  0  0  0  0
 14  9  1  0  0  0  0
M  RAD  2   1   2   5   2
M  END
$$$$
