14
butane_opt
C  -3.951063   0.322235   0.055847
C  -2.675154  -0.682225   0.044942
H  -4.874042  -0.270802   0.078314
H  -4.001221   0.998393  -0.896634
H  -3.888998   0.856845   0.848980
C  -1.386923   0.146335  -0.044398
H  -2.745723  -1.402403  -0.875896
H  -2.702067  -1.240755   0.927574
C  -0.198593  -0.668800   0.037661
H  -1.314108   0.806107   0.820544
H  -1.284792   0.896260  -1.011043
H  -0.448336  -1.054257   0.778091
H   0.646692  -0.027258   0.468397
H   0.112312  -1.453595  -0.862757
