14
butane_opt
C  -3.962182   0.275883   0.104261
C  -2.701300  -0.673815  -0.091254
H  -4.817808  -0.236321   0.017603
H  -4.126209   0.893273  -0.660831
H  -3.792578   1.074767   1.087273
C  -1.414200   0.187151  -0.045637
H  -2.722512  -1.270519  -0.918463
H  -2.797750  -1.225625   0.723223
C  -0.131498  -0.682995   0.109094
H  -1.531338   0.896384   0.756766
H  -1.276920   0.826151  -0.915092
H  -0.094718  -1.614385   1.224525
H   0.808416  -0.034280  -0.235647
H  -0.184768  -1.047152  -0.532650
