14
butane_opt
C  -3.940357   0.287967  -0.060007
C  -2.679099  -0.638506   0.112358
H  -4.861921  -0.281404  -0.002026
H  -3.892170   1.009231  -1.005327
H  -4.024508   0.883876   0.825357
C  -1.393202   0.158680   0.069549
H  -2.744518  -1.198606  -0.675918
H  -2.587922  -1.266639   0.975169
C  -0.186989  -0.681696  -0.040524
H  -1.270798   0.970850   1.070418
H  -1.414445   0.553989  -0.704922
H  -0.221333  -1.342056   0.881389
H   0.853964  -0.024504  -0.045669
H  -0.457919  -1.276424  -0.859247
