butane_opt
 OpenBabel08242015383D

 14 13  0  0  0  0  0  0  0  0999 V2000
   -3.9001    0.2453    0.0970 C   0  0  0  0  0  0  0  0  0  0  0  0
   -2.7173   -0.6023   -0.0246 C   0  0  0  0  0  0  0  0  0  0  0  0
   -4.8419   -0.3718    0.0697 H   0  0  0  0  0  0  0  0  0  0  0  0
   -4.0485    0.9517   -0.8582 H   0  0  0  0  0  0  0  0  0  0  0  0
   -3.7931    0.8949    0.9357 H   0  0  0  0  0  0  0  0  0  0  0  0
   -1.4038    0.2353   -0.0818 C   0  0  0  0  0  0  0  0  0  0  0  0
   -2.7856   -1.2266   -0.8323 H   0  0  0  0  0  0  0  0  0  0  0  0
   -2.8356   -1.4207    1.0145 H   0  0  0  0  0  0  0  0  0  0  0  0
   -0.1563   -0.7224    0.0987 C   0  0  0  0  0  0  0  0  0  0  0  0
   -1.6259    0.8314    0.7496 H   0  0  0  0  0  0  0  0  0  0  0  0
   -1.3284    0.9141   -1.0120 H   0  0  0  0  0  0  0  0  0  0  0  0
   -0.3312   -1.1047    0.8762 H   0  0  0  0  0  0  0  0  0  0  0  0
    0.6979   -0.1844    0.4308 H   0  0  0  0  0  0  0  0  0  0  0  0
    0.0101   -1.6410   -1.0531 H   0  0  0  0  0  0  0  0  0  0  0  0
  1  5  1  0  0  0  0
  2  1  1  0  0  0  0
  2  8  1  0  0  0  0
  3  1  1  0  0  0  0
  4  1  1  0  0  0  0
  6  2  1  0  0  0  0
  6  9  1  0  0  0  0
  6 10  1  0  0  0  0
  7  2  1  0  0  0  0
  9 13  1  0  0  0  0
  9 12  1  0  0  0  0
 11  6  1  0  0  0  0
 14  9  1  0  0  0  0
M  END
$$$$
