butane_opt
 OpenBabel08242015383D

 14 13  0  0  0  0  0  0  0  0999 V2000
   -3.9383    0.2674    0.0068 C   0  0  0  0  0  0  0  0  0  0  0  0
   -2.6921   -0.6163    0.0454 C   0  0  0  0  0  0  0  0  0  0  0  0
   -4.8354   -0.3113    0.1116 H   0  0  0  0  0  0  0  0  0  0  0  0
   -4.0150    0.9508   -0.9257 H   0  0  0  0  0  0  0  0  0  0  0  0
   -3.9254    0.8977    0.8514 H   0  0  0  0  0  0  0  0  0  0  0  0
   -1.4110    0.1636    0.0269 C   0  0  0  0  0  0  0  0  0  0  0  0
   -2.7298   -1.2860   -0.8276 H   0  0  0  0  0  0  0  0  0  0  0  0
   -2.7133   -1.2712    0.9559 H   0  0  0  0  0  0  0  0  0  0  0  0
   -0.1572   -0.6845    0.0236 C   0  0  0  0  0  0  0  0  0  0  0  0
   -1.3940    0.8231    0.8602 H   0  0  0  0  0  0  0  0  0  0  0  0
   -1.4098    0.8519   -0.9151 H   0  0  0  0  0  0  0  0  0  0  0  0
   -0.1914   -1.2062    0.8505 H   0  0  0  0  0  0  0  0  0  0  0  0
    0.7357   -0.0847    0.1229 H   0  0  0  0  0  0  0  0  0  0  0  0
   -0.1599   -1.3992   -0.8857 H   0  0  0  0  0  0  0  0  0  0  0  0
  1  2  1  0  0  0  0
  1  3  1  0  0  0  0
  1  5  1  0  0  0  0
  2  8  1  0  0  0  0
  4  1  1  0  0  0  0
  6  2  1  0  0  0  0
  6 10  1  0  0  0  0
  7  2  1  0  0  0  0
  9  6  1  0  0  0  0
  9 13  1  0  0  0  0
  9 12  1  0  0  0  0
 11  6  1  0  0  0  0
 14  9  1  0  0  0  0
M  END
$$$$
