14
butane_opt
C  -3.982076   0.281232   0.070371
C  -2.675476  -0.638469  -0.075144
H  -5.030764  -0.385272  -0.001735
H  -4.100388   0.819920  -0.742918
H  -3.999813   1.068815   0.992584
C  -1.387108   0.157375  -0.007063
H  -2.795826  -1.233197  -0.896396
H  -2.621460  -1.279894   0.863060
C  -0.148107  -0.682928   0.089779
H  -1.394587   0.950125   0.948231
H  -1.332640   0.887898  -0.858012
H   0.017547  -1.604454   1.226139
H   0.849160  -0.059976  -0.420572
H  -0.290259  -1.062119  -0.587091
