butane_opt
 OpenBabel08242015383D

 14 13  0  0  0  0  0  0  0  0999 V2000
   -3.9703    0.2979   -0.0191 C   0  0  0  0  0  0  0  0  0  0  0  0
   -2.6826   -0.6745    0.0144 C   0  0  0  0  0  0  0  0  0  0  0  0
   -4.8069   -0.2119    0.6024 H   0  0  0  0  0  0  0  0  0  0  0  0
   -4.3063    1.2567   -1.0995 H   0  0  0  0  0  0  0  0  0  0  0  0
   -3.7977    0.7164    0.6864 H   0  0  0  0  0  0  0  0  0  0  0  0
   -1.3902    0.1829    0.0434 C   0  0  0  0  0  0  0  0  0  0  0  0
   -2.6323   -1.3340   -0.7372 H   0  0  0  0  0  0  0  0  0  0  0  0
   -2.9309   -1.3772    0.9319 H   0  0  0  0  0  0  0  0  0  0  0  0
   -0.1594   -0.6622    0.0157 C   0  0  0  0  0  0  0  0  0  0  0  0
   -1.3957    0.8784    0.9737 H   0  0  0  0  0  0  0  0  0  0  0  0
   -1.3925    0.5763   -0.6383 H   0  0  0  0  0  0  0  0  0  0  0  0
   -0.1268   -1.1589    0.8083 H   0  0  0  0  0  0  0  0  0  0  0  0
    0.8625    0.0074    0.0831 H   0  0  0  0  0  0  0  0  0  0  0  0
   -0.1057   -1.4905   -0.8610 H   0  0  0  0  0  0  0  0  0  0  0  0
  1  2  1  0  0  0  0
  1  3  1  0  0  0  0
  1  5  1  0  0  0  0
  2  6  1  0  0  0  0
  2  8  1  0  0  0  0
  4  1  1  0  0  0  0
  6 10  1  0  0  0  0
  7  2  1  0  0  0  0
  9  6  1  0  0  0  0
  9 13  1  0  0  0  0
  9 12  1  0  0  0  0
 11  6  1  0  0  0  0
 14  9  1  0  0  0  0
M  END
$$$$
