butane_opt
 OpenBabel08242015383D

 14 13  0  0  0  0  0  0  0  0999 V2000
   -3.9279    0.3001   -0.0449 C   0  0  0  0  0  0  0  0  0  0  0  0
   -2.6882   -0.6466    0.0773 C   0  0  0  0  0  0  0  0  0  0  0  0
   -4.8903   -0.3696   -0.0582 H   0  0  0  0  0  0  0  0  0  0  0  0
   -3.9391    0.9754   -0.9329 H   0  0  0  0  0  0  0  0  0  0  0  0
   -4.0296    0.9474    0.7488 H   0  0  0  0  0  0  0  0  0  0  0  0
   -1.4144    0.1306    0.1052 C   0  0  0  0  0  0  0  0  0  0  0  0
   -2.4238   -1.1389   -0.6296 H   0  0  0  0  0  0  0  0  0  0  0  0
   -2.6687   -1.3918    0.9752 H   0  0  0  0  0  0  0  0  0  0  0  0
   -0.1979   -0.6589   -0.0183 C   0  0  0  0  0  0  0  0  0  0  0  0
   -1.3658    0.9422    1.0340 H   0  0  0  0  0  0  0  0  0  0  0  0
   -1.3442    0.6538   -0.7154 H   0  0  0  0  0  0  0  0  0  0  0  0
   -0.0675   -1.3368    0.8282 H   0  0  0  0  0  0  0  0  0  0  0  0
    0.8400    0.0074   -0.3684 H   0  0  0  0  0  0  0  0  0  0  0  0
   -0.4016   -1.2539   -0.8771 H   0  0  0  0  0  0  0  0  0  0  0  0
  1  2  1  0  0  0  0
  1  5  1  0  0  0  0
  2  6  1  0  0  0  0
  2  8  1  0  0  0  0
  3  1  1  0  0  0  0
  4  1  1  0  0  0  0
  6 10  1  0  0  0  0
  7  2  1  0  0  0  0
  9  6  1  0  0  0  0
  9 12  1  0  0  0  0
 11  6  1  0  0  0  0
 13  9  1  0  0  0  0
 14  9  1  0  0  0  0
M  END
$$$$
