14
butane_opt
C  -3.957019   0.266926  -0.014473
C  -2.700278  -0.616665   0.083676
H  -4.835381  -0.284292  -0.109956
H  -3.940557   0.831078  -0.881437
H  -4.022847   0.956158   0.864612
C  -1.392672   0.173702   0.031887
H  -2.715386  -1.277015  -0.752782
H  -2.720645  -1.275686   1.029387
C  -0.155473  -0.686285  -0.002426
H  -1.377617   0.912746   0.932803
H  -1.443465   0.789049  -0.844138
H  -0.133920  -1.322953   0.881984
H   0.772546  -0.079035  -0.008430
H  -0.148137  -1.370270  -0.859303
