butane_opt
 OpenBabel08242015383D

 14 13  0  0  0  0  0  0  0  0999 V2000
   -3.9585    0.2422   -0.0591 C   0  0  0  0  0  0  0  0  0  0  0  0
   -2.7023   -0.6058    0.1051 C   0  0  0  0  0  0  0  0  0  0  0  0
   -4.8705   -0.4388   -0.0053 H   0  0  0  0  0  0  0  0  0  0  0  0
   -3.8126    1.0395   -1.1334 H   0  0  0  0  0  0  0  0  0  0  0  0
   -3.9674    0.9111    0.7335 H   0  0  0  0  0  0  0  0  0  0  0  0
   -1.4089    0.1981    0.1441 C   0  0  0  0  0  0  0  0  0  0  0  0
   -2.5004   -1.2369   -0.7134 H   0  0  0  0  0  0  0  0  0  0  0  0
   -2.6798   -1.1931    0.9390 H   0  0  0  0  0  0  0  0  0  0  0  0
   -0.1650   -0.7035   -0.0463 C   0  0  0  0  0  0  0  0  0  0  0  0
   -1.4560    0.8841    0.9823 H   0  0  0  0  0  0  0  0  0  0  0  0
   -1.3289    0.8012   -0.6448 H   0  0  0  0  0  0  0  0  0  0  0  0
    0.0707   -1.3809    0.8656 H   0  0  0  0  0  0  0  0  0  0  0  0
    0.7264   -0.1368   -0.4331 H   0  0  0  0  0  0  0  0  0  0  0  0
   -0.3681   -1.2983   -0.8905 H   0  0  0  0  0  0  0  0  0  0  0  0
  1  3  1  0  0  0  0
  1  2  1  0  0  0  0
  1  5  1  0  0  0  0
  2  6  1  0  0  0  0
  2  8  1  0  0  0  0
  4  1  1  0  0  0  0
  6 10  1  0  0  0  0
  7  2  1  0  0  0  0
  9  6  1  0  0  0  0
  9 12  1  0  0  0  0
 11  6  1  0  0  0  0
 13  9  1  0  0  0  0
 14  9  1  0  0  0  0
M  END
$$$$
