butane_opt
 OpenBabel08242015383D

 14 13  0  0  0  0  0  0  0  0999 V2000
   -3.9382    0.2877   -0.0386 C   0  0  0  0  0  0  0  0  0  0  0  0
   -2.6942   -0.6336    0.1257 C   0  0  0  0  0  0  0  0  0  0  0  0
   -4.7392   -0.2665   -0.2981 H   0  0  0  0  0  0  0  0  0  0  0  0
   -3.8097    0.9490   -0.9178 H   0  0  0  0  0  0  0  0  0  0  0  0
   -4.2734    1.0297    0.8488 H   0  0  0  0  0  0  0  0  0  0  0  0
   -1.3794    0.1218    0.0792 C   0  0  0  0  0  0  0  0  0  0  0  0
   -2.6651   -1.2366   -0.6623 H   0  0  0  0  0  0  0  0  0  0  0  0
   -2.5633   -1.3130    0.9455 H   0  0  0  0  0  0  0  0  0  0  0  0
   -0.1790   -0.6727   -0.0367 C   0  0  0  0  0  0  0  0  0  0  0  0
   -1.3283    0.8371    0.9522 H   0  0  0  0  0  0  0  0  0  0  0  0
   -1.4398    0.7105   -0.7648 H   0  0  0  0  0  0  0  0  0  0  0  0
   -0.3221   -1.1929    0.8541 H   0  0  0  0  0  0  0  0  0  0  0  0
    0.7900    0.0014   -0.2070 H   0  0  0  0  0  0  0  0  0  0  0  0
   -0.3690   -1.2221   -0.8792 H   0  0  0  0  0  0  0  0  0  0  0  0
  1  2  1  0  0  0  0
  1  5  1  0  0  0  0
  2  8  1  0  0  0  0
  3  1  1  0  0  0  0
  4  1  1  0  0  0  0
  6  2  1  0  0  0  0
  6 10  1  0  0  0  0
  7  2  1  0  0  0  0
  9  6  1  0  0  0  0
  9 12  1  0  0  0  0
 11  6  1  0  0  0  0
 13  9  1  0  0  0  0
 14  9  1  0  0  0  0
M  END
$$$$
