butane_opt
 OpenBabel08242015383D

 14 13  0  0  0  0  0  0  0  0999 V2000
   -3.9481    0.2976    0.0083 C   0  0  0  0  0  0  0  0  0  0  0  0
   -2.6403   -0.6533    0.0073 C   0  0  0  0  0  0  0  0  0  0  0  0
   -4.8060   -0.2058   -0.0818 H   0  0  0  0  0  0  0  0  0  0  0  0
   -3.8806    0.7150   -0.6684 H   0  0  0  0  0  0  0  0  0  0  0  0
   -3.9759    1.1860    1.0282 H   0  0  0  0  0  0  0  0  0  0  0  0
   -1.4179    0.1341    0.0255 C   0  0  0  0  0  0  0  0  0  0  0  0
   -2.7585   -1.4359   -0.9383 H   0  0  0  0  0  0  0  0  0  0  0  0
   -2.5891   -1.3441    0.9474 H   0  0  0  0  0  0  0  0  0  0  0  0
   -0.2194   -0.6353    0.0584 C   0  0  0  0  0  0  0  0  0  0  0  0
   -1.4048    0.6932    0.8724 H   0  0  0  0  0  0  0  0  0  0  0  0
   -1.3013    0.8259   -0.9055 H   0  0  0  0  0  0  0  0  0  0  0  0
    0.0593   -1.4849    1.1189 H   0  0  0  0  0  0  0  0  0  0  0  0
    0.6720   -0.0760   -0.3813 H   0  0  0  0  0  0  0  0  0  0  0  0
   -0.3703   -1.0357   -0.7085 H   0  0  0  0  0  0  0  0  0  0  0  0
  1  5  1  0  0  0  0
  2  1  1  0  0  0  0
  2  6  1  0  0  0  0
  2  8  1  0  0  0  0
  3  1  1  0  0  0  0
  4  1  1  0  0  0  0
  6  9  1  0  0  0  0
  6 10  1  0  0  0  0
  7  2  1  0  0  0  0
  9 12  1  0  0  0  0
 11  6  1  0  0  0  0
 13  9  1  0  0  0  0
 14  9  1  0  0  0  0
M  END
$$$$
