14
butane_opt
C  -3.952904   0.266082   0.065758
C  -2.734789  -0.597856  -0.002698
H  -4.964958  -0.433325   0.385930
H  -4.102869   1.190020  -0.968272
H  -3.736338   0.650363   0.730433
C  -1.377648   0.184332  -0.022924
H  -2.739207  -1.498037  -1.079476
H  -2.772526  -1.048382   0.791937
C  -0.146197  -0.714241   0.074402
H  -1.425041   0.942451   0.838217
H  -1.438293   0.814660  -0.955424
H  -0.112183  -1.273132   0.877393
H   0.781438  -0.153011   0.172035
H   0.024904  -1.322631  -0.743211
