14
butane_opt
C  -3.981704   0.275385   0.074820
C  -2.697377  -0.633083  -0.066699
H  -4.979400  -0.407080   0.217704
H  -4.137167   0.722542  -0.685154
H  -3.928910   0.989889   0.968347
C  -1.400772   0.191313  -0.016883
H  -2.758174  -1.452962  -1.079898
H  -2.733941  -0.977383   0.666411
C  -0.114082  -0.708627   0.115255
H  -1.274967   0.864363   0.779603
H  -1.410900   1.017947  -1.050347
H   0.084231  -1.593913   1.277048
H   0.743380  -0.136777  -0.343263
H  -0.280806  -1.032003  -0.517301
