14
butane_opt
C  -3.974614   0.313807  -0.075634
C  -2.701398  -0.681986   0.152720
H  -4.842128  -0.297260  -0.353173
H  -3.892293   0.838876  -0.891185
H  -4.262983   1.168519   0.925716
C  -1.364743   0.175795   0.079908
H  -2.572506  -1.311080  -0.591772
H  -2.728161  -1.514913   1.129732
C  -0.181831  -0.657527  -0.031700
H  -1.206371   0.822938   0.886118
H  -1.385671   0.733328  -0.795509
H   0.158690  -1.203480   0.728556
H   0.745703  -0.024761  -0.108858
H  -0.381110  -1.458481  -0.971728
