14
butane_opt
C  -3.942831   0.289786  -0.055274
C  -2.642198  -0.657915   0.179141
H  -4.849269  -0.286361  -0.422807
H  -3.705085   0.806313  -0.993180
H  -4.228604   1.116285   0.850210
C  -1.406521   0.146840   0.089900
H  -2.548410  -1.229108  -0.649918
H  -2.860070  -1.240669   1.076954
C  -0.185258  -0.667035  -0.079153
H  -1.320111   0.744249   0.907398
H  -1.556826   0.793084  -0.745023
H  -0.229545  -1.247115   0.793866
H   0.754481   0.028366   0.018247
H  -0.356604  -1.304762  -0.977524
