14
butane_opt
C  -3.960264   0.260502  -0.016890
C  -2.739784  -0.608711   0.032386
H  -4.842053  -0.371748   0.343302
H  -4.079512   1.164044  -1.124752
H  -3.856588   0.577999   0.632513
C  -1.402041   0.201305   0.093590
H  -2.634153  -1.081621  -0.767053
H  -2.783440  -1.298421   0.962712
C  -0.148487  -0.701027   0.001339
H  -1.389103   0.958835   0.998456
H  -1.274314   0.668370  -0.705859
H   0.136811  -1.290070   0.777064
H   0.752522  -0.091780  -0.082741
H  -0.064325  -1.520243  -0.962997
