14
butane_opt
C  -3.945960   0.274009  -0.057927
C  -2.655451  -0.605138   0.164269
H  -4.920427  -0.330191  -0.484645
H  -3.578352   0.728503  -0.864198
H  -4.292076   1.185327   0.905895
C  -1.396323   0.148864   0.063830
H  -2.681527  -1.153399  -0.668413
H  -2.731068  -1.475104   1.224903
C  -0.192043  -0.664275  -0.046660
H  -1.196429   0.872307   0.949923
H  -1.494855   0.650965  -0.757251
H  -0.221440  -1.321684   0.791675
H   0.690544  -0.045772  -0.121741
H  -0.308245  -1.436406  -0.993013
