butane_opt
 OpenBabel08242015383D

 14 13  0  0  0  0  0  0  0  0999 V2000
   -3.9306    0.2579    0.0352 C   0  0  0  0  0  0  0  0  0  0  0  0
   -2.7031   -0.6130    0.0388 C   0  0  0  0  0  0  0  0  0  0  0  0
   -4.8523   -0.3445   -0.0598 H   0  0  0  0  0  0  0  0  0  0  0  0
   -3.9057    0.7809   -0.8024 H   0  0  0  0  0  0  0  0  0  0  0  0
   -3.9925    1.0241    0.9699 H   0  0  0  0  0  0  0  0  0  0  0  0
   -1.4133    0.2031   -0.0188 C   0  0  0  0  0  0  0  0  0  0  0  0
   -2.7215   -1.3408   -0.8466 H   0  0  0  0  0  0  0  0  0  0  0  0
   -2.6737   -1.2000    0.8981 H   0  0  0  0  0  0  0  0  0  0  0  0
   -0.1691   -0.7030    0.0485 C   0  0  0  0  0  0  0  0  0  0  0  0
   -1.4161    0.8184    0.7758 H   0  0  0  0  0  0  0  0  0  0  0  0
   -1.4047    0.8377   -0.9419 H   0  0  0  0  0  0  0  0  0  0  0  0
   -0.1660   -1.3344    0.9567 H   0  0  0  0  0  0  0  0  0  0  0  0
    0.7699   -0.1049    0.0262 H   0  0  0  0  0  0  0  0  0  0  0  0
   -0.0680   -1.3439   -0.7694 H   0  0  0  0  0  0  0  0  0  0  0  0
  1  2  1  0  0  0  0
  1  5  1  0  0  0  0
  2  8  1  0  0  0  0
  3  1  1  0  0  0  0
  4  1  1  0  0  0  0
  6  2  1  0  0  0  0
  6  9  1  0  0  0  0
  6 10  1  0  0  0  0
  7  2  1  0  0  0  0
  9 12  1  0  0  0  0
 11  6  1  0  0  0  0
 13  9  1  0  0  0  0
 14  9  1  0  0  0  0
M  END
$$$$
