butane_opt
 OpenBabel08242015383D

 14 12  0  0  0  0  0  0  0  0999 V2000
   -3.9198    0.2344    0.0669 C   0  0  0  0  0  0  0  0  0  0  0  0
   -2.6948   -0.5430   -0.0191 C   0  0  0  0  0  0  0  0  0  0  0  0
   -4.9831   -0.5065   -0.0536 H   0  0  0  0  0  0  0  0  0  0  0  0
   -3.8452    0.6069   -0.7574 H   0  0  0  0  0  0  0  0  0  0  0  0
   -3.8120    1.1517    1.0475 H   0  0  0  0  0  0  0  0  0  0  0  0
   -1.4343    0.1935   -0.0216 C   0  0  0  0  0  0  0  0  0  0  0  0
   -2.7795   -1.5501   -1.0573 H   0  0  0  0  0  0  0  0  0  0  0  0
   -2.6560   -1.0384    0.7721 H   0  0  0  0  0  0  0  0  0  0  0  0
   -0.1793   -0.7003    0.0834 C   0  0  0  0  0  0  0  0  0  0  0  0
   -1.3996    0.8331    0.7664 H   0  0  0  0  0  0  0  0  0  0  0  0
   -1.5097    0.8720   -0.9212 H   0  0  0  0  0  0  0  0  0  0  0  0
    0.0843   -1.8534    1.2600 H   0  0  0  0  0  0  0  0  0  0  0  0
    0.7531   -0.1565   -0.3686 H   0  0  0  0  0  0  0  0  0  0  0  0
   -0.1428   -1.0334   -0.4855 H   0  0  0  0  0  0  0  0  0  0  0  0
  1  5  1  0  0  0  0
  2  1  1  0  0  0  0
  2  8  1  0  0  0  0
  3  1  1  0  0  0  0
  4  1  1  0  0  0  0
  6  2  1  0  0  0  0
  6  9  1  0  0  0  0
  6 10  1  0  0  0  0
  7  2  1  0  0  0  0
 11  6  1  0  0  0  0
 13  9  1  0  0  0  0
 14  9  1  0  0  0  0
M  RAD  2   9   2  12   2
M  END
$$$$
