14
butane_opt
C  -3.948980   0.276859   0.015623
C  -2.696559  -0.614866   0.036211
H  -4.866762  -0.322811   0.012373
H  -4.003609   0.880551  -0.892921
H  -3.970688   0.919997   0.867495
C  -1.386930   0.169990   0.033018
H  -2.724412  -1.357007  -0.854498
H  -2.686396  -1.217611   0.878857
C  -0.171835  -0.687737   0.024023
H  -1.359865   0.824162   0.869775
H  -1.426191   0.782057  -0.851942
H  -0.116018  -1.406199   0.984287
H   0.758199  -0.068314  -0.105286
H  -0.180656  -1.224581  -0.764828
