butane_opt
 OpenBabel08242015383D

 14 12  0  0  0  0  0  0  0  0999 V2000
   -3.9464    0.2024    0.0764 C   0  0  0  0  0  0  0  0  0  0  0  0
   -2.7198   -0.5747    0.0120 C   0  0  0  0  0  0  0  0  0  0  0  0
   -4.8610   -0.3768   -0.4674 H   0  0  0  0  0  0  0  0  0  0  0  0
   -3.9060    0.6468   -0.7235 H   0  0  0  0  0  0  0  0  0  0  0  0
   -4.1817    1.3011    1.1790 H   0  0  0  0  0  0  0  0  0  0  0  0
   -1.4117    0.2266   -0.0630 C   0  0  0  0  0  0  0  0  0  0  0  0
   -2.9212   -1.2438   -0.7746 H   0  0  0  0  0  0  0  0  0  0  0  0
   -2.5901   -1.2803    0.9621 H   0  0  0  0  0  0  0  0  0  0  0  0
   -0.0984   -0.7246    0.0732 C   0  0  0  0  0  0  0  0  0  0  0  0
   -1.4443    0.9385    0.7605 H   0  0  0  0  0  0  0  0  0  0  0  0
   -1.4222    0.9053   -0.9535 H   0  0  0  0  0  0  0  0  0  0  0  0
   -0.1401   -1.5508    1.0558 H   0  0  0  0  0  0  0  0  0  0  0  0
    0.6681   -0.1589   -0.0624 H   0  0  0  0  0  0  0  0  0  0  0  0
   -0.0603   -1.2439   -0.7008 H   0  0  0  0  0  0  0  0  0  0  0  0
  2  1  1  0  0  0  0
  2  8  1  0  0  0  0
  3  1  1  0  0  0  0
  4  1  1  0  0  0  0
  6  2  1  0  0  0  0
  6  9  1  0  0  0  0
  6 10  1  0  0  0  0
  7  2  1  0  0  0  0
  9 12  1  0  0  0  0
 11  6  1  0  0  0  0
 13  9  1  0  0  0  0
 14  9  1  0  0  0  0
M  RAD  2   1   2   5   2
M  END
$$$$
