butane_opt
 OpenBabel08242015383D

 14 13  0  0  0  0  0  0  0  0999 V2000
   -3.9847    0.3123    0.0789 C   0  0  0  0  0  0  0  0  0  0  0  0
   -2.7176   -0.6712   -0.0738 C   0  0  0  0  0  0  0  0  0  0  0  0
   -4.9577   -0.3480    0.4656 H   0  0  0  0  0  0  0  0  0  0  0  0
   -4.2425    1.0504   -0.8332 H   0  0  0  0  0  0  0  0  0  0  0  0
   -3.6861    0.8832    0.9692 H   0  0  0  0  0  0  0  0  0  0  0  0
   -1.3505    0.1565   -0.0440 C   0  0  0  0  0  0  0  0  0  0  0  0
   -2.7955   -1.4426   -0.9989 H   0  0  0  0  0  0  0  0  0  0  0  0
   -2.5595   -1.0437    0.6112 H   0  0  0  0  0  0  0  0  0  0  0  0
   -0.1765   -0.6693    0.1235 C   0  0  0  0  0  0  0  0  0  0  0  0
   -1.4457    0.6965    0.7414 H   0  0  0  0  0  0  0  0  0  0  0  0
   -1.2683    0.9538   -1.0067 H   0  0  0  0  0  0  0  0  0  0  0  0
   -0.0381   -1.4063    1.0613 H   0  0  0  0  0  0  0  0  0  0  0  0
    0.8514   -0.0603    0.1129 H   0  0  0  0  0  0  0  0  0  0  0  0
   -0.1598   -1.2759   -0.6960 H   0  0  0  0  0  0  0  0  0  0  0  0
  1  3  1  0  0  0  0
  1  5  1  0  0  0  0
  2  6  1  0  0  0  0
  2  1  1  0  0  0  0
  2  8  1  0  0  0  0
  4  1  1  0  0  0  0
  6  9  1  0  0  0  0
  6 10  1  0  0  0  0
  7  2  1  0  0  0  0
  9 12  1  0  0  0  0
 11  6  1  0  0  0  0
 13  9  1  0  0  0  0
 14  9  1  0  0  0  0
M  END
$$$$
