butane_opt
 OpenBabel08242015383D

 14 13  0  0  0  0  0  0  0  0999 V2000
   -3.9704    0.3175   -0.1092 C   0  0  0  0  0  0  0  0  0  0  0  0
   -2.6871   -0.6901    0.1566 C   0  0  0  0  0  0  0  0  0  0  0  0
   -4.8788   -0.2900   -0.0948 H   0  0  0  0  0  0  0  0  0  0  0  0
   -3.9818    0.8625   -0.9247 H   0  0  0  0  0  0  0  0  0  0  0  0
   -4.2005    1.0270    0.7321 H   0  0  0  0  0  0  0  0  0  0  0  0
   -1.3441    0.1561    0.1500 C   0  0  0  0  0  0  0  0  0  0  0  0
   -2.5843   -1.3428   -0.7319 H   0  0  0  0  0  0  0  0  0  0  0  0
   -2.6967   -1.2361    0.9861 H   0  0  0  0  0  0  0  0  0  0  0  0
   -0.1866   -0.6641   -0.0698 C   0  0  0  0  0  0  0  0  0  0  0  0
   -1.2396    0.8273    1.0210 H   0  0  0  0  0  0  0  0  0  0  0  0
   -1.4833    0.8164   -0.7010 H   0  0  0  0  0  0  0  0  0  0  0  0
    0.0833   -1.3430    0.8541 H   0  0  0  0  0  0  0  0  0  0  0  0
    0.6789   -0.0461   -0.3741 H   0  0  0  0  0  0  0  0  0  0  0  0
   -0.4574   -1.1892   -0.8287 H   0  0  0  0  0  0  0  0  0  0  0  0
  1  3  1  0  0  0  0
  1  2  1  0  0  0  0
  1  5  1  0  0  0  0
  2  8  1  0  0  0  0
  4  1  1  0  0  0  0
  6  2  1  0  0  0  0
  6 10  1  0  0  0  0
  7  2  1  0  0  0  0
  9  6  1  0  0  0  0
  9 12  1  0  0  0  0
 11  6  1  0  0  0  0
 13  9  1  0  0  0  0
 14  9  1  0  0  0  0
M  END
$$$$
