butane_opt
 OpenBabel08242015383D

 14 13  0  0  0  0  0  0  0  0999 V2000
   -3.9755    0.2727   -0.0670 C   0  0  0  0  0  0  0  0  0  0  0  0
   -2.6765   -0.6424    0.1533 C   0  0  0  0  0  0  0  0  0  0  0  0
   -4.9408   -0.3787    0.0354 H   0  0  0  0  0  0  0  0  0  0  0  0
   -4.1232    1.0413   -1.0579 H   0  0  0  0  0  0  0  0  0  0  0  0
   -3.9555    0.7193    0.6451 H   0  0  0  0  0  0  0  0  0  0  0  0
   -1.3933    0.2242    0.0417 C   0  0  0  0  0  0  0  0  0  0  0  0
   -2.7187   -1.2076   -0.6253 H   0  0  0  0  0  0  0  0  0  0  0  0
   -2.7999   -1.4558    1.2060 H   0  0  0  0  0  0  0  0  0  0  0  0
   -0.1397   -0.7080   -0.0458 C   0  0  0  0  0  0  0  0  0  0  0  0
   -1.1591    1.0486    1.0028 H   0  0  0  0  0  0  0  0  0  0  0  0
   -1.5480    0.7717   -0.6539 H   0  0  0  0  0  0  0  0  0  0  0  0
   -0.2487   -0.9386    0.6333 H   0  0  0  0  0  0  0  0  0  0  0  0
    0.6542   -0.1888    0.3996 H   0  0  0  0  0  0  0  0  0  0  0  0
    0.0655   -1.6819   -1.1924 H   0  0  0  0  0  0  0  0  0  0  0  0
  1  3  1  0  0  0  0
  1  2  1  0  0  0  0
  1  5  1  0  0  0  0
  2  8  1  0  0  0  0
  4  1  1  0  0  0  0
  6  2  1  0  0  0  0
  6 10  1  0  0  0  0
  7  2  1  0  0  0  0
  9  6  1  0  0  0  0
  9 13  1  0  0  0  0
  9 12  1  0  0  0  0
 11  6  1  0  0  0  0
 14  9  1  0  0  0  0
M  END
$$$$
