butane_opt
 OpenBabel08242015383D

 14 13  0  0  0  0  0  0  0  0999 V2000
   -3.9224    0.2536   -0.0074 C   0  0  0  0  0  0  0  0  0  0  0  0
   -2.7069   -0.6025    0.0651 C   0  0  0  0  0  0  0  0  0  0  0  0
   -4.8256   -0.3550   -0.0368 H   0  0  0  0  0  0  0  0  0  0  0  0
   -3.8989    0.8026   -0.8748 H   0  0  0  0  0  0  0  0  0  0  0  0
   -3.9672    0.9792    0.8812 H   0  0  0  0  0  0  0  0  0  0  0  0
   -1.4149    0.2056    0.0326 C   0  0  0  0  0  0  0  0  0  0  0  0
   -2.7000   -1.2734   -0.7859 H   0  0  0  0  0  0  0  0  0  0  0  0
   -2.7511   -1.2610    0.9884 H   0  0  0  0  0  0  0  0  0  0  0  0
   -0.1624   -0.7091    0.0107 C   0  0  0  0  0  0  0  0  0  0  0  0
   -1.3893    0.8785    0.8996 H   0  0  0  0  0  0  0  0  0  0  0  0
   -1.4093    0.8128   -0.8479 H   0  0  0  0  0  0  0  0  0  0  0  0
   -0.1246   -1.3463    0.9238 H   0  0  0  0  0  0  0  0  0  0  0  0
    0.7280   -0.1509   -0.0669 H   0  0  0  0  0  0  0  0  0  0  0  0
   -0.1975   -1.3308   -0.8444 H   0  0  0  0  0  0  0  0  0  0  0  0
  1  2  1  0  0  0  0
  1  5  1  0  0  0  0
  2  8  1  0  0  0  0
  3  1  1  0  0  0  0
  4  1  1  0  0  0  0
  6  2  1  0  0  0  0
  6 10  1  0  0  0  0
  7  2  1  0  0  0  0
  9  6  1  0  0  0  0
  9 12  1  0  0  0  0
 11  6  1  0  0  0  0
 13  9  1  0  0  0  0
 14  9  1  0  0  0  0
M  END
$$$$
