14
butane_opt
C  -3.911113   0.252381   0.066833
C  -2.671980  -0.607228  -0.010837
H  -4.797516  -0.278013   0.109448
H  -3.949719   0.716426  -0.644071
H  -3.923969   1.049873   1.035895
C  -1.425492   0.174477  -0.076333
H  -2.690446  -1.385660  -0.878162
H  -2.801657  -1.133445   0.888366
C  -0.206253  -0.690775   0.099366
H  -1.439952   0.769299   0.766206
H  -1.415744   1.004532  -1.158623
H  -0.194373  -1.279009   0.926739
H   0.746899  -0.063482   0.225240
H  -0.002679  -1.414748  -0.748639
