butane_opt
 OpenBabel08242015383D

 14 11  0  0  0  0  0  0  0  0999 V2000
   -3.9282    0.2864    0.0536 C   0  0  0  0  0  0  0  0  0  0  0  0
   -2.6611   -0.6566    0.0244 C   0  0  0  0  0  0  0  0  0  0  0  0
   -4.7873   -0.3026   -0.3426 H   0  0  0  0  0  0  0  0  0  0  0  0
   -3.9335    0.4103   -0.5253 H   0  0  0  0  0  0  0  0  0  0  0  0
   -4.0639    1.4604    1.2720 H   0  0  0  0  0  0  0  0  0  0  0  0
   -1.4228    0.1893   -0.0777 C   0  0  0  0  0  0  0  0  0  0  0  0
   -2.7787   -1.4442   -0.9285 H   0  0  0  0  0  0  0  0  0  0  0  0
   -2.6840   -1.2314    0.8994 H   0  0  0  0  0  0  0  0  0  0  0  0
   -0.1695   -0.6704    0.0969 C   0  0  0  0  0  0  0  0  0  0  0  0
   -1.4317    0.5821    0.6614 H   0  0  0  0  0  0  0  0  0  0  0  0
   -1.4208    0.9810   -1.0590 H   0  0  0  0  0  0  0  0  0  0  0  0
   -0.2787   -1.4166    1.1599 H   0  0  0  0  0  0  0  0  0  0  0  0
    0.7630   -0.1136   -0.1270 H   0  0  0  0  0  0  0  0  0  0  0  0
   -0.2266   -1.1745   -0.6788 H   0  0  0  0  0  0  0  0  0  0  0  0
  2  1  1  0  0  0  0
  2  8  1  0  0  0  0
  3  1  1  0  0  0  0
  6  2  1  0  0  0  0
  6  9  1  0  0  0  0
  6 10  1  0  0  0  0
  7  2  1  0  0  0  0
  9 12  1  0  0  0  0
 11  6  1  0  0  0  0
 13  9  1  0  0  0  0
 14  9  1  0  0  0  0
M  RAD  3   1   3   4   2   5   2
M  END
$$$$
