butane_opt
 OpenBabel08242015383D

 14 13  0  0  0  0  0  0  0  0999 V2000
   -3.9569    0.2823    0.0266 C   0  0  0  0  0  0  0  0  0  0  0  0
   -2.7044   -0.6375    0.0354 C   0  0  0  0  0  0  0  0  0  0  0  0
   -4.8536   -0.3134    0.0808 H   0  0  0  0  0  0  0  0  0  0  0  0
   -4.0158    0.8803   -0.8226 H   0  0  0  0  0  0  0  0  0  0  0  0
   -3.9710    0.9622    0.9025 H   0  0  0  0  0  0  0  0  0  0  0  0
   -1.3968    0.1817   -0.0140 C   0  0  0  0  0  0  0  0  0  0  0  0
   -2.7010   -1.3525   -0.8250 H   0  0  0  0  0  0  0  0  0  0  0  0
   -2.6976   -1.2475    0.9166 H   0  0  0  0  0  0  0  0  0  0  0  0
   -0.1556   -0.6886    0.0438 C   0  0  0  0  0  0  0  0  0  0  0  0
   -1.3727    0.8074    0.7874 H   0  0  0  0  0  0  0  0  0  0  0  0
   -1.3201    0.8205   -0.9213 H   0  0  0  0  0  0  0  0  0  0  0  0
   -0.1996   -1.2222    0.9014 H   0  0  0  0  0  0  0  0  0  0  0  0
    0.7414   -0.0823    0.1434 H   0  0  0  0  0  0  0  0  0  0  0  0
   -0.0702   -1.3787   -0.8276 H   0  0  0  0  0  0  0  0  0  0  0  0
  1  2  1  0  0  0  0
  1  3  1  0  0  0  0
  1  5  1  0  0  0  0
  2  8  1  0  0  0  0
  4  1  1  0  0  0  0
  6  2  1  0  0  0  0
  6  9  1  0  0  0  0
  6 10  1  0  0  0  0
  7  2  1  0  0  0  0
  9 13  1  0  0  0  0
  9 12  1  0  0  0  0
 11  6  1  0  0  0  0
 14  9  1  0  0  0  0
M  END
$$$$
