butane_opt
 OpenBabel08242015383D

 14 13  0  0  0  0  0  0  0  0999 V2000
   -3.9111    0.2524    0.0668 C   0  0  0  0  0  0  0  0  0  0  0  0
   -2.6720   -0.6072   -0.0108 C   0  0  0  0  0  0  0  0  0  0  0  0
   -4.7975   -0.2780    0.1094 H   0  0  0  0  0  0  0  0  0  0  0  0
   -3.9497    0.7164   -0.6441 H   0  0  0  0  0  0  0  0  0  0  0  0
   -3.9240    1.0499    1.0359 H   0  0  0  0  0  0  0  0  0  0  0  0
   -1.4255    0.1745   -0.0763 C   0  0  0  0  0  0  0  0  0  0  0  0
   -2.6904   -1.3857   -0.8782 H   0  0  0  0  0  0  0  0  0  0  0  0
   -2.8017   -1.1334    0.8884 H   0  0  0  0  0  0  0  0  0  0  0  0
   -0.2063   -0.6908    0.0994 C   0  0  0  0  0  0  0  0  0  0  0  0
   -1.4400    0.7693    0.7662 H   0  0  0  0  0  0  0  0  0  0  0  0
   -1.4157    1.0045   -1.1586 H   0  0  0  0  0  0  0  0  0  0  0  0
   -0.1944   -1.2790    0.9267 H   0  0  0  0  0  0  0  0  0  0  0  0
    0.7469   -0.0635    0.2252 H   0  0  0  0  0  0  0  0  0  0  0  0
   -0.0027   -1.4147   -0.7486 H   0  0  0  0  0  0  0  0  0  0  0  0
  1  3  1  0  0  0  0
  1  5  1  0  0  0  0
  2  1  1  0  0  0  0
  2  8  1  0  0  0  0
  4  1  1  0  0  0  0
  6  2  1  0  0  0  0
  6  9  1  0  0  0  0
  6 10  1  0  0  0  0
  7  2  1  0  0  0  0
  9 13  1  0  0  0  0
  9 12  1  0  0  0  0
 11  6  1  0  0  0  0
 14  9  1  0  0  0  0
M  END
$$$$
