14
butane_opt
C  -3.943166   0.246324  -0.069511
C  -2.760560  -0.576515   0.145127
H  -5.008357  -0.479770  -0.132866
H  -3.802697   0.877664  -0.951048
H  -4.009736   0.809683   0.710400
C  -1.392162   0.245232   0.077247
H  -2.643267  -1.064658  -0.546903
H  -2.814193  -1.393606   1.272059
C  -0.122385  -0.745222  -0.060457
H  -1.389553   0.925634   0.958251
H  -1.371811   0.707199  -0.697386
H  -0.111071  -1.025940   0.625382
H   0.699185  -0.261511   0.117026
H   0.076217  -1.639940  -1.083303
