butane_opt
 OpenBabel08242015383D

 14 13  0  0  0  0  0  0  0  0999 V2000
   -3.9380    0.3021   -0.0880 C   0  0  0  0  0  0  0  0  0  0  0  0
   -2.6827   -0.6577    0.1850 C   0  0  0  0  0  0  0  0  0  0  0  0
   -4.8177   -0.1533   -0.3906 H   0  0  0  0  0  0  0  0  0  0  0  0
   -3.8242    0.7885   -0.9216 H   0  0  0  0  0  0  0  0  0  0  0  0
   -4.0485    1.0684    0.8564 H   0  0  0  0  0  0  0  0  0  0  0  0
   -1.3722    0.1199    0.0701 C   0  0  0  0  0  0  0  0  0  0  0  0
   -2.6189   -1.0610   -0.4338 H   0  0  0  0  0  0  0  0  0  0  0  0
   -2.7402   -1.4562    1.1153 H   0  0  0  0  0  0  0  0  0  0  0  0
   -0.2033   -0.6654   -0.0675 C   0  0  0  0  0  0  0  0  0  0  0  0
   -1.5133    0.9523    1.0521 H   0  0  0  0  0  0  0  0  0  0  0  0
   -1.4072    0.6825   -0.7584 H   0  0  0  0  0  0  0  0  0  0  0  0
   -0.1911   -1.0265    0.7215 H   0  0  0  0  0  0  0  0  0  0  0  0
    0.8396    0.0416   -0.0176 H   0  0  0  0  0  0  0  0  0  0  0  0
   -0.3834   -1.4827   -1.0142 H   0  0  0  0  0  0  0  0  0  0  0  0
  1  2  1  0  0  0  0
  1  5  1  0  0  0  0
  2  8  1  0  0  0  0
  3  1  1  0  0  0  0
  4  1  1  0  0  0  0
  6  2  1  0  0  0  0
  6 10  1  0  0  0  0
  7  2  1  0  0  0  0
  9 13  1  0  0  0  0
  9  6  1  0  0  0  0
  9 12  1  0  0  0  0
 11  6  1  0  0  0  0
 14  9  1  0  0  0  0
M  END
$$$$
