butane_opt
 OpenBabel08242015383D

 14 13  0  0  0  0  0  0  0  0999 V2000
   -3.9316    0.2758    0.0011 C   0  0  0  0  0  0  0  0  0  0  0  0
   -2.6987   -0.6190    0.0603 C   0  0  0  0  0  0  0  0  0  0  0  0
   -4.8348   -0.3104    0.0549 H   0  0  0  0  0  0  0  0  0  0  0  0
   -4.0258    0.8898   -0.8850 H   0  0  0  0  0  0  0  0  0  0  0  0
   -3.9194    0.9154    0.8521 H   0  0  0  0  0  0  0  0  0  0  0  0
   -1.4055    0.1723    0.0085 C   0  0  0  0  0  0  0  0  0  0  0  0
   -2.7323   -1.2646   -0.7623 H   0  0  0  0  0  0  0  0  0  0  0  0
   -2.7327   -1.2962    0.9887 H   0  0  0  0  0  0  0  0  0  0  0  0
   -0.1671   -0.6867    0.0227 C   0  0  0  0  0  0  0  0  0  0  0  0
   -1.3893    0.8326    0.8532 H   0  0  0  0  0  0  0  0  0  0  0  0
   -1.4022    0.7700   -0.8757 H   0  0  0  0  0  0  0  0  0  0  0  0
   -0.2139   -1.1810    0.8394 H   0  0  0  0  0  0  0  0  0  0  0  0
    0.7727   -0.0888    0.1636 H   0  0  0  0  0  0  0  0  0  0  0  0
   -0.1169   -1.4413   -0.9153 H   0  0  0  0  0  0  0  0  0  0  0  0
  1  3  1  0  0  0  0
  1  2  1  0  0  0  0
  1  5  1  0  0  0  0
  2  8  1  0  0  0  0
  4  1  1  0  0  0  0
  6  9  1  0  0  0  0
  6  2  1  0  0  0  0
  6 10  1  0  0  0  0
  7  2  1  0  0  0  0
  9 13  1  0  0  0  0
  9 12  1  0  0  0  0
 11  6  1  0  0  0  0
 14  9  1  0  0  0  0
M  END
$$$$
