butane_opt
 OpenBabel08242015383D

 14 13  0  0  0  0  0  0  0  0999 V2000
   -3.9457    0.2650    0.0317 C   0  0  0  0  0  0  0  0  0  0  0  0
   -2.6936   -0.6224    0.0255 C   0  0  0  0  0  0  0  0  0  0  0  0
   -4.7826   -0.2700    0.0903 H   0  0  0  0  0  0  0  0  0  0  0  0
   -4.0449    0.9294   -0.8767 H   0  0  0  0  0  0  0  0  0  0  0  0
   -3.9033    0.9295    0.8804 H   0  0  0  0  0  0  0  0  0  0  0  0
   -1.4035    0.1709   -0.0064 C   0  0  0  0  0  0  0  0  0  0  0  0
   -2.7157   -1.3280   -0.8259 H   0  0  0  0  0  0  0  0  0  0  0  0
   -2.7113   -1.2251    0.8973 H   0  0  0  0  0  0  0  0  0  0  0  0
   -0.1704   -0.6901    0.0523 C   0  0  0  0  0  0  0  0  0  0  0  0
   -1.3678    0.8367    0.8298 H   0  0  0  0  0  0  0  0  0  0  0  0
   -1.3619    0.8658   -0.9465 H   0  0  0  0  0  0  0  0  0  0  0  0
   -0.1946   -1.2292    0.8983 H   0  0  0  0  0  0  0  0  0  0  0  0
    0.7482   -0.0681    0.1008 H   0  0  0  0  0  0  0  0  0  0  0  0
   -0.1379   -1.3895   -0.8537 H   0  0  0  0  0  0  0  0  0  0  0  0
  1  3  1  0  0  0  0
  1  5  1  0  0  0  0
  2  1  1  0  0  0  0
  2  8  1  0  0  0  0
  4  1  1  0  0  0  0
  6  2  1  0  0  0  0
  6  9  1  0  0  0  0
  6 10  1  0  0  0  0
  7  2  1  0  0  0  0
  9 13  1  0  0  0  0
  9 12  1  0  0  0  0
 11  6  1  0  0  0  0
 14  9  1  0  0  0  0
M  END
$$$$
