butane_opt
 OpenBabel08242015383D

 14 13  0  0  0  0  0  0  0  0999 V2000
   -3.9254    0.2794   -0.0497 C   0  0  0  0  0  0  0  0  0  0  0  0
   -2.6695   -0.6233    0.1181 C   0  0  0  0  0  0  0  0  0  0  0  0
   -4.7865   -0.2756   -0.2083 H   0  0  0  0  0  0  0  0  0  0  0  0
   -3.8459    0.8899   -0.9977 H   0  0  0  0  0  0  0  0  0  0  0  0
   -4.0882    0.8961    0.6928 H   0  0  0  0  0  0  0  0  0  0  0  0
   -1.4365    0.1294    0.1169 C   0  0  0  0  0  0  0  0  0  0  0  0
   -2.7765   -1.3588   -0.7567 H   0  0  0  0  0  0  0  0  0  0  0  0
   -2.6122   -1.1206    0.9521 H   0  0  0  0  0  0  0  0  0  0  0  0
   -0.1896   -0.6808   -0.0335 C   0  0  0  0  0  0  0  0  0  0  0  0
   -1.3551    0.8924    1.0524 H   0  0  0  0  0  0  0  0  0  0  0  0
   -1.5051    0.7417   -0.8020 H   0  0  0  0  0  0  0  0  0  0  0  0
    0.1201   -1.3204    0.9391 H   0  0  0  0  0  0  0  0  0  0  0  0
    0.8283    0.0524   -0.4300 H   0  0  0  0  0  0  0  0  0  0  0  0
   -0.3866   -1.1046   -0.8286 H   0  0  0  0  0  0  0  0  0  0  0  0
  1  2  1  0  0  0  0
  1  5  1  0  0  0  0
  2  8  1  0  0  0  0
  3  1  1  0  0  0  0
  4  1  1  0  0  0  0
  6  2  1  0  0  0  0
  6 10  1  0  0  0  0
  7  2  1  0  0  0  0
  9  6  1  0  0  0  0
  9 12  1  0  0  0  0
 11  6  1  0  0  0  0
 13  9  1  0  0  0  0
 14  9  1  0  0  0  0
M  END
$$$$
