14
butane_opt
C  -3.900857   0.256458  -0.008591
C  -2.698732  -0.598280   0.098779
H  -4.816047  -0.451202  -0.084931
H  -3.819430   0.768303  -0.890252
H  -3.909156   0.882600   0.811602
C  -1.427340   0.198930   0.007124
H  -2.697851  -1.132554  -0.704707
H  -2.760467  -1.221272   1.036922
C  -0.180067  -0.726729   0.019748
H  -1.565241   0.868839   0.857053
H  -1.493180   0.921306  -0.920277
H  -0.043753  -1.029658   0.681335
H   0.768101  -0.093656   0.209642
H  -0.205670  -1.564545  -0.978244
