butane_opt
 OpenBabel08242015383D

 14 13  0  0  0  0  0  0  0  0999 V2000
   -3.9827    0.2620    0.1180 C   0  0  0  0  0  0  0  0  0  0  0  0
   -2.7172   -0.6373   -0.0737 C   0  0  0  0  0  0  0  0  0  0  0  0
   -4.8235   -0.2356    0.3010 H   0  0  0  0  0  0  0  0  0  0  0  0
   -4.1534    0.8082   -0.7958 H   0  0  0  0  0  0  0  0  0  0  0  0
   -3.9103    1.1972    1.1865 H   0  0  0  0  0  0  0  0  0  0  0  0
   -1.3880    0.1605   -0.1403 C   0  0  0  0  0  0  0  0  0  0  0  0
   -2.8458   -1.2592   -0.9474 H   0  0  0  0  0  0  0  0  0  0  0  0
   -2.4758   -1.2390    0.8061 H   0  0  0  0  0  0  0  0  0  0  0  0
   -0.1233   -0.6870    0.1611 C   0  0  0  0  0  0  0  0  0  0  0  0
   -1.5543    0.7863    0.6306 H   0  0  0  0  0  0  0  0  0  0  0  0
   -1.2664    0.8265   -1.1284 H   0  0  0  0  0  0  0  0  0  0  0  0
   -0.3223   -1.1664    1.0021 H   0  0  0  0  0  0  0  0  0  0  0  0
    0.8365    0.0429    0.3351 H   0  0  0  0  0  0  0  0  0  0  0  0
    0.0247   -1.4029   -0.7286 H   0  0  0  0  0  0  0  0  0  0  0  0
  1  3  1  0  0  0  0
  1  5  1  0  0  0  0
  2  1  1  0  0  0  0
  2  8  1  0  0  0  0
  4  1  1  0  0  0  0
  6  2  1  0  0  0  0
  6  9  1  0  0  0  0
  6 10  1  0  0  0  0
  7  2  1  0  0  0  0
  9 13  1  0  0  0  0
  9 12  1  0  0  0  0
 11  6  1  0  0  0  0
 14  9  1  0  0  0  0
M  END
$$$$
