14
butane_opt
C  -3.939348   0.244470   0.086558
C  -2.702445  -0.621775  -0.022264
H  -4.838726  -0.348571  -0.362489
H  -3.975659   0.524917  -0.615728
H  -4.295474   1.374394   1.322094
C  -1.397653   0.211479  -0.073007
H  -2.734667  -1.275697  -0.841938
H  -2.779757  -1.345212   0.954799
C  -0.136396  -0.699522   0.103445
H  -1.533917   0.855853   0.738387
H  -1.364343   0.932775  -1.116978
H  -0.054646  -1.482016   1.092916
H   0.734064  -0.156164  -0.175674
H  -0.046474  -1.171639  -0.635296
