butane_opt
 OpenBabel08242015383D

 14 12  0  0  0  0  0  0  0  0999 V2000
   -3.9330    0.2888   -0.0122 C   0  0  0  0  0  0  0  0  0  0  0  0
   -2.7018   -0.6590    0.1287 C   0  0  0  0  0  0  0  0  0  0  0  0
   -4.6911   -0.0576    0.0634 H   0  0  0  0  0  0  0  0  0  0  0  0
   -3.7631    1.0475   -1.0766 H   0  0  0  0  0  0  0  0  0  0  0  0
   -4.1697    0.8401    0.6977 H   0  0  0  0  0  0  0  0  0  0  0  0
   -1.4150    0.1502    0.0239 C   0  0  0  0  0  0  0  0  0  0  0  0
   -2.6685   -1.2768   -0.7009 H   0  0  0  0  0  0  0  0  0  0  0  0
   -2.7999   -1.3855    1.0564 H   0  0  0  0  0  0  0  0  0  0  0  0
   -0.1825   -0.6600   -0.0165 C   0  0  0  0  0  0  0  0  0  0  0  0
   -1.2477    0.7588    0.9286 H   0  0  0  0  0  0  0  0  0  0  0  0
   -1.3504    0.7988   -0.9124 H   0  0  0  0  0  0  0  0  0  0  0  0
   -0.3383   -0.8784    0.6234 H   0  0  0  0  0  0  0  0  0  0  0  0
    0.7806    0.0072    0.4227 H   0  0  0  0  0  0  0  0  0  0  0  0
   -0.0341   -1.7391   -1.1837 H   0  0  0  0  0  0  0  0  0  0  0  0
  1  3  1  0  0  0  0
  1  2  1  0  0  0  0
  1  5  1  0  0  0  0
  2  8  1  0  0  0  0
  4  1  1  0  0  0  0
  6  2  1  0  0  0  0
  6 10  1  0  0  0  0
  7  2  1  0  0  0  0
  9  6  1  0  0  0  0
  9 13  1  0  0  0  0
  9 12  1  0  0  0  0
 11  6  1  0  0  0  0
M  RAD  2   9   2  14   2
M  END
$$$$
