14
butane_opt
C  -3.948275   0.240303   0.083993
C  -2.721171  -0.614751  -0.060735
H  -4.893002  -0.354526   0.240662
H  -3.903046   0.915729  -0.865045
H  -4.016499   0.746619   0.915213
C  -1.423982   0.252814  -0.008796
H  -2.824746  -1.359603  -1.029930
H  -2.834527  -1.070458   0.749937
C  -0.102068  -0.738269   0.085209
H  -1.565474   0.913059   0.868129
H  -1.428525   0.878080  -0.873066
H   0.108853  -1.529203   1.063055
H   0.789613  -0.208740  -0.244591
H  -0.106463  -1.075355  -0.551429
