butane_opt
 OpenBabel08242015383D

 14 13  0  0  0  0  0  0  0  0999 V2000
   -3.9560    0.2492    0.0791 C   0  0  0  0  0  0  0  0  0  0  0  0
   -2.7374   -0.5792   -0.0178 C   0  0  0  0  0  0  0  0  0  0  0  0
   -5.0516   -0.4742    0.0685 H   0  0  0  0  0  0  0  0  0  0  0  0
   -3.9642    0.9439   -0.8328 H   0  0  0  0  0  0  0  0  0  0  0  0
   -3.7683    0.8411    0.8744 H   0  0  0  0  0  0  0  0  0  0  0  0
   -1.4013    0.2394   -0.0193 C   0  0  0  0  0  0  0  0  0  0  0  0
   -2.8726   -1.4514   -0.9966 H   0  0  0  0  0  0  0  0  0  0  0  0
   -2.7509   -1.0653    0.7278 H   0  0  0  0  0  0  0  0  0  0  0  0
   -0.1198   -0.7329    0.0652 C   0  0  0  0  0  0  0  0  0  0  0  0
   -1.4166    0.7368    0.7574 H   0  0  0  0  0  0  0  0  0  0  0  0
   -1.3538    0.8703   -0.8785 H   0  0  0  0  0  0  0  0  0  0  0  0
   -0.0363   -1.5397    1.0929 H   0  0  0  0  0  0  0  0  0  0  0  0
    0.7540   -0.1634   -0.0284 H   0  0  0  0  0  0  0  0  0  0  0  0
    0.0129   -1.2883   -0.6346 H   0  0  0  0  0  0  0  0  0  0  0  0
  1  5  1  0  0  0  0
  2  1  1  0  0  0  0
  2  8  1  0  0  0  0
  3  1  1  0  0  0  0
  4  1  1  0  0  0  0
  6  2  1  0  0  0  0
  6  9  1  0  0  0  0
  6 10  1  0  0  0  0
  7  2  1  0  0  0  0
  9 12  1  0  0  0  0
 11  6  1  0  0  0  0
 13  9  1  0  0  0  0
 14  9  1  0  0  0  0
M  END
$$$$
