butane_opt
 OpenBabel08242015383D

 14 13  0  0  0  0  0  0  0  0999 V2000
   -3.9131    0.2758    0.0727 C   0  0  0  0  0  0  0  0  0  0  0  0
   -2.6710   -0.6476   -0.0384 C   0  0  0  0  0  0  0  0  0  0  0  0
   -4.8291   -0.3149    0.4937 H   0  0  0  0  0  0  0  0  0  0  0  0
   -4.2886    1.2081   -0.9972 H   0  0  0  0  0  0  0  0  0  0  0  0
   -3.8439    0.7093    0.7728 H   0  0  0  0  0  0  0  0  0  0  0  0
   -1.4177    0.1877   -0.0298 C   0  0  0  0  0  0  0  0  0  0  0  0
   -2.7023   -1.5275   -1.0964 H   0  0  0  0  0  0  0  0  0  0  0  0
   -2.5959   -1.1242    0.7651 H   0  0  0  0  0  0  0  0  0  0  0  0
   -0.1884   -0.6823    0.0999 C   0  0  0  0  0  0  0  0  0  0  0  0
   -1.3290    0.7798    0.8058 H   0  0  0  0  0  0  0  0  0  0  0  0
   -1.4709    0.8661   -0.8881 H   0  0  0  0  0  0  0  0  0  0  0  0
   -0.3589   -1.1775    0.9871 H   0  0  0  0  0  0  0  0  0  0  0  0
    0.8419   -0.0541    0.0623 H   0  0  0  0  0  0  0  0  0  0  0  0
   -0.1405   -1.4269   -0.7553 H   0  0  0  0  0  0  0  0  0  0  0  0
  1  3  1  0  0  0  0
  1  5  1  0  0  0  0
  2  6  1  0  0  0  0
  2  1  1  0  0  0  0
  2  8  1  0  0  0  0
  4  1  1  0  0  0  0
  6  9  1  0  0  0  0
  6 10  1  0  0  0  0
  7  2  1  0  0  0  0
  9 12  1  0  0  0  0
 11  6  1  0  0  0  0
 13  9  1  0  0  0  0
 14  9  1  0  0  0  0
M  END
$$$$
