butane_opt
 OpenBabel08242015383D

 14 13  0  0  0  0  0  0  0  0999 V2000
   -3.9381    0.3136    0.0617 C   0  0  0  0  0  0  0  0  0  0  0  0
   -2.6872   -0.6288    0.0180 C   0  0  0  0  0  0  0  0  0  0  0  0
   -4.9355   -0.3624   -0.0050 H   0  0  0  0  0  0  0  0  0  0  0  0
   -3.9594    0.6432   -0.6883 H   0  0  0  0  0  0  0  0  0  0  0  0
   -3.9359    0.9666    0.8952 H   0  0  0  0  0  0  0  0  0  0  0  0
   -1.4044    0.1372   -0.0599 C   0  0  0  0  0  0  0  0  0  0  0  0
   -2.6757   -1.3443   -0.8500 H   0  0  0  0  0  0  0  0  0  0  0  0
   -2.5334   -1.2458    0.8515 H   0  0  0  0  0  0  0  0  0  0  0  0
   -0.1773   -0.6654    0.0748 C   0  0  0  0  0  0  0  0  0  0  0  0
   -1.5551    0.7165    0.7345 H   0  0  0  0  0  0  0  0  0  0  0  0
   -1.2950    0.8765   -0.9760 H   0  0  0  0  0  0  0  0  0  0  0  0
   -0.2279   -1.2596    0.9679 H   0  0  0  0  0  0  0  0  0  0  0  0
    0.7360    0.0026    0.2297 H   0  0  0  0  0  0  0  0  0  0  0  0
   -0.1757   -1.3563   -0.8482 H   0  0  0  0  0  0  0  0  0  0  0  0
  1  5  1  0  0  0  0
  2  1  1  0  0  0  0
  2  8  1  0  0  0  0
  3  1  1  0  0  0  0
  4  1  1  0  0  0  0
  6  2  1  0  0  0  0
  6  9  1  0  0  0  0
  6 10  1  0  0  0  0
  7  2  1  0  0  0  0
  9 13  1  0  0  0  0
  9 12  1  0  0  0  0
 11  6  1  0  0  0  0
 14  9  1  0  0  0  0
M  END
$$$$
