14
butane_opt
C  -3.953440   0.297789  -0.010050
C  -2.651279  -0.650818   0.062863
H  -4.935448  -0.253569   0.356044
H  -4.041394   1.295414  -1.247970
H  -3.903596   0.593305   0.571945
C  -1.415403   0.121738   0.066902
H  -2.708851  -1.371891  -0.832296
H  -2.515458  -1.253048   0.881690
C  -0.180507  -0.654832   0.007042
H  -1.257899   0.987056   1.076655
H  -1.376303   0.759468  -0.737952
H  -0.341780  -1.118895   0.796930
H   0.790642   0.006003  -0.016032
H  -0.319936  -1.485182  -1.000917
