butane_opt
 OpenBabel08242015383D

 14 13  0  0  0  0  0  0  0  0999 V2000
   -3.8874    0.2515    0.0715 C   0  0  0  0  0  0  0  0  0  0  0  0
   -2.7204   -0.5807   -0.0223 C   0  0  0  0  0  0  0  0  0  0  0  0
   -4.9063   -0.4004   -0.1648 H   0  0  0  0  0  0  0  0  0  0  0  0
   -3.7270    0.8007   -0.8282 H   0  0  0  0  0  0  0  0  0  0  0  0
   -3.9726    1.0167    1.0696 H   0  0  0  0  0  0  0  0  0  0  0  0
   -1.4524    0.1812    0.0163 C   0  0  0  0  0  0  0  0  0  0  0  0
   -2.6984   -1.3397   -0.9163 H   0  0  0  0  0  0  0  0  0  0  0  0
   -2.7823   -1.0564    0.7612 H   0  0  0  0  0  0  0  0  0  0  0  0
   -0.1372   -0.7242    0.0642 C   0  0  0  0  0  0  0  0  0  0  0  0
   -1.4545    0.8123    0.7314 H   0  0  0  0  0  0  0  0  0  0  0  0
   -1.3022    0.8468   -0.9269 H   0  0  0  0  0  0  0  0  0  0  0  0
    0.0103   -1.6324    1.1706 H   0  0  0  0  0  0  0  0  0  0  0  0
    0.7507   -0.0661   -0.3379 H   0  0  0  0  0  0  0  0  0  0  0  0
   -0.5457   -1.0005   -0.6123 H   0  0  0  0  0  0  0  0  0  0  0  0
  1  5  1  0  0  0  0
  2  6  1  0  0  0  0
  2  1  1  0  0  0  0
  2  8  1  0  0  0  0
  3  1  1  0  0  0  0
  4  1  1  0  0  0  0
  6  9  1  0  0  0  0
  6 10  1  0  0  0  0
  7  2  1  0  0  0  0
  9 12  1  0  0  0  0
 11  6  1  0  0  0  0
 13  9  1  0  0  0  0
 14  9  1  0  0  0  0
M  END
$$$$
