14
butane_opt
C  -3.984715   0.312341   0.078852
C  -2.717555  -0.671240  -0.073761
H  -4.957654  -0.347988   0.465577
H  -4.242465   1.050442  -0.833204
H  -3.686112   0.883192   0.969213
C  -1.350515   0.156514  -0.044050
H  -2.795543  -1.442572  -0.998863
H  -2.559528  -1.043712   0.611198
C  -0.176496  -0.669342   0.123474
H  -1.445657   0.696463   0.741403
H  -1.268270   0.953843  -1.006713
H  -0.038145  -1.406300   1.061265
H   0.851367  -0.060259   0.112896
H  -0.159847  -1.275893  -0.695973
