butane_opt
 OpenBabel08242015383D

 14 13  0  0  0  0  0  0  0  0999 V2000
   -3.8987    0.2429   -0.0236 C   0  0  0  0  0  0  0  0  0  0  0  0
   -2.7012   -0.5630    0.0459 C   0  0  0  0  0  0  0  0  0  0  0  0
   -4.8426   -0.4266    0.4576 H   0  0  0  0  0  0  0  0  0  0  0  0
   -3.9501    1.0325   -1.0944 H   0  0  0  0  0  0  0  0  0  0  0  0
   -3.7378    0.5438    0.6547 H   0  0  0  0  0  0  0  0  0  0  0  0
   -1.4374    0.2308    0.0505 C   0  0  0  0  0  0  0  0  0  0  0  0
   -2.7234   -1.2476   -0.7532 H   0  0  0  0  0  0  0  0  0  0  0  0
   -2.6574   -1.3335    0.9470 H   0  0  0  0  0  0  0  0  0  0  0  0
   -0.1858   -0.7272    0.0242 C   0  0  0  0  0  0  0  0  0  0  0  0
   -1.3598    0.9811    1.0110 H   0  0  0  0  0  0  0  0  0  0  0  0
   -1.2853    0.8166   -0.7841 H   0  0  0  0  0  0  0  0  0  0  0  0
   -0.1586   -1.1683    0.7621 H   0  0  0  0  0  0  0  0  0  0  0  0
    0.6182   -0.2465    0.0992 H   0  0  0  0  0  0  0  0  0  0  0  0
   -0.2259   -1.6335   -1.0767 H   0  0  0  0  0  0  0  0  0  0  0  0
  1  2  1  0  0  0  0
  1  3  1  0  0  0  0
  1  5  1  0  0  0  0
  2  6  1  0  0  0  0
  2  8  1  0  0  0  0
  4  1  1  0  0  0  0
  6 10  1  0  0  0  0
  7  2  1  0  0  0  0
  9  6  1  0  0  0  0
  9 13  1  0  0  0  0
  9 12  1  0  0  0  0
 11  6  1  0  0  0  0
 14  9  1  0  0  0  0
M  END
$$$$
