butane_opt
 OpenBabel08242015383D

 14 13  0  0  0  0  0  0  0  0999 V2000
   -3.9483    0.2403    0.0840 C   0  0  0  0  0  0  0  0  0  0  0  0
   -2.7212   -0.6148   -0.0607 C   0  0  0  0  0  0  0  0  0  0  0  0
   -4.8930   -0.3545    0.2407 H   0  0  0  0  0  0  0  0  0  0  0  0
   -3.9030    0.9157   -0.8650 H   0  0  0  0  0  0  0  0  0  0  0  0
   -4.0165    0.7466    0.9152 H   0  0  0  0  0  0  0  0  0  0  0  0
   -1.4240    0.2528   -0.0088 C   0  0  0  0  0  0  0  0  0  0  0  0
   -2.8247   -1.3596   -1.0299 H   0  0  0  0  0  0  0  0  0  0  0  0
   -2.8345   -1.0705    0.7499 H   0  0  0  0  0  0  0  0  0  0  0  0
   -0.1021   -0.7383    0.0852 C   0  0  0  0  0  0  0  0  0  0  0  0
   -1.5655    0.9131    0.8681 H   0  0  0  0  0  0  0  0  0  0  0  0
   -1.4285    0.8781   -0.8731 H   0  0  0  0  0  0  0  0  0  0  0  0
    0.1089   -1.5292    1.0631 H   0  0  0  0  0  0  0  0  0  0  0  0
    0.7896   -0.2087   -0.2446 H   0  0  0  0  0  0  0  0  0  0  0  0
   -0.1065   -1.0754   -0.5514 H   0  0  0  0  0  0  0  0  0  0  0  0
  1  3  1  0  0  0  0
  1  5  1  0  0  0  0
  2  6  1  0  0  0  0
  2  1  1  0  0  0  0
  2  8  1  0  0  0  0
  4  1  1  0  0  0  0
  6  9  1  0  0  0  0
  6 10  1  0  0  0  0
  7  2  1  0  0  0  0
  9 12  1  0  0  0  0
 11  6  1  0  0  0  0
 13  9  1  0  0  0  0
 14  9  1  0  0  0  0
M  END
$$$$
