butane_opt
 OpenBabel08242015383D

 14 13  0  0  0  0  0  0  0  0999 V2000
   -4.0045    0.2636    0.1101 C   0  0  0  0  0  0  0  0  0  0  0  0
   -2.7007   -0.5943   -0.0308 C   0  0  0  0  0  0  0  0  0  0  0  0
   -4.8306   -0.2588   -0.0828 H   0  0  0  0  0  0  0  0  0  0  0  0
   -3.9097    0.6143   -0.7409 H   0  0  0  0  0  0  0  0  0  0  0  0
   -4.0382    1.1241    1.0985 H   0  0  0  0  0  0  0  0  0  0  0  0
   -1.3986    0.1810   -0.0761 C   0  0  0  0  0  0  0  0  0  0  0  0
   -2.8015   -1.5846   -1.1086 H   0  0  0  0  0  0  0  0  0  0  0  0
   -2.6005   -1.0870    0.7281 H   0  0  0  0  0  0  0  0  0  0  0  0
   -0.1293   -0.6915    0.1286 C   0  0  0  0  0  0  0  0  0  0  0  0
   -1.4481    0.7098    0.7388 H   0  0  0  0  0  0  0  0  0  0  0  0
   -1.1555    0.8243   -1.0579 H   0  0  0  0  0  0  0  0  0  0  0  0
   -0.0636   -1.5357    1.1760 H   0  0  0  0  0  0  0  0  0  0  0  0
    0.7425   -0.1164   -0.3199 H   0  0  0  0  0  0  0  0  0  0  0  0
   -0.1300   -1.0333   -0.5359 H   0  0  0  0  0  0  0  0  0  0  0  0
  1  5  1  0  0  0  0
  2  1  1  0  0  0  0
  2  8  1  0  0  0  0
  3  1  1  0  0  0  0
  4  1  1  0  0  0  0
  6  2  1  0  0  0  0
  6  9  1  0  0  0  0
  6 10  1  0  0  0  0
  7  2  1  0  0  0  0
  9 12  1  0  0  0  0
 11  6  1  0  0  0  0
 13  9  1  0  0  0  0
 14  9  1  0  0  0  0
M  END
$$$$
