14
butane_opt
C  -3.902037   0.231466  -0.075498
C  -2.704930  -0.569539   0.212019
H  -4.863076  -0.492412  -0.364391
H  -3.589215   0.737974  -0.963235
H  -4.265561   0.902685   0.736013
C  -1.428598   0.247827   0.074317
H  -2.577133  -1.299966  -0.641801
H  -2.829291  -1.253401   1.121750
C  -0.168354  -0.730665  -0.056375
H  -1.347847   0.975256   1.035125
H  -1.537972   0.888208  -0.808049
H  -0.048955  -1.309147   0.683326
H   0.699063  -0.148693  -0.067837
H  -0.195540  -1.644250  -1.140562
