14
butane_opt
C  -3.905578   0.219803   0.095143
C  -2.704481  -0.562478   0.026939
H  -4.881604  -0.398125  -0.514340
H  -3.588502   0.527325  -0.630271
H  -3.995261   1.261716   1.133873
C  -1.471942   0.205054  -0.096061
H  -2.771789  -1.261608  -0.761407
H  -2.696189  -1.157935   0.906620
C  -0.137990  -0.736116   0.080137
H  -1.467787   0.900536   0.774272
H  -1.419442   0.909557  -1.078862
H  -0.244729  -1.497853   1.017184
H   0.808192  -0.043119   0.049097
H  -0.124955  -1.245831  -0.686813
