14
butane_opt
C  -3.925633   0.249471   0.025861
C  -2.730950  -0.592140  -0.015203
H  -5.015536  -0.571345   0.033804
H  -3.904467   0.674195  -0.709578
H  -3.862138   1.198450   1.049948
C  -1.430576   0.233604  -0.004172
H  -2.635259  -1.227867  -0.816144
H  -2.825616  -1.168453   0.922501
C  -0.130624  -0.740557   0.058009
H  -1.353183   0.865560   0.880188
H  -1.264275   0.779487  -0.851797
H   0.003466  -1.582383   1.151512
H   0.662697  -0.168088  -0.332401
H  -0.179587  -1.110175  -0.610021
