butane_opt
 OpenBabel08242015383D

 14 12  0  0  0  0  0  0  0  0999 V2000
   -3.9651    0.2268   -0.0293 C   0  0  0  0  0  0  0  0  0  0  0  0
   -2.7517   -0.5556    0.0989 C   0  0  0  0  0  0  0  0  0  0  0  0
   -4.9001   -0.3808    0.1942 H   0  0  0  0  0  0  0  0  0  0  0  0
   -3.9005    0.9397   -0.9492 H   0  0  0  0  0  0  0  0  0  0  0  0
   -3.8140    0.8549    0.7809 H   0  0  0  0  0  0  0  0  0  0  0  0
   -1.3897    0.2193   -0.0072 C   0  0  0  0  0  0  0  0  0  0  0  0
   -2.7635   -1.1991   -0.7085 H   0  0  0  0  0  0  0  0  0  0  0  0
   -2.7568   -1.4076    1.1492 H   0  0  0  0  0  0  0  0  0  0  0  0
   -0.1242   -0.7269    0.0136 C   0  0  0  0  0  0  0  0  0  0  0  0
   -1.2842    0.9108    0.9255 H   0  0  0  0  0  0  0  0  0  0  0  0
   -1.5218    0.8001   -0.8612 H   0  0  0  0  0  0  0  0  0  0  0  0
   -0.2409   -0.9637    0.6233 H   0  0  0  0  0  0  0  0  0  0  0  0
    0.6941   -0.2483    0.4236 H   0  0  0  0  0  0  0  0  0  0  0  0
    0.2330   -1.7495   -1.0942 H   0  0  0  0  0  0  0  0  0  0  0  0
  1  2  1  0  0  0  0
  1  3  1  0  0  0  0
  1  5  1  0  0  0  0
  2  8  1  0  0  0  0
  4  1  1  0  0  0  0
  6  9  1  0  0  0  0
  6  2  1  0  0  0  0
  6 10  1  0  0  0  0
  7  2  1  0  0  0  0
  9 13  1  0  0  0  0
  9 12  1  0  0  0  0
 11  6  1  0  0  0  0
M  RAD  2   9   2  14   2
M  END
$$$$
