butane_opt
 OpenBabel08242015383D

 14 13  0  0  0  0  0  0  0  0999 V2000
   -3.9428    0.2898   -0.0553 C   0  0  0  0  0  0  0  0  0  0  0  0
   -2.6422   -0.6579    0.1791 C   0  0  0  0  0  0  0  0  0  0  0  0
   -4.8493   -0.2864   -0.4228 H   0  0  0  0  0  0  0  0  0  0  0  0
   -3.7051    0.8063   -0.9932 H   0  0  0  0  0  0  0  0  0  0  0  0
   -4.2286    1.1163    0.8502 H   0  0  0  0  0  0  0  0  0  0  0  0
   -1.4065    0.1468    0.0899 C   0  0  0  0  0  0  0  0  0  0  0  0
   -2.5484   -1.2291   -0.6499 H   0  0  0  0  0  0  0  0  0  0  0  0
   -2.8601   -1.2407    1.0770 H   0  0  0  0  0  0  0  0  0  0  0  0
   -0.1853   -0.6670   -0.0792 C   0  0  0  0  0  0  0  0  0  0  0  0
   -1.3201    0.7442    0.9074 H   0  0  0  0  0  0  0  0  0  0  0  0
   -1.5568    0.7931   -0.7450 H   0  0  0  0  0  0  0  0  0  0  0  0
   -0.2295   -1.2471    0.7939 H   0  0  0  0  0  0  0  0  0  0  0  0
    0.7545    0.0284    0.0182 H   0  0  0  0  0  0  0  0  0  0  0  0
   -0.3566   -1.3048   -0.9775 H   0  0  0  0  0  0  0  0  0  0  0  0
  1  2  1  0  0  0  0
  1  5  1  0  0  0  0
  2  8  1  0  0  0  0
  3  1  1  0  0  0  0
  4  1  1  0  0  0  0
  6  2  1  0  0  0  0
  6 10  1  0  0  0  0
  7  2  1  0  0  0  0
  9 13  1  0  0  0  0
  9  6  1  0  0  0  0
  9 12  1  0  0  0  0
 11  6  1  0  0  0  0
 14  9  1  0  0  0  0
M  END
$$$$
