butane_opt
 OpenBabel08242015383D

 14 13  0  0  0  0  0  0  0  0999 V2000
   -3.9395    0.2516   -0.0486 C   0  0  0  0  0  0  0  0  0  0  0  0
   -2.6991   -0.6123    0.0747 C   0  0  0  0  0  0  0  0  0  0  0  0
   -4.8173   -0.3051   -0.0900 H   0  0  0  0  0  0  0  0  0  0  0  0
   -4.0521    0.8950   -0.9422 H   0  0  0  0  0  0  0  0  0  0  0  0
   -3.9721    0.8636    0.7596 H   0  0  0  0  0  0  0  0  0  0  0  0
   -1.4347    0.2018    0.0983 C   0  0  0  0  0  0  0  0  0  0  0  0
   -2.7353   -1.2481   -0.7194 H   0  0  0  0  0  0  0  0  0  0  0  0
   -2.8698   -1.2084    1.0110 H   0  0  0  0  0  0  0  0  0  0  0  0
   -0.1182   -0.6866   -0.0343 C   0  0  0  0  0  0  0  0  0  0  0  0
   -1.2769    0.9496    1.0864 H   0  0  0  0  0  0  0  0  0  0  0  0
   -1.5657    0.6103   -0.6225 H   0  0  0  0  0  0  0  0  0  0  0  0
    0.1121   -1.5687    1.1291 H   0  0  0  0  0  0  0  0  0  0  0  0
    0.7322   -0.1379   -0.4091 H   0  0  0  0  0  0  0  0  0  0  0  0
   -0.2914   -1.1714   -0.8338 H   0  0  0  0  0  0  0  0  0  0  0  0
  1  2  1  0  0  0  0
  1  5  1  0  0  0  0
  2  6  1  0  0  0  0
  2  8  1  0  0  0  0
  3  1  1  0  0  0  0
  4  1  1  0  0  0  0
  6 10  1  0  0  0  0
  7  2  1  0  0  0  0
  9  6  1  0  0  0  0
  9 12  1  0  0  0  0
 11  6  1  0  0  0  0
 13  9  1  0  0  0  0
 14  9  1  0  0  0  0
M  END
$$$$
