14
butane_opt
C  -3.968912   0.257979   0.002624
C  -2.736274  -0.587652   0.056703
H  -4.833960  -0.391420  -0.215569
H  -3.798230   0.495121  -0.660111
H  -4.104642   1.261266   1.049287
C  -1.374506   0.210124  -0.022849
H  -2.785469  -1.270590  -0.759125
H  -2.839952  -1.355398   1.108668
C  -0.107258  -0.722988   0.042785
H  -1.284819   0.918822   0.847697
H  -1.590797   0.843894  -0.914618
H  -0.161075  -1.446933   0.968122
H   0.772762  -0.154237  -0.056091
H  -0.143427  -1.267480  -0.809977
