butane_opt
 OpenBabel08242015383D

 14 13  0  0  0  0  0  0  0  0999 V2000
   -3.9006    0.2318    0.1211 C   0  0  0  0  0  0  0  0  0  0  0  0
   -2.7237   -0.5524   -0.0488 C   0  0  0  0  0  0  0  0  0  0  0  0
   -4.8542   -0.4333   -0.1416 H   0  0  0  0  0  0  0  0  0  0  0  0
   -3.8183    0.7301   -0.7992 H   0  0  0  0  0  0  0  0  0  0  0  0
   -3.9267    0.9249    0.9691 H   0  0  0  0  0  0  0  0  0  0  0  0
   -1.4140    0.2146   -0.0217 C   0  0  0  0  0  0  0  0  0  0  0  0
   -2.7614   -1.4033   -1.1309 H   0  0  0  0  0  0  0  0  0  0  0  0
   -2.7228   -0.9665    0.6594 H   0  0  0  0  0  0  0  0  0  0  0  0
   -0.1420   -0.7480    0.0956 C   0  0  0  0  0  0  0  0  0  0  0  0
   -1.5306    0.8520    0.7665 H   0  0  0  0  0  0  0  0  0  0  0  0
   -1.4035    0.8945   -0.9514 H   0  0  0  0  0  0  0  0  0  0  0  0
   -0.1157   -1.7425    1.2314 H   0  0  0  0  0  0  0  0  0  0  0  0
    0.7353   -0.1499   -0.4157 H   0  0  0  0  0  0  0  0  0  0  0  0
   -0.4195   -0.9411   -0.4451 H   0  0  0  0  0  0  0  0  0  0  0  0
  1  5  1  0  0  0  0
  2  6  1  0  0  0  0
  2  1  1  0  0  0  0
  2  8  1  0  0  0  0
  3  1  1  0  0  0  0
  4  1  1  0  0  0  0
  6  9  1  0  0  0  0
  6 10  1  0  0  0  0
  7  2  1  0  0  0  0
  9 12  1  0  0  0  0
 11  6  1  0  0  0  0
 13  9  1  0  0  0  0
 14  9  1  0  0  0  0
M  END
$$$$
