butane_opt
 OpenBabel08242015383D

 14 13  0  0  0  0  0  0  0  0999 V2000
   -3.9346    0.2696    0.0384 C   0  0  0  0  0  0  0  0  0  0  0  0
   -2.7004   -0.6209    0.0137 C   0  0  0  0  0  0  0  0  0  0  0  0
   -4.8090   -0.2723   -0.0154 H   0  0  0  0  0  0  0  0  0  0  0  0
   -3.9600    0.7502   -0.7439 H   0  0  0  0  0  0  0  0  0  0  0  0
   -3.9603    1.0795    0.9883 H   0  0  0  0  0  0  0  0  0  0  0  0
   -1.3964    0.1745   -0.0200 C   0  0  0  0  0  0  0  0  0  0  0  0
   -2.7460   -1.2857   -0.8394 H   0  0  0  0  0  0  0  0  0  0  0  0
   -2.7113   -1.2931    0.9155 H   0  0  0  0  0  0  0  0  0  0  0  0
   -0.1732   -0.6852    0.0572 C   0  0  0  0  0  0  0  0  0  0  0  0
   -1.4219    0.7899    0.7842 H   0  0  0  0  0  0  0  0  0  0  0  0
   -1.4126    0.8441   -0.9545 H   0  0  0  0  0  0  0  0  0  0  0  0
   -0.1802   -1.3516    0.9695 H   0  0  0  0  0  0  0  0  0  0  0  0
    0.7382   -0.0777    0.0521 H   0  0  0  0  0  0  0  0  0  0  0  0
   -0.1176   -1.3018   -0.7643 H   0  0  0  0  0  0  0  0  0  0  0  0
  1  5  1  0  0  0  0
  2  1  1  0  0  0  0
  2  8  1  0  0  0  0
  3  1  1  0  0  0  0
  4  1  1  0  0  0  0
  6  2  1  0  0  0  0
  6  9  1  0  0  0  0
  6 10  1  0  0  0  0
  7  2  1  0  0  0  0
  9 12  1  0  0  0  0
 11  6  1  0  0  0  0
 13  9  1  0  0  0  0
 14  9  1  0  0  0  0
M  END
$$$$
