butane_opt
 OpenBabel08242015383D

 14 13  0  0  0  0  0  0  0  0999 V2000
   -3.9432    0.2463   -0.0695 C   0  0  0  0  0  0  0  0  0  0  0  0
   -2.7606   -0.5765    0.1451 C   0  0  0  0  0  0  0  0  0  0  0  0
   -5.0084   -0.4798   -0.1329 H   0  0  0  0  0  0  0  0  0  0  0  0
   -3.8027    0.8777   -0.9510 H   0  0  0  0  0  0  0  0  0  0  0  0
   -4.0097    0.8097    0.7104 H   0  0  0  0  0  0  0  0  0  0  0  0
   -1.3922    0.2452    0.0772 C   0  0  0  0  0  0  0  0  0  0  0  0
   -2.6433   -1.0647   -0.5469 H   0  0  0  0  0  0  0  0  0  0  0  0
   -2.8142   -1.3936    1.2721 H   0  0  0  0  0  0  0  0  0  0  0  0
   -0.1224   -0.7452   -0.0605 C   0  0  0  0  0  0  0  0  0  0  0  0
   -1.3896    0.9256    0.9583 H   0  0  0  0  0  0  0  0  0  0  0  0
   -1.3718    0.7072   -0.6974 H   0  0  0  0  0  0  0  0  0  0  0  0
   -0.1111   -1.0259    0.6254 H   0  0  0  0  0  0  0  0  0  0  0  0
    0.6992   -0.2615    0.1170 H   0  0  0  0  0  0  0  0  0  0  0  0
    0.0762   -1.6399   -1.0833 H   0  0  0  0  0  0  0  0  0  0  0  0
  1  2  1  0  0  0  0
  1  5  1  0  0  0  0
  2  8  1  0  0  0  0
  3  1  1  0  0  0  0
  4  1  1  0  0  0  0
  6  2  1  0  0  0  0
  6 10  1  0  0  0  0
  7  2  1  0  0  0  0
  9  6  1  0  0  0  0
  9 13  1  0  0  0  0
  9 12  1  0  0  0  0
 11  6  1  0  0  0  0
 14  9  1  0  0  0  0
M  END
$$$$
