14
butane_opt
C  -3.961316   0.232636  -0.054520
C  -2.693852  -0.592640   0.146267
H  -4.846846  -0.459996  -0.028250
H  -3.932165   0.954752  -1.036474
H  -4.099222   0.806310   0.703787
C  -1.395328   0.234369   0.063131
H  -2.675020  -1.016247  -0.566836
H  -2.954530  -1.411314   1.139470
C  -0.137577  -0.722982  -0.034921
H  -1.426320   0.934287   0.939620
H  -1.398581   0.809995  -0.813135
H  -0.072460  -0.859315   0.529083
H   0.610313  -0.307741   0.223018
H   0.058073  -1.766736  -1.144534
