butane_opt
 OpenBabel08242015383D

 14 13  0  0  0  0  0  0  0  0999 V2000
   -3.9526    0.2724    0.0492 C   0  0  0  0  0  0  0  0  0  0  0  0
   -2.7022   -0.6202   -0.0191 C   0  0  0  0  0  0  0  0  0  0  0  0
   -4.8705   -0.3036    0.2192 H   0  0  0  0  0  0  0  0  0  0  0  0
   -4.0608    0.9260   -0.8700 H   0  0  0  0  0  0  0  0  0  0  0  0
   -3.8908    0.9048    0.8725 H   0  0  0  0  0  0  0  0  0  0  0  0
   -1.3970    0.1706   -0.0095 C   0  0  0  0  0  0  0  0  0  0  0  0
   -2.7502   -1.3193   -0.8843 H   0  0  0  0  0  0  0  0  0  0  0  0
   -2.7092   -1.2460    0.8804 H   0  0  0  0  0  0  0  0  0  0  0  0
   -0.1493   -0.6872    0.0648 C   0  0  0  0  0  0  0  0  0  0  0  0
   -1.3734    0.8594    0.8432 H   0  0  0  0  0  0  0  0  0  0  0  0
   -1.3745    0.8240   -0.9049 H   0  0  0  0  0  0  0  0  0  0  0  0
   -0.1757   -1.3352    0.9816 H   0  0  0  0  0  0  0  0  0  0  0  0
    0.7454   -0.1008    0.0352 H   0  0  0  0  0  0  0  0  0  0  0  0
   -0.1497   -1.3065   -0.7544 H   0  0  0  0  0  0  0  0  0  0  0  0
  1  3  1  0  0  0  0
  1  5  1  0  0  0  0
  2  6  1  0  0  0  0
  2  1  1  0  0  0  0
  2  8  1  0  0  0  0
  4  1  1  0  0  0  0
  6  9  1  0  0  0  0
  6 10  1  0  0  0  0
  7  2  1  0  0  0  0
  9 12  1  0  0  0  0
 11  6  1  0  0  0  0
 13  9  1  0  0  0  0
 14  9  1  0  0  0  0
M  END
$$$$
