14
butane_opt
C  -3.926587   0.305113  -0.060543
C  -2.677551  -0.634612   0.167630
H  -4.795278  -0.259644  -0.471305
H  -3.806252   0.789707  -0.882799
H  -4.268197   0.985279   0.761762
C  -1.395317   0.106301   0.057968
H  -2.650459  -1.173298  -0.611246
H  -2.711728  -1.335280   1.187598
C  -0.191924  -0.641008  -0.046958
H  -1.354211   0.866618   1.019748
H  -1.589696   0.591806  -0.644752
H  -0.094312  -1.172942   0.785884
H   0.870000  -0.005109  -0.163916
H  -0.350972  -1.373303  -0.972323
