14
butane_opt
C  -3.922811   0.246408  -0.030644
C  -2.710763  -0.549743   0.059834
H  -4.933345  -0.462643   0.510640
H  -4.018148   1.052690  -1.181240
H  -3.786172   0.594802   0.646677
C  -1.396049   0.191174   0.082148
H  -2.594474  -1.330473  -0.883780
H  -2.806604  -1.094850   0.943677
C  -0.189759  -0.713790   0.005428
H  -1.357868   0.880856   0.949859
H  -1.435050   0.821758  -0.802930
H  -0.042858  -1.307988   0.848534
H   0.774870  -0.095157   0.009152
H  -0.182543  -1.618632  -1.016733
