14
butane_opt
C  -3.976768   0.292001   0.075700
C  -2.686301  -0.654121  -0.026212
H  -4.807431  -0.206558   0.077680
H  -4.346509   0.784755  -0.554385
H  -3.976979   1.014920   0.948114
C  -1.359680   0.154045  -0.080891
H  -2.733568  -1.273317  -0.828885
H  -2.687906  -1.350472   0.956180
C  -0.159922  -0.653759   0.092794
H  -1.549026   0.778024   0.719299
H  -1.225044   0.849844  -1.119992
H  -0.369821  -1.181313   0.967594
H   0.766308  -0.059287   0.351893
H   0.085371  -1.491573  -0.842985
