butane_opt
 OpenBabel08242015383D

 14 13  0  0  0  0  0  0  0  0999 V2000
   -3.9538    0.3067    0.1078 C   0  0  0  0  0  0  0  0  0  0  0  0
   -2.6536   -0.6765   -0.0449 C   0  0  0  0  0  0  0  0  0  0  0  0
   -4.8523   -0.3471    0.0003 H   0  0  0  0  0  0  0  0  0  0  0  0
   -4.0804    0.7680   -0.6665 H   0  0  0  0  0  0  0  0  0  0  0  0
   -3.8271    1.1387    1.0213 H   0  0  0  0  0  0  0  0  0  0  0  0
   -1.4115    0.1572   -0.0726 C   0  0  0  0  0  0  0  0  0  0  0  0
   -2.6262   -1.4771   -0.9343 H   0  0  0  0  0  0  0  0  0  0  0  0
   -2.7617   -1.0819    0.6288 H   0  0  0  0  0  0  0  0  0  0  0  0
   -0.1754   -0.6543    0.1218 C   0  0  0  0  0  0  0  0  0  0  0  0
   -1.4126    0.7719    0.6573 H   0  0  0  0  0  0  0  0  0  0  0  0
   -1.3320    0.8557   -1.0654 H   0  0  0  0  0  0  0  0  0  0  0  0
   -0.1999   -1.5023    1.2270 H   0  0  0  0  0  0  0  0  0  0  0  0
    0.6903   -0.0624   -0.0854 H   0  0  0  0  0  0  0  0  0  0  0  0
   -0.3048   -1.1350   -0.6338 H   0  0  0  0  0  0  0  0  0  0  0  0
  1  5  1  0  0  0  0
  2  1  1  0  0  0  0
  2  8  1  0  0  0  0
  3  1  1  0  0  0  0
  4  1  1  0  0  0  0
  6  2  1  0  0  0  0
  6  9  1  0  0  0  0
  6 10  1  0  0  0  0
  7  2  1  0  0  0  0
  9 12  1  0  0  0  0
 11  6  1  0  0  0  0
 13  9  1  0  0  0  0
 14  9  1  0  0  0  0
M  END
$$$$
