butane_opt
 OpenBabel08242015383D

 14 13  0  0  0  0  0  0  0  0999 V2000
   -3.9341    0.3122    0.0547 C   0  0  0  0  0  0  0  0  0  0  0  0
   -2.6685   -0.6695    0.0244 C   0  0  0  0  0  0  0  0  0  0  0  0
   -4.8186   -0.3270    0.0805 H   0  0  0  0  0  0  0  0  0  0  0  0
   -4.1708    0.9333   -0.7964 H   0  0  0  0  0  0  0  0  0  0  0  0
   -3.9382    0.9010    0.9163 H   0  0  0  0  0  0  0  0  0  0  0  0
   -1.4327    0.1403   -0.0894 C   0  0  0  0  0  0  0  0  0  0  0  0
   -2.5804   -1.2082   -0.6565 H   0  0  0  0  0  0  0  0  0  0  0  0
   -2.6008   -1.3543    0.9284 H   0  0  0  0  0  0  0  0  0  0  0  0
   -0.1952   -0.6436    0.0827 C   0  0  0  0  0  0  0  0  0  0  0  0
   -1.4069    0.7717    0.7881 H   0  0  0  0  0  0  0  0  0  0  0  0
   -1.1607    0.7587   -0.9759 H   0  0  0  0  0  0  0  0  0  0  0  0
   -0.3283   -0.9487    0.7560 H   0  0  0  0  0  0  0  0  0  0  0  0
    0.7498    0.0084    0.4803 H   0  0  0  0  0  0  0  0  0  0  0  0
   -0.0191   -1.6771   -1.0060 H   0  0  0  0  0  0  0  0  0  0  0  0
  1  3  1  0  0  0  0
  1  5  1  0  0  0  0
  2  1  1  0  0  0  0
  2  8  1  0  0  0  0
  4  1  1  0  0  0  0
  6  2  1  0  0  0  0
  6  9  1  0  0  0  0
  6 10  1  0  0  0  0
  7  2  1  0  0  0  0
  9 13  1  0  0  0  0
  9 12  1  0  0  0  0
 11  6  1  0  0  0  0
 14  9  1  0  0  0  0
M  END
$$$$
