butane_opt
 OpenBabel08242015383D

 14 13  0  0  0  0  0  0  0  0999 V2000
   -3.9839    0.2914    0.0911 C   0  0  0  0  0  0  0  0  0  0  0  0
   -2.6876   -0.6796   -0.0431 C   0  0  0  0  0  0  0  0  0  0  0  0
   -4.7334   -0.1076    0.0296 H   0  0  0  0  0  0  0  0  0  0  0  0
   -4.1811    0.7552   -0.6330 H   0  0  0  0  0  0  0  0  0  0  0  0
   -3.9217    1.0966    1.1276 H   0  0  0  0  0  0  0  0  0  0  0  0
   -1.3744    0.1473   -0.1085 C   0  0  0  0  0  0  0  0  0  0  0  0
   -2.7728   -1.1284   -0.7543 H   0  0  0  0  0  0  0  0  0  0  0  0
   -2.7875   -1.2982    0.8936 H   0  0  0  0  0  0  0  0  0  0  0  0
   -0.1539   -0.6649    0.1061 C   0  0  0  0  0  0  0  0  0  0  0  0
   -1.3289    0.6910    0.7043 H   0  0  0  0  0  0  0  0  0  0  0  0
   -1.3414    0.9722   -1.0699 H   0  0  0  0  0  0  0  0  0  0  0  0
   -0.3395   -1.1238    0.9493 H   0  0  0  0  0  0  0  0  0  0  0  0
    0.7204   -0.0556    0.5087 H   0  0  0  0  0  0  0  0  0  0  0  0
    0.0363   -1.4149   -0.8524 H   0  0  0  0  0  0  0  0  0  0  0  0
  1  5  1  0  0  0  0
  2  1  1  0  0  0  0
  2  8  1  0  0  0  0
  3  1  1  0  0  0  0
  4  1  1  0  0  0  0
  6  2  1  0  0  0  0
  6  9  1  0  0  0  0
  6 10  1  0  0  0  0
  7  2  1  0  0  0  0
  9 13  1  0  0  0  0
  9 12  1  0  0  0  0
 11  6  1  0  0  0  0
 14  9  1  0  0  0  0
M  END
$$$$
