14
butane_opt
C  -3.938591   0.266262   0.045719
C  -2.685989  -0.615587   0.017358
H  -4.898882  -0.343689   0.021920
H  -3.970135   0.858495  -0.847377
H  -3.984460   0.978447   0.930917
C  -1.409923   0.172889  -0.025374
H  -2.756707  -1.247242  -0.820380
H  -2.625509  -1.256074   0.904813
C  -0.171248  -0.690951   0.054050
H  -1.382993   0.853934   0.812138
H  -1.361982   0.803124  -0.911991
H  -0.245906  -1.269535   0.946057
H   0.763138  -0.079275   0.099638
H  -0.081911  -1.370787  -0.802722
