14
butane_opt
C  -3.907840   0.249668  -0.064358
C  -2.706182  -0.578688   0.110274
H  -4.884786  -0.372245   0.123315
H  -3.729478   1.035736  -1.105570
H  -3.959912   0.543961   0.522972
C  -1.431057   0.190515   0.145335
H  -2.687285  -1.273593  -0.783906
H  -2.739738  -1.126776   0.960715
C  -0.165230  -0.717669  -0.050145
H  -1.452357   1.000357   1.033630
H  -1.700391   0.737422  -0.653169
H   0.164099  -1.316478   0.877288
H   0.851170  -0.067558  -0.306270
H  -0.384173  -1.352989  -0.931275
