14
butane_opt
C  -3.925255   0.289483   0.079701
C  -2.679652  -0.659623  -0.078892
H  -4.842621  -0.371365   0.543819
H  -4.424245   1.043349  -0.863257
H  -3.698827   0.792188   0.895470
C  -1.401665   0.178123  -0.037533
H  -2.648578  -1.408768  -1.070781
H  -2.464993  -1.063991   0.648151
C  -0.212991  -0.672703   0.116481
H  -1.356674   0.747028   0.772180
H  -1.294984   0.921481  -0.989119
H  -0.236823  -1.369003   1.132513
H   0.748663  -0.051235   0.078219
H  -0.153403  -1.338289  -0.677892
