14
butane_opt
C  -3.957110   0.268906   0.027126
C  -2.698728  -0.626981   0.029448
H  -4.860157  -0.320497   0.103460
H  -4.009575   0.845095  -0.859287
H  -3.953419   0.924384   0.915865
C  -1.394413   0.197176  -0.010180
H  -2.695839  -1.310680  -0.821119
H  -2.711689  -1.260432   0.929261
C  -0.161455  -0.694285   0.041262
H  -1.437185   0.824571   0.808383
H  -1.362882   0.874720  -0.905157
H  -0.157392  -1.245821   0.897710
H   0.733029  -0.120054   0.146284
H  -0.029799  -1.420054  -0.832144
