14
butane_opt
C  -3.934134   0.312210   0.054690
C  -2.668458  -0.669531   0.024403
H  -4.818634  -0.327048   0.080550
H  -4.170759   0.933250  -0.796395
H  -3.938224   0.901028   0.916344
C  -1.432708   0.140288  -0.089353
H  -2.580383  -1.208221  -0.656458
H  -2.600820  -1.354339   0.928444
C  -0.195207  -0.643589   0.082735
H  -1.406942   0.771718   0.788106
H  -1.160688   0.758721  -0.975873
H  -0.328262  -0.948727   0.756009
H   0.749819   0.008427   0.480345
H  -0.019121  -1.677126  -1.006024
