14
butane_opt
C  -3.950420   0.237237  -0.115550
C  -2.734033  -0.611214   0.205257
H  -4.789774  -0.345463  -0.358176
H  -3.723813   0.664991  -0.876419
H  -4.234735   1.133967   0.860229
C  -1.419354   0.234318   0.110456
H  -2.621934  -1.172589  -0.524257
H  -2.839399  -1.449996   1.152063
C  -0.102053  -0.716960  -0.085903
H  -1.356822   1.010899   1.011130
H  -1.537250   0.833018  -0.758358
H   0.046767  -1.266808   0.698933
H   0.693921  -0.223906  -0.104868
H  -0.179801  -1.387315  -1.000495
