butane_opt
 OpenBabel08242015383D

 14 13  0  0  0  0  0  0  0  0999 V2000
   -3.9190    0.3110    0.0645 C   0  0  0  0  0  0  0  0  0  0  0  0
   -2.6554   -0.6666    0.0352 C   0  0  0  0  0  0  0  0  0  0  0  0
   -4.8796   -0.2815   -0.2398 H   0  0  0  0  0  0  0  0  0  0  0  0
   -3.8885    0.6024   -0.6438 H   0  0  0  0  0  0  0  0  0  0  0  0
   -4.0998    1.2336    1.1444 H   0  0  0  0  0  0  0  0  0  0  0  0
   -1.3984    0.1272   -0.0463 C   0  0  0  0  0  0  0  0  0  0  0  0
   -2.6604   -1.3321   -0.9137 H   0  0  0  0  0  0  0  0  0  0  0  0
   -2.7003   -1.0678    0.7563 H   0  0  0  0  0  0  0  0  0  0  0  0
   -0.2401   -0.6385    0.0738 C   0  0  0  0  0  0  0  0  0  0  0  0
   -1.3799    0.6122    0.6615 H   0  0  0  0  0  0  0  0  0  0  0  0
   -1.2473    0.9138   -1.0878 H   0  0  0  0  0  0  0  0  0  0  0  0
   -0.3190   -1.4602    1.0354 H   0  0  0  0  0  0  0  0  0  0  0  0
    0.7328   -0.0462   -0.0430 H   0  0  0  0  0  0  0  0  0  0  0  0
   -0.0447   -1.2484   -0.7136 H   0  0  0  0  0  0  0  0  0  0  0  0
  1  5  1  0  0  0  0
  2  1  1  0  0  0  0
  2  8  1  0  0  0  0
  3  1  1  0  0  0  0
  4  1  1  0  0  0  0
  6  2  1  0  0  0  0
  6  9  1  0  0  0  0
  6 10  1  0  0  0  0
  7  2  1  0  0  0  0
  9 12  1  0  0  0  0
 11  6  1  0  0  0  0
 13  9  1  0  0  0  0
 14  9  1  0  0  0  0
M  END
$$$$
