butane_opt
 OpenBabel08242015383D

 14 13  0  0  0  0  0  0  0  0999 V2000
   -3.9149    0.2281   -0.0293 C   0  0  0  0  0  0  0  0  0  0  0  0
   -2.7114   -0.5461    0.1216 C   0  0  0  0  0  0  0  0  0  0  0  0
   -4.9830   -0.5153   -0.3117 H   0  0  0  0  0  0  0  0  0  0  0  0
   -3.6321    0.6922   -0.8579 H   0  0  0  0  0  0  0  0  0  0  0  0
   -3.9130    1.1022    0.9743 H   0  0  0  0  0  0  0  0  0  0  0  0
   -1.4357    0.2089    0.0193 C   0  0  0  0  0  0  0  0  0  0  0  0
   -2.7004   -1.0751   -0.5786 H   0  0  0  0  0  0  0  0  0  0  0  0
   -2.6810   -1.3130    1.0805 H   0  0  0  0  0  0  0  0  0  0  0  0
   -0.1724   -0.7451   -0.0465 C   0  0  0  0  0  0  0  0  0  0  0  0
   -1.2757    0.8459    0.9170 H   0  0  0  0  0  0  0  0  0  0  0  0
   -1.4637    0.7990   -0.7848 H   0  0  0  0  0  0  0  0  0  0  0  0
   -0.2032   -1.2535    0.8887 H   0  0  0  0  0  0  0  0  0  0  0  0
    0.6962   -0.1569    0.2578 H   0  0  0  0  0  0  0  0  0  0  0  0
   -0.0343   -1.3819   -0.9137 H   0  0  0  0  0  0  0  0  0  0  0  0
  1  2  1  0  0  0  0
  1  5  1  0  0  0  0
  2  8  1  0  0  0  0
  3  1  1  0  0  0  0
  4  1  1  0  0  0  0
  6  2  1  0  0  0  0
  6 10  1  0  0  0  0
  7  2  1  0  0  0  0
  9  6  1  0  0  0  0
  9 13  1  0  0  0  0
  9 12  1  0  0  0  0
 11  6  1  0  0  0  0
 14  9  1  0  0  0  0
M  END
$$$$
