butane_opt
 OpenBabel08242015383D

 14 13  0  0  0  0  0  0  0  0999 V2000
   -3.9030    0.2968    0.0609 C   0  0  0  0  0  0  0  0  0  0  0  0
   -2.6762   -0.6590    0.0090 C   0  0  0  0  0  0  0  0  0  0  0  0
   -4.7512   -0.2957    0.1807 H   0  0  0  0  0  0  0  0  0  0  0  0
   -4.0820    1.0006   -0.9280 H   0  0  0  0  0  0  0  0  0  0  0  0
   -4.0042    0.8573    0.8047 H   0  0  0  0  0  0  0  0  0  0  0  0
   -1.4231    0.1505   -0.0283 C   0  0  0  0  0  0  0  0  0  0  0  0
   -2.7536   -1.2689   -0.8307 H   0  0  0  0  0  0  0  0  0  0  0  0
   -2.7560   -1.2365    0.8701 H   0  0  0  0  0  0  0  0  0  0  0  0
   -0.1989   -0.6603    0.0697 C   0  0  0  0  0  0  0  0  0  0  0  0
   -1.4749    0.7111    0.7224 H   0  0  0  0  0  0  0  0  0  0  0  0
   -1.3059    0.9134   -0.9341 H   0  0  0  0  0  0  0  0  0  0  0  0
   -0.1233   -1.0905    0.8471 H   0  0  0  0  0  0  0  0  0  0  0  0
    0.8234   -0.0115    0.3455 H   0  0  0  0  0  0  0  0  0  0  0  0
   -0.2024   -1.5798   -0.9899 H   0  0  0  0  0  0  0  0  0  0  0  0
  1  3  1  0  0  0  0
  1  5  1  0  0  0  0
  2  1  1  0  0  0  0
  2  8  1  0  0  0  0
  4  1  1  0  0  0  0
  6  2  1  0  0  0  0
  6  9  1  0  0  0  0
  6 10  1  0  0  0  0
  7  2  1  0  0  0  0
  9 13  1  0  0  0  0
  9 12  1  0  0  0  0
 11  6  1  0  0  0  0
 14  9  1  0  0  0  0
M  END
$$$$
