14
butane_opt
C  -3.995791   0.288441   0.116603
C  -2.687820  -0.679849  -0.071230
H  -4.841420  -0.216828   0.220979
H  -4.066717   0.722663  -0.598402
H  -3.899059   1.103396   1.166640
C  -1.396294   0.207761  -0.139263
H  -2.689167  -1.281727  -0.812612
H  -2.742027  -1.348717   0.811372
C  -0.142794  -0.670761   0.131440
H  -1.448673   0.726405   0.558663
H  -1.291249   0.892580  -1.095761
H  -0.358915  -1.236097   1.074968
H   0.729257  -0.033097   0.507322
H   0.219135  -1.542505  -0.822609
