14
butane_opt
C  -3.911519   0.213165  -0.061917
C  -2.704513  -0.543641   0.077377
H  -4.788815  -0.405393   0.108019
H  -3.845718   1.002098  -1.060523
H  -3.833725   0.730794   0.637859
C  -1.464784   0.216256   0.158633
H  -2.536233  -1.262425  -0.739449
H  -2.916557  -1.177676   1.046074
C  -0.139426  -0.732326  -0.061447
H  -1.386942   0.802362   1.018434
H  -1.510355   0.739952  -0.678612
H   0.176316  -1.370420   0.885552
H   0.696465  -0.153151  -0.271431
H  -0.425672  -1.207110  -0.841595
