14
butane_opt
C  -4.000253   0.295184  -0.058333
C  -2.683197  -0.645400   0.174258
H  -4.892325  -0.290871  -0.147623
H  -4.027379   1.095188  -1.019634
H  -4.222969   0.815813   0.679379
C  -1.377619   0.131576   0.056345
H  -2.565446  -1.299499  -0.622814
H  -2.650245  -1.348755   1.132577
C  -0.154185  -0.652330  -0.050929
H  -1.258742   0.906012   0.983363
H  -1.365798   0.714404  -0.862463
H  -0.166853  -0.970308   0.695388
H   0.811500   0.086011   0.282695
H  -0.114695  -1.734472  -1.195454
