butane_opt
 OpenBabel08242015383D

 14 13  0  0  0  0  0  0  0  0999 V2000
   -3.9253    0.2895    0.0797 C   0  0  0  0  0  0  0  0  0  0  0  0
   -2.6797   -0.6596   -0.0789 C   0  0  0  0  0  0  0  0  0  0  0  0
   -4.8426   -0.3714    0.5438 H   0  0  0  0  0  0  0  0  0  0  0  0
   -4.4242    1.0433   -0.8633 H   0  0  0  0  0  0  0  0  0  0  0  0
   -3.6988    0.7922    0.8955 H   0  0  0  0  0  0  0  0  0  0  0  0
   -1.4017    0.1781   -0.0375 C   0  0  0  0  0  0  0  0  0  0  0  0
   -2.6486   -1.4088   -1.0708 H   0  0  0  0  0  0  0  0  0  0  0  0
   -2.4650   -1.0640    0.6482 H   0  0  0  0  0  0  0  0  0  0  0  0
   -0.2130   -0.6727    0.1165 C   0  0  0  0  0  0  0  0  0  0  0  0
   -1.3567    0.7470    0.7722 H   0  0  0  0  0  0  0  0  0  0  0  0
   -1.2950    0.9215   -0.9891 H   0  0  0  0  0  0  0  0  0  0  0  0
   -0.2368   -1.3690    1.1325 H   0  0  0  0  0  0  0  0  0  0  0  0
    0.7487   -0.0512    0.0782 H   0  0  0  0  0  0  0  0  0  0  0  0
   -0.1534   -1.3383   -0.6779 H   0  0  0  0  0  0  0  0  0  0  0  0
  1  3  1  0  0  0  0
  1  5  1  0  0  0  0
  2  6  1  0  0  0  0
  2  1  1  0  0  0  0
  2  8  1  0  0  0  0
  4  1  1  0  0  0  0
  6  9  1  0  0  0  0
  6 10  1  0  0  0  0
  7  2  1  0  0  0  0
  9 12  1  0  0  0  0
 11  6  1  0  0  0  0
 13  9  1  0  0  0  0
 14  9  1  0  0  0  0
M  END
$$$$
