butane_opt
 OpenBabel08242015383D

 14 13  0  0  0  0  0  0  0  0999 V2000
   -3.9419    0.2370    0.1204 C   0  0  0  0  0  0  0  0  0  0  0  0
   -2.6933   -0.5739   -0.0483 C   0  0  0  0  0  0  0  0  0  0  0  0
   -4.8165   -0.3110    0.2158 H   0  0  0  0  0  0  0  0  0  0  0  0
   -4.1255    0.9226   -0.7018 H   0  0  0  0  0  0  0  0  0  0  0  0
   -3.6537    0.9261    0.9843 H   0  0  0  0  0  0  0  0  0  0  0  0
   -1.4123    0.1759   -0.1447 C   0  0  0  0  0  0  0  0  0  0  0  0
   -2.7831   -1.3398   -1.0225 H   0  0  0  0  0  0  0  0  0  0  0  0
   -2.5639   -1.1789    0.8078 H   0  0  0  0  0  0  0  0  0  0  0  0
   -0.1796   -0.7023    0.1387 C   0  0  0  0  0  0  0  0  0  0  0  0
   -1.3839    0.8603    0.7263 H   0  0  0  0  0  0  0  0  0  0  0  0
   -1.4602    0.7881   -1.0796 H   0  0  0  0  0  0  0  0  0  0  0  0
   -0.4932   -1.3139    1.0485 H   0  0  0  0  0  0  0  0  0  0  0  0
    0.8393    0.0224    0.4495 H   0  0  0  0  0  0  0  0  0  0  0  0
    0.1284   -1.4824   -0.7946 H   0  0  0  0  0  0  0  0  0  0  0  0
  1  3  1  0  0  0  0
  1  5  1  0  0  0  0
  2  1  1  0  0  0  0
  2  8  1  0  0  0  0
  4  1  1  0  0  0  0
  6  2  1  0  0  0  0
  6  9  1  0  0  0  0
  6 10  1  0  0  0  0
  7  2  1  0  0  0  0
  9 13  1  0  0  0  0
  9 12  1  0  0  0  0
 11  6  1  0  0  0  0
 14  9  1  0  0  0  0
M  END
$$$$
