butane_opt
 OpenBabel08242015383D

 14 13  0  0  0  0  0  0  0  0999 V2000
   -3.9407    0.2268   -0.0907 C   0  0  0  0  0  0  0  0  0  0  0  0
   -2.7272   -0.6050    0.1530 C   0  0  0  0  0  0  0  0  0  0  0  0
   -4.8296   -0.2977   -0.0781 H   0  0  0  0  0  0  0  0  0  0  0  0
   -3.9346    0.8451   -1.0868 H   0  0  0  0  0  0  0  0  0  0  0  0
   -4.0285    0.8618    0.7354 H   0  0  0  0  0  0  0  0  0  0  0  0
   -1.4134    0.2801    0.1377 C   0  0  0  0  0  0  0  0  0  0  0  0
   -2.7625   -1.2301   -0.7164 H   0  0  0  0  0  0  0  0  0  0  0  0
   -2.8853   -1.2840    1.1318 H   0  0  0  0  0  0  0  0  0  0  0  0
   -0.1271   -0.7481   -0.0557 C   0  0  0  0  0  0  0  0  0  0  0  0
   -1.2928    0.8225    0.9678 H   0  0  0  0  0  0  0  0  0  0  0  0
   -1.4999    0.9688   -0.7511 H   0  0  0  0  0  0  0  0  0  0  0  0
    0.0323   -1.2159    0.6864 H   0  0  0  0  0  0  0  0  0  0  0  0
    0.8246   -0.1884   -0.1732 H   0  0  0  0  0  0  0  0  0  0  0  0
   -0.1310   -1.5946   -1.0334 H   0  0  0  0  0  0  0  0  0  0  0  0
  1  3  1  0  0  0  0
  1  2  1  0  0  0  0
  1  5  1  0  0  0  0
  2  8  1  0  0  0  0
  4  1  1  0  0  0  0
  6  2  1  0  0  0  0
  6 10  1  0  0  0  0
  7  2  1  0  0  0  0
  9  6  1  0  0  0  0
  9 12  1  0  0  0  0
 11  6  1  0  0  0  0
 13  9  1  0  0  0  0
 14  9  1  0  0  0  0
M  END
$$$$
