14
butane_opt
C  -3.908886   0.290761  -0.064207
C  -2.691688  -0.645301   0.179241
H  -4.842540  -0.246684  -0.454261
H  -3.785038   0.847296  -0.935654
H  -4.139060   1.150935   0.929640
C  -1.391074   0.152846   0.089083
H  -2.570743  -1.385771  -0.673146
H  -2.732328  -1.367223   1.168109
C  -0.214175  -0.650150  -0.070949
H  -1.279278   0.742017   0.896725
H  -1.447010   0.796580  -0.901823
H  -0.282884  -1.238341   0.824370
H   0.713465  -0.086569   0.021174
H  -0.196747  -1.453250  -1.036342
