butane_opt
 OpenBabel08242015383D

 14 10  0  0  0  0  0  0  0  0999 V2000
   -3.9647    0.2510   -0.0646 C   0  0  0  0  0  0  0  0  0  0  0  0
   -2.7174   -0.6124    0.0962 C   0  0  0  0  0  0  0  0  0  0  0  0
   -4.8106   -0.3491    0.3526 H   0  0  0  0  0  0  0  0  0  0  0  0
   -4.0929    1.3089   -1.2447 H   0  0  0  0  0  0  0  0  0  0  0  0
   -3.7149    0.4468    0.5006 H   0  0  0  0  0  0  0  0  0  0  0  0
   -1.3969    0.1955    0.1172 C   0  0  0  0  0  0  0  0  0  0  0  0
   -2.6941   -1.1815   -0.7151 H   0  0  0  0  0  0  0  0  0  0  0  0
   -2.7475   -1.3021    1.0111 H   0  0  0  0  0  0  0  0  0  0  0  0
   -0.1476   -0.6845   -0.0588 C   0  0  0  0  0  0  0  0  0  0  0  0
   -1.2868    1.1649    1.1547 H   0  0  0  0  0  0  0  0  0  0  0  0
   -1.5746    0.6948   -0.6109 H   0  0  0  0  0  0  0  0  0  0  0  0
   -0.0040   -1.2211    0.7739 H   0  0  0  0  0  0  0  0  0  0  0  0
    0.6543   -0.2299    0.0689 H   0  0  0  0  0  0  0  0  0  0  0  0
   -0.0486   -1.5992   -0.9986 H   0  0  0  0  0  0  0  0  0  0  0  0
  1  3  1  0  0  0  0
  1  5  1  0  0  0  0
  2  8  1  0  0  0  0
  6 10  1  0  0  0  0
  7  2  1  0  0  0  0
  9 13  1  0  0  0  0
  9  6  1  0  0  0  0
  9 12  1  0  0  0  0
 11  6  1  0  0  0  0
 14  9  1  0  0  0  0
M  RAD  4   1   3   2   3   4   2   6   2
M  END
$$$$
