14
butane_opt
C  -3.958016   0.287849   0.150372
C  -2.664378  -0.648567  -0.087039
H  -4.819802  -0.258360   0.155215
H  -4.049155   0.962002  -0.798314
H  -3.789294   0.931428   1.060053
C  -1.427544   0.133735  -0.146549
H  -2.917187  -1.275830  -0.910665
H  -2.542448  -1.287354   0.770191
C  -0.155356  -0.670011   0.150716
H  -1.459750   0.878000   0.766318
H  -1.391003   0.883875  -1.139497
H  -0.467241  -1.171382   1.041304
H   0.852597   0.077326   0.452388
H  -0.011976  -1.436294  -0.793579
