14
butane_opt
C  -3.969188   0.287074   0.156181
C  -2.691420  -0.659312  -0.150450
H  -4.785767  -0.320382   0.530525
H  -4.226673   1.150728  -0.887368
H  -3.888314   0.787413   0.932603
C  -1.373342   0.193833  -0.094613
H  -2.892541  -1.354393  -1.060764
H  -2.714149  -1.178029   0.724203
C  -0.138897  -0.678608   0.152915
H  -1.465663   0.906829   0.725809
H  -1.250608   0.657149  -0.925408
H  -0.355409  -1.474422   1.168761
H   0.735160  -0.122349   0.118443
H  -0.091682  -1.225290  -0.657744
