butane_opt
 OpenBabel08242015383D

 14 13  0  0  0  0  0  0  0  0999 V2000
   -3.9739    0.2796    0.0067 C   0  0  0  0  0  0  0  0  0  0  0  0
   -2.7104   -0.6410    0.0924 C   0  0  0  0  0  0  0  0  0  0  0  0
   -4.8033   -0.1912    0.1503 H   0  0  0  0  0  0  0  0  0  0  0  0
   -3.9109    0.9500   -1.0261 H   0  0  0  0  0  0  0  0  0  0  0  0
   -4.0881    0.9195    0.8323 H   0  0  0  0  0  0  0  0  0  0  0  0
   -1.4019    0.1400   -0.0040 C   0  0  0  0  0  0  0  0  0  0  0  0
   -2.6741   -1.2953   -0.7250 H   0  0  0  0  0  0  0  0  0  0  0  0
   -2.6282   -1.2919    0.9781 H   0  0  0  0  0  0  0  0  0  0  0  0
   -0.1303   -0.6729    0.0115 C   0  0  0  0  0  0  0  0  0  0  0  0
   -1.4353    0.8164    0.7347 H   0  0  0  0  0  0  0  0  0  0  0  0
   -1.3594    0.8048   -0.9321 H   0  0  0  0  0  0  0  0  0  0  0  0
   -0.3319   -0.8541    0.6751 H   0  0  0  0  0  0  0  0  0  0  0  0
    0.7496   -0.0268    0.4350 H   0  0  0  0  0  0  0  0  0  0  0  0
    0.0465   -1.5699   -0.9915 H   0  0  0  0  0  0  0  0  0  0  0  0
  1  2  1  0  0  0  0
  1  3  1  0  0  0  0
  1  5  1  0  0  0  0
  2  8  1  0  0  0  0
  4  1  1  0  0  0  0
  6  9  1  0  0  0  0
  6  2  1  0  0  0  0
  6 10  1  0  0  0  0
  7  2  1  0  0  0  0
  9 13  1  0  0  0  0
  9 12  1  0  0  0  0
 11  6  1  0  0  0  0
 14  9  1  0  0  0  0
M  END
$$$$
