butane_opt
 OpenBabel08242015383D

 14 13  0  0  0  0  0  0  0  0999 V2000
   -3.9439    0.2793   -0.0451 C   0  0  0  0  0  0  0  0  0  0  0  0
   -2.7236   -0.5882    0.1358 C   0  0  0  0  0  0  0  0  0  0  0  0
   -5.0222   -0.4774   -0.2842 H   0  0  0  0  0  0  0  0  0  0  0  0
   -3.8365    0.5848   -0.7614 H   0  0  0  0  0  0  0  0  0  0  0  0
   -4.0256    0.9655    0.9135 H   0  0  0  0  0  0  0  0  0  0  0  0
   -1.4063    0.2211    0.0414 C   0  0  0  0  0  0  0  0  0  0  0  0
   -2.6335   -1.2370   -0.6223 H   0  0  0  0  0  0  0  0  0  0  0  0
   -2.9612   -1.2874    1.0525 H   0  0  0  0  0  0  0  0  0  0  0  0
   -0.1268   -0.7205   -0.0039 C   0  0  0  0  0  0  0  0  0  0  0  0
   -1.3126    0.7577    0.7489 H   0  0  0  0  0  0  0  0  0  0  0  0
   -1.4228    0.8373   -0.8832 H   0  0  0  0  0  0  0  0  0  0  0  0
   -0.0549   -1.1531    0.7697 H   0  0  0  0  0  0  0  0  0  0  0  0
    0.7221   -0.1867   -0.0440 H   0  0  0  0  0  0  0  0  0  0  0  0
   -0.0630   -1.5928   -0.9854 H   0  0  0  0  0  0  0  0  0  0  0  0
  1  2  1  0  0  0  0
  1  5  1  0  0  0  0
  2  8  1  0  0  0  0
  3  1  1  0  0  0  0
  4  1  1  0  0  0  0
  6  2  1  0  0  0  0
  6 10  1  0  0  0  0
  7  2  1  0  0  0  0
  9  6  1  0  0  0  0
  9 12  1  0  0  0  0
 11  6  1  0  0  0  0
 13  9  1  0  0  0  0
 14  9  1  0  0  0  0
M  END
$$$$
