14
butane_opt
C  -3.969972   0.272555   0.085916
C  -2.697921  -0.614461   0.012208
H  -4.781037  -0.231012  -0.210723
H  -4.091365   0.697697  -0.609167
H  -4.157344   1.083453   0.995645
C  -1.396095   0.152404  -0.083582
H  -2.817669  -1.339795  -0.915584
H  -2.626012  -1.302687   0.837834
C  -0.128879  -0.683260   0.080385
H  -1.337800   0.840450   0.762003
H  -1.343532   0.855266  -1.032392
H  -0.321408  -1.372267   1.061972
H   0.806173   0.005101   0.191993
H  -0.038292  -1.240441  -0.758448
