butane_opt
 OpenBabel08242015383D

 14 12  0  0  0  0  0  0  0  0999 V2000
   -3.9120    0.2281   -0.0526 C   0  0  0  0  0  0  0  0  0  0  0  0
   -2.7036   -0.5326    0.1522 C   0  0  0  0  0  0  0  0  0  0  0  0
   -4.8664   -0.4199    0.0558 H   0  0  0  0  0  0  0  0  0  0  0  0
   -3.6993    0.8935   -1.0892 H   0  0  0  0  0  0  0  0  0  0  0  0
   -3.9615    0.6080    0.7005 H   0  0  0  0  0  0  0  0  0  0  0  0
   -1.4708    0.1941    0.0263 C   0  0  0  0  0  0  0  0  0  0  0  0
   -2.6995   -1.0914   -0.6658 H   0  0  0  0  0  0  0  0  0  0  0  0
   -2.6834   -1.3741    1.2174 H   0  0  0  0  0  0  0  0  0  0  0  0
   -0.1431   -0.7133   -0.0252 C   0  0  0  0  0  0  0  0  0  0  0  0
   -1.2558    1.0648    0.9929 H   0  0  0  0  0  0  0  0  0  0  0  0
   -1.5309    0.6703   -0.7865 H   0  0  0  0  0  0  0  0  0  0  0  0
   -0.2339   -0.9527    0.5842 H   0  0  0  0  0  0  0  0  0  0  0  0
    0.6722   -0.2023    0.3690 H   0  0  0  0  0  0  0  0  0  0  0  0
    0.0045   -1.8078   -1.1945 H   0  0  0  0  0  0  0  0  0  0  0  0
  1  3  1  0  0  0  0
  1  2  1  0  0  0  0
  1  5  1  0  0  0  0
  2  8  1  0  0  0  0
  4  1  1  0  0  0  0
  6  2  1  0  0  0  0
  6 10  1  0  0  0  0
  7  2  1  0  0  0  0
  9  6  1  0  0  0  0
  9 13  1  0  0  0  0
  9 12  1  0  0  0  0
 11  6  1  0  0  0  0
M  RAD  2   9   2  14   2
M  END
$$$$
