14
butane_opt
C  -4.000594   0.290926  -0.082092
C  -2.688002  -0.616045   0.173160
H  -4.874978  -0.394467  -0.306870
H  -3.761925   0.850955  -0.939820
H  -4.235171   0.963723   0.775158
C  -1.392495   0.154464   0.099129
H  -2.598244  -1.254656  -0.578666
H  -2.855170  -1.463022   1.297542
C  -0.115651  -0.652272  -0.064478
H  -1.374013   0.738071   0.948211
H  -1.388186   0.779990  -0.841084
H   0.014991  -1.016060   0.652965
H   0.694295  -0.170532   0.083714
H  -0.291275  -1.626925  -1.179043
