14
butane_opt
C  -3.953199   0.249387  -0.034184
C  -2.732737  -0.623645   0.043094
H  -4.842077  -0.363286   0.462038
H  -4.204136   1.363357  -1.219491
H  -3.774893   0.567917   0.561048
C  -1.391997   0.239816   0.133023
H  -2.793882  -1.330947  -0.824772
H  -2.724687  -1.317062   0.927182
C  -0.143740  -0.735683  -0.021354
H  -1.380749   0.945804   0.969929
H  -1.346919   0.884662  -0.795499
H   0.046730  -1.121627   0.780571
H   0.778214  -0.105682   0.016220
H  -0.117475  -1.539997  -0.957640
