butane_opt
 OpenBabel08242015383D

 14 13  0  0  0  0  0  0  0  0999 V2000
   -3.9860    0.2843   -0.0497 C   0  0  0  0  0  0  0  0  0  0  0  0
   -2.6778   -0.6564    0.1143 C   0  0  0  0  0  0  0  0  0  0  0  0
   -4.8010   -0.1550    0.1245 H   0  0  0  0  0  0  0  0  0  0  0  0
   -4.2086    1.1223   -1.0678 H   0  0  0  0  0  0  0  0  0  0  0  0
   -4.0369    0.7357    0.7562 H   0  0  0  0  0  0  0  0  0  0  0  0
   -1.3768    0.1514    0.0611 C   0  0  0  0  0  0  0  0  0  0  0  0
   -2.6634   -1.2878   -0.6131 H   0  0  0  0  0  0  0  0  0  0  0  0
   -2.7758   -1.3744    1.0546 H   0  0  0  0  0  0  0  0  0  0  0  0
   -0.1329   -0.6522   -0.0497 C   0  0  0  0  0  0  0  0  0  0  0  0
   -1.4127    1.0135    0.9922 H   0  0  0  0  0  0  0  0  0  0  0  0
   -1.4153    0.6518   -0.7662 H   0  0  0  0  0  0  0  0  0  0  0  0
   -0.3722   -1.1163    0.8088 H   0  0  0  0  0  0  0  0  0  0  0  0
    0.7675   -0.0279    0.2510 H   0  0  0  0  0  0  0  0  0  0  0  0
   -0.0345   -1.5465   -1.0739 H   0  0  0  0  0  0  0  0  0  0  0  0
  1  2  1  0  0  0  0
  1  3  1  0  0  0  0
  1  5  1  0  0  0  0
  2  8  1  0  0  0  0
  4  1  1  0  0  0  0
  6  2  1  0  0  0  0
  6 10  1  0  0  0  0
  7  2  1  0  0  0  0
  9  6  1  0  0  0  0
  9 13  1  0  0  0  0
  9 12  1  0  0  0  0
 11  6  1  0  0  0  0
 14  9  1  0  0  0  0
M  END
$$$$
