butane_opt
 OpenBabel08242015383D

 14 13  0  0  0  0  0  0  0  0999 V2000
   -3.9437    0.2802    0.0574 C   0  0  0  0  0  0  0  0  0  0  0  0
   -2.6607   -0.6062    0.0107 C   0  0  0  0  0  0  0  0  0  0  0  0
   -4.8296   -0.2941   -0.1436 H   0  0  0  0  0  0  0  0  0  0  0  0
   -3.9004    0.6924   -0.7034 H   0  0  0  0  0  0  0  0  0  0  0  0
   -3.9492    1.2419    1.1006 H   0  0  0  0  0  0  0  0  0  0  0  0
   -1.3871    0.1342   -0.0583 C   0  0  0  0  0  0  0  0  0  0  0  0
   -2.6399   -1.2880   -0.7520 H   0  0  0  0  0  0  0  0  0  0  0  0
   -2.8477   -1.3001    0.9697 H   0  0  0  0  0  0  0  0  0  0  0  0
   -0.2038   -0.6610    0.0578 C   0  0  0  0  0  0  0  0  0  0  0  0
   -1.4215    0.6624    0.6599 H   0  0  0  0  0  0  0  0  0  0  0  0
   -1.4304    0.7618   -0.9342 H   0  0  0  0  0  0  0  0  0  0  0  0
   -0.2961   -1.3042    1.0338 H   0  0  0  0  0  0  0  0  0  0  0  0
    0.8469   -0.0379    0.2095 H   0  0  0  0  0  0  0  0  0  0  0  0
   -0.2300   -1.3449   -0.7656 H   0  0  0  0  0  0  0  0  0  0  0  0
  1  5  1  0  0  0  0
  2  1  1  0  0  0  0
  2  8  1  0  0  0  0
  3  1  1  0  0  0  0
  4  1  1  0  0  0  0
  6  2  1  0  0  0  0
  6  9  1  0  0  0  0
  6 10  1  0  0  0  0
  7  2  1  0  0  0  0
  9 13  1  0  0  0  0
  9 12  1  0  0  0  0
 11  6  1  0  0  0  0
 14  9  1  0  0  0  0
M  END
$$$$
