butane_opt
 OpenBabel08242015383D

 14 13  0  0  0  0  0  0  0  0999 V2000
   -3.9561    0.2679   -0.0872 C   0  0  0  0  0  0  0  0  0  0  0  0
   -2.7426   -0.6439    0.1423 C   0  0  0  0  0  0  0  0  0  0  0  0
   -4.8164   -0.2087   -0.1617 H   0  0  0  0  0  0  0  0  0  0  0  0
   -3.9482    0.8106   -0.9589 H   0  0  0  0  0  0  0  0  0  0  0  0
   -4.0484    1.0965    0.7809 H   0  0  0  0  0  0  0  0  0  0  0  0
   -1.3930    0.2037    0.1065 C   0  0  0  0  0  0  0  0  0  0  0  0
   -2.6137   -1.2326   -0.5898 H   0  0  0  0  0  0  0  0  0  0  0  0
   -2.8529   -1.4487    1.1750 H   0  0  0  0  0  0  0  0  0  0  0  0
   -0.1419   -0.6945   -0.0568 C   0  0  0  0  0  0  0  0  0  0  0  0
   -1.2226    0.9255    0.9951 H   0  0  0  0  0  0  0  0  0  0  0  0
   -1.5281    0.8219   -0.7520 H   0  0  0  0  0  0  0  0  0  0  0  0
    0.1128   -1.3087    0.8312 H   0  0  0  0  0  0  0  0  0  0  0  0
    0.8893   -0.0455   -0.0549 H   0  0  0  0  0  0  0  0  0  0  0  0
   -0.2248   -1.4645   -1.0598 H   0  0  0  0  0  0  0  0  0  0  0  0
  1  2  1  0  0  0  0
  1  5  1  0  0  0  0
  2  8  1  0  0  0  0
  3  1  1  0  0  0  0
  4  1  1  0  0  0  0
  6  2  1  0  0  0  0
  6 10  1  0  0  0  0
  7  2  1  0  0  0  0
  9 13  1  0  0  0  0
  9  6  1  0  0  0  0
  9 12  1  0  0  0  0
 11  6  1  0  0  0  0
 14  9  1  0  0  0  0
M  END
$$$$
