14
butane_opt
C  -3.926104   0.248333  -0.040958
C  -2.711161  -0.587609   0.150788
H  -4.839011  -0.376406  -0.363948
H  -3.659193   0.576160  -0.677941
H  -4.186025   1.291637   1.007914
C  -1.423340   0.161164   0.022030
H  -2.569219  -1.275267  -0.750677
H  -2.694135  -1.169822   0.974570
C  -0.172609  -0.709007  -0.014913
H  -1.392774   0.741673   0.843382
H  -1.509876   0.861934  -0.938456
H  -0.070447  -1.246952   0.831865
H   0.810414  -0.019757  -0.075376
H  -0.121246  -1.212395  -0.758646
