14
butane_opt
C  -3.960275   0.271704   0.037981
C  -2.706505  -0.632257   0.023109
H  -4.860829  -0.282280  -0.008895
H  -3.984923   0.784907  -0.798890
H  -3.959759   1.036305   0.973406
C  -1.396175   0.177881  -0.025866
H  -2.731120  -1.295968  -0.833560
H  -2.701188  -1.213202   0.896622
C  -0.143557  -0.689405   0.056346
H  -1.401829   0.794547   0.808702
H  -1.432798   0.872167  -0.945014
H  -0.154354  -1.296174   0.964209
H   0.784468  -0.071081   0.075270
H  -0.112566  -1.335181  -0.776812
