14
butane_opt
C  -3.942469   0.289391  -0.045462
C  -2.693799  -0.675120   0.111492
H  -4.794572  -0.215672   0.355622
H  -4.138077   1.413515  -1.179473
H  -4.096220   0.584582   0.453552
C  -1.411815   0.166615   0.109912
H  -2.559466  -1.385215  -0.798983
H  -2.844389  -1.227017   0.951045
C  -0.155801  -0.665160  -0.062593
H  -1.170129   0.801492   1.029712
H  -1.423959   0.688099  -0.701168
H  -0.138716  -0.960142   0.682662
H   0.729038  -0.089590   0.211196
H  -0.138948  -1.458923  -0.964400
