14
butane_opt
C  -3.959121   0.262309  -0.011414
C  -2.705734  -0.613894   0.059859
H  -4.848723  -0.322076   0.176478
H  -4.012569   0.990673  -0.980744
H  -3.973232   0.838996   0.770512
C  -1.397450   0.189144   0.043363
H  -2.704057  -1.342483  -0.810695
H  -2.710197  -1.257292   0.975314
C  -0.150119  -0.701475   0.007465
H  -1.356509   0.919351   0.910804
H  -1.423807   0.785238  -0.807766
H  -0.117621  -1.259946   0.857435
H   0.783368  -0.064123   0.028756
H  -0.110441  -1.386476  -0.882846
