14
butane_opt
C  -3.906631   0.226952   0.085995
C  -2.696987  -0.584523  -0.020010
H  -4.878781  -0.457653  -0.489689
H  -3.855499   0.465660  -0.478772
H  -3.948928   1.482250   1.338213
C  -1.447651   0.203822  -0.077933
H  -2.629817  -1.266626  -0.795763
H  -2.663443  -1.356458   0.919635
C  -0.171753  -0.687427   0.098669
H  -1.318556   0.759316   0.632055
H  -1.451857   1.018031  -1.152591
H  -0.131998  -1.544186   1.131530
H   0.620190  -0.285609  -0.018618
H  -0.063941  -1.217111  -0.610098
