butane_opt
 OpenBabel08242015383D

 14 13  0  0  0  0  0  0  0  0999 V2000
   -3.9373    0.2317   -0.0445 C   0  0  0  0  0  0  0  0  0  0  0  0
   -2.7183   -0.5923    0.0450 C   0  0  0  0  0  0  0  0  0  0  0  0
   -4.8420   -0.4572    0.0264 H   0  0  0  0  0  0  0  0  0  0  0  0
   -3.9108    0.8854   -0.9197 H   0  0  0  0  0  0  0  0  0  0  0  0
   -4.0885    0.9229    0.8352 H   0  0  0  0  0  0  0  0  0  0  0  0
   -1.3962    0.2525    0.1112 C   0  0  0  0  0  0  0  0  0  0  0  0
   -2.7495   -1.1498   -0.7462 H   0  0  0  0  0  0  0  0  0  0  0  0
   -3.0270   -1.3860    1.0572 H   0  0  0  0  0  0  0  0  0  0  0  0
   -0.1206   -0.7470   -0.0264 C   0  0  0  0  0  0  0  0  0  0  0  0
   -1.3971    1.1248    1.0725 H   0  0  0  0  0  0  0  0  0  0  0  0
   -1.3810    0.8174   -0.6597 H   0  0  0  0  0  0  0  0  0  0  0  0
    0.1906   -1.5437    0.9594 H   0  0  0  0  0  0  0  0  0  0  0  0
    0.6435   -0.2956   -0.4464 H   0  0  0  0  0  0  0  0  0  0  0  0
   -0.3466   -1.1483   -0.7298 H   0  0  0  0  0  0  0  0  0  0  0  0
  1  3  1  0  0  0  0
  1  2  1  0  0  0  0
  1  5  1  0  0  0  0
  2  6  1  0  0  0  0
  2  8  1  0  0  0  0
  4  1  1  0  0  0  0
  6 10  1  0  0  0  0
  7  2  1  0  0  0  0
  9  6  1  0  0  0  0
  9 12  1  0  0  0  0
 11  6  1  0  0  0  0
 13  9  1  0  0  0  0
 14  9  1  0  0  0  0
M  END
$$$$
