14
butane_opt
C  -3.939462   0.265715   0.028362
C  -2.703495  -0.628551   0.019115
H  -4.842173  -0.322867   0.013485
H  -4.004898   0.826308  -0.819338
H  -3.959811   1.024046   0.914943
C  -1.409191   0.192974   0.007110
H  -2.683075  -1.352389  -0.864772
H  -2.729461  -1.225504   0.878830
C  -0.159333  -0.693905   0.051646
H  -1.403941   0.851366   0.862032
H  -1.397116   0.858705  -0.900333
H  -0.071841  -1.424035   1.024714
H   0.768834  -0.071823  -0.162819
H  -0.168764  -1.266280  -0.764438
