butane_opt
 OpenBabel08242015383D

 14 13  0  0  0  0  0  0  0  0999 V2000
   -4.0030    0.3068   -0.0806 C   0  0  0  0  0  0  0  0  0  0  0  0
   -2.6893   -0.6627    0.1567 C   0  0  0  0  0  0  0  0  0  0  0  0
   -4.8628   -0.2552   -0.2563 H   0  0  0  0  0  0  0  0  0  0  0  0
   -3.7432    0.7471   -0.8151 H   0  0  0  0  0  0  0  0  0  0  0  0
   -4.2938    0.9956    0.7867 H   0  0  0  0  0  0  0  0  0  0  0  0
   -1.3648    0.1694    0.0993 C   0  0  0  0  0  0  0  0  0  0  0  0
   -2.5881   -1.1495   -0.5569 H   0  0  0  0  0  0  0  0  0  0  0  0
   -2.8194   -1.3451    1.1501 H   0  0  0  0  0  0  0  0  0  0  0  0
   -0.1436   -0.6759   -0.0468 C   0  0  0  0  0  0  0  0  0  0  0  0
   -1.1678    0.7477    0.8534 H   0  0  0  0  0  0  0  0  0  0  0  0
   -1.3665    0.8487   -0.8277 H   0  0  0  0  0  0  0  0  0  0  0  0
   -0.1132   -1.1041    0.6975 H   0  0  0  0  0  0  0  0  0  0  0  0
    0.7099   -0.0478   -0.0174 H   0  0  0  0  0  0  0  0  0  0  0  0
   -0.3666   -1.5864   -1.1066 H   0  0  0  0  0  0  0  0  0  0  0  0
  1  2  1  0  0  0  0
  1  5  1  0  0  0  0
  2  8  1  0  0  0  0
  3  1  1  0  0  0  0
  4  1  1  0  0  0  0
  6  2  1  0  0  0  0
  6 10  1  0  0  0  0
  7  2  1  0  0  0  0
  9 13  1  0  0  0  0
  9  6  1  0  0  0  0
  9 12  1  0  0  0  0
 11  6  1  0  0  0  0
 14  9  1  0  0  0  0
M  END
$$$$
