butane_opt
 OpenBabel08242015383D

 14 13  0  0  0  0  0  0  0  0999 V2000
   -3.9615    0.2707   -0.0881 C   0  0  0  0  0  0  0  0  0  0  0  0
   -2.7098   -0.6736    0.1976 C   0  0  0  0  0  0  0  0  0  0  0  0
   -4.7478   -0.1802   -0.2387 H   0  0  0  0  0  0  0  0  0  0  0  0
   -3.7237    0.9512   -1.0096 H   0  0  0  0  0  0  0  0  0  0  0  0
   -4.4099    1.0166    0.7428 H   0  0  0  0  0  0  0  0  0  0  0  0
   -1.3864    0.2064    0.1188 C   0  0  0  0  0  0  0  0  0  0  0  0
   -2.7029   -1.2467   -0.5930 H   0  0  0  0  0  0  0  0  0  0  0  0
   -2.7540   -1.2532    1.0511 H   0  0  0  0  0  0  0  0  0  0  0  0
   -0.1449   -0.6956   -0.0841 C   0  0  0  0  0  0  0  0  0  0  0  0
   -1.2781    0.9121    0.9823 H   0  0  0  0  0  0  0  0  0  0  0  0
   -1.3374    0.7609   -0.8312 H   0  0  0  0  0  0  0  0  0  0  0  0
   -0.1387   -1.2234    0.6853 H   0  0  0  0  0  0  0  0  0  0  0  0
    0.8003   -0.0321   -0.0308 H   0  0  0  0  0  0  0  0  0  0  0  0
   -0.2973   -1.4703   -1.0478 H   0  0  0  0  0  0  0  0  0  0  0  0
  1  2  1  0  0  0  0
  1  5  1  0  0  0  0
  2  8  1  0  0  0  0
  3  1  1  0  0  0  0
  4  1  1  0  0  0  0
  6  2  1  0  0  0  0
  6 10  1  0  0  0  0
  7  2  1  0  0  0  0
  9 13  1  0  0  0  0
  9  6  1  0  0  0  0
  9 12  1  0  0  0  0
 11  6  1  0  0  0  0
 14  9  1  0  0  0  0
M  END
$$$$
