butane_opt
 OpenBabel08242015383D

 14 13  0  0  0  0  0  0  0  0999 V2000
   -3.9380    0.2307   -0.1114 C   0  0  0  0  0  0  0  0  0  0  0  0
   -2.6849   -0.5919    0.1318 C   0  0  0  0  0  0  0  0  0  0  0  0
   -4.8006   -0.3769   -0.0701 H   0  0  0  0  0  0  0  0  0  0  0  0
   -3.8229    0.9773   -1.0521 H   0  0  0  0  0  0  0  0  0  0  0  0
   -3.9118    0.8796    0.6987 H   0  0  0  0  0  0  0  0  0  0  0  0
   -1.4178    0.2086    0.1700 C   0  0  0  0  0  0  0  0  0  0  0  0
   -2.6626   -1.1191   -0.6033 H   0  0  0  0  0  0  0  0  0  0  0  0
   -2.7160   -1.2335    1.0307 H   0  0  0  0  0  0  0  0  0  0  0  0
   -0.1987   -0.7195   -0.0839 C   0  0  0  0  0  0  0  0  0  0  0  0
   -1.2877    1.1160    1.1823 H   0  0  0  0  0  0  0  0  0  0  0  0
   -1.3373    0.6126   -0.6304 H   0  0  0  0  0  0  0  0  0  0  0  0
    0.2561   -1.5305    0.9501 H   0  0  0  0  0  0  0  0  0  0  0  0
    0.6598   -0.1278   -0.4903 H   0  0  0  0  0  0  0  0  0  0  0  0
   -0.5220   -1.2112   -0.8487 H   0  0  0  0  0  0  0  0  0  0  0  0
  1  3  1  0  0  0  0
  1  2  1  0  0  0  0
  1  5  1  0  0  0  0
  2  6  1  0  0  0  0
  2  8  1  0  0  0  0
  4  1  1  0  0  0  0
  6 10  1  0  0  0  0
  7  2  1  0  0  0  0
  9  6  1  0  0  0  0
  9 12  1  0  0  0  0
 11  6  1  0  0  0  0
 13  9  1  0  0  0  0
 14  9  1  0  0  0  0
M  END
$$$$
