butane_opt
 OpenBabel08242015383D

 14 12  0  0  0  0  0  0  0  0999 V2000
   -3.9895    0.2778   -0.0523 C   0  0  0  0  0  0  0  0  0  0  0  0
   -2.6681   -0.6289    0.1222 C   0  0  0  0  0  0  0  0  0  0  0  0
   -4.9712   -0.2799    0.1978 H   0  0  0  0  0  0  0  0  0  0  0  0
   -3.9927    1.1821   -1.1952 H   0  0  0  0  0  0  0  0  0  0  0  0
   -4.0243    0.6927    0.6423 H   0  0  0  0  0  0  0  0  0  0  0  0
   -1.3745    0.1399    0.0669 C   0  0  0  0  0  0  0  0  0  0  0  0
   -2.7357   -1.1656   -0.5972 H   0  0  0  0  0  0  0  0  0  0  0  0
   -2.7593   -1.3285    1.0977 H   0  0  0  0  0  0  0  0  0  0  0  0
   -0.1585   -0.6628   -0.0140 C   0  0  0  0  0  0  0  0  0  0  0  0
   -1.2424    0.9077    0.9965 H   0  0  0  0  0  0  0  0  0  0  0  0
   -1.3457    0.8627   -0.8388 H   0  0  0  0  0  0  0  0  0  0  0  0
   -0.2143   -0.8504    0.5939 H   0  0  0  0  0  0  0  0  0  0  0  0
    0.7170   -0.0987    0.2548 H   0  0  0  0  0  0  0  0  0  0  0  0
   -0.1623   -1.9351   -1.2731 H   0  0  0  0  0  0  0  0  0  0  0  0
  1  2  1  0  0  0  0
  1  3  1  0  0  0  0
  1  5  1  0  0  0  0
  2  8  1  0  0  0  0
  4  1  1  0  0  0  0
  6  2  1  0  0  0  0
  6 10  1  0  0  0  0
  7  2  1  0  0  0  0
  9  6  1  0  0  0  0
  9 13  1  0  0  0  0
  9 12  1  0  0  0  0
 11  6  1  0  0  0  0
M  RAD  2   9   2  14   2
M  END
$$$$
