butane_opt
 OpenBabel08242015383D

 14 13  0  0  0  0  0  0  0  0999 V2000
   -3.9337    0.2799   -0.0931 C   0  0  0  0  0  0  0  0  0  0  0  0
   -2.6708   -0.6401    0.1874 C   0  0  0  0  0  0  0  0  0  0  0  0
   -4.8006   -0.3071   -0.3939 H   0  0  0  0  0  0  0  0  0  0  0  0
   -3.6004    0.7135   -0.8924 H   0  0  0  0  0  0  0  0  0  0  0  0
   -4.3310    1.1064    0.7623 H   0  0  0  0  0  0  0  0  0  0  0  0
   -1.3975    0.1816    0.1078 C   0  0  0  0  0  0  0  0  0  0  0  0
   -2.5552   -1.1450   -0.4828 H   0  0  0  0  0  0  0  0  0  0  0  0
   -2.6534   -1.4714    1.1762 H   0  0  0  0  0  0  0  0  0  0  0  0
   -0.2382   -0.6680   -0.0900 C   0  0  0  0  0  0  0  0  0  0  0  0
   -1.3656    0.9295    1.0389 H   0  0  0  0  0  0  0  0  0  0  0  0
   -1.4244    0.7017   -0.6570 H   0  0  0  0  0  0  0  0  0  0  0  0
   -0.0521   -1.3598    0.7422 H   0  0  0  0  0  0  0  0  0  0  0  0
    0.8028   -0.0286   -0.1392 H   0  0  0  0  0  0  0  0  0  0  0  0
   -0.1907   -1.4359   -1.0494 H   0  0  0  0  0  0  0  0  0  0  0  0
  1  2  1  0  0  0  0
  1  5  1  0  0  0  0
  2  8  1  0  0  0  0
  3  1  1  0  0  0  0
  4  1  1  0  0  0  0
  6  2  1  0  0  0  0
  6 10  1  0  0  0  0
  7  2  1  0  0  0  0
  9  6  1  0  0  0  0
  9 12  1  0  0  0  0
 11  6  1  0  0  0  0
 13  9  1  0  0  0  0
 14  9  1  0  0  0  0
M  END
$$$$
