butane_opt
 OpenBabel08242015383D

 14 13  0  0  0  0  0  0  0  0999 V2000
   -3.9089    0.2908   -0.0642 C   0  0  0  0  0  0  0  0  0  0  0  0
   -2.6917   -0.6453    0.1792 C   0  0  0  0  0  0  0  0  0  0  0  0
   -4.8425   -0.2467   -0.4543 H   0  0  0  0  0  0  0  0  0  0  0  0
   -3.7850    0.8473   -0.9357 H   0  0  0  0  0  0  0  0  0  0  0  0
   -4.1391    1.1509    0.9296 H   0  0  0  0  0  0  0  0  0  0  0  0
   -1.3911    0.1528    0.0891 C   0  0  0  0  0  0  0  0  0  0  0  0
   -2.5707   -1.3858   -0.6731 H   0  0  0  0  0  0  0  0  0  0  0  0
   -2.7323   -1.3672    1.1681 H   0  0  0  0  0  0  0  0  0  0  0  0
   -0.2142   -0.6502   -0.0709 C   0  0  0  0  0  0  0  0  0  0  0  0
   -1.2793    0.7420    0.8967 H   0  0  0  0  0  0  0  0  0  0  0  0
   -1.4470    0.7966   -0.9018 H   0  0  0  0  0  0  0  0  0  0  0  0
   -0.2829   -1.2383    0.8244 H   0  0  0  0  0  0  0  0  0  0  0  0
    0.7135   -0.0866    0.0212 H   0  0  0  0  0  0  0  0  0  0  0  0
   -0.1967   -1.4532   -1.0363 H   0  0  0  0  0  0  0  0  0  0  0  0
  1  2  1  0  0  0  0
  1  5  1  0  0  0  0
  2  8  1  0  0  0  0
  3  1  1  0  0  0  0
  4  1  1  0  0  0  0
  6  2  1  0  0  0  0
  6 10  1  0  0  0  0
  7  2  1  0  0  0  0
  9 13  1  0  0  0  0
  9  6  1  0  0  0  0
  9 12  1  0  0  0  0
 11  6  1  0  0  0  0
 14  9  1  0  0  0  0
M  END
$$$$
