14
butane_opt
C  -3.957740   0.276501  -0.049061
C  -2.639578  -0.594920   0.087586
H  -4.871600  -0.404448   0.308109
H  -4.049173   1.382104  -1.255313
H  -3.834548   0.478397   0.534340
C  -1.405900   0.144649   0.126106
H  -2.758659  -1.277843  -0.812392
H  -2.636454  -1.341874   1.025855
C  -0.191587  -0.661263  -0.047760
H  -1.337056   0.831598   1.063557
H  -1.422487   0.634893  -0.682427
H  -0.177495  -1.094152   0.775594
H   0.709670  -0.090983   0.104572
H  -0.306549  -1.548663  -1.107051
