14
butane_opt
C  -3.922812   0.278832   0.004634
C  -2.690056  -0.651663   0.048767
H  -4.738741  -0.174887  -0.000427
H  -3.960807   0.926090  -0.886356
H  -4.003627   0.973497   0.834482
C  -1.384400   0.157743   0.015044
H  -2.600261  -1.099948  -0.644962
H  -2.677111  -1.403817   1.035276
C  -0.226145  -0.689729   0.025735
H  -1.407129   0.877279   0.974948
H  -1.351474   0.792741  -0.874540
H  -0.326629  -1.089771   0.748867
H   0.837954   0.025502   0.072478
H  -0.133268  -1.430167  -0.981659
