14
butane_opt
C  -3.943899   0.250005   0.090452
C  -2.683949  -0.580598  -0.008654
H  -4.820748  -0.414853  -0.158545
H  -3.683101   0.621706  -0.645447
H  -4.023063   1.116829   1.088889
C  -1.415433   0.207712  -0.077865
H  -2.918112  -1.351917  -1.011008
H  -2.688299  -1.145109   0.783386
C  -0.157466  -0.718826   0.101282
H  -1.456053   0.820277   0.783148
H  -1.431259   0.879429  -1.039164
H  -0.219815  -1.564912   1.237813
H   0.809107  -0.053081  -0.142888
H  -0.194275  -1.272886  -0.675065
