butane_opt
 OpenBabel08242015383D

 14 13  0  0  0  0  0  0  0  0999 V2000
   -3.9357    0.2919    0.0679 C   0  0  0  0  0  0  0  0  0  0  0  0
   -2.6268   -0.6731   -0.0281 C   0  0  0  0  0  0  0  0  0  0  0  0
   -4.8657   -0.2894    0.3120 H   0  0  0  0  0  0  0  0  0  0  0  0
   -4.1817    1.1408   -0.9768 H   0  0  0  0  0  0  0  0  0  0  0  0
   -3.8375    0.8594    0.8499 H   0  0  0  0  0  0  0  0  0  0  0  0
   -1.4001    0.1444   -0.0227 C   0  0  0  0  0  0  0  0  0  0  0  0
   -2.7601   -1.4478   -0.9637 H   0  0  0  0  0  0  0  0  0  0  0  0
   -2.5711   -1.0528    0.7695 H   0  0  0  0  0  0  0  0  0  0  0  0
   -0.2190   -0.6489    0.0798 C   0  0  0  0  0  0  0  0  0  0  0  0
   -1.5012    0.8091    0.8172 H   0  0  0  0  0  0  0  0  0  0  0  0
   -1.1960    0.7400   -0.8781 H   0  0  0  0  0  0  0  0  0  0  0  0
   -0.2622   -1.2758    1.0902 H   0  0  0  0  0  0  0  0  0  0  0  0
    0.6186   -0.0959   -0.0286 H   0  0  0  0  0  0  0  0  0  0  0  0
   -0.2723   -1.2420   -0.7551 H   0  0  0  0  0  0  0  0  0  0  0  0
  1  3  1  0  0  0  0
  1  5  1  0  0  0  0
  2  6  1  0  0  0  0
  2  1  1  0  0  0  0
  2  8  1  0  0  0  0
  4  1  1  0  0  0  0
  6  9  1  0  0  0  0
  6 10  1  0  0  0  0
  7  2  1  0  0  0  0
  9 12  1  0  0  0  0
 11  6  1  0  0  0  0
 13  9  1  0  0  0  0
 14  9  1  0  0  0  0
M  END
$$$$
