butane_opt
 OpenBabel08242015383D

 14 13  0  0  0  0  0  0  0  0999 V2000
   -3.9105    0.3050   -0.0063 C   0  0  0  0  0  0  0  0  0  0  0  0
   -2.6898   -0.6542    0.1019 C   0  0  0  0  0  0  0  0  0  0  0  0
   -4.8629   -0.2955    0.1140 H   0  0  0  0  0  0  0  0  0  0  0  0
   -3.9782    1.0185   -0.9929 H   0  0  0  0  0  0  0  0  0  0  0  0
   -4.0148    0.8356    0.7742 H   0  0  0  0  0  0  0  0  0  0  0  0
   -1.3999    0.1458    0.0093 C   0  0  0  0  0  0  0  0  0  0  0  0
   -2.6365   -1.4031   -0.7189 H   0  0  0  0  0  0  0  0  0  0  0  0
   -2.6114   -1.2328    0.9452 H   0  0  0  0  0  0  0  0  0  0  0  0
   -0.2210   -0.6629    0.0016 C   0  0  0  0  0  0  0  0  0  0  0  0
   -1.1585    0.8330    0.8699 H   0  0  0  0  0  0  0  0  0  0  0  0
   -1.4278    0.8748   -0.9980 H   0  0  0  0  0  0  0  0  0  0  0  0
   -0.3469   -1.0625    0.7313 H   0  0  0  0  0  0  0  0  0  0  0  0
    0.7456   -0.0613    0.4952 H   0  0  0  0  0  0  0  0  0  0  0  0
   -0.0845   -1.5893   -1.0696 H   0  0  0  0  0  0  0  0  0  0  0  0
  1  2  1  0  0  0  0
  1  3  1  0  0  0  0
  1  5  1  0  0  0  0
  2  8  1  0  0  0  0
  4  1  1  0  0  0  0
  6  2  1  0  0  0  0
  6 10  1  0  0  0  0
  7  2  1  0  0  0  0
  9  6  1  0  0  0  0
  9 13  1  0  0  0  0
  9 12  1  0  0  0  0
 11  6  1  0  0  0  0
 14  9  1  0  0  0  0
M  END
$$$$
