butane_opt
 OpenBabel08242015383D

 14 13  0  0  0  0  0  0  0  0999 V2000
   -3.9361    0.2603    0.0123 C   0  0  0  0  0  0  0  0  0  0  0  0
   -2.7055   -0.6202    0.0390 C   0  0  0  0  0  0  0  0  0  0  0  0
   -4.8494   -0.3536    0.0868 H   0  0  0  0  0  0  0  0  0  0  0  0
   -4.0492    0.9479   -0.9336 H   0  0  0  0  0  0  0  0  0  0  0  0
   -3.9491    0.8997    0.8571 H   0  0  0  0  0  0  0  0  0  0  0  0
   -1.4080    0.1929    0.0126 C   0  0  0  0  0  0  0  0  0  0  0  0
   -2.7367   -1.2329   -0.7634 H   0  0  0  0  0  0  0  0  0  0  0  0
   -2.7265   -1.3152    0.9612 H   0  0  0  0  0  0  0  0  0  0  0  0
   -0.1515   -0.6946    0.0309 C   0  0  0  0  0  0  0  0  0  0  0  0
   -1.4099    0.8888    0.8803 H   0  0  0  0  0  0  0  0  0  0  0  0
   -1.4338    0.8269   -0.8639 H   0  0  0  0  0  0  0  0  0  0  0  0
   -0.1234   -1.2206    0.8651 H   0  0  0  0  0  0  0  0  0  0  0  0
    0.7478   -0.1267    0.1120 H   0  0  0  0  0  0  0  0  0  0  0  0
   -0.0788   -1.4483   -0.9149 H   0  0  0  0  0  0  0  0  0  0  0  0
  1  2  1  0  0  0  0
  1  3  1  0  0  0  0
  1  5  1  0  0  0  0
  2  8  1  0  0  0  0
  4  1  1  0  0  0  0
  6  9  1  0  0  0  0
  6  2  1  0  0  0  0
  6 10  1  0  0  0  0
  7  2  1  0  0  0  0
  9 13  1  0  0  0  0
  9 12  1  0  0  0  0
 11  6  1  0  0  0  0
 14  9  1  0  0  0  0
M  END
$$$$
