butane_opt
 OpenBabel08242015383D

 14 12  0  0  0  0  0  0  0  0999 V2000
   -3.9827    0.2440   -0.0469 C   0  0  0  0  0  0  0  0  0  0  0  0
   -2.7181   -0.5863    0.0721 C   0  0  0  0  0  0  0  0  0  0  0  0
   -4.9230   -0.4264    0.3922 H   0  0  0  0  0  0  0  0  0  0  0  0
   -4.0262    1.1632   -1.0847 H   0  0  0  0  0  0  0  0  0  0  0  0
   -3.8417    0.4119    0.5073 H   0  0  0  0  0  0  0  0  0  0  0  0
   -1.4040    0.2414    0.0836 C   0  0  0  0  0  0  0  0  0  0  0  0
   -2.7768   -1.1790   -0.7987 H   0  0  0  0  0  0  0  0  0  0  0  0
   -2.5283   -1.2627    0.9923 H   0  0  0  0  0  0  0  0  0  0  0  0
   -0.1399   -0.7283   -0.0169 C   0  0  0  0  0  0  0  0  0  0  0  0
   -1.3732    1.0843    1.0717 H   0  0  0  0  0  0  0  0  0  0  0  0
   -1.4503    0.6077   -0.6086 H   0  0  0  0  0  0  0  0  0  0  0  0
   -0.0129   -1.1925    0.7716 H   0  0  0  0  0  0  0  0  0  0  0  0
    0.8140   -0.1785   -0.0610 H   0  0  0  0  0  0  0  0  0  0  0  0
    0.0308   -1.5451   -0.9285 H   0  0  0  0  0  0  0  0  0  0  0  0
  1  2  1  0  0  0  0
  1  3  1  0  0  0  0
  2  6  1  0  0  0  0
  2  8  1  0  0  0  0
  4  1  1  0  0  0  0
  6 10  1  0  0  0  0
  7  2  1  0  0  0  0
  9  6  1  0  0  0  0
  9 12  1  0  0  0  0
 11  6  1  0  0  0  0
 13  9  1  0  0  0  0
 14  9  1  0  0  0  0
M  RAD  2   1   2   5   2
M  END
$$$$
