butane_opt
 OpenBabel08242015383D

 14 13  0  0  0  0  0  0  0  0999 V2000
   -3.9650    0.2927   -0.0765 C   0  0  0  0  0  0  0  0  0  0  0  0
   -2.6504   -0.6302    0.1959 C   0  0  0  0  0  0  0  0  0  0  0  0
   -4.9189   -0.3573   -0.5616 H   0  0  0  0  0  0  0  0  0  0  0  0
   -3.6750    0.7242   -0.9085 H   0  0  0  0  0  0  0  0  0  0  0  0
   -4.0933    1.0770    0.8401 H   0  0  0  0  0  0  0  0  0  0  0  0
   -1.3944    0.1503    0.0591 C   0  0  0  0  0  0  0  0  0  0  0  0
   -2.6312   -1.1381   -0.5315 H   0  0  0  0  0  0  0  0  0  0  0  0
   -2.6997   -1.4083    1.1978 H   0  0  0  0  0  0  0  0  0  0  0  0
   -0.2043   -0.6731   -0.0494 C   0  0  0  0  0  0  0  0  0  0  0  0
   -1.2121    0.9329    0.9877 H   0  0  0  0  0  0  0  0  0  0  0  0
   -1.5752    0.7034   -0.6892 H   0  0  0  0  0  0  0  0  0  0  0  0
   -0.1433   -1.2211    0.7848 H   0  0  0  0  0  0  0  0  0  0  0  0
    0.7777    0.0195   -0.0644 H   0  0  0  0  0  0  0  0  0  0  0  0
   -0.3029   -1.4964   -1.1706 H   0  0  0  0  0  0  0  0  0  0  0  0
  1  2  1  0  0  0  0
  1  5  1  0  0  0  0
  2  8  1  0  0  0  0
  3  1  1  0  0  0  0
  4  1  1  0  0  0  0
  6  2  1  0  0  0  0
  6 10  1  0  0  0  0
  7  2  1  0  0  0  0
  9  6  1  0  0  0  0
  9 12  1  0  0  0  0
 11  6  1  0  0  0  0
 13  9  1  0  0  0  0
 14  9  1  0  0  0  0
M  END
$$$$
