14
butane_opt
C  -3.914791   0.251483  -0.122032
C  -2.734065  -0.581402   0.189083
H  -4.954728  -0.487603  -0.196693
H  -3.640678   0.725053  -0.925970
H  -4.058906   1.012014   0.797978
C  -1.418447   0.210813   0.099791
H  -2.619722  -1.154755  -0.560142
H  -2.707652  -1.322995   1.278977
C  -0.155939  -0.738803  -0.091439
H  -1.241799   1.010550   1.055037
H  -1.669261   0.685423  -0.632369
H  -0.041847  -1.197782   0.739866
H   0.719947  -0.123415  -0.050671
H  -0.112941  -1.352089  -0.956509
