butane_opt
 OpenBabel08242015383D

 14 13  0  0  0  0  0  0  0  0999 V2000
   -3.9341    0.2618    0.0246 C   0  0  0  0  0  0  0  0  0  0  0  0
   -2.6989   -0.6179    0.0202 C   0  0  0  0  0  0  0  0  0  0  0  0
   -4.8298   -0.3047    0.0477 H   0  0  0  0  0  0  0  0  0  0  0  0
   -3.9791    0.8736   -0.8713 H   0  0  0  0  0  0  0  0  0  0  0  0
   -4.0050    1.0038    0.9335 H   0  0  0  0  0  0  0  0  0  0  0  0
   -1.4020    0.1772    0.0200 C   0  0  0  0  0  0  0  0  0  0  0  0
   -2.6622   -1.3397   -0.8556 H   0  0  0  0  0  0  0  0  0  0  0  0
   -2.7353   -1.2190    0.9014 H   0  0  0  0  0  0  0  0  0  0  0  0
   -0.1695   -0.6892    0.0422 C   0  0  0  0  0  0  0  0  0  0  0  0
   -1.3884    0.8368    0.8384 H   0  0  0  0  0  0  0  0  0  0  0  0
   -1.3689    0.8615   -0.9044 H   0  0  0  0  0  0  0  0  0  0  0  0
   -0.1248   -1.3926    0.9784 H   0  0  0  0  0  0  0  0  0  0  0  0
    0.7608   -0.1091   -0.1039 H   0  0  0  0  0  0  0  0  0  0  0  0
   -0.2283   -1.2628   -0.7867 H   0  0  0  0  0  0  0  0  0  0  0  0
  1  3  1  0  0  0  0
  1  5  1  0  0  0  0
  2  1  1  0  0  0  0
  2  8  1  0  0  0  0
  4  1  1  0  0  0  0
  6  2  1  0  0  0  0
  6  9  1  0  0  0  0
  6 10  1  0  0  0  0
  7  2  1  0  0  0  0
  9 12  1  0  0  0  0
 11  6  1  0  0  0  0
 13  9  1  0  0  0  0
 14  9  1  0  0  0  0
M  END
$$$$
