butane_opt
 OpenBabel08242015383D

 14 12  0  0  0  0  0  0  0  0999 V2000
   -3.9532    0.2494   -0.0342 C   0  0  0  0  0  0  0  0  0  0  0  0
   -2.7327   -0.6236    0.0431 C   0  0  0  0  0  0  0  0  0  0  0  0
   -4.8421   -0.3633    0.4620 H   0  0  0  0  0  0  0  0  0  0  0  0
   -4.2041    1.3634   -1.2195 H   0  0  0  0  0  0  0  0  0  0  0  0
   -3.7749    0.5679    0.5610 H   0  0  0  0  0  0  0  0  0  0  0  0
   -1.3920    0.2398    0.1330 C   0  0  0  0  0  0  0  0  0  0  0  0
   -2.7939   -1.3309   -0.8248 H   0  0  0  0  0  0  0  0  0  0  0  0
   -2.7247   -1.3171    0.9272 H   0  0  0  0  0  0  0  0  0  0  0  0
   -0.1437   -0.7357   -0.0214 C   0  0  0  0  0  0  0  0  0  0  0  0
   -1.3807    0.9458    0.9699 H   0  0  0  0  0  0  0  0  0  0  0  0
   -1.3469    0.8847   -0.7955 H   0  0  0  0  0  0  0  0  0  0  0  0
    0.0467   -1.1216    0.7806 H   0  0  0  0  0  0  0  0  0  0  0  0
    0.7782   -0.1057    0.0162 H   0  0  0  0  0  0  0  0  0  0  0  0
   -0.1175   -1.5400   -0.9576 H   0  0  0  0  0  0  0  0  0  0  0  0
  1  2  1  0  0  0  0
  1  3  1  0  0  0  0
  1  5  1  0  0  0  0
  2  6  1  0  0  0  0
  2  8  1  0  0  0  0
  6 10  1  0  0  0  0
  7  2  1  0  0  0  0
  9 13  1  0  0  0  0
  9  6  1  0  0  0  0
  9 12  1  0  0  0  0
 11  6  1  0  0  0  0
 14  9  1  0  0  0  0
M  RAD  2   1   2   4   2
M  END
$$$$
