14
butane_opt
C  -3.917791   0.239219   0.138569
C  -2.715736  -0.573912  -0.129165
H  -4.845161  -0.441349   0.437876
H  -4.116274   1.138195  -0.850141
H  -3.681182   0.743351   0.952016
C  -1.438931   0.160858  -0.066027
H  -2.785184  -1.400290  -1.066111
H  -2.529967  -1.051050   0.664664
C  -0.168981  -0.701284   0.139606
H  -1.460433   0.863807   0.700408
H  -1.364437   0.956158  -1.068917
H  -0.136333  -1.436308   1.138021
H   0.808592  -0.049279   0.169085
H  -0.021011  -1.293074  -0.640583
