butane_opt
 OpenBabel08242015383D

 14 13  0  0  0  0  0  0  0  0999 V2000
   -3.9038    0.2153    0.0404 C   0  0  0  0  0  0  0  0  0  0  0  0
   -2.7014   -0.5417   -0.0370 C   0  0  0  0  0  0  0  0  0  0  0  0
   -4.8681   -0.4072    0.3827 H   0  0  0  0  0  0  0  0  0  0  0  0
   -4.2108    0.9990   -0.9294 H   0  0  0  0  0  0  0  0  0  0  0  0
   -3.6905    0.7439    0.9350 H   0  0  0  0  0  0  0  0  0  0  0  0
   -1.4364    0.1862   -0.0105 C   0  0  0  0  0  0  0  0  0  0  0  0
   -2.7340   -1.1829   -0.8763 H   0  0  0  0  0  0  0  0  0  0  0  0
   -2.6861   -1.2781    0.8907 H   0  0  0  0  0  0  0  0  0  0  0  0
   -0.1442   -0.7318    0.0658 C   0  0  0  0  0  0  0  0  0  0  0  0
   -1.4772    0.9323    0.8826 H   0  0  0  0  0  0  0  0  0  0  0  0
   -1.4518    0.8656   -0.8785 H   0  0  0  0  0  0  0  0  0  0  0  0
   -0.3231   -1.1981    0.9195 H   0  0  0  0  0  0  0  0  0  0  0  0
    0.6975   -0.1400    0.1257 H   0  0  0  0  0  0  0  0  0  0  0  0
   -0.0075   -1.3591   -0.7536 H   0  0  0  0  0  0  0  0  0  0  0  0
  1  3  1  0  0  0  0
  1  5  1  0  0  0  0
  2  6  1  0  0  0  0
  2  1  1  0  0  0  0
  2  8  1  0  0  0  0
  4  1  1  0  0  0  0
  6  9  1  0  0  0  0
  6 10  1  0  0  0  0
  7  2  1  0  0  0  0
  9 13  1  0  0  0  0
  9 12  1  0  0  0  0
 11  6  1  0  0  0  0
 14  9  1  0  0  0  0
M  END
$$$$
