butane_opt
 OpenBabel08242015383D

 14 13  0  0  0  0  0  0  0  0999 V2000
   -3.9736    0.2536    0.1170 C   0  0  0  0  0  0  0  0  0  0  0  0
   -2.7234   -0.6085   -0.0822 C   0  0  0  0  0  0  0  0  0  0  0  0
   -4.9469   -0.3083    0.4219 H   0  0  0  0  0  0  0  0  0  0  0  0
   -4.1434    0.9120   -0.7707 H   0  0  0  0  0  0  0  0  0  0  0  0
   -3.6605    0.8781    0.9728 H   0  0  0  0  0  0  0  0  0  0  0  0
   -1.3985    0.2048   -0.0811 C   0  0  0  0  0  0  0  0  0  0  0  0
   -2.8742   -1.3926   -1.1090 H   0  0  0  0  0  0  0  0  0  0  0  0
   -2.7407   -1.0519    0.6353 H   0  0  0  0  0  0  0  0  0  0  0  0
   -0.1104   -0.7203    0.1372 C   0  0  0  0  0  0  0  0  0  0  0  0
   -1.5629    0.6834    0.5797 H   0  0  0  0  0  0  0  0  0  0  0  0
   -1.2584    0.9767   -1.0450 H   0  0  0  0  0  0  0  0  0  0  0  0
   -0.0609   -1.2878    1.0167 H   0  0  0  0  0  0  0  0  0  0  0  0
    0.7562   -0.1611    0.2540 H   0  0  0  0  0  0  0  0  0  0  0  0
   -0.0605   -1.2792   -0.5931 H   0  0  0  0  0  0  0  0  0  0  0  0
  1  3  1  0  0  0  0
  1  5  1  0  0  0  0
  2  6  1  0  0  0  0
  2  1  1  0  0  0  0
  2  8  1  0  0  0  0
  4  1  1  0  0  0  0
  6  9  1  0  0  0  0
  6 10  1  0  0  0  0
  7  2  1  0  0  0  0
  9 13  1  0  0  0  0
  9 12  1  0  0  0  0
 11  6  1  0  0  0  0
 14  9  1  0  0  0  0
M  END
$$$$
