butane_opt
 OpenBabel08242015383D

 14 13  0  0  0  0  0  0  0  0999 V2000
   -3.9330    0.2406   -0.0294 C   0  0  0  0  0  0  0  0  0  0  0  0
   -2.7028   -0.5956    0.0471 C   0  0  0  0  0  0  0  0  0  0  0  0
   -4.8755   -0.3694    0.2950 H   0  0  0  0  0  0  0  0  0  0  0  0
   -4.0972    1.2000   -1.1594 H   0  0  0  0  0  0  0  0  0  0  0  0
   -3.6851    0.6522    0.6654 H   0  0  0  0  0  0  0  0  0  0  0  0
   -1.3998    0.1889    0.0632 C   0  0  0  0  0  0  0  0  0  0  0  0
   -2.7277   -1.1303   -0.7255 H   0  0  0  0  0  0  0  0  0  0  0  0
   -2.7237   -1.2816    1.0951 H   0  0  0  0  0  0  0  0  0  0  0  0
   -0.1655   -0.7075    0.0016 C   0  0  0  0  0  0  0  0  0  0  0  0
   -1.4184    1.1148    1.0813 H   0  0  0  0  0  0  0  0  0  0  0  0
   -1.5605    0.7096   -0.7317 H   0  0  0  0  0  0  0  0  0  0  0  0
   -0.0851   -1.1959    0.8468 H   0  0  0  0  0  0  0  0  0  0  0  0
    0.8313   -0.1111    0.0455 H   0  0  0  0  0  0  0  0  0  0  0  0
   -0.2644   -1.5834   -1.0223 H   0  0  0  0  0  0  0  0  0  0  0  0
  1  2  1  0  0  0  0
  1  3  1  0  0  0  0
  1  5  1  0  0  0  0
  2  6  1  0  0  0  0
  2  8  1  0  0  0  0
  4  1  1  0  0  0  0
  6 10  1  0  0  0  0
  7  2  1  0  0  0  0
  9 13  1  0  0  0  0
  9  6  1  0  0  0  0
  9 12  1  0  0  0  0
 11  6  1  0  0  0  0
 14  9  1  0  0  0  0
M  END
$$$$
