14
butane_opt
C  -3.946082   0.259209   0.012697
C  -2.713921  -0.618636   0.065504
H  -4.843226  -0.312846  -0.117265
H  -3.884798   0.787764  -0.845308
H  -4.028265   1.045103   0.951151
C  -1.403247   0.199408   0.008025
H  -2.714849  -1.307037  -0.799804
H  -2.740180  -1.232951   0.938517
C  -0.149850  -0.704146   0.024802
H  -1.383117   0.848731   0.841309
H  -1.393525   0.836309  -0.931442
H  -0.141113  -1.316972   0.920302
H   0.750858  -0.120218  -0.017665
H  -0.089042  -1.328916  -0.819861
