butane_opt
 OpenBabel08242015383D

 14 13  0  0  0  0  0  0  0  0999 V2000
   -4.0006    0.2909   -0.0821 C   0  0  0  0  0  0  0  0  0  0  0  0
   -2.6880   -0.6160    0.1732 C   0  0  0  0  0  0  0  0  0  0  0  0
   -4.8750   -0.3945   -0.3069 H   0  0  0  0  0  0  0  0  0  0  0  0
   -3.7619    0.8510   -0.9398 H   0  0  0  0  0  0  0  0  0  0  0  0
   -4.2352    0.9637    0.7752 H   0  0  0  0  0  0  0  0  0  0  0  0
   -1.3925    0.1545    0.0991 C   0  0  0  0  0  0  0  0  0  0  0  0
   -2.5982   -1.2547   -0.5787 H   0  0  0  0  0  0  0  0  0  0  0  0
   -2.8552   -1.4630    1.2975 H   0  0  0  0  0  0  0  0  0  0  0  0
   -0.1157   -0.6523   -0.0645 C   0  0  0  0  0  0  0  0  0  0  0  0
   -1.3740    0.7381    0.9482 H   0  0  0  0  0  0  0  0  0  0  0  0
   -1.3882    0.7800   -0.8411 H   0  0  0  0  0  0  0  0  0  0  0  0
    0.0150   -1.0161    0.6530 H   0  0  0  0  0  0  0  0  0  0  0  0
    0.6943   -0.1705    0.0837 H   0  0  0  0  0  0  0  0  0  0  0  0
   -0.2913   -1.6269   -1.1790 H   0  0  0  0  0  0  0  0  0  0  0  0
  1  2  1  0  0  0  0
  1  5  1  0  0  0  0
  2  8  1  0  0  0  0
  3  1  1  0  0  0  0
  4  1  1  0  0  0  0
  6  2  1  0  0  0  0
  6 10  1  0  0  0  0
  7  2  1  0  0  0  0
  9 13  1  0  0  0  0
  9  6  1  0  0  0  0
  9 12  1  0  0  0  0
 11  6  1  0  0  0  0
 14  9  1  0  0  0  0
M  END
$$$$
