butane_opt
 OpenBabel08242015383D

 14 13  0  0  0  0  0  0  0  0999 V2000
   -3.9068    0.2405    0.0634 C   0  0  0  0  0  0  0  0  0  0  0  0
   -2.7136   -0.5988   -0.0500 C   0  0  0  0  0  0  0  0  0  0  0  0
   -4.8919   -0.4101    0.5020 H   0  0  0  0  0  0  0  0  0  0  0  0
   -4.1427    0.9932   -0.8318 H   0  0  0  0  0  0  0  0  0  0  0  0
   -3.6557    0.6668    0.8652 H   0  0  0  0  0  0  0  0  0  0  0  0
   -1.4510    0.2306   -0.0562 C   0  0  0  0  0  0  0  0  0  0  0  0
   -2.8039   -1.3535   -0.9535 H   0  0  0  0  0  0  0  0  0  0  0  0
   -2.5330   -1.1751    0.7257 H   0  0  0  0  0  0  0  0  0  0  0  0
   -0.1489   -0.7118    0.0979 C   0  0  0  0  0  0  0  0  0  0  0  0
   -1.3937    1.0839    0.9496 H   0  0  0  0  0  0  0  0  0  0  0  0
   -1.3625    0.8362   -0.9659 H   0  0  0  0  0  0  0  0  0  0  0  0
   -0.3152   -1.3845    1.0213 H   0  0  0  0  0  0  0  0  0  0  0  0
    0.6405   -0.2887    0.0879 H   0  0  0  0  0  0  0  0  0  0  0  0
    0.0982   -1.3832   -0.6560 H   0  0  0  0  0  0  0  0  0  0  0  0
  1  3  1  0  0  0  0
  1  5  1  0  0  0  0
  2  1  1  0  0  0  0
  2  8  1  0  0  0  0
  4  1  1  0  0  0  0
  6  2  1  0  0  0  0
  6  9  1  0  0  0  0
  6 10  1  0  0  0  0
  7  2  1  0  0  0  0
  9 12  1  0  0  0  0
 11  6  1  0  0  0  0
 13  9  1  0  0  0  0
 14  9  1  0  0  0  0
M  END
$$$$
