butane_opt
 OpenBabel08242015383D

 14 12  0  0  0  0  0  0  0  0999 V2000
   -3.9319    0.2411    0.0590 C   0  0  0  0  0  0  0  0  0  0  0  0
   -2.7070   -0.5771   -0.0400 C   0  0  0  0  0  0  0  0  0  0  0  0
   -4.9142   -0.4370   -0.0297 H   0  0  0  0  0  0  0  0  0  0  0  0
   -3.8865    0.5902   -0.6944 H   0  0  0  0  0  0  0  0  0  0  0  0
   -3.6976    1.1877    1.1509 H   0  0  0  0  0  0  0  0  0  0  0  0
   -1.4324    0.2045   -0.0136 C   0  0  0  0  0  0  0  0  0  0  0  0
   -2.6747   -1.4312   -1.0154 H   0  0  0  0  0  0  0  0  0  0  0  0
   -2.5218   -1.0193    0.7844 H   0  0  0  0  0  0  0  0  0  0  0  0
   -0.1716   -0.7089    0.1089 C   0  0  0  0  0  0  0  0  0  0  0  0
   -1.4892    0.6679    0.6713 H   0  0  0  0  0  0  0  0  0  0  0  0
   -1.3904    0.9155   -0.9888 H   0  0  0  0  0  0  0  0  0  0  0  0
    0.0575   -1.7330    1.2390 H   0  0  0  0  0  0  0  0  0  0  0  0
    0.7428   -0.1022   -0.3565 H   0  0  0  0  0  0  0  0  0  0  0  0
   -0.3333   -1.0236   -0.6265 H   0  0  0  0  0  0  0  0  0  0  0  0
  1  5  1  0  0  0  0
  2  6  1  0  0  0  0
  2  1  1  0  0  0  0
  2  8  1  0  0  0  0
  3  1  1  0  0  0  0
  4  1  1  0  0  0  0
  6  9  1  0  0  0  0
  6 10  1  0  0  0  0
  7  2  1  0  0  0  0
 11  6  1  0  0  0  0
 13  9  1  0  0  0  0
 14  9  1  0  0  0  0
M  RAD  2   9   2  12   2
M  END
$$$$
