14
butane_opt
C  -3.944792   0.228983   0.091621
C  -2.728513  -0.593287   0.006622
H  -4.780187  -0.334480  -0.327171
H  -3.924586   0.475119  -0.640137
H  -4.175467   1.331076   1.190072
C  -1.405668   0.220339  -0.091891
H  -2.724598  -1.277787  -0.832650
H  -2.710453  -1.168367   0.776202
C  -0.139920  -0.722163   0.121088
H  -1.521969   0.712074   0.653365
H  -1.288346   1.047141  -1.104498
H   0.070870  -1.450586   1.015948
H   0.810965  -0.042859  -0.049816
H  -0.149510  -1.368648  -0.716245
