14
butane_opt
C  -3.910514   0.304997  -0.006299
C  -2.689815  -0.654176   0.101887
H  -4.862869  -0.295480   0.113987
H  -3.978157   1.018547  -0.992930
H  -4.014811   0.835608   0.774219
C  -1.399934   0.145845   0.009317
H  -2.636481  -1.403130  -0.718904
H  -2.611446  -1.232799   0.945244
C  -0.221016  -0.662881   0.001590
H  -1.158534   0.833006   0.869943
H  -1.427756   0.874755  -0.997984
H  -0.346892  -1.062548   0.731328
H   0.745570  -0.061279   0.495218
H  -0.084537  -1.589264  -1.069601
