14
butane_opt
C  -3.951233   0.261832   0.026052
C  -2.708420  -0.605628   0.029321
H  -4.859822  -0.360669  -0.027668
H  -3.959143   0.819628  -0.844587
H  -3.964791   0.954955   0.909250
C  -1.413986   0.195820   0.015257
H  -2.744222  -1.340511  -0.869178
H  -2.734239  -1.239544   0.920366
C  -0.139531  -0.706616   0.030808
H  -1.406524   0.901974   0.848776
H  -1.383734   0.801493  -0.865466
H  -0.090465  -1.431130   0.999902
H   0.791189  -0.106174  -0.100695
H  -0.113661  -1.209439  -0.733527
