14
butane_opt
C  -3.983508   0.283229  -0.079646
C  -2.720047  -0.632938   0.186308
H  -4.934772  -0.292719  -0.173043
H  -3.837359   0.944675  -1.018614
H  -4.143173   0.939001   0.697984
C  -1.382360   0.155168   0.094734
H  -2.590188  -1.215684  -0.549605
H  -2.892453  -1.240939   1.119710
C  -0.142869  -0.686871  -0.068271
H  -1.205301   0.831803   0.873173
H  -1.326579   0.767238  -0.773203
H   0.036371  -1.002616   0.568556
H   0.749083  -0.137517   0.193771
H  -0.137057  -1.507841  -1.102058
