14
butane_opt
C  -3.937428   0.278639   0.017769
C  -2.655907  -0.624582   0.061517
H  -4.739131  -0.276136   0.003957
H  -4.002873   0.963740  -0.954789
H  -3.931460   0.755303   0.753433
C  -1.425215   0.174721  -0.018998
H  -2.679549  -1.177975  -0.625076
H  -2.657399  -1.538826   1.115426
C  -0.190854  -0.684906   0.020931
H  -1.366033   0.896426   0.922108
H  -1.381925   0.851732  -0.881173
H  -0.390452  -0.849310   0.720348
H   0.800668  -0.071555   0.464882
H  -0.166695  -1.744343  -1.124230
