butane_opt
 OpenBabel08242015383D

 14 13  0  0  0  0  0  0  0  0999 V2000
   -3.9241    0.2764    0.0845 C   0  0  0  0  0  0  0  0  0  0  0  0
   -2.7024   -0.6306   -0.0056 C   0  0  0  0  0  0  0  0  0  0  0  0
   -4.7548   -0.3059   -0.1125 H   0  0  0  0  0  0  0  0  0  0  0  0
   -3.9347    0.7674   -0.7209 H   0  0  0  0  0  0  0  0  0  0  0  0
   -3.9698    1.0321    1.0250 H   0  0  0  0  0  0  0  0  0  0  0  0
   -1.4294    0.1536   -0.0604 C   0  0  0  0  0  0  0  0  0  0  0  0
   -2.6740   -1.2042   -0.8279 H   0  0  0  0  0  0  0  0  0  0  0  0
   -2.5396   -1.2298    0.8294 H   0  0  0  0  0  0  0  0  0  0  0  0
   -0.1811   -0.6922    0.1051 C   0  0  0  0  0  0  0  0  0  0  0  0
   -1.4519    0.6286    0.6794 H   0  0  0  0  0  0  0  0  0  0  0  0
   -1.4469    0.9887   -1.1262 H   0  0  0  0  0  0  0  0  0  0  0  0
   -0.2702   -1.0607    0.8626 H   0  0  0  0  0  0  0  0  0  0  0  0
    0.8800    0.0494    0.2084 H   0  0  0  0  0  0  0  0  0  0  0  0
   -0.0442   -1.4135   -0.8676 H   0  0  0  0  0  0  0  0  0  0  0  0
  1  5  1  0  0  0  0
  2  1  1  0  0  0  0
  2  8  1  0  0  0  0
  3  1  1  0  0  0  0
  4  1  1  0  0  0  0
  6  2  1  0  0  0  0
  6  9  1  0  0  0  0
  6 10  1  0  0  0  0
  7  2  1  0  0  0  0
  9 13  1  0  0  0  0
  9 12  1  0  0  0  0
 11  6  1  0  0  0  0
 14  9  1  0  0  0  0
M  END
$$$$
