14
butane_opt
C  -3.959077   0.264651  -0.062116
C  -2.705175  -0.601036   0.169742
H  -4.835510  -0.346963  -0.054628
H  -3.917993   1.161467  -1.090205
H  -4.131204   0.822251   0.721021
C  -1.355838   0.166424   0.057523
H  -2.754284  -1.269805  -0.660307
H  -2.831059  -1.386101   1.198055
C  -0.171534  -0.691019  -0.059854
H  -1.278596   0.821568   0.930748
H  -1.588481   0.840959  -0.771809
H  -0.221504  -0.949861   0.552061
H   0.855455  -0.014888   0.496569
H  -0.026514  -1.805136  -1.194318
