14
butane_opt
C  -3.974328   0.297105  -0.010582
C  -2.695531  -0.661845   0.008598
H  -4.925062  -0.230983   0.511530
H  -4.348655   1.362922  -1.197408
H  -3.984775   0.609981   0.611766
C  -1.360388   0.156962   0.081048
H  -2.621175  -1.260626  -0.751399
H  -2.741245  -1.439822   1.038491
C  -0.170993  -0.673557  -0.003890
H  -1.209664   1.011300   1.023555
H  -1.153488   0.674270  -0.710460
H  -0.063970  -1.109930   0.744863
H   0.722691  -0.103098   0.179089
H  -0.251810  -1.413772  -0.957611
