14
butane_opt
C  -3.906792   0.240474   0.063366
C  -2.713635  -0.598760  -0.049999
H  -4.891917  -0.410123   0.501991
H  -4.142678   0.993220  -0.831786
H  -3.655676   0.666777   0.865164
C  -1.451006   0.230635  -0.056180
H  -2.803885  -1.353498  -0.953500
H  -2.533048  -1.175099   0.725722
C  -0.148934  -0.711791   0.097902
H  -1.393728   1.083862   0.949601
H  -1.362541   0.836203  -0.965913
H  -0.315157  -1.384469   1.021348
H   0.640501  -0.288672   0.087922
H   0.098175  -1.383182  -0.656006
