butane_opt
 OpenBabel08242015383D

 14 13  0  0  0  0  0  0  0  0999 V2000
   -3.9698    0.2844    0.0760 C   0  0  0  0  0  0  0  0  0  0  0  0
   -2.6500   -0.6176    0.0134 C   0  0  0  0  0  0  0  0  0  0  0  0
   -4.8427   -0.2916    0.0060 H   0  0  0  0  0  0  0  0  0  0  0  0
   -4.0738    0.8597   -0.8124 H   0  0  0  0  0  0  0  0  0  0  0  0
   -3.7737    1.0413    1.0228 H   0  0  0  0  0  0  0  0  0  0  0  0
   -1.4066    0.1260   -0.0757 C   0  0  0  0  0  0  0  0  0  0  0  0
   -2.7085   -1.2876   -0.9177 H   0  0  0  0  0  0  0  0  0  0  0  0
   -2.6333   -1.3118    0.8928 H   0  0  0  0  0  0  0  0  0  0  0  0
   -0.1981   -0.6448    0.0663 C   0  0  0  0  0  0  0  0  0  0  0  0
   -1.4091    0.6814    0.7162 H   0  0  0  0  0  0  0  0  0  0  0  0
   -1.3364    0.7407   -1.0005 H   0  0  0  0  0  0  0  0  0  0  0  0
   -0.4613   -1.1825    0.9664 H   0  0  0  0  0  0  0  0  0  0  0  0
    0.7984   -0.0585    0.4101 H   0  0  0  0  0  0  0  0  0  0  0  0
    0.0855   -1.4113   -0.8183 H   0  0  0  0  0  0  0  0  0  0  0  0
  1  5  1  0  0  0  0
  2  1  1  0  0  0  0
  2  8  1  0  0  0  0
  3  1  1  0  0  0  0
  4  1  1  0  0  0  0
  6  2  1  0  0  0  0
  6  9  1  0  0  0  0
  6 10  1  0  0  0  0
  7  2  1  0  0  0  0
  9 13  1  0  0  0  0
  9 12  1  0  0  0  0
 11  6  1  0  0  0  0
 14  9  1  0  0  0  0
M  END
$$$$
