butane_opt
 OpenBabel08242015383D

 14 13  0  0  0  0  0  0  0  0999 V2000
   -3.9874    0.3142   -0.0176 C   0  0  0  0  0  0  0  0  0  0  0  0
   -2.6850   -0.6665    0.1157 C   0  0  0  0  0  0  0  0  0  0  0  0
   -4.8908   -0.3274   -0.0433 H   0  0  0  0  0  0  0  0  0  0  0  0
   -4.0797    0.9617   -0.9461 H   0  0  0  0  0  0  0  0  0  0  0  0
   -4.1485    0.9506    0.8086 H   0  0  0  0  0  0  0  0  0  0  0  0
   -1.3982    0.1316   -0.0176 C   0  0  0  0  0  0  0  0  0  0  0  0
   -2.8478   -1.2805   -0.6698 H   0  0  0  0  0  0  0  0  0  0  0  0
   -2.6532   -1.4247    1.1436 H   0  0  0  0  0  0  0  0  0  0  0  0
   -0.1151   -0.6579    0.0120 C   0  0  0  0  0  0  0  0  0  0  0  0
   -1.3059    0.9621    0.9158 H   0  0  0  0  0  0  0  0  0  0  0  0
   -1.4465    0.7241   -0.8606 H   0  0  0  0  0  0  0  0  0  0  0  0
   -0.3778   -0.8903    0.6576 H   0  0  0  0  0  0  0  0  0  0  0  0
    0.8830   -0.0348    0.3427 H   0  0  0  0  0  0  0  0  0  0  0  0
    0.0656   -1.5681   -1.0757 H   0  0  0  0  0  0  0  0  0  0  0  0
  1  2  1  0  0  0  0
  1  5  1  0  0  0  0
  2  8  1  0  0  0  0
  3  1  1  0  0  0  0
  4  1  1  0  0  0  0
  6  9  1  0  0  0  0
  6  2  1  0  0  0  0
  6 10  1  0  0  0  0
  7  2  1  0  0  0  0
  9 13  1  0  0  0  0
  9 12  1  0  0  0  0
 11  6  1  0  0  0  0
 14  9  1  0  0  0  0
M  END
$$$$
