butane_opt
 OpenBabel08242015383D

 14 13  0  0  0  0  0  0  0  0999 V2000
   -3.9868    0.2287    0.1422 C   0  0  0  0  0  0  0  0  0  0  0  0
   -2.7539   -0.5548   -0.0344 C   0  0  0  0  0  0  0  0  0  0  0  0
   -4.8558   -0.3554    0.0787 H   0  0  0  0  0  0  0  0  0  0  0  0
   -3.8924    0.7656   -0.7249 H   0  0  0  0  0  0  0  0  0  0  0  0
   -3.9432    0.8961    1.0242 H   0  0  0  0  0  0  0  0  0  0  0  0
   -1.3804    0.2140   -0.1477 C   0  0  0  0  0  0  0  0  0  0  0  0
   -2.8066   -1.3977   -1.0197 H   0  0  0  0  0  0  0  0  0  0  0  0
   -2.5825   -1.0955    0.7544 H   0  0  0  0  0  0  0  0  0  0  0  0
   -0.1203   -0.7180    0.1506 C   0  0  0  0  0  0  0  0  0  0  0  0
   -1.4613    0.8165    0.5842 H   0  0  0  0  0  0  0  0  0  0  0  0
   -1.2074    0.9612   -1.1480 H   0  0  0  0  0  0  0  0  0  0  0  0
   -0.2723   -1.2412    0.9817 H   0  0  0  0  0  0  0  0  0  0  0  0
    0.7021   -0.2134    0.2988 H   0  0  0  0  0  0  0  0  0  0  0  0
    0.2021   -1.6606   -0.7400 H   0  0  0  0  0  0  0  0  0  0  0  0
  1  5  1  0  0  0  0
  2  1  1  0  0  0  0
  2  8  1  0  0  0  0
  3  1  1  0  0  0  0
  4  1  1  0  0  0  0
  6  2  1  0  0  0  0
  6  9  1  0  0  0  0
  6 10  1  0  0  0  0
  7  2  1  0  0  0  0
  9 13  1  0  0  0  0
  9 12  1  0  0  0  0
 11  6  1  0  0  0  0
 14  9  1  0  0  0  0
M  END
$$$$
