14
butane_opt
C  -3.985098   0.237185   0.089199
C  -2.709169  -0.586402  -0.020033
H  -4.902522  -0.417511  -0.309791
H  -3.887344   0.595342  -0.587110
H  -3.961122   1.235149   1.139363
C  -1.428768   0.192617  -0.049744
H  -2.832695  -1.221381  -0.840908
H  -2.520574  -1.146117   0.806443
C  -0.116271  -0.694068   0.107752
H  -1.464148   0.613090   0.601721
H  -1.226006   0.980110  -1.184250
H   0.013801  -1.449959   1.035173
H   0.744015  -0.167613   0.015257
H  -0.115522  -1.299119  -0.735276
