butane_opt
 OpenBabel08242015383D

 14 13  0  0  0  0  0  0  0  0999 V2000
   -3.9506    0.2180    0.1384 C   0  0  0  0  0  0  0  0  0  0  0  0
   -2.7308   -0.5746   -0.0258 C   0  0  0  0  0  0  0  0  0  0  0  0
   -4.9643   -0.3924    0.0273 H   0  0  0  0  0  0  0  0  0  0  0  0
   -4.0273    0.8154   -0.7487 H   0  0  0  0  0  0  0  0  0  0  0  0
   -3.9108    1.0868    1.0748 H   0  0  0  0  0  0  0  0  0  0  0  0
   -1.3868    0.2365   -0.1545 C   0  0  0  0  0  0  0  0  0  0  0  0
   -2.9537   -1.3593   -0.9778 H   0  0  0  0  0  0  0  0  0  0  0  0
   -2.4595   -1.1094    0.6630 H   0  0  0  0  0  0  0  0  0  0  0  0
   -0.1596   -0.7317    0.1538 C   0  0  0  0  0  0  0  0  0  0  0  0
   -1.4707    0.6865    0.5393 H   0  0  0  0  0  0  0  0  0  0  0  0
   -1.2347    0.9475   -1.1280 H   0  0  0  0  0  0  0  0  0  0  0  0
   -0.1619   -1.2191    0.9210 H   0  0  0  0  0  0  0  0  0  0  0  0
    0.6931   -0.1693    0.4330 H   0  0  0  0  0  0  0  0  0  0  0  0
    0.2210   -1.5532   -0.7251 H   0  0  0  0  0  0  0  0  0  0  0  0
  1  5  1  0  0  0  0
  2  1  1  0  0  0  0
  2  8  1  0  0  0  0
  3  1  1  0  0  0  0
  4  1  1  0  0  0  0
  6  2  1  0  0  0  0
  6  9  1  0  0  0  0
  6 10  1  0  0  0  0
  7  2  1  0  0  0  0
  9 13  1  0  0  0  0
  9 12  1  0  0  0  0
 11  6  1  0  0  0  0
 14  9  1  0  0  0  0
M  END
$$$$
