butane_opt
 OpenBabel08242015383D

 14 13  0  0  0  0  0  0  0  0999 V2000
   -4.0082    0.2886    0.1187 C   0  0  0  0  0  0  0  0  0  0  0  0
   -2.7089   -0.6717   -0.0590 C   0  0  0  0  0  0  0  0  0  0  0  0
   -4.7728   -0.1564    0.3502 H   0  0  0  0  0  0  0  0  0  0  0  0
   -4.1869    0.9810   -0.7953 H   0  0  0  0  0  0  0  0  0  0  0  0
   -3.8488    0.9216    0.8513 H   0  0  0  0  0  0  0  0  0  0  0  0
   -1.3884    0.1560   -0.0787 C   0  0  0  0  0  0  0  0  0  0  0  0
   -2.6919   -1.5774   -1.0885 H   0  0  0  0  0  0  0  0  0  0  0  0
   -2.5166   -1.0228    0.6934 H   0  0  0  0  0  0  0  0  0  0  0  0
   -0.1491   -0.6443    0.1204 C   0  0  0  0  0  0  0  0  0  0  0  0
   -1.3682    0.6987    0.6761 H   0  0  0  0  0  0  0  0  0  0  0  0
   -1.2241    0.8548   -1.0465 H   0  0  0  0  0  0  0  0  0  0  0  0
   -0.2916   -1.3428    1.1146 H   0  0  0  0  0  0  0  0  0  0  0  0
    0.7191   -0.0582    0.1416 H   0  0  0  0  0  0  0  0  0  0  0  0
    0.1771   -1.2990   -0.6853 H   0  0  0  0  0  0  0  0  0  0  0  0
  1  3  1  0  0  0  0
  1  5  1  0  0  0  0
  2  1  1  0  0  0  0
  2  8  1  0  0  0  0
  4  1  1  0  0  0  0
  6  2  1  0  0  0  0
  6  9  1  0  0  0  0
  6 10  1  0  0  0  0
  7  2  1  0  0  0  0
  9 13  1  0  0  0  0
  9 12  1  0  0  0  0
 11  6  1  0  0  0  0
 14  9  1  0  0  0  0
M  END
$$$$
