14
butane_opt
C  -3.974186   0.299300   0.099530
C  -2.686236  -0.652048  -0.041422
H  -4.861027  -0.144616   0.216870
H  -4.220353   0.942777  -0.850337
H  -4.117886   0.848860   0.831310
C  -1.391963   0.121881  -0.048616
H  -2.816050  -1.399739  -0.933259
H  -2.708880  -1.249123   0.878356
C  -0.131473  -0.648318   0.106616
H  -1.468844   0.723477   0.719341
H  -1.229154   0.977924  -1.081469
H  -0.265098  -1.118015   0.898368
H   0.875959   0.038130   0.213270
H  -0.024954  -1.535586  -0.881826
