14
butane_opt
C  -3.983980   0.307255  -0.051730
C  -2.692545  -0.687307   0.104959
H  -4.879363  -0.303375   0.190374
H  -4.055925   1.208994  -1.180842
H  -3.989593   0.842774   0.759434
C  -1.401371   0.159648   0.072062
H  -2.591827  -1.251497  -0.585641
H  -2.690033  -1.488474   1.158347
C  -0.146165  -0.657074  -0.020519
H  -1.223060   0.905942   0.921290
H  -1.283723   0.774683  -0.792473
H  -0.295858  -0.856231   0.597529
H   0.738051  -0.096799   0.268515
H  -0.058308  -1.681930  -1.225164
