14
butane_opt
C  -3.943888   0.279265  -0.045103
C  -2.723593  -0.588226   0.135768
H  -5.022226  -0.477360  -0.284207
H  -3.836493   0.584815  -0.761431
H  -4.025650   0.965470   0.913480
C  -1.406307   0.221052   0.041393
H  -2.633484  -1.237025  -0.622336
H  -2.961216  -1.287423   1.052538
C  -0.126795  -0.720466  -0.003933
H  -1.312572   0.757732   0.748863
H  -1.422814   0.837314  -0.883215
H  -0.054850  -1.153096   0.769672
H   0.722056  -0.186730  -0.043998
H  -0.062987  -1.592820  -0.985374
