14
butane_opt
C  -3.911889   0.308610  -0.058030
C  -2.693416  -0.649917   0.084520
H  -4.820843  -0.294821   0.058587
H  -3.900282   0.892461  -0.935076
H  -4.005451   1.018636   0.849083
C  -1.397659   0.138959   0.123629
H  -2.594330  -1.449869  -0.896800
H  -2.793836  -1.119661   0.916282
C  -0.180773  -0.656579  -0.026289
H  -1.486375   0.767237   0.894861
H  -1.422225   0.679890  -0.735094
H  -0.035075  -1.544883   1.097971
H   0.856980   0.013412  -0.520942
H  -0.629721  -1.094739  -0.732624
