14
butane_opt
C  -3.924096   0.276369   0.084504
C  -2.702372  -0.630614  -0.005585
H  -4.754812  -0.305926  -0.112514
H  -3.934747   0.767419  -0.720892
H  -3.969798   1.032148   1.024976
C  -1.429432   0.153596  -0.060388
H  -2.673952  -1.204224  -0.827918
H  -2.539590  -1.229847   0.829406
C  -0.181073  -0.692150   0.105068
H  -1.451858   0.628628   0.679379
H  -1.446920   0.988703  -1.126179
H  -0.270222  -1.060684   0.862565
H   0.879980   0.049365   0.208357
H  -0.044182  -1.413548  -0.867587
