butane_opt
 OpenBabel08242015383D

 14 11  0  0  0  0  0  0  0  0999 V2000
   -3.9066    0.2270    0.0860 C   0  0  0  0  0  0  0  0  0  0  0  0
   -2.6970   -0.5845   -0.0200 C   0  0  0  0  0  0  0  0  0  0  0  0
   -4.8788   -0.4577   -0.4897 H   0  0  0  0  0  0  0  0  0  0  0  0
   -3.8555    0.4657   -0.4788 H   0  0  0  0  0  0  0  0  0  0  0  0
   -3.9489    1.4823    1.3382 H   0  0  0  0  0  0  0  0  0  0  0  0
   -1.4477    0.2038   -0.0779 C   0  0  0  0  0  0  0  0  0  0  0  0
   -2.6298   -1.2666   -0.7958 H   0  0  0  0  0  0  0  0  0  0  0  0
   -2.6634   -1.3565    0.9196 H   0  0  0  0  0  0  0  0  0  0  0  0
   -0.1718   -0.6874    0.0987 C   0  0  0  0  0  0  0  0  0  0  0  0
   -1.3186    0.7593    0.6321 H   0  0  0  0  0  0  0  0  0  0  0  0
   -1.4519    1.0180   -1.1526 H   0  0  0  0  0  0  0  0  0  0  0  0
   -0.1320   -1.5442    1.1315 H   0  0  0  0  0  0  0  0  0  0  0  0
    0.6202   -0.2856   -0.0186 H   0  0  0  0  0  0  0  0  0  0  0  0
   -0.0639   -1.2171   -0.6101 H   0  0  0  0  0  0  0  0  0  0  0  0
  2  1  1  0  0  0  0
  2  8  1  0  0  0  0
  3  1  1  0  0  0  0
  6  2  1  0  0  0  0
  6  9  1  0  0  0  0
  6 10  1  0  0  0  0
  7  2  1  0  0  0  0
  9 12  1  0  0  0  0
 11  6  1  0  0  0  0
 13  9  1  0  0  0  0
 14  9  1  0  0  0  0
M  RAD  3   1   3   4   2   5   2
M  END
$$$$
