butane_opt
 OpenBabel08242015383D

 14 13  0  0  0  0  0  0  0  0999 V2000
   -3.9369    0.2649    0.1191 C   0  0  0  0  0  0  0  0  0  0  0  0
   -2.6767   -0.6408   -0.0648 C   0  0  0  0  0  0  0  0  0  0  0  0
   -4.6908   -0.1466    0.1738 H   0  0  0  0  0  0  0  0  0  0  0  0
   -4.0908    0.9115   -0.7310 H   0  0  0  0  0  0  0  0  0  0  0  0
   -4.0081    0.9612    1.0350 H   0  0  0  0  0  0  0  0  0  0  0  0
   -1.4077    0.1631   -0.1365 C   0  0  0  0  0  0  0  0  0  0  0  0
   -2.7860   -1.3623   -0.9332 H   0  0  0  0  0  0  0  0  0  0  0  0
   -2.5007   -1.2483    0.8760 H   0  0  0  0  0  0  0  0  0  0  0  0
   -0.2011   -0.6645    0.1483 C   0  0  0  0  0  0  0  0  0  0  0  0
   -1.4359    0.8842    0.7286 H   0  0  0  0  0  0  0  0  0  0  0  0
   -1.3725    0.7647   -1.0030 H   0  0  0  0  0  0  0  0  0  0  0  0
   -0.3834   -1.2541    0.9832 H   0  0  0  0  0  0  0  0  0  0  0  0
    0.8585    0.0623    0.2057 H   0  0  0  0  0  0  0  0  0  0  0  0
    0.0342   -1.4860   -0.7124 H   0  0  0  0  0  0  0  0  0  0  0  0
  1  3  1  0  0  0  0
  1  5  1  0  0  0  0
  2  1  1  0  0  0  0
  2  8  1  0  0  0  0
  4  1  1  0  0  0  0
  6  2  1  0  0  0  0
  6  9  1  0  0  0  0
  6 10  1  0  0  0  0
  7  2  1  0  0  0  0
  9 13  1  0  0  0  0
  9 12  1  0  0  0  0
 11  6  1  0  0  0  0
 14  9  1  0  0  0  0
M  END
$$$$
