14
butane_opt
C  -3.937448   0.301449  -0.076910
C  -2.700516  -0.637696   0.166030
H  -4.807879  -0.320041  -0.289846
H  -3.702085   0.779210  -0.928083
H  -4.181511   1.027808   0.784066
C  -1.416281   0.149816   0.117967
H  -2.494394  -1.246936  -0.569357
H  -2.678986  -1.382222   1.073944
C  -0.197069  -0.670865  -0.057041
H  -1.481095   0.703755   0.899012
H  -1.331928   0.830306  -0.780012
H  -0.055844  -1.167996   0.716579
H   0.925664   0.086549  -0.159711
H  -0.245934  -1.462832  -1.121831
