butane_opt
 OpenBabel08242015383D

 14 11  0  0  0  0  0  0  0  0999 V2000
   -3.9425    0.2894   -0.0455 C   0  0  0  0  0  0  0  0  0  0  0  0
   -2.6938   -0.6751    0.1115 C   0  0  0  0  0  0  0  0  0  0  0  0
   -4.7946   -0.2157    0.3556 H   0  0  0  0  0  0  0  0  0  0  0  0
   -4.1381    1.4135   -1.1795 H   0  0  0  0  0  0  0  0  0  0  0  0
   -4.0962    0.5846    0.4536 H   0  0  0  0  0  0  0  0  0  0  0  0
   -1.4118    0.1666    0.1099 C   0  0  0  0  0  0  0  0  0  0  0  0
   -2.5595   -1.3852   -0.7990 H   0  0  0  0  0  0  0  0  0  0  0  0
   -2.8444   -1.2270    0.9510 H   0  0  0  0  0  0  0  0  0  0  0  0
   -0.1558   -0.6652   -0.0626 C   0  0  0  0  0  0  0  0  0  0  0  0
   -1.1701    0.8015    1.0297 H   0  0  0  0  0  0  0  0  0  0  0  0
   -1.4240    0.6881   -0.7012 H   0  0  0  0  0  0  0  0  0  0  0  0
   -0.1387   -0.9601    0.6827 H   0  0  0  0  0  0  0  0  0  0  0  0
    0.7290   -0.0896    0.2112 H   0  0  0  0  0  0  0  0  0  0  0  0
   -0.1389   -1.4589   -0.9644 H   0  0  0  0  0  0  0  0  0  0  0  0
  1  2  1  0  0  0  0
  1  3  1  0  0  0  0
  2  8  1  0  0  0  0
  6  2  1  0  0  0  0
  6 10  1  0  0  0  0
  7  2  1  0  0  0  0
  9  6  1  0  0  0  0
  9 13  1  0  0  0  0
  9 12  1  0  0  0  0
 11  6  1  0  0  0  0
 14  9  1  0  0  0  0
M  RAD  3   1   3   4   2   5   2
M  END
$$$$
