butane_opt
 OpenBabel08242015383D

 14 13  0  0  0  0  0  0  0  0999 V2000
   -3.9705    0.2305    0.1006 C   0  0  0  0  0  0  0  0  0  0  0  0
   -2.7119   -0.5778   -0.0201 C   0  0  0  0  0  0  0  0  0  0  0  0
   -5.0084   -0.4460   -0.0423 H   0  0  0  0  0  0  0  0  0  0  0  0
   -3.9639    0.7468   -0.6962 H   0  0  0  0  0  0  0  0  0  0  0  0
   -3.8516    1.0909    1.0304 H   0  0  0  0  0  0  0  0  0  0  0  0
   -1.4107    0.2045   -0.0853 C   0  0  0  0  0  0  0  0  0  0  0  0
   -2.8626   -1.1671   -0.7934 H   0  0  0  0  0  0  0  0  0  0  0  0
   -2.7344   -1.1810    0.8345 H   0  0  0  0  0  0  0  0  0  0  0  0
   -0.1045   -0.7085    0.1080 C   0  0  0  0  0  0  0  0  0  0  0  0
   -1.6055    0.7089    0.5704 H   0  0  0  0  0  0  0  0  0  0  0  0
   -1.1990    0.9674   -1.1194 H   0  0  0  0  0  0  0  0  0  0  0  0
   -0.1966   -1.1774    0.9426 H   0  0  0  0  0  0  0  0  0  0  0  0
    0.6772   -0.2491    0.3019 H   0  0  0  0  0  0  0  0  0  0  0  0
    0.1082   -1.5923   -0.8513 H   0  0  0  0  0  0  0  0  0  0  0  0
  1  5  1  0  0  0  0
  2  1  1  0  0  0  0
  2  8  1  0  0  0  0
  3  1  1  0  0  0  0
  4  1  1  0  0  0  0
  6  2  1  0  0  0  0
  6  9  1  0  0  0  0
  6 10  1  0  0  0  0
  7  2  1  0  0  0  0
  9 13  1  0  0  0  0
  9 12  1  0  0  0  0
 11  6  1  0  0  0  0
 14  9  1  0  0  0  0
M  END
$$$$
