butane_opt
 OpenBabel08242015383D

 14 13  0  0  0  0  0  0  0  0999 V2000
   -3.9179    0.3110    0.0620 C   0  0  0  0  0  0  0  0  0  0  0  0
   -2.6542   -0.6500   -0.0428 C   0  0  0  0  0  0  0  0  0  0  0  0
   -4.9213   -0.2729    0.3691 H   0  0  0  0  0  0  0  0  0  0  0  0
   -4.1616    1.0017   -0.8761 H   0  0  0  0  0  0  0  0  0  0  0  0
   -3.8739    0.8598    0.8596 H   0  0  0  0  0  0  0  0  0  0  0  0
   -1.4087    0.1225   -0.0223 C   0  0  0  0  0  0  0  0  0  0  0  0
   -2.8548   -1.4535   -0.9889 H   0  0  0  0  0  0  0  0  0  0  0  0
   -2.5666   -1.2193    0.7997 H   0  0  0  0  0  0  0  0  0  0  0  0
   -0.1870   -0.6695    0.0947 C   0  0  0  0  0  0  0  0  0  0  0  0
   -1.5356    0.7320    0.8492 H   0  0  0  0  0  0  0  0  0  0  0  0
   -1.3674    0.8475   -1.0367 H   0  0  0  0  0  0  0  0  0  0  0  0
   -0.1944   -1.1436    0.9556 H   0  0  0  0  0  0  0  0  0  0  0  0
    0.8534    0.0538    0.0903 H   0  0  0  0  0  0  0  0  0  0  0  0
   -0.3977   -1.2202   -0.6907 H   0  0  0  0  0  0  0  0  0  0  0  0
  1  3  1  0  0  0  0
  1  5  1  0  0  0  0
  2  6  1  0  0  0  0
  2  1  1  0  0  0  0
  2  8  1  0  0  0  0
  4  1  1  0  0  0  0
  6  9  1  0  0  0  0
  6 10  1  0  0  0  0
  7  2  1  0  0  0  0
  9 12  1  0  0  0  0
 11  6  1  0  0  0  0
 13  9  1  0  0  0  0
 14  9  1  0  0  0  0
M  END
$$$$
