14
butane_opt
C  -3.876271   0.230070   0.105377
C  -2.707190  -0.548646  -0.059883
H  -4.828643  -0.459965   0.517016
H  -4.064897   0.992114  -0.920934
H  -3.789452   0.623876   0.798429
C  -1.469456   0.221956  -0.066457
H  -2.845896  -1.496401  -1.156878
H  -2.618533  -1.038708   0.683790
C  -0.156122  -0.735662   0.118083
H  -1.557800   0.894845   0.813790
H  -1.286666   0.821896  -0.951022
H  -0.171156  -1.362520   1.073093
H   0.756218  -0.184367   0.078989
H  -0.083288  -1.269442  -0.674434
