14
butane_opt
C  -3.910853   0.234372   0.089685
C  -2.721705  -0.583457  -0.000293
H  -4.903586  -0.440045  -0.241814
H  -3.722776   0.506490  -0.621898
H  -4.039141   1.314212   1.179847
C  -1.445216   0.225894  -0.113730
H  -2.771098  -1.291918  -0.868315
H  -2.617818  -1.236716   0.830807
C  -0.140723  -0.730701   0.109619
H  -1.452004   0.849450   0.683065
H  -1.544126   0.817038  -0.942437
H  -0.142936  -1.480697   1.173030
H   0.805486  -0.062925  -0.025363
H  -0.013372  -1.209419  -0.685102
