14
butane_opt
C  -3.958323   0.289975   0.064956
C  -2.658318  -0.633175   0.026555
H  -4.819709  -0.263435  -0.033309
H  -3.987873   0.915475  -0.802984
H  -4.120767   1.119704   1.035767
C  -1.381989   0.122448  -0.081016
H  -2.822489  -1.302254  -0.849924
H  -2.709583  -1.316719   0.916968
C  -0.201566  -0.665166   0.083663
H  -1.422063   0.785543   0.779863
H  -1.306121   0.715769  -0.994160
H  -0.386679  -1.098035   0.892912
H   0.925237   0.065022   0.185218
H   0.006172  -1.427810  -0.838250
