butane_opt
 OpenBabel08242015383D

 14 13  0  0  0  0  0  0  0  0999 V2000
   -3.9583    0.2900    0.0650 C   0  0  0  0  0  0  0  0  0  0  0  0
   -2.6583   -0.6332    0.0266 C   0  0  0  0  0  0  0  0  0  0  0  0
   -4.8197   -0.2634   -0.0333 H   0  0  0  0  0  0  0  0  0  0  0  0
   -3.9879    0.9155   -0.8030 H   0  0  0  0  0  0  0  0  0  0  0  0
   -4.1208    1.1197    1.0358 H   0  0  0  0  0  0  0  0  0  0  0  0
   -1.3820    0.1224   -0.0810 C   0  0  0  0  0  0  0  0  0  0  0  0
   -2.8225   -1.3023   -0.8499 H   0  0  0  0  0  0  0  0  0  0  0  0
   -2.7096   -1.3167    0.9170 H   0  0  0  0  0  0  0  0  0  0  0  0
   -0.2016   -0.6652    0.0837 C   0  0  0  0  0  0  0  0  0  0  0  0
   -1.4221    0.7855    0.7799 H   0  0  0  0  0  0  0  0  0  0  0  0
   -1.3061    0.7158   -0.9942 H   0  0  0  0  0  0  0  0  0  0  0  0
   -0.3867   -1.0980    0.8929 H   0  0  0  0  0  0  0  0  0  0  0  0
    0.9252    0.0650    0.1852 H   0  0  0  0  0  0  0  0  0  0  0  0
    0.0062   -1.4278   -0.8383 H   0  0  0  0  0  0  0  0  0  0  0  0
  1  5  1  0  0  0  0
  2  1  1  0  0  0  0
  2  8  1  0  0  0  0
  3  1  1  0  0  0  0
  4  1  1  0  0  0  0
  6  2  1  0  0  0  0
  6  9  1  0  0  0  0
  6 10  1  0  0  0  0
  7  2  1  0  0  0  0
  9 13  1  0  0  0  0
  9 12  1  0  0  0  0
 11  6  1  0  0  0  0
 14  9  1  0  0  0  0
M  END
$$$$
