14
butane_opt
C  -3.937943   0.236083  -0.033878
C  -2.733894  -0.614324   0.065048
H  -4.811021  -0.326871   0.432592
H  -3.988361   1.262194  -1.256998
H  -3.737131   0.500620   0.516127
C  -1.414314   0.266467   0.123505
H  -2.864447  -1.228549  -0.784501
H  -2.888115  -1.198486   0.963226
C  -0.127012  -0.727797  -0.025376
H  -1.539660   0.989242   0.943324
H  -1.385711   0.730974  -0.696062
H  -0.015069  -1.220750   0.800696
H   0.795934  -0.235304  -0.056414
H  -0.050671  -1.652719  -1.052733
