butane_opt
 OpenBabel08242015383D

 14 12  0  0  0  0  0  0  0  0999 V2000
   -3.9741    0.2360   -0.0621 C   0  0  0  0  0  0  0  0  0  0  0  0
   -2.7090   -0.6099    0.1367 C   0  0  0  0  0  0  0  0  0  0  0  0
   -4.8801   -0.3245    0.0556 H   0  0  0  0  0  0  0  0  0  0  0  0
   -4.0145    0.9706   -1.0764 H   0  0  0  0  0  0  0  0  0  0  0  0
   -3.8571    0.6443    0.7252 H   0  0  0  0  0  0  0  0  0  0  0  0
   -1.4221    0.2472    0.0529 C   0  0  0  0  0  0  0  0  0  0  0  0
   -2.6277   -1.0059   -0.5470 H   0  0  0  0  0  0  0  0  0  0  0  0
   -2.7545   -1.3966    1.1233 H   0  0  0  0  0  0  0  0  0  0  0  0
   -0.1250   -0.7229   -0.0378 C   0  0  0  0  0  0  0  0  0  0  0  0
   -1.4035    1.0676    0.9845 H   0  0  0  0  0  0  0  0  0  0  0  0
   -1.2324    0.7816   -0.7376 H   0  0  0  0  0  0  0  0  0  0  0  0
   -0.1207   -0.9470    0.6089 H   0  0  0  0  0  0  0  0  0  0  0  0
    0.6962   -0.2789    0.2769 H   0  0  0  0  0  0  0  0  0  0  0  0
   -0.0414   -1.8200   -1.1356 H   0  0  0  0  0  0  0  0  0  0  0  0
  1  3  1  0  0  0  0
  1  2  1  0  0  0  0
  1  5  1  0  0  0  0
  2  8  1  0  0  0  0
  4  1  1  0  0  0  0
  6  2  1  0  0  0  0
  6 10  1  0  0  0  0
  7  2  1  0  0  0  0
  9  6  1  0  0  0  0
  9 13  1  0  0  0  0
  9 12  1  0  0  0  0
 11  6  1  0  0  0  0
M  RAD  2   9   2  14   2
M  END
$$$$
