butane_opt
 OpenBabel08242015383D

 14 13  0  0  0  0  0  0  0  0999 V2000
   -3.9495    0.2710    0.0102 C   0  0  0  0  0  0  0  0  0  0  0  0
   -2.7095   -0.6320    0.0535 C   0  0  0  0  0  0  0  0  0  0  0  0
   -4.8214   -0.2752    0.0086 H   0  0  0  0  0  0  0  0  0  0  0  0
   -3.9398    0.8957   -0.9058 H   0  0  0  0  0  0  0  0  0  0  0  0
   -4.0373    0.9206    0.8682 H   0  0  0  0  0  0  0  0  0  0  0  0
   -1.3979    0.1843    0.0088 C   0  0  0  0  0  0  0  0  0  0  0  0
   -2.7484   -1.2570   -0.7431 H   0  0  0  0  0  0  0  0  0  0  0  0
   -2.7123   -1.2727    0.9758 H   0  0  0  0  0  0  0  0  0  0  0  0
   -0.1535   -0.6879    0.0233 C   0  0  0  0  0  0  0  0  0  0  0  0
   -1.3505    0.8699    0.8541 H   0  0  0  0  0  0  0  0  0  0  0  0
   -1.4158    0.7977   -0.8517 H   0  0  0  0  0  0  0  0  0  0  0  0
   -0.1369   -1.2466    0.8815 H   0  0  0  0  0  0  0  0  0  0  0  0
    0.7523   -0.0781    0.1060 H   0  0  0  0  0  0  0  0  0  0  0  0
   -0.0974   -1.4507   -0.9100 H   0  0  0  0  0  0  0  0  0  0  0  0
  1  2  1  0  0  0  0
  1  5  1  0  0  0  0
  2  8  1  0  0  0  0
  3  1  1  0  0  0  0
  4  1  1  0  0  0  0
  6  9  1  0  0  0  0
  6  2  1  0  0  0  0
  6 10  1  0  0  0  0
  7  2  1  0  0  0  0
  9 13  1  0  0  0  0
  9 12  1  0  0  0  0
 11  6  1  0  0  0  0
 14  9  1  0  0  0  0
M  END
$$$$
