14
butane_opt
C  -3.980639   0.296232  -0.063852
C  -2.678109  -0.660530   0.153351
H  -4.890181  -0.224471  -0.414133
H  -3.948623   0.596657  -0.722474
H  -4.234675   1.238008   0.921535
C  -1.394238   0.169153   0.043918
H  -2.602575  -1.289484  -0.622875
H  -2.812928  -1.554877   1.197861
C  -0.147947  -0.644040  -0.023199
H  -1.170068   0.896615   0.879766
H  -1.450405   0.724944  -0.834359
H  -0.094398  -1.219596   0.780137
H   0.633533  -0.143754  -0.119882
H  -0.050020  -1.430526  -0.926580
