butane_opt
 OpenBabel08242015383D

 14 12  0  0  0  0  0  0  0  0999 V2000
   -3.9677    0.2196    0.0946 C   0  0  0  0  0  0  0  0  0  0  0  0
   -2.7080   -0.5944   -0.0840 C   0  0  0  0  0  0  0  0  0  0  0  0
   -4.8471   -0.3618    0.1288 H   0  0  0  0  0  0  0  0  0  0  0  0
   -4.1298    0.7135   -0.6678 H   0  0  0  0  0  0  0  0  0  0  0  0
   -3.8173    1.0522    1.0916 H   0  0  0  0  0  0  0  0  0  0  0  0
   -1.4294    0.2675   -0.0243 C   0  0  0  0  0  0  0  0  0  0  0  0
   -2.7571   -1.4579   -1.0580 H   0  0  0  0  0  0  0  0  0  0  0  0
   -2.7564   -1.0940    0.7133 H   0  0  0  0  0  0  0  0  0  0  0  0
   -0.1050   -0.7219    0.1089 C   0  0  0  0  0  0  0  0  0  0  0  0
   -1.5101    0.8636    0.7525 H   0  0  0  0  0  0  0  0  0  0  0  0
   -1.2385    0.9235   -1.0764 H   0  0  0  0  0  0  0  0  0  0  0  0
   -0.0805   -1.8593    1.3106 H   0  0  0  0  0  0  0  0  0  0  0  0
    0.7647   -0.2058   -0.3169 H   0  0  0  0  0  0  0  0  0  0  0  0
   -0.1135   -1.0861   -0.5300 H   0  0  0  0  0  0  0  0  0  0  0  0
  1  3  1  0  0  0  0
  1  5  1  0  0  0  0
  2  6  1  0  0  0  0
  2  1  1  0  0  0  0
  2  8  1  0  0  0  0
  4  1  1  0  0  0  0
  6  9  1  0  0  0  0
  6 10  1  0  0  0  0
  7  2  1  0  0  0  0
 11  6  1  0  0  0  0
 13  9  1  0  0  0  0
 14  9  1  0  0  0  0
M  RAD  2   9   2  12   2
M  END
$$$$
