14
butane_opt
C  -3.896898   0.221381   0.084378
C  -2.722418  -0.544631  -0.040953
H  -4.863390  -0.425271  -0.204159
H  -3.976264   0.612468  -0.671788
H  -3.856844   1.222981   1.206530
C  -1.409051   0.195447  -0.025965
H  -2.797323  -1.248153  -1.031590
H  -2.663365  -1.113340   0.786046
C  -0.177828  -0.738848   0.101625
H  -1.483837   0.660289   0.651111
H  -1.416603   0.971298  -1.046521
H  -0.044145  -1.652280   1.168834
H   0.792189   0.000983  -0.233489
H  -0.218810  -1.103668  -0.558634
