14
butane_opt
C  -3.949318   0.275229  -0.011340
C  -2.690083  -0.614672   0.080040
H  -4.846209  -0.328182   0.058602
H  -3.937759   0.900991  -0.899805
H  -3.990880   0.889043   0.808513
C  -1.405933   0.163498   0.021967
H  -2.654630  -1.288475  -0.757177
H  -2.700520  -1.284490   0.989395
C  -0.173683  -0.681767   0.009572
H  -1.318962   0.853452   0.876818
H  -1.431495   0.792953  -0.872451
H  -0.184599  -1.167305   0.809915
H   0.772672  -0.068581   0.150839
H  -0.111694  -1.474572  -0.934264
