14
butane_opt
C  -3.922892   0.271564  -0.066403
C  -2.682715  -0.625248   0.157056
H  -4.756840  -0.233964  -0.062994
H  -3.761649   0.824446  -0.983869
H  -4.188725   0.856565   0.731956
C  -1.417742   0.195849   0.081629
H  -2.695761  -1.220261  -0.621524
H  -2.655931  -1.364382   1.120341
C  -0.176102  -0.703902  -0.041408
H  -1.417134   0.743491   0.911307
H  -1.399202   0.866706  -0.880167
H  -0.269043  -0.962751   0.587673
H   0.760530  -0.007908   0.208868
H  -0.247000  -1.628455  -1.174583
