butane_opt
 OpenBabel08242015383D

 14 13  0  0  0  0  0  0  0  0999 V2000
   -3.8832    0.2534   -0.1105 C   0  0  0  0  0  0  0  0  0  0  0  0
   -2.7342   -0.5960    0.1391 C   0  0  0  0  0  0  0  0  0  0  0  0
   -4.7815   -0.3094    0.2689 H   0  0  0  0  0  0  0  0  0  0  0  0
   -3.8762    0.9132   -1.0043 H   0  0  0  0  0  0  0  0  0  0  0  0
   -3.7919    0.7465    0.6438 H   0  0  0  0  0  0  0  0  0  0  0  0
   -1.4151    0.2175    0.1116 C   0  0  0  0  0  0  0  0  0  0  0  0
   -2.6221   -1.1289   -0.5342 H   0  0  0  0  0  0  0  0  0  0  0  0
   -2.9116   -1.3561    1.0927 H   0  0  0  0  0  0  0  0  0  0  0  0
   -0.1845   -0.7221   -0.0733 C   0  0  0  0  0  0  0  0  0  0  0  0
   -1.4852    1.0198    1.0417 H   0  0  0  0  0  0  0  0  0  0  0  0
   -1.5425    0.6809   -0.6830 H   0  0  0  0  0  0  0  0  0  0  0  0
   -0.0658   -1.1247    0.6868 H   0  0  0  0  0  0  0  0  0  0  0  0
    0.7723   -0.1225    0.0683 H   0  0  0  0  0  0  0  0  0  0  0  0
   -0.1462   -1.6029   -0.9674 H   0  0  0  0  0  0  0  0  0  0  0  0
  1  2  1  0  0  0  0
  1  3  1  0  0  0  0
  1  5  1  0  0  0  0
  2  8  1  0  0  0  0
  4  1  1  0  0  0  0
  6  2  1  0  0  0  0
  6 10  1  0  0  0  0
  7  2  1  0  0  0  0
  9 13  1  0  0  0  0
  9  6  1  0  0  0  0
  9 12  1  0  0  0  0
 11  6  1  0  0  0  0
 14  9  1  0  0  0  0
M  END
$$$$
