14
butane_opt
C  -3.954354   0.309100  -0.019151
C  -2.631170  -0.677705   0.057438
H  -4.758378  -0.232091   0.414034
H  -4.021919   1.298783  -1.161733
H  -3.777145   0.544913   0.632816
C  -1.419406   0.140320   0.089757
H  -2.613970  -1.403020  -0.857570
H  -2.757262  -1.284593   0.926377
C  -0.220658  -0.642199  -0.015996
H  -1.278497   0.873759   0.924465
H  -1.470560   0.849339  -0.781204
H  -0.338941  -1.055462   0.862201
H   0.746395  -0.020507   0.118021
H  -0.088228  -1.574541  -1.042889
