14
butane_opt
C  -3.936331   0.326763  -0.031546
C  -2.683450  -0.647333   0.092842
H  -4.939901  -0.380061  -0.102876
H  -3.898132   0.827638  -0.878376
H  -4.032181   0.914174   0.755740
C  -1.381757   0.109743   0.074568
H  -2.672660  -1.343801  -0.697448
H  -2.597428  -1.164713   0.928339
C  -0.201032  -0.656195  -0.004845
H  -1.384557   0.834927   0.897420
H  -1.382961   0.825996  -0.852891
H  -0.013388  -1.325838   0.777486
H   0.753627  -0.016004  -0.121870
H  -0.437261  -1.243512  -0.829150
