14
butane_opt
C  -3.913983   0.248882  -0.062371
C  -2.694689  -0.567401   0.077182
H  -4.903551  -0.380304   0.270156
H  -3.953652   1.195267  -1.114684
H  -3.837946   0.600521   0.623175
C  -1.427599   0.189773   0.121480
H  -2.613550  -1.210631  -0.775393
H  -2.895185  -1.355013   1.052546
C  -0.161052  -0.720413  -0.034570
H  -1.385006   1.008708   1.142569
H  -1.376315   0.631593  -0.672624
H   0.002079  -1.276861   0.797933
H   0.821989  -0.039061  -0.202938
H  -0.501745  -1.439260  -0.930975
