14
butane_opt
C  -3.930369   0.219946   0.106990
C  -2.709112  -0.579332  -0.094069
H  -4.938243  -0.427952   0.336890
H  -4.224471   0.961423  -0.799025
H  -3.619058   0.881826   0.966108
C  -1.425656   0.218962  -0.058176
H  -2.670770  -1.228545  -0.952268
H  -2.611517  -1.115371   0.731606
C  -0.157899  -0.741793   0.108527
H  -1.625190   0.874633   0.760495
H  -1.322451   0.896848  -0.922627
H  -0.260991  -1.499790   1.076910
H   0.909382  -0.026426   0.121423
H   0.034317  -1.210718  -0.649117
