butane_opt
 OpenBabel08242015383D

 14 13  0  0  0  0  0  0  0  0999 V2000
   -3.9135    0.2195    0.0427 C   0  0  0  0  0  0  0  0  0  0  0  0
   -2.7144   -0.5457   -0.0327 C   0  0  0  0  0  0  0  0  0  0  0  0
   -4.8411   -0.4432    0.5107 H   0  0  0  0  0  0  0  0  0  0  0  0
   -4.0419    1.0581   -0.9367 H   0  0  0  0  0  0  0  0  0  0  0  0
   -3.6478    0.5992    0.7116 H   0  0  0  0  0  0  0  0  0  0  0  0
   -1.4246    0.2280    0.0048 C   0  0  0  0  0  0  0  0  0  0  0  0
   -2.6901   -1.2566   -0.9474 H   0  0  0  0  0  0  0  0  0  0  0  0
   -2.6398   -1.1527    0.8966 H   0  0  0  0  0  0  0  0  0  0  0  0
   -0.1684   -0.7537    0.0378 C   0  0  0  0  0  0  0  0  0  0  0  0
   -1.6054    0.9459    0.8991 H   0  0  0  0  0  0  0  0  0  0  0  0
   -1.4120    0.7299   -0.7557 H   0  0  0  0  0  0  0  0  0  0  0  0
   -0.2392   -1.3495    0.9773 H   0  0  0  0  0  0  0  0  0  0  0  0
    0.7809   -0.0516    0.1331 H   0  0  0  0  0  0  0  0  0  0  0  0
   -0.0210   -1.3269   -0.7136 H   0  0  0  0  0  0  0  0  0  0  0  0
  1  3  1  0  0  0  0
  1  5  1  0  0  0  0
  2  6  1  0  0  0  0
  2  1  1  0  0  0  0
  2  8  1  0  0  0  0
  4  1  1  0  0  0  0
  6  9  1  0  0  0  0
  6 10  1  0  0  0  0
  7  2  1  0  0  0  0
  9 13  1  0  0  0  0
  9 12  1  0  0  0  0
 11  6  1  0  0  0  0
 14  9  1  0  0  0  0
M  END
$$$$
