14
butane_opt
C  -3.932238   0.260946   0.050491
C  -2.692786  -0.597635   0.034202
H  -4.799626  -0.217116   0.006735
H  -3.863275   0.863309  -0.821156
H  -3.929473   0.962669   0.885913
C  -1.392106   0.159362  -0.065858
H  -2.812333  -1.251181  -0.741342
H  -2.630460  -1.430375   1.026568
C  -0.182012  -0.696635   0.032713
H  -1.575026   0.894231   0.864439
H  -1.360630   0.832173  -0.901984
H  -0.384723  -1.110067   0.823367
H   0.801313   0.003614   0.492884
H  -0.095968  -1.519292  -0.843534
