14
butane_opt
C  -3.903321   0.241271  -0.013032
C  -2.729379  -0.557955   0.139936
H  -4.930319  -0.508862  -0.029089
H  -3.857877   1.083643  -1.088630
H  -3.925421   0.781269   0.811575
C  -1.427618   0.189972   0.009371
H  -2.827325  -1.271170  -0.781317
H  -2.758829  -1.246741   1.005410
C  -0.146950  -0.732138  -0.000895
H  -1.487331   0.928259   0.849439
H  -1.323248   0.868462  -0.884689
H  -0.211011  -1.005191   0.572992
H   0.780723  -0.077099   0.361940
H   0.023533  -1.731818  -1.072086
