butane_opt
 OpenBabel08242015383D

 14 13  0  0  0  0  0  0  0  0999 V2000
   -3.9140    0.2489   -0.0624 C   0  0  0  0  0  0  0  0  0  0  0  0
   -2.6947   -0.5674    0.0772 C   0  0  0  0  0  0  0  0  0  0  0  0
   -4.9036   -0.3803    0.2702 H   0  0  0  0  0  0  0  0  0  0  0  0
   -3.9537    1.1953   -1.1147 H   0  0  0  0  0  0  0  0  0  0  0  0
   -3.8379    0.6005    0.6232 H   0  0  0  0  0  0  0  0  0  0  0  0
   -1.4276    0.1898    0.1215 C   0  0  0  0  0  0  0  0  0  0  0  0
   -2.6136   -1.2106   -0.7754 H   0  0  0  0  0  0  0  0  0  0  0  0
   -2.8952   -1.3550    1.0525 H   0  0  0  0  0  0  0  0  0  0  0  0
   -0.1611   -0.7204   -0.0346 C   0  0  0  0  0  0  0  0  0  0  0  0
   -1.3850    1.0087    1.1426 H   0  0  0  0  0  0  0  0  0  0  0  0
   -1.3763    0.6316   -0.6726 H   0  0  0  0  0  0  0  0  0  0  0  0
    0.0021   -1.2769    0.7979 H   0  0  0  0  0  0  0  0  0  0  0  0
    0.8220   -0.0391   -0.2029 H   0  0  0  0  0  0  0  0  0  0  0  0
   -0.5017   -1.4393   -0.9310 H   0  0  0  0  0  0  0  0  0  0  0  0
  1  2  1  0  0  0  0
  1  3  1  0  0  0  0
  1  5  1  0  0  0  0
  2  6  1  0  0  0  0
  2  8  1  0  0  0  0
  4  1  1  0  0  0  0
  6 10  1  0  0  0  0
  7  2  1  0  0  0  0
  9  6  1  0  0  0  0
  9 12  1  0  0  0  0
 11  6  1  0  0  0  0
 13  9  1  0  0  0  0
 14  9  1  0  0  0  0
M  END
$$$$
