14
butane_opt
C  -3.910901   0.218972  -0.033347
C  -2.714244  -0.564308   0.140506
H  -4.937483  -0.440078  -0.364173
H  -3.759844   0.716239  -0.975351
H  -4.019428   1.056171   0.913478
C  -1.386783   0.231835   0.028951
H  -2.844243  -1.128794  -0.700817
H  -2.643743  -1.308348   1.131856
C  -0.168967  -0.728472  -0.028957
H  -1.358167   0.976393   0.994195
H  -1.507435   0.825263  -0.778047
H  -0.159480  -1.337328   0.855455
H   0.520124  -0.285865   0.020091
H  -0.093707  -1.494222  -0.960689
