14
butane_opt
C  -3.958381   0.287043  -0.056094
C  -2.671955  -0.615130   0.111192
H  -4.848012  -0.363643  -0.007128
H  -3.861708   1.034485  -1.048178
H  -4.022207   0.731635   0.644073
C  -1.396237   0.157521   0.134434
H  -2.520506  -1.390314  -0.799270
H  -2.648916  -1.202863   0.973281
C  -0.180195  -0.675659  -0.066570
H  -1.318706   0.829621   1.006588
H  -1.420744   0.710566  -0.580810
H  -0.222089  -1.362619   0.901068
H   0.722170  -0.089726  -0.331959
H  -0.380792  -1.206710  -0.814029
