butane_opt
 OpenBabel08242015383D

 14 12  0  0  0  0  0  0  0  0999 V2000
   -3.9117    0.2433    0.0055 C   0  0  0  0  0  0  0  0  0  0  0  0
   -2.7211   -0.5904    0.0286 C   0  0  0  0  0  0  0  0  0  0  0  0
   -4.8369   -0.4666    0.4835 H   0  0  0  0  0  0  0  0  0  0  0  0
   -4.0966    1.2176   -1.1687 H   0  0  0  0  0  0  0  0  0  0  0  0
   -3.8506    0.6111    0.6004 H   0  0  0  0  0  0  0  0  0  0  0  0
   -1.3889    0.2386    0.0241 C   0  0  0  0  0  0  0  0  0  0  0  0
   -2.6579   -1.2548   -0.7748 H   0  0  0  0  0  0  0  0  0  0  0  0
   -2.6919   -1.2055    0.9337 H   0  0  0  0  0  0  0  0  0  0  0  0
   -0.1927   -0.7281    0.0206 C   0  0  0  0  0  0  0  0  0  0  0  0
   -1.3360    1.0599    1.0447 H   0  0  0  0  0  0  0  0  0  0  0  0
   -1.4253    0.5267   -0.6714 H   0  0  0  0  0  0  0  0  0  0  0  0
   -0.1835   -1.2470    0.8591 H   0  0  0  0  0  0  0  0  0  0  0  0
    0.6934   -0.1624    0.0433 H   0  0  0  0  0  0  0  0  0  0  0  0
   -0.0392   -1.5046   -0.9021 H   0  0  0  0  0  0  0  0  0  0  0  0
  1  2  1  0  0  0  0
  1  3  1  0  0  0  0
  1  5  1  0  0  0  0
  2  8  1  0  0  0  0
  6  2  1  0  0  0  0
  6 10  1  0  0  0  0
  7  2  1  0  0  0  0
  9  6  1  0  0  0  0
  9 13  1  0  0  0  0
  9 12  1  0  0  0  0
 11  6  1  0  0  0  0
 14  9  1  0  0  0  0
M  RAD  2   1   2   4   2
M  END
$$$$
