butane_opt
 OpenBabel08242015383D

 14 13  0  0  0  0  0  0  0  0999 V2000
   -3.8906    0.2276    0.1113 C   0  0  0  0  0  0  0  0  0  0  0  0
   -2.7590   -0.5714   -0.0602 C   0  0  0  0  0  0  0  0  0  0  0  0
   -4.8010   -0.3685    0.2569 H   0  0  0  0  0  0  0  0  0  0  0  0
   -4.0137    0.8994   -0.8491 H   0  0  0  0  0  0  0  0  0  0  0  0
   -3.8208    0.8883    0.9508 H   0  0  0  0  0  0  0  0  0  0  0  0
   -1.4248    0.2284   -0.0956 C   0  0  0  0  0  0  0  0  0  0  0  0
   -2.8925   -1.3583   -1.1025 H   0  0  0  0  0  0  0  0  0  0  0  0
   -2.5847   -1.1755    0.8098 H   0  0  0  0  0  0  0  0  0  0  0  0
   -0.1385   -0.7209    0.1228 C   0  0  0  0  0  0  0  0  0  0  0  0
   -1.4448    0.9672    0.7800 H   0  0  0  0  0  0  0  0  0  0  0  0
   -1.3779    0.7787   -0.9456 H   0  0  0  0  0  0  0  0  0  0  0  0
   -0.1250   -1.4828    1.1731 H   0  0  0  0  0  0  0  0  0  0  0  0
    0.7634   -0.2592    0.1285 H   0  0  0  0  0  0  0  0  0  0  0  0
   -0.1474   -1.3297   -0.6841 H   0  0  0  0  0  0  0  0  0  0  0  0
  1  3  1  0  0  0  0
  1  5  1  0  0  0  0
  2  1  1  0  0  0  0
  2  8  1  0  0  0  0
  4  1  1  0  0  0  0
  6  2  1  0  0  0  0
  6  9  1  0  0  0  0
  6 10  1  0  0  0  0
  7  2  1  0  0  0  0
  9 13  1  0  0  0  0
  9 12  1  0  0  0  0
 11  6  1  0  0  0  0
 14  9  1  0  0  0  0
M  END
$$$$
