14
butane_opt
C  -3.993178   0.281429   0.050745
C  -2.698211  -0.655508   0.008300
H  -4.727124  -0.232231  -0.086908
H  -3.946762   0.706418  -0.755898
H  -4.068296   1.148315   1.007753
C  -1.373522   0.183978  -0.009501
H  -2.661830  -1.321560  -0.892799
H  -2.715670  -1.150494   0.741648
C  -0.174385  -0.684512   0.094360
H  -1.317520   0.742526   0.795083
H  -1.129911   0.852608  -1.016954
H   0.032326  -1.382439   1.043950
H   0.683842  -0.174719  -0.373362
H  -0.306546  -1.153534  -0.711385
