14
butane_opt
C  -3.935965   0.303720   0.079382
C  -2.696316  -0.631917  -0.005154
H  -4.797484  -0.189270   0.224260
H  -3.941951   0.852110  -0.771178
H  -4.013756   0.901355   0.954323
C  -1.388939   0.141762  -0.078816
H  -2.671281  -1.474070  -0.919086
H  -2.636304  -1.192034   0.839826
C  -0.205495  -0.686668   0.086746
H  -1.333019   0.717930   0.723324
H  -1.383976   0.857055  -1.106130
H  -0.470923  -1.108475   0.900482
H   0.948984   0.099430   0.385811
H  -0.033817  -1.418753  -0.766073
