butane_opt
 OpenBabel08242015383D

 14 13  0  0  0  0  0  0  0  0999 V2000
   -3.9676    0.2918    0.1244 C   0  0  0  0  0  0  0  0  0  0  0  0
   -2.7062   -0.6382   -0.0784 C   0  0  0  0  0  0  0  0  0  0  0  0
   -4.9491   -0.3709    0.2451 H   0  0  0  0  0  0  0  0  0  0  0  0
   -4.1590    0.8287   -0.6635 H   0  0  0  0  0  0  0  0  0  0  0  0
   -3.9524    1.1807    1.0397 H   0  0  0  0  0  0  0  0  0  0  0  0
   -1.3949    0.1537   -0.1418 C   0  0  0  0  0  0  0  0  0  0  0  0
   -2.7783   -1.2168   -0.8679 H   0  0  0  0  0  0  0  0  0  0  0  0
   -2.5662   -1.3684    0.7701 H   0  0  0  0  0  0  0  0  0  0  0  0
   -0.1482   -0.6707    0.1695 C   0  0  0  0  0  0  0  0  0  0  0  0
   -1.3211    0.6828    0.5882 H   0  0  0  0  0  0  0  0  0  0  0  0
   -1.1894    0.7982   -1.0660 H   0  0  0  0  0  0  0  0  0  0  0  0
   -0.2729   -1.0858    0.9429 H   0  0  0  0  0  0  0  0  0  0  0  0
    0.7851   -0.0694    0.3463 H   0  0  0  0  0  0  0  0  0  0  0  0
   -0.0089   -1.4967   -0.7730 H   0  0  0  0  0  0  0  0  0  0  0  0
  1  3  1  0  0  0  0
  1  5  1  0  0  0  0
  2  1  1  0  0  0  0
  2  8  1  0  0  0  0
  4  1  1  0  0  0  0
  6  2  1  0  0  0  0
  6  9  1  0  0  0  0
  6 10  1  0  0  0  0
  7  2  1  0  0  0  0
  9 13  1  0  0  0  0
  9 12  1  0  0  0  0
 11  6  1  0  0  0  0
 14  9  1  0  0  0  0
M  END
$$$$
