14
butane_opt
C  -3.901258   0.266250   0.110790
C  -2.705411  -0.608238  -0.108850
H  -4.886373  -0.367202   0.540017
H  -4.182797   1.019566  -0.915813
H  -3.524016   0.852700   0.969158
C  -1.414250   0.202286  -0.045490
H  -2.772095  -1.455206  -1.051205
H  -2.739463  -1.235836   0.738700
C  -0.186788  -0.698356   0.108311
H  -1.603789   0.821145   0.714396
H  -1.347124   0.847790  -1.050116
H  -0.231824  -1.472232   1.132342
H   0.807052  -0.096897   0.237683
H  -0.071317  -1.289937  -0.640342
