butane_opt
 OpenBabel08242015383D

 14 13  0  0  0  0  0  0  0  0999 V2000
   -3.9806    0.2962   -0.0639 C   0  0  0  0  0  0  0  0  0  0  0  0
   -2.6781   -0.6605    0.1534 C   0  0  0  0  0  0  0  0  0  0  0  0
   -4.8902   -0.2245   -0.4141 H   0  0  0  0  0  0  0  0  0  0  0  0
   -3.9486    0.5967   -0.7225 H   0  0  0  0  0  0  0  0  0  0  0  0
   -4.2347    1.2380    0.9215 H   0  0  0  0  0  0  0  0  0  0  0  0
   -1.3942    0.1692    0.0439 C   0  0  0  0  0  0  0  0  0  0  0  0
   -2.6026   -1.2895   -0.6229 H   0  0  0  0  0  0  0  0  0  0  0  0
   -2.8129   -1.5549    1.1979 H   0  0  0  0  0  0  0  0  0  0  0  0
   -0.1479   -0.6440   -0.0232 C   0  0  0  0  0  0  0  0  0  0  0  0
   -1.1701    0.8966    0.8798 H   0  0  0  0  0  0  0  0  0  0  0  0
   -1.4504    0.7249   -0.8344 H   0  0  0  0  0  0  0  0  0  0  0  0
   -0.0944   -1.2196    0.7801 H   0  0  0  0  0  0  0  0  0  0  0  0
    0.6335   -0.1438   -0.1199 H   0  0  0  0  0  0  0  0  0  0  0  0
   -0.0500   -1.4305   -0.9266 H   0  0  0  0  0  0  0  0  0  0  0  0
  1  2  1  0  0  0  0
  1  5  1  0  0  0  0
  2  8  1  0  0  0  0
  3  1  1  0  0  0  0
  4  1  1  0  0  0  0
  6  2  1  0  0  0  0
  6 10  1  0  0  0  0
  7  2  1  0  0  0  0
  9  6  1  0  0  0  0
  9 12  1  0  0  0  0
 11  6  1  0  0  0  0
 13  9  1  0  0  0  0
 14  9  1  0  0  0  0
M  END
$$$$
