butane_opt
 OpenBabel08242015383D

 14 13  0  0  0  0  0  0  0  0999 V2000
   -3.9254    0.2610   -0.0850 C   0  0  0  0  0  0  0  0  0  0  0  0
   -2.6833   -0.5933    0.1393 C   0  0  0  0  0  0  0  0  0  0  0  0
   -4.8747   -0.4149   -0.0615 H   0  0  0  0  0  0  0  0  0  0  0  0
   -3.8972    1.0759   -1.0315 H   0  0  0  0  0  0  0  0  0  0  0  0
   -4.1523    0.7891    0.6745 H   0  0  0  0  0  0  0  0  0  0  0  0
   -1.4073    0.1665    0.1593 C   0  0  0  0  0  0  0  0  0  0  0  0
   -2.6600   -1.3319   -0.8249 H   0  0  0  0  0  0  0  0  0  0  0  0
   -2.6997   -1.2164    1.0301 H   0  0  0  0  0  0  0  0  0  0  0  0
   -0.1892   -0.6937   -0.0893 C   0  0  0  0  0  0  0  0  0  0  0  0
   -1.1682    0.9146    1.1028 H   0  0  0  0  0  0  0  0  0  0  0  0
   -1.4286    0.7828   -0.7231 H   0  0  0  0  0  0  0  0  0  0  0  0
    0.0100   -1.4226    0.8349 H   0  0  0  0  0  0  0  0  0  0  0  0
    0.7331   -0.1402   -0.2174 H   0  0  0  0  0  0  0  0  0  0  0  0
   -0.3876   -1.2005   -0.8264 H   0  0  0  0  0  0  0  0  0  0  0  0
  1  3  1  0  0  0  0
  1  2  1  0  0  0  0
  1  5  1  0  0  0  0
  2  6  1  0  0  0  0
  2  8  1  0  0  0  0
  4  1  1  0  0  0  0
  6 10  1  0  0  0  0
  7  2  1  0  0  0  0
  9  6  1  0  0  0  0
  9 12  1  0  0  0  0
 11  6  1  0  0  0  0
 13  9  1  0  0  0  0
 14  9  1  0  0  0  0
M  END
$$$$
