butane_opt
 OpenBabel08242015383D

 14 13  0  0  0  0  0  0  0  0999 V2000
   -3.9567    0.2316    0.1014 C   0  0  0  0  0  0  0  0  0  0  0  0
   -2.7518   -0.6102   -0.0783 C   0  0  0  0  0  0  0  0  0  0  0  0
   -4.8516   -0.3448    0.3421 H   0  0  0  0  0  0  0  0  0  0  0  0
   -4.2423    1.1238   -0.9178 H   0  0  0  0  0  0  0  0  0  0  0  0
   -3.7166    0.7735    0.8161 H   0  0  0  0  0  0  0  0  0  0  0  0
   -1.4229    0.2219   -0.0111 C   0  0  0  0  0  0  0  0  0  0  0  0
   -2.7250   -1.3483   -1.0197 H   0  0  0  0  0  0  0  0  0  0  0  0
   -2.6849   -1.1702    0.6553 H   0  0  0  0  0  0  0  0  0  0  0  0
   -0.1015   -0.7219    0.1100 C   0  0  0  0  0  0  0  0  0  0  0  0
   -1.4605    0.8655    0.8263 H   0  0  0  0  0  0  0  0  0  0  0  0
   -1.4015    1.0214   -1.0523 H   0  0  0  0  0  0  0  0  0  0  0  0
   -0.0027   -1.3952    1.0476 H   0  0  0  0  0  0  0  0  0  0  0  0
    0.8676   -0.0781   -0.0097 H   0  0  0  0  0  0  0  0  0  0  0  0
   -0.0247   -1.3677   -0.7266 H   0  0  0  0  0  0  0  0  0  0  0  0
  1  3  1  0  0  0  0
  1  5  1  0  0  0  0
  2  6  1  0  0  0  0
  2  1  1  0  0  0  0
  2  8  1  0  0  0  0
  4  1  1  0  0  0  0
  6  9  1  0  0  0  0
  6 10  1  0  0  0  0
  7  2  1  0  0  0  0
  9 12  1  0  0  0  0
 11  6  1  0  0  0  0
 13  9  1  0  0  0  0
 14  9  1  0  0  0  0
M  END
$$$$
