14
butane_opt
C  -3.957602   0.221177  -0.008545
C  -2.735274  -0.614649   0.036501
H  -4.808664  -0.361112   0.287555
H  -3.972177   1.247559  -1.132697
H  -3.814780   0.581672   0.620899
C  -1.413560   0.253024   0.092521
H  -2.781633  -1.221172  -0.824071
H  -2.803659  -1.179502   0.920230
C  -0.099000  -0.725358  -0.008610
H  -1.398669   1.084490   0.985878
H  -1.706162   0.732176  -0.686652
H  -0.038426  -1.329223   0.824331
H   0.741424  -0.271122  -0.118405
H   0.024105  -1.360568  -0.813338
