butane_opt
 OpenBabel08242015383D

 14 13  0  0  0  0  0  0  0  0999 V2000
   -3.9811    0.2424   -0.0446 C   0  0  0  0  0  0  0  0  0  0  0  0
   -2.7294   -0.6123    0.1288 C   0  0  0  0  0  0  0  0  0  0  0  0
   -4.8866   -0.3070   -0.2884 H   0  0  0  0  0  0  0  0  0  0  0  0
   -3.7404    0.7339   -0.9543 H   0  0  0  0  0  0  0  0  0  0  0  0
   -4.0941    1.0176    0.9078 H   0  0  0  0  0  0  0  0  0  0  0  0
   -1.4122    0.2383    0.0530 C   0  0  0  0  0  0  0  0  0  0  0  0
   -2.7194   -1.1610   -0.6687 H   0  0  0  0  0  0  0  0  0  0  0  0
   -2.6166   -1.4832    1.2033 H   0  0  0  0  0  0  0  0  0  0  0  0
   -0.1133   -0.7059   -0.0421 C   0  0  0  0  0  0  0  0  0  0  0  0
   -1.2928    0.9822    0.9721 H   0  0  0  0  0  0  0  0  0  0  0  0
   -1.4711    0.7496   -0.8055 H   0  0  0  0  0  0  0  0  0  0  0  0
    0.0272   -1.2845    0.7596 H   0  0  0  0  0  0  0  0  0  0  0  0
    0.6985   -0.2714    0.1228 H   0  0  0  0  0  0  0  0  0  0  0  0
   -0.0866   -1.4018   -0.9375 H   0  0  0  0  0  0  0  0  0  0  0  0
  1  2  1  0  0  0  0
  1  5  1  0  0  0  0
  2  8  1  0  0  0  0
  3  1  1  0  0  0  0
  4  1  1  0  0  0  0
  6  2  1  0  0  0  0
  6 10  1  0  0  0  0
  7  2  1  0  0  0  0
  9  6  1  0  0  0  0
  9 13  1  0  0  0  0
  9 12  1  0  0  0  0
 11  6  1  0  0  0  0
 14  9  1  0  0  0  0
M  END
$$$$
