14
butane_opt
C  -3.926929   0.214708  -0.097058
C  -2.771966  -0.590115   0.182816
H  -4.771376  -0.257208  -0.325551
H  -3.756561   0.812988  -0.975917
H  -4.006808   0.975706   0.760840
C  -1.406811   0.224853   0.118909
H  -2.678270  -1.126905  -0.637025
H  -2.920267  -1.279088   1.177624
C  -0.118457  -0.731541  -0.072097
H  -1.280555   0.981822   1.093323
H  -1.593057   0.989052  -0.802201
H   0.130296  -1.212053   0.729532
H   0.697802  -0.249852  -0.167830
H  -0.158147  -1.549339  -1.012911
