14
butane_opt
C  -3.945251   0.242686  -0.023559
C  -2.763574  -0.584688   0.043955
H  -4.955009  -0.403280   0.394554
H  -4.030332   1.062132  -1.040524
H  -3.982397   0.525570   0.672868
C  -1.383329   0.244888   0.060478
H  -2.675334  -1.108025  -0.726030
H  -2.767055  -1.240858   0.908955
C  -0.107512  -0.757907  -0.015289
H  -1.238503   1.106214   1.033913
H  -1.522343   0.739981  -0.672765
H  -0.162267  -1.265719   0.804882
H   0.800506  -0.207873   0.086220
H  -0.050702  -1.443579  -0.824347
