14
butane_opt
C  -3.983578   0.284609  -0.079873
C  -2.742802  -0.623754   0.186537
H  -4.860534  -0.311796  -0.290371
H  -3.865057   0.975478  -1.087238
H  -4.105258   0.977291   0.778613
C  -1.373149   0.136236   0.085368
H  -2.493239  -1.164740  -0.517349
H  -2.822485  -1.382169   1.084290
C  -0.143588  -0.673921  -0.081142
H  -1.174773   1.049604   1.136262
H  -1.414422   0.624355  -0.689498
H  -0.094396  -1.209964   0.808527
H   0.816678  -0.052818  -0.055409
H  -0.114631  -1.449850  -1.073494
