butane_opt
 OpenBabel08242015383D

 14 13  0  0  0  0  0  0  0  0999 V2000
   -3.9363    0.3268   -0.0315 C   0  0  0  0  0  0  0  0  0  0  0  0
   -2.6835   -0.6473    0.0928 C   0  0  0  0  0  0  0  0  0  0  0  0
   -4.9399   -0.3801   -0.1029 H   0  0  0  0  0  0  0  0  0  0  0  0
   -3.8981    0.8276   -0.8784 H   0  0  0  0  0  0  0  0  0  0  0  0
   -4.0322    0.9142    0.7557 H   0  0  0  0  0  0  0  0  0  0  0  0
   -1.3818    0.1097    0.0746 C   0  0  0  0  0  0  0  0  0  0  0  0
   -2.6727   -1.3438   -0.6974 H   0  0  0  0  0  0  0  0  0  0  0  0
   -2.5974   -1.1647    0.9283 H   0  0  0  0  0  0  0  0  0  0  0  0
   -0.2010   -0.6562   -0.0048 C   0  0  0  0  0  0  0  0  0  0  0  0
   -1.3846    0.8349    0.8974 H   0  0  0  0  0  0  0  0  0  0  0  0
   -1.3830    0.8260   -0.8529 H   0  0  0  0  0  0  0  0  0  0  0  0
   -0.0134   -1.3258    0.7775 H   0  0  0  0  0  0  0  0  0  0  0  0
    0.7536   -0.0160   -0.1219 H   0  0  0  0  0  0  0  0  0  0  0  0
   -0.4373   -1.2435   -0.8292 H   0  0  0  0  0  0  0  0  0  0  0  0
  1  2  1  0  0  0  0
  1  5  1  0  0  0  0
  2  8  1  0  0  0  0
  3  1  1  0  0  0  0
  4  1  1  0  0  0  0
  6  2  1  0  0  0  0
  6 10  1  0  0  0  0
  7  2  1  0  0  0  0
  9  6  1  0  0  0  0
  9 12  1  0  0  0  0
 11  6  1  0  0  0  0
 13  9  1  0  0  0  0
 14  9  1  0  0  0  0
M  END
$$$$
