14
butane_opt
C  -3.940797   0.275469   0.002776
C  -2.699682  -0.635036   0.048383
H  -4.820770  -0.299385   0.131698
H  -4.002527   1.078946  -0.990984
H  -3.947756   0.774041   0.754337
C  -1.398344   0.171494   0.046375
H  -2.725565  -1.289824  -0.802899
H  -2.696753  -1.229832   0.908366
C  -0.165210  -0.679035   0.010740
H  -1.364743   0.890333   0.915852
H  -1.437906   0.779739  -0.811396
H  -0.156682  -1.265308   0.877331
H   0.749847  -0.091749   0.017332
H  -0.178776  -1.408580  -0.883682
