14
butane_opt
C  -3.927872   0.258192  -0.026791
C  -2.726034  -0.619714   0.048627
H  -5.001043  -0.495387   0.169026
H  -3.859392   1.066796  -0.990442
H  -4.026843   0.772750   0.640117
C  -1.400089   0.242123   0.103938
H  -2.829379  -1.216163  -0.733018
H  -2.805030  -1.241340   0.947392
C  -0.137313  -0.723693  -0.031970
H  -1.351586   1.087490   1.071124
H  -1.376392   0.635797  -0.696398
H   0.075099  -1.495294   0.931738
H   0.601348  -0.309550  -0.257897
H  -0.131576  -1.185980  -0.766870
