14
butane_opt
C  -3.947249   0.258634  -0.062032
C  -2.731161  -0.619583   0.130308
H  -4.938258  -0.409888  -0.398676
H  -3.773058   0.613606  -0.687697
H  -4.044782   1.125454   0.915125
C  -1.391477   0.224622   0.069872
H  -2.584286  -1.073100  -0.553805
H  -2.887882  -1.367501   1.167585
C  -0.151491  -0.714517  -0.029560
H  -1.298066   0.899338   0.811660
H  -1.597955   0.901766  -0.834554
H   0.007230  -1.285956   0.800297
H   0.759104  -0.150499  -0.103389
H  -0.017995  -1.547570  -0.960621
