14
butane_opt
C  -3.924009   0.233358   0.075995
C  -2.684041  -0.591501   0.021756
H  -4.839302  -0.361161  -0.060523
H  -4.051230   0.669485  -0.768491
H  -3.872399   1.085360   1.071670
C  -1.440181   0.196939  -0.103460
H  -2.797780  -1.226206  -0.839287
H  -2.579042  -1.165065   0.855904
C  -0.182294  -0.709627   0.086322
H  -1.277861   0.926461   0.720199
H  -1.386915   0.899736  -1.092797
H  -0.322411  -1.270766   0.987661
H   0.735911  -0.117823   0.382583
H   0.148257  -1.488173  -0.776034
