butane_opt
 OpenBabel08242015383D

 14 13  0  0  0  0  0  0  0  0999 V2000
   -3.9581    0.2536   -0.0697 C   0  0  0  0  0  0  0  0  0  0  0  0
   -2.7208   -0.5995    0.1519 C   0  0  0  0  0  0  0  0  0  0  0  0
   -5.0333   -0.4804   -0.1353 H   0  0  0  0  0  0  0  0  0  0  0  0
   -3.7257    0.7201   -0.9178 H   0  0  0  0  0  0  0  0  0  0  0  0
   -4.0776    1.0773    0.9220 H   0  0  0  0  0  0  0  0  0  0  0  0
   -1.4126    0.2129    0.0841 C   0  0  0  0  0  0  0  0  0  0  0  0
   -2.5440   -1.2738   -0.6802 H   0  0  0  0  0  0  0  0  0  0  0  0
   -2.7877   -1.2174    1.0516 H   0  0  0  0  0  0  0  0  0  0  0  0
   -0.1337   -0.7233   -0.0362 C   0  0  0  0  0  0  0  0  0  0  0  0
   -1.4152    0.8481    0.7901 H   0  0  0  0  0  0  0  0  0  0  0  0
   -1.4245    0.8551   -0.8501 H   0  0  0  0  0  0  0  0  0  0  0  0
    0.0542   -1.2446    0.7500 H   0  0  0  0  0  0  0  0  0  0  0  0
    0.7184   -0.1094   -0.0591 H   0  0  0  0  0  0  0  0  0  0  0  0
   -0.0729   -1.3983   -0.9632 H   0  0  0  0  0  0  0  0  0  0  0  0
  1  2  1  0  0  0  0
  1  5  1  0  0  0  0
  2  8  1  0  0  0  0
  3  1  1  0  0  0  0
  4  1  1  0  0  0  0
  6  2  1  0  0  0  0
  6 10  1  0  0  0  0
  7  2  1  0  0  0  0
  9  6  1  0  0  0  0
  9 12  1  0  0  0  0
 11  6  1  0  0  0  0
 13  9  1  0  0  0  0
 14  9  1  0  0  0  0
M  END
$$$$
