butane_opt
 OpenBabel08242015383D

 14 12  0  0  0  0  0  0  0  0999 V2000
   -3.9868    0.3048    0.0667 C   0  0  0  0  0  0  0  0  0  0  0  0
   -2.6736   -0.6601   -0.0944 C   0  0  0  0  0  0  0  0  0  0  0  0
   -4.8499   -0.2318    0.1188 H   0  0  0  0  0  0  0  0  0  0  0  0
   -4.1548    0.8001   -0.6774 H   0  0  0  0  0  0  0  0  0  0  0  0
   -3.8520    1.1505    1.1094 H   0  0  0  0  0  0  0  0  0  0  0  0
   -1.3952    0.1393    0.0039 C   0  0  0  0  0  0  0  0  0  0  0  0
   -2.7854   -1.3628   -0.9283 H   0  0  0  0  0  0  0  0  0  0  0  0
   -2.7022   -1.3059    0.7338 H   0  0  0  0  0  0  0  0  0  0  0  0
   -0.1445   -0.6473    0.0989 C   0  0  0  0  0  0  0  0  0  0  0  0
   -1.4179    0.6999    0.7666 H   0  0  0  0  0  0  0  0  0  0  0  0
   -1.3548    0.7160   -0.8441 H   0  0  0  0  0  0  0  0  0  0  0  0
   -0.0944   -1.6762    1.2721 H   0  0  0  0  0  0  0  0  0  0  0  0
    0.7613    0.0420   -0.4630 H   0  0  0  0  0  0  0  0  0  0  0  0
   -0.2105   -0.8996   -0.5066 H   0  0  0  0  0  0  0  0  0  0  0  0
  1  3  1  0  0  0  0
  1  5  1  0  0  0  0
  2  6  1  0  0  0  0
  2  1  1  0  0  0  0
  2  8  1  0  0  0  0
  4  1  1  0  0  0  0
  6  9  1  0  0  0  0
  6 10  1  0  0  0  0
  7  2  1  0  0  0  0
 11  6  1  0  0  0  0
 13  9  1  0  0  0  0
 14  9  1  0  0  0  0
M  RAD  2   9   2  12   2
M  END
$$$$
