14
butane_opt
C  -3.981150   0.242437  -0.044633
C  -2.729406  -0.612290   0.128802
H  -4.886610  -0.306951  -0.288394
H  -3.740374   0.733865  -0.954349
H  -4.094130   1.017563   0.907803
C  -1.412231   0.238252   0.053019
H  -2.719385  -1.160983  -0.668728
H  -2.616649  -1.483159   1.203267
C  -0.113315  -0.705855  -0.042081
H  -1.292844   0.982183   0.972052
H  -1.471128   0.749566  -0.805478
H   0.027158  -1.284454   0.759586
H   0.698467  -0.271396   0.122784
H  -0.086563  -1.401799  -0.937525
