butane_opt
 OpenBabel08242015383D

 14 13  0  0  0  0  0  0  0  0999 V2000
   -3.9791    0.2873    0.1251 C   0  0  0  0  0  0  0  0  0  0  0  0
   -2.6811   -0.6800   -0.0568 C   0  0  0  0  0  0  0  0  0  0  0  0
   -4.7459   -0.1419    0.2720 H   0  0  0  0  0  0  0  0  0  0  0  0
   -4.2370    0.8445   -0.6772 H   0  0  0  0  0  0  0  0  0  0  0  0
   -4.0738    1.0255    1.0592 H   0  0  0  0  0  0  0  0  0  0  0  0
   -1.3690    0.1557   -0.1265 C   0  0  0  0  0  0  0  0  0  0  0  0
   -2.7674   -1.4040   -1.0046 H   0  0  0  0  0  0  0  0  0  0  0  0
   -2.7233   -1.2239    0.7304 H   0  0  0  0  0  0  0  0  0  0  0  0
   -0.1664   -0.6641    0.1403 C   0  0  0  0  0  0  0  0  0  0  0  0
   -1.4626    0.7346    0.5960 H   0  0  0  0  0  0  0  0  0  0  0  0
   -1.3430    1.1429   -1.2144 H   0  0  0  0  0  0  0  0  0  0  0  0
   -0.3222   -1.0709    0.9788 H   0  0  0  0  0  0  0  0  0  0  0  0
    0.8687   -0.0603    0.5005 H   0  0  0  0  0  0  0  0  0  0  0  0
    0.1104   -1.5016   -0.7722 H   0  0  0  0  0  0  0  0  0  0  0  0
  1  3  1  0  0  0  0
  1  5  1  0  0  0  0
  2  1  1  0  0  0  0
  2  8  1  0  0  0  0
  4  1  1  0  0  0  0
  6  2  1  0  0  0  0
  6  9  1  0  0  0  0
  6 10  1  0  0  0  0
  7  2  1  0  0  0  0
  9 13  1  0  0  0  0
  9 12  1  0  0  0  0
 11  6  1  0  0  0  0
 14  9  1  0  0  0  0
M  END
$$$$
