butane_opt
 OpenBabel08242015383D

 14 13  0  0  0  0  0  0  0  0999 V2000
   -3.9584    0.2870   -0.0561 C   0  0  0  0  0  0  0  0  0  0  0  0
   -2.6720   -0.6151    0.1112 C   0  0  0  0  0  0  0  0  0  0  0  0
   -4.8480   -0.3636   -0.0071 H   0  0  0  0  0  0  0  0  0  0  0  0
   -3.8617    1.0345   -1.0482 H   0  0  0  0  0  0  0  0  0  0  0  0
   -4.0222    0.7316    0.6441 H   0  0  0  0  0  0  0  0  0  0  0  0
   -1.3962    0.1575    0.1344 C   0  0  0  0  0  0  0  0  0  0  0  0
   -2.5205   -1.3903   -0.7993 H   0  0  0  0  0  0  0  0  0  0  0  0
   -2.6489   -1.2029    0.9733 H   0  0  0  0  0  0  0  0  0  0  0  0
   -0.1802   -0.6757   -0.0666 C   0  0  0  0  0  0  0  0  0  0  0  0
   -1.3187    0.8296    1.0066 H   0  0  0  0  0  0  0  0  0  0  0  0
   -1.4207    0.7106   -0.5808 H   0  0  0  0  0  0  0  0  0  0  0  0
   -0.2221   -1.3626    0.9011 H   0  0  0  0  0  0  0  0  0  0  0  0
    0.7222   -0.0897   -0.3320 H   0  0  0  0  0  0  0  0  0  0  0  0
   -0.3808   -1.2067   -0.8140 H   0  0  0  0  0  0  0  0  0  0  0  0
  1  3  1  0  0  0  0
  1  2  1  0  0  0  0
  1  5  1  0  0  0  0
  2  6  1  0  0  0  0
  2  8  1  0  0  0  0
  4  1  1  0  0  0  0
  6 10  1  0  0  0  0
  7  2  1  0  0  0  0
  9  6  1  0  0  0  0
  9 12  1  0  0  0  0
 11  6  1  0  0  0  0
 13  9  1  0  0  0  0
 14  9  1  0  0  0  0
M  END
$$$$
