14
butane_opt
C  -3.971879   0.305621  -0.108002
C  -2.701645  -0.654544   0.165749
H  -4.834525  -0.157560  -0.287707
H  -3.825219   0.823053  -0.938570
H  -4.093346   1.128481   0.807087
C  -1.396709   0.127450   0.115449
H  -2.702185  -1.221016  -0.610802
H  -2.744501  -1.526271   1.249579
C  -0.153773  -0.665564  -0.075924
H  -1.244315   0.912192   1.096552
H  -1.322032   0.699231  -0.667416
H   0.034422  -1.210703   0.723313
H   0.819861   0.042686  -0.202598
H  -0.449331  -1.295220  -0.897877
