butane_opt
 OpenBabel08242015383D

 14 13  0  0  0  0  0  0  0  0999 V2000
   -3.9321    0.2276    0.0859 C   0  0  0  0  0  0  0  0  0  0  0  0
   -2.7011   -0.5566   -0.0525 C   0  0  0  0  0  0  0  0  0  0  0  0
   -4.8894   -0.4507    0.2909 H   0  0  0  0  0  0  0  0  0  0  0  0
   -3.9243    0.9489   -0.8876 H   0  0  0  0  0  0  0  0  0  0  0  0
   -3.7612    0.8144    0.9931 H   0  0  0  0  0  0  0  0  0  0  0  0
   -1.4180    0.1913   -0.0690 C   0  0  0  0  0  0  0  0  0  0  0  0
   -2.7268   -1.2169   -0.8699 H   0  0  0  0  0  0  0  0  0  0  0  0
   -2.6849   -1.2799    0.9179 H   0  0  0  0  0  0  0  0  0  0  0  0
   -0.1566   -0.7106    0.1048 C   0  0  0  0  0  0  0  0  0  0  0  0
   -1.6477    0.8448    0.8613 H   0  0  0  0  0  0  0  0  0  0  0  0
   -1.3709    0.8762   -1.0067 H   0  0  0  0  0  0  0  0  0  0  0  0
   -0.2059   -1.1501    0.8868 H   0  0  0  0  0  0  0  0  0  0  0  0
    0.6318   -0.2348    0.2428 H   0  0  0  0  0  0  0  0  0  0  0  0
    0.0561   -1.4501   -0.8515 H   0  0  0  0  0  0  0  0  0  0  0  0
  1  3  1  0  0  0  0
  1  5  1  0  0  0  0
  2  1  1  0  0  0  0
  2  8  1  0  0  0  0
  4  1  1  0  0  0  0
  6  2  1  0  0  0  0
  6  9  1  0  0  0  0
  6 10  1  0  0  0  0
  7  2  1  0  0  0  0
  9 13  1  0  0  0  0
  9 12  1  0  0  0  0
 11  6  1  0  0  0  0
 14  9  1  0  0  0  0
M  END
$$$$
