butane_opt
 OpenBabel08242015383D

 14 13  0  0  0  0  0  0  0  0999 V2000
   -3.9077    0.2489    0.1146 C   0  0  0  0  0  0  0  0  0  0  0  0
   -2.6944   -0.5930   -0.1250 C   0  0  0  0  0  0  0  0  0  0  0  0
   -4.8647   -0.3591    0.6272 H   0  0  0  0  0  0  0  0  0  0  0  0
   -4.3043    0.9327   -0.8666 H   0  0  0  0  0  0  0  0  0  0  0  0
   -3.4887    0.7736    0.9070 H   0  0  0  0  0  0  0  0  0  0  0  0
   -1.4297    0.1993   -0.0661 C   0  0  0  0  0  0  0  0  0  0  0  0
   -2.7245   -1.3881   -1.0371 H   0  0  0  0  0  0  0  0  0  0  0  0
   -2.7050   -1.1435    0.7579 H   0  0  0  0  0  0  0  0  0  0  0  0
   -0.1824   -0.6757    0.1242 C   0  0  0  0  0  0  0  0  0  0  0  0
   -1.5513    0.8658    0.8120 H   0  0  0  0  0  0  0  0  0  0  0  0
   -1.2508    0.8636   -1.0637 H   0  0  0  0  0  0  0  0  0  0  0  0
   -0.1892   -1.5644    1.1859 H   0  0  0  0  0  0  0  0  0  0  0  0
    0.6518   -0.2444    0.2523 H   0  0  0  0  0  0  0  0  0  0  0  0
   -0.0341   -1.3564   -0.7002 H   0  0  0  0  0  0  0  0  0  0  0  0
  1  3  1  0  0  0  0
  1  5  1  0  0  0  0
  2  6  1  0  0  0  0
  2  1  1  0  0  0  0
  2  8  1  0  0  0  0
  4  1  1  0  0  0  0
  6  9  1  0  0  0  0
  6 10  1  0  0  0  0
  7  2  1  0  0  0  0
  9 13  1  0  0  0  0
  9 12  1  0  0  0  0
 11  6  1  0  0  0  0
 14  9  1  0  0  0  0
M  END
$$$$
