14
butane_opt
C  -3.978010   0.236683  -0.062702
C  -2.708191  -0.565968   0.067201
H  -4.937628  -0.302136   0.497060
H  -3.987620   1.191492  -1.169665
H  -3.717149   0.374662   0.495363
C  -1.420952   0.203743   0.113924
H  -2.810297  -1.135412  -0.705319
H  -2.696831  -1.303594   1.047851
C  -0.121228  -0.700317  -0.041859
H  -1.411398   0.944344   1.144131
H  -1.376122   0.686761  -0.683718
H   0.091671  -1.182707   0.728439
H   0.673055  -0.205523   0.185212
H  -0.133144  -1.626274  -1.089856
