14
butane_opt
C  -3.994860   0.290129  -0.100027
C  -2.733940  -0.655963   0.178193
H  -4.810651  -0.177044   0.039861
H  -3.969123   1.094152  -1.031405
H  -4.092212   0.957185   0.771806
C  -1.368270   0.115869   0.098276
H  -2.626806  -1.222089  -0.616298
H  -2.799320  -1.292126   1.158929
C  -0.125547  -0.656945  -0.065296
H  -1.269070   0.827569   0.948020
H  -1.336041   0.863734  -0.892040
H  -0.235123  -0.930580   0.619046
H   0.880315   0.016486   0.258967
H  -0.116545  -1.729728  -1.196134
