14
butane_opt
C  -3.993395   0.287806  -0.038738
C  -2.700707  -0.635932   0.032841
H  -4.830633  -0.230969   0.540573
H  -4.171304   1.082466  -1.047533
H  -3.796738   0.721236   0.834901
C  -1.388509   0.143508   0.052792
H  -2.741968  -1.197246  -0.737454
H  -2.784807  -1.343207   0.945849
C  -0.123918  -0.665934   0.003258
H  -1.399654   0.901434   0.930894
H  -1.410142   0.700590  -0.749122
H  -0.174324  -1.130606   0.812665
H   0.773913  -0.067594   0.205632
H  -0.037586  -1.434594  -0.924081
