butane_opt
 OpenBabel08242015383D

 14 13  0  0  0  0  0  0  0  0999 V2000
   -3.9398    0.2557    0.0517 C   0  0  0  0  0  0  0  0  0  0  0  0
   -2.6970   -0.5875   -0.0260 C   0  0  0  0  0  0  0  0  0  0  0  0
   -4.9542   -0.4436   -0.1675 H   0  0  0  0  0  0  0  0  0  0  0  0
   -3.9052    0.6475   -0.7061 H   0  0  0  0  0  0  0  0  0  0  0  0
   -3.7841    1.2025    1.1212 H   0  0  0  0  0  0  0  0  0  0  0  0
   -1.4087    0.1593    0.0175 C   0  0  0  0  0  0  0  0  0  0  0  0
   -2.7045   -1.3211   -0.9334 H   0  0  0  0  0  0  0  0  0  0  0  0
   -2.6211   -1.1379    0.8028 H   0  0  0  0  0  0  0  0  0  0  0  0
   -0.1706   -0.6899    0.0680 C   0  0  0  0  0  0  0  0  0  0  0  0
   -1.4790    0.6879    0.7111 H   0  0  0  0  0  0  0  0  0  0  0  0
   -1.4443    0.9982   -0.9162 H   0  0  0  0  0  0  0  0  0  0  0  0
    0.0071   -1.6713    1.2101 H   0  0  0  0  0  0  0  0  0  0  0  0
    0.6740   -0.1135   -0.3236 H   0  0  0  0  0  0  0  0  0  0  0  0
   -0.2179   -0.9913   -0.6409 H   0  0  0  0  0  0  0  0  0  0  0  0
  1  5  1  0  0  0  0
  2  6  1  0  0  0  0
  2  1  1  0  0  0  0
  2  8  1  0  0  0  0
  3  1  1  0  0  0  0
  4  1  1  0  0  0  0
  6  9  1  0  0  0  0
  6 10  1  0  0  0  0
  7  2  1  0  0  0  0
  9 12  1  0  0  0  0
 11  6  1  0  0  0  0
 13  9  1  0  0  0  0
 14  9  1  0  0  0  0
M  END
$$$$
