butane_opt
 OpenBabel08242015383D

 14 13  0  0  0  0  0  0  0  0999 V2000
   -3.9063    0.2149   -0.1059 C   0  0  0  0  0  0  0  0  0  0  0  0
   -2.7087   -0.5528    0.1883 C   0  0  0  0  0  0  0  0  0  0  0  0
   -4.9420   -0.5572   -0.3010 H   0  0  0  0  0  0  0  0  0  0  0  0
   -3.6663    0.7727   -0.9784 H   0  0  0  0  0  0  0  0  0  0  0  0
   -4.1044    1.0877    0.8721 H   0  0  0  0  0  0  0  0  0  0  0  0
   -1.4491    0.2027    0.1546 C   0  0  0  0  0  0  0  0  0  0  0  0
   -2.4773   -1.1627   -0.5892 H   0  0  0  0  0  0  0  0  0  0  0  0
   -2.8258   -1.2015    1.1229 H   0  0  0  0  0  0  0  0  0  0  0  0
   -0.1549   -0.7088   -0.0979 C   0  0  0  0  0  0  0  0  0  0  0  0
   -1.4313    0.8061    0.8448 H   0  0  0  0  0  0  0  0  0  0  0  0
   -1.4617    0.8838   -0.7848 H   0  0  0  0  0  0  0  0  0  0  0  0
    0.0936   -1.3355    0.7166 H   0  0  0  0  0  0  0  0  0  0  0  0
    0.6842   -0.2409   -0.1220 H   0  0  0  0  0  0  0  0  0  0  0  0
   -0.2270   -1.4286   -0.9807 H   0  0  0  0  0  0  0  0  0  0  0  0
  1  2  1  0  0  0  0
  1  5  1  0  0  0  0
  2  8  1  0  0  0  0
  3  1  1  0  0  0  0
  4  1  1  0  0  0  0
  6  2  1  0  0  0  0
  6 10  1  0  0  0  0
  7  2  1  0  0  0  0
  9  6  1  0  0  0  0
  9 12  1  0  0  0  0
 11  6  1  0  0  0  0
 13  9  1  0  0  0  0
 14  9  1  0  0  0  0
M  END
$$$$
