butane_opt
 OpenBabel08242015383D

 14 12  0  0  0  0  0  0  0  0999 V2000
   -3.9780    0.2367   -0.0627 C   0  0  0  0  0  0  0  0  0  0  0  0
   -2.7082   -0.5660    0.0672 C   0  0  0  0  0  0  0  0  0  0  0  0
   -4.9376   -0.3021    0.4971 H   0  0  0  0  0  0  0  0  0  0  0  0
   -3.9876    1.1915   -1.1697 H   0  0  0  0  0  0  0  0  0  0  0  0
   -3.7171    0.3747    0.4954 H   0  0  0  0  0  0  0  0  0  0  0  0
   -1.4210    0.2037    0.1139 C   0  0  0  0  0  0  0  0  0  0  0  0
   -2.8103   -1.1354   -0.7053 H   0  0  0  0  0  0  0  0  0  0  0  0
   -2.6968   -1.3036    1.0479 H   0  0  0  0  0  0  0  0  0  0  0  0
   -0.1212   -0.7003   -0.0419 C   0  0  0  0  0  0  0  0  0  0  0  0
   -1.4114    0.9443    1.1441 H   0  0  0  0  0  0  0  0  0  0  0  0
   -1.3761    0.6868   -0.6837 H   0  0  0  0  0  0  0  0  0  0  0  0
    0.0917   -1.1827    0.7284 H   0  0  0  0  0  0  0  0  0  0  0  0
    0.6731   -0.2055    0.1852 H   0  0  0  0  0  0  0  0  0  0  0  0
   -0.1331   -1.6263   -1.0899 H   0  0  0  0  0  0  0  0  0  0  0  0
  1  3  1  0  0  0  0
  2  6  1  0  0  0  0
  2  5  1  0  0  0  0
  2  8  1  0  0  0  0
  4  1  1  0  0  0  0
  6 10  1  0  0  0  0
  7  2  1  0  0  0  0
  9  6  1  0  0  0  0
  9 13  1  0  0  0  0
  9 12  1  0  0  0  0
 11  6  1  0  0  0  0
 14  9  1  0  0  0  0
M  RAD  1   1   3
M  END
$$$$
