butane_opt
 OpenBabel08242015383D

 14 13  0  0  0  0  0  0  0  0999 V2000
   -3.9284    0.2700    0.1323 C   0  0  0  0  0  0  0  0  0  0  0  0
   -2.7097   -0.5836   -0.1148 C   0  0  0  0  0  0  0  0  0  0  0  0
   -4.9511   -0.4228    0.4532 H   0  0  0  0  0  0  0  0  0  0  0  0
   -4.0692    0.9868   -0.8230 H   0  0  0  0  0  0  0  0  0  0  0  0
   -3.8748    0.8597    0.9823 H   0  0  0  0  0  0  0  0  0  0  0  0
   -1.3952    0.1404   -0.1020 C   0  0  0  0  0  0  0  0  0  0  0  0
   -2.7289   -1.4253   -1.0509 H   0  0  0  0  0  0  0  0  0  0  0  0
   -2.5791   -1.1591    0.7004 H   0  0  0  0  0  0  0  0  0  0  0  0
   -0.1728   -0.6866    0.1521 C   0  0  0  0  0  0  0  0  0  0  0  0
   -1.4920    1.0401    0.8075 H   0  0  0  0  0  0  0  0  0  0  0  0
   -1.2670    0.6735   -0.9724 H   0  0  0  0  0  0  0  0  0  0  0  0
   -0.2065   -1.4828    1.1055 H   0  0  0  0  0  0  0  0  0  0  0  0
    0.7380   -0.1273   -0.0370 H   0  0  0  0  0  0  0  0  0  0  0  0
   -0.1013   -1.0934   -0.5143 H   0  0  0  0  0  0  0  0  0  0  0  0
  1  3  1  0  0  0  0
  1  5  1  0  0  0  0
  2  6  1  0  0  0  0
  2  1  1  0  0  0  0
  2  8  1  0  0  0  0
  4  1  1  0  0  0  0
  6  9  1  0  0  0  0
  6 10  1  0  0  0  0
  7  2  1  0  0  0  0
  9 12  1  0  0  0  0
 11  6  1  0  0  0  0
 13  9  1  0  0  0  0
 14  9  1  0  0  0  0
M  END
$$$$
