butane_opt
 OpenBabel08242015383D

 14 13  0  0  0  0  0  0  0  0999 V2000
   -3.9304    0.2199    0.1070 C   0  0  0  0  0  0  0  0  0  0  0  0
   -2.7091   -0.5793   -0.0941 C   0  0  0  0  0  0  0  0  0  0  0  0
   -4.9382   -0.4280    0.3369 H   0  0  0  0  0  0  0  0  0  0  0  0
   -4.2245    0.9614   -0.7990 H   0  0  0  0  0  0  0  0  0  0  0  0
   -3.6191    0.8818    0.9661 H   0  0  0  0  0  0  0  0  0  0  0  0
   -1.4257    0.2190   -0.0582 C   0  0  0  0  0  0  0  0  0  0  0  0
   -2.6708   -1.2285   -0.9523 H   0  0  0  0  0  0  0  0  0  0  0  0
   -2.6115   -1.1154    0.7316 H   0  0  0  0  0  0  0  0  0  0  0  0
   -0.1579   -0.7418    0.1085 C   0  0  0  0  0  0  0  0  0  0  0  0
   -1.6252    0.8746    0.7605 H   0  0  0  0  0  0  0  0  0  0  0  0
   -1.3225    0.8968   -0.9226 H   0  0  0  0  0  0  0  0  0  0  0  0
   -0.2610   -1.4998    1.0769 H   0  0  0  0  0  0  0  0  0  0  0  0
    0.9094   -0.0264    0.1214 H   0  0  0  0  0  0  0  0  0  0  0  0
    0.0343   -1.2107   -0.6491 H   0  0  0  0  0  0  0  0  0  0  0  0
  1  3  1  0  0  0  0
  1  5  1  0  0  0  0
  2  6  1  0  0  0  0
  2  1  1  0  0  0  0
  2  8  1  0  0  0  0
  4  1  1  0  0  0  0
  6  9  1  0  0  0  0
  6 10  1  0  0  0  0
  7  2  1  0  0  0  0
  9 13  1  0  0  0  0
  9 12  1  0  0  0  0
 11  6  1  0  0  0  0
 14  9  1  0  0  0  0
M  END
$$$$
