butane_opt
 OpenBabel08242015383D

 14 13  0  0  0  0  0  0  0  0999 V2000
   -3.9322    0.2609    0.0505 C   0  0  0  0  0  0  0  0  0  0  0  0
   -2.6928   -0.5976    0.0342 C   0  0  0  0  0  0  0  0  0  0  0  0
   -4.7996   -0.2171    0.0067 H   0  0  0  0  0  0  0  0  0  0  0  0
   -3.8633    0.8633   -0.8212 H   0  0  0  0  0  0  0  0  0  0  0  0
   -3.9295    0.9627    0.8859 H   0  0  0  0  0  0  0  0  0  0  0  0
   -1.3921    0.1594   -0.0659 C   0  0  0  0  0  0  0  0  0  0  0  0
   -2.8123   -1.2512   -0.7413 H   0  0  0  0  0  0  0  0  0  0  0  0
   -2.6305   -1.4304    1.0266 H   0  0  0  0  0  0  0  0  0  0  0  0
   -0.1820   -0.6966    0.0327 C   0  0  0  0  0  0  0  0  0  0  0  0
   -1.5750    0.8942    0.8644 H   0  0  0  0  0  0  0  0  0  0  0  0
   -1.3606    0.8322   -0.9020 H   0  0  0  0  0  0  0  0  0  0  0  0
   -0.3847   -1.1101    0.8234 H   0  0  0  0  0  0  0  0  0  0  0  0
    0.8013    0.0036    0.4929 H   0  0  0  0  0  0  0  0  0  0  0  0
   -0.0960   -1.5193   -0.8435 H   0  0  0  0  0  0  0  0  0  0  0  0
  1  5  1  0  0  0  0
  2  1  1  0  0  0  0
  2  8  1  0  0  0  0
  3  1  1  0  0  0  0
  4  1  1  0  0  0  0
  6  9  1  0  0  0  0
  6  2  1  0  0  0  0
  6 10  1  0  0  0  0
  7  2  1  0  0  0  0
  9 13  1  0  0  0  0
  9 12  1  0  0  0  0
 11  6  1  0  0  0  0
 14  9  1  0  0  0  0
M  END
$$$$
