14
butane_opt
C  -3.883217   0.253425  -0.110471
C  -2.734153  -0.596029   0.139124
H  -4.781537  -0.309352   0.268898
H  -3.876161   0.913198  -1.004307
H  -3.791927   0.746458   0.643824
C  -1.415113   0.217479   0.111630
H  -2.622102  -1.128883  -0.534201
H  -2.911583  -1.356074   1.092659
C  -0.184473  -0.722054  -0.073285
H  -1.485175   1.019838   1.041731
H  -1.542489   0.680866  -0.682979
H  -0.065841  -1.124733   0.686817
H   0.772267  -0.122535   0.068272
H  -0.146212  -1.602877  -0.967350
