14
butane_opt
C  -3.969200   0.322319  -0.088057
C  -2.719697  -0.672354   0.193767
H  -4.795423  -0.310285  -0.425512
H  -3.795045   0.793747  -0.906678
H  -4.366663   1.070248   0.753982
C  -1.394894   0.128810   0.109056
H  -2.613969  -1.190692  -0.594199
H  -2.826195  -1.345987   1.177770
C  -0.133326  -0.675417  -0.069650
H  -1.072270   0.848995   1.048650
H  -1.462890   0.893887  -0.819416
H  -0.161376  -1.085694   0.636903
H   0.891207   0.038720  -0.142350
H  -0.225250  -1.431716  -1.029653
