14
butane_opt
C  -3.924917   0.259407   0.044918
C  -2.704000  -0.610551  -0.007204
H  -4.847933  -0.359673   0.055376
H  -4.002833   0.831505  -0.840733
H  -3.914471   0.943629   0.935622
C  -1.404264   0.201349  -0.002742
H  -2.711512  -1.271181  -0.861221
H  -2.736665  -1.219454   0.883556
C  -0.168601  -0.705854   0.061232
H  -1.458024   0.884894   0.864244
H  -1.375483   0.827367  -0.884044
H  -0.124100  -1.466778   1.027448
H   0.757626  -0.095576  -0.132613
H  -0.183187  -1.278205  -0.752529
