butane_opt
 OpenBabel08242015383D

 14 11  0  0  0  0  0  0  0  0999 V2000
   -3.9307    0.2920    0.0738 C   0  0  0  0  0  0  0  0  0  0  0  0
   -2.6520   -0.6479   -0.0782 C   0  0  0  0  0  0  0  0  0  0  0  0
   -4.8584   -0.2459    0.0860 H   0  0  0  0  0  0  0  0  0  0  0  0
   -3.9618    0.7446   -0.6333 H   0  0  0  0  0  0  0  0  0  0  0  0
   -3.9739    1.1558    1.0927 H   0  0  0  0  0  0  0  0  0  0  0  0
   -1.3819    0.1742   -0.0072 C   0  0  0  0  0  0  0  0  0  0  0  0
   -2.8441   -1.4736   -1.0156 H   0  0  0  0  0  0  0  0  0  0  0  0
   -2.6366   -1.1871    0.7233 H   0  0  0  0  0  0  0  0  0  0  0  0
   -0.2357   -0.6815    0.0817 C   0  0  0  0  0  0  0  0  0  0  0  0
   -1.3705    0.7863    0.7857 H   0  0  0  0  0  0  0  0  0  0  0  0
   -1.3707    0.7294   -0.9058 H   0  0  0  0  0  0  0  0  0  0  0  0
   -0.1241   -1.8105    1.3291 H   0  0  0  0  0  0  0  0  0  0  0  0
    0.7518    0.0207   -0.3899 H   0  0  0  0  0  0  0  0  0  0  0  0
   -0.2547   -0.7972   -0.3949 H   0  0  0  0  0  0  0  0  0  0  0  0
  1  3  1  0  0  0  0
  1  5  1  0  0  0  0
  2  6  1  0  0  0  0
  2  1  1  0  0  0  0
  2  8  1  0  0  0  0
  4  1  1  0  0  0  0
  6  9  1  0  0  0  0
  6 10  1  0  0  0  0
  7  2  1  0  0  0  0
 11  6  1  0  0  0  0
 13  9  1  0  0  0  0
M  RAD  3   9   3  12   2  14   2
M  END
$$$$
