14
butane_opt
C  -3.971796   0.246227   0.043132
C  -2.718778  -0.606291   0.036407
H  -4.841399  -0.299268  -0.399044
H  -3.630432   0.390846  -0.600746
H  -4.103244   1.270128   1.103027
C  -1.393685   0.221120  -0.032659
H  -2.753818  -1.067903  -0.640239
H  -2.911427  -1.345118   0.977879
C  -0.137138  -0.715855   0.054649
H  -1.408243   0.911531   0.744596
H  -1.316296   0.900591  -1.020490
H   0.054938  -1.424937   0.996542
H   0.577281  -0.253601  -0.071002
H  -0.050266  -1.327506  -0.803806
