14
butane_opt
C  -3.940279   0.262577   0.113915
C  -2.728289  -0.638472  -0.104869
H  -4.839803  -0.337432   0.491729
H  -4.276531   0.969951  -0.845169
H  -3.772296   0.737881   0.793257
C  -1.407255   0.243809  -0.038042
H  -2.882500  -1.421361  -1.072799
H  -2.661156  -1.142022   0.675189
C  -0.111275  -0.701298   0.122685
H  -1.613240   0.745281   0.757074
H  -1.353440   0.977655  -1.021753
H  -0.013399  -1.453134   1.094820
H   0.776342  -0.223427   0.144203
H  -0.146457  -1.311813  -0.698974
