14
butane_opt
C  -3.942067   0.298993  -0.054612
C  -2.666712  -0.610515   0.077419
H  -4.860204  -0.354299   0.236059
H  -4.062569   0.951925  -0.904672
H  -3.820724   0.679506   0.710896
C  -1.410477   0.121063   0.082893
H  -2.535657  -1.168353  -0.670976
H  -2.723415  -1.356922   0.965903
C  -0.183272  -0.646084  -0.020620
H  -1.416794   0.853669   0.967232
H  -1.442628   0.681230  -0.741360
H  -0.307258  -1.159946   0.855464
H   0.689228  -0.093417  -0.012173
H  -0.132972  -1.465492  -1.028009
