14
butane_opt
C  -3.913133   0.272555  -0.100097
C  -2.719879  -0.583258   0.129783
H  -4.894155  -0.471668   0.030845
H  -3.701073   0.894106  -1.067914
H  -3.947471   0.699745   0.634630
C  -1.408994   0.201583   0.143684
H  -2.637343  -1.198471  -0.638369
H  -2.772598  -1.281741   1.078691
C  -0.181342  -0.715305  -0.068825
H  -1.289000   1.125141   1.187298
H  -1.664544   0.531117  -0.596663
H   0.152108  -1.503177   0.850805
H   0.748001  -0.078133  -0.389900
H  -0.360162  -1.274558  -0.883767
