butane_opt
 OpenBabel08242015383D

 14 12  0  0  0  0  0  0  0  0999 V2000
   -3.9272    0.2704   -0.0274 C   0  0  0  0  0  0  0  0  0  0  0  0
   -2.6789   -0.6200    0.1060 C   0  0  0  0  0  0  0  0  0  0  0  0
   -4.8155   -0.2460    0.0410 H   0  0  0  0  0  0  0  0  0  0  0  0
   -3.9799    1.1852   -1.0351 H   0  0  0  0  0  0  0  0  0  0  0  0
   -3.9245    0.7289    0.6947 H   0  0  0  0  0  0  0  0  0  0  0  0
   -1.4003    0.1493    0.0556 C   0  0  0  0  0  0  0  0  0  0  0  0
   -2.6225   -1.2416   -0.7203 H   0  0  0  0  0  0  0  0  0  0  0  0
   -2.6393   -1.3358    1.0933 H   0  0  0  0  0  0  0  0  0  0  0  0
   -0.2201   -0.6634   -0.0099 C   0  0  0  0  0  0  0  0  0  0  0  0
   -1.2797    0.7617    0.9377 H   0  0  0  0  0  0  0  0  0  0  0  0
   -1.2487    0.8714   -0.9200 H   0  0  0  0  0  0  0  0  0  0  0  0
   -0.2492   -0.9635    0.7009 H   0  0  0  0  0  0  0  0  0  0  0  0
    0.7058   -0.0721    0.3182 H   0  0  0  0  0  0  0  0  0  0  0  0
   -0.2516   -1.8091   -1.2392 H   0  0  0  0  0  0  0  0  0  0  0  0
  1  3  1  0  0  0  0
  1  2  1  0  0  0  0
  1  5  1  0  0  0  0
  2  8  1  0  0  0  0
  4  1  1  0  0  0  0
  6  2  1  0  0  0  0
  6 10  1  0  0  0  0
  7  2  1  0  0  0  0
  9  6  1  0  0  0  0
  9 13  1  0  0  0  0
  9 12  1  0  0  0  0
 11  6  1  0  0  0  0
M  RAD  2   9   2  14   2
M  END
$$$$
