butane_opt
 OpenBabel08242015383D

 14 13  0  0  0  0  0  0  0  0999 V2000
   -3.9717    0.2348    0.0804 C   0  0  0  0  0  0  0  0  0  0  0  0
   -2.7125   -0.5748    0.0246 C   0  0  0  0  0  0  0  0  0  0  0  0
   -4.9606   -0.4452   -0.3626 H   0  0  0  0  0  0  0  0  0  0  0  0
   -3.7326    0.4538   -0.6296 H   0  0  0  0  0  0  0  0  0  0  0  0
   -4.0448    1.2003    1.1204 H   0  0  0  0  0  0  0  0  0  0  0  0
   -1.4188    0.2378   -0.0611 C   0  0  0  0  0  0  0  0  0  0  0  0
   -2.7246   -1.2866   -0.8756 H   0  0  0  0  0  0  0  0  0  0  0  0
   -2.6669   -1.2509    0.9154 H   0  0  0  0  0  0  0  0  0  0  0  0
   -0.1244   -0.7178    0.0731 C   0  0  0  0  0  0  0  0  0  0  0  0
   -1.5260    0.8237    0.6183 H   0  0  0  0  0  0  0  0  0  0  0  0
   -1.2184    1.0343   -1.0919 H   0  0  0  0  0  0  0  0  0  0  0  0
   -0.0625   -1.5274    1.1138 H   0  0  0  0  0  0  0  0  0  0  0  0
    0.7885   -0.2475    0.0925 H   0  0  0  0  0  0  0  0  0  0  0  0
   -0.1274   -1.4173   -0.8184 H   0  0  0  0  0  0  0  0  0  0  0  0
  1  5  1  0  0  0  0
  2  1  1  0  0  0  0
  2  8  1  0  0  0  0
  3  1  1  0  0  0  0
  4  1  1  0  0  0  0
  6  2  1  0  0  0  0
  6  9  1  0  0  0  0
  6 10  1  0  0  0  0
  7  2  1  0  0  0  0
  9 13  1  0  0  0  0
  9 12  1  0  0  0  0
 11  6  1  0  0  0  0
 14  9  1  0  0  0  0
M  END
$$$$
