butane_opt
 OpenBabel08242015383D

 14 13  0  0  0  0  0  0  0  0999 V2000
   -3.9360    0.3037    0.0794 C   0  0  0  0  0  0  0  0  0  0  0  0
   -2.6963   -0.6319   -0.0052 C   0  0  0  0  0  0  0  0  0  0  0  0
   -4.7975   -0.1893    0.2243 H   0  0  0  0  0  0  0  0  0  0  0  0
   -3.9420    0.8521   -0.7712 H   0  0  0  0  0  0  0  0  0  0  0  0
   -4.0138    0.9014    0.9543 H   0  0  0  0  0  0  0  0  0  0  0  0
   -1.3889    0.1418   -0.0788 C   0  0  0  0  0  0  0  0  0  0  0  0
   -2.6713   -1.4741   -0.9191 H   0  0  0  0  0  0  0  0  0  0  0  0
   -2.6363   -1.1920    0.8398 H   0  0  0  0  0  0  0  0  0  0  0  0
   -0.2055   -0.6867    0.0867 C   0  0  0  0  0  0  0  0  0  0  0  0
   -1.3330    0.7179    0.7233 H   0  0  0  0  0  0  0  0  0  0  0  0
   -1.3840    0.8571   -1.1061 H   0  0  0  0  0  0  0  0  0  0  0  0
   -0.4709   -1.1085    0.9005 H   0  0  0  0  0  0  0  0  0  0  0  0
    0.9490    0.0994    0.3858 H   0  0  0  0  0  0  0  0  0  0  0  0
   -0.0338   -1.4188   -0.7661 H   0  0  0  0  0  0  0  0  0  0  0  0
  1  3  1  0  0  0  0
  1  5  1  0  0  0  0
  2  1  1  0  0  0  0
  2  8  1  0  0  0  0
  4  1  1  0  0  0  0
  6  2  1  0  0  0  0
  6  9  1  0  0  0  0
  6 10  1  0  0  0  0
  7  2  1  0  0  0  0
  9 13  1  0  0  0  0
  9 12  1  0  0  0  0
 11  6  1  0  0  0  0
 14  9  1  0  0  0  0
M  END
$$$$
