14
butane_opt
C  -3.925393   0.260997  -0.085004
C  -2.683343  -0.593341   0.139349
H  -4.874692  -0.414867  -0.061487
H  -3.897221   1.075910  -1.031516
H  -4.152297   0.789053   0.674543
C  -1.407335   0.166514   0.159345
H  -2.660043  -1.331936  -0.824932
H  -2.699692  -1.216366   1.030126
C  -0.189231  -0.693687  -0.089348
H  -1.168175   0.914577   1.102790
H  -1.428568   0.782834  -0.723146
H   0.009986  -1.422557   0.834927
H   0.733101  -0.140211  -0.217388
H  -0.387615  -1.200490  -0.826392
