14
butane_opt
C  -3.935043   0.294574   0.135408
C  -2.689581  -0.612481  -0.085442
H  -4.893869  -0.403439   0.289566
H  -4.061561   0.922782  -0.734056
H  -3.836013   0.801330   0.803048
C  -1.394170   0.168396  -0.079988
H  -2.861572  -1.348585  -1.032975
H  -2.398064  -1.136824   0.685436
C  -0.201205  -0.690636   0.124703
H  -1.390627   0.729866   0.685845
H  -1.220879   0.765322  -1.069810
H  -0.388845  -1.344014   1.074378
H   0.803126  -0.069317   0.254031
H  -0.129434  -1.303563  -0.661347
