14
butane_opt
C  -3.983964   0.302150  -0.011442
C  -2.684228  -0.672733   0.093267
H  -4.814232  -0.313245  -0.267445
H  -4.100554   0.706592  -0.799457
H  -4.199506   1.268563   0.959251
C  -1.380229   0.177101   0.029566
H  -2.686141  -1.352186  -0.747944
H  -2.673916  -1.289754   1.006600
C  -0.165295  -0.666930   0.019569
H  -1.190238   0.639692   0.671460
H  -1.258226   0.844542  -0.862090
H  -0.130734  -1.242743   0.869616
H   0.754799  -0.036943  -0.083759
H  -0.143990  -1.369997  -0.866092
