14
butane_opt
C  -3.941098   0.268036  -0.078213
C  -2.660596  -0.633992   0.105565
H  -4.840814  -0.268368  -0.009644
H  -3.962879   1.131508  -1.026611
H  -4.202417   0.852128   0.652474
C  -1.410780   0.161659   0.133325
H  -2.637864  -1.270378  -0.615184
H  -2.854224  -1.432695   1.190477
C  -0.165398  -0.662243  -0.056464
H  -1.374692   1.037123   1.096090
H  -1.406090   0.628675  -0.601046
H  -0.045827  -1.307339   0.836277
H   0.788259  -0.034991  -0.351343
H  -0.350128  -1.402678  -1.017112
