butane_opt
 OpenBabel08242015383D

 14 13  0  0  0  0  0  0  0  0999 V2000
   -3.9421    0.2962   -0.0130 C   0  0  0  0  0  0  0  0  0  0  0  0
   -2.7132   -0.6376    0.0517 C   0  0  0  0  0  0  0  0  0  0  0  0
   -4.9047   -0.3054    0.1327 H   0  0  0  0  0  0  0  0  0  0  0  0
   -4.0426    1.1043   -0.9305 H   0  0  0  0  0  0  0  0  0  0  0  0
   -4.0220    0.8357    0.6860 H   0  0  0  0  0  0  0  0  0  0  0  0
   -1.3977    0.1361    0.0470 C   0  0  0  0  0  0  0  0  0  0  0  0
   -2.7934   -1.3534   -0.7905 H   0  0  0  0  0  0  0  0  0  0  0  0
   -2.7606   -1.2913    0.9368 H   0  0  0  0  0  0  0  0  0  0  0  0
   -0.1337   -0.6828   -0.0092 C   0  0  0  0  0  0  0  0  0  0  0  0
   -1.4012    1.1697    1.0934 H   0  0  0  0  0  0  0  0  0  0  0  0
   -1.3242    0.5901   -0.7209 H   0  0  0  0  0  0  0  0  0  0  0  0
   -0.0394   -1.4143    1.0115 H   0  0  0  0  0  0  0  0  0  0  0  0
    0.8684   -0.0021   -0.1699 H   0  0  0  0  0  0  0  0  0  0  0  0
   -0.3715   -1.1420   -0.7309 H   0  0  0  0  0  0  0  0  0  0  0  0
  1  2  1  0  0  0  0
  1  3  1  0  0  0  0
  1  5  1  0  0  0  0
  2  8  1  0  0  0  0
  4  1  1  0  0  0  0
  6  2  1  0  0  0  0
  6 10  1  0  0  0  0
  7  2  1  0  0  0  0
  9  6  1  0  0  0  0
  9 12  1  0  0  0  0
 11  6  1  0  0  0  0
 13  9  1  0  0  0  0
 14  9  1  0  0  0  0
M  END
$$$$
