butane_opt
 OpenBabel08242015383D

 14 13  0  0  0  0  0  0  0  0999 V2000
   -3.8969    0.2214    0.0844 C   0  0  0  0  0  0  0  0  0  0  0  0
   -2.7224   -0.5446   -0.0410 C   0  0  0  0  0  0  0  0  0  0  0  0
   -4.8634   -0.4253   -0.2042 H   0  0  0  0  0  0  0  0  0  0  0  0
   -3.9763    0.6125   -0.6718 H   0  0  0  0  0  0  0  0  0  0  0  0
   -3.8568    1.2230    1.2065 H   0  0  0  0  0  0  0  0  0  0  0  0
   -1.4091    0.1954   -0.0260 C   0  0  0  0  0  0  0  0  0  0  0  0
   -2.7973   -1.2482   -1.0316 H   0  0  0  0  0  0  0  0  0  0  0  0
   -2.6634   -1.1133    0.7860 H   0  0  0  0  0  0  0  0  0  0  0  0
   -0.1778   -0.7388    0.1016 C   0  0  0  0  0  0  0  0  0  0  0  0
   -1.4838    0.6603    0.6511 H   0  0  0  0  0  0  0  0  0  0  0  0
   -1.4166    0.9713   -1.0465 H   0  0  0  0  0  0  0  0  0  0  0  0
   -0.0441   -1.6523    1.1688 H   0  0  0  0  0  0  0  0  0  0  0  0
    0.7922    0.0010   -0.2335 H   0  0  0  0  0  0  0  0  0  0  0  0
   -0.2188   -1.1037   -0.5586 H   0  0  0  0  0  0  0  0  0  0  0  0
  1  5  1  0  0  0  0
  2  6  1  0  0  0  0
  2  1  1  0  0  0  0
  2  8  1  0  0  0  0
  3  1  1  0  0  0  0
  4  1  1  0  0  0  0
  6  9  1  0  0  0  0
  6 10  1  0  0  0  0
  7  2  1  0  0  0  0
  9 12  1  0  0  0  0
 11  6  1  0  0  0  0
 13  9  1  0  0  0  0
 14  9  1  0  0  0  0
M  END
$$$$
