14
butane_opt
C  -3.971705   0.234754   0.080430
C  -2.712516  -0.574831   0.024641
H  -4.960609  -0.445160  -0.362635
H  -3.732592   0.453833  -0.629582
H  -4.044811   1.200303   1.120379
C  -1.418841   0.237816  -0.061101
H  -2.724637  -1.286629  -0.875585
H  -2.666858  -1.250947   0.915381
C  -0.124377  -0.717847   0.073119
H  -1.526018   0.823684   0.618286
H  -1.218438   1.034256  -1.091884
H  -0.062455  -1.527409   1.113785
H   0.788464  -0.247530   0.092536
H  -0.127392  -1.417288  -0.818435
