14
butane_opt
C  -3.928374   0.270000   0.132327
C  -2.709674  -0.583551  -0.114825
H  -4.951138  -0.422776   0.453200
H  -4.069151   0.986844  -0.823035
H  -3.874831   0.859723   0.982308
C  -1.395228   0.140407  -0.101959
H  -2.728916  -1.425272  -1.050885
H  -2.579066  -1.159114   0.700386
C  -0.172783  -0.686627   0.152066
H  -1.491993   1.040134   0.807532
H  -1.266985   0.673477  -0.972362
H  -0.206489  -1.482807   1.105540
H   0.738027  -0.127344  -0.037028
H  -0.101343  -1.093386  -0.514336
