14
butane_opt
C  -4.000988   0.322292   0.109601
C  -2.704497  -0.680186  -0.086900
H  -5.004898  -0.241371   0.378603
H  -4.189185   0.957002  -0.773829
H  -3.768466   0.881167   0.969004
C  -1.366634   0.139961  -0.075434
H  -2.892746  -1.323930  -1.003736
H  -2.603347  -1.171936   0.668226
C  -0.130505  -0.662871   0.121572
H  -1.414651   0.748606   0.738386
H  -1.158732   0.905610  -1.064111
H  -0.210052  -1.284886   1.090081
H   0.766350  -0.079127   0.250276
H  -0.133519  -1.301862  -0.644737
