butane_opt
 OpenBabel08242015383D

 14 13  0  0  0  0  0  0  0  0999 V2000
   -3.9677    0.2388    0.1247 C   0  0  0  0  0  0  0  0  0  0  0  0
   -2.7321   -0.5676   -0.0203 C   0  0  0  0  0  0  0  0  0  0  0  0
   -4.9922   -0.4120   -0.4523 H   0  0  0  0  0  0  0  0  0  0  0  0
   -3.7306    0.4881   -0.5169 H   0  0  0  0  0  0  0  0  0  0  0  0
   -4.0462    1.1708    1.1416 H   0  0  0  0  0  0  0  0  0  0  0  0
   -1.3905    0.2481   -0.0916 C   0  0  0  0  0  0  0  0  0  0  0  0
   -2.8326   -1.3780   -0.9451 H   0  0  0  0  0  0  0  0  0  0  0  0
   -2.6989   -1.1346    0.7500 H   0  0  0  0  0  0  0  0  0  0  0  0
   -0.1335   -0.7523    0.1168 C   0  0  0  0  0  0  0  0  0  0  0  0
   -1.3932    0.7506    0.5822 H   0  0  0  0  0  0  0  0  0  0  0  0
   -1.3275    0.9153   -1.0804 H   0  0  0  0  0  0  0  0  0  0  0  0
    0.0039   -1.5903    1.1258 H   0  0  0  0  0  0  0  0  0  0  0  0
    0.7260   -0.1691   -0.1183 H   0  0  0  0  0  0  0  0  0  0  0  0
   -0.0369   -1.1309   -0.5424 H   0  0  0  0  0  0  0  0  0  0  0  0
  1  5  1  0  0  0  0
  2  1  1  0  0  0  0
  2  8  1  0  0  0  0
  3  1  1  0  0  0  0
  4  1  1  0  0  0  0
  6  2  1  0  0  0  0
  6  9  1  0  0  0  0
  6 10  1  0  0  0  0
  7  2  1  0  0  0  0
  9 12  1  0  0  0  0
 11  6  1  0  0  0  0
 13  9  1  0  0  0  0
 14  9  1  0  0  0  0
M  END
$$$$
