butane_opt
 OpenBabel08242015383D

 14 13  0  0  0  0  0  0  0  0999 V2000
   -3.9521    0.2776    0.0288 C   0  0  0  0  0  0  0  0  0  0  0  0
   -2.7039   -0.6270    0.0263 C   0  0  0  0  0  0  0  0  0  0  0  0
   -4.8165   -0.2935    0.0417 H   0  0  0  0  0  0  0  0  0  0  0  0
   -3.9951    0.8691   -0.8291 H   0  0  0  0  0  0  0  0  0  0  0  0
   -3.9618    0.9711    0.9046 H   0  0  0  0  0  0  0  0  0  0  0  0
   -1.3976    0.1673   -0.0076 C   0  0  0  0  0  0  0  0  0  0  0  0
   -2.7607   -1.3566   -0.8551 H   0  0  0  0  0  0  0  0  0  0  0  0
   -2.7126   -1.2111    0.9075 H   0  0  0  0  0  0  0  0  0  0  0  0
   -0.1552   -0.6830    0.0414 C   0  0  0  0  0  0  0  0  0  0  0  0
   -1.3933    0.8723    0.8507 H   0  0  0  0  0  0  0  0  0  0  0  0
   -1.3693    0.7895   -0.8746 H   0  0  0  0  0  0  0  0  0  0  0  0
   -0.1503   -1.3866    1.0092 H   0  0  0  0  0  0  0  0  0  0  0  0
    0.7756   -0.0521    0.0010 H   0  0  0  0  0  0  0  0  0  0  0  0
   -0.1465   -1.2845   -0.7750 H   0  0  0  0  0  0  0  0  0  0  0  0
  1  3  1  0  0  0  0
  1  5  1  0  0  0  0
  2  1  1  0  0  0  0
  2  8  1  0  0  0  0
  4  1  1  0  0  0  0
  6  2  1  0  0  0  0
  6  9  1  0  0  0  0
  6 10  1  0  0  0  0
  7  2  1  0  0  0  0
  9 12  1  0  0  0  0
 11  6  1  0  0  0  0
 13  9  1  0  0  0  0
 14  9  1  0  0  0  0
M  END
$$$$
