14
butane_opt
C  -3.967744   0.219570   0.094562
C  -2.708012  -0.594437  -0.084007
H  -4.847054  -0.361766   0.128803
H  -4.129794   0.713512  -0.667782
H  -3.817348   1.052237   1.091630
C  -1.429423   0.267515  -0.024273
H  -2.757077  -1.457942  -1.057962
H  -2.756356  -1.094001   0.713277
C  -0.105016  -0.721911   0.108887
H  -1.510077   0.863639   0.752499
H  -1.238548   0.923501  -1.076390
H  -0.080537  -1.859318   1.310578
H   0.764719  -0.205797  -0.316908
H  -0.113458  -1.086086  -0.529991
