butane_opt
 OpenBabel08242015383D

 14 11  0  0  0  0  0  0  0  0999 V2000
   -3.9718    0.2462    0.0431 C   0  0  0  0  0  0  0  0  0  0  0  0
   -2.7188   -0.6063    0.0364 C   0  0  0  0  0  0  0  0  0  0  0  0
   -4.8414   -0.2993   -0.3990 H   0  0  0  0  0  0  0  0  0  0  0  0
   -3.6304    0.3908   -0.6007 H   0  0  0  0  0  0  0  0  0  0  0  0
   -4.1032    1.2701    1.1030 H   0  0  0  0  0  0  0  0  0  0  0  0
   -1.3937    0.2211   -0.0327 C   0  0  0  0  0  0  0  0  0  0  0  0
   -2.7538   -1.0679   -0.6402 H   0  0  0  0  0  0  0  0  0  0  0  0
   -2.9114   -1.3451    0.9779 H   0  0  0  0  0  0  0  0  0  0  0  0
   -0.1371   -0.7159    0.0546 C   0  0  0  0  0  0  0  0  0  0  0  0
   -1.4082    0.9115    0.7446 H   0  0  0  0  0  0  0  0  0  0  0  0
   -1.3163    0.9006   -1.0205 H   0  0  0  0  0  0  0  0  0  0  0  0
    0.0549   -1.4249    0.9965 H   0  0  0  0  0  0  0  0  0  0  0  0
    0.5773   -0.2536   -0.0710 H   0  0  0  0  0  0  0  0  0  0  0  0
   -0.0503   -1.3275   -0.8038 H   0  0  0  0  0  0  0  0  0  0  0  0
  1  5  1  0  0  0  0
  2  8  1  0  0  0  0
  3  1  1  0  0  0  0
  4  1  1  0  0  0  0
  6  9  1  0  0  0  0
  6 10  1  0  0  0  0
  7  2  1  0  0  0  0
  9 12  1  0  0  0  0
 11  6  1  0  0  0  0
 13  9  1  0  0  0  0
 14  9  1  0  0  0  0
M  RAD  3   1   2   2   3   6   2
M  END
$$$$
