butane_opt
 OpenBabel08242015383D

 14 13  0  0  0  0  0  0  0  0999 V2000
   -3.9403    0.2626    0.1139 C   0  0  0  0  0  0  0  0  0  0  0  0
   -2.7283   -0.6385   -0.1049 C   0  0  0  0  0  0  0  0  0  0  0  0
   -4.8398   -0.3374    0.4917 H   0  0  0  0  0  0  0  0  0  0  0  0
   -4.2765    0.9700   -0.8452 H   0  0  0  0  0  0  0  0  0  0  0  0
   -3.7723    0.7379    0.7933 H   0  0  0  0  0  0  0  0  0  0  0  0
   -1.4073    0.2438   -0.0380 C   0  0  0  0  0  0  0  0  0  0  0  0
   -2.8825   -1.4214   -1.0728 H   0  0  0  0  0  0  0  0  0  0  0  0
   -2.6612   -1.1420    0.6752 H   0  0  0  0  0  0  0  0  0  0  0  0
   -0.1113   -0.7013    0.1227 C   0  0  0  0  0  0  0  0  0  0  0  0
   -1.6132    0.7453    0.7571 H   0  0  0  0  0  0  0  0  0  0  0  0
   -1.3534    0.9777   -1.0218 H   0  0  0  0  0  0  0  0  0  0  0  0
   -0.0134   -1.4531    1.0948 H   0  0  0  0  0  0  0  0  0  0  0  0
    0.7763   -0.2234    0.1442 H   0  0  0  0  0  0  0  0  0  0  0  0
   -0.1465   -1.3118   -0.6990 H   0  0  0  0  0  0  0  0  0  0  0  0
  1  3  1  0  0  0  0
  1  5  1  0  0  0  0
  2  6  1  0  0  0  0
  2  1  1  0  0  0  0
  2  8  1  0  0  0  0
  4  1  1  0  0  0  0
  6  9  1  0  0  0  0
  6 10  1  0  0  0  0
  7  2  1  0  0  0  0
  9 13  1  0  0  0  0
  9 12  1  0  0  0  0
 11  6  1  0  0  0  0
 14  9  1  0  0  0  0
M  END
$$$$
