14
butane_opt
C  -3.972471   0.276908  -0.067970
C  -2.703912  -0.654284   0.095984
H  -4.749394  -0.213234  -0.098128
H  -3.935821   0.853111  -0.997077
H  -4.049268   0.964605   0.849257
C  -1.365731   0.199435   0.133902
H  -2.615062  -1.233673  -0.646269
H  -2.848185  -1.342230   0.986225
C  -0.157012  -0.704557  -0.062651
H  -1.341794   0.934103   1.041122
H  -1.527529   0.790822  -0.660637
H   0.045422  -1.486897   0.879611
H   0.767253  -0.083448  -0.266179
H  -0.388417  -1.037436  -0.795253
