butane_opt
 OpenBabel08242015383D

 14 13  0  0  0  0  0  0  0  0999 V2000
   -3.9572    0.2804    0.0424 C   0  0  0  0  0  0  0  0  0  0  0  0
   -2.7083   -0.6377   -0.0023 C   0  0  0  0  0  0  0  0  0  0  0  0
   -4.7986   -0.2462    0.0240 H   0  0  0  0  0  0  0  0  0  0  0  0
   -3.9926    0.8267   -0.8101 H   0  0  0  0  0  0  0  0  0  0  0  0
   -3.9871    0.9884    0.9413 H   0  0  0  0  0  0  0  0  0  0  0  0
   -1.3870    0.1714   -0.0029 C   0  0  0  0  0  0  0  0  0  0  0  0
   -2.7858   -1.3419   -0.8836 H   0  0  0  0  0  0  0  0  0  0  0  0
   -2.6653   -1.2561    0.8868 H   0  0  0  0  0  0  0  0  0  0  0  0
   -0.1592   -0.6798    0.0553 C   0  0  0  0  0  0  0  0  0  0  0  0
   -1.3904    0.8942    0.8530 H   0  0  0  0  0  0  0  0  0  0  0  0
   -1.3729    0.7987   -0.8918 H   0  0  0  0  0  0  0  0  0  0  0  0
   -0.1144   -1.4485    1.0792 H   0  0  0  0  0  0  0  0  0  0  0  0
    0.7512   -0.0842   -0.1369 H   0  0  0  0  0  0  0  0  0  0  0  0
   -0.1442   -1.2041   -0.7186 H   0  0  0  0  0  0  0  0  0  0  0  0
  1  5  1  0  0  0  0
  2  1  1  0  0  0  0
  2  8  1  0  0  0  0
  3  1  1  0  0  0  0
  4  1  1  0  0  0  0
  6  2  1  0  0  0  0
  6  9  1  0  0  0  0
  6 10  1  0  0  0  0
  7  2  1  0  0  0  0
  9 12  1  0  0  0  0
 11  6  1  0  0  0  0
 13  9  1  0  0  0  0
 14  9  1  0  0  0  0
M  END
$$$$
