butane_opt
 OpenBabel08242015383D

 14 13  0  0  0  0  0  0  0  0999 V2000
   -3.9246    0.2354   -0.0180 C   0  0  0  0  0  0  0  0  0  0  0  0
   -2.7567   -0.6023    0.0683 C   0  0  0  0  0  0  0  0  0  0  0  0
   -4.8138   -0.3102   -0.0434 H   0  0  0  0  0  0  0  0  0  0  0  0
   -3.8846    0.8423   -0.9568 H   0  0  0  0  0  0  0  0  0  0  0  0
   -4.1467    1.1303    0.9229 H   0  0  0  0  0  0  0  0  0  0  0  0
   -1.4014    0.2123    0.0325 C   0  0  0  0  0  0  0  0  0  0  0  0
   -2.7566   -1.2832   -0.7294 H   0  0  0  0  0  0  0  0  0  0  0  0
   -2.8195   -1.3571    1.0831 H   0  0  0  0  0  0  0  0  0  0  0  0
   -0.1043   -0.7081   -0.0105 C   0  0  0  0  0  0  0  0  0  0  0  0
   -1.2255    1.0047    0.9878 H   0  0  0  0  0  0  0  0  0  0  0  0
   -1.5725    0.7734   -0.7492 H   0  0  0  0  0  0  0  0  0  0  0  0
   -0.1050   -1.4362    0.9702 H   0  0  0  0  0  0  0  0  0  0  0  0
    0.6534   -0.1593   -0.0906 H   0  0  0  0  0  0  0  0  0  0  0  0
   -0.0849   -1.3346   -0.7899 H   0  0  0  0  0  0  0  0  0  0  0  0
  1  2  1  0  0  0  0
  1  5  1  0  0  0  0
  2  8  1  0  0  0  0
  3  1  1  0  0  0  0
  4  1  1  0  0  0  0
  6  2  1  0  0  0  0
  6 10  1  0  0  0  0
  7  2  1  0  0  0  0
  9  6  1  0  0  0  0
  9 12  1  0  0  0  0
 11  6  1  0  0  0  0
 13  9  1  0  0  0  0
 14  9  1  0  0  0  0
M  END
$$$$
