14
butane_opt
C  -3.934175   0.227679   0.132229
C  -2.732518  -0.586970  -0.036967
H  -4.853445  -0.427879   0.067411
H  -3.992672   0.689041  -0.603298
H  -3.920363   1.015168   1.038246
C  -1.424068   0.231613  -0.168832
H  -2.866283  -1.279962  -1.010361
H  -2.587730  -1.194154   0.826155
C  -0.134767  -0.714055   0.144376
H  -1.548601   1.005327   0.714237
H  -1.239686   0.911546  -1.146871
H  -0.146357  -1.375939   0.996794
H   0.676201  -0.308445   0.439200
H   0.178181  -1.440752  -0.715892
