butane_opt
 OpenBabel08242015383D

 14 13  0  0  0  0  0  0  0  0999 V2000
   -3.9652    0.2641   -0.0440 C   0  0  0  0  0  0  0  0  0  0  0  0
   -2.7048   -0.6496    0.1541 C   0  0  0  0  0  0  0  0  0  0  0  0
   -4.8872   -0.3162   -0.1761 H   0  0  0  0  0  0  0  0  0  0  0  0
   -3.9060    0.8946   -0.9381 H   0  0  0  0  0  0  0  0  0  0  0  0
   -4.0466    0.8472    0.8323 H   0  0  0  0  0  0  0  0  0  0  0  0
   -1.4168    0.2132    0.0462 C   0  0  0  0  0  0  0  0  0  0  0  0
   -2.6307   -1.3300   -0.7183 H   0  0  0  0  0  0  0  0  0  0  0  0
   -2.8042   -1.1480    0.9305 H   0  0  0  0  0  0  0  0  0  0  0  0
   -0.1219   -0.6829   -0.0285 C   0  0  0  0  0  0  0  0  0  0  0  0
   -1.2207    0.9265    0.8929 H   0  0  0  0  0  0  0  0  0  0  0  0
   -1.4752    0.9323   -0.8384 H   0  0  0  0  0  0  0  0  0  0  0  0
   -0.1019   -1.2235    0.7969 H   0  0  0  0  0  0  0  0  0  0  0  0
    0.6678   -0.2974    0.0976 H   0  0  0  0  0  0  0  0  0  0  0  0
   -0.0992   -1.5290   -0.9797 H   0  0  0  0  0  0  0  0  0  0  0  0
  1  2  1  0  0  0  0
  1  5  1  0  0  0  0
  2  8  1  0  0  0  0
  3  1  1  0  0  0  0
  4  1  1  0  0  0  0
  6  2  1  0  0  0  0
  6 10  1  0  0  0  0
  7  2  1  0  0  0  0
  9  6  1  0  0  0  0
  9 13  1  0  0  0  0
  9 12  1  0  0  0  0
 11  6  1  0  0  0  0
 14  9  1  0  0  0  0
M  END
$$$$
