14
butane_opt
C  -4.009974   0.320134  -0.066159
C  -2.720701  -0.669329   0.140652
H  -4.925638  -0.275930   0.083095
H  -3.939347   1.048122  -1.056684
H  -3.945193   0.751143   0.742649
C  -1.353154   0.159854   0.037675
H  -2.634371  -1.099332  -0.557212
H  -2.753544  -1.467387   1.214204
C  -0.140784  -0.664209  -0.032258
H  -1.286561   0.800154   0.924474
H  -1.468945   0.723598  -0.738747
H  -0.129191  -0.842502   0.578558
H   0.794736   0.014999   0.532449
H  -0.080453  -1.878944  -1.299104
