butane_opt
 OpenBabel08242015383D

 14 12  0  0  0  0  0  0  0  0999 V2000
   -4.0100    0.3201   -0.0662 C   0  0  0  0  0  0  0  0  0  0  0  0
   -2.7207   -0.6693    0.1407 C   0  0  0  0  0  0  0  0  0  0  0  0
   -4.9256   -0.2759    0.0831 H   0  0  0  0  0  0  0  0  0  0  0  0
   -3.9393    1.0481   -1.0567 H   0  0  0  0  0  0  0  0  0  0  0  0
   -3.9452    0.7511    0.7426 H   0  0  0  0  0  0  0  0  0  0  0  0
   -1.3532    0.1599    0.0377 C   0  0  0  0  0  0  0  0  0  0  0  0
   -2.6344   -1.0993   -0.5572 H   0  0  0  0  0  0  0  0  0  0  0  0
   -2.7535   -1.4674    1.2142 H   0  0  0  0  0  0  0  0  0  0  0  0
   -0.1408   -0.6642   -0.0323 C   0  0  0  0  0  0  0  0  0  0  0  0
   -1.2866    0.8002    0.9245 H   0  0  0  0  0  0  0  0  0  0  0  0
   -1.4689    0.7236   -0.7387 H   0  0  0  0  0  0  0  0  0  0  0  0
   -0.1292   -0.8425    0.5786 H   0  0  0  0  0  0  0  0  0  0  0  0
    0.7947    0.0150    0.5324 H   0  0  0  0  0  0  0  0  0  0  0  0
   -0.0805   -1.8789   -1.2991 H   0  0  0  0  0  0  0  0  0  0  0  0
  1  3  1  0  0  0  0
  1  2  1  0  0  0  0
  1  5  1  0  0  0  0
  2  8  1  0  0  0  0
  4  1  1  0  0  0  0
  6  2  1  0  0  0  0
  6 10  1  0  0  0  0
  7  2  1  0  0  0  0
  9  6  1  0  0  0  0
  9 13  1  0  0  0  0
  9 12  1  0  0  0  0
 11  6  1  0  0  0  0
M  RAD  2   9   2  14   2
M  END
$$$$
