butane_opt
 OpenBabel08242015383D

 14 12  0  0  0  0  0  0  0  0999 V2000
   -3.8931    0.2425    0.0890 C   0  0  0  0  0  0  0  0  0  0  0  0
   -2.7129   -0.5645   -0.0623 C   0  0  0  0  0  0  0  0  0  0  0  0
   -4.9823   -0.4243   -0.1191 H   0  0  0  0  0  0  0  0  0  0  0  0
   -3.9082    0.6380   -0.6583 H   0  0  0  0  0  0  0  0  0  0  0  0
   -3.7366    1.0886    1.1171 H   0  0  0  0  0  0  0  0  0  0  0  0
   -1.4390    0.2196   -0.0112 C   0  0  0  0  0  0  0  0  0  0  0  0
   -2.8390   -1.4067   -1.0622 H   0  0  0  0  0  0  0  0  0  0  0  0
   -2.6348   -1.1090    0.6709 H   0  0  0  0  0  0  0  0  0  0  0  0
   -0.1576   -0.7202    0.0932 C   0  0  0  0  0  0  0  0  0  0  0  0
   -1.4369    0.6600    0.7077 H   0  0  0  0  0  0  0  0  0  0  0  0
   -1.3290    0.9186   -0.9681 H   0  0  0  0  0  0  0  0  0  0  0  0
   -0.0226   -1.7742    1.3482 H   0  0  0  0  0  0  0  0  0  0  0  0
    0.6723   -0.2284   -0.3734 H   0  0  0  0  0  0  0  0  0  0  0  0
   -0.3525   -0.9705   -0.4713 H   0  0  0  0  0  0  0  0  0  0  0  0
  1  5  1  0  0  0  0
  2  6  1  0  0  0  0
  2  1  1  0  0  0  0
  2  8  1  0  0  0  0
  3  1  1  0  0  0  0
  4  1  1  0  0  0  0
  6  9  1  0  0  0  0
  6 10  1  0  0  0  0
  7  2  1  0  0  0  0
 11  6  1  0  0  0  0
 13  9  1  0  0  0  0
 14  9  1  0  0  0  0
M  RAD  2   9   2  12   2
M  END
$$$$
