14
butane_opt
C  -4.002818   0.291064   0.069684
C  -2.713394  -0.661352   0.016251
H  -4.721668  -0.186120  -0.306047
H  -3.875663   0.544372  -0.526727
H  -4.160208   1.350995   1.205284
C  -1.356079   0.142948  -0.113394
H  -2.746916  -1.272255  -0.768974
H  -2.533075  -1.161511   0.903820
C  -0.155497  -0.672716   0.088599
H  -1.437071   0.824904   0.737999
H  -1.212988   0.786224  -1.014651
H  -0.227255  -1.418948   1.096226
H   0.788346   0.011771   0.102659
H  -0.179602  -1.153717  -0.678834
