14
butane_opt
C  -3.931744   0.271010   0.048268
C  -2.690165  -0.624022   0.017050
H  -4.844865  -0.299119   0.066311
H  -4.033171   0.855968  -0.819378
H  -3.967837   0.992148   0.920601
C  -1.407027   0.169268  -0.038404
H  -2.719033  -1.328637  -0.839586
H  -2.701424  -1.270036   0.904363
C  -0.170759  -0.677775   0.057310
H  -1.413740   0.839609   0.823342
H  -1.407958   0.829916  -0.942067
H  -0.233059  -1.302817   0.955496
H   0.763747  -0.055974   0.189998
H  -0.077379  -1.391414  -0.822747
