butane_opt
 OpenBabel08242015383D

 14 13  0  0  0  0  0  0  0  0999 V2000
   -3.9287    0.2663    0.0538 C   0  0  0  0  0  0  0  0  0  0  0  0
   -2.6585   -0.6283   -0.0297 C   0  0  0  0  0  0  0  0  0  0  0  0
   -4.8329   -0.3142    0.4203 H   0  0  0  0  0  0  0  0  0  0  0  0
   -4.2111    1.0984   -0.9792 H   0  0  0  0  0  0  0  0  0  0  0  0
   -3.7963    0.8643    0.8694 H   0  0  0  0  0  0  0  0  0  0  0  0
   -1.3989    0.1676   -0.0278 C   0  0  0  0  0  0  0  0  0  0  0  0
   -2.6997   -1.4834   -1.0743 H   0  0  0  0  0  0  0  0  0  0  0  0
   -2.4803   -1.2013    0.8613 H   0  0  0  0  0  0  0  0  0  0  0  0
   -0.2198   -0.6532    0.0664 C   0  0  0  0  0  0  0  0  0  0  0  0
   -1.3973    0.8602    0.8914 H   0  0  0  0  0  0  0  0  0  0  0  0
   -1.3529    0.7512   -0.8336 H   0  0  0  0  0  0  0  0  0  0  0  0
   -0.2051   -1.4546    1.1278 H   0  0  0  0  0  0  0  0  0  0  0  0
    0.6964   -0.1222    0.1298 H   0  0  0  0  0  0  0  0  0  0  0  0
   -0.2547   -1.2898   -0.7262 H   0  0  0  0  0  0  0  0  0  0  0  0
  1  3  1  0  0  0  0
  1  5  1  0  0  0  0
  2  6  1  0  0  0  0
  2  1  1  0  0  0  0
  2  8  1  0  0  0  0
  4  1  1  0  0  0  0
  6  9  1  0  0  0  0
  6 10  1  0  0  0  0
  7  2  1  0  0  0  0
  9 13  1  0  0  0  0
  9 12  1  0  0  0  0
 11  6  1  0  0  0  0
 14  9  1  0  0  0  0
M  END
$$$$
