14
butane_opt
C  -3.932425   0.295087   0.111730
C  -2.713581  -0.663958  -0.025881
H  -4.787145  -0.223285   0.197969
H  -4.099073   0.996525  -0.821817
H  -3.958232   0.949621   0.966774
C  -1.412569   0.190962  -0.094611
H  -2.726019  -1.506936  -0.981302
H  -2.740466  -1.302668   0.773100
C  -0.161167  -0.685453   0.093700
H  -1.342464   0.709081   0.660741
H  -1.321666   0.889992  -1.017556
H  -0.448192  -1.176189   0.966020
H   0.829443   0.068877   0.413264
H   0.181698  -1.482853  -0.746415
