butane_opt
 OpenBabel08242015383D

 14 12  0  0  0  0  0  0  0  0999 V2000
   -3.9609    0.2102   -0.0583 C   0  0  0  0  0  0  0  0  0  0  0  0
   -2.7294   -0.5865    0.1285 C   0  0  0  0  0  0  0  0  0  0  0  0
   -4.8073   -0.3128    0.1734 H   0  0  0  0  0  0  0  0  0  0  0  0
   -4.0452    1.0167   -1.0508 H   0  0  0  0  0  0  0  0  0  0  0  0
   -3.8103    0.8169    0.8085 H   0  0  0  0  0  0  0  0  0  0  0  0
   -1.4185    0.2654    0.0473 C   0  0  0  0  0  0  0  0  0  0  0  0
   -2.8106   -1.1489   -0.7296 H   0  0  0  0  0  0  0  0  0  0  0  0
   -2.8118   -1.2711    1.1117 H   0  0  0  0  0  0  0  0  0  0  0  0
   -0.1162   -0.7446   -0.0032 C   0  0  0  0  0  0  0  0  0  0  0  0
   -1.3073    0.7420    0.7680 H   0  0  0  0  0  0  0  0  0  0  0  0
   -1.4033    0.8672   -0.8267 H   0  0  0  0  0  0  0  0  0  0  0  0
   -0.1657   -0.9038    0.6085 H   0  0  0  0  0  0  0  0  0  0  0  0
    0.7179   -0.1922    0.3627 H   0  0  0  0  0  0  0  0  0  0  0  0
    0.1381   -1.8363   -1.2260 H   0  0  0  0  0  0  0  0  0  0  0  0
  1  2  1  0  0  0  0
  1  3  1  0  0  0  0
  1  5  1  0  0  0  0
  2  8  1  0  0  0  0
  4  1  1  0  0  0  0
  6  2  1  0  0  0  0
  6 10  1  0  0  0  0
  7  2  1  0  0  0  0
  9  6  1  0  0  0  0
  9 13  1  0  0  0  0
  9 12  1  0  0  0  0
 11  6  1  0  0  0  0
M  RAD  2   9   2  14   2
M  END
$$$$
