14
butane_opt
C  -3.876412   0.236509  -0.058741
C  -2.707108  -0.581696   0.147589
H  -4.843049  -0.389871  -0.352436
H  -3.634621   0.866228  -0.933409
H  -4.078225   0.982409   0.868314
C  -1.446743   0.234047   0.103859
H  -2.692175  -1.242972  -0.670682
H  -2.933134  -1.442357   1.117687
C  -0.182029  -0.730936  -0.051508
H  -1.452596   0.809384   0.881423
H  -1.421049   0.905358  -0.812485
H   0.145140  -1.243627   0.729638
H   0.718082  -0.073162  -0.066035
H  -0.292627  -1.529919  -1.015386
