14
butane_opt
C  -4.005751   0.308767  -0.064745
C  -2.692415  -0.653345   0.141558
H  -4.884319  -0.202919   0.229187
H  -3.917894   1.068639  -1.028988
H  -4.148380   0.665090   0.577378
C  -1.367972   0.143186   0.057948
H  -2.656577  -1.215817  -0.652172
H  -2.599764  -1.348556   1.027304
C  -0.140485  -0.662426  -0.025185
H  -1.179886   0.847381   0.925784
H  -1.373740   0.725565  -0.759606
H  -0.272882  -0.840970   0.596365
H   0.766558  -0.018179   0.295327
H  -0.275654  -1.796829  -1.138032
