14
butane_opt
C  -3.952129   0.259683   0.047354
C  -2.705194  -0.611039   0.023450
H  -4.832041  -0.299480  -0.081376
H  -3.940895   0.784891  -0.806198
H  -4.044609   1.051343   0.958672
C  -1.400875   0.182328  -0.018052
H  -2.718088  -1.350785  -0.884632
H  -2.690686  -1.235912   0.900436
C  -0.153455  -0.696100   0.055552
H  -1.417906   0.811358   0.812557
H  -1.378227   0.851094  -0.947042
H  -0.096288  -1.361395   0.997975
H   0.773659  -0.071615  -0.029628
H  -0.141245  -1.263481  -0.759502
