butane_opt
 OpenBabel08242015383D

 14 13  0  0  0  0  0  0  0  0999 V2000
   -3.9715    0.2411    0.0431 C   0  0  0  0  0  0  0  0  0  0  0  0
   -2.7118   -0.5887   -0.0080 C   0  0  0  0  0  0  0  0  0  0  0  0
   -4.9342   -0.4573    0.2157 H   0  0  0  0  0  0  0  0  0  0  0  0
   -4.1439    1.0085   -0.9330 H   0  0  0  0  0  0  0  0  0  0  0  0
   -3.7781    0.7810    0.8868 H   0  0  0  0  0  0  0  0  0  0  0  0
   -1.4238    0.1982   -0.0287 C   0  0  0  0  0  0  0  0  0  0  0  0
   -2.8394   -1.2827   -0.7697 H   0  0  0  0  0  0  0  0  0  0  0  0
   -2.6962   -1.1506    0.8288 H   0  0  0  0  0  0  0  0  0  0  0  0
   -0.0930   -0.6957    0.0568 C   0  0  0  0  0  0  0  0  0  0  0  0
   -1.2786    1.0200    0.9337 H   0  0  0  0  0  0  0  0  0  0  0  0
   -1.5019    0.7746   -0.8667 H   0  0  0  0  0  0  0  0  0  0  0  0
   -0.1785   -1.4160    1.0601 H   0  0  0  0  0  0  0  0  0  0  0  0
    0.6803   -0.2448    0.1491 H   0  0  0  0  0  0  0  0  0  0  0  0
    0.0588   -1.3849   -0.8407 H   0  0  0  0  0  0  0  0  0  0  0  0
  1  3  1  0  0  0  0
  1  5  1  0  0  0  0
  2  1  1  0  0  0  0
  2  8  1  0  0  0  0
  4  1  1  0  0  0  0
  6  2  1  0  0  0  0
  6  9  1  0  0  0  0
  6 10  1  0  0  0  0
  7  2  1  0  0  0  0
  9 13  1  0  0  0  0
  9 12  1  0  0  0  0
 11  6  1  0  0  0  0
 14  9  1  0  0  0  0
M  END
$$$$
