butane_opt
 OpenBabel08242015383D

 14 13  0  0  0  0  0  0  0  0999 V2000
   -3.9289    0.2915   -0.0798 C   0  0  0  0  0  0  0  0  0  0  0  0
   -2.6965   -0.6214    0.1506 C   0  0  0  0  0  0  0  0  0  0  0  0
   -4.7727   -0.3055   -0.2450 H   0  0  0  0  0  0  0  0  0  0  0  0
   -3.7898    1.0399   -1.1551 H   0  0  0  0  0  0  0  0  0  0  0  0
   -3.9905    0.8537    0.7048 H   0  0  0  0  0  0  0  0  0  0  0  0
   -1.4119    0.1123    0.1848 C   0  0  0  0  0  0  0  0  0  0  0  0
   -2.6266   -1.3199   -0.7976 H   0  0  0  0  0  0  0  0  0  0  0  0
   -2.6752   -1.2115    0.9670 H   0  0  0  0  0  0  0  0  0  0  0  0
   -0.2062   -0.6575   -0.0969 C   0  0  0  0  0  0  0  0  0  0  0  0
   -1.1205    0.9257    1.1068 H   0  0  0  0  0  0  0  0  0  0  0  0
   -1.4745    0.7573   -0.6920 H   0  0  0  0  0  0  0  0  0  0  0  0
   -0.0139   -1.5299    0.9696 H   0  0  0  0  0  0  0  0  0  0  0  0
    0.7552   -0.0331   -0.4270 H   0  0  0  0  0  0  0  0  0  0  0  0
   -0.4159   -1.1318   -0.8851 H   0  0  0  0  0  0  0  0  0  0  0  0
  1  2  1  0  0  0  0
  1  5  1  0  0  0  0
  2  6  1  0  0  0  0
  2  8  1  0  0  0  0
  3  1  1  0  0  0  0
  4  1  1  0  0  0  0
  6 10  1  0  0  0  0
  7  2  1  0  0  0  0
  9  6  1  0  0  0  0
  9 12  1  0  0  0  0
 11  6  1  0  0  0  0
 13  9  1  0  0  0  0
 14  9  1  0  0  0  0
M  END
$$$$
