14
butane_opt
C  -3.960885   0.210227  -0.058291
C  -2.729443  -0.586483   0.128489
H  -4.807309  -0.312813   0.173429
H  -4.045190   1.016700  -1.050799
H  -3.810275   0.816902   0.808462
C  -1.418523   0.265444   0.047316
H  -2.810634  -1.148851  -0.729636
H  -2.811797  -1.271095   1.111744
C  -0.116192  -0.744566  -0.003191
H  -1.307342   0.742011   0.768031
H  -1.403276   0.867177  -0.826704
H  -0.165709  -0.903833   0.608546
H   0.717885  -0.192229   0.362669
H   0.138053  -1.836258  -1.225989
