butane_opt
 OpenBabel08242015383D

 14 13  0  0  0  0  0  0  0  0999 V2000
   -3.9344    0.2602    0.0005 C   0  0  0  0  0  0  0  0  0  0  0  0
   -2.7045   -0.5978    0.0642 C   0  0  0  0  0  0  0  0  0  0  0  0
   -4.8838   -0.3855    0.0603 H   0  0  0  0  0  0  0  0  0  0  0  0
   -3.9179    0.9145   -0.9453 H   0  0  0  0  0  0  0  0  0  0  0  0
   -3.9277    0.8595    0.8015 H   0  0  0  0  0  0  0  0  0  0  0  0
   -1.4044    0.1856    0.0148 C   0  0  0  0  0  0  0  0  0  0  0  0
   -2.7503   -1.2253   -0.7715 H   0  0  0  0  0  0  0  0  0  0  0  0
   -2.7037   -1.2737    1.0105 H   0  0  0  0  0  0  0  0  0  0  0  0
   -0.1731   -0.6998    0.0190 C   0  0  0  0  0  0  0  0  0  0  0  0
   -1.3684    0.9219    0.9172 H   0  0  0  0  0  0  0  0  0  0  0  0
   -1.4339    0.7904   -0.8425 H   0  0  0  0  0  0  0  0  0  0  0  0
   -0.1467   -1.2259    0.8493 H   0  0  0  0  0  0  0  0  0  0  0  0
    0.7607   -0.1100    0.0930 H   0  0  0  0  0  0  0  0  0  0  0  0
   -0.0597   -1.5223   -0.9376 H   0  0  0  0  0  0  0  0  0  0  0  0
  1  3  1  0  0  0  0
  1  2  1  0  0  0  0
  1  5  1  0  0  0  0
  2  8  1  0  0  0  0
  4  1  1  0  0  0  0
  6  9  1  0  0  0  0
  6  2  1  0  0  0  0
  6 10  1  0  0  0  0
  7  2  1  0  0  0  0
  9 13  1  0  0  0  0
  9 12  1  0  0  0  0
 11  6  1  0  0  0  0
 14  9  1  0  0  0  0
M  END
$$$$
