butane_opt
 OpenBabel08242015383D

 14 13  0  0  0  0  0  0  0  0999 V2000
   -3.9646    0.2341    0.0703 C   0  0  0  0  0  0  0  0  0  0  0  0
   -2.7215   -0.5790   -0.0692 C   0  0  0  0  0  0  0  0  0  0  0  0
   -4.9745   -0.4096    0.3310 H   0  0  0  0  0  0  0  0  0  0  0  0
   -4.1261    0.8901   -0.8338 H   0  0  0  0  0  0  0  0  0  0  0  0
   -3.7555    0.7369    0.9371 H   0  0  0  0  0  0  0  0  0  0  0  0
   -1.4193    0.2153   -0.0219 C   0  0  0  0  0  0  0  0  0  0  0  0
   -2.8161   -1.1724   -0.8907 H   0  0  0  0  0  0  0  0  0  0  0  0
   -2.7269   -1.1820    0.8464 H   0  0  0  0  0  0  0  0  0  0  0  0
   -0.1117   -0.7301    0.0910 C   0  0  0  0  0  0  0  0  0  0  0  0
   -1.5309    1.0173    0.8591 H   0  0  0  0  0  0  0  0  0  0  0  0
   -1.2074    0.8493   -0.9819 H   0  0  0  0  0  0  0  0  0  0  0  0
   -0.0144   -1.3856    1.0488 H   0  0  0  0  0  0  0  0  0  0  0  0
    0.6650   -0.2025   -0.0375 H   0  0  0  0  0  0  0  0  0  0  0  0
    0.0805   -1.3284   -0.7066 H   0  0  0  0  0  0  0  0  0  0  0  0
  1  3  1  0  0  0  0
  1  5  1  0  0  0  0
  2  6  1  0  0  0  0
  2  1  1  0  0  0  0
  2  8  1  0  0  0  0
  4  1  1  0  0  0  0
  6  9  1  0  0  0  0
  6 10  1  0  0  0  0
  7  2  1  0  0  0  0
  9 12  1  0  0  0  0
 11  6  1  0  0  0  0
 13  9  1  0  0  0  0
 14  9  1  0  0  0  0
M  END
$$$$
