butane_opt
 OpenBabel08242015383D

 14 13  0  0  0  0  0  0  0  0999 V2000
   -3.9543    0.2511    0.0657 C   0  0  0  0  0  0  0  0  0  0  0  0
   -2.7308   -0.6171    0.0258 C   0  0  0  0  0  0  0  0  0  0  0  0
   -4.7747   -0.3543   -0.3044 H   0  0  0  0  0  0  0  0  0  0  0  0
   -3.9335    0.5044   -0.6210 H   0  0  0  0  0  0  0  0  0  0  0  0
   -4.2295    1.2199    1.0516 H   0  0  0  0  0  0  0  0  0  0  0  0
   -1.3910    0.2151   -0.0838 C   0  0  0  0  0  0  0  0  0  0  0  0
   -2.6960   -1.2074   -0.7479 H   0  0  0  0  0  0  0  0  0  0  0  0
   -2.7143   -1.2350    0.9131 H   0  0  0  0  0  0  0  0  0  0  0  0
   -0.1298   -0.7082    0.0836 C   0  0  0  0  0  0  0  0  0  0  0  0
   -1.4436    0.9776    0.7753 H   0  0  0  0  0  0  0  0  0  0  0  0
   -1.3287    0.8282   -0.8878 H   0  0  0  0  0  0  0  0  0  0  0  0
   -0.1120   -1.4692    1.0357 H   0  0  0  0  0  0  0  0  0  0  0  0
    0.7245   -0.1576   -0.1246 H   0  0  0  0  0  0  0  0  0  0  0  0
   -0.0253   -1.2934   -0.7104 H   0  0  0  0  0  0  0  0  0  0  0  0
  1  5  1  0  0  0  0
  2  1  1  0  0  0  0
  2  8  1  0  0  0  0
  3  1  1  0  0  0  0
  4  1  1  0  0  0  0
  6  2  1  0  0  0  0
  6  9  1  0  0  0  0
  6 10  1  0  0  0  0
  7  2  1  0  0  0  0
  9 12  1  0  0  0  0
 11  6  1  0  0  0  0
 13  9  1  0  0  0  0
 14  9  1  0  0  0  0
M  END
$$$$
