butane_opt
 OpenBabel08242015383D

 14 13  0  0  0  0  0  0  0  0999 V2000
   -3.9234    0.2458    0.0935 C   0  0  0  0  0  0  0  0  0  0  0  0
   -2.7429   -0.5806   -0.0638 C   0  0  0  0  0  0  0  0  0  0  0  0
   -5.0796   -0.5226    0.2019 H   0  0  0  0  0  0  0  0  0  0  0  0
   -4.0695    1.0191   -0.8619 H   0  0  0  0  0  0  0  0  0  0  0  0
   -3.7597    0.8622    0.9177 H   0  0  0  0  0  0  0  0  0  0  0  0
   -1.4135    0.2269   -0.0501 C   0  0  0  0  0  0  0  0  0  0  0  0
   -2.8185   -1.3423   -0.9749 H   0  0  0  0  0  0  0  0  0  0  0  0
   -2.6670   -1.1917    0.8051 H   0  0  0  0  0  0  0  0  0  0  0  0
   -0.1250   -0.7327    0.0807 C   0  0  0  0  0  0  0  0  0  0  0  0
   -1.4592    1.0039    0.9698 H   0  0  0  0  0  0  0  0  0  0  0  0
   -1.2319    0.7356   -0.8881 H   0  0  0  0  0  0  0  0  0  0  0  0
   -0.1064   -1.5944    1.1454 H   0  0  0  0  0  0  0  0  0  0  0  0
    0.7166   -0.1702   -0.0567 H   0  0  0  0  0  0  0  0  0  0  0  0
   -0.0596   -1.2015   -0.5527 H   0  0  0  0  0  0  0  0  0  0  0  0
  1  3  1  0  0  0  0
  1  5  1  0  0  0  0
  2  6  1  0  0  0  0
  2  1  1  0  0  0  0
  2  8  1  0  0  0  0
  4  1  1  0  0  0  0
  6  9  1  0  0  0  0
  6 10  1  0  0  0  0
  7  2  1  0  0  0  0
  9 12  1  0  0  0  0
 11  6  1  0  0  0  0
 13  9  1  0  0  0  0
 14  9  1  0  0  0  0
M  END
$$$$
