butane_opt
 OpenBabel08242015383D

 14 13  0  0  0  0  0  0  0  0999 V2000
   -3.9269    0.2630    0.0573 C   0  0  0  0  0  0  0  0  0  0  0  0
   -2.7006   -0.6038    0.0011 C   0  0  0  0  0  0  0  0  0  0  0  0
   -4.8745   -0.3782    0.1059 H   0  0  0  0  0  0  0  0  0  0  0  0
   -3.9725    0.8240   -0.8380 H   0  0  0  0  0  0  0  0  0  0  0  0
   -3.8863    0.8804    0.8950 H   0  0  0  0  0  0  0  0  0  0  0  0
   -1.4151    0.1981   -0.0309 C   0  0  0  0  0  0  0  0  0  0  0  0
   -2.7730   -1.3053   -0.8739 H   0  0  0  0  0  0  0  0  0  0  0  0
   -2.6441   -1.2592    0.8801 H   0  0  0  0  0  0  0  0  0  0  0  0
   -0.1644   -0.7001    0.0665 C   0  0  0  0  0  0  0  0  0  0  0  0
   -1.4788    0.8617    0.8200 H   0  0  0  0  0  0  0  0  0  0  0  0
   -1.3712    0.8741   -0.9614 H   0  0  0  0  0  0  0  0  0  0  0  0
   -0.2107   -1.3050    0.9635 H   0  0  0  0  0  0  0  0  0  0  0  0
    0.7215   -0.1386    0.1252 H   0  0  0  0  0  0  0  0  0  0  0  0
   -0.0491   -1.4156   -0.8148 H   0  0  0  0  0  0  0  0  0  0  0  0
  1  3  1  0  0  0  0
  1  5  1  0  0  0  0
  2  1  1  0  0  0  0
  2  8  1  0  0  0  0
  4  1  1  0  0  0  0
  6  2  1  0  0  0  0
  6  9  1  0  0  0  0
  6 10  1  0  0  0  0
  7  2  1  0  0  0  0
  9 13  1  0  0  0  0
  9 12  1  0  0  0  0
 11  6  1  0  0  0  0
 14  9  1  0  0  0  0
M  END
$$$$
