14
butane_opt
C  -3.971458   0.241054   0.043147
C  -2.711828  -0.588694  -0.008000
H  -4.934220  -0.457294   0.215659
H  -4.143867   1.008497  -0.933005
H  -3.778078   0.780976   0.886755
C  -1.423766   0.198244  -0.028712
H  -2.839418  -1.282724  -0.769714
H  -2.696175  -1.150627   0.828808
C  -0.093023  -0.695675   0.056773
H  -1.278577   1.020040   0.933661
H  -1.501884   0.774570  -0.866731
H  -0.178496  -1.416045   1.060067
H   0.680293  -0.244755   0.149081
H   0.058815  -1.384926  -0.840740
