butane_opt
 OpenBabel08242015383D

 14 13  0  0  0  0  0  0  0  0999 V2000
   -3.9410    0.2571   -0.0171 C   0  0  0  0  0  0  0  0  0  0  0  0
   -2.7155   -0.6038    0.0851 C   0  0  0  0  0  0  0  0  0  0  0  0
   -4.8767   -0.3650   -0.0552 H   0  0  0  0  0  0  0  0  0  0  0  0
   -3.8701    0.8368   -0.9141 H   0  0  0  0  0  0  0  0  0  0  0  0
   -4.0074    0.9645    0.8772 H   0  0  0  0  0  0  0  0  0  0  0  0
   -1.4044    0.2038    0.0402 C   0  0  0  0  0  0  0  0  0  0  0  0
   -2.7234   -1.2640   -0.7454 H   0  0  0  0  0  0  0  0  0  0  0  0
   -2.7779   -1.2777    1.0139 H   0  0  0  0  0  0  0  0  0  0  0  0
   -0.1462   -0.7116    0.0005 C   0  0  0  0  0  0  0  0  0  0  0  0
   -1.4392    0.8605    0.8752 H   0  0  0  0  0  0  0  0  0  0  0  0
   -1.4089    0.8241   -0.8758 H   0  0  0  0  0  0  0  0  0  0  0  0
   -0.0633   -1.2521    0.8576 H   0  0  0  0  0  0  0  0  0  0  0  0
    0.7720   -0.0920    0.0035 H   0  0  0  0  0  0  0  0  0  0  0  0
   -0.1455   -1.4505   -0.9046 H   0  0  0  0  0  0  0  0  0  0  0  0
  1  2  1  0  0  0  0
  1  5  1  0  0  0  0
  2  8  1  0  0  0  0
  3  1  1  0  0  0  0
  4  1  1  0  0  0  0
  6  2  1  0  0  0  0
  6 10  1  0  0  0  0
  7  2  1  0  0  0  0
  9 13  1  0  0  0  0
  9  6  1  0  0  0  0
  9 12  1  0  0  0  0
 11  6  1  0  0  0  0
 14  9  1  0  0  0  0
M  END
$$$$
