14
butane_opt
C  -3.969738   0.251676   0.019907
C  -2.695591  -0.586480   0.028228
H  -4.950756  -0.379453   0.152977
H  -3.945844   0.878965  -0.954056
H  -3.884956   0.755036   0.732722
C  -1.409884   0.218309   0.028774
H  -2.809083  -1.378922  -0.902835
H  -2.771393  -1.173292   0.853609
C  -0.136918  -0.717513   0.031574
H  -1.339993   0.877818   0.878844
H  -1.449456   0.787936  -0.732921
H   0.182354  -1.424925   0.934060
H   0.633186  -0.164017  -0.089101
H  -0.144594  -1.242865  -0.717808
