14
butane_opt
C  -3.963192   0.227098   0.123782
C  -2.677915  -0.560045  -0.096734
H  -4.899639  -0.380391   0.451161
H  -4.008366   1.155690  -0.976881
H  -3.743491   0.618455   0.859248
C  -1.418242   0.178841  -0.045087
H  -2.705182  -1.440913  -0.985321
H  -2.649879  -0.939045   0.637439
C  -0.165874  -0.714676   0.114540
H  -1.473086   0.816099   0.767837
H  -1.312056   0.825967  -0.931195
H  -0.209141  -1.326362   1.087098
H   0.697759  -0.158444   0.007841
H  -0.006826  -1.216677  -0.662340
