butane_opt
 OpenBabel08242015383D

 14 13  0  0  0  0  0  0  0  0999 V2000
   -3.9398    0.2611   -0.0087 C   0  0  0  0  0  0  0  0  0  0  0  0
   -2.7118   -0.6081    0.0655 C   0  0  0  0  0  0  0  0  0  0  0  0
   -4.8567   -0.3043    0.0819 H   0  0  0  0  0  0  0  0  0  0  0  0
   -3.9536    0.9251   -0.9249 H   0  0  0  0  0  0  0  0  0  0  0  0
   -3.9078    0.8603    0.8295 H   0  0  0  0  0  0  0  0  0  0  0  0
   -1.4007    0.1831    0.0237 C   0  0  0  0  0  0  0  0  0  0  0  0
   -2.6893   -1.2379   -0.7281 H   0  0  0  0  0  0  0  0  0  0  0  0
   -2.7760   -1.3021    0.9945 H   0  0  0  0  0  0  0  0  0  0  0  0
   -0.1576   -0.7015    0.0143 C   0  0  0  0  0  0  0  0  0  0  0  0
   -1.4065    0.9323    0.9151 H   0  0  0  0  0  0  0  0  0  0  0  0
   -1.4179    0.8116   -0.8752 H   0  0  0  0  0  0  0  0  0  0  0  0
   -0.1650   -1.1757    0.8228 H   0  0  0  0  0  0  0  0  0  0  0  0
    0.7635   -0.1004    0.0947 H   0  0  0  0  0  0  0  0  0  0  0  0
   -0.1038   -1.4961   -0.9301 H   0  0  0  0  0  0  0  0  0  0  0  0
  1  2  1  0  0  0  0
  1  3  1  0  0  0  0
  1  5  1  0  0  0  0
  2  8  1  0  0  0  0
  4  1  1  0  0  0  0
  6  2  1  0  0  0  0
  6 10  1  0  0  0  0
  7  2  1  0  0  0  0
  9  6  1  0  0  0  0
  9 13  1  0  0  0  0
  9 12  1  0  0  0  0
 11  6  1  0  0  0  0
 14  9  1  0  0  0  0
M  END
$$$$
