14
butane_opt
C  -3.934452   0.266884  -0.062789
C  -2.665354  -0.601362   0.103968
H  -4.824501  -0.285201  -0.035295
H  -3.953575   0.951483  -1.055086
H  -4.001227   0.946294   0.720946
C  -1.429662   0.144072   0.130433
H  -2.596332  -1.317538  -0.750335
H  -2.868977  -1.322750   1.028106
C  -0.163807  -0.668526  -0.064661
H  -1.322509   0.919987   1.113859
H  -1.466076   0.589070  -0.581188
H  -0.159170  -1.487245   1.036722
H   0.787897  -0.055592  -0.449234
H  -0.306152  -1.079223  -0.862841
