14
butane_opt
C  -3.976498   0.303091   0.051125
C  -2.654664  -0.625215   0.009738
H  -4.883931  -0.287372  -0.167261
H  -3.933280   0.539475  -0.601127
H  -4.082192   1.225750   1.070624
C  -1.384511   0.124150  -0.028506
H  -2.599918  -1.498439  -0.873363
H  -2.809956  -1.217629   0.880612
C  -0.175492  -0.646878   0.078040
H  -1.360770   0.672937   0.729540
H  -1.307548   0.941336  -1.078978
H  -0.172559  -1.457531   1.115322
H   0.675195  -0.041098  -0.181961
H  -0.268365  -1.209090  -0.716767
