butane_opt
 OpenBabel08242015383D

 14 13  0  0  0  0  0  0  0  0999 V2000
   -3.9590    0.2832   -0.0861 C   0  0  0  0  0  0  0  0  0  0  0  0
   -2.6802   -0.6626    0.1431 C   0  0  0  0  0  0  0  0  0  0  0  0
   -4.7330   -0.1923   -0.0689 H   0  0  0  0  0  0  0  0  0  0  0  0
   -3.8905    0.8821   -0.9966 H   0  0  0  0  0  0  0  0  0  0  0  0
   -4.0105    0.9494    0.7164 H   0  0  0  0  0  0  0  0  0  0  0  0
   -1.3845    0.1666    0.1394 C   0  0  0  0  0  0  0  0  0  0  0  0
   -2.5193   -1.3129   -0.7062 H   0  0  0  0  0  0  0  0  0  0  0  0
   -2.8790   -1.2549    0.9782 H   0  0  0  0  0  0  0  0  0  0  0  0
   -0.1815   -0.6748   -0.0513 C   0  0  0  0  0  0  0  0  0  0  0  0
   -1.4097    0.9661    0.9915 H   0  0  0  0  0  0  0  0  0  0  0  0
   -1.5437    0.7976   -0.7301 H   0  0  0  0  0  0  0  0  0  0  0  0
    0.0094   -1.3158    0.8105 H   0  0  0  0  0  0  0  0  0  0  0  0
    0.8076   -0.0640   -0.4046 H   0  0  0  0  0  0  0  0  0  0  0  0
   -0.4184   -1.2522   -0.8721 H   0  0  0  0  0  0  0  0  0  0  0  0
  1  3  1  0  0  0  0
  1  2  1  0  0  0  0
  1  5  1  0  0  0  0
  2  8  1  0  0  0  0
  4  1  1  0  0  0  0
  6  2  1  0  0  0  0
  6 10  1  0  0  0  0
  7  2  1  0  0  0  0
  9  6  1  0  0  0  0
  9 12  1  0  0  0  0
 11  6  1  0  0  0  0
 13  9  1  0  0  0  0
 14  9  1  0  0  0  0
M  END
$$$$
