butane_opt
 OpenBabel08242015383D

 14 12  0  0  0  0  0  0  0  0999 V2000
   -3.9682    0.2748   -0.0557 C   0  0  0  0  0  0  0  0  0  0  0  0
   -2.7207   -0.6221    0.1379 C   0  0  0  0  0  0  0  0  0  0  0  0
   -4.7680   -0.2406    0.1961 H   0  0  0  0  0  0  0  0  0  0  0  0
   -3.9754    1.1673   -1.1712 H   0  0  0  0  0  0  0  0  0  0  0  0
   -4.0739    0.7906    0.6181 H   0  0  0  0  0  0  0  0  0  0  0  0
   -1.3793    0.1463    0.0734 C   0  0  0  0  0  0  0  0  0  0  0  0
   -2.6675   -1.1323   -0.5860 H   0  0  0  0  0  0  0  0  0  0  0  0
   -2.7368   -1.4147    1.1463 H   0  0  0  0  0  0  0  0  0  0  0  0
   -0.1650   -0.6831   -0.0701 C   0  0  0  0  0  0  0  0  0  0  0  0
   -1.2893    0.9658    1.0434 H   0  0  0  0  0  0  0  0  0  0  0  0
   -1.3323    0.6422   -0.8122 H   0  0  0  0  0  0  0  0  0  0  0  0
   -0.3326   -0.9684    0.6598 H   0  0  0  0  0  0  0  0  0  0  0  0
    0.8593    0.0979    0.4329 H   0  0  0  0  0  0  0  0  0  0  0  0
    0.0628   -1.7534   -1.1735 H   0  0  0  0  0  0  0  0  0  0  0  0
  1  2  1  0  0  0  0
  1  3  1  0  0  0  0
  1  5  1  0  0  0  0
  2  8  1  0  0  0  0
  4  1  1  0  0  0  0
  6  2  1  0  0  0  0
  6 10  1  0  0  0  0
  7  2  1  0  0  0  0
  9  6  1  0  0  0  0
  9 13  1  0  0  0  0
  9 12  1  0  0  0  0
 11  6  1  0  0  0  0
M  RAD  2   9   2  14   2
M  END
$$$$
