14
butane_opt
C  -3.928852   0.291485  -0.079847
C  -2.696456  -0.621361   0.150558
H  -4.772665  -0.305523  -0.245008
H  -3.789798   1.039877  -1.155134
H  -3.990468   0.853664   0.704776
C  -1.411891   0.112265   0.184838
H  -2.626608  -1.319902  -0.797646
H  -2.675201  -1.211489   0.967023
C  -0.206235  -0.657476  -0.096911
H  -1.120476   0.925667   1.106850
H  -1.474510   0.757305  -0.691967
H  -0.013874  -1.529931   0.969565
H   0.755245  -0.033131  -0.427020
H  -0.415937  -1.131784  -0.885118
