14
butane_opt
C  -3.902619   0.254639   0.024901
C  -2.730325  -0.583888   0.063606
H  -4.893914  -0.424450  -0.312726
H  -3.709665   0.620537  -0.775994
H  -3.924621   1.224854   1.043938
C  -1.425414   0.183512   0.010799
H  -2.528063  -1.287130  -0.749224
H  -2.802062  -1.237168   0.943240
C  -0.170046  -0.707638   0.041140
H  -1.389612   0.775149   0.760570
H  -1.390334   0.980207  -1.083336
H  -0.195140  -1.334854   0.968750
H   0.789129  -0.160553  -0.140268
H  -0.234276  -1.399903  -0.863746
