14
butane_opt
C  -3.978424   0.227494   0.043119
C  -2.716204  -0.561364  -0.016558
H  -4.987732  -0.400378   0.371460
H  -4.153976   1.031563  -0.882546
H  -3.702957   0.704197   0.796748
C  -1.384966   0.204259   0.000345
H  -2.682302  -1.375468  -0.902226
H  -2.862480  -1.025407   0.799448
C  -0.115645  -0.724862   0.080362
H  -1.401073   0.875625   0.829670
H  -1.326062   0.959855  -0.990689
H  -0.123319  -1.318656   0.940936
H   0.683965  -0.235138   0.024553
H  -0.096869  -1.468588  -0.856087
