butane_opt
 OpenBabel08242015383D

 14 13  0  0  0  0  0  0  0  0999 V2000
   -3.9655    0.3214    0.0735 C   0  0  0  0  0  0  0  0  0  0  0  0
   -2.7125   -0.6658    0.0046 C   0  0  0  0  0  0  0  0  0  0  0  0
   -4.8954   -0.3207    0.0803 H   0  0  0  0  0  0  0  0  0  0  0  0
   -4.1540    0.7930   -0.7518 H   0  0  0  0  0  0  0  0  0  0  0  0
   -3.9751    1.0954    0.9827 H   0  0  0  0  0  0  0  0  0  0  0  0
   -1.3769    0.1509   -0.0842 C   0  0  0  0  0  0  0  0  0  0  0  0
   -2.8295   -1.2751   -0.8354 H   0  0  0  0  0  0  0  0  0  0  0  0
   -2.7545   -1.3561    0.9420 H   0  0  0  0  0  0  0  0  0  0  0  0
   -0.1207   -0.6732    0.0854 C   0  0  0  0  0  0  0  0  0  0  0  0
   -1.5444    0.6813    0.6408 H   0  0  0  0  0  0  0  0  0  0  0  0
   -1.2552    0.8405   -0.9563 H   0  0  0  0  0  0  0  0  0  0  0  0
   -0.4761   -1.0646    0.8402 H   0  0  0  0  0  0  0  0  0  0  0  0
    0.8363    0.0501    0.3731 H   0  0  0  0  0  0  0  0  0  0  0  0
    0.1214   -1.5111   -0.8591 H   0  0  0  0  0  0  0  0  0  0  0  0
  1  3  1  0  0  0  0
  1  5  1  0  0  0  0
  2  1  1  0  0  0  0
  2  8  1  0  0  0  0
  4  1  1  0  0  0  0
  6  2  1  0  0  0  0
  6  9  1  0  0  0  0
  6 10  1  0  0  0  0
  7  2  1  0  0  0  0
  9 13  1  0  0  0  0
  9 12  1  0  0  0  0
 11  6  1  0  0  0  0
 14  9  1  0  0  0  0
M  END
$$$$
