14
butane_opt
C  -3.949954   0.286582   0.105613
C  -2.718423  -0.676396  -0.057016
H  -4.829306  -0.274494   0.197139
H  -4.218630   0.779180  -0.684488
H  -4.065719   1.219100   1.151146
C  -1.348904   0.191723  -0.140975
H  -2.850328  -1.239489  -0.816118
H  -2.710345  -1.314848   0.834989
C  -0.142213  -0.694141   0.147414
H  -1.463281   0.821856   0.562638
H  -1.339204   0.891754  -1.069417
H  -0.303543  -1.092558   0.945709
H   0.717118  -0.040652   0.388427
H  -0.023678  -1.531979  -0.717453
