butane_opt
 OpenBabel08242015383D

 14 12  0  0  0  0  0  0  0  0999 V2000
   -3.9061    0.2211   -0.0726 C   0  0  0  0  0  0  0  0  0  0  0  0
   -2.6673   -0.5619    0.1370 C   0  0  0  0  0  0  0  0  0  0  0  0
   -4.7922   -0.3249    0.0318 H   0  0  0  0  0  0  0  0  0  0  0  0
   -3.8821    0.9161   -0.9726 H   0  0  0  0  0  0  0  0  0  0  0  0
   -3.8364    0.8256    0.7519 H   0  0  0  0  0  0  0  0  0  0  0  0
   -1.4550    0.2048    0.0579 C   0  0  0  0  0  0  0  0  0  0  0  0
   -2.7726   -1.1415   -0.6434 H   0  0  0  0  0  0  0  0  0  0  0  0
   -2.7850   -1.4649    1.2532 H   0  0  0  0  0  0  0  0  0  0  0  0
   -0.1718   -0.7036   -0.0276 C   0  0  0  0  0  0  0  0  0  0  0  0
   -1.4753    0.8978    0.9655 H   0  0  0  0  0  0  0  0  0  0  0  0
   -1.4532    0.7696   -0.8428 H   0  0  0  0  0  0  0  0  0  0  0  0
   -0.2095   -0.9332    0.6118 H   0  0  0  0  0  0  0  0  0  0  0  0
    0.6310   -0.1330    0.2075 H   0  0  0  0  0  0  0  0  0  0  0  0
   -0.0482   -1.8121   -1.1338 H   0  0  0  0  0  0  0  0  0  0  0  0
  1  3  1  0  0  0  0
  1  2  1  0  0  0  0
  1  5  1  0  0  0  0
  2  8  1  0  0  0  0
  4  1  1  0  0  0  0
  6  2  1  0  0  0  0
  6 10  1  0  0  0  0
  7  2  1  0  0  0  0
  9  6  1  0  0  0  0
  9 13  1  0  0  0  0
  9 12  1  0  0  0  0
 11  6  1  0  0  0  0
M  RAD  2   9   2  14   2
M  END
$$$$
