14
butane_opt
C  -3.914162   0.253764   0.094405
C  -2.725021  -0.599655   0.000412
H  -4.889125  -0.374202  -0.320500
H  -3.715339   0.477515  -0.627682
H  -3.932987   1.323684   1.282365
C  -1.411981   0.183879  -0.098803
H  -2.829890  -1.328245  -0.951942
H  -2.716376  -1.011831   0.735713
C  -0.142405  -0.715302   0.110064
H  -1.401658   0.817036   0.656843
H  -1.641671   0.920627  -1.102695
H  -0.155323  -1.645709   1.235006
H   0.769726  -0.045333  -0.035597
H  -0.197568  -1.093424  -0.602307
