butane_opt
 OpenBabel08242015383D

 14 13  0  0  0  0  0  0  0  0999 V2000
   -3.9902    0.2926    0.1336 C   0  0  0  0  0  0  0  0  0  0  0  0
   -2.7007   -0.6651   -0.1194 C   0  0  0  0  0  0  0  0  0  0  0  0
   -4.8246   -0.2887    0.4241 H   0  0  0  0  0  0  0  0  0  0  0  0
   -4.3936    1.0172   -0.8442 H   0  0  0  0  0  0  0  0  0  0  0  0
   -3.8969    0.8385    0.9114 H   0  0  0  0  0  0  0  0  0  0  0  0
   -1.3840    0.1800   -0.0881 C   0  0  0  0  0  0  0  0  0  0  0  0
   -2.7626   -1.3579   -1.0458 H   0  0  0  0  0  0  0  0  0  0  0  0
   -2.4825   -1.1882    0.6138 H   0  0  0  0  0  0  0  0  0  0  0  0
   -0.1335   -0.6793    0.1441 C   0  0  0  0  0  0  0  0  0  0  0  0
   -1.3772    0.8870    0.7500 H   0  0  0  0  0  0  0  0  0  0  0  0
   -1.3147    0.7288   -0.8931 H   0  0  0  0  0  0  0  0  0  0  0  0
   -0.1584   -1.5064    1.1692 H   0  0  0  0  0  0  0  0  0  0  0  0
    0.8903    0.0720    0.0778 H   0  0  0  0  0  0  0  0  0  0  0  0
   -0.1988   -1.1882   -0.5497 H   0  0  0  0  0  0  0  0  0  0  0  0
  1  3  1  0  0  0  0
  1  5  1  0  0  0  0
  2  6  1  0  0  0  0
  2  1  1  0  0  0  0
  2  8  1  0  0  0  0
  4  1  1  0  0  0  0
  6  9  1  0  0  0  0
  6 10  1  0  0  0  0
  7  2  1  0  0  0  0
  9 12  1  0  0  0  0
 11  6  1  0  0  0  0
 13  9  1  0  0  0  0
 14  9  1  0  0  0  0
M  END
$$$$
