14
butane_opt
C  -3.954483   0.309337   0.106489
C  -2.711950  -0.669734  -0.081066
H  -4.768276  -0.131449  -0.149186
H  -4.098265   0.681689  -0.685061
H  -3.919772   1.153023   1.103989
C  -1.397936   0.145820  -0.047965
H  -2.662232  -1.358986  -0.987472
H  -2.731038  -1.342806   0.848759
C  -0.149929  -0.654044   0.114069
H  -1.403644   0.854828   0.846657
H  -1.204853   0.777308  -0.927365
H  -0.103439  -1.642780   1.232670
H   0.806970  -0.067344  -0.409250
H  -0.384843  -0.941056  -0.486258
