14
butane_opt
C  -3.923406   0.245790   0.093485
C  -2.742898  -0.580554  -0.063831
H  -5.079582  -0.522619   0.201920
H  -4.069486   1.019055  -0.861907
H  -3.759746   0.862199   0.917685
C  -1.413463   0.226897  -0.050078
H  -2.818479  -1.342343  -0.974868
H  -2.667026  -1.191688   0.805059
C  -0.125040  -0.732701   0.080706
H  -1.459218   1.003885   0.969761
H  -1.231870   0.735631  -0.888097
H  -0.106417  -1.594428   1.145363
H   0.716601  -0.170164  -0.056735
H  -0.059645  -1.201501  -0.552707
