butane_opt
 OpenBabel08242015383D

 14 13  0  0  0  0  0  0  0  0999 V2000
   -3.9446    0.2774    0.0557 C   0  0  0  0  0  0  0  0  0  0  0  0
   -2.6997   -0.6246    0.0070 C   0  0  0  0  0  0  0  0  0  0  0  0
   -4.8542   -0.2960    0.0580 H   0  0  0  0  0  0  0  0  0  0  0  0
   -3.9402    0.8731   -0.8045 H   0  0  0  0  0  0  0  0  0  0  0  0
   -3.9543    0.9755    0.9469 H   0  0  0  0  0  0  0  0  0  0  0  0
   -1.3973    0.1680   -0.0428 C   0  0  0  0  0  0  0  0  0  0  0  0
   -2.6962   -1.3136   -0.8487 H   0  0  0  0  0  0  0  0  0  0  0  0
   -2.6603   -1.2538    0.9022 H   0  0  0  0  0  0  0  0  0  0  0  0
   -0.1763   -0.6833    0.0639 C   0  0  0  0  0  0  0  0  0  0  0  0
   -1.3992    0.8032    0.8054 H   0  0  0  0  0  0  0  0  0  0  0  0
   -1.3459    0.7815   -0.9301 H   0  0  0  0  0  0  0  0  0  0  0  0
   -0.2506   -1.2671    0.9539 H   0  0  0  0  0  0  0  0  0  0  0  0
    0.7635   -0.0724    0.1457 H   0  0  0  0  0  0  0  0  0  0  0  0
   -0.0796   -1.3458   -0.7924 H   0  0  0  0  0  0  0  0  0  0  0  0
  1  3  1  0  0  0  0
  1  5  1  0  0  0  0
  2  1  1  0  0  0  0
  2  8  1  0  0  0  0
  4  1  1  0  0  0  0
  6  2  1  0  0  0  0
  6  9  1  0  0  0  0
  6 10  1  0  0  0  0
  7  2  1  0  0  0  0
  9 13  1  0  0  0  0
  9 12  1  0  0  0  0
 11  6  1  0  0  0  0
 14  9  1  0  0  0  0
M  END
$$$$
