14
butane_opt
C  -3.893010   0.225932  -0.031659
C  -2.692276  -0.596151   0.125553
H  -4.796024  -0.336762   0.099191
H  -3.945124   0.910439  -1.006238
H  -3.949762   0.760338   0.782198
C  -1.443136   0.231213   0.026161
H  -2.697796  -1.150219  -0.697226
H  -2.675820  -1.210264   1.021565
C  -0.169837  -0.736137  -0.004038
H  -1.455707   0.781208   0.817101
H  -1.510357   0.980889  -0.944609
H  -0.214615  -0.922883   0.577980
H   0.724229  -0.089216   0.546938
H  -0.100285  -1.722520  -1.182492
