14
butane_opt
C  -3.928722   0.266347   0.053803
C  -2.658474  -0.628257  -0.029747
H  -4.832902  -0.314208   0.420264
H  -4.211143   1.098450  -0.979161
H  -3.796341   0.864307   0.869435
C  -1.398880   0.167553  -0.027832
H  -2.699710  -1.483375  -1.074341
H  -2.480298  -1.201318   0.861346
C  -0.219824  -0.653162   0.066439
H  -1.397321   0.860240   0.891409
H  -1.352941   0.751168  -0.833612
H  -0.205082  -1.454619   1.127778
H   0.696353  -0.122158   0.129844
H  -0.254741  -1.289793  -0.726208
