14
butane_opt
C  -3.929385   0.234199  -0.039120
C  -2.703781  -0.564459   0.125963
H  -4.856112  -0.376350   0.025883
H  -3.744425   0.954170  -1.129901
H  -3.941363   0.697720   0.741041
C  -1.421967   0.217539   0.045135
H  -2.720615  -1.050533  -0.530933
H  -2.934009  -1.330821   1.190604
C  -0.142053  -0.753888  -0.035390
H  -1.417022   0.977682   0.909018
H  -1.512242   0.722915  -0.705404
H  -0.335824  -0.867508   0.530730
H   0.774799  -0.119098   0.288213
H   0.044984  -1.688854  -1.101405
