14
butane_opt
C  -3.929408   0.243342  -0.076185
C  -2.687184  -0.572994   0.190448
H  -4.847296  -0.308345  -0.285448
H  -3.634192   0.739284  -0.955005
H  -4.176232   0.850918   0.780257
C  -1.417558   0.188961   0.092608
H  -2.554108  -1.244288  -0.638828
H  -2.900838  -1.318535   1.170492
C  -0.173082  -0.719685  -0.081203
H  -1.383013   0.965570   0.949692
H  -1.610138   0.899206  -0.814509
H  -0.118413  -1.173414   0.722256
H   0.780510   0.003464   0.080274
H  -0.105395  -1.572142  -1.070814
