butane_opt
 OpenBabel08242015383D

 14 13  0  0  0  0  0  0  0  0999 V2000
   -3.9771    0.2404    0.0940 C   0  0  0  0  0  0  0  0  0  0  0  0
   -2.7267   -0.5941   -0.0188 C   0  0  0  0  0  0  0  0  0  0  0  0
   -5.0533   -0.4913    0.1249 H   0  0  0  0  0  0  0  0  0  0  0  0
   -3.9528    0.7855   -0.8163 H   0  0  0  0  0  0  0  0  0  0  0  0
   -3.8327    1.0031    1.0410 H   0  0  0  0  0  0  0  0  0  0  0  0
   -1.4025    0.2410   -0.1037 C   0  0  0  0  0  0  0  0  0  0  0  0
   -2.7425   -1.2307   -0.8529 H   0  0  0  0  0  0  0  0  0  0  0  0
   -2.7786   -1.2140    0.8605 H   0  0  0  0  0  0  0  0  0  0  0  0
   -0.1012   -0.7388    0.0898 C   0  0  0  0  0  0  0  0  0  0  0  0
   -1.4597    0.8889    0.8059 H   0  0  0  0  0  0  0  0  0  0  0  0
   -1.4300    0.8437   -0.9929 H   0  0  0  0  0  0  0  0  0  0  0  0
   -0.3051   -1.2730    1.0031 H   0  0  0  0  0  0  0  0  0  0  0  0
    0.7082   -0.1799    0.3121 H   0  0  0  0  0  0  0  0  0  0  0  0
    0.3244   -1.4134   -0.7803 H   0  0  0  0  0  0  0  0  0  0  0  0
  1  3  1  0  0  0  0
  1  5  1  0  0  0  0
  2  1  1  0  0  0  0
  2  8  1  0  0  0  0
  4  1  1  0  0  0  0
  6  2  1  0  0  0  0
  6  9  1  0  0  0  0
  6 10  1  0  0  0  0
  7  2  1  0  0  0  0
  9 13  1  0  0  0  0
  9 12  1  0  0  0  0
 11  6  1  0  0  0  0
 14  9  1  0  0  0  0
M  END
$$$$
