butane_opt
 OpenBabel08242015383D

 14 13  0  0  0  0  0  0  0  0999 V2000
   -3.9500    0.2866    0.1056 C   0  0  0  0  0  0  0  0  0  0  0  0
   -2.7184   -0.6764   -0.0570 C   0  0  0  0  0  0  0  0  0  0  0  0
   -4.8293   -0.2745    0.1971 H   0  0  0  0  0  0  0  0  0  0  0  0
   -4.2186    0.7792   -0.6845 H   0  0  0  0  0  0  0  0  0  0  0  0
   -4.0657    1.2191    1.1511 H   0  0  0  0  0  0  0  0  0  0  0  0
   -1.3489    0.1917   -0.1410 C   0  0  0  0  0  0  0  0  0  0  0  0
   -2.8503   -1.2395   -0.8161 H   0  0  0  0  0  0  0  0  0  0  0  0
   -2.7103   -1.3148    0.8350 H   0  0  0  0  0  0  0  0  0  0  0  0
   -0.1422   -0.6941    0.1474 C   0  0  0  0  0  0  0  0  0  0  0  0
   -1.4633    0.8219    0.5626 H   0  0  0  0  0  0  0  0  0  0  0  0
   -1.3392    0.8918   -1.0694 H   0  0  0  0  0  0  0  0  0  0  0  0
   -0.3035   -1.0926    0.9457 H   0  0  0  0  0  0  0  0  0  0  0  0
    0.7171   -0.0407    0.3884 H   0  0  0  0  0  0  0  0  0  0  0  0
   -0.0237   -1.5320   -0.7175 H   0  0  0  0  0  0  0  0  0  0  0  0
  1  3  1  0  0  0  0
  1  5  1  0  0  0  0
  2  1  1  0  0  0  0
  2  8  1  0  0  0  0
  4  1  1  0  0  0  0
  6  2  1  0  0  0  0
  6  9  1  0  0  0  0
  6 10  1  0  0  0  0
  7  2  1  0  0  0  0
  9 13  1  0  0  0  0
  9 12  1  0  0  0  0
 11  6  1  0  0  0  0
 14  9  1  0  0  0  0
M  END
$$$$
