14
butane_opt
C  -3.968779   0.298400  -0.074371
C  -2.718785  -0.648673   0.184051
H  -4.812791  -0.329267  -0.213841
H  -3.839023   0.903527  -1.012495
H  -4.339114   1.094449   0.780853
C  -1.371019   0.157571   0.101373
H  -2.566025  -1.356494  -0.724975
H  -2.747032  -1.449603   1.113331
C  -0.158140  -0.649622  -0.072256
H  -1.126136   0.765585   0.891288
H  -1.446800   0.837376  -0.794996
H  -0.111545  -1.170970   0.756668
H   0.704744  -0.099088   0.080146
H  -0.137227  -1.555799  -1.082837
