14
butane_opt
C  -3.923403   0.228678  -0.069183
C  -2.683150  -0.549025   0.163667
H  -4.841369  -0.433673  -0.300844
H  -3.669889   0.684598  -0.931417
H  -4.168195   1.063818   0.809296
C  -1.437877   0.189541   0.080637
H  -2.649286  -1.247801  -0.716193
H  -2.814567  -1.283893   1.217252
C  -0.145692  -0.719996  -0.049519
H  -1.268333   0.912113   0.969241
H  -1.620463   0.806636  -0.793704
H  -0.123411  -1.244962   0.752397
H   0.780931  -0.139101  -0.127853
H  -0.330976  -1.392073  -0.914362
