butane_opt
 OpenBabel08242015383D

 14 13  0  0  0  0  0  0  0  0999 V2000
   -3.9258    0.2147   -0.0878 C   0  0  0  0  0  0  0  0  0  0  0  0
   -2.7377   -0.5884    0.1127 C   0  0  0  0  0  0  0  0  0  0  0  0
   -4.7792   -0.4038   -0.1914 H   0  0  0  0  0  0  0  0  0  0  0  0
   -4.0824    0.8549   -1.0213 H   0  0  0  0  0  0  0  0  0  0  0  0
   -4.0425    0.9116    0.7999 H   0  0  0  0  0  0  0  0  0  0  0  0
   -1.4142    0.2539    0.1566 C   0  0  0  0  0  0  0  0  0  0  0  0
   -2.5973   -1.1277   -0.6286 H   0  0  0  0  0  0  0  0  0  0  0  0
   -2.8550   -1.2660    1.1028 H   0  0  0  0  0  0  0  0  0  0  0  0
   -0.1132   -0.7420   -0.0768 C   0  0  0  0  0  0  0  0  0  0  0  0
   -1.3376    1.0115    1.1090 H   0  0  0  0  0  0  0  0  0  0  0  0
   -1.5503    0.7547   -0.6170 H   0  0  0  0  0  0  0  0  0  0  0  0
    0.1204   -1.4972    0.8978 H   0  0  0  0  0  0  0  0  0  0  0  0
    0.7099   -0.2767   -0.4367 H   0  0  0  0  0  0  0  0  0  0  0  0
   -0.2689   -1.1044   -0.8214 H   0  0  0  0  0  0  0  0  0  0  0  0
  1  2  1  0  0  0  0
  1  5  1  0  0  0  0
  2  6  1  0  0  0  0
  2  8  1  0  0  0  0
  3  1  1  0  0  0  0
  4  1  1  0  0  0  0
  6 10  1  0  0  0  0
  7  2  1  0  0  0  0
  9  6  1  0  0  0  0
  9 12  1  0  0  0  0
 11  6  1  0  0  0  0
 13  9  1  0  0  0  0
 14  9  1  0  0  0  0
M  END
$$$$
