butane_opt
 OpenBabel08242015383D

 14 12  0  0  0  0  0  0  0  0999 V2000
   -3.9307    0.2804   -0.0384 C   0  0  0  0  0  0  0  0  0  0  0  0
   -2.6865   -0.6435    0.0920 C   0  0  0  0  0  0  0  0  0  0  0  0
   -4.8071   -0.3377    0.2789 H   0  0  0  0  0  0  0  0  0  0  0  0
   -4.0837    1.4433   -1.3444 H   0  0  0  0  0  0  0  0  0  0  0  0
   -3.8907    0.6087    0.5473 H   0  0  0  0  0  0  0  0  0  0  0  0
   -1.4004    0.1524    0.1136 C   0  0  0  0  0  0  0  0  0  0  0  0
   -2.5475   -1.2876   -0.7405 H   0  0  0  0  0  0  0  0  0  0  0  0
   -2.7097   -1.3438    1.0442 H   0  0  0  0  0  0  0  0  0  0  0  0
   -0.1985   -0.6557   -0.0373 C   0  0  0  0  0  0  0  0  0  0  0  0
   -1.3133    0.8822    1.1089 H   0  0  0  0  0  0  0  0  0  0  0  0
   -1.2928    0.7227   -0.7192 H   0  0  0  0  0  0  0  0  0  0  0  0
   -0.1276   -1.0090    0.6791 H   0  0  0  0  0  0  0  0  0  0  0  0
    0.6341   -0.1290    0.0698 H   0  0  0  0  0  0  0  0  0  0  0  0
   -0.2827   -1.6189   -1.1283 H   0  0  0  0  0  0  0  0  0  0  0  0
  1  2  1  0  0  0  0
  1  3  1  0  0  0  0
  1  5  1  0  0  0  0
  2  6  1  0  0  0  0
  2  8  1  0  0  0  0
  6 10  1  0  0  0  0
  7  2  1  0  0  0  0
  9 13  1  0  0  0  0
  9  6  1  0  0  0  0
  9 12  1  0  0  0  0
 11  6  1  0  0  0  0
 14  9  1  0  0  0  0
M  RAD  2   1   2   4   2
M  END
$$$$
