14
butane_opt
C  -3.919599   0.265080   0.095312
C  -2.709410  -0.589285  -0.003119
H  -4.943796  -0.427747  -0.448587
H  -3.768004   0.380448  -0.495443
H  -3.893314   1.168833   1.222160
C  -1.418886   0.203593  -0.101165
H  -2.828432  -1.200180  -0.840416
H  -2.669555  -1.141506   0.848149
C  -0.153761  -0.710272   0.110320
H  -1.575988   0.823039   0.670838
H  -1.235603   0.860324  -1.115989
H  -0.156340  -1.521799   1.126997
H   0.655412  -0.239429  -0.072012
H  -0.178767  -1.235405  -0.641746
