14
butane_opt
C  -3.959939   0.284465   0.064311
C  -2.694069  -0.689430   0.001224
H  -4.703071  -0.093812  -0.143975
H  -3.941123   0.741015  -0.739578
H  -4.113868   1.181277   1.113518
C  -1.404668   0.176271  -0.028824
H  -2.655944  -1.447733  -1.006490
H  -2.592779  -1.165903   0.764766
C  -0.161773  -0.664631   0.060228
H  -1.297711   0.724759   0.763625
H  -1.505360   0.853851  -0.930968
H  -0.130263  -1.501270   1.133128
H   0.821813  -0.051321  -0.123838
H  -0.273884  -0.957394  -0.476606
