butane_opt
 OpenBabel08242015383D

 14 13  0  0  0  0  0  0  0  0999 V2000
   -3.9105    0.2489   -0.0911 C   0  0  0  0  0  0  0  0  0  0  0  0
   -2.6866   -0.5679    0.1202 C   0  0  0  0  0  0  0  0  0  0  0  0
   -5.0121   -0.4443   -0.1108 H   0  0  0  0  0  0  0  0  0  0  0  0
   -3.9140    0.9175   -1.0002 H   0  0  0  0  0  0  0  0  0  0  0  0
   -3.9344    0.8077    0.7380 H   0  0  0  0  0  0  0  0  0  0  0  0
   -1.4289    0.1692    0.1427 C   0  0  0  0  0  0  0  0  0  0  0  0
   -2.6752   -1.2725   -0.6698 H   0  0  0  0  0  0  0  0  0  0  0  0
   -2.6885   -1.2937    1.1334 H   0  0  0  0  0  0  0  0  0  0  0  0
   -0.1690   -0.6815   -0.0490 C   0  0  0  0  0  0  0  0  0  0  0  0
   -1.4456    0.9522    1.0306 H   0  0  0  0  0  0  0  0  0  0  0  0
   -1.4796    0.7999   -0.6841 H   0  0  0  0  0  0  0  0  0  0  0  0
    0.1593   -1.4229    0.8892 H   0  0  0  0  0  0  0  0  0  0  0  0
    0.6940   -0.1343   -0.3603 H   0  0  0  0  0  0  0  0  0  0  0  0
   -0.3786   -1.4286   -1.0292 H   0  0  0  0  0  0  0  0  0  0  0  0
  1  2  1  0  0  0  0
  1  5  1  0  0  0  0
  2  6  1  0  0  0  0
  2  8  1  0  0  0  0
  3  1  1  0  0  0  0
  4  1  1  0  0  0  0
  6 10  1  0  0  0  0
  7  2  1  0  0  0  0
  9  6  1  0  0  0  0
  9 12  1  0  0  0  0
 11  6  1  0  0  0  0
 13  9  1  0  0  0  0
 14  9  1  0  0  0  0
M  END
$$$$
