14
butane_opt
C  -3.946596   0.294658   0.105254
C  -2.708266  -0.643033  -0.021106
H  -4.783995  -0.223210  -0.117348
H  -4.104378   0.687447  -0.627284
H  -3.940775   1.185305   1.128116
C  -1.413279   0.137181  -0.135503
H  -2.833501  -1.253517  -0.829213
H  -2.653921  -1.247967   0.813820
C  -0.156376  -0.670471   0.131970
H  -1.257431   0.777979   0.621593
H  -1.377508   0.749087  -1.032019
H  -0.352857  -1.297701   0.992663
H   0.850073   0.126781   0.267207
H   0.090377  -1.380597  -0.727387
