14
butane_opt
C  -3.977146   0.240364   0.094030
C  -2.726655  -0.594086  -0.018755
H  -5.053319  -0.491303   0.124932
H  -3.952794   0.785523  -0.816263
H  -3.832705   1.003098   1.040956
C  -1.402538   0.240989  -0.103707
H  -2.742518  -1.230657  -0.852943
H  -2.778626  -1.214049   0.860501
C  -0.101210  -0.738760   0.089785
H  -1.459667   0.888869   0.805860
H  -1.429996   0.843673  -0.992915
H  -0.305069  -1.272981   1.003146
H   0.708214  -0.179950   0.312139
H   0.324415  -1.413389  -0.780299
