14
butane_opt
C  -3.965499   0.321434   0.073521
C  -2.712512  -0.665847   0.004598
H  -4.895398  -0.320725   0.080292
H  -4.154021   0.793035  -0.751847
H  -3.975114   1.095404   0.982701
C  -1.376923   0.150865  -0.084243
H  -2.829488  -1.275128  -0.835444
H  -2.754479  -1.356126   0.941999
C  -0.120684  -0.673153   0.085426
H  -1.544410   0.681275   0.640834
H  -1.255204   0.840476  -0.956337
H  -0.476140  -1.064623   0.840170
H   0.836281   0.050073   0.373137
H   0.121409  -1.511080  -0.859134
