14
butane_opt
C  -3.915618   0.245830  -0.013435
C  -2.670269  -0.593850   0.097996
H  -4.907943  -0.350672   0.194983
H  -3.960763   1.129846  -1.128884
H  -3.915822   0.714591   0.719552
C  -1.438116   0.210471   0.041494
H  -2.675756  -1.383235  -0.780242
H  -2.760727  -1.252054   1.078935
C  -0.180527  -0.721158  -0.015082
H  -1.317770   0.775015   0.870863
H  -1.538741   0.850867  -0.919904
H  -0.300072  -1.007136   0.636644
H   0.858326   0.034458   0.492661
H  -0.045402  -1.664251  -1.092043
