butane_opt
 OpenBabel08242015383D

 14 13  0  0  0  0  0  0  0  0999 V2000
   -3.9191    0.2365   -0.0737 C   0  0  0  0  0  0  0  0  0  0  0  0
   -2.6657   -0.6099    0.0912 C   0  0  0  0  0  0  0  0  0  0  0  0
   -4.7632   -0.3509    0.1359 H   0  0  0  0  0  0  0  0  0  0  0  0
   -3.8659    1.1238   -1.0769 H   0  0  0  0  0  0  0  0  0  0  0  0
   -3.8452    0.7786    0.7231 H   0  0  0  0  0  0  0  0  0  0  0  0
   -1.4243    0.2121    0.1445 C   0  0  0  0  0  0  0  0  0  0  0  0
   -2.7542   -1.3717   -0.8106 H   0  0  0  0  0  0  0  0  0  0  0  0
   -2.7113   -1.2704    0.9258 H   0  0  0  0  0  0  0  0  0  0  0  0
   -0.1870   -0.7129   -0.0199 C   0  0  0  0  0  0  0  0  0  0  0  0
   -1.5430    0.9668    1.0611 H   0  0  0  0  0  0  0  0  0  0  0  0
   -1.5122    0.8738   -0.7338 H   0  0  0  0  0  0  0  0  0  0  0  0
    0.0933   -1.3101    0.8482 H   0  0  0  0  0  0  0  0  0  0  0  0
    0.6652   -0.1104   -0.4822 H   0  0  0  0  0  0  0  0  0  0  0  0
   -0.4399   -1.2948   -0.8909 H   0  0  0  0  0  0  0  0  0  0  0  0
  1  2  1  0  0  0  0
  1  3  1  0  0  0  0
  1  5  1  0  0  0  0
  2  6  1  0  0  0  0
  2  8  1  0  0  0  0
  4  1  1  0  0  0  0
  6 10  1  0  0  0  0
  7  2  1  0  0  0  0
  9  6  1  0  0  0  0
  9 12  1  0  0  0  0
 11  6  1  0  0  0  0
 13  9  1  0  0  0  0
 14  9  1  0  0  0  0
M  END
$$$$
