14
butane_opt
C  -3.902705   0.229132  -0.023820
C  -2.718479  -0.592696   0.105435
H  -4.850579  -0.364133   0.138660
H  -3.911731   1.031811  -0.998218
H  -3.692317   0.685819   0.735058
C  -1.440888   0.217425   0.006490
H  -2.534402  -1.123636  -0.712872
H  -2.701173  -1.255016   1.061315
C  -0.181269  -0.724981  -0.013926
H  -1.356048   1.052872   0.982869
H  -1.512085   0.765609  -0.789523
H  -0.262984  -1.031471   0.707750
H   0.672789  -0.222775   0.404765
H   0.056673  -1.592077  -1.024403
