butane_opt
 OpenBabel08242015383D

 14 13  0  0  0  0  0  0  0  0999 V2000
   -3.9324    0.2951    0.1117 C   0  0  0  0  0  0  0  0  0  0  0  0
   -2.7136   -0.6640   -0.0259 C   0  0  0  0  0  0  0  0  0  0  0  0
   -4.7871   -0.2233    0.1980 H   0  0  0  0  0  0  0  0  0  0  0  0
   -4.0991    0.9965   -0.8218 H   0  0  0  0  0  0  0  0  0  0  0  0
   -3.9582    0.9496    0.9668 H   0  0  0  0  0  0  0  0  0  0  0  0
   -1.4126    0.1910   -0.0946 C   0  0  0  0  0  0  0  0  0  0  0  0
   -2.7260   -1.5069   -0.9813 H   0  0  0  0  0  0  0  0  0  0  0  0
   -2.7405   -1.3027    0.7731 H   0  0  0  0  0  0  0  0  0  0  0  0
   -0.1612   -0.6855    0.0937 C   0  0  0  0  0  0  0  0  0  0  0  0
   -1.3425    0.7091    0.6607 H   0  0  0  0  0  0  0  0  0  0  0  0
   -1.3217    0.8900   -1.0176 H   0  0  0  0  0  0  0  0  0  0  0  0
   -0.4482   -1.1762    0.9660 H   0  0  0  0  0  0  0  0  0  0  0  0
    0.8294    0.0689    0.4133 H   0  0  0  0  0  0  0  0  0  0  0  0
    0.1817   -1.4829   -0.7464 H   0  0  0  0  0  0  0  0  0  0  0  0
  1  3  1  0  0  0  0
  1  5  1  0  0  0  0
  2  1  1  0  0  0  0
  2  8  1  0  0  0  0
  4  1  1  0  0  0  0
  6  2  1  0  0  0  0
  6  9  1  0  0  0  0
  6 10  1  0  0  0  0
  7  2  1  0  0  0  0
  9 13  1  0  0  0  0
  9 12  1  0  0  0  0
 11  6  1  0  0  0  0
 14  9  1  0  0  0  0
M  END
$$$$
