butane_opt
 OpenBabel08242015383D

 14 13  0  0  0  0  0  0  0  0999 V2000
   -3.9538    0.2749    0.0988 C   0  0  0  0  0  0  0  0  0  0  0  0
   -2.7122   -0.6429   -0.0654 C   0  0  0  0  0  0  0  0  0  0  0  0
   -4.7489   -0.1332    0.2803 H   0  0  0  0  0  0  0  0  0  0  0  0
   -4.3304    1.0034   -0.8066 H   0  0  0  0  0  0  0  0  0  0  0  0
   -3.7995    0.8576    0.9128 H   0  0  0  0  0  0  0  0  0  0  0  0
   -1.3710    0.1717   -0.0908 C   0  0  0  0  0  0  0  0  0  0  0  0
   -2.7009   -1.2875   -0.8785 H   0  0  0  0  0  0  0  0  0  0  0  0
   -2.6450   -1.3086    0.8529 H   0  0  0  0  0  0  0  0  0  0  0  0
   -0.1775   -0.6727    0.1290 C   0  0  0  0  0  0  0  0  0  0  0  0
   -1.4246    0.8625    0.7747 H   0  0  0  0  0  0  0  0  0  0  0  0
   -1.2668    0.6827   -0.9787 H   0  0  0  0  0  0  0  0  0  0  0  0
   -0.2487   -1.2043    0.9953 H   0  0  0  0  0  0  0  0  0  0  0  0
    0.7857   -0.0784    0.2425 H   0  0  0  0  0  0  0  0  0  0  0  0
   -0.0839   -1.4179   -0.8406 H   0  0  0  0  0  0  0  0  0  0  0  0
  1  3  1  0  0  0  0
  1  5  1  0  0  0  0
  2  1  1  0  0  0  0
  2  8  1  0  0  0  0
  4  1  1  0  0  0  0
  6  2  1  0  0  0  0
  6  9  1  0  0  0  0
  6 10  1  0  0  0  0
  7  2  1  0  0  0  0
  9 13  1  0  0  0  0
  9 12  1  0  0  0  0
 11  6  1  0  0  0  0
 14  9  1  0  0  0  0
M  END
$$$$
