butane_opt
 OpenBabel08242015383D

 14 13  0  0  0  0  0  0  0  0999 V2000
   -3.9054    0.2920   -0.0750 C   0  0  0  0  0  0  0  0  0  0  0  0
   -2.6921   -0.6246    0.1534 C   0  0  0  0  0  0  0  0  0  0  0  0
   -4.8566   -0.3329   -0.4304 H   0  0  0  0  0  0  0  0  0  0  0  0
   -3.9288    0.7034   -0.8089 H   0  0  0  0  0  0  0  0  0  0  0  0
   -4.1019    1.1939    1.0131 H   0  0  0  0  0  0  0  0  0  0  0  0
   -1.4261    0.1495    0.0619 C   0  0  0  0  0  0  0  0  0  0  0  0
   -2.6285   -1.2789   -0.6687 H   0  0  0  0  0  0  0  0  0  0  0  0
   -2.6295   -1.5174    1.1489 H   0  0  0  0  0  0  0  0  0  0  0  0
   -0.1728   -0.6751   -0.0387 C   0  0  0  0  0  0  0  0  0  0  0  0
   -1.3872    0.8242    0.9569 H   0  0  0  0  0  0  0  0  0  0  0  0
   -1.4990    0.7379   -0.8123 H   0  0  0  0  0  0  0  0  0  0  0  0
   -0.1247   -1.2535    0.8819 H   0  0  0  0  0  0  0  0  0  0  0  0
    0.8567    0.0964   -0.1165 H   0  0  0  0  0  0  0  0  0  0  0  0
   -0.3738   -1.3256   -0.9364 H   0  0  0  0  0  0  0  0  0  0  0  0
  1  2  1  0  0  0  0
  1  5  1  0  0  0  0
  2  8  1  0  0  0  0
  3  1  1  0  0  0  0
  4  1  1  0  0  0  0
  6  2  1  0  0  0  0
  6 10  1  0  0  0  0
  7  2  1  0  0  0  0
  9  6  1  0  0  0  0
  9 12  1  0  0  0  0
 11  6  1  0  0  0  0
 13  9  1  0  0  0  0
 14  9  1  0  0  0  0
M  END
$$$$
