14
butane_opt
C  -3.924634   0.235442  -0.017954
C  -2.756728  -0.602335   0.068321
H  -4.813794  -0.310216  -0.043396
H  -3.884586   0.842303  -0.956792
H  -4.146709   1.130335   0.922898
C  -1.401388   0.212286   0.032506
H  -2.756635  -1.283171  -0.729436
H  -2.819544  -1.357069   1.083074
C  -0.104305  -0.708126  -0.010453
H  -1.225469   1.004672   0.987781
H  -1.572499   0.773362  -0.749217
H  -0.105014  -1.436191   0.970238
H   0.653371  -0.159290  -0.090559
H  -0.084883  -1.334628  -0.789881
