14
butane_opt
C  -3.906881   0.226032  -0.069623
C  -2.677504  -0.591460   0.075937
H  -4.769804  -0.344230   0.442880
H  -4.058761   1.143279  -1.096002
H  -3.707505   0.591428   0.599493
C  -1.445451   0.243842   0.100086
H  -2.740193  -1.297636  -0.709609
H  -2.807328  -1.226003   0.996487
C  -0.164397  -0.721670  -0.036053
H  -1.443380   1.081498   1.046721
H  -1.562253   0.608025  -0.569733
H  -0.205736  -1.284733   0.812777
H   0.721170  -0.202054  -0.119325
H  -0.111345  -1.402426  -0.859261
