14
butane_opt
C  -3.887900   0.224685  -0.041947
C  -2.730739  -0.551214   0.124012
H  -4.797063  -0.443280   0.091879
H  -3.799418   1.003678  -1.022239
H  -3.940181   0.667224   0.742575
C  -1.418324   0.222890   0.077124
H  -2.637335  -1.299356  -0.735354
H  -2.822780  -1.168462   0.938617
C  -0.168595  -0.761370  -0.057709
H  -1.412271   1.010744   0.995045
H  -1.504247   0.955985  -0.874450
H  -0.241982  -1.206941   0.803815
H   0.786461  -0.177145   0.239577
H  -0.161750  -1.448915  -0.966184
