14
butane_opt
C  -3.941345   0.260282  -0.066535
C  -2.728143  -0.627057   0.099880
H  -4.866721  -0.335386   0.307010
H  -3.981269   1.204699  -1.149313
H  -3.866387   0.534275   0.593180
C  -1.379199   0.218746   0.124247
H  -2.708487  -1.263601  -0.736100
H  -2.803706  -1.218695   1.038934
C  -0.176491  -0.715427  -0.049086
H  -1.496777   0.984571   1.077594
H  -1.312778   0.910038  -0.761674
H   0.152084  -1.165198   0.698691
H   0.716928  -0.218119   0.080879
H  -0.165483  -1.550296  -1.070751
