14
butane_opt
C  -3.893504   0.249944   0.042418
C  -2.720493  -0.599145  -0.042629
H  -4.799318  -0.283611   0.040425
H  -3.963660   0.667668  -0.682735
H  -3.779321   1.156441   1.084130
C  -1.411587   0.166826  -0.003097
H  -2.739921  -1.365748  -0.866164
H  -2.758551  -1.123243   0.804260
C  -0.189909  -0.692460   0.082826
H  -1.538491   0.938218   0.895869
H  -1.387607   0.907593  -0.966024
H  -0.000561  -1.709010   1.205866
H   0.722857  -0.123566  -0.457962
H  -0.218794  -1.028639  -0.526613
