butane_opt
 OpenBabel08242015383D

 14 13  0  0  0  0  0  0  0  0999 V2000
   -3.9765    0.3031    0.0511 C   0  0  0  0  0  0  0  0  0  0  0  0
   -2.6547   -0.6252    0.0097 C   0  0  0  0  0  0  0  0  0  0  0  0
   -4.8839   -0.2874   -0.1673 H   0  0  0  0  0  0  0  0  0  0  0  0
   -3.9333    0.5395   -0.6011 H   0  0  0  0  0  0  0  0  0  0  0  0
   -4.0822    1.2257    1.0706 H   0  0  0  0  0  0  0  0  0  0  0  0
   -1.3845    0.1241   -0.0285 C   0  0  0  0  0  0  0  0  0  0  0  0
   -2.5999   -1.4984   -0.8734 H   0  0  0  0  0  0  0  0  0  0  0  0
   -2.8100   -1.2176    0.8806 H   0  0  0  0  0  0  0  0  0  0  0  0
   -0.1755   -0.6469    0.0780 C   0  0  0  0  0  0  0  0  0  0  0  0
   -1.3608    0.6729    0.7295 H   0  0  0  0  0  0  0  0  0  0  0  0
   -1.3075    0.9413   -1.0790 H   0  0  0  0  0  0  0  0  0  0  0  0
   -0.1726   -1.4575    1.1153 H   0  0  0  0  0  0  0  0  0  0  0  0
    0.6752   -0.0411   -0.1820 H   0  0  0  0  0  0  0  0  0  0  0  0
   -0.2684   -1.2091   -0.7168 H   0  0  0  0  0  0  0  0  0  0  0  0
  1  5  1  0  0  0  0
  2  1  1  0  0  0  0
  2  8  1  0  0  0  0
  3  1  1  0  0  0  0
  4  1  1  0  0  0  0
  6  2  1  0  0  0  0
  6  9  1  0  0  0  0
  6 10  1  0  0  0  0
  7  2  1  0  0  0  0
  9 12  1  0  0  0  0
 11  6  1  0  0  0  0
 13  9  1  0  0  0  0
 14  9  1  0  0  0  0
M  END
$$$$
