butane_opt
 OpenBabel08242015383D

 14 12  0  0  0  0  0  0  0  0999 V2000
   -3.9604    0.2969    0.0788 C   0  0  0  0  0  0  0  0  0  0  0  0
   -2.6729   -0.6281   -0.0487 C   0  0  0  0  0  0  0  0  0  0  0  0
   -4.8433   -0.2648   -0.1659 H   0  0  0  0  0  0  0  0  0  0  0  0
   -4.1052    0.7325   -0.6395 H   0  0  0  0  0  0  0  0  0  0  0  0
   -3.9348    1.0514    1.0701 H   0  0  0  0  0  0  0  0  0  0  0  0
   -1.3855    0.1241    0.0109 C   0  0  0  0  0  0  0  0  0  0  0  0
   -2.5269   -1.3866   -0.9787 H   0  0  0  0  0  0  0  0  0  0  0  0
   -2.7310   -1.0799    0.6839 H   0  0  0  0  0  0  0  0  0  0  0  0
   -0.2195   -0.6708    0.0781 C   0  0  0  0  0  0  0  0  0  0  0  0
   -1.2960    0.6884    0.8274 H   0  0  0  0  0  0  0  0  0  0  0  0
   -1.1634    0.8878   -1.0556 H   0  0  0  0  0  0  0  0  0  0  0  0
   -0.0254   -1.6312    1.2339 H   0  0  0  0  0  0  0  0  0  0  0  0
    0.8128   -0.0499   -0.4413 H   0  0  0  0  0  0  0  0  0  0  0  0
   -0.3599   -0.8648   -0.4675 H   0  0  0  0  0  0  0  0  0  0  0  0
  1  5  1  0  0  0  0
  2  6  1  0  0  0  0
  2  1  1  0  0  0  0
  2  8  1  0  0  0  0
  3  1  1  0  0  0  0
  4  1  1  0  0  0  0
  6  9  1  0  0  0  0
  6 10  1  0  0  0  0
  7  2  1  0  0  0  0
  9 12  1  0  0  0  0
 11  6  1  0  0  0  0
 13  9  1  0  0  0  0
M  RAD  2   9   2  14   2
M  END
$$$$
