14
butane_opt
C  -3.954088   0.275283  -0.046296
C  -2.717528  -0.656642   0.113325
H  -4.704550  -0.194433  -0.069834
H  -3.895459   0.964374  -0.987667
H  -4.165573   0.796770   0.599201
C  -1.389821   0.207413   0.116719
H  -2.598506  -1.375818  -0.830484
H  -2.747152  -1.161068   0.931528
C  -0.142261  -0.697400  -0.038693
H  -1.333912   0.967578   0.996378
H  -1.391043   0.722870  -0.649599
H   0.134906  -1.478957   0.967343
H   0.742948  -0.061245  -0.383106
H  -0.613596  -1.195812  -0.850370
