14
butane_opt
C  -3.894729   0.231181   0.107688
C  -2.699573  -0.556216  -0.016740
H  -4.928628  -0.474385   0.196616
H  -3.992465   0.728063  -0.686023
H  -3.830366   1.011378   1.015500
C  -1.456521   0.199536  -0.127391
H  -2.761978  -1.328161  -0.977064
H  -2.867127  -1.156869   0.794224
C  -0.128762  -0.721056   0.138046
H  -1.604428   0.660788   0.606518
H  -1.387440   1.044604  -1.215272
H  -0.290435  -1.027345   0.811185
H   0.738760  -0.174039   0.455921
H   0.072785  -1.613337  -0.774770
