14
butane_opt
C  -3.893073   0.242521   0.089000
C  -2.712866  -0.564521  -0.062282
H  -4.982323  -0.424303  -0.119085
H  -3.908150   0.638025  -0.658275
H  -3.736596   1.088603   1.117083
C  -1.439038   0.219603  -0.011236
H  -2.839037  -1.406725  -1.062228
H  -2.634826  -1.108982   0.670883
C  -0.157648  -0.720213   0.093152
H  -1.436906   0.660023   0.707725
H  -1.329032   0.918590  -0.968138
H  -0.022604  -1.774227   1.348194
H   0.672333  -0.228444  -0.373364
H  -0.352495  -0.970456  -0.471327
