14
butane_opt
C  -3.996338   0.282204   0.106318
C  -2.689310  -0.628460   0.009685
H  -4.850809  -0.321852  -0.473234
H  -3.841886   0.474095  -0.532088
H  -3.986107   1.385540   1.152931
C  -1.364317   0.191513  -0.122636
H  -2.900146  -1.351885  -0.858853
H  -2.629954  -1.241147   0.850229
C  -0.158486  -0.693224   0.108988
H  -1.448027   0.760175   0.607645
H  -1.267538   0.755710  -1.023359
H  -0.231783  -1.464635   1.160130
H   0.723623  -0.096371   0.006141
H  -0.102770  -1.192190  -0.641657
