butane_opt
 OpenBabel08242015383D

 14 13  0  0  0  0  0  0  0  0999 V2000
   -3.9537    0.2750   -0.0012 C   0  0  0  0  0  0  0  0  0  0  0  0
   -2.7123   -0.6162    0.0369 C   0  0  0  0  0  0  0  0  0  0  0  0
   -4.8868   -0.3592    0.0748 H   0  0  0  0  0  0  0  0  0  0  0  0
   -4.0227    0.9450   -0.9297 H   0  0  0  0  0  0  0  0  0  0  0  0
   -3.9756    0.9066    0.8384 H   0  0  0  0  0  0  0  0  0  0  0  0
   -1.3906    0.1783    0.0473 C   0  0  0  0  0  0  0  0  0  0  0  0
   -2.7142   -1.2905   -0.8060 H   0  0  0  0  0  0  0  0  0  0  0  0
   -2.6974   -1.3193    0.9676 H   0  0  0  0  0  0  0  0  0  0  0  0
   -0.1512   -0.6889    0.0114 C   0  0  0  0  0  0  0  0  0  0  0  0
   -1.3578    0.8878    0.9025 H   0  0  0  0  0  0  0  0  0  0  0  0
   -1.3697    0.7687   -0.8104 H   0  0  0  0  0  0  0  0  0  0  0  0
   -0.0423   -1.3634    0.9456 H   0  0  0  0  0  0  0  0  0  0  0  0
    0.7607   -0.0814   -0.0646 H   0  0  0  0  0  0  0  0  0  0  0  0
   -0.2212   -1.3371   -0.8112 H   0  0  0  0  0  0  0  0  0  0  0  0
  1  2  1  0  0  0  0
  1  3  1  0  0  0  0
  1  5  1  0  0  0  0
  2  6  1  0  0  0  0
  2  8  1  0  0  0  0
  4  1  1  0  0  0  0
  6 10  1  0  0  0  0
  7  2  1  0  0  0  0
  9  6  1  0  0  0  0
  9 12  1  0  0  0  0
 11  6  1  0  0  0  0
 13  9  1  0  0  0  0
 14  9  1  0  0  0  0
M  END
$$$$
