14
butane_opt
C  -3.954254   0.251116   0.065694
C  -2.730762  -0.617149   0.025782
H  -4.774670  -0.354348  -0.304406
H  -3.933495   0.504404  -0.620997
H  -4.229527   1.219870   1.051566
C  -1.391034   0.215068  -0.083806
H  -2.696017  -1.207439  -0.747943
H  -2.714263  -1.234952   0.913120
C  -0.129809  -0.708220   0.083623
H  -1.443551   0.977605   0.775281
H  -1.328657   0.828243  -0.887841
H  -0.111972  -1.469244   1.035664
H   0.724525  -0.157637  -0.124561
H  -0.025290  -1.293375  -0.710410
