14
butane_opt
C  -3.925972   0.239366   0.005045
C  -2.694208  -0.553139   0.019782
H  -4.909680  -0.415360   0.485983
H  -4.073324   1.201782  -1.134460
H  -3.553224   0.618987   0.697649
C  -1.416698   0.172512   0.052949
H  -2.808360  -1.468755  -0.976502
H  -2.616719  -1.040787   0.844614
C  -0.187914  -0.728149   0.038414
H  -1.279037   0.910372   0.907957
H  -1.397404   0.832517  -0.859195
H  -0.219493  -1.254311   0.831807
H   0.652721  -0.089741   0.006822
H  -0.101968  -1.337907  -0.806108
