butane_opt
 OpenBabel08242015383D

 14 13  0  0  0  0  0  0  0  0999 V2000
   -3.9356    0.2123    0.0695 C   0  0  0  0  0  0  0  0  0  0  0  0
   -2.7068   -0.5493   -0.0074 C   0  0  0  0  0  0  0  0  0  0  0  0
   -4.9563   -0.4573    0.1050 H   0  0  0  0  0  0  0  0  0  0  0  0
   -3.9390    0.9071   -0.8084 H   0  0  0  0  0  0  0  0  0  0  0  0
   -3.6491    0.9264    0.9640 H   0  0  0  0  0  0  0  0  0  0  0  0
   -1.4452    0.2282   -0.0687 C   0  0  0  0  0  0  0  0  0  0  0  0
   -2.7613   -1.2494   -0.7847 H   0  0  0  0  0  0  0  0  0  0  0  0
   -2.5358   -1.3013    0.9666 H   0  0  0  0  0  0  0  0  0  0  0  0
   -0.1470   -0.7235    0.0712 C   0  0  0  0  0  0  0  0  0  0  0  0
   -1.4733    0.7813    0.6656 H   0  0  0  0  0  0  0  0  0  0  0  0
   -1.4329    0.8589   -0.9519 H   0  0  0  0  0  0  0  0  0  0  0  0
   -0.4065   -1.1934    0.8787 H   0  0  0  0  0  0  0  0  0  0  0  0
    0.7551   -0.1645    0.4973 H   0  0  0  0  0  0  0  0  0  0  0  0
    0.2026   -1.6035   -0.9100 H   0  0  0  0  0  0  0  0  0  0  0  0
  1  3  1  0  0  0  0
  1  5  1  0  0  0  0
  2  1  1  0  0  0  0
  2  8  1  0  0  0  0
  4  1  1  0  0  0  0
  6  2  1  0  0  0  0
  6  9  1  0  0  0  0
  6 10  1  0  0  0  0
  7  2  1  0  0  0  0
  9 13  1  0  0  0  0
  9 12  1  0  0  0  0
 11  6  1  0  0  0  0
 14  9  1  0  0  0  0
M  END
$$$$
