butane_opt
 OpenBabel08242015383D

 14 13  0  0  0  0  0  0  0  0999 V2000
   -3.9541    0.2753   -0.0463 C   0  0  0  0  0  0  0  0  0  0  0  0
   -2.7175   -0.6566    0.1133 C   0  0  0  0  0  0  0  0  0  0  0  0
   -4.7046   -0.1944   -0.0698 H   0  0  0  0  0  0  0  0  0  0  0  0
   -3.8955    0.9644   -0.9877 H   0  0  0  0  0  0  0  0  0  0  0  0
   -4.1656    0.7968    0.5992 H   0  0  0  0  0  0  0  0  0  0  0  0
   -1.3898    0.2074    0.1167 C   0  0  0  0  0  0  0  0  0  0  0  0
   -2.5985   -1.3758   -0.8305 H   0  0  0  0  0  0  0  0  0  0  0  0
   -2.7472   -1.1611    0.9315 H   0  0  0  0  0  0  0  0  0  0  0  0
   -0.1423   -0.6974   -0.0387 C   0  0  0  0  0  0  0  0  0  0  0  0
   -1.3339    0.9676    0.9964 H   0  0  0  0  0  0  0  0  0  0  0  0
   -1.3910    0.7229   -0.6496 H   0  0  0  0  0  0  0  0  0  0  0  0
    0.1349   -1.4790    0.9673 H   0  0  0  0  0  0  0  0  0  0  0  0
    0.7429   -0.0612   -0.3831 H   0  0  0  0  0  0  0  0  0  0  0  0
   -0.6136   -1.1958   -0.8504 H   0  0  0  0  0  0  0  0  0  0  0  0
  1  2  1  0  0  0  0
  1  5  1  0  0  0  0
  2  6  1  0  0  0  0
  2  8  1  0  0  0  0
  3  1  1  0  0  0  0
  4  1  1  0  0  0  0
  6 10  1  0  0  0  0
  7  2  1  0  0  0  0
  9  6  1  0  0  0  0
  9 12  1  0  0  0  0
 11  6  1  0  0  0  0
 13  9  1  0  0  0  0
 14  9  1  0  0  0  0
M  END
$$$$
