butane_opt
 OpenBabel08242015383D

 14 13  0  0  0  0  0  0  0  0999 V2000
   -3.9586    0.2948    0.0778 C   0  0  0  0  0  0  0  0  0  0  0  0
   -2.7260   -0.6674   -0.0416 C   0  0  0  0  0  0  0  0  0  0  0  0
   -4.7439   -0.1698   -0.1107 H   0  0  0  0  0  0  0  0  0  0  0  0
   -4.1480    0.6794   -0.6598 H   0  0  0  0  0  0  0  0  0  0  0  0
   -4.0929    1.3099    1.1219 H   0  0  0  0  0  0  0  0  0  0  0  0
   -1.3712    0.1409   -0.0409 C   0  0  0  0  0  0  0  0  0  0  0  0
   -2.7966   -1.3755   -0.9426 H   0  0  0  0  0  0  0  0  0  0  0  0
   -2.5413   -1.2236    0.7748 H   0  0  0  0  0  0  0  0  0  0  0  0
   -0.1583   -0.6752    0.1215 C   0  0  0  0  0  0  0  0  0  0  0  0
   -1.4412    0.7513    0.6675 H   0  0  0  0  0  0  0  0  0  0  0  0
   -1.2322    0.8267   -1.0017 H   0  0  0  0  0  0  0  0  0  0  0  0
   -0.0141   -1.4073    1.1293 H   0  0  0  0  0  0  0  0  0  0  0  0
    0.8005    0.0146   -0.3553 H   0  0  0  0  0  0  0  0  0  0  0  0
   -0.2516   -0.9762   -0.5477 H   0  0  0  0  0  0  0  0  0  0  0  0
  1  5  1  0  0  0  0
  2  6  1  0  0  0  0
  2  1  1  0  0  0  0
  2  8  1  0  0  0  0
  3  1  1  0  0  0  0
  4  1  1  0  0  0  0
  6  9  1  0  0  0  0
  6 10  1  0  0  0  0
  7  2  1  0  0  0  0
  9 12  1  0  0  0  0
 11  6  1  0  0  0  0
 13  9  1  0  0  0  0
 14  9  1  0  0  0  0
M  END
$$$$
