14
butane_opt
C  -3.990152   0.292583   0.133581
C  -2.700712  -0.665102  -0.119437
H  -4.824564  -0.288660   0.424087
H  -4.393556   1.017175  -0.844235
H  -3.896862   0.838472   0.911404
C  -1.384036   0.180046  -0.088119
H  -2.762645  -1.357874  -1.045834
H  -2.482482  -1.188186   0.613840
C  -0.133460  -0.679315   0.144135
H  -1.377223   0.887043   0.750008
H  -1.314720   0.728762  -0.893068
H  -0.158437  -1.506397   1.169250
H   0.890314   0.071990   0.077806
H  -0.198829  -1.188209  -0.549712
