14
butane_opt
C  -3.926661   0.266179   0.096413
C  -2.696409  -0.595841  -0.014928
H  -4.772737  -0.360045   0.052294
H  -4.140026   0.903309  -0.778171
H  -3.879604   0.929176   0.933443
C  -1.387821   0.136558  -0.093835
H  -2.725260  -1.323162  -0.855222
H  -2.675854  -1.080575   0.820433
C  -0.167987  -0.693160   0.091304
H  -1.482117   0.901950   0.754926
H  -1.395047   0.776000  -0.957199
H  -0.486074  -1.274740   0.980070
H   0.767612  -0.040794   0.259845
H  -0.067020  -1.280538  -0.731412
