butane_opt
 OpenBabel08242015383D

 14 13  0  0  0  0  0  0  0  0999 V2000
   -3.9342    0.2277    0.1322 C   0  0  0  0  0  0  0  0  0  0  0  0
   -2.7325   -0.5870   -0.0370 C   0  0  0  0  0  0  0  0  0  0  0  0
   -4.8534   -0.4279    0.0674 H   0  0  0  0  0  0  0  0  0  0  0  0
   -3.9927    0.6890   -0.6033 H   0  0  0  0  0  0  0  0  0  0  0  0
   -3.9204    1.0152    1.0382 H   0  0  0  0  0  0  0  0  0  0  0  0
   -1.4241    0.2316   -0.1688 C   0  0  0  0  0  0  0  0  0  0  0  0
   -2.8663   -1.2800   -1.0104 H   0  0  0  0  0  0  0  0  0  0  0  0
   -2.5877   -1.1942    0.8262 H   0  0  0  0  0  0  0  0  0  0  0  0
   -0.1348   -0.7141    0.1444 C   0  0  0  0  0  0  0  0  0  0  0  0
   -1.5486    1.0053    0.7142 H   0  0  0  0  0  0  0  0  0  0  0  0
   -1.2397    0.9115   -1.1469 H   0  0  0  0  0  0  0  0  0  0  0  0
   -0.1464   -1.3759    0.9968 H   0  0  0  0  0  0  0  0  0  0  0  0
    0.6762   -0.3084    0.4392 H   0  0  0  0  0  0  0  0  0  0  0  0
    0.1782   -1.4408   -0.7159 H   0  0  0  0  0  0  0  0  0  0  0  0
  1  5  1  0  0  0  0
  2  1  1  0  0  0  0
  2  8  1  0  0  0  0
  3  1  1  0  0  0  0
  4  1  1  0  0  0  0
  6  2  1  0  0  0  0
  6  9  1  0  0  0  0
  6 10  1  0  0  0  0
  7  2  1  0  0  0  0
  9 13  1  0  0  0  0
  9 12  1  0  0  0  0
 11  6  1  0  0  0  0
 14  9  1  0  0  0  0
M  END
$$$$
