14
butane_opt
C  -3.974931   0.279986  -0.030792
C  -2.729702  -0.656271   0.053905
H  -4.802477  -0.159808   0.133932
H  -4.016492   0.978607  -1.022439
H  -3.970515   0.878993   0.805423
C  -1.366437   0.171002   0.118887
H  -2.522014  -1.413299  -0.819223
H  -2.777476  -1.178121   0.917183
C  -0.172091  -0.674925  -0.025524
H  -1.295033   0.927069   1.001881
H  -1.264961   0.868627  -0.867386
H   0.113765  -1.524716   0.949652
H   0.714019  -0.160729  -0.241372
H  -0.299176  -1.112228  -0.780833
