butane_opt
 OpenBabel08242015383D

 14 13  0  0  0  0  0  0  0  0999 V2000
   -3.9484    0.2402    0.0332 C   0  0  0  0  0  0  0  0  0  0  0  0
   -2.7364   -0.5805   -0.0231 C   0  0  0  0  0  0  0  0  0  0  0  0
   -4.9387   -0.3733    0.3309 H   0  0  0  0  0  0  0  0  0  0  0  0
   -4.1452    1.0549   -0.9993 H   0  0  0  0  0  0  0  0  0  0  0  0
   -3.6614    0.5471    0.7385 H   0  0  0  0  0  0  0  0  0  0  0  0
   -1.4384    0.2470    0.0241 C   0  0  0  0  0  0  0  0  0  0  0  0
   -2.7328   -1.2261   -0.8600 H   0  0  0  0  0  0  0  0  0  0  0  0
   -2.7670   -1.2458    0.8954 H   0  0  0  0  0  0  0  0  0  0  0  0
   -0.0994   -0.7477    0.0638 C   0  0  0  0  0  0  0  0  0  0  0  0
   -1.4623    0.9890    0.9095 H   0  0  0  0  0  0  0  0  0  0  0  0
   -1.3931    0.6310   -0.7873 H   0  0  0  0  0  0  0  0  0  0  0  0
    0.0530   -1.2873    0.8877 H   0  0  0  0  0  0  0  0  0  0  0  0
    0.8080   -0.1222   -0.0975 H   0  0  0  0  0  0  0  0  0  0  0  0
   -0.1133   -1.3318   -0.7934 H   0  0  0  0  0  0  0  0  0  0  0  0
  1  3  1  0  0  0  0
  1  5  1  0  0  0  0
  2  6  1  0  0  0  0
  2  1  1  0  0  0  0
  2  8  1  0  0  0  0
  4  1  1  0  0  0  0
  6  9  1  0  0  0  0
  6 10  1  0  0  0  0
  7  2  1  0  0  0  0
  9 12  1  0  0  0  0
 11  6  1  0  0  0  0
 13  9  1  0  0  0  0
 14  9  1  0  0  0  0
M  END
$$$$
