14
butane_opt
C  -3.910474   0.248926  -0.091113
C  -2.686620  -0.567936   0.120178
H  -5.012079  -0.444314  -0.110822
H  -3.914042   0.917501  -1.000176
H  -3.934391   0.807705   0.738020
C  -1.428908   0.169157   0.142652
H  -2.675217  -1.272451  -0.669835
H  -2.688537  -1.293730   1.133400
C  -0.168994  -0.681516  -0.048997
H  -1.445639   0.952224   1.030609
H  -1.479614   0.799890  -0.684088
H   0.159269  -1.422877   0.889227
H   0.693962  -0.134268  -0.360308
H  -0.378552  -1.428566  -1.029166
