14
butane_opt
C  -3.970656   0.231294  -0.056588
C  -2.753718  -0.592465   0.141541
H  -4.800539  -0.289206  -0.378041
H  -3.790760   0.745427  -0.879012
H  -4.138326   1.158686   0.972021
C  -1.379035   0.203465   0.066634
H  -2.686504  -1.264583  -0.675938
H  -2.829097  -1.192359   1.021425
C  -0.113498  -0.724567  -0.011023
H  -1.240403   0.812960   0.966854
H  -1.537079   0.954476  -0.892051
H   0.088560  -1.320870   0.823992
H   0.746475  -0.075302  -0.277932
H  -0.233471  -1.417443  -0.908656
