14
butane_opt
C  -3.928951   0.289206   0.031968
C  -2.655732  -0.646834   0.024295
H  -4.779157  -0.242547  -0.151606
H  -3.911016   0.770632  -0.781058
H  -4.087980   1.071658   0.934175
C  -1.394724   0.160848   0.020182
H  -2.794859  -1.532138  -0.955652
H  -2.550071  -1.250294   0.820216
C  -0.185846  -0.670438   0.049257
H  -1.531170   0.815430   0.865829
H  -1.425438   0.863597  -0.860092
H  -0.059943  -1.593763   1.060371
H   0.664868   0.000903  -0.299494
H  -0.563401  -0.952546  -0.656664
