14
butane_opt
C  -3.906665   0.241913  -0.065547
C  -2.683250  -0.599605   0.131581
H  -4.749159  -0.167936  -0.317787
H  -3.900329   0.570898  -0.771159
H  -4.057363   1.106428   0.913111
C  -1.433499   0.178327   0.078365
H  -2.641813  -1.137284  -0.640954
H  -2.684194  -1.329091   1.070334
C  -0.175368  -0.685115  -0.019953
H  -1.382913   0.821148   0.916622
H  -1.510430   0.779484  -0.901420
H  -0.153207  -1.304096   0.843194
H   0.737268  -0.095068  -0.211792
H  -0.298283  -1.343311  -0.938116
