butane_opt
 OpenBabel08242015383D

 14 13  0  0  0  0  0  0  0  0999 V2000
   -4.0042    0.2805   -0.0904 C   0  0  0  0  0  0  0  0  0  0  0  0
   -2.6904   -0.6618    0.1746 C   0  0  0  0  0  0  0  0  0  0  0  0
   -4.6809   -0.1946   -0.3171 H   0  0  0  0  0  0  0  0  0  0  0  0
   -3.8199    0.7402   -0.8815 H   0  0  0  0  0  0  0  0  0  0  0  0
   -4.2068    1.0653    0.8278 H   0  0  0  0  0  0  0  0  0  0  0  0
   -1.3746    0.1989    0.1232 C   0  0  0  0  0  0  0  0  0  0  0  0
   -2.6274   -1.2420   -0.6033 H   0  0  0  0  0  0  0  0  0  0  0  0
   -2.9350   -1.3451    1.1442 H   0  0  0  0  0  0  0  0  0  0  0  0
   -0.1491   -0.6869   -0.0757 C   0  0  0  0  0  0  0  0  0  0  0  0
   -1.3558    0.7386    0.9696 H   0  0  0  0  0  0  0  0  0  0  0  0
   -1.3428    0.9759   -0.8590 H   0  0  0  0  0  0  0  0  0  0  0  0
   -0.0812   -1.1714    0.7470 H   0  0  0  0  0  0  0  0  0  0  0  0
    0.8031   -0.0791   -0.1265 H   0  0  0  0  0  0  0  0  0  0  0  0
   -0.1864   -1.5080   -1.0507 H   0  0  0  0  0  0  0  0  0  0  0  0
  1  2  1  0  0  0  0
  1  5  1  0  0  0  0
  2  8  1  0  0  0  0
  3  1  1  0  0  0  0
  4  1  1  0  0  0  0
  6  2  1  0  0  0  0
  6 10  1  0  0  0  0
  7  2  1  0  0  0  0
  9  6  1  0  0  0  0
  9 12  1  0  0  0  0
 11  6  1  0  0  0  0
 13  9  1  0  0  0  0
 14  9  1  0  0  0  0
M  END
$$$$
