butane_opt
 OpenBabel08242015383D

 14 13  0  0  0  0  0  0  0  0999 V2000
   -3.9423    0.2670   -0.0840 C   0  0  0  0  0  0  0  0  0  0  0  0
   -2.6651   -0.5932    0.1236 C   0  0  0  0  0  0  0  0  0  0  0  0
   -4.9396   -0.3720   -0.1248 H   0  0  0  0  0  0  0  0  0  0  0  0
   -3.9328    1.0070   -1.1080 H   0  0  0  0  0  0  0  0  0  0  0  0
   -3.9465    0.7562    0.6841 H   0  0  0  0  0  0  0  0  0  0  0  0
   -1.4027    0.1560    0.1544 C   0  0  0  0  0  0  0  0  0  0  0  0
   -2.5221   -1.2506   -0.6785 H   0  0  0  0  0  0  0  0  0  0  0  0
   -2.7745   -1.3617    1.0744 H   0  0  0  0  0  0  0  0  0  0  0  0
   -0.2040   -0.6792   -0.0629 C   0  0  0  0  0  0  0  0  0  0  0  0
   -1.4317    1.0501    1.1958 H   0  0  0  0  0  0  0  0  0  0  0  0
   -1.4506    0.6664   -0.6222 H   0  0  0  0  0  0  0  0  0  0  0  0
    0.1852   -1.5042    0.9112 H   0  0  0  0  0  0  0  0  0  0  0  0
    0.7592    0.0243   -0.4789 H   0  0  0  0  0  0  0  0  0  0  0  0
   -0.4220   -1.2820   -1.0059 H   0  0  0  0  0  0  0  0  0  0  0  0
  1  2  1  0  0  0  0
  1  5  1  0  0  0  0
  2  6  1  0  0  0  0
  2  8  1  0  0  0  0
  3  1  1  0  0  0  0
  4  1  1  0  0  0  0
  6 10  1  0  0  0  0
  7  2  1  0  0  0  0
  9  6  1  0  0  0  0
  9 12  1  0  0  0  0
 11  6  1  0  0  0  0
 13  9  1  0  0  0  0
 14  9  1  0  0  0  0
M  END
$$$$
