butane_opt
 OpenBabel08242015383D

 14 13  0  0  0  0  0  0  0  0999 V2000
   -3.9381    0.2166   -0.0103 C   0  0  0  0  0  0  0  0  0  0  0  0
   -2.7029   -0.5838    0.0923 C   0  0  0  0  0  0  0  0  0  0  0  0
   -4.9164   -0.3314    0.1987 H   0  0  0  0  0  0  0  0  0  0  0  0
   -3.8854    0.9247   -1.0016 H   0  0  0  0  0  0  0  0  0  0  0  0
   -3.9677    0.8370    0.8477 H   0  0  0  0  0  0  0  0  0  0  0  0
   -1.4368    0.2362    0.0201 C   0  0  0  0  0  0  0  0  0  0  0  0
   -2.7595   -1.2551   -0.6997 H   0  0  0  0  0  0  0  0  0  0  0  0
   -2.6805   -1.2085    0.9555 H   0  0  0  0  0  0  0  0  0  0  0  0
   -0.1380   -0.7175   -0.0048 C   0  0  0  0  0  0  0  0  0  0  0  0
   -1.2580    0.7233    0.6989 H   0  0  0  0  0  0  0  0  0  0  0  0
   -1.4085    0.9699   -0.9703 H   0  0  0  0  0  0  0  0  0  0  0  0
   -0.2725   -0.9299    0.6868 H   0  0  0  0  0  0  0  0  0  0  0  0
    0.5741   -0.3212    0.5477 H   0  0  0  0  0  0  0  0  0  0  0  0
    0.1770   -1.7351   -1.0189 H   0  0  0  0  0  0  0  0  0  0  0  0
  1  2  1  0  0  0  0
  1  3  1  0  0  0  0
  1  5  1  0  0  0  0
  2  8  1  0  0  0  0
  4  1  1  0  0  0  0
  6  2  1  0  0  0  0
  6 10  1  0  0  0  0
  7  2  1  0  0  0  0
  9  6  1  0  0  0  0
  9 13  1  0  0  0  0
  9 12  1  0  0  0  0
 11  6  1  0  0  0  0
 14  9  1  0  0  0  0
M  END
$$$$
