butane_opt
 OpenBabel08242015383D

 14 13  0  0  0  0  0  0  0  0999 V2000
   -3.9480    0.2564    0.0746 C   0  0  0  0  0  0  0  0  0  0  0  0
   -2.7574   -0.5723   -0.0939 C   0  0  0  0  0  0  0  0  0  0  0  0
   -4.9186   -0.5320    0.2051 H   0  0  0  0  0  0  0  0  0  0  0  0
   -4.0531    0.7626   -0.7296 H   0  0  0  0  0  0  0  0  0  0  0  0
   -3.6872    0.8646    0.9062 H   0  0  0  0  0  0  0  0  0  0  0  0
   -1.4109    0.2406   -0.0095 C   0  0  0  0  0  0  0  0  0  0  0  0
   -2.8559   -1.2487   -0.9020 H   0  0  0  0  0  0  0  0  0  0  0  0
   -2.5894   -1.2127    0.8338 H   0  0  0  0  0  0  0  0  0  0  0  0
   -0.1217   -0.7438    0.0959 C   0  0  0  0  0  0  0  0  0  0  0  0
   -1.4796    0.8850    0.8343 H   0  0  0  0  0  0  0  0  0  0  0  0
   -1.2882    0.7666   -0.8584 H   0  0  0  0  0  0  0  0  0  0  0  0
    0.0322   -1.5998    1.1812 H   0  0  0  0  0  0  0  0  0  0  0  0
    0.7710   -0.1569   -0.3041 H   0  0  0  0  0  0  0  0  0  0  0  0
   -0.0975   -1.1628   -0.5356 H   0  0  0  0  0  0  0  0  0  0  0  0
  1  3  1  0  0  0  0
  1  5  1  0  0  0  0
  2  6  1  0  0  0  0
  2  1  1  0  0  0  0
  2  8  1  0  0  0  0
  4  1  1  0  0  0  0
  6  9  1  0  0  0  0
  6 10  1  0  0  0  0
  7  2  1  0  0  0  0
  9 12  1  0  0  0  0
 11  6  1  0  0  0  0
 13  9  1  0  0  0  0
 14  9  1  0  0  0  0
M  END
$$$$
