14
butane_opt
C  -3.930303   0.282861  -0.003635
C  -2.657249  -0.653332   0.099173
H  -4.761609  -0.250344  -0.035406
H  -3.871400   0.966349  -0.926038
H  -4.096971   0.858516   0.738664
C  -1.419979   0.176804   0.028975
H  -2.811050  -1.287831  -0.813553
H  -2.646574  -1.310545   1.041391
C  -0.185036  -0.669008  -0.007033
H  -1.419588   0.805632   0.840562
H  -1.383172   0.865194  -0.898007
H  -0.262679  -1.145342   0.771999
H   0.804879  -0.037269   0.327603
H  -0.271792  -1.582933  -1.040238
