butane_opt
 OpenBabel08242015383D

 14 13  0  0  0  0  0  0  0  0999 V2000
   -3.9886    0.2980    0.0716 C   0  0  0  0  0  0  0  0  0  0  0  0
   -2.6708   -0.6696   -0.0179 C   0  0  0  0  0  0  0  0  0  0  0  0
   -4.9137   -0.2368    0.0143 H   0  0  0  0  0  0  0  0  0  0  0  0
   -4.1945    0.8724   -0.6986 H   0  0  0  0  0  0  0  0  0  0  0  0
   -4.1065    1.1048    1.0309 H   0  0  0  0  0  0  0  0  0  0  0  0
   -1.3811    0.1534   -0.0840 C   0  0  0  0  0  0  0  0  0  0  0  0
   -2.7981   -1.2973   -0.8675 H   0  0  0  0  0  0  0  0  0  0  0  0
   -2.7197   -1.3641    0.9794 H   0  0  0  0  0  0  0  0  0  0  0  0
   -0.1278   -0.6607    0.1140 C   0  0  0  0  0  0  0  0  0  0  0  0
   -1.4058    0.7426    0.7548 H   0  0  0  0  0  0  0  0  0  0  0  0
   -1.3373    0.8478   -0.9865 H   0  0  0  0  0  0  0  0  0  0  0  0
   -0.3221   -1.1822    0.8920 H   0  0  0  0  0  0  0  0  0  0  0  0
    0.8802    0.0913    0.1446 H   0  0  0  0  0  0  0  0  0  0  0  0
   -0.0873   -1.4997   -0.8465 H   0  0  0  0  0  0  0  0  0  0  0  0
  1  5  1  0  0  0  0
  2  1  1  0  0  0  0
  2  8  1  0  0  0  0
  3  1  1  0  0  0  0
  4  1  1  0  0  0  0
  6  2  1  0  0  0  0
  6  9  1  0  0  0  0
  6 10  1  0  0  0  0
  7  2  1  0  0  0  0
  9 13  1  0  0  0  0
  9 12  1  0  0  0  0
 11  6  1  0  0  0  0
 14  9  1  0  0  0  0
M  END
$$$$
