butane_opt
 OpenBabel08242015383D

 14 13  0  0  0  0  0  0  0  0999 V2000
   -3.9409    0.2555   -0.0390 C   0  0  0  0  0  0  0  0  0  0  0  0
   -2.7422   -0.6343    0.0558 C   0  0  0  0  0  0  0  0  0  0  0  0
   -4.7923   -0.3595    0.2992 H   0  0  0  0  0  0  0  0  0  0  0  0
   -4.1419    1.1755   -1.1679 H   0  0  0  0  0  0  0  0  0  0  0  0
   -3.7893    0.5210    0.5691 H   0  0  0  0  0  0  0  0  0  0  0  0
   -1.4148    0.2515    0.1136 C   0  0  0  0  0  0  0  0  0  0  0  0
   -2.8316   -1.0643   -0.6658 H   0  0  0  0  0  0  0  0  0  0  0  0
   -2.7283   -1.3111    1.0310 H   0  0  0  0  0  0  0  0  0  0  0  0
   -0.1365   -0.7434   -0.0342 C   0  0  0  0  0  0  0  0  0  0  0  0
   -1.3866    1.0939    1.0415 H   0  0  0  0  0  0  0  0  0  0  0  0
   -1.3177    0.7354   -0.7217 H   0  0  0  0  0  0  0  0  0  0  0  0
    0.0280   -1.1273    0.7220 H   0  0  0  0  0  0  0  0  0  0  0  0
    0.7844   -0.1927    0.0508 H   0  0  0  0  0  0  0  0  0  0  0  0
   -0.0343   -1.4940   -0.9525 H   0  0  0  0  0  0  0  0  0  0  0  0
  1  2  1  0  0  0  0
  1  3  1  0  0  0  0
  1  5  1  0  0  0  0
  2  6  1  0  0  0  0
  2  8  1  0  0  0  0
  4  1  1  0  0  0  0
  6 10  1  0  0  0  0
  7  2  1  0  0  0  0
  9 13  1  0  0  0  0
  9  6  1  0  0  0  0
  9 12  1  0  0  0  0
 11  6  1  0  0  0  0
 14  9  1  0  0  0  0
M  END
$$$$
