butane_opt
 OpenBabel08242015383D

 14 13  0  0  0  0  0  0  0  0999 V2000
   -3.9423    0.2814    0.1492 C   0  0  0  0  0  0  0  0  0  0  0  0
   -2.7136   -0.6325   -0.0361 C   0  0  0  0  0  0  0  0  0  0  0  0
   -4.7786   -0.1987    0.0645 H   0  0  0  0  0  0  0  0  0  0  0  0
   -3.9769    0.9773   -0.7013 H   0  0  0  0  0  0  0  0  0  0  0  0
   -4.0019    1.0875    1.0229 H   0  0  0  0  0  0  0  0  0  0  0  0
   -1.3791    0.1173   -0.1471 C   0  0  0  0  0  0  0  0  0  0  0  0
   -2.8008   -1.4220   -0.9892 H   0  0  0  0  0  0  0  0  0  0  0  0
   -2.4857   -1.1645    0.7482 H   0  0  0  0  0  0  0  0  0  0  0  0
   -0.1754   -0.6681    0.1419 C   0  0  0  0  0  0  0  0  0  0  0  0
   -1.5817    0.5767    0.5949 H   0  0  0  0  0  0  0  0  0  0  0  0
   -1.1818    0.9059   -1.1886 H   0  0  0  0  0  0  0  0  0  0  0  0
   -0.6195   -0.9988    0.8539 H   0  0  0  0  0  0  0  0  0  0  0  0
    0.8050    0.0064    0.4879 H   0  0  0  0  0  0  0  0  0  0  0  0
    0.1134   -1.4093   -0.7881 H   0  0  0  0  0  0  0  0  0  0  0  0
  1  5  1  0  0  0  0
  2  1  1  0  0  0  0
  2  8  1  0  0  0  0
  3  1  1  0  0  0  0
  4  1  1  0  0  0  0
  6  2  1  0  0  0  0
  6  9  1  0  0  0  0
  6 10  1  0  0  0  0
  7  2  1  0  0  0  0
  9 13  1  0  0  0  0
  9 12  1  0  0  0  0
 11  6  1  0  0  0  0
 14  9  1  0  0  0  0
M  END
$$$$
