butane_opt
 OpenBabel08242015383D

 14 13  0  0  0  0  0  0  0  0999 V2000
   -3.9290    0.2892    0.0320 C   0  0  0  0  0  0  0  0  0  0  0  0
   -2.6557   -0.6468    0.0243 C   0  0  0  0  0  0  0  0  0  0  0  0
   -4.7792   -0.2425   -0.1516 H   0  0  0  0  0  0  0  0  0  0  0  0
   -3.9110    0.7706   -0.7811 H   0  0  0  0  0  0  0  0  0  0  0  0
   -4.0880    1.0717    0.9342 H   0  0  0  0  0  0  0  0  0  0  0  0
   -1.3947    0.1608    0.0202 C   0  0  0  0  0  0  0  0  0  0  0  0
   -2.7949   -1.5321   -0.9557 H   0  0  0  0  0  0  0  0  0  0  0  0
   -2.5501   -1.2503    0.8202 H   0  0  0  0  0  0  0  0  0  0  0  0
   -0.1858   -0.6704    0.0493 C   0  0  0  0  0  0  0  0  0  0  0  0
   -1.5312    0.8154    0.8658 H   0  0  0  0  0  0  0  0  0  0  0  0
   -1.4254    0.8636   -0.8601 H   0  0  0  0  0  0  0  0  0  0  0  0
   -0.0599   -1.5938    1.0604 H   0  0  0  0  0  0  0  0  0  0  0  0
    0.6649    0.0009   -0.2995 H   0  0  0  0  0  0  0  0  0  0  0  0
   -0.5634   -0.9525   -0.6567 H   0  0  0  0  0  0  0  0  0  0  0  0
  1  5  1  0  0  0  0
  2  1  1  0  0  0  0
  2  8  1  0  0  0  0
  3  1  1  0  0  0  0
  4  1  1  0  0  0  0
  6  2  1  0  0  0  0
  6  9  1  0  0  0  0
  6 10  1  0  0  0  0
  7  2  1  0  0  0  0
  9 12  1  0  0  0  0
 11  6  1  0  0  0  0
 13  9  1  0  0  0  0
 14  9  1  0  0  0  0
M  END
$$$$
