butane_opt
 OpenBabel08242015383D

 14 12  0  0  0  0  0  0  0  0999 V2000
   -3.9876    0.2861   -0.0545 C   0  0  0  0  0  0  0  0  0  0  0  0
   -2.7136   -0.6581    0.1016 C   0  0  0  0  0  0  0  0  0  0  0  0
   -4.7324   -0.1707    0.4508 H   0  0  0  0  0  0  0  0  0  0  0  0
   -4.1184    1.4668   -1.2977 H   0  0  0  0  0  0  0  0  0  0  0  0
   -3.9771    0.5890    0.5154 H   0  0  0  0  0  0  0  0  0  0  0  0
   -1.3661    0.1482    0.0979 C   0  0  0  0  0  0  0  0  0  0  0  0
   -2.6320   -1.3281   -0.8008 H   0  0  0  0  0  0  0  0  0  0  0  0
   -2.7130   -1.2986    1.0386 H   0  0  0  0  0  0  0  0  0  0  0  0
   -0.1482   -0.6648   -0.0497 C   0  0  0  0  0  0  0  0  0  0  0  0
   -1.3295    1.0104    1.0950 H   0  0  0  0  0  0  0  0  0  0  0  0
   -1.3480    0.4748   -0.5553 H   0  0  0  0  0  0  0  0  0  0  0  0
   -0.1638   -1.1425    0.7246 H   0  0  0  0  0  0  0  0  0  0  0  0
    0.7868    0.0320    0.1294 H   0  0  0  0  0  0  0  0  0  0  0  0
   -0.2226   -1.4101   -1.0581 H   0  0  0  0  0  0  0  0  0  0  0  0
  1  2  1  0  0  0  0
  1  3  1  0  0  0  0
  1  5  1  0  0  0  0
  2  8  1  0  0  0  0
  6  2  1  0  0  0  0
  6 10  1  0  0  0  0
  7  2  1  0  0  0  0
  9  6  1  0  0  0  0
  9 13  1  0  0  0  0
  9 12  1  0  0  0  0
 11  6  1  0  0  0  0
 14  9  1  0  0  0  0
M  RAD  2   1   2   4   2
M  END
$$$$
