14
butane_opt
C  -3.946508   0.247534   0.049625
C  -2.723947  -0.610868   0.037225
H  -4.896015  -0.433880  -0.246368
H  -3.887961   0.415361  -0.647016
H  -3.941300   1.181878   1.127240
C  -1.411213   0.246903  -0.058011
H  -2.768704  -1.323326  -0.826220
H  -2.720207  -1.233631   0.877947
C  -0.143355  -0.729280   0.078728
H  -1.546945   0.982607   0.763374
H  -1.399032   1.058859  -1.122733
H   0.004194  -1.420763   1.000776
H   0.671039  -0.242868  -0.061463
H   0.152624  -1.326994  -0.684911
