butane_opt
 OpenBabel08242015383D

 14 12  0  0  0  0  0  0  0  0999 V2000
   -3.8943    0.2647    0.0826 C   0  0  0  0  0  0  0  0  0  0  0  0
   -2.7172   -0.5702   -0.0276 C   0  0  0  0  0  0  0  0  0  0  0  0
   -5.0527   -0.5506    0.0255 H   0  0  0  0  0  0  0  0  0  0  0  0
   -3.7892    0.7239   -0.7079 H   0  0  0  0  0  0  0  0  0  0  0  0
   -3.9197    1.0125    0.9346 H   0  0  0  0  0  0  0  0  0  0  0  0
   -1.4128    0.1883   -0.0063 C   0  0  0  0  0  0  0  0  0  0  0  0
   -2.7376   -1.4788   -1.1231 H   0  0  0  0  0  0  0  0  0  0  0  0
   -2.6599   -1.0898    0.7234 H   0  0  0  0  0  0  0  0  0  0  0  0
   -0.1778   -0.7099    0.0714 C   0  0  0  0  0  0  0  0  0  0  0  0
   -1.5436    0.8666    0.7524 H   0  0  0  0  0  0  0  0  0  0  0  0
   -1.3656    0.9318   -0.9367 H   0  0  0  0  0  0  0  0  0  0  0  0
   -0.1185   -1.7994    1.2748 H   0  0  0  0  0  0  0  0  0  0  0  0
    0.7480   -0.0883   -0.3281 H   0  0  0  0  0  0  0  0  0  0  0  0
   -0.1483   -1.0991   -0.5646 H   0  0  0  0  0  0  0  0  0  0  0  0
  1  5  1  0  0  0  0
  2  6  1  0  0  0  0
  2  1  1  0  0  0  0
  2  8  1  0  0  0  0
  3  1  1  0  0  0  0
  4  1  1  0  0  0  0
  6  9  1  0  0  0  0
  6 10  1  0  0  0  0
  7  2  1  0  0  0  0
 11  6  1  0  0  0  0
 13  9  1  0  0  0  0
 14  9  1  0  0  0  0
M  RAD  2   9   2  12   2
M  END
$$$$
