butane_opt
 OpenBabel08242015383D

 14 12  0  0  0  0  0  0  0  0999 V2000
   -3.9139    0.2855   -0.0370 C   0  0  0  0  0  0  0  0  0  0  0  0
   -2.6604   -0.6405    0.0468 C   0  0  0  0  0  0  0  0  0  0  0  0
   -4.8477   -0.2569    0.6519 H   0  0  0  0  0  0  0  0  0  0  0  0
   -4.2246    1.2894   -1.1863 H   0  0  0  0  0  0  0  0  0  0  0  0
   -3.8614    0.6673    0.5458 H   0  0  0  0  0  0  0  0  0  0  0  0
   -1.3926    0.1446    0.0878 C   0  0  0  0  0  0  0  0  0  0  0  0
   -2.5104   -1.3677   -0.8094 H   0  0  0  0  0  0  0  0  0  0  0  0
   -2.7939   -1.2710    0.9672 H   0  0  0  0  0  0  0  0  0  0  0  0
   -0.2368   -0.6752   -0.0021 C   0  0  0  0  0  0  0  0  0  0  0  0
   -1.2842    0.9144    1.0630 H   0  0  0  0  0  0  0  0  0  0  0  0
   -1.2628    0.6991   -0.8013 H   0  0  0  0  0  0  0  0  0  0  0  0
   -0.1826   -1.0068    0.7340 H   0  0  0  0  0  0  0  0  0  0  0  0
    0.6989   -0.1033    0.0761 H   0  0  0  0  0  0  0  0  0  0  0  0
   -0.2947   -1.4033   -0.9768 H   0  0  0  0  0  0  0  0  0  0  0  0
  1  2  1  0  0  0  0
  1  5  1  0  0  0  0
  1  3  1  0  0  0  0
  2  6  1  0  0  0  0
  2  8  1  0  0  0  0
  6 10  1  0  0  0  0
  7  2  1  0  0  0  0
  9 13  1  0  0  0  0
  9  6  1  0  0  0  0
  9 12  1  0  0  0  0
 11  6  1  0  0  0  0
 14  9  1  0  0  0  0
M  RAD  2   1   2   4   2
M  END
$$$$
