butane_opt
 OpenBabel08242015383D

 14 13  0  0  0  0  0  0  0  0999 V2000
   -3.9430    0.3252    0.1288 C   0  0  0  0  0  0  0  0  0  0  0  0
   -2.6443   -0.6842   -0.1393 C   0  0  0  0  0  0  0  0  0  0  0  0
   -4.8393   -0.2261    0.3969 H   0  0  0  0  0  0  0  0  0  0  0  0
   -4.3181    0.9380   -0.7564 H   0  0  0  0  0  0  0  0  0  0  0  0
   -3.6460    0.7316    0.9332 H   0  0  0  0  0  0  0  0  0  0  0  0
   -1.4156    0.1512   -0.0564 C   0  0  0  0  0  0  0  0  0  0  0  0
   -2.8295   -1.3738   -0.9979 H   0  0  0  0  0  0  0  0  0  0  0  0
   -2.4814   -1.2516    0.6848 H   0  0  0  0  0  0  0  0  0  0  0  0
   -0.2175   -0.6497    0.1350 C   0  0  0  0  0  0  0  0  0  0  0  0
   -1.5081    0.7789    0.6732 H   0  0  0  0  0  0  0  0  0  0  0  0
   -1.2404    0.7862   -1.0038 H   0  0  0  0  0  0  0  0  0  0  0  0
   -0.2146   -1.3923    1.1781 H   0  0  0  0  0  0  0  0  0  0  0  0
    0.7265    0.0319    0.0974 H   0  0  0  0  0  0  0  0  0  0  0  0
   -0.0730   -1.1767   -0.6059 H   0  0  0  0  0  0  0  0  0  0  0  0
  1  3  1  0  0  0  0
  1  5  1  0  0  0  0
  2  6  1  0  0  0  0
  2  1  1  0  0  0  0
  2  8  1  0  0  0  0
  4  1  1  0  0  0  0
  6  9  1  0  0  0  0
  6 10  1  0  0  0  0
  7  2  1  0  0  0  0
  9 12  1  0  0  0  0
 11  6  1  0  0  0  0
 13  9  1  0  0  0  0
 14  9  1  0  0  0  0
M  END
$$$$
