butane_opt
 OpenBabel08242015383D

 14 13  0  0  0  0  0  0  0  0999 V2000
   -3.9237    0.2605   -0.0526 C   0  0  0  0  0  0  0  0  0  0  0  0
   -2.7007   -0.5852    0.1256 C   0  0  0  0  0  0  0  0  0  0  0  0
   -4.9470   -0.4543   -0.3077 H   0  0  0  0  0  0  0  0  0  0  0  0
   -3.7433    0.7772   -0.9044 H   0  0  0  0  0  0  0  0  0  0  0  0
   -4.0143    0.9146    0.8228 H   0  0  0  0  0  0  0  0  0  0  0  0
   -1.4040    0.2139    0.0957 C   0  0  0  0  0  0  0  0  0  0  0  0
   -2.6576   -1.2745   -0.7157 H   0  0  0  0  0  0  0  0  0  0  0  0
   -2.8009   -1.2331    1.0827 H   0  0  0  0  0  0  0  0  0  0  0  0
   -0.1690   -0.7195   -0.0696 C   0  0  0  0  0  0  0  0  0  0  0  0
   -1.2949    0.9539    1.0534 H   0  0  0  0  0  0  0  0  0  0  0  0
   -1.4429    0.7595   -0.6827 H   0  0  0  0  0  0  0  0  0  0  0  0
   -0.1243   -1.6146    1.0025 H   0  0  0  0  0  0  0  0  0  0  0  0
    0.6558   -0.0874   -0.2466 H   0  0  0  0  0  0  0  0  0  0  0  0
   -0.2645   -1.2722   -0.8437 H   0  0  0  0  0  0  0  0  0  0  0  0
  1  2  1  0  0  0  0
  1  5  1  0  0  0  0
  2  8  1  0  0  0  0
  3  1  1  0  0  0  0
  4  1  1  0  0  0  0
  6  2  1  0  0  0  0
  6 10  1  0  0  0  0
  7  2  1  0  0  0  0
  9  6  1  0  0  0  0
  9 12  1  0  0  0  0
 11  6  1  0  0  0  0
 13  9  1  0  0  0  0
 14  9  1  0  0  0  0
M  END
$$$$
