14
butane_opt
C  -3.916479   0.239803  -0.058737
C  -2.683096  -0.617917   0.114942
H  -4.771368  -0.284901  -0.265193
H  -3.679637   0.915942  -0.934296
H  -3.979946   0.833131   0.735169
C  -1.413545   0.216267   0.110345
H  -2.767547  -1.013789  -0.635321
H  -2.828748  -1.259906   1.063768
C  -0.190914  -0.729570  -0.058702
H  -1.282514   1.104112   1.112107
H  -1.591734   0.715907  -0.638094
H  -0.072750  -1.408107   0.857505
H   0.705830  -0.156309  -0.315624
H  -0.305375  -1.240438  -0.838817
