butane_opt
 OpenBabel08242015383D

 14 13  0  0  0  0  0  0  0  0999 V2000
   -3.9990    0.2940   -0.0595 C   0  0  0  0  0  0  0  0  0  0  0  0
   -2.6915   -0.6537    0.1338 C   0  0  0  0  0  0  0  0  0  0  0  0
   -4.8396   -0.1902   -0.2411 H   0  0  0  0  0  0  0  0  0  0  0  0
   -4.0393    0.7257   -0.8173 H   0  0  0  0  0  0  0  0  0  0  0  0
   -4.0884    1.2306    0.8671 H   0  0  0  0  0  0  0  0  0  0  0  0
   -1.3631    0.1538    0.0525 C   0  0  0  0  0  0  0  0  0  0  0  0
   -2.6408   -1.2611   -0.6204 H   0  0  0  0  0  0  0  0  0  0  0  0
   -2.8960   -1.4306    1.2097 H   0  0  0  0  0  0  0  0  0  0  0  0
   -0.1473   -0.6815   -0.0313 C   0  0  0  0  0  0  0  0  0  0  0  0
   -1.3777    0.8406    0.9320 H   0  0  0  0  0  0  0  0  0  0  0  0
   -1.3689    0.7439   -0.8410 H   0  0  0  0  0  0  0  0  0  0  0  0
   -0.1786   -1.1428    0.7592 H   0  0  0  0  0  0  0  0  0  0  0  0
    0.9220    0.0669   -0.0379 H   0  0  0  0  0  0  0  0  0  0  0  0
   -0.1324   -1.3805   -0.9183 H   0  0  0  0  0  0  0  0  0  0  0  0
  1  2  1  0  0  0  0
  1  5  1  0  0  0  0
  2  8  1  0  0  0  0
  3  1  1  0  0  0  0
  4  1  1  0  0  0  0
  6  2  1  0  0  0  0
  6 10  1  0  0  0  0
  7  2  1  0  0  0  0
  9  6  1  0  0  0  0
  9 12  1  0  0  0  0
 11  6  1  0  0  0  0
 13  9  1  0  0  0  0
 14  9  1  0  0  0  0
M  END
$$$$
