14
butane_opt
C  -3.923983   0.254768   0.009686
C  -2.699618  -0.609009   0.044531
H  -4.857143  -0.357575   0.066268
H  -3.953702   0.942388  -0.922416
H  -3.941170   0.893346   0.854635
C  -1.413280   0.201826   0.027259
H  -2.711084  -1.333298  -0.826151
H  -2.747930  -1.177144   0.903536
C  -0.165285  -0.708431   0.025455
H  -1.360747   0.883256   0.871554
H  -1.424442   0.802733  -0.840463
H  -0.167363  -1.341346   0.943830
H   0.753901  -0.129427  -0.076558
H  -0.174566  -1.327098  -0.819288
