14
butane_opt
C  -3.950140   0.239975  -0.057384
C  -2.760298  -0.578420   0.139224
H  -4.846681  -0.286583   0.158792
H  -3.870844   1.131195  -1.160367
H  -4.099412   0.598457   0.624937
C  -1.404333   0.217266   0.068014
H  -2.751131  -1.202977  -0.559699
H  -2.775333  -1.296511   1.118644
C  -0.090084  -0.716593  -0.061309
H  -1.382135   0.944938   0.987891
H  -1.356222   0.637217  -0.665572
H  -0.231415  -1.039804   0.654482
H   0.761631  -0.147346   0.322425
H  -0.003513  -1.758860  -1.179615
