14
butane_opt
C  -3.937673   0.256082   0.000631
C  -2.712536  -0.611909   0.050639
H  -4.881758  -0.333539   0.173863
H  -3.960853   1.011399  -1.010553
H  -3.910023   0.809272   0.781737
C  -1.406726   0.207767   0.046361
H  -2.729860  -1.328855  -0.833438
H  -2.703133  -1.238393   0.933181
C  -0.156476  -0.704812   0.008262
H  -1.377704   0.877799   0.898106
H  -1.414629   0.801745  -0.850582
H  -0.115520  -1.280928   0.889981
H   0.733432  -0.129142   0.046977
H  -0.101806  -1.423083  -0.875663
