14
butane_opt
C  -3.935777   0.232451   0.082170
C  -2.713020  -0.555541  -0.041575
H  -5.007170  -0.522726  -0.071641
H  -3.906146   0.677899  -0.754538
H  -3.765870   1.077686   1.064316
C  -1.429314   0.226437  -0.020372
H  -2.681852  -1.384672  -0.993019
H  -2.680462  -1.204271   0.760401
C  -0.124475  -0.718891   0.055457
H  -1.542317   0.919592   0.839707
H  -1.441587   0.747781  -0.828713
H  -0.134633  -1.889634   1.350737
H   0.680279  -0.148806  -0.309221
H  -0.095929  -0.960189  -0.469596
