butane_opt
 OpenBabel08242015383D

 14 13  0  0  0  0  0  0  0  0999 V2000
   -3.9324    0.2952    0.0911 C   0  0  0  0  0  0  0  0  0  0  0  0
   -2.6876   -0.6490   -0.0103 C   0  0  0  0  0  0  0  0  0  0  0  0
   -4.7806   -0.3530    0.2203 H   0  0  0  0  0  0  0  0  0  0  0  0
   -3.9702    0.9676   -0.8450 H   0  0  0  0  0  0  0  0  0  0  0  0
   -3.8402    1.0606    1.0058 H   0  0  0  0  0  0  0  0  0  0  0  0
   -1.3924    0.1326   -0.1266 C   0  0  0  0  0  0  0  0  0  0  0  0
   -2.8187   -1.3231   -0.8151 H   0  0  0  0  0  0  0  0  0  0  0  0
   -2.5851   -1.1735    0.8387 H   0  0  0  0  0  0  0  0  0  0  0  0
   -0.1842   -0.6729    0.1038 C   0  0  0  0  0  0  0  0  0  0  0  0
   -1.6119    0.8509    0.6997 H   0  0  0  0  0  0  0  0  0  0  0  0
   -1.3539    0.7432   -0.9419 H   0  0  0  0  0  0  0  0  0  0  0  0
   -0.5874   -1.0428    0.9332 H   0  0  0  0  0  0  0  0  0  0  0  0
    0.8421    0.0340    0.3857 H   0  0  0  0  0  0  0  0  0  0  0  0
    0.0260   -1.4921   -0.7791 H   0  0  0  0  0  0  0  0  0  0  0  0
  1  3  1  0  0  0  0
  1  5  1  0  0  0  0
  2  1  1  0  0  0  0
  2  8  1  0  0  0  0
  4  1  1  0  0  0  0
  6  2  1  0  0  0  0
  6  9  1  0  0  0  0
  6 10  1  0  0  0  0
  7  2  1  0  0  0  0
  9 13  1  0  0  0  0
  9 12  1  0  0  0  0
 11  6  1  0  0  0  0
 14  9  1  0  0  0  0
M  END
$$$$
