butane_opt
 OpenBabel08242015383D

 14 12  0  0  0  0  0  0  0  0999 V2000
   -3.9397    0.2967    0.0997 C   0  0  0  0  0  0  0  0  0  0  0  0
   -2.6767   -0.6694   -0.0429 C   0  0  0  0  0  0  0  0  0  0  0  0
   -4.8168   -0.3086   -0.2896 H   0  0  0  0  0  0  0  0  0  0  0  0
   -3.8872    0.6054   -0.6028 H   0  0  0  0  0  0  0  0  0  0  0  0
   -4.0578    1.4047    1.1785 H   0  0  0  0  0  0  0  0  0  0  0  0
   -1.3654    0.1440   -0.0621 C   0  0  0  0  0  0  0  0  0  0  0  0
   -2.7791   -1.3452   -0.8814 H   0  0  0  0  0  0  0  0  0  0  0  0
   -2.5231   -1.2267    0.8526 H   0  0  0  0  0  0  0  0  0  0  0  0
   -0.2158   -0.6525    0.1168 C   0  0  0  0  0  0  0  0  0  0  0  0
   -1.4404    0.7126    0.6589 H   0  0  0  0  0  0  0  0  0  0  0  0
   -1.2734    1.0731   -1.1221 H   0  0  0  0  0  0  0  0  0  0  0  0
   -0.2259   -1.4976    1.1670 H   0  0  0  0  0  0  0  0  0  0  0  0
    0.6930   -0.1048   -0.1537 H   0  0  0  0  0  0  0  0  0  0  0  0
   -0.3362   -1.2313   -0.6662 H   0  0  0  0  0  0  0  0  0  0  0  0
  2  1  1  0  0  0  0
  2  8  1  0  0  0  0
  3  1  1  0  0  0  0
  4  1  1  0  0  0  0
  6  2  1  0  0  0  0
  6  9  1  0  0  0  0
  6 10  1  0  0  0  0
  7  2  1  0  0  0  0
  9 12  1  0  0  0  0
 11  6  1  0  0  0  0
 13  9  1  0  0  0  0
 14  9  1  0  0  0  0
M  RAD  2   1   2   5   2
M  END
$$$$
