butane_opt
 OpenBabel08242015383D

 14 13  0  0  0  0  0  0  0  0999 V2000
   -3.9242    0.2330    0.1374 C   0  0  0  0  0  0  0  0  0  0  0  0
   -2.7127   -0.5362   -0.0514 C   0  0  0  0  0  0  0  0  0  0  0  0
   -4.9209   -0.4344    0.0119 H   0  0  0  0  0  0  0  0  0  0  0  0
   -3.9022    0.8363   -0.8092 H   0  0  0  0  0  0  0  0  0  0  0  0
   -3.8020    0.8509    0.9693 H   0  0  0  0  0  0  0  0  0  0  0  0
   -1.4206    0.1930   -0.1199 C   0  0  0  0  0  0  0  0  0  0  0  0
   -2.7804   -1.2533   -0.9210 H   0  0  0  0  0  0  0  0  0  0  0  0
   -2.6440   -1.2076    0.9400 H   0  0  0  0  0  0  0  0  0  0  0  0
   -0.1874   -0.7169    0.1112 C   0  0  0  0  0  0  0  0  0  0  0  0
   -1.4222    0.8754    0.7299 H   0  0  0  0  0  0  0  0  0  0  0  0
   -1.2183    0.8289   -1.0382 H   0  0  0  0  0  0  0  0  0  0  0  0
   -0.3047   -1.3257    1.0214 H   0  0  0  0  0  0  0  0  0  0  0  0
    0.7829   -0.1240    0.3543 H   0  0  0  0  0  0  0  0  0  0  0  0
    0.1325   -1.6035   -0.7789 H   0  0  0  0  0  0  0  0  0  0  0  0
  1  5  1  0  0  0  0
  2  1  1  0  0  0  0
  2  8  1  0  0  0  0
  3  1  1  0  0  0  0
  4  1  1  0  0  0  0
  6  2  1  0  0  0  0
  6  9  1  0  0  0  0
  6 10  1  0  0  0  0
  7  2  1  0  0  0  0
  9 13  1  0  0  0  0
  9 12  1  0  0  0  0
 11  6  1  0  0  0  0
 14  9  1  0  0  0  0
M  END
$$$$
