butane_opt
 OpenBabel08242015383D

 14 13  0  0  0  0  0  0  0  0999 V2000
   -3.9465    0.2475    0.0496 C   0  0  0  0  0  0  0  0  0  0  0  0
   -2.7239   -0.6109    0.0372 C   0  0  0  0  0  0  0  0  0  0  0  0
   -4.8960   -0.4339   -0.2464 H   0  0  0  0  0  0  0  0  0  0  0  0
   -3.8880    0.4154   -0.6470 H   0  0  0  0  0  0  0  0  0  0  0  0
   -3.9413    1.1819    1.1272 H   0  0  0  0  0  0  0  0  0  0  0  0
   -1.4112    0.2469   -0.0580 C   0  0  0  0  0  0  0  0  0  0  0  0
   -2.7687   -1.3233   -0.8262 H   0  0  0  0  0  0  0  0  0  0  0  0
   -2.7202   -1.2336    0.8779 H   0  0  0  0  0  0  0  0  0  0  0  0
   -0.1434   -0.7293    0.0787 C   0  0  0  0  0  0  0  0  0  0  0  0
   -1.5469    0.9826    0.7634 H   0  0  0  0  0  0  0  0  0  0  0  0
   -1.3990    1.0589   -1.1227 H   0  0  0  0  0  0  0  0  0  0  0  0
    0.0042   -1.4208    1.0008 H   0  0  0  0  0  0  0  0  0  0  0  0
    0.6710   -0.2429   -0.0615 H   0  0  0  0  0  0  0  0  0  0  0  0
    0.1526   -1.3270   -0.6849 H   0  0  0  0  0  0  0  0  0  0  0  0
  1  5  1  0  0  0  0
  2  1  1  0  0  0  0
  2  8  1  0  0  0  0
  3  1  1  0  0  0  0
  4  1  1  0  0  0  0
  6  2  1  0  0  0  0
  6  9  1  0  0  0  0
  6 10  1  0  0  0  0
  7  2  1  0  0  0  0
  9 12  1  0  0  0  0
 11  6  1  0  0  0  0
 13  9  1  0  0  0  0
 14  9  1  0  0  0  0
M  END
$$$$
