butane_opt
 OpenBabel08242015383D

 14 13  0  0  0  0  0  0  0  0999 V2000
   -3.9505    0.2955   -0.0520 C   0  0  0  0  0  0  0  0  0  0  0  0
   -2.6719   -0.6535    0.0689 C   0  0  0  0  0  0  0  0  0  0  0  0
   -4.8173   -0.3402    0.1162 H   0  0  0  0  0  0  0  0  0  0  0  0
   -3.8801    0.9597   -1.0160 H   0  0  0  0  0  0  0  0  0  0  0  0
   -4.0287    0.8709    0.6575 H   0  0  0  0  0  0  0  0  0  0  0  0
   -1.3945    0.1589    0.1455 C   0  0  0  0  0  0  0  0  0  0  0  0
   -2.6511   -1.2580   -0.6775 H   0  0  0  0  0  0  0  0  0  0  0  0
   -2.8264   -1.1874    0.9512 H   0  0  0  0  0  0  0  0  0  0  0  0
   -0.2112   -0.6730   -0.0331 C   0  0  0  0  0  0  0  0  0  0  0  0
   -1.3735    0.8666    1.0331 H   0  0  0  0  0  0  0  0  0  0  0  0
   -1.3021    0.7733   -0.7880 H   0  0  0  0  0  0  0  0  0  0  0  0
    0.1710   -1.3754    0.8703 H   0  0  0  0  0  0  0  0  0  0  0  0
    0.7040   -0.0850   -0.3980 H   0  0  0  0  0  0  0  0  0  0  0  0
   -0.3156   -1.2152   -0.8534 H   0  0  0  0  0  0  0  0  0  0  0  0
  1  2  1  0  0  0  0
  1  3  1  0  0  0  0
  1  5  1  0  0  0  0
  2  6  1  0  0  0  0
  2  8  1  0  0  0  0
  4  1  1  0  0  0  0
  6 10  1  0  0  0  0
  7  2  1  0  0  0  0
  9  6  1  0  0  0  0
  9 12  1  0  0  0  0
 11  6  1  0  0  0  0
 13  9  1  0  0  0  0
 14  9  1  0  0  0  0
M  END
$$$$
