14
butane_opt
C  -3.938148   0.248699   0.024736
C  -2.699722  -0.606685   0.050294
H  -4.862690  -0.336833  -0.123603
H  -3.904908   0.755047  -0.798934
H  -4.024609   1.048558   0.954318
C  -1.417837   0.207820  -0.004191
H  -2.733422  -1.341341  -0.810557
H  -2.716431  -1.225405   0.926821
C  -0.146541  -0.708981   0.035883
H  -1.381525   0.859673   0.820659
H  -1.401425   0.879293  -0.935804
H  -0.183249  -1.360625   0.941369
H   0.724269  -0.136790  -0.021491
H  -0.098553  -1.313024  -0.780017
