butane_opt
 OpenBabel08242015383D

 14 13  0  0  0  0  0  0  0  0999 V2000
   -3.9067    0.2419   -0.0655 C   0  0  0  0  0  0  0  0  0  0  0  0
   -2.6833   -0.5996    0.1316 C   0  0  0  0  0  0  0  0  0  0  0  0
   -4.7492   -0.1679   -0.3178 H   0  0  0  0  0  0  0  0  0  0  0  0
   -3.9003    0.5709   -0.7712 H   0  0  0  0  0  0  0  0  0  0  0  0
   -4.0574    1.1064    0.9131 H   0  0  0  0  0  0  0  0  0  0  0  0
   -1.4335    0.1783    0.0784 C   0  0  0  0  0  0  0  0  0  0  0  0
   -2.6418   -1.1373   -0.6410 H   0  0  0  0  0  0  0  0  0  0  0  0
   -2.6842   -1.3291    1.0703 H   0  0  0  0  0  0  0  0  0  0  0  0
   -0.1754   -0.6851   -0.0200 C   0  0  0  0  0  0  0  0  0  0  0  0
   -1.3829    0.8211    0.9166 H   0  0  0  0  0  0  0  0  0  0  0  0
   -1.5104    0.7795   -0.9014 H   0  0  0  0  0  0  0  0  0  0  0  0
   -0.1532   -1.3041    0.8432 H   0  0  0  0  0  0  0  0  0  0  0  0
    0.7373   -0.0951   -0.2118 H   0  0  0  0  0  0  0  0  0  0  0  0
   -0.2983   -1.3433   -0.9381 H   0  0  0  0  0  0  0  0  0  0  0  0
  1  2  1  0  0  0  0
  1  5  1  0  0  0  0
  2  8  1  0  0  0  0
  3  1  1  0  0  0  0
  4  1  1  0  0  0  0
  6  2  1  0  0  0  0
  6 10  1  0  0  0  0
  7  2  1  0  0  0  0
  9  6  1  0  0  0  0
  9 12  1  0  0  0  0
 11  6  1  0  0  0  0
 13  9  1  0  0  0  0
 14  9  1  0  0  0  0
M  END
$$$$
