butane_opt
 OpenBabel08242015383D

 14 13  0  0  0  0  0  0  0  0999 V2000
   -4.0253    0.2876   -0.1040 C   0  0  0  0  0  0  0  0  0  0  0  0
   -2.6736   -0.6619    0.1612 C   0  0  0  0  0  0  0  0  0  0  0  0
   -4.8121   -0.2029   -0.2661 H   0  0  0  0  0  0  0  0  0  0  0  0
   -3.9114    0.8071   -0.8933 H   0  0  0  0  0  0  0  0  0  0  0  0
   -4.1775    1.1108    0.7940 H   0  0  0  0  0  0  0  0  0  0  0  0
   -1.3788    0.1813    0.1325 C   0  0  0  0  0  0  0  0  0  0  0  0
   -2.5306   -1.2489   -0.5675 H   0  0  0  0  0  0  0  0  0  0  0  0
   -2.7707   -1.4343    1.1535 H   0  0  0  0  0  0  0  0  0  0  0  0
   -0.1517   -0.6616   -0.0779 C   0  0  0  0  0  0  0  0  0  0  0  0
   -1.2692    0.8541    0.9428 H   0  0  0  0  0  0  0  0  0  0  0  0
   -1.2482    0.6144   -0.6499 H   0  0  0  0  0  0  0  0  0  0  0  0
   -0.0072   -1.2464    0.8194 H   0  0  0  0  0  0  0  0  0  0  0  0
    0.7800   -0.1179   -0.3566 H   0  0  0  0  0  0  0  0  0  0  0  0
   -0.3279   -1.3280   -0.8811 H   0  0  0  0  0  0  0  0  0  0  0  0
  1  2  1  0  0  0  0
  1  5  1  0  0  0  0
  2  8  1  0  0  0  0
  3  1  1  0  0  0  0
  4  1  1  0  0  0  0
  6  2  1  0  0  0  0
  6 10  1  0  0  0  0
  7  2  1  0  0  0  0
  9  6  1  0  0  0  0
  9 12  1  0  0  0  0
 11  6  1  0  0  0  0
 13  9  1  0  0  0  0
 14  9  1  0  0  0  0
M  END
$$$$
