14
butane_opt
C  -3.928865   0.262895  -0.063274
C  -2.735963  -0.599632   0.121570
H  -4.916165  -0.495891  -0.135516
H  -3.863963   0.773088  -0.979258
H  -4.018106   0.958762   0.757597
C  -1.398983   0.213184   0.094644
H  -2.576142  -1.198967  -0.645765
H  -2.910675  -1.212670   1.030589
C  -0.130890  -0.720888  -0.061167
H  -1.334413   1.071900   1.153127
H  -1.624969   0.668456  -0.697053
H   0.086632  -1.593235   0.970353
H   0.800248  -0.095855  -0.256358
H  -0.328116  -1.214757  -0.806718
