butane_opt
 OpenBabel08242015383D

 14 13  0  0  0  0  0  0  0  0999 V2000
   -3.9261    0.2379    0.1066 C   0  0  0  0  0  0  0  0  0  0  0  0
   -2.7592   -0.6047   -0.1039 C   0  0  0  0  0  0  0  0  0  0  0  0
   -4.7734   -0.3611    0.4129 H   0  0  0  0  0  0  0  0  0  0  0  0
   -4.1829    0.9221   -0.8203 H   0  0  0  0  0  0  0  0  0  0  0  0
   -3.7805    0.6983    0.8546 H   0  0  0  0  0  0  0  0  0  0  0  0
   -1.4361    0.2589   -0.0415 C   0  0  0  0  0  0  0  0  0  0  0  0
   -2.7362   -1.2723   -1.0084 H   0  0  0  0  0  0  0  0  0  0  0  0
   -2.6814   -1.1955    0.7280 H   0  0  0  0  0  0  0  0  0  0  0  0
   -0.0916   -0.7211    0.1306 C   0  0  0  0  0  0  0  0  0  0  0  0
   -1.5160    0.8639    0.7822 H   0  0  0  0  0  0  0  0  0  0  0  0
   -1.3590    0.8887   -0.9490 H   0  0  0  0  0  0  0  0  0  0  0  0
   -0.0006   -1.5200    1.0418 H   0  0  0  0  0  0  0  0  0  0  0  0
    0.7196   -0.1955    0.0163 H   0  0  0  0  0  0  0  0  0  0  0  0
   -0.1468   -1.3489   -0.7096 H   0  0  0  0  0  0  0  0  0  0  0  0
  1  3  1  0  0  0  0
  1  5  1  0  0  0  0
  2  6  1  0  0  0  0
  2  1  1  0  0  0  0
  2  8  1  0  0  0  0
  4  1  1  0  0  0  0
  6  9  1  0  0  0  0
  6 10  1  0  0  0  0
  7  2  1  0  0  0  0
  9 12  1  0  0  0  0
 11  6  1  0  0  0  0
 13  9  1  0  0  0  0
 14  9  1  0  0  0  0
M  END
$$$$
