14
butane_opt
C  -3.969151   0.286036  -0.050803
C  -2.728877  -0.639458   0.132118
H  -4.851458  -0.240478   0.058372
H  -4.018870   1.160286  -1.060637
H  -3.996484   0.867751   0.717632
C  -1.369901   0.122307   0.062737
H  -2.781050  -1.200827  -0.690626
H  -2.715916  -1.324609   1.002959
C  -0.128015  -0.656335  -0.009065
H  -1.393918   0.838272   0.984650
H  -1.349941   0.805664  -0.907987
H  -0.145974  -0.989964   0.652723
H   0.807453  -0.046230   0.192650
H  -0.247014  -1.692124  -1.189732
