14
butane_opt
C  -3.913856   0.285549  -0.037049
C  -2.660406  -0.640529   0.046773
H  -4.847688  -0.256876   0.651891
H  -4.224633   1.289355  -1.186292
H  -3.861359   0.667268   0.545767
C  -1.392616   0.144615   0.087767
H  -2.510441  -1.367671  -0.809351
H  -2.793913  -1.271002   0.967210
C  -0.236769  -0.675164  -0.002139
H  -1.284157   0.914396   1.063015
H  -1.262833   0.699080  -0.801277
H  -0.182566  -1.006782   0.734033
H   0.698868  -0.103306   0.076065
H  -0.294709  -1.403264  -0.976761
