butane_opt
 OpenBabel08242015383D

 14 13  0  0  0  0  0  0  0  0999 V2000
   -3.8704    0.2304   -0.0289 C   0  0  0  0  0  0  0  0  0  0  0  0
   -2.7386   -0.5741    0.1060 C   0  0  0  0  0  0  0  0  0  0  0  0
   -4.7430   -0.2323    0.0918 H   0  0  0  0  0  0  0  0  0  0  0  0
   -3.8706    1.0489   -1.0844 H   0  0  0  0  0  0  0  0  0  0  0  0
   -3.8278    0.5739    0.6470 H   0  0  0  0  0  0  0  0  0  0  0  0
   -1.4342    0.2082    0.0652 C   0  0  0  0  0  0  0  0  0  0  0  0
   -2.6913   -1.2124   -0.7247 H   0  0  0  0  0  0  0  0  0  0  0  0
   -2.7687   -1.2303    1.0664 H   0  0  0  0  0  0  0  0  0  0  0  0
   -0.1809   -0.7116   -0.0355 C   0  0  0  0  0  0  0  0  0  0  0  0
   -1.2810    0.8532    0.9581 H   0  0  0  0  0  0  0  0  0  0  0  0
   -1.6376    0.8498   -0.7907 H   0  0  0  0  0  0  0  0  0  0  0  0
   -0.2505   -1.0849    0.7398 H   0  0  0  0  0  0  0  0  0  0  0  0
    0.6811   -0.1589    0.2838 H   0  0  0  0  0  0  0  0  0  0  0  0
    0.0415   -1.7183   -1.0859 H   0  0  0  0  0  0  0  0  0  0  0  0
  1  3  1  0  0  0  0
  1  2  1  0  0  0  0
  1  5  1  0  0  0  0
  2  8  1  0  0  0  0
  4  1  1  0  0  0  0
  6  2  1  0  0  0  0
  6 10  1  0  0  0  0
  7  2  1  0  0  0  0
  9  6  1  0  0  0  0
  9 13  1  0  0  0  0
  9 12  1  0  0  0  0
 11  6  1  0  0  0  0
 14  9  1  0  0  0  0
M  END
$$$$
