butane_opt
 OpenBabel08242015383D

 14 13  0  0  0  0  0  0  0  0999 V2000
   -3.9580    0.3020    0.0448 C   0  0  0  0  0  0  0  0  0  0  0  0
   -2.7131   -0.6498    0.0204 C   0  0  0  0  0  0  0  0  0  0  0  0
   -4.7603   -0.2160   -0.1753 H   0  0  0  0  0  0  0  0  0  0  0  0
   -4.0148    0.6472   -0.7340 H   0  0  0  0  0  0  0  0  0  0  0  0
   -4.0743    1.1578    1.0442 H   0  0  0  0  0  0  0  0  0  0  0  0
   -1.3899    0.1585   -0.0362 C   0  0  0  0  0  0  0  0  0  0  0  0
   -2.8548   -1.3214   -0.8079 H   0  0  0  0  0  0  0  0  0  0  0  0
   -2.6347   -1.3068    0.9427 H   0  0  0  0  0  0  0  0  0  0  0  0
   -0.1420   -0.6643    0.0410 C   0  0  0  0  0  0  0  0  0  0  0  0
   -1.2404    0.7751    0.7462 H   0  0  0  0  0  0  0  0  0  0  0  0
   -1.3314    0.7101   -0.8206 H   0  0  0  0  0  0  0  0  0  0  0  0
   -0.3580   -1.3503    1.1015 H   0  0  0  0  0  0  0  0  0  0  0  0
    0.6908   -0.1696   -0.0181 H   0  0  0  0  0  0  0  0  0  0  0  0
   -0.0066   -1.1487   -0.6666 H   0  0  0  0  0  0  0  0  0  0  0  0
  1  5  1  0  0  0  0
  2  1  1  0  0  0  0
  2  8  1  0  0  0  0
  3  1  1  0  0  0  0
  4  1  1  0  0  0  0
  6  2  1  0  0  0  0
  6  9  1  0  0  0  0
  6 10  1  0  0  0  0
  7  2  1  0  0  0  0
  9 12  1  0  0  0  0
 11  6  1  0  0  0  0
 13  9  1  0  0  0  0
 14  9  1  0  0  0  0
M  END
$$$$
