butane_opt
 OpenBabel08242015383D

 14 13  0  0  0  0  0  0  0  0999 V2000
   -3.9417    0.2547   -0.0012 C   0  0  0  0  0  0  0  0  0  0  0  0
   -2.7202   -0.5943    0.0509 C   0  0  0  0  0  0  0  0  0  0  0  0
   -4.8680   -0.3227    0.1153 H   0  0  0  0  0  0  0  0  0  0  0  0
   -3.9673    0.9675   -0.9536 H   0  0  0  0  0  0  0  0  0  0  0  0
   -3.9268    0.8356    0.7989 H   0  0  0  0  0  0  0  0  0  0  0  0
   -1.4032    0.1886    0.0302 C   0  0  0  0  0  0  0  0  0  0  0  0
   -2.7044   -1.2806   -0.7863 H   0  0  0  0  0  0  0  0  0  0  0  0
   -2.7504   -1.3023    0.9893 H   0  0  0  0  0  0  0  0  0  0  0  0
   -0.1467   -0.7034    0.0159 C   0  0  0  0  0  0  0  0  0  0  0  0
   -1.3985    0.9468    0.9174 H   0  0  0  0  0  0  0  0  0  0  0  0
   -1.3877    0.7356   -0.8173 H   0  0  0  0  0  0  0  0  0  0  0  0
   -0.0834   -1.2656    0.8706 H   0  0  0  0  0  0  0  0  0  0  0  0
    0.7549   -0.1179    0.0160 H   0  0  0  0  0  0  0  0  0  0  0  0
   -0.1486   -1.4116   -0.8742 H   0  0  0  0  0  0  0  0  0  0  0  0
  1  2  1  0  0  0  0
  1  3  1  0  0  0  0
  1  5  1  0  0  0  0
  2  8  1  0  0  0  0
  4  1  1  0  0  0  0
  6  2  1  0  0  0  0
  6 10  1  0  0  0  0
  7  2  1  0  0  0  0
  9 13  1  0  0  0  0
  9  6  1  0  0  0  0
  9 12  1  0  0  0  0
 11  6  1  0  0  0  0
 14  9  1  0  0  0  0
M  END
$$$$
