butane_opt
 OpenBabel08242015383D

 14 13  0  0  0  0  0  0  0  0999 V2000
   -3.9165    0.2398   -0.0587 C   0  0  0  0  0  0  0  0  0  0  0  0
   -2.6831   -0.6179    0.1149 C   0  0  0  0  0  0  0  0  0  0  0  0
   -4.7714   -0.2849   -0.2652 H   0  0  0  0  0  0  0  0  0  0  0  0
   -3.6796    0.9159   -0.9343 H   0  0  0  0  0  0  0  0  0  0  0  0
   -3.9799    0.8331    0.7352 H   0  0  0  0  0  0  0  0  0  0  0  0
   -1.4135    0.2163    0.1103 C   0  0  0  0  0  0  0  0  0  0  0  0
   -2.7675   -1.0138   -0.6353 H   0  0  0  0  0  0  0  0  0  0  0  0
   -2.8287   -1.2599    1.0638 H   0  0  0  0  0  0  0  0  0  0  0  0
   -0.1909   -0.7296   -0.0587 C   0  0  0  0  0  0  0  0  0  0  0  0
   -1.2825    1.1041    1.1121 H   0  0  0  0  0  0  0  0  0  0  0  0
   -1.5917    0.7159   -0.6381 H   0  0  0  0  0  0  0  0  0  0  0  0
   -0.0727   -1.4081    0.8575 H   0  0  0  0  0  0  0  0  0  0  0  0
    0.7058   -0.1563   -0.3156 H   0  0  0  0  0  0  0  0  0  0  0  0
   -0.3054   -1.2404   -0.8388 H   0  0  0  0  0  0  0  0  0  0  0  0
  1  2  1  0  0  0  0
  1  5  1  0  0  0  0
  2  8  1  0  0  0  0
  3  1  1  0  0  0  0
  4  1  1  0  0  0  0
  6  2  1  0  0  0  0
  6 10  1  0  0  0  0
  7  2  1  0  0  0  0
  9  6  1  0  0  0  0
  9 12  1  0  0  0  0
 11  6  1  0  0  0  0
 13  9  1  0  0  0  0
 14  9  1  0  0  0  0
M  END
$$$$
