14
butane_opt
C  -3.911871   0.272931  -0.009560
C  -2.690541  -0.622746   0.118217
H  -4.779124  -0.323552  -0.201107
H  -3.682955   0.755574  -0.839667
H  -4.191654   1.122326   0.828334
C  -1.396360   0.180215   0.032977
H  -2.562704  -1.359301  -0.737161
H  -2.835810  -1.264131   1.069466
C  -0.213802  -0.695639  -0.013413
H  -1.368947   0.785058   0.861737
H  -1.546638   0.920643  -1.007900
H  -0.260732  -1.230002   0.816731
H   0.893711   0.035707   0.108568
H  -0.162401  -1.514009  -0.963034
