14
butane_opt
C  -3.903515   0.231915   0.046856
C  -2.693704  -0.576020   0.028967
H  -4.899404  -0.396838   0.023560
H  -3.852076   0.780083  -0.798989
H  -3.784097   0.949248   1.043832
C  -1.434879   0.217027  -0.061303
H  -2.737496  -1.235070  -0.827312
H  -2.704739  -1.297956   0.978862
C  -0.188447  -0.694182   0.054959
H  -1.542056   0.830468   0.693542
H  -1.467027   0.823273  -0.877936
H  -0.307490  -1.269293   0.901625
H   0.657182  -0.237731   0.312727
H   0.254280  -1.569556  -0.864229
