butane_opt
 OpenBabel08242015383D

 14 12  0  0  0  0  0  0  0  0999 V2000
   -3.9538    0.2483    0.0835 C   0  0  0  0  0  0  0  0  0  0  0  0
   -2.7327   -0.6237    0.0175 C   0  0  0  0  0  0  0  0  0  0  0  0
   -4.8077   -0.3054   -0.4351 H   0  0  0  0  0  0  0  0  0  0  0  0
   -3.8300    0.5364   -0.5287 H   0  0  0  0  0  0  0  0  0  0  0  0
   -4.1346    1.3988    1.2777 H   0  0  0  0  0  0  0  0  0  0  0  0
   -1.3843    0.2329   -0.1167 C   0  0  0  0  0  0  0  0  0  0  0  0
   -2.7162   -1.3727   -0.9369 H   0  0  0  0  0  0  0  0  0  0  0  0
   -2.7242   -1.2781    0.9936 H   0  0  0  0  0  0  0  0  0  0  0  0
   -0.1387   -0.7149    0.0835 C   0  0  0  0  0  0  0  0  0  0  0  0
   -1.3207    0.8538    0.7113 H   0  0  0  0  0  0  0  0  0  0  0  0
   -1.3897    0.8997   -0.9861 H   0  0  0  0  0  0  0  0  0  0  0  0
   -0.2303   -1.6104    1.2033 H   0  0  0  0  0  0  0  0  0  0  0  0
    0.7499   -0.1059    0.0859 H   0  0  0  0  0  0  0  0  0  0  0  0
   -0.0845   -1.2181   -0.6852 H   0  0  0  0  0  0  0  0  0  0  0  0
  2  1  1  0  0  0  0
  2  8  1  0  0  0  0
  3  1  1  0  0  0  0
  4  1  1  0  0  0  0
  6  2  1  0  0  0  0
  6  9  1  0  0  0  0
  6 10  1  0  0  0  0
  7  2  1  0  0  0  0
  9 13  1  0  0  0  0
  9 12  1  0  0  0  0
 11  6  1  0  0  0  0
 14  9  1  0  0  0  0
M  RAD  2   1   2   5   2
M  END
$$$$
