butane_opt
 OpenBabel08242015383D

 14 12  0  0  0  0  0  0  0  0999 V2000
   -3.9498    0.2241    0.0154 C   0  0  0  0  0  0  0  0  0  0  0  0
   -2.7143   -0.6083    0.0133 C   0  0  0  0  0  0  0  0  0  0  0  0
   -4.8922   -0.3576    0.3090 H   0  0  0  0  0  0  0  0  0  0  0  0
   -4.2417    1.2137   -1.1233 H   0  0  0  0  0  0  0  0  0  0  0  0
   -3.9470    0.6799    0.6865 H   0  0  0  0  0  0  0  0  0  0  0  0
   -1.3952    0.2362    0.0358 C   0  0  0  0  0  0  0  0  0  0  0  0
   -2.8373   -1.1482   -0.7192 H   0  0  0  0  0  0  0  0  0  0  0  0
   -2.6554   -1.3194    0.9564 H   0  0  0  0  0  0  0  0  0  0  0  0
   -0.1195   -0.7044    0.0036 C   0  0  0  0  0  0  0  0  0  0  0  0
   -1.5237    0.9831    1.0160 H   0  0  0  0  0  0  0  0  0  0  0  0
   -1.4025    0.7066   -0.7222 H   0  0  0  0  0  0  0  0  0  0  0  0
   -0.0694   -1.2713    0.8416 H   0  0  0  0  0  0  0  0  0  0  0  0
    0.7157   -0.1991    0.2044 H   0  0  0  0  0  0  0  0  0  0  0  0
    0.0003   -1.5334   -0.8924 H   0  0  0  0  0  0  0  0  0  0  0  0
  1  3  1  0  0  0  0
  1  5  1  0  0  0  0
  2  1  1  0  0  0  0
  2  6  1  0  0  0  0
  2  8  1  0  0  0  0
  6 10  1  0  0  0  0
  7  2  1  0  0  0  0
  9  6  1  0  0  0  0
  9 13  1  0  0  0  0
  9 12  1  0  0  0  0
 11  6  1  0  0  0  0
 14  9  1  0  0  0  0
M  RAD  2   1   2   4   2
M  END
$$$$
