14
butane_opt
C  -3.935435   0.282831   0.055011
C  -2.657642  -0.629366  -0.015201
H  -4.852419  -0.271688   0.280088
H  -4.192014   0.917595  -0.788026
H  -3.743097   0.946373   0.928771
C  -1.419190   0.141424  -0.069539
H  -2.634796  -1.203176  -0.778122
H  -2.697671  -1.373831   0.885034
C  -0.193215  -0.694483   0.076043
H  -1.340234   0.832765   0.818757
H  -1.405712   0.854697  -1.025825
H  -0.412580  -1.003635   0.841654
H   0.862224   0.109316   0.499839
H  -0.148254  -1.476908  -0.782335
