butane_opt
 OpenBabel08242015383D

 14 13  0  0  0  0  0  0  0  0999 V2000
   -3.8950    0.2373   -0.0154 C   0  0  0  0  0  0  0  0  0  0  0  0
   -2.7149   -0.5395    0.0831 C   0  0  0  0  0  0  0  0  0  0  0  0
   -4.9384   -0.5539   -0.0124 H   0  0  0  0  0  0  0  0  0  0  0  0
   -3.7201    0.8507   -0.9904 H   0  0  0  0  0  0  0  0  0  0  0  0
   -4.0268    0.8385    0.8240 H   0  0  0  0  0  0  0  0  0  0  0  0
   -1.4480    0.2168    0.0752 C   0  0  0  0  0  0  0  0  0  0  0  0
   -2.6291   -1.3059   -0.8218 H   0  0  0  0  0  0  0  0  0  0  0  0
   -2.8420   -1.0993    0.9464 H   0  0  0  0  0  0  0  0  0  0  0  0
   -0.1598   -0.7312   -0.0219 C   0  0  0  0  0  0  0  0  0  0  0  0
   -1.2636    0.8653    0.8320 H   0  0  0  0  0  0  0  0  0  0  0  0
   -1.4438    0.6758   -0.7115 H   0  0  0  0  0  0  0  0  0  0  0  0
   -0.0840   -1.5047    0.9849 H   0  0  0  0  0  0  0  0  0  0  0  0
    0.7326   -0.1996   -0.1881 H   0  0  0  0  0  0  0  0  0  0  0  0
   -0.1608   -1.2512   -0.8392 H   0  0  0  0  0  0  0  0  0  0  0  0
  1  3  1  0  0  0  0
  1  2  1  0  0  0  0
  1  5  1  0  0  0  0
  2  8  1  0  0  0  0
  4  1  1  0  0  0  0
  6  2  1  0  0  0  0
  6 10  1  0  0  0  0
  7  2  1  0  0  0  0
  9  6  1  0  0  0  0
  9 12  1  0  0  0  0
 11  6  1  0  0  0  0
 13  9  1  0  0  0  0
 14  9  1  0  0  0  0
M  END
$$$$
