butane_opt
 OpenBabel08242015383D

 14 13  0  0  0  0  0  0  0  0999 V2000
   -3.9738    0.2904    0.1075 C   0  0  0  0  0  0  0  0  0  0  0  0
   -2.6778   -0.6502   -0.1049 C   0  0  0  0  0  0  0  0  0  0  0  0
   -4.8838   -0.2395    0.3914 H   0  0  0  0  0  0  0  0  0  0  0  0
   -4.2193    1.0964   -0.8250 H   0  0  0  0  0  0  0  0  0  0  0  0
   -3.6318    0.8082    0.9435 H   0  0  0  0  0  0  0  0  0  0  0  0
   -1.4121    0.1366   -0.0572 C   0  0  0  0  0  0  0  0  0  0  0  0
   -2.7671   -1.4786   -1.0328 H   0  0  0  0  0  0  0  0  0  0  0  0
   -2.3854   -1.1550    0.7559 H   0  0  0  0  0  0  0  0  0  0  0  0
   -0.1802   -0.6457    0.1435 C   0  0  0  0  0  0  0  0  0  0  0  0
   -1.4980    0.7469    0.6903 H   0  0  0  0  0  0  0  0  0  0  0  0
   -1.1917    0.9013   -1.0318 H   0  0  0  0  0  0  0  0  0  0  0  0
   -0.1577   -1.3466    1.1353 H   0  0  0  0  0  0  0  0  0  0  0  0
    0.8339   -0.0101    0.1026 H   0  0  0  0  0  0  0  0  0  0  0  0
   -0.2245   -1.3563   -0.7952 H   0  0  0  0  0  0  0  0  0  0  0  0
  1  3  1  0  0  0  0
  1  5  1  0  0  0  0
  2  6  1  0  0  0  0
  2  1  1  0  0  0  0
  2  8  1  0  0  0  0
  4  1  1  0  0  0  0
  6  9  1  0  0  0  0
  6 10  1  0  0  0  0
  7  2  1  0  0  0  0
  9 12  1  0  0  0  0
 11  6  1  0  0  0  0
 13  9  1  0  0  0  0
 14  9  1  0  0  0  0
M  END
$$$$
