butane_opt
 OpenBabel08242015383D

 14 13  0  0  0  0  0  0  0  0999 V2000
   -3.9478    0.2580   -0.0167 C   0  0  0  0  0  0  0  0  0  0  0  0
   -2.7070   -0.6153    0.0713 C   0  0  0  0  0  0  0  0  0  0  0  0
   -4.8479   -0.3396    0.1187 H   0  0  0  0  0  0  0  0  0  0  0  0
   -4.0051    0.9270   -0.9303 H   0  0  0  0  0  0  0  0  0  0  0  0
   -3.9292    0.8362    0.8154 H   0  0  0  0  0  0  0  0  0  0  0  0
   -1.4166    0.2032    0.0328 C   0  0  0  0  0  0  0  0  0  0  0  0
   -2.6816   -1.2573   -0.7599 H   0  0  0  0  0  0  0  0  0  0  0  0
   -2.7572   -1.2795    0.9866 H   0  0  0  0  0  0  0  0  0  0  0  0
   -0.1389   -0.7032    0.0087 C   0  0  0  0  0  0  0  0  0  0  0  0
   -1.3782    0.9087    0.8999 H   0  0  0  0  0  0  0  0  0  0  0  0
   -1.3872    0.8408   -0.8426 H   0  0  0  0  0  0  0  0  0  0  0  0
   -0.1640   -1.1861    0.8342 H   0  0  0  0  0  0  0  0  0  0  0  0
    0.7467   -0.1475    0.0862 H   0  0  0  0  0  0  0  0  0  0  0  0
   -0.0881   -1.4957   -0.9435 H   0  0  0  0  0  0  0  0  0  0  0  0
  1  2  1  0  0  0  0
  1  3  1  0  0  0  0
  1  5  1  0  0  0  0
  2  8  1  0  0  0  0
  4  1  1  0  0  0  0
  6  2  1  0  0  0  0
  6 10  1  0  0  0  0
  7  2  1  0  0  0  0
  9  6  1  0  0  0  0
  9 13  1  0  0  0  0
  9 12  1  0  0  0  0
 11  6  1  0  0  0  0
 14  9  1  0  0  0  0
M  END
$$$$
