14
butane_opt
C  -3.918014   0.297667  -0.071871
C  -2.670214  -0.636108   0.161964
H  -4.714256  -0.261665  -0.263731
H  -3.963339   0.873313  -0.954897
H  -4.088777   1.083598   0.858756
C  -1.404329   0.121504   0.082933
H  -2.631522  -1.337887  -0.674599
H  -2.810523  -1.337873   1.127551
C  -0.225853  -0.675494  -0.039404
H  -1.190184   0.776748   0.951179
H  -1.413738   0.812280  -0.930966
H  -0.142222  -0.950999   0.714538
H   0.814436   0.006455  -0.050503
H  -0.277318  -1.397750  -0.953832
