14
butane_opt
C  -3.958059   0.247338   0.093931
C  -2.756956  -0.577463  -0.018795
H  -5.004476  -0.434312   0.186431
H  -3.996344   0.796367  -0.713048
H  -4.006588   0.991928   1.007414
C  -1.391306   0.193651  -0.122629
H  -2.806841  -1.323279  -0.886383
H  -2.559537  -1.133867   0.806415
C  -0.110107  -0.719882   0.106431
H  -1.438342   0.902422   0.687928
H  -1.236927   0.761598  -1.004896
H  -0.210367  -1.186039   1.000603
H   0.684337  -0.245085   0.321808
H   0.182881  -1.362634  -0.674277
