14
butane_opt
C  -3.913338   0.231286  -0.054992
C  -2.689125  -0.548432   0.091071
H  -4.942179  -0.490059  -0.063068
H  -3.940839   0.651650  -0.845080
H  -3.797429   0.883898   0.797661
C  -1.445399   0.232754   0.086677
H  -2.565202  -1.218673  -0.724796
H  -2.761756  -1.316156   0.984559
C  -0.169365  -0.746338  -0.022098
H  -1.296555   1.024370   1.030275
H  -1.456160   0.859853  -0.808840
H   0.009985  -1.476345   0.936827
H   0.670602  -0.136919  -0.269404
H  -0.307806  -1.308120  -0.782666
