14
butane_opt
C  -3.935754   0.251003  -0.036386
C  -2.745851  -0.582955   0.112322
H  -4.956970  -0.474055  -0.428880
H  -3.772104   0.672235  -0.849817
H  -4.083018   1.003975   0.862993
C  -1.428932   0.226566   0.079270
H  -2.757883  -1.176920  -0.686907
H  -2.790823  -1.238173   1.108004
C  -0.099611  -0.742653  -0.005099
H  -1.334194   0.866722   0.874110
H  -1.438209   0.854955  -0.813660
H   0.140263  -1.309075   0.791137
H   0.835032  -0.223802  -0.321594
H  -0.315461  -1.293733  -0.890161
