butane_opt
 OpenBabel08242015383D

 14 12  0  0  0  0  0  0  0  0999 V2000
   -3.9919    0.3067   -0.0422 C   0  0  0  0  0  0  0  0  0  0  0  0
   -2.7198   -0.6468    0.1150 C   0  0  0  0  0  0  0  0  0  0  0  0
   -4.8683   -0.2794    0.1644 H   0  0  0  0  0  0  0  0  0  0  0  0
   -3.9418    1.0295   -1.0488 H   0  0  0  0  0  0  0  0  0  0  0  0
   -4.1226    0.7599    0.5753 H   0  0  0  0  0  0  0  0  0  0  0  0
   -1.3506    0.1426    0.0747 C   0  0  0  0  0  0  0  0  0  0  0  0
   -2.6535   -1.1519   -0.5830 H   0  0  0  0  0  0  0  0  0  0  0  0
   -2.7261   -1.3655    1.0883 H   0  0  0  0  0  0  0  0  0  0  0  0
   -0.1633   -0.6620   -0.0336 C   0  0  0  0  0  0  0  0  0  0  0  0
   -1.3778    0.8108    0.9725 H   0  0  0  0  0  0  0  0  0  0  0  0
   -1.2759    0.7622   -0.8972 H   0  0  0  0  0  0  0  0  0  0  0  0
   -0.1055   -0.8931    0.5403 H   0  0  0  0  0  0  0  0  0  0  0  0
    0.7733   -0.0798    0.3050 H   0  0  0  0  0  0  0  0  0  0  0  0
   -0.0485   -1.7386   -1.0977 H   0  0  0  0  0  0  0  0  0  0  0  0
  1  2  1  0  0  0  0
  1  3  1  0  0  0  0
  1  5  1  0  0  0  0
  2  8  1  0  0  0  0
  4  1  1  0  0  0  0
  6  2  1  0  0  0  0
  6 10  1  0  0  0  0
  7  2  1  0  0  0  0
  9  6  1  0  0  0  0
  9 13  1  0  0  0  0
 11  6  1  0  0  0  0
 14  9  1  0  0  0  0
M  RAD  2   9   2  12   2
M  END
$$$$
