butane_opt
 OpenBabel08242015383D

 14 12  0  0  0  0  0  0  0  0999 V2000
   -3.9501    0.2400   -0.0574 C   0  0  0  0  0  0  0  0  0  0  0  0
   -2.7603   -0.5784    0.1392 C   0  0  0  0  0  0  0  0  0  0  0  0
   -4.8467   -0.2866    0.1588 H   0  0  0  0  0  0  0  0  0  0  0  0
   -3.8708    1.1312   -1.1604 H   0  0  0  0  0  0  0  0  0  0  0  0
   -4.0994    0.5985    0.6249 H   0  0  0  0  0  0  0  0  0  0  0  0
   -1.4043    0.2173    0.0680 C   0  0  0  0  0  0  0  0  0  0  0  0
   -2.7511   -1.2030   -0.5597 H   0  0  0  0  0  0  0  0  0  0  0  0
   -2.7753   -1.2965    1.1186 H   0  0  0  0  0  0  0  0  0  0  0  0
   -0.0901   -0.7166   -0.0613 C   0  0  0  0  0  0  0  0  0  0  0  0
   -1.3821    0.9449    0.9879 H   0  0  0  0  0  0  0  0  0  0  0  0
   -1.3562    0.6372   -0.6656 H   0  0  0  0  0  0  0  0  0  0  0  0
   -0.2314   -1.0398    0.6545 H   0  0  0  0  0  0  0  0  0  0  0  0
    0.7616   -0.1473    0.3224 H   0  0  0  0  0  0  0  0  0  0  0  0
   -0.0035   -1.7589   -1.1796 H   0  0  0  0  0  0  0  0  0  0  0  0
  1  2  1  0  0  0  0
  1  3  1  0  0  0  0
  1  5  1  0  0  0  0
  2  8  1  0  0  0  0
  4  1  1  0  0  0  0
  6  2  1  0  0  0  0
  6 10  1  0  0  0  0
  7  2  1  0  0  0  0
  9  6  1  0  0  0  0
  9 13  1  0  0  0  0
  9 12  1  0  0  0  0
 11  6  1  0  0  0  0
M  RAD  2   9   2  14   2
M  END
$$$$
