butane_opt
 OpenBabel08242015383D

 14 13  0  0  0  0  0  0  0  0999 V2000
   -3.9303    0.2829   -0.0036 C   0  0  0  0  0  0  0  0  0  0  0  0
   -2.6572   -0.6533    0.0992 C   0  0  0  0  0  0  0  0  0  0  0  0
   -4.7616   -0.2503   -0.0354 H   0  0  0  0  0  0  0  0  0  0  0  0
   -3.8714    0.9663   -0.9260 H   0  0  0  0  0  0  0  0  0  0  0  0
   -4.0970    0.8585    0.7387 H   0  0  0  0  0  0  0  0  0  0  0  0
   -1.4200    0.1768    0.0290 C   0  0  0  0  0  0  0  0  0  0  0  0
   -2.8110   -1.2878   -0.8136 H   0  0  0  0  0  0  0  0  0  0  0  0
   -2.6466   -1.3105    1.0414 H   0  0  0  0  0  0  0  0  0  0  0  0
   -0.1850   -0.6690   -0.0070 C   0  0  0  0  0  0  0  0  0  0  0  0
   -1.4196    0.8056    0.8406 H   0  0  0  0  0  0  0  0  0  0  0  0
   -1.3832    0.8652   -0.8980 H   0  0  0  0  0  0  0  0  0  0  0  0
   -0.2627   -1.1453    0.7720 H   0  0  0  0  0  0  0  0  0  0  0  0
    0.8049   -0.0373    0.3276 H   0  0  0  0  0  0  0  0  0  0  0  0
   -0.2718   -1.5829   -1.0402 H   0  0  0  0  0  0  0  0  0  0  0  0
  1  2  1  0  0  0  0
  1  5  1  0  0  0  0
  2  8  1  0  0  0  0
  3  1  1  0  0  0  0
  4  1  1  0  0  0  0
  6  2  1  0  0  0  0
  6 10  1  0  0  0  0
  7  2  1  0  0  0  0
  9  6  1  0  0  0  0
  9 13  1  0  0  0  0
  9 12  1  0  0  0  0
 11  6  1  0  0  0  0
 14  9  1  0  0  0  0
M  END
$$$$
