butane_opt
 OpenBabel08242015383D

 14 13  0  0  0  0  0  0  0  0999 V2000
   -3.8873    0.2209   -0.0248 C   0  0  0  0  0  0  0  0  0  0  0  0
   -2.6908   -0.5700    0.0793 C   0  0  0  0  0  0  0  0  0  0  0  0
   -4.7989   -0.3853    0.3288 H   0  0  0  0  0  0  0  0  0  0  0  0
   -4.0084    1.1843   -1.1452 H   0  0  0  0  0  0  0  0  0  0  0  0
   -3.7127    0.5373    0.6253 H   0  0  0  0  0  0  0  0  0  0  0  0
   -1.4571    0.2177    0.0538 C   0  0  0  0  0  0  0  0  0  0  0  0
   -2.7242   -1.2282   -0.7038 H   0  0  0  0  0  0  0  0  0  0  0  0
   -2.9359   -1.2787    1.0006 H   0  0  0  0  0  0  0  0  0  0  0  0
   -0.1525   -0.7247   -0.0257 C   0  0  0  0  0  0  0  0  0  0  0  0
   -1.4769    1.0428    1.0563 H   0  0  0  0  0  0  0  0  0  0  0  0
   -1.5355    0.7835   -0.7275 H   0  0  0  0  0  0  0  0  0  0  0  0
   -0.2200   -1.1033    0.6613 H   0  0  0  0  0  0  0  0  0  0  0  0
    0.6166   -0.2161    0.2936 H   0  0  0  0  0  0  0  0  0  0  0  0
    0.0301   -1.5385   -1.0006 H   0  0  0  0  0  0  0  0  0  0  0  0
  1  2  1  0  0  0  0
  1  3  1  0  0  0  0
  1  5  1  0  0  0  0
  2  8  1  0  0  0  0
  4  1  1  0  0  0  0
  6  2  1  0  0  0  0
  6 10  1  0  0  0  0
  7  2  1  0  0  0  0
  9  6  1  0  0  0  0
  9 13  1  0  0  0  0
  9 12  1  0  0  0  0
 11  6  1  0  0  0  0
 14  9  1  0  0  0  0
M  END
$$$$
