14
butane_opt
C  -3.920593   0.292083   0.107195
C  -2.670177  -0.637026  -0.105144
H  -4.823050  -0.291252   0.541041
H  -4.128122   1.074550  -0.820042
H  -3.808943   0.883366   0.959360
C  -1.396988   0.165903  -0.099456
H  -2.993114  -1.419229  -0.988292
H  -2.519629  -1.241011   0.780127
C  -0.204939  -0.699810   0.129524
H  -1.454730   0.854722   0.813786
H  -1.317634   0.665436  -0.929853
H  -0.447811  -1.320993   1.077068
H   0.840974   0.134943   0.229640
H  -0.074081  -1.227810  -0.626880
