14
butane_opt
C  -3.959200   0.245800   0.088643
C  -2.723295  -0.610244   0.010111
H  -4.790437  -0.387187   0.010029
H  -3.971612   0.834014  -0.751427
H  -3.966753   0.888026   0.941562
C  -1.385807   0.234763  -0.088688
H  -2.961373  -1.312158  -0.938899
H  -2.704520  -1.069245   0.753440
C  -0.115075  -0.729489   0.101807
H  -1.373901   0.807375   0.740817
H  -1.474864   1.006386  -1.101588
H  -0.312158  -1.166941   0.980553
H   0.688173  -0.246020   0.252651
H   0.061101  -1.541520  -0.809218
