14
butane_opt
C  -3.943458   0.235075  -0.046071
C  -2.684941  -0.566011   0.117237
H  -4.977607  -0.438900   0.079997
H  -3.823556   0.904595  -1.006489
H  -3.853127   0.744628   0.807501
C  -1.416875   0.216786   0.038681
H  -2.606643  -1.097054  -0.560966
H  -2.769864  -1.311652   1.055249
C  -0.158656  -0.726663  -0.055072
H  -1.421851   0.956216   0.995073
H  -1.432228   0.738197  -0.730804
H  -0.291246  -1.139163   0.703710
H   0.680228  -0.246214   0.408862
H  -0.051863  -1.515175  -0.993136
