butane_opt
 OpenBabel08242015383D

 14 13  0  0  0  0  0  0  0  0999 V2000
   -3.9140    0.2229    0.0930 C   0  0  0  0  0  0  0  0  0  0  0  0
   -2.6952   -0.5521   -0.0402 C   0  0  0  0  0  0  0  0  0  0  0  0
   -4.9957   -0.5039    0.1320 H   0  0  0  0  0  0  0  0  0  0  0  0
   -4.0592    0.7044   -0.7100 H   0  0  0  0  0  0  0  0  0  0  0  0
   -3.8592    0.9708    1.0563 H   0  0  0  0  0  0  0  0  0  0  0  0
   -1.4064    0.2152   -0.0949 C   0  0  0  0  0  0  0  0  0  0  0  0
   -2.8498   -1.1077   -0.9156 H   0  0  0  0  0  0  0  0  0  0  0  0
   -2.6273   -1.2187    0.8665 H   0  0  0  0  0  0  0  0  0  0  0  0
   -0.1530   -0.7344    0.1100 C   0  0  0  0  0  0  0  0  0  0  0  0
   -1.6333    0.7417    0.6657 H   0  0  0  0  0  0  0  0  0  0  0  0
   -1.3747    0.9402   -1.0598 H   0  0  0  0  0  0  0  0  0  0  0  0
   -0.1846   -1.1667    0.9548 H   0  0  0  0  0  0  0  0  0  0  0  0
    0.6465   -0.2172    0.3734 H   0  0  0  0  0  0  0  0  0  0  0  0
   -0.0137   -1.4801   -0.7437 H   0  0  0  0  0  0  0  0  0  0  0  0
  1  3  1  0  0  0  0
  1  5  1  0  0  0  0
  2  1  1  0  0  0  0
  2  8  1  0  0  0  0
  4  1  1  0  0  0  0
  6  2  1  0  0  0  0
  6  9  1  0  0  0  0
  6 10  1  0  0  0  0
  7  2  1  0  0  0  0
  9 13  1  0  0  0  0
  9 12  1  0  0  0  0
 11  6  1  0  0  0  0
 14  9  1  0  0  0  0
M  END
$$$$
