14
butane_opt
C  -3.907608   0.228854  -0.033186
C  -2.708248  -0.553010   0.056473
H  -4.899883  -0.400508   0.521041
H  -4.067650   1.174687  -1.148772
H  -3.659401   0.513747   0.498172
C  -1.436846   0.216409   0.095596
H  -2.666967  -1.277882  -0.835422
H  -2.773135  -1.196971   0.944434
C  -0.166786  -0.715257   0.003514
H  -1.434162   0.888536   1.016506
H  -1.224332   0.717837  -0.764076
H  -0.090970  -1.160835   0.736346
H   0.599436  -0.255569  -0.075149
H  -0.151884  -1.607031  -0.996922
