14
butane_opt
C  -3.939676   0.296741   0.099738
C  -2.676722  -0.669428  -0.042903
H  -4.816757  -0.308608  -0.289621
H  -3.887246   0.605374  -0.602813
H  -4.057830   1.404736   1.178451
C  -1.365372   0.143975  -0.062064
H  -2.779137  -1.345248  -0.881446
H  -2.523062  -1.226710   0.852607
C  -0.215785  -0.652485   0.116767
H  -1.440373   0.712648   0.658921
H  -1.273448   1.073123  -1.122054
H  -0.225871  -1.497648   1.167020
H   0.693020  -0.104820  -0.153712
H  -0.336168  -1.231298  -0.666188
