14
butane_opt
C  -3.931827   0.304209  -0.025661
C  -2.705089  -0.669801   0.121026
H  -4.851551  -0.372308   0.037968
H  -4.020201   0.961282  -0.892817
H  -4.023358   0.898907   0.729505
C  -1.377197   0.178850  -0.011267
H  -2.800404  -1.165079  -0.632947
H  -2.638783  -1.349139   1.033801
C  -0.179584  -0.672696  -0.024263
H  -1.318056   0.899131   0.982053
H  -1.489743   0.745601  -0.849592
H  -0.342177  -0.997279   0.735875
H   0.743202  -0.130755   0.537247
H   0.032002  -1.659452  -0.999838
