14
butane_opt
C  -3.988190   0.297889   0.052908
C  -2.679225  -0.674147   0.035683
H  -4.905721  -0.261790   0.212309
H  -4.036423   0.955922  -0.853246
H  -4.002073   1.099501   0.990145
C  -1.400774   0.138945  -0.096362
H  -2.783785  -1.300948  -0.753275
H  -2.698089  -1.274384   0.915248
C  -0.117144  -0.653469   0.057306
H  -1.452682   0.824473   0.754388
H  -1.338908   0.713527  -1.006633
H  -0.557167  -0.967311   0.899614
H   0.845884  -0.035615   0.568058
H   0.115548  -1.534142  -0.901726
