butane_opt
 OpenBabel08242015383D

 14 13  0  0  0  0  0  0  0  0999 V2000
   -3.9581    0.2473    0.0939 C   0  0  0  0  0  0  0  0  0  0  0  0
   -2.7570   -0.5775   -0.0188 C   0  0  0  0  0  0  0  0  0  0  0  0
   -5.0045   -0.4343    0.1864 H   0  0  0  0  0  0  0  0  0  0  0  0
   -3.9963    0.7964   -0.7130 H   0  0  0  0  0  0  0  0  0  0  0  0
   -4.0066    0.9919    1.0074 H   0  0  0  0  0  0  0  0  0  0  0  0
   -1.3913    0.1937   -0.1226 C   0  0  0  0  0  0  0  0  0  0  0  0
   -2.8068   -1.3233   -0.8864 H   0  0  0  0  0  0  0  0  0  0  0  0
   -2.5595   -1.1339    0.8064 H   0  0  0  0  0  0  0  0  0  0  0  0
   -0.1101   -0.7199    0.1064 C   0  0  0  0  0  0  0  0  0  0  0  0
   -1.4383    0.9024    0.6879 H   0  0  0  0  0  0  0  0  0  0  0  0
   -1.2369    0.7616   -1.0049 H   0  0  0  0  0  0  0  0  0  0  0  0
   -0.2104   -1.1860    1.0006 H   0  0  0  0  0  0  0  0  0  0  0  0
    0.6843   -0.2451    0.3218 H   0  0  0  0  0  0  0  0  0  0  0  0
    0.1829   -1.3626   -0.6743 H   0  0  0  0  0  0  0  0  0  0  0  0
  1  3  1  0  0  0  0
  1  5  1  0  0  0  0
  2  1  1  0  0  0  0
  2  8  1  0  0  0  0
  4  1  1  0  0  0  0
  6  2  1  0  0  0  0
  6  9  1  0  0  0  0
  6 10  1  0  0  0  0
  7  2  1  0  0  0  0
  9 13  1  0  0  0  0
  9 12  1  0  0  0  0
 11  6  1  0  0  0  0
 14  9  1  0  0  0  0
M  END
$$$$
