butane_opt
 OpenBabel08242015383D

 14 13  0  0  0  0  0  0  0  0999 V2000
   -3.9255    0.2777    0.1070 C   0  0  0  0  0  0  0  0  0  0  0  0
   -2.7007   -0.6108   -0.0739 C   0  0  0  0  0  0  0  0  0  0  0  0
   -4.7428   -0.2367    0.5492 H   0  0  0  0  0  0  0  0  0  0  0  0
   -4.1844    1.0814   -0.8750 H   0  0  0  0  0  0  0  0  0  0  0  0
   -3.8500    0.7602    0.8523 H   0  0  0  0  0  0  0  0  0  0  0  0
   -1.3828    0.1444   -0.0705 C   0  0  0  0  0  0  0  0  0  0  0  0
   -2.7168   -1.5022   -1.1853 H   0  0  0  0  0  0  0  0  0  0  0  0
   -2.5303   -1.1091    0.6972 H   0  0  0  0  0  0  0  0  0  0  0  0
   -0.1858   -0.6829    0.1325 C   0  0  0  0  0  0  0  0  0  0  0  0
   -1.3469    0.7393    0.7040 H   0  0  0  0  0  0  0  0  0  0  0  0
   -1.4093    0.7921   -0.9442 H   0  0  0  0  0  0  0  0  0  0  0  0
   -0.4407   -1.2692    1.0626 H   0  0  0  0  0  0  0  0  0  0  0  0
    0.7518   -0.0237    0.1731 H   0  0  0  0  0  0  0  0  0  0  0  0
   -0.1963   -1.2335   -0.7273 H   0  0  0  0  0  0  0  0  0  0  0  0
  1  3  1  0  0  0  0
  1  5  1  0  0  0  0
  2  6  1  0  0  0  0
  2  1  1  0  0  0  0
  2  8  1  0  0  0  0
  4  1  1  0  0  0  0
  6  9  1  0  0  0  0
  6 10  1  0  0  0  0
  7  2  1  0  0  0  0
  9 13  1  0  0  0  0
  9 12  1  0  0  0  0
 11  6  1  0  0  0  0
 14  9  1  0  0  0  0
M  END
$$$$
