butane_opt
 OpenBabel08242015383D

 14 13  0  0  0  0  0  0  0  0999 V2000
   -3.9436    0.2719    0.0283 C   0  0  0  0  0  0  0  0  0  0  0  0
   -2.6581   -0.6260    0.0374 C   0  0  0  0  0  0  0  0  0  0  0  0
   -4.7576   -0.2459   -0.3174 H   0  0  0  0  0  0  0  0  0  0  0  0
   -3.8798    0.5864   -0.6751 H   0  0  0  0  0  0  0  0  0  0  0  0
   -4.1574    1.2406    1.0491 H   0  0  0  0  0  0  0  0  0  0  0  0
   -1.4143    0.1407   -0.0136 C   0  0  0  0  0  0  0  0  0  0  0  0
   -2.7282   -1.0745   -0.6851 H   0  0  0  0  0  0  0  0  0  0  0  0
   -2.7302   -1.4126    0.9910 H   0  0  0  0  0  0  0  0  0  0  0  0
   -0.1636   -0.6550    0.0558 C   0  0  0  0  0  0  0  0  0  0  0  0
   -1.4207    0.7488    0.7365 H   0  0  0  0  0  0  0  0  0  0  0  0
   -1.4423    0.8335   -0.9158 H   0  0  0  0  0  0  0  0  0  0  0  0
   -0.2583   -1.2920    0.9622 H   0  0  0  0  0  0  0  0  0  0  0  0
    0.7549   -0.0123   -0.1004 H   0  0  0  0  0  0  0  0  0  0  0  0
   -0.2557   -1.4280   -0.8779 H   0  0  0  0  0  0  0  0  0  0  0  0
  1  2  1  0  0  0  0
  1  5  1  0  0  0  0
  2  8  1  0  0  0  0
  3  1  1  0  0  0  0
  4  1  1  0  0  0  0
  6  2  1  0  0  0  0
  6  9  1  0  0  0  0
  6 10  1  0  0  0  0
  7  2  1  0  0  0  0
  9 12  1  0  0  0  0
 11  6  1  0  0  0  0
 13  9  1  0  0  0  0
 14  9  1  0  0  0  0
M  END
$$$$
