butane_opt
 OpenBabel08242015383D

 14 13  0  0  0  0  0  0  0  0999 V2000
   -3.9561    0.2261   -0.0741 C   0  0  0  0  0  0  0  0  0  0  0  0
   -2.7435   -0.5556    0.1448 C   0  0  0  0  0  0  0  0  0  0  0  0
   -4.8323   -0.3098   -0.3467 H   0  0  0  0  0  0  0  0  0  0  0  0
   -3.8061    0.5589   -0.8324 H   0  0  0  0  0  0  0  0  0  0  0  0
   -4.1194    1.1351    0.8968 H   0  0  0  0  0  0  0  0  0  0  0  0
   -1.3778    0.1967    0.0655 C   0  0  0  0  0  0  0  0  0  0  0  0
   -2.6955   -1.1257   -0.6328 H   0  0  0  0  0  0  0  0  0  0  0  0
   -2.9111   -1.2936    1.2302 H   0  0  0  0  0  0  0  0  0  0  0  0
   -0.1098   -0.7183   -0.0482 C   0  0  0  0  0  0  0  0  0  0  0  0
   -1.2328    0.9690    1.0235 H   0  0  0  0  0  0  0  0  0  0  0  0
   -1.6482    0.8348   -0.7916 H   0  0  0  0  0  0  0  0  0  0  0  0
    0.0238   -1.4404    0.8691 H   0  0  0  0  0  0  0  0  0  0  0  0
    0.7745   -0.1622   -0.1054 H   0  0  0  0  0  0  0  0  0  0  0  0
   -0.3137   -1.4426   -0.8745 H   0  0  0  0  0  0  0  0  0  0  0  0
  1  2  1  0  0  0  0
  1  5  1  0  0  0  0
  2  8  1  0  0  0  0
  3  1  1  0  0  0  0
  4  1  1  0  0  0  0
  6  2  1  0  0  0  0
  6 10  1  0  0  0  0
  7  2  1  0  0  0  0
  9  6  1  0  0  0  0
  9 12  1  0  0  0  0
 11  6  1  0  0  0  0
 13  9  1  0  0  0  0
 14  9  1  0  0  0  0
M  END
$$$$
