14
butane_opt
C  -3.973413   0.270064   0.079516
C  -2.708015  -0.649011   0.001368
H  -4.777748  -0.193816   0.107086
H  -4.077300   1.011107  -0.914446
H  -3.959246   0.982522   0.992965
C  -1.404192   0.168290  -0.079894
H  -2.597536  -1.428837  -0.865128
H  -2.650932  -1.371892   0.967282
C  -0.148745  -0.643333   0.077413
H  -1.338102   0.887912   0.762298
H  -1.354515   0.760199  -0.928500
H  -0.395287  -1.228652   0.883326
H   0.715882  -0.116310   0.333524
H   0.210124  -1.504637  -0.859634
