14
butane_opt
C  -3.950517   0.295530  -0.051980
C  -2.671935  -0.653475   0.068890
H  -4.817297  -0.340160   0.116225
H  -3.880052   0.959662  -1.015982
H  -4.028745   0.870940   0.657493
C  -1.394537   0.158862   0.145508
H  -2.651140  -1.258035  -0.677504
H  -2.826380  -1.187441   0.951161
C  -0.211162  -0.672977  -0.033121
H  -1.373538   0.866573   1.033103
H  -1.302119   0.773257  -0.788030
H   0.170990  -1.375442   0.870276
H   0.704036  -0.084985  -0.397956
H  -0.315610  -1.215243  -0.853371
