14
butane_opt
C  -3.968855   0.249282   0.074515
C  -2.746779  -0.571224  -0.090418
H  -4.919999  -0.384933   0.542557
H  -4.164953   0.938523  -0.780875
H  -3.725357   0.782167   0.923532
C  -1.397974   0.191428  -0.046407
H  -2.857223  -1.309913  -0.928493
H  -2.630551  -1.265264   0.806680
C  -0.105717  -0.704024   0.103443
H  -1.430270   0.849862   0.808784
H  -1.255273   0.942839  -0.960058
H  -0.157907  -1.442408   1.076660
H   0.672178  -0.128122   0.236459
H   0.075992  -1.454043  -0.791827
