butane_opt
 OpenBabel08242015383D

 14 13  0  0  0  0  0  0  0  0999 V2000
   -3.9598    0.2725   -0.0081 C   0  0  0  0  0  0  0  0  0  0  0  0
   -2.6963   -0.6266    0.0498 C   0  0  0  0  0  0  0  0  0  0  0  0
   -4.8620   -0.2886    0.1755 H   0  0  0  0  0  0  0  0  0  0  0  0
   -4.0543    1.0121   -0.9707 H   0  0  0  0  0  0  0  0  0  0  0  0
   -3.9326    0.8362    0.7801 H   0  0  0  0  0  0  0  0  0  0  0  0
   -1.4004    0.1664    0.0460 C   0  0  0  0  0  0  0  0  0  0  0  0
   -2.6800   -1.2936   -0.7907 H   0  0  0  0  0  0  0  0  0  0  0  0
   -2.7501   -1.2887    0.9765 H   0  0  0  0  0  0  0  0  0  0  0  0
   -0.1553   -0.6777    0.0100 C   0  0  0  0  0  0  0  0  0  0  0  0
   -1.3948    0.9079    0.9206 H   0  0  0  0  0  0  0  0  0  0  0  0
   -1.3752    0.7785   -0.8188 H   0  0  0  0  0  0  0  0  0  0  0  0
   -0.1262   -1.2639    0.8782 H   0  0  0  0  0  0  0  0  0  0  0  0
    0.7821   -0.0610    0.0131 H   0  0  0  0  0  0  0  0  0  0  0  0
   -0.1022   -1.4211   -0.9175 H   0  0  0  0  0  0  0  0  0  0  0  0
  1  2  1  0  0  0  0
  1  3  1  0  0  0  0
  1  5  1  0  0  0  0
  2  8  1  0  0  0  0
  4  1  1  0  0  0  0
  6  2  1  0  0  0  0
  6 10  1  0  0  0  0
  7  2  1  0  0  0  0
  9 13  1  0  0  0  0
  9  6  1  0  0  0  0
  9 12  1  0  0  0  0
 11  6  1  0  0  0  0
 14  9  1  0  0  0  0
M  END
$$$$
