butane_opt
 OpenBabel08242015383D

 14 13  0  0  0  0  0  0  0  0999 V2000
   -3.9861    0.3024   -0.0921 C   0  0  0  0  0  0  0  0  0  0  0  0
   -2.6961   -0.6863    0.0947 C   0  0  0  0  0  0  0  0  0  0  0  0
   -4.7999   -0.1887    0.0835 H   0  0  0  0  0  0  0  0  0  0  0  0
   -4.0617    0.9835   -0.9317 H   0  0  0  0  0  0  0  0  0  0  0  0
   -4.0603    0.9627    0.7544 H   0  0  0  0  0  0  0  0  0  0  0  0
   -1.3621    0.1661    0.1266 C   0  0  0  0  0  0  0  0  0  0  0  0
   -2.6680   -1.2619   -0.7082 H   0  0  0  0  0  0  0  0  0  0  0  0
   -2.9409   -1.3446    1.1403 H   0  0  0  0  0  0  0  0  0  0  0  0
   -0.1581   -0.6937   -0.0562 C   0  0  0  0  0  0  0  0  0  0  0  0
   -1.2845    1.0691    1.1784 H   0  0  0  0  0  0  0  0  0  0  0  0
   -1.3620    0.7176   -0.6513 H   0  0  0  0  0  0  0  0  0  0  0  0
    0.0620   -1.3746    0.8559 H   0  0  0  0  0  0  0  0  0  0  0  0
    0.8456   -0.0010   -0.3671 H   0  0  0  0  0  0  0  0  0  0  0  0
   -0.3426   -1.0802   -0.7777 H   0  0  0  0  0  0  0  0  0  0  0  0
  1  3  1  0  0  0  0
  1  2  1  0  0  0  0
  1  5  1  0  0  0  0
  2  6  1  0  0  0  0
  2  8  1  0  0  0  0
  4  1  1  0  0  0  0
  6 10  1  0  0  0  0
  7  2  1  0  0  0  0
  9  6  1  0  0  0  0
  9 12  1  0  0  0  0
 11  6  1  0  0  0  0
 13  9  1  0  0  0  0
 14  9  1  0  0  0  0
M  END
$$$$
