butane_opt
 OpenBabel08242015383D

 14 13  0  0  0  0  0  0  0  0999 V2000
   -3.9521    0.3085   -0.0881 C   0  0  0  0  0  0  0  0  0  0  0  0
   -2.6554   -0.6427    0.1719 C   0  0  0  0  0  0  0  0  0  0  0  0
   -4.8672   -0.3031   -0.3911 H   0  0  0  0  0  0  0  0  0  0  0  0
   -3.7104    0.6701   -0.9168 H   0  0  0  0  0  0  0  0  0  0  0  0
   -4.1882    1.1880    0.9692 H   0  0  0  0  0  0  0  0  0  0  0  0
   -1.3977    0.0907    0.0678 C   0  0  0  0  0  0  0  0  0  0  0  0
   -2.5804   -1.1476   -0.5201 H   0  0  0  0  0  0  0  0  0  0  0  0
   -2.6850   -1.4421    1.2915 H   0  0  0  0  0  0  0  0  0  0  0  0
   -0.2021   -0.6331   -0.0603 C   0  0  0  0  0  0  0  0  0  0  0  0
   -1.4343    0.8915    1.0120 H   0  0  0  0  0  0  0  0  0  0  0  0
   -1.3762    0.7111   -0.8093 H   0  0  0  0  0  0  0  0  0  0  0  0
   -0.0356   -1.0899    0.7230 H   0  0  0  0  0  0  0  0  0  0  0  0
    0.6832   -0.0335   -0.0231 H   0  0  0  0  0  0  0  0  0  0  0  0
   -0.3596   -1.3988   -0.9888 H   0  0  0  0  0  0  0  0  0  0  0  0
  1  2  1  0  0  0  0
  1  5  1  0  0  0  0
  2  8  1  0  0  0  0
  3  1  1  0  0  0  0
  4  1  1  0  0  0  0
  6  2  1  0  0  0  0
  6 10  1  0  0  0  0
  7  2  1  0  0  0  0
  9 13  1  0  0  0  0
  9  6  1  0  0  0  0
  9 12  1  0  0  0  0
 11  6  1  0  0  0  0
 14  9  1  0  0  0  0
M  END
$$$$
