butane_opt
 OpenBabel08242015383D

 14 13  0  0  0  0  0  0  0  0999 V2000
   -3.9632    0.2909    0.0881 C   0  0  0  0  0  0  0  0  0  0  0  0
   -2.7083   -0.6386   -0.0240 C   0  0  0  0  0  0  0  0  0  0  0  0
   -4.8603   -0.2564    0.0726 H   0  0  0  0  0  0  0  0  0  0  0  0
   -4.1913    0.9146   -0.7758 H   0  0  0  0  0  0  0  0  0  0  0  0
   -4.0282    1.0040    0.9277 H   0  0  0  0  0  0  0  0  0  0  0  0
   -1.3962    0.1414   -0.0717 C   0  0  0  0  0  0  0  0  0  0  0  0
   -2.8229   -1.4448   -0.9934 H   0  0  0  0  0  0  0  0  0  0  0  0
   -2.5362   -1.1993    0.8148 H   0  0  0  0  0  0  0  0  0  0  0  0
   -0.1296   -0.6620    0.1012 C   0  0  0  0  0  0  0  0  0  0  0  0
   -1.5271    0.8026    0.7887 H   0  0  0  0  0  0  0  0  0  0  0  0
   -1.2817    0.6338   -0.8861 H   0  0  0  0  0  0  0  0  0  0  0  0
   -0.2072   -1.3853    1.0609 H   0  0  0  0  0  0  0  0  0  0  0  0
    0.8680   -0.0020   -0.0145 H   0  0  0  0  0  0  0  0  0  0  0  0
   -0.0783   -1.0957   -0.6855 H   0  0  0  0  0  0  0  0  0  0  0  0
  1  5  1  0  0  0  0
  2  1  1  0  0  0  0
  2  8  1  0  0  0  0
  3  1  1  0  0  0  0
  4  1  1  0  0  0  0
  6  2  1  0  0  0  0
  6  9  1  0  0  0  0
  6 10  1  0  0  0  0
  7  2  1  0  0  0  0
  9 12  1  0  0  0  0
 11  6  1  0  0  0  0
 13  9  1  0  0  0  0
 14  9  1  0  0  0  0
M  END
$$$$
