14
butane_opt
C  -3.967290   0.291349   0.094807
C  -2.660480  -0.611185  -0.113249
H  -4.924169  -0.345986   0.686753
H  -4.237782   0.948691  -0.857716
H  -3.638341   0.791427   0.953942
C  -1.382224   0.155932  -0.067707
H  -2.650932  -1.479091  -1.018183
H  -2.588545  -1.291644   0.749658
C  -0.203491  -0.680551   0.128534
H  -1.570909   0.892482   0.797826
H  -1.300370   0.760147  -0.953186
H  -0.287344  -1.386480   1.100320
H   0.778672   0.008869   0.135608
H  -0.059890  -1.200325  -0.657581
