butane_opt
 OpenBabel08242015383D

 14 13  0  0  0  0  0  0  0  0999 V2000
   -4.0000    0.2832   -0.0433 C   0  0  0  0  0  0  0  0  0  0  0  0
   -2.6851   -0.6624    0.0727 C   0  0  0  0  0  0  0  0  0  0  0  0
   -4.8719   -0.3400    0.3161 H   0  0  0  0  0  0  0  0  0  0  0  0
   -4.1537    1.2602   -1.1912 H   0  0  0  0  0  0  0  0  0  0  0  0
   -3.9615    0.7131    0.5814 H   0  0  0  0  0  0  0  0  0  0  0  0
   -1.3700    0.2030    0.1141 C   0  0  0  0  0  0  0  0  0  0  0  0
   -2.5566   -1.3392   -0.7394 H   0  0  0  0  0  0  0  0  0  0  0  0
   -2.8070   -1.3460    1.0569 H   0  0  0  0  0  0  0  0  0  0  0  0
   -0.1329   -0.6699   -0.0401 C   0  0  0  0  0  0  0  0  0  0  0  0
   -1.2892    0.9267    1.0240 H   0  0  0  0  0  0  0  0  0  0  0  0
   -1.4889    0.6157   -0.6518 H   0  0  0  0  0  0  0  0  0  0  0  0
   -0.2227   -1.2177    0.8615 H   0  0  0  0  0  0  0  0  0  0  0  0
    0.7002   -0.1088   -0.0773 H   0  0  0  0  0  0  0  0  0  0  0  0
   -0.1070   -1.4716   -1.0254 H   0  0  0  0  0  0  0  0  0  0  0  0
  1  2  1  0  0  0  0
  1  3  1  0  0  0  0
  1  5  1  0  0  0  0
  2  6  1  0  0  0  0
  2  8  1  0  0  0  0
  4  1  1  0  0  0  0
  6 10  1  0  0  0  0
  7  2  1  0  0  0  0
  9  6  1  0  0  0  0
  9 12  1  0  0  0  0
 11  6  1  0  0  0  0
 13  9  1  0  0  0  0
 14  9  1  0  0  0  0
M  END
$$$$
