14
butane_opt
C  -3.942574   0.241050  -0.037438
C  -2.745421  -0.581014   0.085905
H  -4.914929  -0.371778   0.426811
H  -4.078480   1.297826  -1.176813
H  -3.919557   0.357263   0.493213
C  -1.408663   0.250717   0.087176
H  -2.729807  -1.324528  -0.811947
H  -2.891229  -1.145648   0.964063
C  -0.095625  -0.755974  -0.020804
H  -1.332135   0.975699   1.003698
H  -1.362679   0.740426  -0.614963
H  -0.167398  -1.102320   0.653222
H   0.797978  -0.141924   0.018873
H  -0.079493  -1.622142  -0.979194
