butane_opt
 OpenBabel08242015383D

 14 13  0  0  0  0  0  0  0  0999 V2000
   -3.9180    0.2977   -0.0719 C   0  0  0  0  0  0  0  0  0  0  0  0
   -2.6702   -0.6361    0.1620 C   0  0  0  0  0  0  0  0  0  0  0  0
   -4.7143   -0.2617   -0.2637 H   0  0  0  0  0  0  0  0  0  0  0  0
   -3.9633    0.8733   -0.9549 H   0  0  0  0  0  0  0  0  0  0  0  0
   -4.0888    1.0836    0.8588 H   0  0  0  0  0  0  0  0  0  0  0  0
   -1.4043    0.1215    0.0829 C   0  0  0  0  0  0  0  0  0  0  0  0
   -2.6315   -1.3379   -0.6746 H   0  0  0  0  0  0  0  0  0  0  0  0
   -2.8105   -1.3379    1.1276 H   0  0  0  0  0  0  0  0  0  0  0  0
   -0.2259   -0.6755   -0.0394 C   0  0  0  0  0  0  0  0  0  0  0  0
   -1.1902    0.7767    0.9512 H   0  0  0  0  0  0  0  0  0  0  0  0
   -1.4137    0.8123   -0.9310 H   0  0  0  0  0  0  0  0  0  0  0  0
   -0.1422   -0.9510    0.7145 H   0  0  0  0  0  0  0  0  0  0  0  0
    0.8144    0.0065   -0.0505 H   0  0  0  0  0  0  0  0  0  0  0  0
   -0.2773   -1.3978   -0.9538 H   0  0  0  0  0  0  0  0  0  0  0  0
  1  2  1  0  0  0  0
  1  5  1  0  0  0  0
  2  8  1  0  0  0  0
  3  1  1  0  0  0  0
  4  1  1  0  0  0  0
  6  2  1  0  0  0  0
  6 10  1  0  0  0  0
  7  2  1  0  0  0  0
  9  6  1  0  0  0  0
  9 12  1  0  0  0  0
 11  6  1  0  0  0  0
 13  9  1  0  0  0  0
 14  9  1  0  0  0  0
M  END
$$$$
