butane_opt
 OpenBabel08242015383D

 14 13  0  0  0  0  0  0  0  0999 V2000
   -3.9002    0.2917    0.0538 C   0  0  0  0  0  0  0  0  0  0  0  0
   -2.6924   -0.6471    0.0540 C   0  0  0  0  0  0  0  0  0  0  0  0
   -4.7602   -0.2489   -0.2767 H   0  0  0  0  0  0  0  0  0  0  0  0
   -3.8327    0.5729   -0.6365 H   0  0  0  0  0  0  0  0  0  0  0  0
   -4.1072    1.1529    0.9854 H   0  0  0  0  0  0  0  0  0  0  0  0
   -1.4172    0.1753   -0.0520 C   0  0  0  0  0  0  0  0  0  0  0  0
   -2.6146   -1.5085   -0.8978 H   0  0  0  0  0  0  0  0  0  0  0  0
   -2.7183   -1.1510    0.8846 H   0  0  0  0  0  0  0  0  0  0  0  0
   -0.1996   -0.6749    0.0547 C   0  0  0  0  0  0  0  0  0  0  0  0
   -1.4232    0.8127    0.7953 H   0  0  0  0  0  0  0  0  0  0  0  0
   -1.5019    0.8589   -1.0442 H   0  0  0  0  0  0  0  0  0  0  0  0
   -0.1788   -1.4781    1.0864 H   0  0  0  0  0  0  0  0  0  0  0  0
    0.8494   -0.0612    0.0222 H   0  0  0  0  0  0  0  0  0  0  0  0
   -0.2524   -1.1433   -0.7317 H   0  0  0  0  0  0  0  0  0  0  0  0
  1  2  1  0  0  0  0
  1  5  1  0  0  0  0
  2  8  1  0  0  0  0
  3  1  1  0  0  0  0
  4  1  1  0  0  0  0
  6  2  1  0  0  0  0
  6  9  1  0  0  0  0
  6 10  1  0  0  0  0
  7  2  1  0  0  0  0
  9 12  1  0  0  0  0
 11  6  1  0  0  0  0
 13  9  1  0  0  0  0
 14  9  1  0  0  0  0
M  END
$$$$
