14
butane_opt
C  -3.905025   0.290516   0.068379
C  -2.677894  -0.644833   0.012078
H  -4.886295  -0.279692  -0.284757
H  -3.819754   0.544897  -0.652677
H  -3.963704   1.334198   1.178820
C  -1.428494   0.151876  -0.075048
H  -2.695712  -1.170519  -0.715488
H  -2.869393  -1.299887   0.878418
C  -0.190464  -0.685100   0.079200
H  -1.425403   0.767066   0.760434
H  -1.441930   0.839737  -0.994275
H  -0.354469  -1.343406   1.037192
H   0.858318   0.065444  -0.020850
H  -0.039344  -1.270188  -0.720459
