butane_opt
 OpenBabel08242015383D

 14 13  0  0  0  0  0  0  0  0999 V2000
   -3.9454    0.2755    0.0521 C   0  0  0  0  0  0  0  0  0  0  0  0
   -2.7023   -0.6187   -0.0110 C   0  0  0  0  0  0  0  0  0  0  0  0
   -4.8678   -0.3335    0.1626 H   0  0  0  0  0  0  0  0  0  0  0  0
   -3.9737    0.8948   -0.8621 H   0  0  0  0  0  0  0  0  0  0  0  0
   -3.8889    0.9309    0.9305 H   0  0  0  0  0  0  0  0  0  0  0  0
   -1.4021    0.1726   -0.0208 C   0  0  0  0  0  0  0  0  0  0  0  0
   -2.7074   -1.3525   -0.8746 H   0  0  0  0  0  0  0  0  0  0  0  0
   -2.6414   -1.2211    0.8607 H   0  0  0  0  0  0  0  0  0  0  0  0
   -0.1717   -0.6865    0.0659 C   0  0  0  0  0  0  0  0  0  0  0  0
   -1.3514    0.8521    0.8448 H   0  0  0  0  0  0  0  0  0  0  0  0
   -1.3943    0.8145   -0.9397 H   0  0  0  0  0  0  0  0  0  0  0  0
   -0.2157   -1.3864    1.0167 H   0  0  0  0  0  0  0  0  0  0  0  0
    0.7783   -0.0635    0.0510 H   0  0  0  0  0  0  0  0  0  0  0  0
   -0.1137   -1.3125   -0.7735 H   0  0  0  0  0  0  0  0  0  0  0  0
  1  3  1  0  0  0  0
  1  5  1  0  0  0  0
  2  1  1  0  0  0  0
  2  8  1  0  0  0  0
  4  1  1  0  0  0  0
  6  2  1  0  0  0  0
  6  9  1  0  0  0  0
  6 10  1  0  0  0  0
  7  2  1  0  0  0  0
  9 12  1  0  0  0  0
 11  6  1  0  0  0  0
 13  9  1  0  0  0  0
 14  9  1  0  0  0  0
M  END
$$$$
