butane_opt
 OpenBabel08242015383D

 14 12  0  0  0  0  0  0  0  0999 V2000
   -3.9450    0.2771    0.1098 C   0  0  0  0  0  0  0  0  0  0  0  0
   -2.6527   -0.6633   -0.0026 C   0  0  0  0  0  0  0  0  0  0  0  0
   -4.7905   -0.2465   -0.3390 H   0  0  0  0  0  0  0  0  0  0  0  0
   -3.8821    0.5595   -0.5116 H   0  0  0  0  0  0  0  0  0  0  0  0
   -4.1611    1.4344    1.1979 H   0  0  0  0  0  0  0  0  0  0  0  0
   -1.3921    0.1685   -0.1209 C   0  0  0  0  0  0  0  0  0  0  0  0
   -2.8417   -1.4250   -0.9573 H   0  0  0  0  0  0  0  0  0  0  0  0
   -2.6586   -1.2442    0.8158 H   0  0  0  0  0  0  0  0  0  0  0  0
   -0.2044   -0.6836    0.1305 C   0  0  0  0  0  0  0  0  0  0  0  0
   -1.5789    0.7289    0.6477 H   0  0  0  0  0  0  0  0  0  0  0  0
   -1.2918    1.0466   -1.2283 H   0  0  0  0  0  0  0  0  0  0  0  0
   -0.1219   -1.3067    1.0207 H   0  0  0  0  0  0  0  0  0  0  0  0
    0.7974   -0.0163    0.0777 H   0  0  0  0  0  0  0  0  0  0  0  0
   -0.1821   -1.1812   -0.6330 H   0  0  0  0  0  0  0  0  0  0  0  0
  2  1  1  0  0  0  0
  2  8  1  0  0  0  0
  3  1  1  0  0  0  0
  4  1  1  0  0  0  0
  6  2  1  0  0  0  0
  6  9  1  0  0  0  0
  6 10  1  0  0  0  0
  7  2  1  0  0  0  0
  9 12  1  0  0  0  0
 11  6  1  0  0  0  0
 13  9  1  0  0  0  0
 14  9  1  0  0  0  0
M  RAD  2   1   2   5   2
M  END
$$$$
