14
butane_opt
C  -3.957940   0.310017   0.113660
C  -2.698348  -0.668173  -0.031281
H  -4.934220  -0.295883   0.133654
H  -4.040132   0.961436  -0.781730
H  -3.954005   1.025144   1.078101
C  -1.389114   0.149410  -0.148273
H  -2.917846  -1.267416  -0.784112
H  -2.583734  -1.300215   0.814857
C  -0.137815  -0.671336   0.102744
H  -1.467902   0.763678   0.725308
H  -1.228376   0.753860  -0.986484
H  -0.525693  -1.115510   0.938886
H   0.784071  -0.006275   0.673907
H   0.037232  -1.432515  -0.839531
