butane_opt
 OpenBabel08242015383D

 14 13  0  0  0  0  0  0  0  0999 V2000
   -3.9901    0.2655    0.0847 C   0  0  0  0  0  0  0  0  0  0  0  0
   -2.6953   -0.6308    0.0282 C   0  0  0  0  0  0  0  0  0  0  0  0
   -4.8224   -0.3639    0.0014 H   0  0  0  0  0  0  0  0  0  0  0  0
   -3.9210    0.8447   -0.8621 H   0  0  0  0  0  0  0  0  0  0  0  0
   -3.8524    0.8655    0.8853 H   0  0  0  0  0  0  0  0  0  0  0  0
   -1.4112    0.2050   -0.0884 C   0  0  0  0  0  0  0  0  0  0  0  0
   -2.9667   -1.3367   -0.8504 H   0  0  0  0  0  0  0  0  0  0  0  0
   -2.5497   -1.1910    0.8709 H   0  0  0  0  0  0  0  0  0  0  0  0
   -0.1351   -0.6963    0.0885 C   0  0  0  0  0  0  0  0  0  0  0  0
   -1.4344    0.8411    0.7681 H   0  0  0  0  0  0  0  0  0  0  0  0
   -1.3408    1.0247   -1.1755 H   0  0  0  0  0  0  0  0  0  0  0  0
   -0.2277   -1.0106    0.8432 H   0  0  0  0  0  0  0  0  0  0  0  0
    0.6854   -0.2369    0.5129 H   0  0  0  0  0  0  0  0  0  0  0  0
    0.1629   -1.6417   -0.9592 H   0  0  0  0  0  0  0  0  0  0  0  0
  1  5  1  0  0  0  0
  2  1  1  0  0  0  0
  2  8  1  0  0  0  0
  3  1  1  0  0  0  0
  4  1  1  0  0  0  0
  6  2  1  0  0  0  0
  6  9  1  0  0  0  0
  6 10  1  0  0  0  0
  7  2  1  0  0  0  0
  9 13  1  0  0  0  0
  9 12  1  0  0  0  0
 11  6  1  0  0  0  0
 14  9  1  0  0  0  0
M  END
$$$$
