butane_opt
 OpenBabel08242015383D

 14 13  0  0  0  0  0  0  0  0999 V2000
   -3.9751    0.2178   -0.0374 C   0  0  0  0  0  0  0  0  0  0  0  0
   -2.7202   -0.5657    0.0984 C   0  0  0  0  0  0  0  0  0  0  0  0
   -4.9792   -0.4399    0.2695 H   0  0  0  0  0  0  0  0  0  0  0  0
   -3.9872    1.1732   -1.2017 H   0  0  0  0  0  0  0  0  0  0  0  0
   -3.9363    0.6110    0.6510 H   0  0  0  0  0  0  0  0  0  0  0  0
   -1.3987    0.2214    0.0569 C   0  0  0  0  0  0  0  0  0  0  0  0
   -2.6764   -1.0976   -0.6152 H   0  0  0  0  0  0  0  0  0  0  0  0
   -2.7346   -1.2626    1.0469 H   0  0  0  0  0  0  0  0  0  0  0  0
   -0.1047   -0.7315   -0.0459 C   0  0  0  0  0  0  0  0  0  0  0  0
   -1.2749    0.9828    0.9972 H   0  0  0  0  0  0  0  0  0  0  0  0
   -1.5035    0.7352   -0.6221 H   0  0  0  0  0  0  0  0  0  0  0  0
   -0.2589   -1.0075    0.7133 H   0  0  0  0  0  0  0  0  0  0  0  0
    0.6418   -0.2204    0.3151 H   0  0  0  0  0  0  0  0  0  0  0  0
    0.1177   -1.6935   -1.0498 H   0  0  0  0  0  0  0  0  0  0  0  0
  1  2  1  0  0  0  0
  1  3  1  0  0  0  0
  1  5  1  0  0  0  0
  2  8  1  0  0  0  0
  4  1  1  0  0  0  0
  6  2  1  0  0  0  0
  6 10  1  0  0  0  0
  7  2  1  0  0  0  0
  9  6  1  0  0  0  0
  9 13  1  0  0  0  0
  9 12  1  0  0  0  0
 11  6  1  0  0  0  0
 14  9  1  0  0  0  0
M  END
$$$$
