butane_opt
 OpenBabel08242015383D

 14 13  0  0  0  0  0  0  0  0999 V2000
   -3.9497    0.2680    0.0519 C   0  0  0  0  0  0  0  0  0  0  0  0
   -2.6958   -0.6251    0.0073 C   0  0  0  0  0  0  0  0  0  0  0  0
   -4.8793   -0.3200    0.0526 H   0  0  0  0  0  0  0  0  0  0  0  0
   -4.0158    0.8570   -0.8097 H   0  0  0  0  0  0  0  0  0  0  0  0
   -3.9817    0.9793    0.9362 H   0  0  0  0  0  0  0  0  0  0  0  0
   -1.4011    0.1805   -0.0252 C   0  0  0  0  0  0  0  0  0  0  0  0
   -2.7383   -1.3083   -0.8739 H   0  0  0  0  0  0  0  0  0  0  0  0
   -2.6972   -1.2231    0.8955 H   0  0  0  0  0  0  0  0  0  0  0  0
   -0.1555   -0.6933    0.0648 C   0  0  0  0  0  0  0  0  0  0  0  0
   -1.4490    0.8113    0.7946 H   0  0  0  0  0  0  0  0  0  0  0  0
   -1.3256    0.9086   -0.9784 H   0  0  0  0  0  0  0  0  0  0  0  0
   -0.1764   -1.3056    0.9579 H   0  0  0  0  0  0  0  0  0  0  0  0
    0.7974   -0.0678    0.1142 H   0  0  0  0  0  0  0  0  0  0  0  0
   -0.1310   -1.3726   -0.8325 H   0  0  0  0  0  0  0  0  0  0  0  0
  1  3  1  0  0  0  0
  1  5  1  0  0  0  0
  2  1  1  0  0  0  0
  2  8  1  0  0  0  0
  4  1  1  0  0  0  0
  6  2  1  0  0  0  0
  6  9  1  0  0  0  0
  6 10  1  0  0  0  0
  7  2  1  0  0  0  0
  9 13  1  0  0  0  0
  9 12  1  0  0  0  0
 11  6  1  0  0  0  0
 14  9  1  0  0  0  0
M  END
$$$$
