butane_opt
 OpenBabel08242015383D

 14 13  0  0  0  0  0  0  0  0999 V2000
   -3.9635    0.2721    0.0037 C   0  0  0  0  0  0  0  0  0  0  0  0
   -2.7013   -0.6249    0.0417 C   0  0  0  0  0  0  0  0  0  0  0  0
   -4.8419   -0.2752    0.1536 H   0  0  0  0  0  0  0  0  0  0  0  0
   -4.0377    1.0004   -0.9585 H   0  0  0  0  0  0  0  0  0  0  0  0
   -3.9355    0.8699    0.8475 H   0  0  0  0  0  0  0  0  0  0  0  0
   -1.4009    0.1654    0.0198 C   0  0  0  0  0  0  0  0  0  0  0  0
   -2.7288   -1.3215   -0.8237 H   0  0  0  0  0  0  0  0  0  0  0  0
   -2.6972   -1.2659    0.9493 H   0  0  0  0  0  0  0  0  0  0  0  0
   -0.1480   -0.6804    0.0223 C   0  0  0  0  0  0  0  0  0  0  0  0
   -1.3453    0.8837    0.9463 H   0  0  0  0  0  0  0  0  0  0  0  0
   -1.3952    0.7510   -0.8336 H   0  0  0  0  0  0  0  0  0  0  0  0
   -0.1672   -1.2588    0.8968 H   0  0  0  0  0  0  0  0  0  0  0  0
    0.7867   -0.0820    0.0306 H   0  0  0  0  0  0  0  0  0  0  0  0
   -0.1069   -1.3453   -0.8347 H   0  0  0  0  0  0  0  0  0  0  0  0
  1  2  1  0  0  0  0
  1  3  1  0  0  0  0
  1  5  1  0  0  0  0
  2  8  1  0  0  0  0
  4  1  1  0  0  0  0
  6  9  1  0  0  0  0
  6  2  1  0  0  0  0
  6 10  1  0  0  0  0
  7  2  1  0  0  0  0
  9 13  1  0  0  0  0
  9 12  1  0  0  0  0
 11  6  1  0  0  0  0
 14  9  1  0  0  0  0
M  END
$$$$
