14
butane_opt
C  -3.928799   0.211191   0.065151
C  -2.723860  -0.544551   0.018520
H  -4.834245  -0.361616   0.015980
H  -3.838554   0.811126  -0.805466
H  -3.848853   0.894102   0.986883
C  -1.419961   0.184364  -0.101717
H  -2.761146  -1.101599  -0.737143
H  -2.634739  -1.203282   0.955710
C  -0.148495  -0.733580   0.078041
H  -1.467392   1.004397   0.786240
H  -1.480101   0.847041  -0.920547
H  -0.273547  -1.114035   0.904515
H   0.748269  -0.148017   0.429139
H   0.033690  -1.547458  -0.913891
