butane_opt
 OpenBabel08242015383D

 14 11  0  0  0  0  0  0  0  0999 V2000
   -3.8977    0.2251    0.0721 C   0  0  0  0  0  0  0  0  0  0  0  0
   -2.6731   -0.5734   -0.0243 C   0  0  0  0  0  0  0  0  0  0  0  0
   -4.8790   -0.4265   -0.2948 H   0  0  0  0  0  0  0  0  0  0  0  0
   -3.8400    0.3711   -0.5212 H   0  0  0  0  0  0  0  0  0  0  0  0
   -4.1318    1.3210    1.3104 H   0  0  0  0  0  0  0  0  0  0  0  0
   -1.4384    0.2293   -0.0697 C   0  0  0  0  0  0  0  0  0  0  0  0
   -2.7397   -1.2321   -0.8127 H   0  0  0  0  0  0  0  0  0  0  0  0
   -2.6886   -1.2500    0.9580 H   0  0  0  0  0  0  0  0  0  0  0  0
   -0.1897   -0.7187    0.0930 C   0  0  0  0  0  0  0  0  0  0  0  0
   -1.5771    0.7571    0.6445 H   0  0  0  0  0  0  0  0  0  0  0  0
   -1.2525    0.9677   -1.0077 H   0  0  0  0  0  0  0  0  0  0  0  0
   -0.0906   -1.5805    1.1234 H   0  0  0  0  0  0  0  0  0  0  0  0
    0.6596   -0.1680   -0.1262 H   0  0  0  0  0  0  0  0  0  0  0  0
   -0.0640   -1.2051   -0.6340 H   0  0  0  0  0  0  0  0  0  0  0  0
  2  1  1  0  0  0  0
  2  8  1  0  0  0  0
  3  1  1  0  0  0  0
  6  2  1  0  0  0  0
  6  9  1  0  0  0  0
  6 10  1  0  0  0  0
  7  2  1  0  0  0  0
  9 12  1  0  0  0  0
 11  6  1  0  0  0  0
 13  9  1  0  0  0  0
 14  9  1  0  0  0  0
M  RAD  3   1   3   4   2   5   2
M  END
$$$$
