butane_opt
 OpenBabel08242015383D

 14 13  0  0  0  0  0  0  0  0999 V2000
   -3.9565    0.2400    0.1201 C   0  0  0  0  0  0  0  0  0  0  0  0
   -2.7208   -0.5716   -0.0642 C   0  0  0  0  0  0  0  0  0  0  0  0
   -4.9079   -0.2684    0.1364 H   0  0  0  0  0  0  0  0  0  0  0  0
   -4.1407    0.7236   -0.6790 H   0  0  0  0  0  0  0  0  0  0  0  0
   -3.8088    0.8916    1.0105 H   0  0  0  0  0  0  0  0  0  0  0  0
   -1.4206    0.2014   -0.1356 C   0  0  0  0  0  0  0  0  0  0  0  0
   -2.8523   -1.1672   -0.8446 H   0  0  0  0  0  0  0  0  0  0  0  0
   -2.6488   -1.2851    0.8240 H   0  0  0  0  0  0  0  0  0  0  0  0
   -0.1265   -0.7243    0.1529 C   0  0  0  0  0  0  0  0  0  0  0  0
   -1.4146    0.8475    0.6693 H   0  0  0  0  0  0  0  0  0  0  0  0
   -1.3014    0.8234   -1.0754 H   0  0  0  0  0  0  0  0  0  0  0  0
   -0.2125   -1.1808    0.9428 H   0  0  0  0  0  0  0  0  0  0  0  0
    0.8598   -0.0687    0.3668 H   0  0  0  0  0  0  0  0  0  0  0  0
    0.0881   -1.5354   -0.8039 H   0  0  0  0  0  0  0  0  0  0  0  0
  1  3  1  0  0  0  0
  1  5  1  0  0  0  0
  2  1  1  0  0  0  0
  2  8  1  0  0  0  0
  4  1  1  0  0  0  0
  6  2  1  0  0  0  0
  6  9  1  0  0  0  0
  6 10  1  0  0  0  0
  7  2  1  0  0  0  0
  9 13  1  0  0  0  0
  9 12  1  0  0  0  0
 11  6  1  0  0  0  0
 14  9  1  0  0  0  0
M  END
$$$$
