14
butane_opt
C  -3.978185   0.246327   0.004454
C  -2.736775  -0.601826  -0.011156
H  -4.794234  -0.310174   0.508255
H  -4.265757   1.089794  -0.995052
H  -3.619350   0.730176   0.826197
C  -1.386529   0.208836   0.033848
H  -2.712444  -1.326288  -0.948368
H  -2.714640  -1.256726   0.844393
C  -0.140251  -0.695054   0.056042
H  -1.323612   0.962981   0.878891
H  -1.323976   0.791664  -0.774139
H  -0.061382  -1.425921   0.991652
H   0.664381  -0.190819  -0.083132
H   0.024228  -1.426046  -0.834757
