14
butane_opt
C  -3.944547   0.254037  -0.022146
C  -2.705631  -0.601070   0.086253
H  -4.880133  -0.386858  -0.105306
H  -3.890449   0.816689  -0.871949
H  -3.959068   0.960790   0.862577
C  -1.412965   0.196502   0.045077
H  -2.652255  -1.259751  -0.725195
H  -2.741559  -1.250089   1.018627
C  -0.157067  -0.706827  -0.001790
H  -1.360239   0.877027   0.916743
H  -1.449441   0.869701  -0.886451
H  -0.058402  -1.283886   0.851935
H   0.764689  -0.124144  -0.024061
H  -0.153805  -1.409341  -0.884757
