butane_opt
 OpenBabel08242015383D

 14 13  0  0  0  0  0  0  0  0999 V2000
   -3.9320    0.2760   -0.0126 C   0  0  0  0  0  0  0  0  0  0  0  0
   -2.6780   -0.6311    0.1297 C   0  0  0  0  0  0  0  0  0  0  0  0
   -4.9242   -0.3876   -0.5017 H   0  0  0  0  0  0  0  0  0  0  0  0
   -3.6247    0.7974   -0.8309 H   0  0  0  0  0  0  0  0  0  0  0  0
   -4.2458    1.2113    0.9231 H   0  0  0  0  0  0  0  0  0  0  0  0
   -1.3769    0.1378    0.0261 C   0  0  0  0  0  0  0  0  0  0  0  0
   -2.5999   -1.0624   -0.6131 H   0  0  0  0  0  0  0  0  0  0  0  0
   -2.6774   -1.3289    1.0981 H   0  0  0  0  0  0  0  0  0  0  0  0
   -0.2041   -0.6598   -0.0258 C   0  0  0  0  0  0  0  0  0  0  0  0
   -1.3211    0.9012    0.8714 H   0  0  0  0  0  0  0  0  0  0  0  0
   -1.4998    0.6761   -0.8165 H   0  0  0  0  0  0  0  0  0  0  0  0
   -0.1868   -1.3179    0.8376 H   0  0  0  0  0  0  0  0  0  0  0  0
    0.6606   -0.1075    0.0490 H   0  0  0  0  0  0  0  0  0  0  0  0
   -0.2959   -1.3667   -0.9516 H   0  0  0  0  0  0  0  0  0  0  0  0
  1  2  1  0  0  0  0
  1  5  1  0  0  0  0
  2  8  1  0  0  0  0
  3  1  1  0  0  0  0
  4  1  1  0  0  0  0
  6  2  1  0  0  0  0
  6 10  1  0  0  0  0
  7  2  1  0  0  0  0
  9  6  1  0  0  0  0
  9 13  1  0  0  0  0
  9 12  1  0  0  0  0
 11  6  1  0  0  0  0
 14  9  1  0  0  0  0
M  END
$$$$
