14
butane_opt
C  -3.964187   0.286702  -0.035019
C  -2.706541  -0.638600   0.130835
H  -4.873646  -0.257380   0.118130
H  -4.021965   1.135037  -1.108319
H  -4.213046   0.784868   0.602039
C  -1.410644   0.148562   0.072950
H  -2.693921  -1.362893  -0.747039
H  -2.689854  -1.371400   1.063455
C  -0.115460  -0.655815  -0.044265
H  -1.413617   0.785802   0.983316
H  -1.337214   0.816451  -0.830237
H  -0.292421  -1.026529   0.663592
H   0.883656   0.044540   0.256681
H  -0.023191  -1.694020  -1.120685
