butane_opt
 OpenBabel08242015383D

 14 13  0  0  0  0  0  0  0  0999 V2000
   -3.9335    0.2868   -0.0570 C   0  0  0  0  0  0  0  0  0  0  0  0
   -2.7074   -0.6520    0.1102 C   0  0  0  0  0  0  0  0  0  0  0  0
   -4.8856   -0.3584    0.0367 H   0  0  0  0  0  0  0  0  0  0  0  0
   -3.9557    1.0024   -1.0407 H   0  0  0  0  0  0  0  0  0  0  0  0
   -4.1164    0.9297    0.7448 H   0  0  0  0  0  0  0  0  0  0  0  0
   -1.3890    0.1899    0.1130 C   0  0  0  0  0  0  0  0  0  0  0  0
   -2.5578   -1.2579   -0.8014 H   0  0  0  0  0  0  0  0  0  0  0  0
   -2.7173   -1.3237    1.0279 H   0  0  0  0  0  0  0  0  0  0  0  0
   -0.1883   -0.6625   -0.0731 C   0  0  0  0  0  0  0  0  0  0  0  0
   -1.2582    0.8965    1.0036 H   0  0  0  0  0  0  0  0  0  0  0  0
   -1.4151    0.5837   -0.6213 H   0  0  0  0  0  0  0  0  0  0  0  0
   -0.0401   -1.4895    0.9438 H   0  0  0  0  0  0  0  0  0  0  0  0
    0.7222   -0.1720   -0.1102 H   0  0  0  0  0  0  0  0  0  0  0  0
   -0.1728   -1.2201   -0.8325 H   0  0  0  0  0  0  0  0  0  0  0  0
  1  3  1  0  0  0  0
  1  2  1  0  0  0  0
  1  5  1  0  0  0  0
  2  6  1  0  0  0  0
  2  8  1  0  0  0  0
  4  1  1  0  0  0  0
  6 10  1  0  0  0  0
  7  2  1  0  0  0  0
  9  6  1  0  0  0  0
  9 12  1  0  0  0  0
 11  6  1  0  0  0  0
 13  9  1  0  0  0  0
 14  9  1  0  0  0  0
M  END
$$$$
