14
butane_opt
C  -3.944160   0.261015   0.023628
C  -2.706332  -0.609171   0.039438
H  -4.844732  -0.327569  -0.083921
H  -3.952008   0.760675  -0.809894
H  -3.984132   0.999547   0.945318
C  -1.396306   0.193747   0.008193
H  -2.714518  -1.312886  -0.846925
H  -2.748422  -1.240368   0.950262
C  -0.163520  -0.697990   0.036715
H  -1.419186   0.816431   0.827979
H  -1.361857   0.901852  -0.935022
H  -0.082700  -1.380944   0.948542
H   0.716201  -0.129044  -0.029451
H  -0.109031  -1.333733  -0.811284
