14
butane_opt
C  -3.944970   0.277117   0.109799
C  -2.652673  -0.663269  -0.002562
H  -4.790515  -0.246497  -0.338976
H  -3.882107   0.559546  -0.511645
H  -4.161080   1.434417   1.197883
C  -1.392067   0.168472  -0.120865
H  -2.841738  -1.425008  -0.957329
H  -2.658577  -1.244217   0.815780
C  -0.204423  -0.683631   0.130533
H  -1.578913   0.728855   0.647728
H  -1.291786   1.046617  -1.228294
H  -0.121901  -1.306675   1.020685
H   0.797366  -0.016348   0.077694
H  -0.182120  -1.181177  -0.632962
