butane_opt
 OpenBabel08242015383D

 14 11  0  0  0  0  0  0  0  0999 V2000
   -3.9891    0.3037   -0.0096 C   0  0  0  0  0  0  0  0  0  0  0  0
   -2.6951   -0.6770    0.0348 C   0  0  0  0  0  0  0  0  0  0  0  0
   -4.8975   -0.2317    0.5075 H   0  0  0  0  0  0  0  0  0  0  0  0
   -4.1260    1.4642   -1.2316 H   0  0  0  0  0  0  0  0  0  0  0  0
   -4.0355    0.5980    0.5412 H   0  0  0  0  0  0  0  0  0  0  0  0
   -1.3693    0.1389    0.0774 C   0  0  0  0  0  0  0  0  0  0  0  0
   -2.7650   -1.3547   -0.8627 H   0  0  0  0  0  0  0  0  0  0  0  0
   -2.6973   -1.4213    0.9897 H   0  0  0  0  0  0  0  0  0  0  0  0
   -0.1440   -0.6524   -0.0165 C   0  0  0  0  0  0  0  0  0  0  0  0
   -1.3351    1.0212    1.0536 H   0  0  0  0  0  0  0  0  0  0  0  0
   -1.4963    0.6535   -0.6481 H   0  0  0  0  0  0  0  0  0  0  0  0
   -0.1039   -1.1112    0.7924 H   0  0  0  0  0  0  0  0  0  0  0  0
    0.8476    0.0389    0.1374 H   0  0  0  0  0  0  0  0  0  0  0  0
   -0.0731   -1.4576   -0.9252 H   0  0  0  0  0  0  0  0  0  0  0  0
  1  2  1  0  0  0  0
  1  3  1  0  0  0  0
  2  6  1  0  0  0  0
  2  8  1  0  0  0  0
  6 10  1  0  0  0  0
  7  2  1  0  0  0  0
  9  6  1  0  0  0  0
  9 13  1  0  0  0  0
  9 12  1  0  0  0  0
 11  6  1  0  0  0  0
 14  9  1  0  0  0  0
M  RAD  3   1   3   4   2   5   2
M  END
$$$$
