14
butane_opt
C  -3.951138   0.270171   0.042431
C  -2.700913  -0.622560   0.012761
H  -4.838488  -0.289593   0.067437
H  -4.009047   0.854181  -0.824597
H  -4.033074   0.962926   0.929563
C  -1.395505   0.185762  -0.014508
H  -2.743171  -1.341263  -0.851831
H  -2.704949  -1.251009   0.913782
C  -0.156236  -0.694400   0.057957
H  -1.402410   0.791380   0.792225
H  -1.308232   0.846285  -0.962983
H  -0.166269  -1.268048   0.932303
H   0.746716  -0.083329   0.076899
H  -0.115750  -1.357165  -0.814450
