butane_opt
 OpenBabel08242015383D

 14 13  0  0  0  0  0  0  0  0999 V2000
   -3.9611    0.3186    0.0269 C   0  0  0  0  0  0  0  0  0  0  0  0
   -2.7093   -0.6563    0.0249 C   0  0  0  0  0  0  0  0  0  0  0  0
   -4.8942   -0.3266    0.1464 H   0  0  0  0  0  0  0  0  0  0  0  0
   -4.0057    0.7557   -0.7737 H   0  0  0  0  0  0  0  0  0  0  0  0
   -3.9055    1.0800    0.9751 H   0  0  0  0  0  0  0  0  0  0  0  0
   -1.3827    0.1278   -0.0480 C   0  0  0  0  0  0  0  0  0  0  0  0
   -2.5043   -1.1944   -0.6964 H   0  0  0  0  0  0  0  0  0  0  0  0
   -2.6928   -1.2914    0.9963 H   0  0  0  0  0  0  0  0  0  0  0  0
   -0.1665   -0.6685    0.0658 C   0  0  0  0  0  0  0  0  0  0  0  0
   -1.3451    0.7962    0.7902 H   0  0  0  0  0  0  0  0  0  0  0  0
   -1.2381    0.7595   -1.0065 H   0  0  0  0  0  0  0  0  0  0  0  0
   -0.3871   -1.0716    0.8496 H   0  0  0  0  0  0  0  0  0  0  0  0
    0.7499   -0.0540    0.2996 H   0  0  0  0  0  0  0  0  0  0  0  0
   -0.1645   -1.4043   -0.9607 H   0  0  0  0  0  0  0  0  0  0  0  0
  1  3  1  0  0  0  0
  1  5  1  0  0  0  0
  2  1  1  0  0  0  0
  2  8  1  0  0  0  0
  4  1  1  0  0  0  0
  6  2  1  0  0  0  0
  6  9  1  0  0  0  0
  6 10  1  0  0  0  0
  7  2  1  0  0  0  0
  9 13  1  0  0  0  0
  9 12  1  0  0  0  0
 11  6  1  0  0  0  0
 14  9  1  0  0  0  0
M  END
$$$$
