14
butane_opt
C  -3.954641   0.248051  -0.064662
C  -2.730985  -0.620346   0.089388
H  -4.933039  -0.377270   0.144774
H  -3.966160   1.011687  -1.066932
H  -3.993857   0.758095   0.749125
C  -1.410149   0.266960   0.101388
H  -2.702175  -1.124637  -0.597783
H  -2.636700  -1.482941   1.150888
C  -0.139134  -0.713345  -0.042453
H  -1.408445   0.887030   0.942995
H  -1.423762   0.676132  -0.739877
H   0.127376  -1.153499   0.698483
H   0.785514  -0.199652   0.155982
H  -0.056430  -1.622545  -1.039111
