14
butane_opt
C  -3.977092   0.251530  -0.011310
C  -2.721426  -0.611899   0.103392
H  -4.975422  -0.454587   0.011411
H  -3.878385   0.857955  -0.951243
H  -4.054007   0.950327   0.990305
C  -1.429113   0.225843  -0.006759
H  -2.592351  -1.274293  -0.697622
H  -2.802430  -1.175320   0.959117
C  -0.083726  -0.711148   0.013825
H  -1.277465   0.852479   0.770556
H  -1.410686   0.807071  -0.873160
H  -0.236294  -1.139047   0.802746
H   0.730025  -0.207754   0.223647
H   0.043785  -1.567266  -0.984431
