14
butane_opt
C  -3.897656   0.224545  -0.048858
C  -2.701636  -0.570042   0.134614
H  -4.894946  -0.405455  -0.096187
H  -3.953454   0.810846  -0.842840
H  -3.925853   0.868497   0.804143
C  -1.462926   0.238713   0.040732
H  -2.628114  -1.235513  -0.677773
H  -2.820070  -1.392556   1.196046
C  -0.151565  -0.721548  -0.029718
H  -1.426696   0.889568   0.868153
H  -1.332726   0.848084  -0.944249
H  -0.093224  -1.029878   0.716790
H   0.633902  -0.276631   0.326771
H   0.006852  -1.641770  -1.104567
