14
butane_opt
C  -3.893623   0.215908   0.077047
C  -2.714714  -0.581675  -0.076669
H  -4.766960  -0.291690   0.424644
H  -4.262956   1.063264  -0.935730
H  -3.626719   0.638650   0.908758
C  -1.428991   0.230319  -0.021254
H  -2.894213  -1.190914  -0.948188
H  -2.691028  -1.049648   0.759215
C  -0.161607  -0.734492   0.078175
H  -1.427563   0.891161   0.889340
H  -1.317357   0.879448  -0.896417
H  -0.295466  -1.445208   1.023070
H   0.720834  -0.248991   0.152017
H  -0.040922  -1.286993  -0.660533
