14
butane_opt
C  -3.908733   0.298472   0.091224
C  -2.681593  -0.657466  -0.094933
H  -4.775771  -0.288679   0.622888
H  -4.279865   0.956248  -0.887385
H  -3.781353   0.759099   0.876982
C  -1.396901   0.178953  -0.048528
H  -2.888735  -1.340404  -1.018955
H  -2.678422  -1.186469   0.684293
C  -0.189432  -0.700920   0.105829
H  -1.358814   0.994780   0.865973
H  -1.390034   0.845945  -0.974198
H  -0.423201  -1.393661   1.093923
H   0.761605  -0.068136   0.145378
H  -0.082163  -1.171275  -0.598502
