14
butane_opt
C  -3.990616   0.308168   0.121989
C  -2.676069  -0.680888  -0.028273
H  -4.888192  -0.209699   0.007274
H  -4.136340   0.967883  -0.732018
H  -3.982906   0.930852   0.984790
C  -1.396660   0.170585  -0.141640
H  -2.824824  -1.345944  -0.878228
H  -2.558674  -1.435655   0.887054
C  -0.172006  -0.656400   0.118497
H  -1.278697   0.780773   0.690761
H  -1.278446   0.783785  -1.009474
H  -0.351390  -1.040354   0.932648
H   0.839955  -0.033820   0.555275
H   0.226175  -1.550344  -0.886207
