butane_opt
 OpenBabel08242015383D

 14 13  0  0  0  0  0  0  0  0999 V2000
   -3.8804    0.2302   -0.1064 C   0  0  0  0  0  0  0  0  0  0  0  0
   -2.7304   -0.5722    0.1598 C   0  0  0  0  0  0  0  0  0  0  0  0
   -4.8174   -0.4162   -0.1810 H   0  0  0  0  0  0  0  0  0  0  0  0
   -3.6778    0.6413   -0.9141 H   0  0  0  0  0  0  0  0  0  0  0  0
   -4.0121    1.0083    0.8783 H   0  0  0  0  0  0  0  0  0  0  0  0
   -1.4599    0.2202    0.1435 C   0  0  0  0  0  0  0  0  0  0  0  0
   -2.6244   -1.1075   -0.5915 H   0  0  0  0  0  0  0  0  0  0  0  0
   -2.7595   -1.2385    1.0095 H   0  0  0  0  0  0  0  0  0  0  0  0
   -0.1380   -0.7299   -0.0649 C   0  0  0  0  0  0  0  0  0  0  0  0
   -1.3694    0.8051    0.9207 H   0  0  0  0  0  0  0  0  0  0  0  0
   -1.5893    0.9514   -0.8135 H   0  0  0  0  0  0  0  0  0  0  0  0
   -0.0631   -1.3219    0.7830 H   0  0  0  0  0  0  0  0  0  0  0  0
    0.7582   -0.1997   -0.2105 H   0  0  0  0  0  0  0  0  0  0  0  0
   -0.3459   -1.3910   -0.9948 H   0  0  0  0  0  0  0  0  0  0  0  0
  1  2  1  0  0  0  0
  1  5  1  0  0  0  0
  2  8  1  0  0  0  0
  3  1  1  0  0  0  0
  4  1  1  0  0  0  0
  6  2  1  0  0  0  0
  6 10  1  0  0  0  0
  7  2  1  0  0  0  0
  9  6  1  0  0  0  0
  9 12  1  0  0  0  0
 11  6  1  0  0  0  0
 13  9  1  0  0  0  0
 14  9  1  0  0  0  0
M  END
$$$$
