butane_opt
 OpenBabel08242015383D

 14 13  0  0  0  0  0  0  0  0999 V2000
   -3.8946    0.2354    0.1178 C   0  0  0  0  0  0  0  0  0  0  0  0
   -2.7114   -0.5757   -0.0680 C   0  0  0  0  0  0  0  0  0  0  0  0
   -4.8934   -0.3867    0.0836 H   0  0  0  0  0  0  0  0  0  0  0  0
   -4.0019    0.6954   -0.6894 H   0  0  0  0  0  0  0  0  0  0  0  0
   -3.8557    0.9921    1.1091 H   0  0  0  0  0  0  0  0  0  0  0  0
   -1.4040    0.2371   -0.1118 C   0  0  0  0  0  0  0  0  0  0  0  0
   -2.8764   -1.2925   -1.0259 H   0  0  0  0  0  0  0  0  0  0  0  0
   -2.4739   -1.3190    0.8998 H   0  0  0  0  0  0  0  0  0  0  0  0
   -0.2015   -0.7415    0.1356 C   0  0  0  0  0  0  0  0  0  0  0  0
   -1.5463    0.8448    0.6913 H   0  0  0  0  0  0  0  0  0  0  0  0
   -1.2639    0.9572   -1.0801 H   0  0  0  0  0  0  0  0  0  0  0  0
   -0.2916   -1.2704    1.0454 H   0  0  0  0  0  0  0  0  0  0  0  0
    0.6554   -0.1564    0.1573 H   0  0  0  0  0  0  0  0  0  0  0  0
    0.0968   -1.4206   -0.6589 H   0  0  0  0  0  0  0  0  0  0  0  0
  1  5  1  0  0  0  0
  2  1  1  0  0  0  0
  2  8  1  0  0  0  0
  3  1  1  0  0  0  0
  4  1  1  0  0  0  0
  6  2  1  0  0  0  0
  6  9  1  0  0  0  0
  6 10  1  0  0  0  0
  7  2  1  0  0  0  0
  9 13  1  0  0  0  0
  9 12  1  0  0  0  0
 11  6  1  0  0  0  0
 14  9  1  0  0  0  0
M  END
$$$$
