butane_opt
 OpenBabel08242015383D

 14 13  0  0  0  0  0  0  0  0999 V2000
   -3.9866    0.2443    0.0752 C   0  0  0  0  0  0  0  0  0  0  0  0
   -2.6998   -0.6250    0.0175 C   0  0  0  0  0  0  0  0  0  0  0  0
   -4.8835   -0.3118    0.1183 H   0  0  0  0  0  0  0  0  0  0  0  0
   -3.9137    0.8792   -0.8256 H   0  0  0  0  0  0  0  0  0  0  0  0
   -3.9841    0.8672    0.8508 H   0  0  0  0  0  0  0  0  0  0  0  0
   -1.4050    0.2112   -0.0730 C   0  0  0  0  0  0  0  0  0  0  0  0
   -2.9331   -1.2529   -0.8227 H   0  0  0  0  0  0  0  0  0  0  0  0
   -2.6020   -1.0850    0.8872 H   0  0  0  0  0  0  0  0  0  0  0  0
   -0.1290   -0.6991    0.0804 C   0  0  0  0  0  0  0  0  0  0  0  0
   -1.4266    0.7612    0.6900 H   0  0  0  0  0  0  0  0  0  0  0  0
   -1.3524    0.9661   -1.0798 H   0  0  0  0  0  0  0  0  0  0  0  0
   -0.1286   -1.0625    0.7826 H   0  0  0  0  0  0  0  0  0  0  0  0
    0.6547   -0.2310    0.5420 H   0  0  0  0  0  0  0  0  0  0  0  0
    0.1845   -1.6109   -0.9305 H   0  0  0  0  0  0  0  0  0  0  0  0
  1  3  1  0  0  0  0
  1  5  1  0  0  0  0
  2  1  1  0  0  0  0
  2  8  1  0  0  0  0
  4  1  1  0  0  0  0
  6  2  1  0  0  0  0
  6  9  1  0  0  0  0
  6 10  1  0  0  0  0
  7  2  1  0  0  0  0
  9 13  1  0  0  0  0
  9 12  1  0  0  0  0
 11  6  1  0  0  0  0
 14  9  1  0  0  0  0
M  END
$$$$
