14
butane_opt
C  -3.937036   0.255003   0.043475
C  -2.700835  -0.599928   0.010205
H  -4.901973  -0.385310   0.072439
H  -3.957627   0.795241  -0.803847
H  -3.885865   0.991579   0.962528
C  -1.414693   0.196283  -0.032377
H  -2.702238  -1.283279  -0.836009
H  -2.733196  -1.218377   0.918607
C  -0.163473  -0.707635   0.067377
H  -1.407066   0.871205   0.809210
H  -1.351489   0.871961  -0.959928
H  -0.164628  -1.343372   0.933903
H   0.761631  -0.104530   0.085115
H  -0.083175  -1.400192  -0.795734
