butane_opt
 OpenBabel08242015383D

 14 11  0  0  0  0  0  0  0  0999 V2000
   -3.9962    0.2815    0.1160 C   0  0  0  0  0  0  0  0  0  0  0  0
   -2.6770   -0.6669   -0.0752 C   0  0  0  0  0  0  0  0  0  0  0  0
   -4.7888   -0.1870   -0.1460 H   0  0  0  0  0  0  0  0  0  0  0  0
   -4.0969    0.8101   -0.6763 H   0  0  0  0  0  0  0  0  0  0  0  0
   -4.1270    1.0213    1.0514 H   0  0  0  0  0  0  0  0  0  0  0  0
   -1.3952    0.1689   -0.0231 C   0  0  0  0  0  0  0  0  0  0  0  0
   -2.7763   -1.4570   -1.0408 H   0  0  0  0  0  0  0  0  0  0  0  0
   -2.6082   -1.0730    0.6067 H   0  0  0  0  0  0  0  0  0  0  0  0
   -0.1671   -0.6702    0.1109 C   0  0  0  0  0  0  0  0  0  0  0  0
   -1.3115    0.7821    0.7581 H   0  0  0  0  0  0  0  0  0  0  0  0
   -1.2697    0.9161   -1.0063 H   0  0  0  0  0  0  0  0  0  0  0  0
    0.1007   -1.6585    1.2915 H   0  0  0  0  0  0  0  0  0  0  0  0
    0.8346   -0.0832   -0.4398 H   0  0  0  0  0  0  0  0  0  0  0  0
   -0.1770   -0.8795   -0.4553 H   0  0  0  0  0  0  0  0  0  0  0  0
  1  5  1  0  0  0  0
  2  6  1  0  0  0  0
  2  1  1  0  0  0  0
  2  8  1  0  0  0  0
  3  1  1  0  0  0  0
  4  1  1  0  0  0  0
  6  9  1  0  0  0  0
  6 10  1  0  0  0  0
  7  2  1  0  0  0  0
 11  6  1  0  0  0  0
 13  9  1  0  0  0  0
M  RAD  3   9   3  12   2  14   2
M  END
$$$$
