butane_opt
 OpenBabel08242015383D

 14 13  0  0  0  0  0  0  0  0999 V2000
   -3.9063    0.2340   -0.1094 C   0  0  0  0  0  0  0  0  0  0  0  0
   -2.7224   -0.5492    0.1280 C   0  0  0  0  0  0  0  0  0  0  0  0
   -4.9785   -0.4561    0.1302 H   0  0  0  0  0  0  0  0  0  0  0  0
   -3.8942    0.9638   -1.0331 H   0  0  0  0  0  0  0  0  0  0  0  0
   -3.8494    0.7160    0.6434 H   0  0  0  0  0  0  0  0  0  0  0  0
   -1.4285    0.1972    0.1795 C   0  0  0  0  0  0  0  0  0  0  0  0
   -2.5545   -1.3405   -0.7522 H   0  0  0  0  0  0  0  0  0  0  0  0
   -2.8648   -1.1739    0.9815 H   0  0  0  0  0  0  0  0  0  0  0  0
   -0.1456   -0.7048   -0.0724 C   0  0  0  0  0  0  0  0  0  0  0  0
   -1.4161    0.8895    1.0658 H   0  0  0  0  0  0  0  0  0  0  0  0
   -1.5372    0.8589   -0.6568 H   0  0  0  0  0  0  0  0  0  0  0  0
    0.2041   -1.5144    0.9617 H   0  0  0  0  0  0  0  0  0  0  0  0
    0.7042   -0.2157   -0.3798 H   0  0  0  0  0  0  0  0  0  0  0  0
   -0.3983   -1.3443   -1.0213 H   0  0  0  0  0  0  0  0  0  0  0  0
  1  2  1  0  0  0  0
  1  3  1  0  0  0  0
  1  5  1  0  0  0  0
  2  6  1  0  0  0  0
  2  8  1  0  0  0  0
  4  1  1  0  0  0  0
  6 10  1  0  0  0  0
  7  2  1  0  0  0  0
  9  6  1  0  0  0  0
  9 12  1  0  0  0  0
 11  6  1  0  0  0  0
 13  9  1  0  0  0  0
 14  9  1  0  0  0  0
M  END
$$$$
