14
butane_opt
C  -3.939278   0.230665  -0.074035
C  -2.699753  -0.580519   0.100712
H  -4.955928  -0.478249   0.112187
H  -4.032906   1.044617  -1.112307
H  -3.931610   0.736224   0.654358
C  -1.427436   0.259036   0.119399
H  -2.788772  -1.329544  -0.753715
H  -2.663285  -1.308943   1.092666
C  -0.143400  -0.734039  -0.048218
H  -1.239074   1.145843   1.093225
H  -1.410417   0.672861  -0.582999
H   0.088367  -1.520956   0.876475
H   0.769108  -0.251949  -0.220061
H  -0.293207  -1.292068  -0.909928
