butane_opt
 OpenBabel08242015383D

 14 12  0  0  0  0  0  0  0  0999 V2000
   -3.9282    0.2176   -0.0168 C   0  0  0  0  0  0  0  0  0  0  0  0
   -2.6860   -0.5338    0.1452 C   0  0  0  0  0  0  0  0  0  0  0  0
   -4.8957   -0.4732   -0.1698 H   0  0  0  0  0  0  0  0  0  0  0  0
   -3.6627    0.9855   -1.1419 H   0  0  0  0  0  0  0  0  0  0  0  0
   -3.9584    0.6683    0.7121 H   0  0  0  0  0  0  0  0  0  0  0  0
   -1.4183    0.2114    0.0420 C   0  0  0  0  0  0  0  0  0  0  0  0
   -2.6765   -1.1942   -0.6329 H   0  0  0  0  0  0  0  0  0  0  0  0
   -2.7078   -1.2354    1.0894 H   0  0  0  0  0  0  0  0  0  0  0  0
   -0.1873   -0.7149   -0.0326 C   0  0  0  0  0  0  0  0  0  0  0  0
   -1.4626    0.8669    0.8721 H   0  0  0  0  0  0  0  0  0  0  0  0
   -1.5733    0.8019   -0.7991 H   0  0  0  0  0  0  0  0  0  0  0  0
   -0.1448   -1.0884    0.6595 H   0  0  0  0  0  0  0  0  0  0  0  0
    0.7162   -0.1498    0.3387 H   0  0  0  0  0  0  0  0  0  0  0  0
   -0.0208   -1.8222   -1.1994 H   0  0  0  0  0  0  0  0  0  0  0  0
  1  2  1  0  0  0  0
  1  5  1  0  0  0  0
  2  8  1  0  0  0  0
  3  1  1  0  0  0  0
  4  1  1  0  0  0  0
  6  2  1  0  0  0  0
  6 10  1  0  0  0  0
  7  2  1  0  0  0  0
  9  6  1  0  0  0  0
  9 13  1  0  0  0  0
  9 12  1  0  0  0  0
 11  6  1  0  0  0  0
M  RAD  2   9   2  14   2
M  END
$$$$
