butane_opt
 OpenBabel08242015383D

 14 13  0  0  0  0  0  0  0  0999 V2000
   -3.9339    0.2526    0.0043 C   0  0  0  0  0  0  0  0  0  0  0  0
   -2.7065   -0.5975    0.0427 C   0  0  0  0  0  0  0  0  0  0  0  0
   -4.8703   -0.3640    0.1852 H   0  0  0  0  0  0  0  0  0  0  0  0
   -3.9833    1.0046   -1.0013 H   0  0  0  0  0  0  0  0  0  0  0  0
   -3.8858    0.8125    0.7813 H   0  0  0  0  0  0  0  0  0  0  0  0
   -1.4047    0.1888    0.0257 C   0  0  0  0  0  0  0  0  0  0  0  0
   -2.7482   -1.2619   -0.7802 H   0  0  0  0  0  0  0  0  0  0  0  0
   -2.7299   -1.2433    0.9413 H   0  0  0  0  0  0  0  0  0  0  0  0
   -0.1559   -0.7046    0.0179 C   0  0  0  0  0  0  0  0  0  0  0  0
   -1.3896    0.9735    0.9548 H   0  0  0  0  0  0  0  0  0  0  0  0
   -1.4542    0.7768   -0.8306 H   0  0  0  0  0  0  0  0  0  0  0  0
   -0.1455   -1.2874    0.9001 H   0  0  0  0  0  0  0  0  0  0  0  0
    0.7697   -0.1270    0.0751 H   0  0  0  0  0  0  0  0  0  0  0  0
   -0.1710   -1.4282   -0.8869 H   0  0  0  0  0  0  0  0  0  0  0  0
  1  2  1  0  0  0  0
  1  3  1  0  0  0  0
  1  5  1  0  0  0  0
  2  8  1  0  0  0  0
  4  1  1  0  0  0  0
  6  2  1  0  0  0  0
  6 10  1  0  0  0  0
  7  2  1  0  0  0  0
  9  6  1  0  0  0  0
  9 13  1  0  0  0  0
  9 12  1  0  0  0  0
 11  6  1  0  0  0  0
 14  9  1  0  0  0  0
M  END
$$$$
