butane_opt
 OpenBabel08242015383D

 14 13  0  0  0  0  0  0  0  0999 V2000
   -3.9087    0.2985    0.0912 C   0  0  0  0  0  0  0  0  0  0  0  0
   -2.6816   -0.6575   -0.0949 C   0  0  0  0  0  0  0  0  0  0  0  0
   -4.7758   -0.2887    0.6229 H   0  0  0  0  0  0  0  0  0  0  0  0
   -4.2799    0.9562   -0.8874 H   0  0  0  0  0  0  0  0  0  0  0  0
   -3.7814    0.7591    0.8770 H   0  0  0  0  0  0  0  0  0  0  0  0
   -1.3969    0.1790   -0.0485 C   0  0  0  0  0  0  0  0  0  0  0  0
   -2.8887   -1.3404   -1.0190 H   0  0  0  0  0  0  0  0  0  0  0  0
   -2.6784   -1.1865    0.6843 H   0  0  0  0  0  0  0  0  0  0  0  0
   -0.1894   -0.7009    0.1058 C   0  0  0  0  0  0  0  0  0  0  0  0
   -1.3588    0.9948    0.8660 H   0  0  0  0  0  0  0  0  0  0  0  0
   -1.3900    0.8459   -0.9742 H   0  0  0  0  0  0  0  0  0  0  0  0
   -0.4232   -1.3937    1.0939 H   0  0  0  0  0  0  0  0  0  0  0  0
    0.7616   -0.0681    0.1454 H   0  0  0  0  0  0  0  0  0  0  0  0
   -0.0822   -1.1713   -0.5985 H   0  0  0  0  0  0  0  0  0  0  0  0
  1  3  1  0  0  0  0
  1  5  1  0  0  0  0
  2  6  1  0  0  0  0
  2  1  1  0  0  0  0
  2  8  1  0  0  0  0
  4  1  1  0  0  0  0
  6  9  1  0  0  0  0
  6 10  1  0  0  0  0
  7  2  1  0  0  0  0
  9 13  1  0  0  0  0
  9 12  1  0  0  0  0
 11  6  1  0  0  0  0
 14  9  1  0  0  0  0
M  END
$$$$
