butane_opt
 OpenBabel08242015383D

 14 13  0  0  0  0  0  0  0  0999 V2000
   -3.9346    0.2883    0.0676 C   0  0  0  0  0  0  0  0  0  0  0  0
   -2.6585   -0.6546   -0.0067 C   0  0  0  0  0  0  0  0  0  0  0  0
   -4.7618   -0.1692   -0.1634 H   0  0  0  0  0  0  0  0  0  0  0  0
   -4.0373    0.6605   -0.5522 H   0  0  0  0  0  0  0  0  0  0  0  0
   -4.0570    1.2723    1.1673 H   0  0  0  0  0  0  0  0  0  0  0  0
   -1.3820    0.1564   -0.0448 C   0  0  0  0  0  0  0  0  0  0  0  0
   -2.8224   -1.4022   -0.9152 H   0  0  0  0  0  0  0  0  0  0  0  0
   -2.7648   -1.2585    0.8811 H   0  0  0  0  0  0  0  0  0  0  0  0
   -0.2179   -0.6635    0.0975 C   0  0  0  0  0  0  0  0  0  0  0  0
   -1.4403    0.5702    0.6222 H   0  0  0  0  0  0  0  0  0  0  0  0
   -1.3039    1.0308   -1.2383 H   0  0  0  0  0  0  0  0  0  0  0  0
   -0.3153   -1.3380    0.9916 H   0  0  0  0  0  0  0  0  0  0  0  0
    0.8105    0.0734    0.0376 H   0  0  0  0  0  0  0  0  0  0  0  0
   -0.0498   -1.4022   -0.7339 H   0  0  0  0  0  0  0  0  0  0  0  0
  1  5  1  0  0  0  0
  2  1  1  0  0  0  0
  2  8  1  0  0  0  0
  3  1  1  0  0  0  0
  4  1  1  0  0  0  0
  6  2  1  0  0  0  0
  6  9  1  0  0  0  0
  6 10  1  0  0  0  0
  7  2  1  0  0  0  0
  9 12  1  0  0  0  0
 11  6  1  0  0  0  0
 13  9  1  0  0  0  0
 14  9  1  0  0  0  0
M  END
$$$$
