14
butane_opt
C  -3.933457   0.286808  -0.056989
C  -2.707352  -0.652009   0.110162
H  -4.885574  -0.358388   0.036727
H  -3.955745   1.002418  -1.040732
H  -4.116355   0.929715   0.744780
C  -1.389025   0.189853   0.113033
H  -2.557804  -1.257876  -0.801426
H  -2.717317  -1.323706   1.027914
C  -0.188279  -0.662455  -0.073141
H  -1.258240   0.896524   1.003614
H  -1.415064   0.583676  -0.621342
H  -0.040114  -1.489546   0.943789
H   0.722182  -0.172043  -0.110178
H  -0.172807  -1.220111  -0.832533
