14
butane_opt
C  -3.992082   0.236207  -0.042655
C  -2.716748  -0.575551   0.085013
H  -4.972839  -0.390177   0.071435
H  -3.777117   0.979923  -0.978110
H  -4.002956   0.744641   0.702924
C  -1.407154   0.232470   0.104338
H  -2.782367  -1.354518  -0.844042
H  -2.643857  -1.153351   0.836385
C  -0.114136  -0.726519  -0.022814
H  -1.238841   0.963212   1.006161
H  -1.420998   0.743462  -0.691838
H   0.149071  -1.594921   1.013418
H   0.760097  -0.124187  -0.347485
H  -0.326359  -1.286763  -0.801904
