14
butane_opt
C  -3.876929   0.233783   0.061318
C  -2.701677  -0.574897  -0.055620
H  -4.861139  -0.471904   0.520979
H  -4.161545   1.106983  -1.025738
H  -3.624847   0.736206   0.886396
C  -1.441914   0.210351   0.014444
H  -2.841040  -1.355757  -0.973296
H  -2.804811  -0.982668   0.706716
C  -0.159117  -0.716642   0.060551
H  -1.528393   0.743101   0.774336
H  -1.374300   0.837964  -0.958342
H  -0.143960  -1.404467   1.084803
H   0.662133  -0.207045   0.131941
H  -0.167695  -1.302033  -0.679713
