14
butane_opt
C  -3.880443   0.230155  -0.106412
C  -2.730392  -0.572171   0.159771
H  -4.817420  -0.416202  -0.180983
H  -3.677847   0.641278  -0.914063
H  -4.012075   1.008349   0.878332
C  -1.459877   0.220217   0.143548
H  -2.624379  -1.107488  -0.591523
H  -2.759467  -1.238497   1.009511
C  -0.137966  -0.729895  -0.064910
H  -1.369445   0.805123   0.920681
H  -1.589250   0.951402  -0.813466
H  -0.063109  -1.321919   0.783034
H   0.758171  -0.199708  -0.210466
H  -0.345892  -1.391008  -0.994804
