14
butane_opt
C  -3.942913   0.255341   0.000194
C  -2.698555  -0.602587   0.045436
H  -4.882858  -0.355460   0.051329
H  -3.994025   0.867082  -0.908689
H  -3.972491   0.887587   0.830309
C  -1.405815   0.204981   0.043164
H  -2.713394  -1.324295  -0.817014
H  -2.776624  -1.248726   0.970746
C  -0.153250  -0.703693   0.009258
H  -1.391127   0.879246   0.914617
H  -1.388879   0.814113  -0.848377
H  -0.019652  -1.375376   0.951733
H   0.694248  -0.152230  -0.061047
H  -0.164284  -1.315093  -0.814068
