butane_opt
 OpenBabel08242015383D

 14 12  0  0  0  0  0  0  0  0999 V2000
   -3.9213    0.2380   -0.0631 C   0  0  0  0  0  0  0  0  0  0  0  0
   -2.7423   -0.5899    0.0852 C   0  0  0  0  0  0  0  0  0  0  0  0
   -4.8064   -0.2904    0.4389 H   0  0  0  0  0  0  0  0  0  0  0  0
   -4.1167    1.2491   -1.2148 H   0  0  0  0  0  0  0  0  0  0  0  0
   -3.8031    0.4967    0.5610 H   0  0  0  0  0  0  0  0  0  0  0  0
   -1.3975    0.2295    0.0870 C   0  0  0  0  0  0  0  0  0  0  0  0
   -2.7730   -1.2846   -0.7650 H   0  0  0  0  0  0  0  0  0  0  0  0
   -2.9251   -1.2992    1.0648 H   0  0  0  0  0  0  0  0  0  0  0  0
   -0.1212   -0.7052   -0.0478 C   0  0  0  0  0  0  0  0  0  0  0  0
   -1.2576    1.0891    1.2051 H   0  0  0  0  0  0  0  0  0  0  0  0
   -1.6687    0.6112   -0.5835 H   0  0  0  0  0  0  0  0  0  0  0  0
   -0.0584   -1.2774    0.8321 H   0  0  0  0  0  0  0  0  0  0  0  0
    0.6908   -0.2973    0.1020 H   0  0  0  0  0  0  0  0  0  0  0  0
   -0.1155   -1.5203   -0.9719 H   0  0  0  0  0  0  0  0  0  0  0  0
  1  2  1  0  0  0  0
  1  3  1  0  0  0  0
  1  5  1  0  0  0  0
  2  6  1  0  0  0  0
  2  8  1  0  0  0  0
  6 10  1  0  0  0  0
  7  2  1  0  0  0  0
  9  6  1  0  0  0  0
  9 13  1  0  0  0  0
  9 12  1  0  0  0  0
 11  6  1  0  0  0  0
 14  9  1  0  0  0  0
M  RAD  2   1   2   4   2
M  END
$$$$
