butane_opt
 OpenBabel08242015383D

 14 13  0  0  0  0  0  0  0  0999 V2000
   -3.9854    0.3030   -0.0539 C   0  0  0  0  0  0  0  0  0  0  0  0
   -2.7085   -0.6611    0.0965 C   0  0  0  0  0  0  0  0  0  0  0  0
   -4.8069   -0.1038   -0.1302 H   0  0  0  0  0  0  0  0  0  0  0  0
   -3.9170    1.0432   -1.0497 H   0  0  0  0  0  0  0  0  0  0  0  0
   -4.1651    0.8424    0.7065 H   0  0  0  0  0  0  0  0  0  0  0  0
   -1.3674    0.1321    0.1301 C   0  0  0  0  0  0  0  0  0  0  0  0
   -2.7001   -1.2797   -0.6776 H   0  0  0  0  0  0  0  0  0  0  0  0
   -2.9344   -1.3265    1.0148 H   0  0  0  0  0  0  0  0  0  0  0  0
   -0.1378   -0.6550   -0.0596 C   0  0  0  0  0  0  0  0  0  0  0  0
   -1.2946    1.0273    1.1774 H   0  0  0  0  0  0  0  0  0  0  0  0
   -1.4219    0.5008   -0.5767 H   0  0  0  0  0  0  0  0  0  0  0  0
    0.0502   -1.4990    0.9334 H   0  0  0  0  0  0  0  0  0  0  0  0
    0.7960   -0.0338   -0.5208 H   0  0  0  0  0  0  0  0  0  0  0  0
   -0.2861   -1.0282   -0.7919 H   0  0  0  0  0  0  0  0  0  0  0  0
  1  2  1  0  0  0  0
  1  5  1  0  0  0  0
  2  6  1  0  0  0  0
  2  8  1  0  0  0  0
  3  1  1  0  0  0  0
  4  1  1  0  0  0  0
  6 10  1  0  0  0  0
  7  2  1  0  0  0  0
  9  6  1  0  0  0  0
  9 12  1  0  0  0  0
 11  6  1  0  0  0  0
 13  9  1  0  0  0  0
 14  9  1  0  0  0  0
M  END
$$$$
