14
butane_opt
C  -3.897652   0.225140   0.072149
C  -2.673069  -0.573364  -0.024250
H  -4.878955  -0.426494  -0.294764
H  -3.839998   0.371150  -0.521222
H  -4.131809   1.321031   1.310400
C  -1.438357   0.229268  -0.069748
H  -2.739690  -1.232071  -0.812689
H  -2.688550  -1.249960   0.958014
C  -0.189707  -0.718677   0.093046
H  -1.577094   0.757132   0.644467
H  -1.252487   0.967674  -1.007697
H  -0.090634  -1.580490   1.123378
H   0.659620  -0.167974  -0.126162
H  -0.064012  -1.205057  -0.634041
