butane_opt
 OpenBabel08242015383D

 14 13  0  0  0  0  0  0  0  0999 V2000
   -3.9207    0.2629    0.0815 C   0  0  0  0  0  0  0  0  0  0  0  0
   -2.6615   -0.6267   -0.0183 C   0  0  0  0  0  0  0  0  0  0  0  0
   -4.7491   -0.2135   -0.0727 H   0  0  0  0  0  0  0  0  0  0  0  0
   -4.0083    0.5804   -0.6403 H   0  0  0  0  0  0  0  0  0  0  0  0
   -3.9737    1.2238    1.1143 H   0  0  0  0  0  0  0  0  0  0  0  0
   -1.4347    0.1788   -0.0941 C   0  0  0  0  0  0  0  0  0  0  0  0
   -2.7255   -1.3122   -0.9064 H   0  0  0  0  0  0  0  0  0  0  0  0
   -2.6317   -1.2812    0.9100 H   0  0  0  0  0  0  0  0  0  0  0  0
   -0.1988   -0.6815    0.1136 C   0  0  0  0  0  0  0  0  0  0  0  0
   -1.3944    0.8260    0.6873 H   0  0  0  0  0  0  0  0  0  0  0  0
   -1.3942    0.8200   -1.0529 H   0  0  0  0  0  0  0  0  0  0  0  0
   -0.2820   -1.4054    1.0457 H   0  0  0  0  0  0  0  0  0  0  0  0
    0.8756    0.0548    0.0614 H   0  0  0  0  0  0  0  0  0  0  0  0
   -0.1638   -1.3437   -0.6559 H   0  0  0  0  0  0  0  0  0  0  0  0
  1  5  1  0  0  0  0
  2  1  1  0  0  0  0
  2  8  1  0  0  0  0
  3  1  1  0  0  0  0
  4  1  1  0  0  0  0
  6  2  1  0  0  0  0
  6  9  1  0  0  0  0
  6 10  1  0  0  0  0
  7  2  1  0  0  0  0
  9 12  1  0  0  0  0
 11  6  1  0  0  0  0
 13  9  1  0  0  0  0
 14  9  1  0  0  0  0
M  END
$$$$
