14
butane_opt
C  -3.962482   0.290455   0.098089
C  -2.649472  -0.632964  -0.049559
H  -4.937219  -0.316541  -0.039159
H  -4.005129   0.760986  -0.686811
H  -3.923959   1.123102   1.040125
C  -1.411128   0.155914  -0.064909
H  -2.688121  -1.476662  -0.988544
H  -2.518927  -1.154790   0.776735
C  -0.185580  -0.672439   0.140211
H  -1.355215   0.605943   0.663484
H  -1.338078   0.826608  -1.037421
H  -0.129360  -1.414843   1.109485
H   0.834785  -0.001773  -0.102870
H  -0.455065  -1.103573  -0.736478
