butane_opt
 OpenBabel08242015383D

 14 13  0  0  0  0  0  0  0  0999 V2000
   -3.9782    0.2463    0.0045 C   0  0  0  0  0  0  0  0  0  0  0  0
   -2.7368   -0.6018   -0.0112 C   0  0  0  0  0  0  0  0  0  0  0  0
   -4.7942   -0.3102    0.5083 H   0  0  0  0  0  0  0  0  0  0  0  0
   -4.2658    1.0898   -0.9951 H   0  0  0  0  0  0  0  0  0  0  0  0
   -3.6193    0.7302    0.8262 H   0  0  0  0  0  0  0  0  0  0  0  0
   -1.3865    0.2088    0.0338 C   0  0  0  0  0  0  0  0  0  0  0  0
   -2.7124   -1.3263   -0.9484 H   0  0  0  0  0  0  0  0  0  0  0  0
   -2.7146   -1.2567    0.8444 H   0  0  0  0  0  0  0  0  0  0  0  0
   -0.1403   -0.6951    0.0560 C   0  0  0  0  0  0  0  0  0  0  0  0
   -1.3236    0.9630    0.8789 H   0  0  0  0  0  0  0  0  0  0  0  0
   -1.3240    0.7917   -0.7741 H   0  0  0  0  0  0  0  0  0  0  0  0
   -0.0614   -1.4259    0.9917 H   0  0  0  0  0  0  0  0  0  0  0  0
    0.6644   -0.1908   -0.0831 H   0  0  0  0  0  0  0  0  0  0  0  0
    0.0242   -1.4260   -0.8348 H   0  0  0  0  0  0  0  0  0  0  0  0
  1  3  1  0  0  0  0
  1  5  1  0  0  0  0
  2  1  1  0  0  0  0
  2  6  1  0  0  0  0
  2  8  1  0  0  0  0
  4  1  1  0  0  0  0
  6  9  1  0  0  0  0
  6 10  1  0  0  0  0
  7  2  1  0  0  0  0
  9 12  1  0  0  0  0
 11  6  1  0  0  0  0
 13  9  1  0  0  0  0
 14  9  1  0  0  0  0
M  END
$$$$
