butane_opt
 OpenBabel08242015383D

 14 13  0  0  0  0  0  0  0  0999 V2000
   -3.9694    0.2403   -0.0782 C   0  0  0  0  0  0  0  0  0  0  0  0
   -2.7158   -0.5813    0.1879 C   0  0  0  0  0  0  0  0  0  0  0  0
   -4.8066   -0.3341   -0.2393 H   0  0  0  0  0  0  0  0  0  0  0  0
   -3.9328    0.7297   -0.9167 H   0  0  0  0  0  0  0  0  0  0  0  0
   -4.1460    1.0118    0.8953 H   0  0  0  0  0  0  0  0  0  0  0  0
   -1.4057    0.1829    0.0657 C   0  0  0  0  0  0  0  0  0  0  0  0
   -2.5916   -1.2287   -0.6239 H   0  0  0  0  0  0  0  0  0  0  0  0
   -2.8000   -1.1949    1.0600 H   0  0  0  0  0  0  0  0  0  0  0  0
   -0.1103   -0.6947   -0.0615 C   0  0  0  0  0  0  0  0  0  0  0  0
   -1.3836    0.8092    0.8073 H   0  0  0  0  0  0  0  0  0  0  0  0
   -1.4466    0.8564   -0.8475 H   0  0  0  0  0  0  0  0  0  0  0  0
   -0.1089   -1.1826    0.8545 H   0  0  0  0  0  0  0  0  0  0  0  0
    0.8348   -0.0977    0.1923 H   0  0  0  0  0  0  0  0  0  0  0  0
   -0.2125   -1.6231   -1.1033 H   0  0  0  0  0  0  0  0  0  0  0  0
  1  2  1  0  0  0  0
  1  5  1  0  0  0  0
  2  8  1  0  0  0  0
  3  1  1  0  0  0  0
  4  1  1  0  0  0  0
  6  2  1  0  0  0  0
  6 10  1  0  0  0  0
  7  2  1  0  0  0  0
  9  6  1  0  0  0  0
  9 13  1  0  0  0  0
  9 12  1  0  0  0  0
 11  6  1  0  0  0  0
 14  9  1  0  0  0  0
M  END
$$$$
