butane_opt
 OpenBabel08242015383D

 14 13  0  0  0  0  0  0  0  0999 V2000
   -3.9365    0.2951   -0.0863 C   0  0  0  0  0  0  0  0  0  0  0  0
   -2.6932   -0.6467    0.2161 C   0  0  0  0  0  0  0  0  0  0  0  0
   -4.9753   -0.3576   -0.4888 H   0  0  0  0  0  0  0  0  0  0  0  0
   -3.7210    0.8118   -1.0042 H   0  0  0  0  0  0  0  0  0  0  0  0
   -4.3302    1.1637    0.8198 H   0  0  0  0  0  0  0  0  0  0  0  0
   -1.3949    0.1461    0.1003 C   0  0  0  0  0  0  0  0  0  0  0  0
   -2.5199   -1.4004   -0.6383 H   0  0  0  0  0  0  0  0  0  0  0  0
   -2.6937   -1.2978    1.1594 H   0  0  0  0  0  0  0  0  0  0  0  0
   -0.1737   -0.6673   -0.0846 C   0  0  0  0  0  0  0  0  0  0  0  0
   -1.1518    0.8398    1.0239 H   0  0  0  0  0  0  0  0  0  0  0  0
   -1.6215    0.7983   -0.8556 H   0  0  0  0  0  0  0  0  0  0  0  0
   -0.0419   -1.1950    0.7557 H   0  0  0  0  0  0  0  0  0  0  0  0
    0.7599   -0.0315   -0.0476 H   0  0  0  0  0  0  0  0  0  0  0  0
   -0.3397   -1.3396   -0.9936 H   0  0  0  0  0  0  0  0  0  0  0  0
  1  2  1  0  0  0  0
  1  5  1  0  0  0  0
  2  8  1  0  0  0  0
  3  1  1  0  0  0  0
  4  1  1  0  0  0  0
  6  2  1  0  0  0  0
  6 10  1  0  0  0  0
  7  2  1  0  0  0  0
  9 13  1  0  0  0  0
  9  6  1  0  0  0  0
  9 12  1  0  0  0  0
 11  6  1  0  0  0  0
 14  9  1  0  0  0  0
M  END
$$$$
