butane_opt
 OpenBabel08242015383D

 14 13  0  0  0  0  0  0  0  0999 V2000
   -3.9288    0.2112    0.0652 C   0  0  0  0  0  0  0  0  0  0  0  0
   -2.7239   -0.5446    0.0185 C   0  0  0  0  0  0  0  0  0  0  0  0
   -4.8342   -0.3616    0.0160 H   0  0  0  0  0  0  0  0  0  0  0  0
   -3.8386    0.8111   -0.8055 H   0  0  0  0  0  0  0  0  0  0  0  0
   -3.8489    0.8941    0.9869 H   0  0  0  0  0  0  0  0  0  0  0  0
   -1.4200    0.1844   -0.1017 C   0  0  0  0  0  0  0  0  0  0  0  0
   -2.7611   -1.1016   -0.7371 H   0  0  0  0  0  0  0  0  0  0  0  0
   -2.6347   -1.2033    0.9557 H   0  0  0  0  0  0  0  0  0  0  0  0
   -0.1485   -0.7336    0.0780 C   0  0  0  0  0  0  0  0  0  0  0  0
   -1.4674    1.0044    0.7862 H   0  0  0  0  0  0  0  0  0  0  0  0
   -1.4801    0.8470   -0.9205 H   0  0  0  0  0  0  0  0  0  0  0  0
   -0.2735   -1.1140    0.9045 H   0  0  0  0  0  0  0  0  0  0  0  0
    0.7483   -0.1480    0.4291 H   0  0  0  0  0  0  0  0  0  0  0  0
    0.0337   -1.5475   -0.9139 H   0  0  0  0  0  0  0  0  0  0  0  0
  1  5  1  0  0  0  0
  2  1  1  0  0  0  0
  2  8  1  0  0  0  0
  3  1  1  0  0  0  0
  4  1  1  0  0  0  0
  6  2  1  0  0  0  0
  6  9  1  0  0  0  0
  6 10  1  0  0  0  0
  7  2  1  0  0  0  0
  9 13  1  0  0  0  0
  9 12  1  0  0  0  0
 11  6  1  0  0  0  0
 14  9  1  0  0  0  0
M  END
$$$$
