14
butane_opt
C  -3.956843   0.273862   0.053171
C  -2.694040  -0.627207   0.013179
H  -4.869886  -0.334465   0.090999
H  -4.062810   0.876326  -0.832860
H  -3.967101   0.974647   0.939142
C  -1.405957   0.170056  -0.043020
H  -2.732808  -1.348117  -0.866239
H  -2.661698  -1.220105   0.861731
C  -0.154445  -0.681183   0.067896
H  -1.376979   0.846839   0.804301
H  -1.310824   0.853217  -0.962859
H  -0.199469  -1.295935   0.947227
H   0.752350  -0.075871   0.170217
H  -0.057363  -1.378442  -0.805303
