14
butane_opt
C  -3.928233   0.217557  -0.016810
C  -2.686007  -0.533812   0.145224
H  -4.895707  -0.473155  -0.169781
H  -3.662664   0.985472  -1.141945
H  -3.958407   0.668343   0.712106
C  -1.418306   0.211407   0.042008
H  -2.676516  -1.194225  -0.632919
H  -2.707770  -1.235439   1.089398
C  -0.187322  -0.714906  -0.032574
H  -1.462600   0.866877   0.872127
H  -1.573275   0.801891  -0.799072
H  -0.144818  -1.088446   0.659517
H   0.716163  -0.149827   0.338660
H  -0.020832  -1.822213  -1.199427
