14
butane_opt
C  -3.894215   0.236930  -0.030637
C  -2.726917  -0.562967   0.113635
H  -4.849413  -0.473487   0.021684
H  -3.824703   1.008696  -1.027008
H  -3.894509   0.794578   0.725598
C  -1.452465   0.185705   0.065481
H  -2.607675  -1.210401  -0.721660
H  -2.708785  -1.324184   1.145804
C  -0.132963  -0.717574  -0.016740
H  -1.599848   0.825705   0.892677
H  -1.359692   0.953842  -0.914651
H  -0.282373  -0.948393   0.550758
H   0.783004  -0.167195   0.243437
H  -0.170783  -1.655202  -1.121819
