14
butane_opt
C  -3.906887   0.240933  -0.036863
C  -2.718998  -0.547616   0.073924
H  -4.819426  -0.403144   0.039680
H  -3.709509   0.874887  -0.999498
H  -3.985559   0.842229   0.691071
C  -1.433568   0.185167   0.085843
H  -2.891939  -1.231576  -0.819154
H  -2.832473  -1.295990   1.046871
C  -0.130828  -0.721267  -0.014332
H  -1.303921   1.113213   1.088511
H  -1.585763   0.562871  -0.694534
H   0.065142  -1.477249   0.998473
H   0.695608  -0.148315  -0.385482
H  -0.373458  -1.190082  -0.800469
