14
butane_opt
C  -3.952451   0.291505   0.091274
C  -2.701018  -0.667120  -0.024100
H  -4.766880  -0.234635   0.271855
H  -4.166797   0.776107  -0.635626
H  -3.930097   1.152609   1.065141
C  -1.349320   0.177706  -0.111397
H  -2.800264  -1.447727  -0.936653
H  -2.720885  -1.181825   0.714321
C  -0.184639  -0.693310   0.137871
H  -1.513295   0.689957   0.527772
H  -1.336530   1.045866  -1.218757
H  -0.361474  -1.069086   0.866853
H   0.800380  -0.082196   0.443364
H   0.012232  -1.415938  -0.757859
