14
butane_opt
C  -3.963566   0.229442   0.142667
C  -2.693267  -0.615654  -0.064516
H  -4.843011  -0.351403   0.163680
H  -4.120953   0.832945  -0.745382
H  -3.912309   1.117934   1.122749
C  -1.406127   0.224843  -0.178528
H  -3.000579  -1.236620  -0.884952
H  -2.648923  -1.269915   0.787546
C  -0.111211  -0.717424   0.162232
H  -1.483226   0.910028   0.603360
H  -1.390725   0.903698  -1.145621
H  -0.303488  -1.138122   1.041386
H   0.730667  -0.175997   0.597649
H   0.061737  -1.545183  -0.837939
