butane_opt
 OpenBabel08242015383D

 14 13  0  0  0  0  0  0  0  0999 V2000
   -3.9386    0.2985   -0.0162 C   0  0  0  0  0  0  0  0  0  0  0  0
   -2.7012   -0.6760    0.0599 C   0  0  0  0  0  0  0  0  0  0  0  0
   -4.6544   -0.1975   -0.1175 H   0  0  0  0  0  0  0  0  0  0  0  0
   -3.9282    1.0291   -1.0119 H   0  0  0  0  0  0  0  0  0  0  0  0
   -4.0070    1.0210    0.8369 H   0  0  0  0  0  0  0  0  0  0  0  0
   -1.4096    0.1525    0.0743 C   0  0  0  0  0  0  0  0  0  0  0  0
   -2.7475   -1.3699   -0.7750 H   0  0  0  0  0  0  0  0  0  0  0  0
   -2.7033   -1.2598    0.8629 H   0  0  0  0  0  0  0  0  0  0  0  0
   -0.1822   -0.6629   -0.0026 C   0  0  0  0  0  0  0  0  0  0  0  0
   -1.1645    1.0246    1.0386 H   0  0  0  0  0  0  0  0  0  0  0  0
   -1.4688    0.5592   -0.6800 H   0  0  0  0  0  0  0  0  0  0  0  0
   -0.0053   -1.5449    1.1175 H   0  0  0  0  0  0  0  0  0  0  0  0
    0.8219    0.0239   -0.5123 H   0  0  0  0  0  0  0  0  0  0  0  0
   -0.4270   -1.0507   -0.6837 H   0  0  0  0  0  0  0  0  0  0  0  0
  1  2  1  0  0  0  0
  1  5  1  0  0  0  0
  2  6  1  0  0  0  0
  2  8  1  0  0  0  0
  3  1  1  0  0  0  0
  4  1  1  0  0  0  0
  6 10  1  0  0  0  0
  7  2  1  0  0  0  0
  9  6  1  0  0  0  0
  9 12  1  0  0  0  0
 11  6  1  0  0  0  0
 13  9  1  0  0  0  0
 14  9  1  0  0  0  0
M  END
$$$$
