butane_opt
 OpenBabel08242015383D

 14 13  0  0  0  0  0  0  0  0999 V2000
   -3.9994    0.3054   -0.0914 C   0  0  0  0  0  0  0  0  0  0  0  0
   -2.6773   -0.6796    0.1774 C   0  0  0  0  0  0  0  0  0  0  0  0
   -4.7630   -0.1915   -0.1717 H   0  0  0  0  0  0  0  0  0  0  0  0
   -3.9045    0.9535   -1.1139 H   0  0  0  0  0  0  0  0  0  0  0  0
   -4.2106    0.9934    0.7034 H   0  0  0  0  0  0  0  0  0  0  0  0
   -1.3570    0.1656    0.1487 C   0  0  0  0  0  0  0  0  0  0  0  0
   -2.6925   -1.4537   -0.7054 H   0  0  0  0  0  0  0  0  0  0  0  0
   -2.8681   -1.1642    1.0253 H   0  0  0  0  0  0  0  0  0  0  0  0
   -0.1778   -0.6426   -0.0856 C   0  0  0  0  0  0  0  0  0  0  0  0
   -1.2258    0.8257    1.0338 H   0  0  0  0  0  0  0  0  0  0  0  0
   -1.3626    0.6075   -0.6737 H   0  0  0  0  0  0  0  0  0  0  0  0
   -0.0173   -1.4188    0.9264 H   0  0  0  0  0  0  0  0  0  0  0  0
    0.7326   -0.1203   -0.4141 H   0  0  0  0  0  0  0  0  0  0  0  0
   -0.2085   -1.2490   -0.9589 H   0  0  0  0  0  0  0  0  0  0  0  0
  1  2  1  0  0  0  0
  1  5  1  0  0  0  0
  2  8  1  0  0  0  0
  3  1  1  0  0  0  0
  4  1  1  0  0  0  0
  6  2  1  0  0  0  0
  6 10  1  0  0  0  0
  7  2  1  0  0  0  0
  9  6  1  0  0  0  0
  9 12  1  0  0  0  0
 11  6  1  0  0  0  0
 13  9  1  0  0  0  0
 14  9  1  0  0  0  0
M  END
$$$$
