14
butane_opt
C  -3.933457   0.268854  -0.038752
C  -2.668099  -0.623497   0.115581
H  -4.946143  -0.338274  -0.044750
H  -3.804691   1.086115  -1.198625
H  -4.105809   0.838117   0.716584
C  -1.421764   0.163700   0.111265
H  -2.651587  -1.443691  -0.838581
H  -2.817010  -1.166994   0.921062
C  -0.198129  -0.677411  -0.042597
H  -1.284236   0.974119   1.073020
H  -1.377006   0.719893  -0.640693
H   0.278574  -1.482746   0.917440
H   0.668179  -0.077621  -0.351925
H  -0.336020  -1.153686  -0.839413
