butane_opt
 OpenBabel08242015383D

 14 13  0  0  0  0  0  0  0  0999 V2000
   -3.9077    0.2373    0.1241 C   0  0  0  0  0  0  0  0  0  0  0  0
   -2.6965   -0.5730   -0.0895 C   0  0  0  0  0  0  0  0  0  0  0  0
   -4.8777   -0.4174    0.4456 H   0  0  0  0  0  0  0  0  0  0  0  0
   -4.0862    1.0596   -0.9042 H   0  0  0  0  0  0  0  0  0  0  0  0
   -3.6983    0.6472    0.8301 H   0  0  0  0  0  0  0  0  0  0  0  0
   -1.4050    0.2162   -0.0670 C   0  0  0  0  0  0  0  0  0  0  0  0
   -3.0074   -1.4006   -1.0831 H   0  0  0  0  0  0  0  0  0  0  0  0
   -2.6794   -0.9448    0.5850 H   0  0  0  0  0  0  0  0  0  0  0  0
   -0.1781   -0.7587    0.1363 C   0  0  0  0  0  0  0  0  0  0  0  0
   -1.4671    0.8727    0.7238 H   0  0  0  0  0  0  0  0  0  0  0  0
   -1.4540    0.8879   -0.9947 H   0  0  0  0  0  0  0  0  0  0  0  0
   -0.1097   -1.2755    1.0966 H   0  0  0  0  0  0  0  0  0  0  0  0
    0.7353   -0.1311    0.0830 H   0  0  0  0  0  0  0  0  0  0  0  0
   -0.1162   -1.2381   -0.6014 H   0  0  0  0  0  0  0  0  0  0  0  0
  1  3  1  0  0  0  0
  1  5  1  0  0  0  0
  2  6  1  0  0  0  0
  2  1  1  0  0  0  0
  2  8  1  0  0  0  0
  4  1  1  0  0  0  0
  6  9  1  0  0  0  0
  6 10  1  0  0  0  0
  7  2  1  0  0  0  0
  9 12  1  0  0  0  0
 11  6  1  0  0  0  0
 13  9  1  0  0  0  0
 14  9  1  0  0  0  0
M  END
$$$$
