butane_opt
 OpenBabel08242015383D

 14 13  0  0  0  0  0  0  0  0999 V2000
   -3.9229    0.2312    0.1002 C   0  0  0  0  0  0  0  0  0  0  0  0
   -2.7146   -0.5772   -0.0059 C   0  0  0  0  0  0  0  0  0  0  0  0
   -4.8615   -0.4011   -0.0267 H   0  0  0  0  0  0  0  0  0  0  0  0
   -4.0301    0.9515   -0.8621 H   0  0  0  0  0  0  0  0  0  0  0  0
   -3.9350    0.9109    0.9732 H   0  0  0  0  0  0  0  0  0  0  0  0
   -1.3864    0.2243   -0.0618 C   0  0  0  0  0  0  0  0  0  0  0  0
   -2.7877   -1.4568   -1.0116 H   0  0  0  0  0  0  0  0  0  0  0  0
   -2.7963   -1.1345    0.8550 H   0  0  0  0  0  0  0  0  0  0  0  0
   -0.1482   -0.7153    0.0815 C   0  0  0  0  0  0  0  0  0  0  0  0
   -1.4131    0.7422    0.7620 H   0  0  0  0  0  0  0  0  0  0  0  0
   -1.4593    0.9687   -1.0425 H   0  0  0  0  0  0  0  0  0  0  0  0
   -0.3137   -1.3924    1.0191 H   0  0  0  0  0  0  0  0  0  0  0  0
    0.6413   -0.2109    0.2427 H   0  0  0  0  0  0  0  0  0  0  0  0
    0.0294   -1.4199   -0.8410 H   0  0  0  0  0  0  0  0  0  0  0  0
  1  5  1  0  0  0  0
  2  1  1  0  0  0  0
  2  8  1  0  0  0  0
  3  1  1  0  0  0  0
  4  1  1  0  0  0  0
  6  2  1  0  0  0  0
  6  9  1  0  0  0  0
  6 10  1  0  0  0  0
  7  2  1  0  0  0  0
  9 13  1  0  0  0  0
  9 12  1  0  0  0  0
 11  6  1  0  0  0  0
 14  9  1  0  0  0  0
M  END
$$$$
