14
butane_opt
C  -3.972158   0.315267  -0.072105
C  -2.709146  -0.688586   0.159490
H  -4.835617  -0.224664  -0.236266
H  -3.922773   0.934947  -0.880626
H  -4.153549   0.903369   0.686073
C  -1.383225   0.163192   0.061729
H  -2.557860  -1.292940  -0.535334
H  -2.574305  -1.406641   1.110373
C  -0.175683  -0.654218  -0.058556
H  -1.316543   1.035934   1.070376
H  -1.290650   0.603362  -0.640912
H  -0.080760  -1.204218   0.763696
H   0.759299  -0.074447  -0.040132
H  -0.191153  -1.371155  -0.982927
