14
butane_opt
C  -3.954276   0.278110  -0.005992
C  -2.688537  -0.630631   0.053773
H  -4.883284  -0.304171   0.012653
H  -3.977773   0.937312  -0.924800
H  -4.049325   0.902705   0.834519
C  -1.388914   0.171643   0.050466
H  -2.674881  -1.305430  -0.782143
H  -2.756840  -1.276617   0.961817
C  -0.169289  -0.685595   0.009142
H  -1.356882   0.885339   0.940525
H  -1.347874   0.788815  -0.826073
H  -0.064326  -1.309612   0.903718
H   0.732707  -0.094016  -0.136394
H  -0.229600  -1.297692  -0.835423
