14
butane_opt
C  -3.938626   0.298484  -0.016151
C  -2.701163  -0.676047   0.059935
H  -4.654354  -0.197515  -0.117452
H  -3.928250   1.029136  -1.011949
H  -4.006988   1.020959   0.836946
C  -1.409568   0.152489   0.074349
H  -2.747484  -1.369921  -0.774961
H  -2.703262  -1.259831   0.862930
C  -0.182178  -0.662878  -0.002606
H  -1.164521   1.024642   1.038574
H  -1.468831   0.559242  -0.679952
H  -0.005346  -1.544919   1.117512
H   0.821907   0.023890  -0.512265
H  -0.426960  -1.050717  -0.683732
