14
butane_opt
C  -3.926576   0.239305  -0.069751
C  -2.677103  -0.557172   0.090775
H  -5.071716  -0.483953   0.424427
H  -3.874875   1.157274  -1.168588
H  -3.836960   0.448931   0.553080
C  -1.419685   0.220059   0.140186
H  -2.688594  -1.168275  -0.738689
H  -2.789752  -1.231211   1.072295
C  -0.156067  -0.730408  -0.055671
H  -1.435963   0.913540   0.966724
H  -1.435287   0.731472  -0.698948
H  -0.140777  -1.127293   0.664944
H   0.667219  -0.216910   0.100259
H  -0.220872  -1.587643  -1.053405
