14
butane_opt
C  -3.922899   0.231204   0.100239
C  -2.714599  -0.577229  -0.005890
H  -4.861521  -0.401135  -0.026739
H  -4.030127   0.951458  -0.862144
H  -3.934994   0.910942   0.973193
C  -1.386445   0.224301  -0.061770
H  -2.787750  -1.456780  -1.011593
H  -2.796311  -1.134493   0.855036
C  -0.148228  -0.715292   0.081520
H  -1.413059   0.742168   0.761976
H  -1.459268   0.968685  -1.042532
H  -0.313732  -1.392432   1.019051
H   0.641256  -0.210887   0.242650
H   0.029377  -1.419871  -0.840999
