butane_opt
 OpenBabel08242015383D

 14 13  0  0  0  0  0  0  0  0999 V2000
   -4.0105    0.3080    0.0803 C   0  0  0  0  0  0  0  0  0  0  0  0
   -2.7225   -0.6646    0.0100 C   0  0  0  0  0  0  0  0  0  0  0  0
   -4.9569   -0.3285    0.2081 H   0  0  0  0  0  0  0  0  0  0  0  0
   -3.9075    0.9404   -0.8797 H   0  0  0  0  0  0  0  0  0  0  0  0
   -3.9970    1.0653    0.9425 H   0  0  0  0  0  0  0  0  0  0  0  0
   -1.3424    0.1436   -0.0854 C   0  0  0  0  0  0  0  0  0  0  0  0
   -2.8016   -1.2995   -0.8932 H   0  0  0  0  0  0  0  0  0  0  0  0
   -2.5864   -1.3039    0.8898 H   0  0  0  0  0  0  0  0  0  0  0  0
   -0.1311   -0.6644    0.0803 C   0  0  0  0  0  0  0  0  0  0  0  0
   -1.3475    0.7189    0.7239 H   0  0  0  0  0  0  0  0  0  0  0  0
   -1.3622    0.9498   -1.0682 H   0  0  0  0  0  0  0  0  0  0  0  0
   -0.4405   -1.0388    0.8431 H   0  0  0  0  0  0  0  0  0  0  0  0
    0.7106   -0.0450    0.5745 H   0  0  0  0  0  0  0  0  0  0  0  0
    0.1322   -1.6204   -0.9332 H   0  0  0  0  0  0  0  0  0  0  0  0
  1  3  1  0  0  0  0
  1  5  1  0  0  0  0
  2  1  1  0  0  0  0
  2  8  1  0  0  0  0
  4  1  1  0  0  0  0
  6  2  1  0  0  0  0
  6  9  1  0  0  0  0
  6 10  1  0  0  0  0
  7  2  1  0  0  0  0
  9 13  1  0  0  0  0
  9 12  1  0  0  0  0
 11  6  1  0  0  0  0
 14  9  1  0  0  0  0
M  END
$$$$
