14
butane_opt
C  -3.934596   0.288333   0.067621
C  -2.658481  -0.654589  -0.006703
H  -4.761806  -0.169242  -0.163406
H  -4.037291   0.660477  -0.552231
H  -4.057049   1.272305   1.167293
C  -1.382016   0.156368  -0.044825
H  -2.822444  -1.402153  -0.915174
H  -2.764808  -1.258520   0.881057
C  -0.217886  -0.663546   0.097491
H  -1.440342   0.570233   0.622198
H  -1.303863   1.030762  -1.238330
H  -0.315341  -1.338003   0.991583
H   0.810475   0.073396   0.037648
H  -0.049834  -1.402199  -0.733894
