14
butane_opt
C  -3.985415   0.302984  -0.053898
C  -2.708504  -0.661073   0.096456
H  -4.806949  -0.103841  -0.130168
H  -3.917042   1.043156  -1.049714
H  -4.165107   0.842391   0.706459
C  -1.367361   0.132126   0.130144
H  -2.700102  -1.279657  -0.677630
H  -2.934398  -1.326503   1.014814
C  -0.137788  -0.655020  -0.059570
H  -1.294640   1.027255   1.177390
H  -1.421857   0.500779  -0.576719
H   0.050227  -1.498995   0.933440
H   0.796016  -0.033780  -0.520831
H  -0.286059  -1.028190  -0.791857
