butane_opt
 OpenBabel08242015383D

 14 13  0  0  0  0  0  0  0  0999 V2000
   -3.9191    0.2697   -0.0797 C   0  0  0  0  0  0  0  0  0  0  0  0
   -2.6769   -0.6159    0.1596 C   0  0  0  0  0  0  0  0  0  0  0  0
   -4.8789   -0.3144   -0.2955 H   0  0  0  0  0  0  0  0  0  0  0  0
   -3.7614    0.7557   -0.8901 H   0  0  0  0  0  0  0  0  0  0  0  0
   -4.0140    0.9176    0.7754 H   0  0  0  0  0  0  0  0  0  0  0  0
   -1.4073    0.2102    0.1064 C   0  0  0  0  0  0  0  0  0  0  0  0
   -2.7424   -1.1935   -0.6295 H   0  0  0  0  0  0  0  0  0  0  0  0
   -2.8219   -1.4334    1.1477 H   0  0  0  0  0  0  0  0  0  0  0  0
   -0.2106   -0.7131   -0.0867 C   0  0  0  0  0  0  0  0  0  0  0  0
   -1.2388    1.0260    1.0348 H   0  0  0  0  0  0  0  0  0  0  0  0
   -1.5511    0.7847   -0.7480 H   0  0  0  0  0  0  0  0  0  0  0  0
   -0.1356   -1.3730    0.8378 H   0  0  0  0  0  0  0  0  0  0  0  0
    0.7467   -0.1057   -0.0036 H   0  0  0  0  0  0  0  0  0  0  0  0
   -0.0804   -1.3515   -0.9770 H   0  0  0  0  0  0  0  0  0  0  0  0
  1  2  1  0  0  0  0
  1  5  1  0  0  0  0
  2  8  1  0  0  0  0
  3  1  1  0  0  0  0
  4  1  1  0  0  0  0
  6  2  1  0  0  0  0
  6 10  1  0  0  0  0
  7  2  1  0  0  0  0
  9 13  1  0  0  0  0
  9  6  1  0  0  0  0
  9 12  1  0  0  0  0
 11  6  1  0  0  0  0
 14  9  1  0  0  0  0
M  END
$$$$
