14
butane_opt
C  -3.957503   0.221481   0.099797
C  -2.719961  -0.568455   0.004573
H  -4.928199  -0.470113  -0.356621
H  -3.780655   0.469977  -0.618754
H  -4.167690   1.269842   1.272655
C  -1.406345   0.251139  -0.087495
H  -2.671019  -1.366400  -0.861555
H  -2.731033  -1.074679   0.741327
C  -0.143828  -0.742899   0.096339
H  -1.416595   0.715796   0.569532
H  -1.368697   0.989402  -1.110767
H  -0.021998  -1.514491   1.154073
H   0.774426  -0.172479  -0.027189
H   0.040797  -1.262355  -0.608109
