butane_opt
 OpenBabel08242015383D

 14 13  0  0  0  0  0  0  0  0999 V2000
   -3.9579    0.3100    0.1137 C   0  0  0  0  0  0  0  0  0  0  0  0
   -2.6983   -0.6682   -0.0313 C   0  0  0  0  0  0  0  0  0  0  0  0
   -4.9342   -0.2959    0.1337 H   0  0  0  0  0  0  0  0  0  0  0  0
   -4.0401    0.9614   -0.7817 H   0  0  0  0  0  0  0  0  0  0  0  0
   -3.9540    1.0251    1.0781 H   0  0  0  0  0  0  0  0  0  0  0  0
   -1.3891    0.1494   -0.1483 C   0  0  0  0  0  0  0  0  0  0  0  0
   -2.9178   -1.2674   -0.7841 H   0  0  0  0  0  0  0  0  0  0  0  0
   -2.5837   -1.3002    0.8149 H   0  0  0  0  0  0  0  0  0  0  0  0
   -0.1378   -0.6713    0.1027 C   0  0  0  0  0  0  0  0  0  0  0  0
   -1.4679    0.7637    0.7253 H   0  0  0  0  0  0  0  0  0  0  0  0
   -1.2284    0.7539   -0.9865 H   0  0  0  0  0  0  0  0  0  0  0  0
   -0.5257   -1.1155    0.9389 H   0  0  0  0  0  0  0  0  0  0  0  0
    0.7841   -0.0063    0.6739 H   0  0  0  0  0  0  0  0  0  0  0  0
    0.0372   -1.4325   -0.8395 H   0  0  0  0  0  0  0  0  0  0  0  0
  1  3  1  0  0  0  0
  1  5  1  0  0  0  0
  2  1  1  0  0  0  0
  2  8  1  0  0  0  0
  4  1  1  0  0  0  0
  6  2  1  0  0  0  0
  6  9  1  0  0  0  0
  6 10  1  0  0  0  0
  7  2  1  0  0  0  0
  9 13  1  0  0  0  0
  9 12  1  0  0  0  0
 11  6  1  0  0  0  0
 14  9  1  0  0  0  0
M  END
$$$$
