butane_opt
 OpenBabel08242015383D

 14 13  0  0  0  0  0  0  0  0999 V2000
   -3.9335    0.2689   -0.0388 C   0  0  0  0  0  0  0  0  0  0  0  0
   -2.6681   -0.6235    0.1156 C   0  0  0  0  0  0  0  0  0  0  0  0
   -4.9461   -0.3383   -0.0447 H   0  0  0  0  0  0  0  0  0  0  0  0
   -3.8047    1.0861   -1.1986 H   0  0  0  0  0  0  0  0  0  0  0  0
   -4.1058    0.8381    0.7166 H   0  0  0  0  0  0  0  0  0  0  0  0
   -1.4218    0.1637    0.1113 C   0  0  0  0  0  0  0  0  0  0  0  0
   -2.6516   -1.4437   -0.8386 H   0  0  0  0  0  0  0  0  0  0  0  0
   -2.8170   -1.1670    0.9211 H   0  0  0  0  0  0  0  0  0  0  0  0
   -0.1981   -0.6774   -0.0426 C   0  0  0  0  0  0  0  0  0  0  0  0
   -1.2842    0.9741    1.0730 H   0  0  0  0  0  0  0  0  0  0  0  0
   -1.3770    0.7199   -0.6407 H   0  0  0  0  0  0  0  0  0  0  0  0
    0.2786   -1.4827    0.9174 H   0  0  0  0  0  0  0  0  0  0  0  0
    0.6682   -0.0776   -0.3519 H   0  0  0  0  0  0  0  0  0  0  0  0
   -0.3360   -1.1537   -0.8394 H   0  0  0  0  0  0  0  0  0  0  0  0
  1  2  1  0  0  0  0
  1  5  1  0  0  0  0
  2  8  1  0  0  0  0
  3  1  1  0  0  0  0
  4  1  1  0  0  0  0
  6  2  1  0  0  0  0
  6 10  1  0  0  0  0
  7  2  1  0  0  0  0
  9  6  1  0  0  0  0
  9 12  1  0  0  0  0
 11  6  1  0  0  0  0
 13  9  1  0  0  0  0
 14  9  1  0  0  0  0
M  END
$$$$
