butane_opt
 OpenBabel08242015383D

 14 13  0  0  0  0  0  0  0  0999 V2000
   -3.9803    0.2562    0.0765 C   0  0  0  0  0  0  0  0  0  0  0  0
   -2.6938   -0.6424    0.0108 C   0  0  0  0  0  0  0  0  0  0  0  0
   -4.7447   -0.1374   -0.0199 H   0  0  0  0  0  0  0  0  0  0  0  0
   -4.0677    0.9155   -0.7611 H   0  0  0  0  0  0  0  0  0  0  0  0
   -3.9663    1.0781    0.9902 H   0  0  0  0  0  0  0  0  0  0  0  0
   -1.3777    0.1676   -0.0736 C   0  0  0  0  0  0  0  0  0  0  0  0
   -2.9010   -1.3378   -0.8133 H   0  0  0  0  0  0  0  0  0  0  0  0
   -2.7347   -1.3122    0.8869 H   0  0  0  0  0  0  0  0  0  0  0  0
   -0.1467   -0.6735    0.0515 C   0  0  0  0  0  0  0  0  0  0  0  0
   -1.4409    0.8884    0.7553 H   0  0  0  0  0  0  0  0  0  0  0  0
   -1.3414    0.9038   -1.0664 H   0  0  0  0  0  0  0  0  0  0  0  0
   -0.3484   -1.1994    1.0020 H   0  0  0  0  0  0  0  0  0  0  0  0
    0.7341   -0.1221    0.4603 H   0  0  0  0  0  0  0  0  0  0  0  0
    0.1434   -1.4392   -0.7897 H   0  0  0  0  0  0  0  0  0  0  0  0
  1  5  1  0  0  0  0
  2  1  1  0  0  0  0
  2  8  1  0  0  0  0
  3  1  1  0  0  0  0
  4  1  1  0  0  0  0
  6  2  1  0  0  0  0
  6  9  1  0  0  0  0
  6 10  1  0  0  0  0
  7  2  1  0  0  0  0
  9 13  1  0  0  0  0
  9 12  1  0  0  0  0
 11  6  1  0  0  0  0
 14  9  1  0  0  0  0
M  END
$$$$
