butane_opt
 OpenBabel08242015383D

 14 13  0  0  0  0  0  0  0  0999 V2000
   -3.8918    0.2399    0.0679 C   0  0  0  0  0  0  0  0  0  0  0  0
   -2.7096   -0.5373   -0.0429 C   0  0  0  0  0  0  0  0  0  0  0  0
   -4.8118   -0.4155    0.1424 H   0  0  0  0  0  0  0  0  0  0  0  0
   -4.0785    0.6349   -0.7046 H   0  0  0  0  0  0  0  0  0  0  0  0
   -3.7773    0.9261    0.9737 H   0  0  0  0  0  0  0  0  0  0  0  0
   -1.4402    0.1955   -0.0550 C   0  0  0  0  0  0  0  0  0  0  0  0
   -2.8731   -1.3590   -1.0105 H   0  0  0  0  0  0  0  0  0  0  0  0
   -2.6423   -1.1350    0.8208 H   0  0  0  0  0  0  0  0  0  0  0  0
   -0.1716   -0.7439    0.0754 C   0  0  0  0  0  0  0  0  0  0  0  0
   -1.3397    0.9715    0.8875 H   0  0  0  0  0  0  0  0  0  0  0  0
   -1.4022    0.8462   -0.8544 H   0  0  0  0  0  0  0  0  0  0  0  0
   -0.2020   -1.6647    1.2680 H   0  0  0  0  0  0  0  0  0  0  0  0
    0.8649   -0.0739   -0.0540 H   0  0  0  0  0  0  0  0  0  0  0  0
   -0.1833   -1.0520   -0.5319 H   0  0  0  0  0  0  0  0  0  0  0  0
  1  3  1  0  0  0  0
  1  5  1  0  0  0  0
  2  1  1  0  0  0  0
  2  8  1  0  0  0  0
  4  1  1  0  0  0  0
  6  2  1  0  0  0  0
  6  9  1  0  0  0  0
  6 10  1  0  0  0  0
  7  2  1  0  0  0  0
  9 12  1  0  0  0  0
 11  6  1  0  0  0  0
 13  9  1  0  0  0  0
 14  9  1  0  0  0  0
M  END
$$$$
