butane_opt
 OpenBabel08242015383D

 14 13  0  0  0  0  0  0  0  0999 V2000
   -3.9314    0.2342   -0.0917 C   0  0  0  0  0  0  0  0  0  0  0  0
   -2.6812   -0.5521    0.1643 C   0  0  0  0  0  0  0  0  0  0  0  0
   -4.9118   -0.5196   -0.2646 H   0  0  0  0  0  0  0  0  0  0  0  0
   -3.6173    0.6733   -0.9084 H   0  0  0  0  0  0  0  0  0  0  0  0
   -4.1521    1.1094    0.8292 H   0  0  0  0  0  0  0  0  0  0  0  0
   -1.4041    0.2107    0.1101 C   0  0  0  0  0  0  0  0  0  0  0  0
   -2.7479   -1.0901   -0.5547 H   0  0  0  0  0  0  0  0  0  0  0  0
   -2.8083   -1.3632    1.1513 H   0  0  0  0  0  0  0  0  0  0  0  0
   -0.1779   -0.7159   -0.0921 C   0  0  0  0  0  0  0  0  0  0  0  0
   -1.2033    0.9291    0.9407 H   0  0  0  0  0  0  0  0  0  0  0  0
   -1.5912    0.6782   -0.6626 H   0  0  0  0  0  0  0  0  0  0  0  0
   -0.1350   -1.4282    0.8958 H   0  0  0  0  0  0  0  0  0  0  0  0
    0.6338   -0.1975   -0.0774 H   0  0  0  0  0  0  0  0  0  0  0  0
   -0.1313   -1.4102   -0.9569 H   0  0  0  0  0  0  0  0  0  0  0  0
  1  2  1  0  0  0  0
  1  5  1  0  0  0  0
  2  8  1  0  0  0  0
  3  1  1  0  0  0  0
  4  1  1  0  0  0  0
  6  2  1  0  0  0  0
  6 10  1  0  0  0  0
  7  2  1  0  0  0  0
  9 13  1  0  0  0  0
  9  6  1  0  0  0  0
  9 12  1  0  0  0  0
 11  6  1  0  0  0  0
 14  9  1  0  0  0  0
M  END
$$$$
