butane_opt
 OpenBabel08242015383D

 14 13  0  0  0  0  0  0  0  0999 V2000
   -3.9557    0.2280   -0.0333 C   0  0  0  0  0  0  0  0  0  0  0  0
   -2.7519   -0.5632    0.1197 C   0  0  0  0  0  0  0  0  0  0  0  0
   -4.8854   -0.3774   -0.4139 H   0  0  0  0  0  0  0  0  0  0  0  0
   -3.8795    0.6047   -0.7431 H   0  0  0  0  0  0  0  0  0  0  0  0
   -4.1025    1.0328    0.9468 H   0  0  0  0  0  0  0  0  0  0  0  0
   -1.3759    0.2453    0.0212 C   0  0  0  0  0  0  0  0  0  0  0  0
   -2.7145   -1.1704   -0.6451 H   0  0  0  0  0  0  0  0  0  0  0  0
   -2.7196   -1.3068    1.0734 H   0  0  0  0  0  0  0  0  0  0  0  0
   -0.1507   -0.7333   -0.0044 C   0  0  0  0  0  0  0  0  0  0  0  0
   -1.1847    0.9773    0.8978 H   0  0  0  0  0  0  0  0  0  0  0  0
   -1.4989    0.7621   -0.8247 H   0  0  0  0  0  0  0  0  0  0  0  0
    0.0530   -1.4217    0.9158 H   0  0  0  0  0  0  0  0  0  0  0  0
    0.7495   -0.2531   -0.1101 H   0  0  0  0  0  0  0  0  0  0  0  0
   -0.0163   -1.4543   -0.8817 H   0  0  0  0  0  0  0  0  0  0  0  0
  1  2  1  0  0  0  0
  1  5  1  0  0  0  0
  2  8  1  0  0  0  0
  3  1  1  0  0  0  0
  4  1  1  0  0  0  0
  6  2  1  0  0  0  0
  6 10  1  0  0  0  0
  7  2  1  0  0  0  0
  9  6  1  0  0  0  0
  9 12  1  0  0  0  0
 11  6  1  0  0  0  0
 13  9  1  0  0  0  0
 14  9  1  0  0  0  0
M  END
$$$$
