butane_opt
 OpenBabel08242015383D

 14 13  0  0  0  0  0  0  0  0999 V2000
   -3.8977    0.2245   -0.0489 C   0  0  0  0  0  0  0  0  0  0  0  0
   -2.7016   -0.5700    0.1346 C   0  0  0  0  0  0  0  0  0  0  0  0
   -4.8949   -0.4055   -0.0962 H   0  0  0  0  0  0  0  0  0  0  0  0
   -3.9535    0.8108   -0.8428 H   0  0  0  0  0  0  0  0  0  0  0  0
   -3.9259    0.8685    0.8041 H   0  0  0  0  0  0  0  0  0  0  0  0
   -1.4629    0.2387    0.0407 C   0  0  0  0  0  0  0  0  0  0  0  0
   -2.6281   -1.2355   -0.6778 H   0  0  0  0  0  0  0  0  0  0  0  0
   -2.8201   -1.3926    1.1960 H   0  0  0  0  0  0  0  0  0  0  0  0
   -0.1516   -0.7215   -0.0297 C   0  0  0  0  0  0  0  0  0  0  0  0
   -1.4267    0.8896    0.8682 H   0  0  0  0  0  0  0  0  0  0  0  0
   -1.3327    0.8481   -0.9442 H   0  0  0  0  0  0  0  0  0  0  0  0
   -0.0932   -1.0299    0.7168 H   0  0  0  0  0  0  0  0  0  0  0  0
    0.6339   -0.2766    0.3268 H   0  0  0  0  0  0  0  0  0  0  0  0
    0.0069   -1.6418   -1.1046 H   0  0  0  0  0  0  0  0  0  0  0  0
  1  2  1  0  0  0  0
  1  5  1  0  0  0  0
  2  8  1  0  0  0  0
  3  1  1  0  0  0  0
  4  1  1  0  0  0  0
  6  2  1  0  0  0  0
  6 10  1  0  0  0  0
  7  2  1  0  0  0  0
  9  6  1  0  0  0  0
  9 13  1  0  0  0  0
  9 12  1  0  0  0  0
 11  6  1  0  0  0  0
 14  9  1  0  0  0  0
M  END
$$$$
