butane_opt
 OpenBabel08242015383D

 14 13  0  0  0  0  0  0  0  0999 V2000
   -3.8924    0.2240   -0.0863 C   0  0  0  0  0  0  0  0  0  0  0  0
   -2.7087   -0.5569    0.1262 C   0  0  0  0  0  0  0  0  0  0  0  0
   -4.9364   -0.3963   -0.1559 H   0  0  0  0  0  0  0  0  0  0  0  0
   -3.8175    0.9815   -1.1638 H   0  0  0  0  0  0  0  0  0  0  0  0
   -3.8566    0.8166    0.7015 H   0  0  0  0  0  0  0  0  0  0  0  0
   -1.4352    0.2013    0.1734 C   0  0  0  0  0  0  0  0  0  0  0  0
   -2.7491   -1.1077   -0.7103 H   0  0  0  0  0  0  0  0  0  0  0  0
   -2.9567   -1.2027    1.0878 H   0  0  0  0  0  0  0  0  0  0  0  0
   -0.1560   -0.7300   -0.0988 C   0  0  0  0  0  0  0  0  0  0  0  0
   -1.2412    1.0627    1.1466 H   0  0  0  0  0  0  0  0  0  0  0  0
   -1.7308    0.5409   -0.5488 H   0  0  0  0  0  0  0  0  0  0  0  0
    0.1039   -1.5846    0.9513 H   0  0  0  0  0  0  0  0  0  0  0  0
    0.7585   -0.1234   -0.4539 H   0  0  0  0  0  0  0  0  0  0  0  0
   -0.2856   -1.1162   -0.7690 H   0  0  0  0  0  0  0  0  0  0  0  0
  1  2  1  0  0  0  0
  1  5  1  0  0  0  0
  2  6  1  0  0  0  0
  2  8  1  0  0  0  0
  3  1  1  0  0  0  0
  4  1  1  0  0  0  0
  6 10  1  0  0  0  0
  7  2  1  0  0  0  0
  9  6  1  0  0  0  0
  9 12  1  0  0  0  0
 11  6  1  0  0  0  0
 13  9  1  0  0  0  0
 14  9  1  0  0  0  0
M  END
$$$$
