14
butane_opt
C  -3.961552   0.239481   0.060732
C  -2.734877  -0.597142   0.011769
H  -4.940059  -0.470925  -0.260215
H  -3.820318   0.532722  -0.542303
H  -4.005077   1.249249   1.173722
C  -1.417884   0.234350  -0.066868
H  -2.795583  -1.124575  -0.760903
H  -2.753065  -1.248345   0.884375
C  -0.101873  -0.729471   0.079440
H  -1.667125   0.797425   0.719051
H  -1.343435   0.922995  -1.070708
H  -0.105390  -1.423214   1.003327
H   0.868280  -0.097347   0.008322
H   0.116781  -1.382656  -0.715999
