14
butane_opt
C  -3.959890   0.232968  -0.055078
C  -2.717066  -0.583145   0.122270
H  -4.936448  -0.438249   0.199068
H  -3.879516   0.951040  -1.041038
H  -3.880552   0.727948   0.683182
C  -1.426161   0.229171   0.073011
H  -2.710297  -1.137319  -0.634350
H  -2.843975  -1.255443   1.056987
C  -0.100521  -0.718722  -0.034846
H  -1.424707   0.741378   0.911282
H  -1.497719   0.996418  -0.887334
H  -0.154049  -0.867319   0.598812
H   0.720462  -0.348137   0.374689
H   0.039090  -1.789588  -1.137486
