14
butane_opt
C  -3.950473   0.250662  -0.066313
C  -2.746602  -0.595522   0.120189
H  -4.870955  -0.409042  -0.080347
H  -3.931975   1.032568  -1.103185
H  -4.080245   0.861265   0.782542
C  -1.381717   0.193072   0.123529
H  -2.732305  -1.148455  -0.636757
H  -2.974585  -1.224686   1.026591
C  -0.119969  -0.722240  -0.065241
H  -1.315358   1.074381   1.007152
H  -1.559316   0.592240  -0.599034
H   0.046484  -1.408630   0.862128
H   0.820185  -0.115362  -0.288329
H  -0.040409  -1.230676  -0.876454
