butane_opt
 OpenBabel08242015383D

 14 13  0  0  0  0  0  0  0  0999 V2000
   -3.9728    0.2762   -0.0427 C   0  0  0  0  0  0  0  0  0  0  0  0
   -2.7318   -0.6512    0.0808 C   0  0  0  0  0  0  0  0  0  0  0  0
   -4.6997   -0.1791    0.1584 H   0  0  0  0  0  0  0  0  0  0  0  0
   -4.0534    1.2621   -1.1248 H   0  0  0  0  0  0  0  0  0  0  0  0
   -3.9669    0.7235    0.6505 H   0  0  0  0  0  0  0  0  0  0  0  0
   -1.3877    0.1614    0.1206 C   0  0  0  0  0  0  0  0  0  0  0  0
   -2.7437   -1.2493   -0.8002 H   0  0  0  0  0  0  0  0  0  0  0  0
   -2.7902   -1.3699    1.0664 H   0  0  0  0  0  0  0  0  0  0  0  0
   -0.1299   -0.6817   -0.0301 C   0  0  0  0  0  0  0  0  0  0  0  0
   -1.3468    0.8585    0.9992 H   0  0  0  0  0  0  0  0  0  0  0  0
   -1.2654    0.8548   -0.7958 H   0  0  0  0  0  0  0  0  0  0  0  0
   -0.0062   -1.0283    0.6957 H   0  0  0  0  0  0  0  0  0  0  0  0
    0.7381   -0.0828   -0.0364 H   0  0  0  0  0  0  0  0  0  0  0  0
   -0.2358   -1.5024   -0.9827 H   0  0  0  0  0  0  0  0  0  0  0  0
  1  2  1  0  0  0  0
  1  3  1  0  0  0  0
  1  5  1  0  0  0  0
  2  6  1  0  0  0  0
  2  8  1  0  0  0  0
  4  1  1  0  0  0  0
  6 10  1  0  0  0  0
  7  2  1  0  0  0  0
  9  6  1  0  0  0  0
  9 12  1  0  0  0  0
 11  6  1  0  0  0  0
 13  9  1  0  0  0  0
 14  9  1  0  0  0  0
M  END
$$$$
