14
butane_opt
C  -3.956133   0.272353   0.025266
C  -2.690630  -0.629058   0.021064
H  -4.903780  -0.344764   0.018510
H  -3.995168   0.780227  -0.808659
H  -4.003281   1.032866   0.960058
C  -1.398756   0.183678   0.005340
H  -2.704494  -1.332773  -0.839818
H  -2.681315  -1.172179   0.861748
C  -0.158056  -0.689179   0.049955
H  -1.374741   0.824464   0.814829
H  -1.378112   0.860144  -0.918149
H  -0.106200  -1.432669   1.005701
H   0.769345  -0.091003  -0.102412
H  -0.196125  -1.254142  -0.745193
