14
butane_opt
C  -3.979000   0.248674   0.110281
C  -2.700122  -0.609852  -0.074265
H  -4.935061  -0.352645   0.284418
H  -4.229252   0.699064  -0.630617
H  -3.853239   1.154882   1.082557
C  -1.408329   0.211339  -0.141711
H  -2.833338  -1.242699  -0.945308
H  -2.624408  -1.319648   0.852696
C  -0.110971  -0.730477   0.157452
H  -1.475952   0.789649   0.706322
H  -1.284639   0.906228  -1.127009
H  -0.328871  -1.108519   0.959052
H   0.864826  -0.102772   0.340538
H   0.082451  -1.341262  -0.696252
