14
butane_opt
C  -3.936350   0.257651  -0.011942
C  -2.695732  -0.609257   0.069349
H  -4.870287  -0.347504  -0.024193
H  -3.887638   0.818460  -0.874071
H  -4.000081   0.950353   0.867192
C  -1.410116   0.203236   0.041748
H  -2.685909  -1.272272  -0.775968
H  -2.745573  -1.267283   1.010025
C  -0.174140  -0.706438   0.007631
H  -1.334692   0.844599   0.865856
H  -1.425664   0.882695  -0.885756
H  -0.089972  -1.299152   0.881857
H   0.757052  -0.105067   0.007088
H  -0.143028  -1.425694  -0.905567
