butane_opt
 OpenBabel08242015383D

 14 13  0  0  0  0  0  0  0  0999 V2000
   -3.9906    0.3082    0.1220 C   0  0  0  0  0  0  0  0  0  0  0  0
   -2.6761   -0.6809   -0.0283 C   0  0  0  0  0  0  0  0  0  0  0  0
   -4.8882   -0.2097    0.0073 H   0  0  0  0  0  0  0  0  0  0  0  0
   -4.1363    0.9679   -0.7320 H   0  0  0  0  0  0  0  0  0  0  0  0
   -3.9829    0.9309    0.9848 H   0  0  0  0  0  0  0  0  0  0  0  0
   -1.3967    0.1706   -0.1416 C   0  0  0  0  0  0  0  0  0  0  0  0
   -2.8248   -1.3459   -0.8782 H   0  0  0  0  0  0  0  0  0  0  0  0
   -2.5587   -1.4357    0.8871 H   0  0  0  0  0  0  0  0  0  0  0  0
   -0.1720   -0.6564    0.1185 C   0  0  0  0  0  0  0  0  0  0  0  0
   -1.2787    0.7808    0.6908 H   0  0  0  0  0  0  0  0  0  0  0  0
   -1.2784    0.7838   -1.0095 H   0  0  0  0  0  0  0  0  0  0  0  0
   -0.3514   -1.0404    0.9326 H   0  0  0  0  0  0  0  0  0  0  0  0
    0.8400   -0.0338    0.5553 H   0  0  0  0  0  0  0  0  0  0  0  0
    0.2262   -1.5503   -0.8862 H   0  0  0  0  0  0  0  0  0  0  0  0
  1  5  1  0  0  0  0
  2  1  1  0  0  0  0
  2  8  1  0  0  0  0
  3  1  1  0  0  0  0
  4  1  1  0  0  0  0
  6  2  1  0  0  0  0
  6  9  1  0  0  0  0
  6 10  1  0  0  0  0
  7  2  1  0  0  0  0
  9 13  1  0  0  0  0
  9 12  1  0  0  0  0
 11  6  1  0  0  0  0
 14  9  1  0  0  0  0
M  END
$$$$
