butane_opt
 OpenBabel08242015383D

 14 12  0  0  0  0  0  0  0  0999 V2000
   -3.9575    0.2215    0.0998 C   0  0  0  0  0  0  0  0  0  0  0  0
   -2.7200   -0.5685    0.0046 C   0  0  0  0  0  0  0  0  0  0  0  0
   -4.9282   -0.4701   -0.3566 H   0  0  0  0  0  0  0  0  0  0  0  0
   -3.7807    0.4700   -0.6188 H   0  0  0  0  0  0  0  0  0  0  0  0
   -4.1677    1.2698    1.2727 H   0  0  0  0  0  0  0  0  0  0  0  0
   -1.4063    0.2511   -0.0875 C   0  0  0  0  0  0  0  0  0  0  0  0
   -2.6710   -1.3664   -0.8616 H   0  0  0  0  0  0  0  0  0  0  0  0
   -2.7310   -1.0747    0.7413 H   0  0  0  0  0  0  0  0  0  0  0  0
   -0.1438   -0.7429    0.0963 C   0  0  0  0  0  0  0  0  0  0  0  0
   -1.4166    0.7158    0.5695 H   0  0  0  0  0  0  0  0  0  0  0  0
   -1.3687    0.9894   -1.1108 H   0  0  0  0  0  0  0  0  0  0  0  0
   -0.0220   -1.5145    1.1541 H   0  0  0  0  0  0  0  0  0  0  0  0
    0.7744   -0.1725   -0.0272 H   0  0  0  0  0  0  0  0  0  0  0  0
    0.0408   -1.2624   -0.6081 H   0  0  0  0  0  0  0  0  0  0  0  0
  2  1  1  0  0  0  0
  2  8  1  0  0  0  0
  3  1  1  0  0  0  0
  4  1  1  0  0  0  0
  6  2  1  0  0  0  0
  6  9  1  0  0  0  0
  6 10  1  0  0  0  0
  7  2  1  0  0  0  0
  9 12  1  0  0  0  0
 11  6  1  0  0  0  0
 13  9  1  0  0  0  0
 14  9  1  0  0  0  0
M  RAD  2   1   2   5   2
M  END
$$$$
