butane_opt
 OpenBabel08242015383D

 14 13  0  0  0  0  0  0  0  0999 V2000
   -3.9790    0.2487    0.1103 C   0  0  0  0  0  0  0  0  0  0  0  0
   -2.7001   -0.6099   -0.0743 C   0  0  0  0  0  0  0  0  0  0  0  0
   -4.9351   -0.3526    0.2844 H   0  0  0  0  0  0  0  0  0  0  0  0
   -4.2293    0.6991   -0.6306 H   0  0  0  0  0  0  0  0  0  0  0  0
   -3.8532    1.1549    1.0826 H   0  0  0  0  0  0  0  0  0  0  0  0
   -1.4083    0.2113   -0.1417 C   0  0  0  0  0  0  0  0  0  0  0  0
   -2.8333   -1.2427   -0.9453 H   0  0  0  0  0  0  0  0  0  0  0  0
   -2.6244   -1.3196    0.8527 H   0  0  0  0  0  0  0  0  0  0  0  0
   -0.1110   -0.7305    0.1575 C   0  0  0  0  0  0  0  0  0  0  0  0
   -1.4760    0.7896    0.7063 H   0  0  0  0  0  0  0  0  0  0  0  0
   -1.2846    0.9062   -1.1270 H   0  0  0  0  0  0  0  0  0  0  0  0
   -0.3289   -1.1085    0.9591 H   0  0  0  0  0  0  0  0  0  0  0  0
    0.8648   -0.1028    0.3405 H   0  0  0  0  0  0  0  0  0  0  0  0
    0.0825   -1.3413   -0.6963 H   0  0  0  0  0  0  0  0  0  0  0  0
  1  3  1  0  0  0  0
  1  5  1  0  0  0  0
  2  1  1  0  0  0  0
  2  8  1  0  0  0  0
  4  1  1  0  0  0  0
  6  2  1  0  0  0  0
  6  9  1  0  0  0  0
  6 10  1  0  0  0  0
  7  2  1  0  0  0  0
  9 13  1  0  0  0  0
  9 12  1  0  0  0  0
 11  6  1  0  0  0  0
 14  9  1  0  0  0  0
M  END
$$$$
