butane_opt
 OpenBabel08242015383D

 14 13  0  0  0  0  0  0  0  0999 V2000
   -3.8769    0.2338    0.0613 C   0  0  0  0  0  0  0  0  0  0  0  0
   -2.7017   -0.5749   -0.0556 C   0  0  0  0  0  0  0  0  0  0  0  0
   -4.8611   -0.4719    0.5210 H   0  0  0  0  0  0  0  0  0  0  0  0
   -4.1615    1.1070   -1.0257 H   0  0  0  0  0  0  0  0  0  0  0  0
   -3.6248    0.7362    0.8864 H   0  0  0  0  0  0  0  0  0  0  0  0
   -1.4419    0.2104    0.0144 C   0  0  0  0  0  0  0  0  0  0  0  0
   -2.8410   -1.3558   -0.9733 H   0  0  0  0  0  0  0  0  0  0  0  0
   -2.8048   -0.9827    0.7067 H   0  0  0  0  0  0  0  0  0  0  0  0
   -0.1591   -0.7166    0.0606 C   0  0  0  0  0  0  0  0  0  0  0  0
   -1.5284    0.7431    0.7743 H   0  0  0  0  0  0  0  0  0  0  0  0
   -1.3743    0.8380   -0.9583 H   0  0  0  0  0  0  0  0  0  0  0  0
   -0.1440   -1.4045    1.0848 H   0  0  0  0  0  0  0  0  0  0  0  0
    0.6621   -0.2070    0.1319 H   0  0  0  0  0  0  0  0  0  0  0  0
   -0.1677   -1.3020   -0.6797 H   0  0  0  0  0  0  0  0  0  0  0  0
  1  3  1  0  0  0  0
  1  5  1  0  0  0  0
  2  6  1  0  0  0  0
  2  1  1  0  0  0  0
  2  8  1  0  0  0  0
  4  1  1  0  0  0  0
  6  9  1  0  0  0  0
  6 10  1  0  0  0  0
  7  2  1  0  0  0  0
  9 13  1  0  0  0  0
  9 12  1  0  0  0  0
 11  6  1  0  0  0  0
 14  9  1  0  0  0  0
M  END
$$$$
