butane_opt
 OpenBabel08242015383D

 14 13  0  0  0  0  0  0  0  0999 V2000
   -3.9910    0.2292    0.0139 C   0  0  0  0  0  0  0  0  0  0  0  0
   -2.6969   -0.6115    0.0205 C   0  0  0  0  0  0  0  0  0  0  0  0
   -4.7914   -0.3191   -0.0070 H   0  0  0  0  0  0  0  0  0  0  0  0
   -3.9293    0.7695   -0.8082 H   0  0  0  0  0  0  0  0  0  0  0  0
   -3.9819    0.9414    0.9645 H   0  0  0  0  0  0  0  0  0  0  0  0
   -1.4165    0.2685    0.0124 C   0  0  0  0  0  0  0  0  0  0  0  0
   -2.7800   -1.2911   -0.8433 H   0  0  0  0  0  0  0  0  0  0  0  0
   -2.6384   -1.2003    0.8942 H   0  0  0  0  0  0  0  0  0  0  0  0
   -0.1362   -0.7166    0.0378 C   0  0  0  0  0  0  0  0  0  0  0  0
   -1.4138    0.9984    0.9258 H   0  0  0  0  0  0  0  0  0  0  0  0
   -1.2775    0.6583   -0.7935 H   0  0  0  0  0  0  0  0  0  0  0  0
    0.0060   -1.6148    1.1659 H   0  0  0  0  0  0  0  0  0  0  0  0
    0.7309   -0.2379   -0.3548 H   0  0  0  0  0  0  0  0  0  0  0  0
   -0.0602   -1.1971   -0.7147 H   0  0  0  0  0  0  0  0  0  0  0  0
  1  2  1  0  0  0  0
  1  5  1  0  0  0  0
  2  8  1  0  0  0  0
  3  1  1  0  0  0  0
  4  1  1  0  0  0  0
  6  2  1  0  0  0  0
  6  9  1  0  0  0  0
  6 10  1  0  0  0  0
  7  2  1  0  0  0  0
  9 12  1  0  0  0  0
 11  6  1  0  0  0  0
 13  9  1  0  0  0  0
 14  9  1  0  0  0  0
M  END
$$$$
