butane_opt
 OpenBabel08242015383D

 14 13  0  0  0  0  0  0  0  0999 V2000
   -3.9979    0.2997    0.1168 C   0  0  0  0  0  0  0  0  0  0  0  0
   -2.7069   -0.6685   -0.1277 C   0  0  0  0  0  0  0  0  0  0  0  0
   -4.7455   -0.1901    0.6543 H   0  0  0  0  0  0  0  0  0  0  0  0
   -4.3044    1.1233   -0.8262 H   0  0  0  0  0  0  0  0  0  0  0  0
   -3.7304    0.8441    0.8913 H   0  0  0  0  0  0  0  0  0  0  0  0
   -1.3932    0.1543   -0.0582 C   0  0  0  0  0  0  0  0  0  0  0  0
   -2.6690   -1.5312   -1.0423 H   0  0  0  0  0  0  0  0  0  0  0  0
   -2.6611   -1.1806    0.6218 H   0  0  0  0  0  0  0  0  0  0  0  0
   -0.1333   -0.6612    0.1291 C   0  0  0  0  0  0  0  0  0  0  0  0
   -1.5458    0.6569    0.7218 H   0  0  0  0  0  0  0  0  0  0  0  0
   -1.2257    0.8570   -0.9456 H   0  0  0  0  0  0  0  0  0  0  0  0
   -0.2374   -1.3200    1.0942 H   0  0  0  0  0  0  0  0  0  0  0  0
    0.9283    0.0283    0.1248 H   0  0  0  0  0  0  0  0  0  0  0  0
   -0.0988   -1.1864   -0.5771 H   0  0  0  0  0  0  0  0  0  0  0  0
  1  3  1  0  0  0  0
  1  5  1  0  0  0  0
  2  6  1  0  0  0  0
  2  1  1  0  0  0  0
  2  8  1  0  0  0  0
  4  1  1  0  0  0  0
  6  9  1  0  0  0  0
  6 10  1  0  0  0  0
  7  2  1  0  0  0  0
  9 12  1  0  0  0  0
 11  6  1  0  0  0  0
 13  9  1  0  0  0  0
 14  9  1  0  0  0  0
M  END
$$$$
