14
butane_opt
C  -3.994056   0.295508   0.110978
C  -2.699672  -0.659239  -0.107654
H  -4.756825  -0.134582   0.449691
H  -4.384771   1.004267  -0.838971
H  -3.678245   0.819949   1.004127
C  -1.370595   0.143964  -0.081126
H  -2.844736  -1.434932  -1.100482
H  -2.553395  -1.176094   0.730645
C  -0.134898  -0.653585   0.130645
H  -1.469368   0.773434   0.764514
H  -1.437424   0.706942  -0.896252
H  -0.329918  -1.397295   1.144011
H   0.751337  -0.015019   0.101786
H   0.041094  -1.096308  -0.567138
