14
butane_opt
C  -3.908775   0.268156  -0.035865
C  -2.708260  -0.603527   0.096329
H  -4.793284  -0.324968   0.174479
H  -3.884728   1.114131  -1.204152
H  -4.197635   0.721965   0.629991
C  -1.419708   0.144051   0.124716
H  -2.637113  -1.418616  -0.879778
H  -2.649542  -1.172618   0.952877
C  -0.158405  -0.689020  -0.054391
H  -1.450663   0.939730   1.107192
H  -1.373748   0.764579  -0.732553
H  -0.090175  -1.306423   0.869640
H   0.783672  -0.054567  -0.222230
H  -0.367976  -1.159551  -0.834477
