butane_opt
 OpenBabel08242015383D

 14 13  0  0  0  0  0  0  0  0999 V2000
   -3.9232    0.3133    0.0301 C   0  0  0  0  0  0  0  0  0  0  0  0
   -2.6879   -0.6409    0.0613 C   0  0  0  0  0  0  0  0  0  0  0  0
   -4.9753   -0.3798    0.0895 H   0  0  0  0  0  0  0  0  0  0  0  0
   -3.8671    1.0230   -0.9566 H   0  0  0  0  0  0  0  0  0  0  0  0
   -4.0506    0.9008    0.8750 H   0  0  0  0  0  0  0  0  0  0  0  0
   -1.3894    0.1454   -0.0214 C   0  0  0  0  0  0  0  0  0  0  0  0
   -2.7221   -1.3226   -0.7599 H   0  0  0  0  0  0  0  0  0  0  0  0
   -2.4528   -1.3418    0.9065 H   0  0  0  0  0  0  0  0  0  0  0  0
   -0.2136   -0.6631    0.0314 C   0  0  0  0  0  0  0  0  0  0  0  0
   -1.3356    0.6570    0.7627 H   0  0  0  0  0  0  0  0  0  0  0  0
   -1.3241    0.7786   -0.9365 H   0  0  0  0  0  0  0  0  0  0  0  0
   -0.4969   -0.9615    0.7636 H   0  0  0  0  0  0  0  0  0  0  0  0
    0.8032   -0.0224    0.3938 H   0  0  0  0  0  0  0  0  0  0  0  0
   -0.0322   -1.6481   -0.9669 H   0  0  0  0  0  0  0  0  0  0  0  0
  1  2  1  0  0  0  0
  1  3  1  0  0  0  0
  1  5  1  0  0  0  0
  2  8  1  0  0  0  0
  4  1  1  0  0  0  0
  6  9  1  0  0  0  0
  6  2  1  0  0  0  0
  6 10  1  0  0  0  0
  7  2  1  0  0  0  0
  9 13  1  0  0  0  0
  9 12  1  0  0  0  0
 11  6  1  0  0  0  0
 14  9  1  0  0  0  0
M  END
$$$$
