14
butane_opt
C  -3.954643   0.224161   0.100456
C  -2.744722  -0.570919  -0.036528
H  -4.889171  -0.421546   0.225617
H  -4.095229   0.881559  -0.727433
H  -3.589416   1.014051   1.122392
C  -1.419114   0.238233  -0.120949
H  -2.862302  -1.404321  -1.006005
H  -2.849212  -1.085339   0.812769
C  -0.101498  -0.752215   0.136589
H  -1.550246   0.711536   0.651859
H  -1.249147   1.054139  -1.157457
H  -0.310239  -1.190098   0.919796
H   0.880333  -0.186376   0.384528
H   0.137889  -1.511822  -0.764223
