butane_opt
 OpenBabel08242015383D

 14 12  0  0  0  0  0  0  0  0999 V2000
   -3.8937    0.2248   -0.0278 C   0  0  0  0  0  0  0  0  0  0  0  0
   -2.7058   -0.5663    0.1050 C   0  0  0  0  0  0  0  0  0  0  0  0
   -4.8585   -0.4861    0.1625 H   0  0  0  0  0  0  0  0  0  0  0  0
   -3.8996    0.9931   -1.0596 H   0  0  0  0  0  0  0  0  0  0  0  0
   -3.7660    0.7902    0.8325 H   0  0  0  0  0  0  0  0  0  0  0  0
   -1.4606    0.2113   -0.0021 C   0  0  0  0  0  0  0  0  0  0  0  0
   -2.7590   -1.0917   -0.6483 H   0  0  0  0  0  0  0  0  0  0  0  0
   -2.7423   -1.3118    1.0991 H   0  0  0  0  0  0  0  0  0  0  0  0
   -0.1633   -0.7176   -0.0115 C   0  0  0  0  0  0  0  0  0  0  0  0
   -1.2855    1.0130    0.9580 H   0  0  0  0  0  0  0  0  0  0  0  0
   -1.4275    0.8361   -0.8304 H   0  0  0  0  0  0  0  0  0  0  0  0
   -0.2778   -1.0915    0.7070 H   0  0  0  0  0  0  0  0  0  0  0  0
    0.6418   -0.2405    0.5748 H   0  0  0  0  0  0  0  0  0  0  0  0
    0.0551   -1.7487   -1.1585 H   0  0  0  0  0  0  0  0  0  0  0  0
  1  2  1  0  0  0  0
  1  3  1  0  0  0  0
  1  5  1  0  0  0  0
  2  8  1  0  0  0  0
  4  1  1  0  0  0  0
  6  2  1  0  0  0  0
  6 10  1  0  0  0  0
  7  2  1  0  0  0  0
  9  6  1  0  0  0  0
  9 13  1  0  0  0  0
  9 12  1  0  0  0  0
 11  6  1  0  0  0  0
M  RAD  2   9   2  14   2
M  END
$$$$
