butane_opt
 OpenBabel08242015383D

 14 13  0  0  0  0  0  0  0  0999 V2000
   -3.9966    0.3013    0.0335 C   0  0  0  0  0  0  0  0  0  0  0  0
   -2.7239   -0.6707    0.0478 C   0  0  0  0  0  0  0  0  0  0  0  0
   -4.7992   -0.2378   -0.2349 H   0  0  0  0  0  0  0  0  0  0  0  0
   -3.9025    0.7553   -0.6733 H   0  0  0  0  0  0  0  0  0  0  0  0
   -3.9879    1.2836    1.1414 H   0  0  0  0  0  0  0  0  0  0  0  0
   -1.3905    0.1425   -0.0501 C   0  0  0  0  0  0  0  0  0  0  0  0
   -2.7138   -1.3128   -0.7908 H   0  0  0  0  0  0  0  0  0  0  0  0
   -2.7695   -1.2412    0.9421 H   0  0  0  0  0  0  0  0  0  0  0  0
   -0.1271   -0.6718    0.0532 C   0  0  0  0  0  0  0  0  0  0  0  0
   -1.3244    0.8848    0.8027 H   0  0  0  0  0  0  0  0  0  0  0  0
   -1.2541    0.8260   -1.0122 H   0  0  0  0  0  0  0  0  0  0  0  0
   -0.3273   -1.3629    1.0306 H   0  0  0  0  0  0  0  0  0  0  0  0
    0.9425    0.0349   -0.0113 H   0  0  0  0  0  0  0  0  0  0  0  0
   -0.0642   -1.3022   -0.7501 H   0  0  0  0  0  0  0  0  0  0  0  0
  1  2  1  0  0  0  0
  1  5  1  0  0  0  0
  2  8  1  0  0  0  0
  3  1  1  0  0  0  0
  4  1  1  0  0  0  0
  6  2  1  0  0  0  0
  6  9  1  0  0  0  0
  6 10  1  0  0  0  0
  7  2  1  0  0  0  0
  9 12  1  0  0  0  0
 11  6  1  0  0  0  0
 13  9  1  0  0  0  0
 14  9  1  0  0  0  0
M  END
$$$$
