butane_opt
 OpenBabel08242015383D

 14 13  0  0  0  0  0  0  0  0999 V2000
   -3.8987    0.2478   -0.1059 C   0  0  0  0  0  0  0  0  0  0  0  0
   -2.7036   -0.5810    0.1955 C   0  0  0  0  0  0  0  0  0  0  0  0
   -4.9941   -0.4983   -0.2085 H   0  0  0  0  0  0  0  0  0  0  0  0
   -3.7047    0.6374   -0.9764 H   0  0  0  0  0  0  0  0  0  0  0  0
   -4.1210    1.0189    0.8077 H   0  0  0  0  0  0  0  0  0  0  0  0
   -1.4378    0.1946    0.1081 C   0  0  0  0  0  0  0  0  0  0  0  0
   -2.5373   -1.0843   -0.5210 H   0  0  0  0  0  0  0  0  0  0  0  0
   -2.8440   -1.2571    1.0548 H   0  0  0  0  0  0  0  0  0  0  0  0
   -0.1546   -0.7136   -0.0691 C   0  0  0  0  0  0  0  0  0  0  0  0
   -1.3234    0.9197    0.9672 H   0  0  0  0  0  0  0  0  0  0  0  0
   -1.7088    0.8970   -0.7971 H   0  0  0  0  0  0  0  0  0  0  0  0
   -0.0192   -1.1994    0.7031 H   0  0  0  0  0  0  0  0  0  0  0  0
    0.8168   -0.1329   -0.0546 H   0  0  0  0  0  0  0  0  0  0  0  0
   -0.2390   -1.5751   -1.0450 H   0  0  0  0  0  0  0  0  0  0  0  0
  1  2  1  0  0  0  0
  1  5  1  0  0  0  0
  2  8  1  0  0  0  0
  3  1  1  0  0  0  0
  4  1  1  0  0  0  0
  6  2  1  0  0  0  0
  6 10  1  0  0  0  0
  7  2  1  0  0  0  0
  9 13  1  0  0  0  0
  9  6  1  0  0  0  0
  9 12  1  0  0  0  0
 11  6  1  0  0  0  0
 14  9  1  0  0  0  0
M  END
$$$$
