butane_opt
 OpenBabel08242015383D

 14 13  0  0  0  0  0  0  0  0999 V2000
   -3.9805    0.3011    0.0951 C   0  0  0  0  0  0  0  0  0  0  0  0
   -2.7137   -0.6637   -0.0432 C   0  0  0  0  0  0  0  0  0  0  0  0
   -4.7228   -0.1439    0.2108 H   0  0  0  0  0  0  0  0  0  0  0  0
   -4.2405    0.9254   -0.7075 H   0  0  0  0  0  0  0  0  0  0  0  0
   -3.9651    0.9661    0.9535 H   0  0  0  0  0  0  0  0  0  0  0  0
   -1.3416    0.1530   -0.1205 C   0  0  0  0  0  0  0  0  0  0  0  0
   -2.7731   -1.2530   -0.8099 H   0  0  0  0  0  0  0  0  0  0  0  0
   -2.7733   -1.3628    0.9518 H   0  0  0  0  0  0  0  0  0  0  0  0
   -0.1409   -0.6576    0.1191 C   0  0  0  0  0  0  0  0  0  0  0  0
   -1.4967    0.7663    0.7129 H   0  0  0  0  0  0  0  0  0  0  0  0
   -1.2873    0.7076   -0.9993 H   0  0  0  0  0  0  0  0  0  0  0  0
   -0.3326   -1.0549    0.8732 H   0  0  0  0  0  0  0  0  0  0  0  0
    0.7821   -0.0891    0.5014 H   0  0  0  0  0  0  0  0  0  0  0  0
   -0.1089   -1.5070   -0.8683 H   0  0  0  0  0  0  0  0  0  0  0  0
  1  3  1  0  0  0  0
  1  5  1  0  0  0  0
  2  1  1  0  0  0  0
  2  8  1  0  0  0  0
  4  1  1  0  0  0  0
  6  2  1  0  0  0  0
  6  9  1  0  0  0  0
  6 10  1  0  0  0  0
  7  2  1  0  0  0  0
  9 13  1  0  0  0  0
  9 12  1  0  0  0  0
 11  6  1  0  0  0  0
 14  9  1  0  0  0  0
M  END
$$$$
