14
butane_opt
C  -3.972228   0.276341  -0.036317
C  -2.667276  -0.623096   0.111834
H  -4.785032  -0.312430  -0.427198
H  -3.969945   0.629517  -0.798212
H  -4.052944   1.234242   0.954592
C  -1.401607   0.136931   0.072804
H  -2.555927  -1.162731  -0.668434
H  -2.610374  -1.337672   1.074943
C  -0.201806  -0.663824  -0.029228
H  -1.224739   0.773660   0.829527
H  -1.407007   0.836439  -0.890586
H  -0.103446  -1.381798   0.941289
H   0.804498   0.059595  -0.111368
H  -0.214971  -1.325172  -0.867559
