14
butane_opt
C  -3.926356   0.261966   0.074889
C  -2.650838  -0.615265   0.051643
H  -4.992239  -0.381452  -0.446460
H  -3.757021   0.548909  -0.646796
H  -4.246423   1.342698   1.204433
C  -1.398644   0.152757  -0.077393
H  -2.735011  -1.331640  -0.932108
H  -2.548042  -1.132920   0.877651
C  -0.202868  -0.668700   0.079974
H  -1.563361   0.777239   0.688988
H  -1.337503   0.873428  -1.076792
H  -0.284996  -1.470104   1.058265
H   0.709348  -0.083542  -0.084051
H  -0.098335  -1.217531  -0.714535
