butane_opt
 OpenBabel08242015383D

 14 13  0  0  0  0  0  0  0  0999 V2000
   -3.9807    0.2403    0.0477 C   0  0  0  0  0  0  0  0  0  0  0  0
   -2.7040   -0.6102    0.0554 C   0  0  0  0  0  0  0  0  0  0  0  0
   -4.8793   -0.3666   -0.4373 H   0  0  0  0  0  0  0  0  0  0  0  0
   -3.7410    0.4666   -0.6247 H   0  0  0  0  0  0  0  0  0  0  0  0
   -4.0760    1.2612    1.0710 H   0  0  0  0  0  0  0  0  0  0  0  0
   -1.4195    0.2157   -0.0094 C   0  0  0  0  0  0  0  0  0  0  0  0
   -2.6662   -1.2560   -0.7904 H   0  0  0  0  0  0  0  0  0  0  0  0
   -2.8933   -1.1239    0.8595 H   0  0  0  0  0  0  0  0  0  0  0  0
   -0.1181   -0.7109    0.0383 C   0  0  0  0  0  0  0  0  0  0  0  0
   -1.3673    0.7262    0.6103 H   0  0  0  0  0  0  0  0  0  0  0  0
   -1.4142    1.0525   -1.0377 H   0  0  0  0  0  0  0  0  0  0  0  0
    0.1051   -1.4365    1.0130 H   0  0  0  0  0  0  0  0  0  0  0  0
    0.6055   -0.2195   -0.0397 H   0  0  0  0  0  0  0  0  0  0  0  0
   -0.0310   -1.2324   -0.6899 H   0  0  0  0  0  0  0  0  0  0  0  0
  1  2  1  0  0  0  0
  1  5  1  0  0  0  0
  2  8  1  0  0  0  0
  3  1  1  0  0  0  0
  4  1  1  0  0  0  0
  6  9  1  0  0  0  0
  6  2  1  0  0  0  0
  6 10  1  0  0  0  0
  7  2  1  0  0  0  0
  9 12  1  0  0  0  0
 11  6  1  0  0  0  0
 13  9  1  0  0  0  0
 14  9  1  0  0  0  0
M  END
$$$$
