butane_opt
 OpenBabel08242015383D

 14 13  0  0  0  0  0  0  0  0999 V2000
   -3.9521    0.3085    0.0953 C   0  0  0  0  0  0  0  0  0  0  0  0
   -2.6912   -0.6525   -0.0712 C   0  0  0  0  0  0  0  0  0  0  0  0
   -4.8688   -0.2283    0.3438 H   0  0  0  0  0  0  0  0  0  0  0  0
   -4.2296    0.8359   -0.6321 H   0  0  0  0  0  0  0  0  0  0  0  0
   -3.7536    0.9839    1.0182 H   0  0  0  0  0  0  0  0  0  0  0  0
   -1.4026    0.1176   -0.1073 C   0  0  0  0  0  0  0  0  0  0  0  0
   -2.7610   -1.3671   -1.0143 H   0  0  0  0  0  0  0  0  0  0  0  0
   -2.5300   -1.3145    0.8447 H   0  0  0  0  0  0  0  0  0  0  0  0
   -0.1695   -0.6519    0.1469 C   0  0  0  0  0  0  0  0  0  0  0  0
   -1.5536    0.7749    0.7149 H   0  0  0  0  0  0  0  0  0  0  0  0
   -1.3494    0.9113   -1.1003 H   0  0  0  0  0  0  0  0  0  0  0  0
   -0.4051   -1.2117    0.9622 H   0  0  0  0  0  0  0  0  0  0  0  0
    0.9072    0.1364    0.2479 H   0  0  0  0  0  0  0  0  0  0  0  0
    0.0628   -1.4335   -0.7297 H   0  0  0  0  0  0  0  0  0  0  0  0
  1  3  1  0  0  0  0
  1  5  1  0  0  0  0
  2  1  1  0  0  0  0
  2  8  1  0  0  0  0
  4  1  1  0  0  0  0
  6  2  1  0  0  0  0
  6  9  1  0  0  0  0
  6 10  1  0  0  0  0
  7  2  1  0  0  0  0
  9 13  1  0  0  0  0
  9 12  1  0  0  0  0
 11  6  1  0  0  0  0
 14  9  1  0  0  0  0
M  END
$$$$
