butane_opt
 OpenBabel08242015383D

 14 12  0  0  0  0  0  0  0  0999 V2000
   -3.9700    0.2811    0.1064 C   0  0  0  0  0  0  0  0  0  0  0  0
   -2.7178   -0.6236   -0.0400 C   0  0  0  0  0  0  0  0  0  0  0  0
   -4.9173   -0.4376   -0.1595 H   0  0  0  0  0  0  0  0  0  0  0  0
   -3.8793    0.6701   -0.6873 H   0  0  0  0  0  0  0  0  0  0  0  0
   -4.0533    1.1096    1.0764 H   0  0  0  0  0  0  0  0  0  0  0  0
   -1.3845    0.1966   -0.0415 C   0  0  0  0  0  0  0  0  0  0  0  0
   -2.8226   -1.4765   -1.0902 H   0  0  0  0  0  0  0  0  0  0  0  0
   -2.6233   -1.0696    0.7635 H   0  0  0  0  0  0  0  0  0  0  0  0
   -0.1499   -0.6896    0.0881 C   0  0  0  0  0  0  0  0  0  0  0  0
   -1.4619    0.8019    0.6992 H   0  0  0  0  0  0  0  0  0  0  0  0
   -1.2380    0.9301   -1.0494 H   0  0  0  0  0  0  0  0  0  0  0  0
    0.0944   -1.7478    1.3551 H   0  0  0  0  0  0  0  0  0  0  0  0
    0.7571   -0.1408   -0.1941 H   0  0  0  0  0  0  0  0  0  0  0  0
   -0.2177   -1.0921   -0.5674 H   0  0  0  0  0  0  0  0  0  0  0  0
  1  5  1  0  0  0  0
  2  1  1  0  0  0  0
  2  8  1  0  0  0  0
  3  1  1  0  0  0  0
  4  1  1  0  0  0  0
  6  2  1  0  0  0  0
  6  9  1  0  0  0  0
  6 10  1  0  0  0  0
  7  2  1  0  0  0  0
 11  6  1  0  0  0  0
 13  9  1  0  0  0  0
 14  9  1  0  0  0  0
M  RAD  2   9   2  12   2
M  END
$$$$
