14
butane_opt
C  -4.005170   0.306956   0.113957
C  -2.690294  -0.651657  -0.064616
H  -4.926489  -0.309880  -0.139061
H  -4.018981   0.827095  -0.700108
H  -4.014349   1.120916   1.000409
C  -1.364467   0.167231  -0.043626
H  -2.864047  -1.694925  -1.089047
H  -2.621083  -1.097568   0.690237
C  -0.132536  -0.671449   0.120144
H  -1.336700   0.791835   0.778954
H  -1.201054   0.824391  -0.966189
H  -0.015631  -1.738008   1.369480
H   0.747560  -0.066758  -0.500884
H  -0.462246  -0.926076  -0.473905
