14
butane_opt
C  -3.931055   0.284582   0.061893
C  -2.667618  -0.682794   0.073314
H  -4.724322  -0.163671  -0.493156
H  -3.881644   0.587897  -0.729695
H  -4.203620   1.309713   1.131546
C  -1.425007   0.165910  -0.056134
H  -2.704353  -1.352854  -0.846524
H  -2.614014  -1.100833   0.833200
C  -0.180157  -0.654823   0.063752
H  -1.430595   0.752554   0.708602
H  -1.277163   0.849465  -1.068413
H  -0.287210  -1.414466   1.050534
H   0.822811  -0.022472  -0.091746
H  -0.281942  -1.266512  -0.736895
