butane_opt
 OpenBabel08242015383D

 14 13  0  0  0  0  0  0  0  0999 V2000
   -3.9080    0.2269    0.1402 C   0  0  0  0  0  0  0  0  0  0  0  0
   -2.7445   -0.5478   -0.0377 C   0  0  0  0  0  0  0  0  0  0  0  0
   -4.8098   -0.2706   -0.1196 H   0  0  0  0  0  0  0  0  0  0  0  0
   -3.8647    0.6911   -0.6647 H   0  0  0  0  0  0  0  0  0  0  0  0
   -3.7943    0.9579    1.0850 H   0  0  0  0  0  0  0  0  0  0  0  0
   -1.4265    0.1942   -0.1183 C   0  0  0  0  0  0  0  0  0  0  0  0
   -2.7627   -1.3762   -1.0245 H   0  0  0  0  0  0  0  0  0  0  0  0
   -2.7075   -1.0979    0.7514 H   0  0  0  0  0  0  0  0  0  0  0  0
   -0.1525   -0.7253    0.1150 C   0  0  0  0  0  0  0  0  0  0  0  0
   -1.4731    0.7033    0.6735 H   0  0  0  0  0  0  0  0  0  0  0  0
   -1.4350    1.0121   -1.1776 H   0  0  0  0  0  0  0  0  0  0  0  0
   -0.3303   -1.3685    1.1287 H   0  0  0  0  0  0  0  0  0  0  0  0
    0.8190   -0.0879    0.2790 H   0  0  0  0  0  0  0  0  0  0  0  0
    0.0911   -1.4047   -0.6696 H   0  0  0  0  0  0  0  0  0  0  0  0
  1  5  1  0  0  0  0
  2  1  1  0  0  0  0
  2  8  1  0  0  0  0
  3  1  1  0  0  0  0
  4  1  1  0  0  0  0
  6  2  1  0  0  0  0
  6  9  1  0  0  0  0
  6 10  1  0  0  0  0
  7  2  1  0  0  0  0
  9 13  1  0  0  0  0
  9 12  1  0  0  0  0
 11  6  1  0  0  0  0
 14  9  1  0  0  0  0
M  END
$$$$
