14
butane_opt
C  -3.961317   0.271444  -0.015745
C  -2.699140  -0.628990   0.058122
H  -4.827693  -0.272342   0.047369
H  -3.980959   0.939140  -0.953443
H  -3.988896   0.909916   0.814102
C  -1.392731   0.178875   0.067468
H  -2.683218  -1.314800  -0.793495
H  -2.715333  -1.255204   0.970937
C  -0.164906  -0.683676  -0.001489
H  -1.300246   0.857715   0.919874
H  -1.369635   0.797291  -0.821054
H  -0.054679  -1.386948   0.918676
H   0.741679  -0.071380  -0.092529
H  -0.232764  -1.319397  -0.865290
