14
butane_opt
C  -3.947474   0.259929   0.006618
C  -2.701743  -0.601359   0.047770
H  -4.866765  -0.354368  -0.008658
H  -3.951719   0.849896  -0.894640
H  -4.018218   0.887136   0.840867
C  -1.407934   0.190657   0.031882
H  -2.715023  -1.288937  -0.807037
H  -2.789377  -1.240081   0.961026
C  -0.144277  -0.705324   0.013305
H  -1.370519   0.941605   0.927025
H  -1.432653   0.791791  -0.813510
H  -0.069088  -1.413226   0.960001
H   0.781899  -0.100367  -0.088928
H  -0.171273  -1.273437  -0.817857
