14
butane_opt
C  -3.936225   0.254231  -0.086294
C  -2.708471  -0.589970   0.182785
H  -4.903738  -0.455027  -0.329054
H  -3.727434   0.804851  -0.900665
H  -4.027152   0.977588   0.785969
C  -1.447221   0.203086   0.103972
H  -2.631701  -1.367690  -0.647464
H  -2.723178  -1.235115   1.064996
C  -0.145220  -0.697515  -0.073118
H  -1.268836   0.956202   1.009006
H  -1.467638   0.813044  -0.794291
H  -0.057044  -1.451833   0.874495
H   0.823817  -0.137256  -0.156630
H  -0.202455  -1.416813  -0.990577
