14
butane_opt
C  -3.932787   0.240694  -0.045107
C  -2.717394  -0.566787   0.135414
H  -4.778360  -0.334586  -0.363653
H  -3.790817   0.688853  -0.879889
H  -4.133411   0.977855   0.869346
C  -1.414242   0.209230   0.067161
H  -2.724147  -1.215298  -0.733339
H  -2.801132  -1.338575   1.159468
C  -0.154099  -0.736302  -0.017198
H  -1.337194   0.792796   0.900426
H  -1.443069   0.944829  -0.906735
H   0.089193  -1.155610   0.726610
H   0.835937  -0.011086  -0.091111
H  -0.315025  -1.572825  -0.929262
