14
butane_opt
C  -3.965424   0.290898   0.068300
C  -2.725020  -0.681238  -0.034883
H  -4.808231  -0.283601   0.142785
H  -4.106087   0.837496  -0.817143
H  -4.080953   1.104687   0.952773
C  -1.404531   0.165389  -0.009672
H  -2.657142  -1.445450  -0.972965
H  -2.615889  -1.010395   0.701416
C  -0.120151  -0.674720   0.082096
H  -1.294681   0.815030   0.803073
H  -1.477631   0.868188  -0.960824
H  -0.054661  -1.564767   1.221896
H   0.857807   0.018259  -0.238577
H  -0.213674  -1.011564  -0.595514
