butane_opt
 OpenBabel08242015383D

 14 12  0  0  0  0  0  0  0  0999 V2000
   -3.9264    0.2620    0.0749 C   0  0  0  0  0  0  0  0  0  0  0  0
   -2.6508   -0.6153    0.0516 C   0  0  0  0  0  0  0  0  0  0  0  0
   -4.9922   -0.3815   -0.4465 H   0  0  0  0  0  0  0  0  0  0  0  0
   -3.7570    0.5489   -0.6468 H   0  0  0  0  0  0  0  0  0  0  0  0
   -4.2464    1.3427    1.2044 H   0  0  0  0  0  0  0  0  0  0  0  0
   -1.3986    0.1528   -0.0774 C   0  0  0  0  0  0  0  0  0  0  0  0
   -2.7350   -1.3316   -0.9321 H   0  0  0  0  0  0  0  0  0  0  0  0
   -2.5480   -1.1329    0.8777 H   0  0  0  0  0  0  0  0  0  0  0  0
   -0.2029   -0.6687    0.0800 C   0  0  0  0  0  0  0  0  0  0  0  0
   -1.5634    0.7772    0.6890 H   0  0  0  0  0  0  0  0  0  0  0  0
   -1.3375    0.8734   -1.0768 H   0  0  0  0  0  0  0  0  0  0  0  0
   -0.2850   -1.4701    1.0583 H   0  0  0  0  0  0  0  0  0  0  0  0
    0.7093   -0.0835   -0.0841 H   0  0  0  0  0  0  0  0  0  0  0  0
   -0.0983   -1.2175   -0.7145 H   0  0  0  0  0  0  0  0  0  0  0  0
  2  1  1  0  0  0  0
  2  8  1  0  0  0  0
  3  1  1  0  0  0  0
  4  1  1  0  0  0  0
  6  2  1  0  0  0  0
  6  9  1  0  0  0  0
  6 10  1  0  0  0  0
  7  2  1  0  0  0  0
  9 12  1  0  0  0  0
 11  6  1  0  0  0  0
 13  9  1  0  0  0  0
 14  9  1  0  0  0  0
M  RAD  2   1   2   5   2
M  END
$$$$
