butane_opt
 OpenBabel08242015383D

 14 13  0  0  0  0  0  0  0  0999 V2000
   -3.9403    0.2818    0.0329 C   0  0  0  0  0  0  0  0  0  0  0  0
   -2.6939   -0.6336    0.0257 C   0  0  0  0  0  0  0  0  0  0  0  0
   -4.8506   -0.3220    0.0653 H   0  0  0  0  0  0  0  0  0  0  0  0
   -3.9779    0.8306   -0.7971 H   0  0  0  0  0  0  0  0  0  0  0  0
   -3.9531    0.9964    0.9086 H   0  0  0  0  0  0  0  0  0  0  0  0
   -1.4034    0.1710   -0.0202 C   0  0  0  0  0  0  0  0  0  0  0  0
   -2.7087   -1.3092   -0.8094 H   0  0  0  0  0  0  0  0  0  0  0  0
   -2.6609   -1.2306    0.8756 H   0  0  0  0  0  0  0  0  0  0  0  0
   -0.1786   -0.6845    0.0573 C   0  0  0  0  0  0  0  0  0  0  0  0
   -1.3569    0.7784    0.7996 H   0  0  0  0  0  0  0  0  0  0  0  0
   -1.3385    0.8826   -0.9533 H   0  0  0  0  0  0  0  0  0  0  0  0
   -0.1939   -1.2258    0.9106 H   0  0  0  0  0  0  0  0  0  0  0  0
    0.7573   -0.0893    0.1114 H   0  0  0  0  0  0  0  0  0  0  0  0
   -0.1499   -1.4012   -0.8166 H   0  0  0  0  0  0  0  0  0  0  0  0
  1  3  1  0  0  0  0
  1  5  1  0  0  0  0
  2  1  1  0  0  0  0
  2  8  1  0  0  0  0
  4  1  1  0  0  0  0
  6  2  1  0  0  0  0
  6  9  1  0  0  0  0
  6 10  1  0  0  0  0
  7  2  1  0  0  0  0
  9 13  1  0  0  0  0
  9 12  1  0  0  0  0
 11  6  1  0  0  0  0
 14  9  1  0  0  0  0
M  END
$$$$
