butane_opt
 OpenBabel08242015383D

 14 13  0  0  0  0  0  0  0  0999 V2000
   -3.9654    0.2909    0.0683 C   0  0  0  0  0  0  0  0  0  0  0  0
   -2.7250   -0.6812   -0.0349 C   0  0  0  0  0  0  0  0  0  0  0  0
   -4.8082   -0.2836    0.1428 H   0  0  0  0  0  0  0  0  0  0  0  0
   -4.1061    0.8375   -0.8171 H   0  0  0  0  0  0  0  0  0  0  0  0
   -4.0810    1.1047    0.9528 H   0  0  0  0  0  0  0  0  0  0  0  0
   -1.4045    0.1654   -0.0097 C   0  0  0  0  0  0  0  0  0  0  0  0
   -2.6571   -1.4454   -0.9730 H   0  0  0  0  0  0  0  0  0  0  0  0
   -2.6159   -1.0104    0.7014 H   0  0  0  0  0  0  0  0  0  0  0  0
   -0.1202   -0.6747    0.0821 C   0  0  0  0  0  0  0  0  0  0  0  0
   -1.2947    0.8150    0.8031 H   0  0  0  0  0  0  0  0  0  0  0  0
   -1.4776    0.8682   -0.9608 H   0  0  0  0  0  0  0  0  0  0  0  0
   -0.0547   -1.5648    1.2219 H   0  0  0  0  0  0  0  0  0  0  0  0
    0.8578    0.0183   -0.2386 H   0  0  0  0  0  0  0  0  0  0  0  0
   -0.2137   -1.0116   -0.5955 H   0  0  0  0  0  0  0  0  0  0  0  0
  1  3  1  0  0  0  0
  1  5  1  0  0  0  0
  2  6  1  0  0  0  0
  2  1  1  0  0  0  0
  2  8  1  0  0  0  0
  4  1  1  0  0  0  0
  6  9  1  0  0  0  0
  6 10  1  0  0  0  0
  7  2  1  0  0  0  0
  9 12  1  0  0  0  0
 11  6  1  0  0  0  0
 13  9  1  0  0  0  0
 14  9  1  0  0  0  0
M  END
$$$$
