14
butane_opt
C  -3.956847   0.271006  -0.011266
C  -2.706373  -0.628678   0.063993
H  -4.842086  -0.306282  -0.004214
H  -3.950210   0.924276  -0.933006
H  -4.032513   0.973913   0.850378
C  -1.401342   0.171436   0.048633
H  -2.695070  -1.288964  -0.771658
H  -2.746091  -1.242056   0.956770
C  -0.143858  -0.686551  -0.005667
H  -1.329422   0.893587   0.939575
H  -1.377550   0.761222  -0.777465
H  -0.111847  -1.370284   0.958586
H   0.757562  -0.077524  -0.109980
H  -0.194074  -1.265702  -0.811246
