butane_opt
 OpenBabel08242015383D

 14 13  0  0  0  0  0  0  0  0999 V2000
   -3.9601    0.2393    0.0130 C   0  0  0  0  0  0  0  0  0  0  0  0
   -2.7365   -0.5665    0.0144 C   0  0  0  0  0  0  0  0  0  0  0  0
   -4.8740   -0.3283    0.0706 H   0  0  0  0  0  0  0  0  0  0  0  0
   -3.8609    0.7722   -0.8115 H   0  0  0  0  0  0  0  0  0  0  0  0
   -3.9265    0.8917    0.9726 H   0  0  0  0  0  0  0  0  0  0  0  0
   -1.4191    0.2082    0.0436 C   0  0  0  0  0  0  0  0  0  0  0  0
   -2.8480   -1.3046   -0.9273 H   0  0  0  0  0  0  0  0  0  0  0  0
   -2.7393   -1.1697    0.8269 H   0  0  0  0  0  0  0  0  0  0  0  0
   -0.1093   -0.7237    0.0461 C   0  0  0  0  0  0  0  0  0  0  0  0
   -1.4183    0.7764    0.7884 H   0  0  0  0  0  0  0  0  0  0  0  0
   -1.2891    0.9625   -0.9149 H   0  0  0  0  0  0  0  0  0  0  0  0
    0.0664   -1.5309    1.0627 H   0  0  0  0  0  0  0  0  0  0  0  0
    0.7874   -0.0959   -0.2193 H   0  0  0  0  0  0  0  0  0  0  0  0
   -0.2278   -1.3324   -0.7942 H   0  0  0  0  0  0  0  0  0  0  0  0
  1  2  1  0  0  0  0
  1  3  1  0  0  0  0
  1  5  1  0  0  0  0
  2  6  1  0  0  0  0
  2  8  1  0  0  0  0
  4  1  1  0  0  0  0
  6  9  1  0  0  0  0
  6 10  1  0  0  0  0
  7  2  1  0  0  0  0
  9 12  1  0  0  0  0
 11  6  1  0  0  0  0
 13  9  1  0  0  0  0
 14  9  1  0  0  0  0
M  END
$$$$
