butane_opt
 OpenBabel08242015383D

 14 13  0  0  0  0  0  0  0  0999 V2000
   -3.9143    0.2555    0.1013 C   0  0  0  0  0  0  0  0  0  0  0  0
   -2.6952   -0.5836   -0.0876 C   0  0  0  0  0  0  0  0  0  0  0  0
   -4.8009   -0.4217    0.4327 H   0  0  0  0  0  0  0  0  0  0  0  0
   -4.1985    1.0097   -0.8566 H   0  0  0  0  0  0  0  0  0  0  0  0
   -3.7572    0.8053    0.8951 H   0  0  0  0  0  0  0  0  0  0  0  0
   -1.4181    0.1619   -0.0619 C   0  0  0  0  0  0  0  0  0  0  0  0
   -2.8218   -1.1496   -0.8065 H   0  0  0  0  0  0  0  0  0  0  0  0
   -2.7491   -1.2069    0.7777 H   0  0  0  0  0  0  0  0  0  0  0  0
   -0.1657   -0.7058    0.1097 C   0  0  0  0  0  0  0  0  0  0  0  0
   -1.5924    0.9058    0.7744 H   0  0  0  0  0  0  0  0  0  0  0  0
   -1.2248    0.7970   -1.0287 H   0  0  0  0  0  0  0  0  0  0  0  0
   -0.2589   -1.2819    0.9853 H   0  0  0  0  0  0  0  0  0  0  0  0
    0.8288   -0.0459    0.3348 H   0  0  0  0  0  0  0  0  0  0  0  0
   -0.1287   -1.4172   -0.8238 H   0  0  0  0  0  0  0  0  0  0  0  0
  1  3  1  0  0  0  0
  1  5  1  0  0  0  0
  2  6  1  0  0  0  0
  2  1  1  0  0  0  0
  2  8  1  0  0  0  0
  4  1  1  0  0  0  0
  6  9  1  0  0  0  0
  6 10  1  0  0  0  0
  7  2  1  0  0  0  0
  9 13  1  0  0  0  0
  9 12  1  0  0  0  0
 11  6  1  0  0  0  0
 14  9  1  0  0  0  0
M  END
$$$$
