butane_opt
 OpenBabel08242015383D

 14 12  0  0  0  0  0  0  0  0999 V2000
   -3.8823    0.2545   -0.0856 C   0  0  0  0  0  0  0  0  0  0  0  0
   -2.7191   -0.6046    0.1500 C   0  0  0  0  0  0  0  0  0  0  0  0
   -4.9291   -0.4000    0.2318 H   0  0  0  0  0  0  0  0  0  0  0  0
   -3.9289    1.0164   -1.0255 H   0  0  0  0  0  0  0  0  0  0  0  0
   -3.8848    0.7279    0.6935 H   0  0  0  0  0  0  0  0  0  0  0  0
   -1.4124    0.2097    0.0600 C   0  0  0  0  0  0  0  0  0  0  0  0
   -2.6300   -1.1637   -0.5744 H   0  0  0  0  0  0  0  0  0  0  0  0
   -2.8642   -1.3734    1.2155 H   0  0  0  0  0  0  0  0  0  0  0  0
   -0.1745   -0.6989   -0.0517 C   0  0  0  0  0  0  0  0  0  0  0  0
   -1.4321    1.0034    0.9621 H   0  0  0  0  0  0  0  0  0  0  0  0
   -1.4975    0.8637   -0.7987 H   0  0  0  0  0  0  0  0  0  0  0  0
   -0.2642   -1.0060    0.5824 H   0  0  0  0  0  0  0  0  0  0  0  0
    0.6507   -0.1623    0.4619 H   0  0  0  0  0  0  0  0  0  0  0  0
    0.0240   -1.9446   -1.2380 H   0  0  0  0  0  0  0  0  0  0  0  0
  1  2  1  0  0  0  0
  1  3  1  0  0  0  0
  1  5  1  0  0  0  0
  2  8  1  0  0  0  0
  4  1  1  0  0  0  0
  6  2  1  0  0  0  0
  6 10  1  0  0  0  0
  7  2  1  0  0  0  0
  9  6  1  0  0  0  0
  9 13  1  0  0  0  0
  9 12  1  0  0  0  0
 11  6  1  0  0  0  0
M  RAD  2   9   2  14   2
M  END
$$$$
