14
butane_opt
C  -3.969963   0.281106   0.106418
C  -2.717825  -0.623611  -0.040006
H  -4.917332  -0.437606  -0.159520
H  -3.879330   0.670138  -0.687321
H  -4.053289   1.109605   1.076378
C  -1.384505   0.196572  -0.041488
H  -2.822586  -1.476467  -1.090178
H  -2.623340  -1.069616   0.763456
C  -0.149850  -0.689600   0.088085
H  -1.461938   0.801918   0.699249
H  -1.237964   0.930124  -1.049417
H   0.094407  -1.747792   1.355118
H   0.757096  -0.140795  -0.194102
H  -0.217675  -1.092138  -0.567441
