14
butane_opt
C  -3.910512   0.235471   0.128436
C  -2.670837  -0.577265  -0.024867
H  -4.930168  -0.469050  -0.385416
H  -3.733057   0.454918  -0.535895
H  -4.143925   1.236047   1.066854
C  -1.432272   0.205517  -0.105370
H  -2.798683  -1.328435  -0.881642
H  -2.687525  -1.145079   0.829930
C  -0.184306  -0.712232   0.110753
H  -1.463875   0.860189   0.725134
H  -1.342192   1.022482  -1.150989
H  -0.040351  -1.525421   1.111515
H   0.634000  -0.278705   0.009685
H  -0.118056  -1.159272  -0.588015
