14
butane_opt
C  -3.883395   0.237288   0.062885
C  -2.706299  -0.586413  -0.038639
H  -4.760696  -0.389610   0.090293
H  -4.026726   0.882478  -0.827172
H  -3.872499   0.956273   0.961567
C  -1.444307   0.189399  -0.005682
H  -2.623010  -1.335043  -0.937208
H  -2.723358  -1.211323   0.821097
C  -0.177100  -0.709157   0.054035
H  -1.414328   0.927179   0.974098
H  -1.553390   0.774922  -0.875752
H  -0.062556  -1.611359   1.063150
H   0.690201  -0.100511  -0.126863
H  -0.138875  -0.918386  -0.518070
