14
butane_opt
C  -3.927757   0.262328  -0.040755
C  -2.725442  -0.589971   0.088522
H  -4.874275  -0.413602   0.282130
H  -3.815547   1.060835  -1.042904
H  -3.944198   0.642488   0.589124
C  -1.411094   0.204020   0.070553
H  -2.609828  -1.123289  -0.743200
H  -2.710658  -1.417188   1.101800
C  -0.161405  -0.720944  -0.026618
H  -1.371178   0.981577   0.998863
H  -1.463355   0.621423  -0.679054
H  -0.144078  -1.078325   0.710040
H   0.708504  -0.092576   0.147634
H  -0.087312  -1.526736  -1.054639
