14
butane_opt
C  -3.923567   0.236622  -0.082571
C  -2.694230  -0.561381   0.142719
H  -4.939122  -0.494659   0.184654
H  -3.762518   0.936464  -1.052172
H  -3.776485   0.739953   0.729151
C  -1.422966   0.218730   0.071120
H  -2.668486  -1.162848  -0.589044
H  -2.837590  -1.282197   1.153285
C  -0.181058  -0.720075  -0.026772
H  -1.294400   0.856054   0.918910
H  -1.569486   0.983380  -0.862838
H  -0.160883  -0.995726   0.563771
H   0.712826  -0.160654   0.333165
H  -0.066802  -1.999380  -1.238207
