14
butane_opt
C  -3.940845   0.272119   0.059003
C  -2.695603  -0.619943   0.008484
H  -4.851263  -0.314957   0.056321
H  -4.025172   0.843480  -0.816193
H  -3.968992   0.958598   0.918157
C  -1.413135   0.164302  -0.043419
H  -2.731022  -1.290718  -0.836849
H  -2.660403  -1.221490   0.871169
C  -0.157968  -0.686089   0.071877
H  -1.414718   0.839602   0.776751
H  -1.342000   0.821893  -0.963442
H  -0.229803  -1.235724   0.929951
H   0.768399  -0.046457   0.136907
H  -0.078723  -1.394259  -0.789317
