butane_opt
 OpenBabel08242015383D

 14 13  0  0  0  0  0  0  0  0999 V2000
   -3.9395    0.2604    0.0436 C   0  0  0  0  0  0  0  0  0  0  0  0
   -2.6981   -0.5947    0.0037 C   0  0  0  0  0  0  0  0  0  0  0  0
   -4.8773   -0.3577    0.0127 H   0  0  0  0  0  0  0  0  0  0  0  0
   -3.9348    0.8335   -0.8523 H   0  0  0  0  0  0  0  0  0  0  0  0
   -3.8993    0.9278    0.8999 H   0  0  0  0  0  0  0  0  0  0  0  0
   -1.4027    0.1849    0.0080 C   0  0  0  0  0  0  0  0  0  0  0  0
   -2.7386   -1.3576   -0.9003 H   0  0  0  0  0  0  0  0  0  0  0  0
   -2.6961   -1.2017    0.8764 H   0  0  0  0  0  0  0  0  0  0  0  0
   -0.1677   -0.6973    0.0550 C   0  0  0  0  0  0  0  0  0  0  0  0
   -1.4084    0.8268    0.8490 H   0  0  0  0  0  0  0  0  0  0  0  0
   -1.4132    0.8461   -0.9144 H   0  0  0  0  0  0  0  0  0  0  0  0
   -0.0768   -1.4422    1.0265 H   0  0  0  0  0  0  0  0  0  0  0  0
    0.7315   -0.1264   -0.1299 H   0  0  0  0  0  0  0  0  0  0  0  0
   -0.2172   -1.2550   -0.7381 H   0  0  0  0  0  0  0  0  0  0  0  0
  1  5  1  0  0  0  0
  2  6  1  0  0  0  0
  2  1  1  0  0  0  0
  2  8  1  0  0  0  0
  3  1  1  0  0  0  0
  4  1  1  0  0  0  0
  6  9  1  0  0  0  0
  6 10  1  0  0  0  0
  7  2  1  0  0  0  0
  9 12  1  0  0  0  0
 11  6  1  0  0  0  0
 13  9  1  0  0  0  0
 14  9  1  0  0  0  0
M  END
$$$$
