14
butane_opt
C  -3.963307   0.316270  -0.037844
C  -2.708108  -0.684747   0.052908
H  -4.872620  -0.255400   0.458321
H  -4.299466   1.107244  -1.041032
H  -3.970021   0.844339   0.729680
C  -1.353969   0.156298   0.057004
H  -2.655158  -1.245098  -0.752455
H  -2.833009  -1.370285   1.015519
C  -0.160255  -0.651950  -0.001398
H  -1.384536   0.916852   0.882313
H  -1.270885   0.576497  -0.701756
H  -0.133133  -1.144030   0.882796
H   0.699914  -0.074007   0.101322
H  -0.082010  -1.457765  -1.007529
