14
butane_opt
C  -3.973334   0.256561   0.095422
C  -2.717831  -0.601345  -0.030198
H  -5.025859  -0.354384  -0.273488
H  -3.851093   0.407818  -0.534249
H  -3.929704   1.228460   1.207521
C  -1.406713   0.199890  -0.107904
H  -2.745657  -1.193997  -0.857438
H  -2.757884  -1.150632   0.820395
C  -0.117324  -0.714005   0.126372
H  -1.472623   0.892193   0.748886
H  -1.240493   0.863582  -0.986141
H   0.049717  -1.611828   1.114523
H   0.701584  -0.222205  -0.151643
H  -0.160013  -1.060553  -0.583053
