butane_opt
 OpenBabel08242015383D

 14 12  0  0  0  0  0  0  0  0999 V2000
   -3.9493    0.3038    0.0532 C   0  0  0  0  0  0  0  0  0  0  0  0
   -2.6548   -0.6654    0.0298 C   0  0  0  0  0  0  0  0  0  0  0  0
   -4.8083   -0.2049   -0.3042 H   0  0  0  0  0  0  0  0  0  0  0  0
   -3.8970    0.4476   -0.6284 H   0  0  0  0  0  0  0  0  0  0  0  0
   -3.9688    1.3514    1.2119 H   0  0  0  0  0  0  0  0  0  0  0  0
   -1.3686    0.1347   -0.0574 C   0  0  0  0  0  0  0  0  0  0  0  0
   -2.5882   -1.2929   -0.8006 H   0  0  0  0  0  0  0  0  0  0  0  0
   -2.6492   -1.2601    0.8492 H   0  0  0  0  0  0  0  0  0  0  0  0
   -0.2335   -0.6645    0.0817 C   0  0  0  0  0  0  0  0  0  0  0  0
   -1.4422    0.7792    0.6659 H   0  0  0  0  0  0  0  0  0  0  0  0
   -1.3414    0.9226   -1.0552 H   0  0  0  0  0  0  0  0  0  0  0  0
   -0.3446   -1.3218    1.0545 H   0  0  0  0  0  0  0  0  0  0  0  0
    0.6572   -0.0251   -0.1144 H   0  0  0  0  0  0  0  0  0  0  0  0
   -0.1758   -1.1811   -0.6803 H   0  0  0  0  0  0  0  0  0  0  0  0
  2  1  1  0  0  0  0
  2  8  1  0  0  0  0
  3  1  1  0  0  0  0
  4  1  1  0  0  0  0
  6  2  1  0  0  0  0
  6  9  1  0  0  0  0
  6 10  1  0  0  0  0
  7  2  1  0  0  0  0
  9 12  1  0  0  0  0
 11  6  1  0  0  0  0
 13  9  1  0  0  0  0
 14  9  1  0  0  0  0
M  RAD  2   1   2   5   2
M  END
$$$$
