14
butane_opt
C  -3.980487   0.282819  -0.061214
C  -2.692789  -0.622502   0.071914
H  -4.820760  -0.241755   0.258780
H  -4.225359   1.230812  -1.177655
H  -3.882671   0.570544   0.663837
C  -1.417756   0.149526   0.123879
H  -2.615814  -1.268584  -0.733761
H  -2.759680  -1.388402   1.146509
C  -0.108810  -0.669737  -0.048433
H  -1.177360   0.872552   1.040157
H  -1.473981   0.670841  -0.663526
H  -0.190611  -1.091522   0.729941
H   0.817678  -0.071823   0.075595
H  -0.283132  -1.412018  -0.984601
