14
butane_opt
C  -3.913041   0.236448  -0.055684
C  -2.723227  -0.552386   0.139897
H  -4.989673  -0.458644  -0.138009
H  -3.622107   0.992818  -1.077166
H  -3.987751   0.689343   0.635827
C  -1.413327   0.223781   0.123992
H  -2.600338  -1.254758  -0.724948
H  -2.685934  -1.255816   0.997165
C  -0.194590  -0.742179  -0.054108
H  -1.322190   1.039949   1.031664
H  -1.450692   0.734351  -0.690844
H   0.014641  -1.412419   0.828790
H   0.797005  -0.103599  -0.276218
H  -0.240352  -1.441482  -1.015148
