14
butane_opt
C  -3.898710   0.247751  -0.105915
C  -2.703595  -0.581050   0.195548
H  -4.994107  -0.498311  -0.208472
H  -3.704664   0.637408  -0.976393
H  -4.121029   1.018876   0.807682
C  -1.437751   0.194595   0.108127
H  -2.537288  -1.084273  -0.520993
H  -2.844037  -1.257066   1.054791
C  -0.154600  -0.713555  -0.069085
H  -1.323379   0.919673   0.967223
H  -1.708831   0.896970  -0.797133
H  -0.019204  -1.199372   0.703090
H   0.816761  -0.132923  -0.054618
H  -0.238975  -1.575080  -1.045023
