14
butane_opt
C  -3.954438   0.279185   0.028703
C  -2.697256  -0.627197   0.046172
H  -4.861084  -0.340356  -0.090750
H  -3.951259   0.793447  -0.799519
H  -4.047101   1.066703   0.962596
C  -1.389771   0.178733  -0.013208
H  -2.691557  -1.366979  -0.834077
H  -2.693994  -1.254619   0.910768
C  -0.166158  -0.687027   0.037684
H  -1.358431   0.817713   0.821673
H  -1.362198   0.833321  -0.920833
H  -0.176279  -1.380421   0.972597
H   0.767473  -0.060071   0.042086
H  -0.156576  -1.300329  -0.794123
