14
butane_opt
C  -3.909130   0.217168  -0.078219
C  -2.735229  -0.552888   0.123004
H  -4.847586  -0.462257  -0.109725
H  -3.842622   0.964529  -1.078219
H  -3.784776   0.942733   0.874067
C  -1.424562   0.212702   0.144495
H  -2.608350  -1.324174  -0.834554
H  -2.861730  -1.100654   1.032097
C  -0.155455  -0.748766  -0.051369
H  -1.425911   1.024686   1.041124
H  -1.468974   0.779367  -0.763633
H   0.067756  -1.565887   0.949330
H   0.856628  -0.117587  -0.500930
H  -0.395970  -1.142528  -0.811028
