14
butane_opt
C  -3.978942   0.301930  -0.048902
C  -2.708465  -0.661808   0.098970
H  -4.852843  -0.239689  -0.125128
H  -3.964036   0.909217  -1.018544
H  -4.229843   0.885051   0.650216
C  -1.378116   0.146187   0.148217
H  -2.524633  -1.300008  -0.688106
H  -2.683136  -1.236980   0.954707
C  -0.146273  -0.667551  -0.051909
H  -1.311288   0.851202   0.981130
H  -1.418018   0.832609  -0.742987
H   0.152434  -1.406340   0.810398
H   0.882098   0.017149  -0.317358
H  -0.537817  -1.193444  -0.792733
