butane_opt
 OpenBabel08242015383D

 14 13  0  0  0  0  0  0  0  0999 V2000
   -3.9311    0.2846    0.0619 C   0  0  0  0  0  0  0  0  0  0  0  0
   -2.6676   -0.6828    0.0733 C   0  0  0  0  0  0  0  0  0  0  0  0
   -4.7243   -0.1637   -0.4932 H   0  0  0  0  0  0  0  0  0  0  0  0
   -3.8816    0.5879   -0.7297 H   0  0  0  0  0  0  0  0  0  0  0  0
   -4.2036    1.3097    1.1315 H   0  0  0  0  0  0  0  0  0  0  0  0
   -1.4250    0.1659   -0.0561 C   0  0  0  0  0  0  0  0  0  0  0  0
   -2.7044   -1.3529   -0.8465 H   0  0  0  0  0  0  0  0  0  0  0  0
   -2.6140   -1.1008    0.8332 H   0  0  0  0  0  0  0  0  0  0  0  0
   -0.1802   -0.6548    0.0638 C   0  0  0  0  0  0  0  0  0  0  0  0
   -1.4306    0.7526    0.7086 H   0  0  0  0  0  0  0  0  0  0  0  0
   -1.2772    0.8495   -1.0684 H   0  0  0  0  0  0  0  0  0  0  0  0
   -0.2872   -1.4145    1.0505 H   0  0  0  0  0  0  0  0  0  0  0  0
    0.8228   -0.0225   -0.0917 H   0  0  0  0  0  0  0  0  0  0  0  0
   -0.2819   -1.2665   -0.7369 H   0  0  0  0  0  0  0  0  0  0  0  0
  1  2  1  0  0  0  0
  1  5  1  0  0  0  0
  2  8  1  0  0  0  0
  3  1  1  0  0  0  0
  4  1  1  0  0  0  0
  6  9  1  0  0  0  0
  6  2  1  0  0  0  0
  6 10  1  0  0  0  0
  7  2  1  0  0  0  0
  9 12  1  0  0  0  0
 11  6  1  0  0  0  0
 13  9  1  0  0  0  0
 14  9  1  0  0  0  0
M  END
$$$$
