butane_opt
 OpenBabel08242015383D

 14 13  0  0  0  0  0  0  0  0999 V2000
   -3.9278    0.2623   -0.0408 C   0  0  0  0  0  0  0  0  0  0  0  0
   -2.7254   -0.5900    0.0885 C   0  0  0  0  0  0  0  0  0  0  0  0
   -4.8743   -0.4136    0.2821 H   0  0  0  0  0  0  0  0  0  0  0  0
   -3.8155    1.0608   -1.0429 H   0  0  0  0  0  0  0  0  0  0  0  0
   -3.9442    0.6425    0.5891 H   0  0  0  0  0  0  0  0  0  0  0  0
   -1.4111    0.2040    0.0706 C   0  0  0  0  0  0  0  0  0  0  0  0
   -2.6098   -1.1233   -0.7432 H   0  0  0  0  0  0  0  0  0  0  0  0
   -2.7107   -1.4172    1.1018 H   0  0  0  0  0  0  0  0  0  0  0  0
   -0.1614   -0.7209   -0.0266 C   0  0  0  0  0  0  0  0  0  0  0  0
   -1.3712    0.9816    0.9989 H   0  0  0  0  0  0  0  0  0  0  0  0
   -1.4634    0.6214   -0.6791 H   0  0  0  0  0  0  0  0  0  0  0  0
   -0.1441   -1.0783    0.7100 H   0  0  0  0  0  0  0  0  0  0  0  0
    0.7085   -0.0926    0.1476 H   0  0  0  0  0  0  0  0  0  0  0  0
   -0.0873   -1.5267   -1.0546 H   0  0  0  0  0  0  0  0  0  0  0  0
  1  2  1  0  0  0  0
  1  3  1  0  0  0  0
  1  5  1  0  0  0  0
  2  8  1  0  0  0  0
  4  1  1  0  0  0  0
  6  2  1  0  0  0  0
  6 10  1  0  0  0  0
  7  2  1  0  0  0  0
  9  6  1  0  0  0  0
  9 13  1  0  0  0  0
  9 12  1  0  0  0  0
 11  6  1  0  0  0  0
 14  9  1  0  0  0  0
M  END
$$$$
