butane_opt
 OpenBabel08242015383D

 14 13  0  0  0  0  0  0  0  0999 V2000
   -3.9874    0.3093   -0.0696 C   0  0  0  0  0  0  0  0  0  0  0  0
   -2.6886   -0.6713    0.1607 C   0  0  0  0  0  0  0  0  0  0  0  0
   -4.7740   -0.2194   -0.3538 H   0  0  0  0  0  0  0  0  0  0  0  0
   -3.9662    0.7606   -0.8469 H   0  0  0  0  0  0  0  0  0  0  0  0
   -4.1834    1.1090    0.8149 H   0  0  0  0  0  0  0  0  0  0  0  0
   -1.3538    0.1740    0.0622 C   0  0  0  0  0  0  0  0  0  0  0  0
   -2.7428   -1.3456   -0.6494 H   0  0  0  0  0  0  0  0  0  0  0  0
   -2.8317   -1.4588    1.1520 H   0  0  0  0  0  0  0  0  0  0  0  0
   -0.1466   -0.6735   -0.0729 C   0  0  0  0  0  0  0  0  0  0  0  0
   -1.2396    0.9951    1.0523 H   0  0  0  0  0  0  0  0  0  0  0  0
   -1.4235    0.7133   -0.6717 H   0  0  0  0  0  0  0  0  0  0  0  0
   -0.2129   -1.3406    0.9348 H   0  0  0  0  0  0  0  0  0  0  0  0
    0.7278   -0.0689   -0.0769 H   0  0  0  0  0  0  0  0  0  0  0  0
   -0.2645   -1.2741   -0.8734 H   0  0  0  0  0  0  0  0  0  0  0  0
  1  2  1  0  0  0  0
  1  5  1  0  0  0  0
  2  8  1  0  0  0  0
  3  1  1  0  0  0  0
  4  1  1  0  0  0  0
  6  2  1  0  0  0  0
  6 10  1  0  0  0  0
  7  2  1  0  0  0  0
  9  6  1  0  0  0  0
  9 12  1  0  0  0  0
 11  6  1  0  0  0  0
 13  9  1  0  0  0  0
 14  9  1  0  0  0  0
M  END
$$$$
