14
butane_opt
C  -3.980485   0.301127   0.095108
C  -2.713719  -0.663713  -0.043225
H  -4.722778  -0.143944   0.210820
H  -4.240548   0.925407  -0.707471
H  -3.965098   0.966106   0.953489
C  -1.341599   0.153024  -0.120485
H  -2.773101  -1.252993  -0.809937
H  -2.773289  -1.362812   0.951798
C  -0.140892  -0.657567   0.119117
H  -1.496650   0.766328   0.712907
H  -1.287312   0.707623  -0.999274
H  -0.332589  -1.054944   0.873206
H   0.782127  -0.089085   0.501433
H  -0.108859  -1.506957  -0.868343
