butane_opt
 OpenBabel08242015383D

 14 13  0  0  0  0  0  0  0  0999 V2000
   -3.9396    0.2145   -0.0651 C   0  0  0  0  0  0  0  0  0  0  0  0
   -2.7400   -0.5907    0.1053 C   0  0  0  0  0  0  0  0  0  0  0  0
   -4.7683   -0.3235   -0.1159 H   0  0  0  0  0  0  0  0  0  0  0  0
   -3.8811    0.8630   -0.9720 H   0  0  0  0  0  0  0  0  0  0  0  0
   -4.0468    0.9693    0.8870 H   0  0  0  0  0  0  0  0  0  0  0  0
   -1.4224    0.2599    0.1116 C   0  0  0  0  0  0  0  0  0  0  0  0
   -2.6422   -1.3222   -0.6877 H   0  0  0  0  0  0  0  0  0  0  0  0
   -2.8861   -1.1886    1.0319 H   0  0  0  0  0  0  0  0  0  0  0  0
   -0.1201   -0.7153   -0.0367 C   0  0  0  0  0  0  0  0  0  0  0  0
   -1.3036    0.7851    0.9229 H   0  0  0  0  0  0  0  0  0  0  0  0
   -1.6203    0.8016   -0.7543 H   0  0  0  0  0  0  0  0  0  0  0  0
    0.2607   -1.4965    0.8858 H   0  0  0  0  0  0  0  0  0  0  0  0
    0.7355   -0.2020   -0.2323 H   0  0  0  0  0  0  0  0  0  0  0  0
   -0.2138   -1.3503   -0.8704 H   0  0  0  0  0  0  0  0  0  0  0  0
  1  2  1  0  0  0  0
  1  5  1  0  0  0  0
  2  6  1  0  0  0  0
  2  8  1  0  0  0  0
  3  1  1  0  0  0  0
  4  1  1  0  0  0  0
  6 10  1  0  0  0  0
  7  2  1  0  0  0  0
  9  6  1  0  0  0  0
  9 12  1  0  0  0  0
 11  6  1  0  0  0  0
 13  9  1  0  0  0  0
 14  9  1  0  0  0  0
M  END
$$$$
