14
butane_opt
C  -3.927307   0.230271  -0.084048
C  -2.744464  -0.593788   0.117423
H  -4.774707  -0.302630  -0.030558
H  -4.069142   0.943532  -1.079694
H  -3.958599   0.755622   0.727282
C  -1.428813   0.240309   0.167317
H  -2.555609  -1.298808  -0.774529
H  -2.873478  -1.264121   1.014836
C  -0.123689  -0.716979  -0.084104
H  -1.402715   0.927451   1.014370
H  -1.470780   0.749803  -0.580903
H   0.251645  -1.469638   0.894082
H   0.718384  -0.206661  -0.401755
H  -0.189592  -1.201767  -0.742911
