butane_opt
 OpenBabel08242015383D

 14 13  0  0  0  0  0  0  0  0999 V2000
   -3.9764    0.2268   -0.0533 C   0  0  0  0  0  0  0  0  0  0  0  0
   -2.7208   -0.5970    0.1340 C   0  0  0  0  0  0  0  0  0  0  0  0
   -4.8334   -0.3781    0.1866 H   0  0  0  0  0  0  0  0  0  0  0  0
   -3.9315    1.0287   -1.1647 H   0  0  0  0  0  0  0  0  0  0  0  0
   -3.8934    0.6407    0.6261 H   0  0  0  0  0  0  0  0  0  0  0  0
   -1.4370    0.2344    0.0662 C   0  0  0  0  0  0  0  0  0  0  0  0
   -2.6650   -0.9891   -0.5968 H   0  0  0  0  0  0  0  0  0  0  0  0
   -2.7466   -1.3375    1.0939 H   0  0  0  0  0  0  0  0  0  0  0  0
   -0.1121   -0.7116   -0.0659 C   0  0  0  0  0  0  0  0  0  0  0  0
   -1.1767    0.9809    1.0150 H   0  0  0  0  0  0  0  0  0  0  0  0
   -1.4851    0.7813   -0.7736 H   0  0  0  0  0  0  0  0  0  0  0  0
   -0.1016   -1.0138    0.5690 H   0  0  0  0  0  0  0  0  0  0  0  0
    0.6127   -0.2602    0.5657 H   0  0  0  0  0  0  0  0  0  0  0  0
    0.1607   -1.7799   -1.0900 H   0  0  0  0  0  0  0  0  0  0  0  0
  1  2  1  0  0  0  0
  1  3  1  0  0  0  0
  1  5  1  0  0  0  0
  2  8  1  0  0  0  0
  4  1  1  0  0  0  0
  6  2  1  0  0  0  0
  6 10  1  0  0  0  0
  7  2  1  0  0  0  0
  9  6  1  0  0  0  0
  9 13  1  0  0  0  0
  9 12  1  0  0  0  0
 11  6  1  0  0  0  0
 14  9  1  0  0  0  0
M  END
$$$$
