14
butane_opt
C  -3.978578   0.260416  -0.079174
C  -2.740436  -0.577070   0.138376
H  -4.881164  -0.376100  -0.082489
H  -3.746226   0.809246  -0.978560
H  -4.126376   0.773260   0.691924
C  -1.381931   0.197794   0.136166
H  -2.631107  -1.284128  -0.724826
H  -2.728998  -1.157290   0.952607
C  -0.125677  -0.699628  -0.056286
H  -1.395671   0.968590   1.056502
H  -1.345727   0.608406  -0.708596
H   0.210199  -1.549058   0.886205
H   0.690271  -0.193546  -0.463134
H  -0.353717  -1.237910  -0.840360
