butane_opt
 OpenBabel08242015383D

 14 13  0  0  0  0  0  0  0  0999 V2000
   -3.8853    0.2525   -0.0745 C   0  0  0  0  0  0  0  0  0  0  0  0
   -2.7266   -0.6062    0.1108 C   0  0  0  0  0  0  0  0  0  0  0  0
   -4.8488   -0.3596    0.3546 H   0  0  0  0  0  0  0  0  0  0  0  0
   -3.8811    1.1537   -1.1835 H   0  0  0  0  0  0  0  0  0  0  0  0
   -3.7501    0.5537    0.5412 H   0  0  0  0  0  0  0  0  0  0  0  0
   -1.4160    0.2134    0.0976 C   0  0  0  0  0  0  0  0  0  0  0  0
   -2.7911   -1.1668   -0.7131 H   0  0  0  0  0  0  0  0  0  0  0  0
   -2.7768   -1.2955    1.1280 H   0  0  0  0  0  0  0  0  0  0  0  0
   -0.1848   -0.7272   -0.0567 C   0  0  0  0  0  0  0  0  0  0  0  0
   -1.4952    1.1743    1.2005 H   0  0  0  0  0  0  0  0  0  0  0  0
   -1.4942    0.7395   -0.6363 H   0  0  0  0  0  0  0  0  0  0  0  0
   -0.1149   -1.1387    0.7222 H   0  0  0  0  0  0  0  0  0  0  0  0
    0.7361   -0.1768    0.0549 H   0  0  0  0  0  0  0  0  0  0  0  0
   -0.0683   -1.5559   -1.0285 H   0  0  0  0  0  0  0  0  0  0  0  0
  1  2  1  0  0  0  0
  1  3  1  0  0  0  0
  1  5  1  0  0  0  0
  2  8  1  0  0  0  0
  4  1  1  0  0  0  0
  6  2  1  0  0  0  0
  6 10  1  0  0  0  0
  7  2  1  0  0  0  0
  9 13  1  0  0  0  0
  9  6  1  0  0  0  0
  9 12  1  0  0  0  0
 11  6  1  0  0  0  0
 14  9  1  0  0  0  0
M  END
$$$$
