butane_opt
 OpenBabel08242015383D

 14 13  0  0  0  0  0  0  0  0999 V2000
   -4.0093    0.2687    0.1302 C   0  0  0  0  0  0  0  0  0  0  0  0
   -2.6779   -0.6220   -0.1090 C   0  0  0  0  0  0  0  0  0  0  0  0
   -5.0362   -0.3478    0.4629 H   0  0  0  0  0  0  0  0  0  0  0  0
   -4.2363    1.0572   -0.8750 H   0  0  0  0  0  0  0  0  0  0  0  0
   -3.8086    0.8510    1.0042 H   0  0  0  0  0  0  0  0  0  0  0  0
   -1.3698    0.1744   -0.0819 C   0  0  0  0  0  0  0  0  0  0  0  0
   -2.8498   -1.4663   -1.1418 H   0  0  0  0  0  0  0  0  0  0  0  0
   -2.6383   -1.0734    0.6139 H   0  0  0  0  0  0  0  0  0  0  0  0
   -0.1508   -0.6931    0.1753 C   0  0  0  0  0  0  0  0  0  0  0  0
   -1.4841    0.8254    0.7726 H   0  0  0  0  0  0  0  0  0  0  0  0
   -1.1909    0.8648   -1.1258 H   0  0  0  0  0  0  0  0  0  0  0  0
   -0.0675   -1.4108    1.0976 H   0  0  0  0  0  0  0  0  0  0  0  0
    0.7885   -0.0401   -0.0796 H   0  0  0  0  0  0  0  0  0  0  0  0
   -0.0129   -1.2584   -0.6730 H   0  0  0  0  0  0  0  0  0  0  0  0
  1  3  1  0  0  0  0
  1  5  1  0  0  0  0
  2  6  1  0  0  0  0
  2  1  1  0  0  0  0
  2  8  1  0  0  0  0
  4  1  1  0  0  0  0
  6  9  1  0  0  0  0
  6 10  1  0  0  0  0
  7  2  1  0  0  0  0
  9 12  1  0  0  0  0
 11  6  1  0  0  0  0
 13  9  1  0  0  0  0
 14  9  1  0  0  0  0
M  END
$$$$
