butane_opt
 OpenBabel08242015383D

 14 13  0  0  0  0  0  0  0  0999 V2000
   -3.9551    0.2510    0.1094 C   0  0  0  0  0  0  0  0  0  0  0  0
   -2.7069   -0.6079   -0.0303 C   0  0  0  0  0  0  0  0  0  0  0  0
   -4.8667   -0.3046   -0.2894 H   0  0  0  0  0  0  0  0  0  0  0  0
   -3.7745    0.4808   -0.5513 H   0  0  0  0  0  0  0  0  0  0  0  0
   -3.9710    1.1714    1.2120 H   0  0  0  0  0  0  0  0  0  0  0  0
   -1.4134    0.2258   -0.1015 C   0  0  0  0  0  0  0  0  0  0  0  0
   -2.8436   -1.3542   -0.9408 H   0  0  0  0  0  0  0  0  0  0  0  0
   -2.7604   -1.2065    0.8768 H   0  0  0  0  0  0  0  0  0  0  0  0
   -0.1504   -0.7111    0.1418 C   0  0  0  0  0  0  0  0  0  0  0  0
   -1.4797    0.8310    0.5966 H   0  0  0  0  0  0  0  0  0  0  0  0
   -1.2194    1.0088   -1.1253 H   0  0  0  0  0  0  0  0  0  0  0  0
   -0.0298   -1.4657    1.1064 H   0  0  0  0  0  0  0  0  0  0  0  0
    0.6066   -0.2033   -0.1451 H   0  0  0  0  0  0  0  0  0  0  0  0
    0.0154   -1.3463   -0.7069 H   0  0  0  0  0  0  0  0  0  0  0  0
  1  5  1  0  0  0  0
  2  1  1  0  0  0  0
  2  8  1  0  0  0  0
  3  1  1  0  0  0  0
  4  1  1  0  0  0  0
  6  2  1  0  0  0  0
  6  9  1  0  0  0  0
  6 10  1  0  0  0  0
  7  2  1  0  0  0  0
  9 12  1  0  0  0  0
 11  6  1  0  0  0  0
 13  9  1  0  0  0  0
 14  9  1  0  0  0  0
M  END
$$$$
