14
butane_opt
C  -3.926376   0.254060   0.089272
C  -2.745137  -0.600689  -0.083567
H  -4.820092  -0.344669   0.316623
H  -4.038001   0.863229  -0.785073
H  -3.805486   0.831778   0.865995
C  -1.396388   0.216298  -0.010406
H  -2.890927  -1.429908  -1.018542
H  -2.720356  -1.088958   0.780012
C  -0.126482  -0.710277   0.107755
H  -1.660415   0.832194   0.737496
H  -1.268165   1.026575  -0.993923
H  -0.068222  -1.524964   1.157153
H   0.768398  -0.196962  -0.203389
H  -0.190618  -1.354634  -0.665718
