14
butane_opt
C  -3.952135   0.308543   0.095255
C  -2.691242  -0.652454  -0.071230
H  -4.868780  -0.228267   0.343787
H  -4.229625   0.835880  -0.632050
H  -3.753578   0.983916   1.018169
C  -1.402628   0.117611  -0.107347
H  -2.761009  -1.367113  -1.014252
H  -2.529982  -1.314547   0.844695
C  -0.169518  -0.651910   0.146872
H  -1.553593   0.774885   0.714899
H  -1.349373   0.911261  -1.100278
H  -0.405089  -1.211708   0.962169
H   0.907209   0.136450   0.247928
H   0.062801  -1.433512  -0.729689
