butane_opt
 OpenBabel08242015383D

 14 13  0  0  0  0  0  0  0  0999 V2000
   -3.9408    0.2900    0.0969 C   0  0  0  0  0  0  0  0  0  0  0  0
   -2.7077   -0.6707   -0.0132 C   0  0  0  0  0  0  0  0  0  0  0  0
   -4.9321   -0.3584   -0.2425 H   0  0  0  0  0  0  0  0  0  0  0  0
   -3.8826    0.6546   -0.5384 H   0  0  0  0  0  0  0  0  0  0  0  0
   -4.1057    1.2522    1.0950 H   0  0  0  0  0  0  0  0  0  0  0  0
   -1.3857    0.1925   -0.0808 C   0  0  0  0  0  0  0  0  0  0  0  0
   -2.8102   -1.3248   -0.8007 H   0  0  0  0  0  0  0  0  0  0  0  0
   -2.6583   -1.1434    0.8408 H   0  0  0  0  0  0  0  0  0  0  0  0
   -0.1610   -0.6834    0.0971 C   0  0  0  0  0  0  0  0  0  0  0  0
   -1.5996    0.6415    0.6277 H   0  0  0  0  0  0  0  0  0  0  0  0
   -1.2032    1.0453   -1.1851 H   0  0  0  0  0  0  0  0  0  0  0  0
   -0.1009   -1.3579    1.0169 H   0  0  0  0  0  0  0  0  0  0  0  0
    0.7198   -0.0968    0.2185 H   0  0  0  0  0  0  0  0  0  0  0  0
   -0.1197   -1.3536   -0.7677 H   0  0  0  0  0  0  0  0  0  0  0  0
  1  5  1  0  0  0  0
  2  1  1  0  0  0  0
  2  8  1  0  0  0  0
  3  1  1  0  0  0  0
  4  1  1  0  0  0  0
  6  2  1  0  0  0  0
  6  9  1  0  0  0  0
  6 10  1  0  0  0  0
  7  2  1  0  0  0  0
  9 13  1  0  0  0  0
  9 12  1  0  0  0  0
 11  6  1  0  0  0  0
 14  9  1  0  0  0  0
M  END
$$$$
