butane_opt
 OpenBabel08242015383D

 14 13  0  0  0  0  0  0  0  0999 V2000
   -3.9330    0.2354   -0.0287 C   0  0  0  0  0  0  0  0  0  0  0  0
   -2.7434   -0.6060    0.1247 C   0  0  0  0  0  0  0  0  0  0  0  0
   -4.8886   -0.4027   -0.4074 H   0  0  0  0  0  0  0  0  0  0  0  0
   -3.8501    0.5839   -0.8012 H   0  0  0  0  0  0  0  0  0  0  0  0
   -4.2391    1.2103    0.9487 H   0  0  0  0  0  0  0  0  0  0  0  0
   -1.3828    0.2472    0.0515 C   0  0  0  0  0  0  0  0  0  0  0  0
   -2.7636   -1.2446   -0.6353 H   0  0  0  0  0  0  0  0  0  0  0  0
   -2.8634   -1.2455    1.0522 H   0  0  0  0  0  0  0  0  0  0  0  0
   -0.1138   -0.7421   -0.0354 C   0  0  0  0  0  0  0  0  0  0  0  0
   -1.3248    0.9101    0.9146 H   0  0  0  0  0  0  0  0  0  0  0  0
   -1.5619    1.0476   -0.9983 H   0  0  0  0  0  0  0  0  0  0  0  0
    0.0032   -1.4695    0.9012 H   0  0  0  0  0  0  0  0  0  0  0  0
    0.6912   -0.1203    0.0568 H   0  0  0  0  0  0  0  0  0  0  0  0
   -0.1272   -1.3941   -0.8833 H   0  0  0  0  0  0  0  0  0  0  0  0
  1  2  1  0  0  0  0
  1  5  1  0  0  0  0
  2  8  1  0  0  0  0
  3  1  1  0  0  0  0
  4  1  1  0  0  0  0
  6  2  1  0  0  0  0
  6 10  1  0  0  0  0
  7  2  1  0  0  0  0
  9  6  1  0  0  0  0
  9 13  1  0  0  0  0
  9 12  1  0  0  0  0
 11  6  1  0  0  0  0
 14  9  1  0  0  0  0
M  END
$$$$
