14
butane_opt
C  -3.883440   0.218711   0.116366
C  -2.712406  -0.571972  -0.092735
H  -4.719874  -0.356917   0.339869
H  -4.127115   0.942632  -0.789296
H  -3.602570   0.794518   0.999887
C  -1.453407   0.228597  -0.086026
H  -2.915069  -1.361724  -1.077952
H  -2.635959  -0.963569   0.695691
C  -0.173253  -0.720113   0.156129
H  -1.589983   0.718666   0.670488
H  -1.211441   0.940130  -0.995114
H  -0.125546  -1.448769   1.140872
H   0.725917  -0.189569   0.041235
H  -0.145209  -1.409395  -0.741426
