butane_opt
 OpenBabel08242015383D

 14 13  0  0  0  0  0  0  0  0999 V2000
   -3.9139    0.2693    0.0103 C   0  0  0  0  0  0  0  0  0  0  0  0
   -2.7020   -0.6179    0.0338 C   0  0  0  0  0  0  0  0  0  0  0  0
   -4.9189   -0.4512   -0.0392 H   0  0  0  0  0  0  0  0  0  0  0  0
   -3.8819    0.9523   -0.9085 H   0  0  0  0  0  0  0  0  0  0  0  0
   -3.7967    0.8444    0.8245 H   0  0  0  0  0  0  0  0  0  0  0  0
   -1.4126    0.2024    0.0482 C   0  0  0  0  0  0  0  0  0  0  0  0
   -2.8357   -1.3168   -0.9245 H   0  0  0  0  0  0  0  0  0  0  0  0
   -2.6135   -1.1268    0.8038 H   0  0  0  0  0  0  0  0  0  0  0  0
   -0.1741   -0.6905    0.0378 C   0  0  0  0  0  0  0  0  0  0  0  0
   -1.4043    0.9624    0.9814 H   0  0  0  0  0  0  0  0  0  0  0  0
   -1.4057    0.7480   -0.7897 H   0  0  0  0  0  0  0  0  0  0  0  0
    0.0139   -1.6257    1.0614 H   0  0  0  0  0  0  0  0  0  0  0  0
    0.6597   -0.2486   -0.4141 H   0  0  0  0  0  0  0  0  0  0  0  0
   -0.4006   -1.1789   -0.7190 H   0  0  0  0  0  0  0  0  0  0  0  0
  1  2  1  0  0  0  0
  1  5  1  0  0  0  0
  2  6  1  0  0  0  0
  2  8  1  0  0  0  0
  3  1  1  0  0  0  0
  4  1  1  0  0  0  0
  6 10  1  0  0  0  0
  7  2  1  0  0  0  0
  9  6  1  0  0  0  0
  9 12  1  0  0  0  0
 11  6  1  0  0  0  0
 13  9  1  0  0  0  0
 14  9  1  0  0  0  0
M  END
$$$$
