14
butane_opt
C  -3.949319   0.303841   0.053207
C  -2.654839  -0.665373   0.029753
H  -4.808262  -0.204906  -0.304196
H  -3.896969   0.447578  -0.628415
H  -3.968834   1.351424   1.211878
C  -1.368636   0.134713  -0.057397
H  -2.588176  -1.292865  -0.800568
H  -2.649183  -1.260071   0.849235
C  -0.233543  -0.664504   0.081680
H  -1.442190   0.779175   0.665885
H  -1.341424   0.922563  -1.055167
H  -0.344619  -1.321767   1.054513
H   0.657241  -0.025067  -0.114383
H  -0.175762  -1.181108  -0.680260
