butane_opt
 OpenBabel08242015383D

 14 13  0  0  0  0  0  0  0  0999 V2000
   -3.9032    0.2395    0.0835 C   0  0  0  0  0  0  0  0  0  0  0  0
   -2.7158   -0.5760    0.0347 C   0  0  0  0  0  0  0  0  0  0  0  0
   -4.9307   -0.4910   -0.4078 H   0  0  0  0  0  0  0  0  0  0  0  0
   -3.8638    0.5176   -0.6090 H   0  0  0  0  0  0  0  0  0  0  0  0
   -3.9651    1.2635    1.1851 H   0  0  0  0  0  0  0  0  0  0  0  0
   -1.4243    0.2091   -0.0898 C   0  0  0  0  0  0  0  0  0  0  0  0
   -2.7521   -1.2710   -0.9230 H   0  0  0  0  0  0  0  0  0  0  0  0
   -2.7054   -0.9849    0.7885 H   0  0  0  0  0  0  0  0  0  0  0  0
   -0.1582   -0.7476    0.0869 C   0  0  0  0  0  0  0  0  0  0  0  0
   -1.4397    0.8138    0.7073 H   0  0  0  0  0  0  0  0  0  0  0  0
   -1.3137    0.9257   -1.0715 H   0  0  0  0  0  0  0  0  0  0  0  0
   -0.2878   -1.5524    1.1584 H   0  0  0  0  0  0  0  0  0  0  0  0
    0.8179   -0.0822   -0.0357 H   0  0  0  0  0  0  0  0  0  0  0  0
   -0.1268   -1.1541   -0.6891 H   0  0  0  0  0  0  0  0  0  0  0  0
  1  5  1  0  0  0  0
  2  1  1  0  0  0  0
  2  8  1  0  0  0  0
  3  1  1  0  0  0  0
  4  1  1  0  0  0  0
  6  2  1  0  0  0  0
  6  9  1  0  0  0  0
  6 10  1  0  0  0  0
  7  2  1  0  0  0  0
  9 12  1  0  0  0  0
 11  6  1  0  0  0  0
 13  9  1  0  0  0  0
 14  9  1  0  0  0  0
M  END
$$$$
