14
butane_opt
C  -3.936929   0.235795   0.133324
C  -2.753531  -0.595928  -0.064317
H  -4.859974  -0.358252   0.237038
H  -3.873959   0.755213  -0.719003
H  -3.850272   0.988083   1.023163
C  -1.408348   0.257461  -0.123189
H  -2.932492  -1.332354  -0.931742
H  -2.527791  -1.134831   0.684233
C  -0.137219  -0.731923   0.137594
H  -1.503839   0.773137   0.560062
H  -1.333237   0.936864  -1.127960
H  -0.299769  -1.365524   1.054503
H   0.794059  -0.154512   0.388989
H   0.184539  -1.561543  -0.724793
