butane_opt
 OpenBabel08242015383D

 14 13  0  0  0  0  0  0  0  0999 V2000
   -3.9380    0.2625   -0.0133 C   0  0  0  0  0  0  0  0  0  0  0  0
   -2.6921   -0.6120    0.0632 C   0  0  0  0  0  0  0  0  0  0  0  0
   -4.8324   -0.3329    0.0167 H   0  0  0  0  0  0  0  0  0  0  0  0
   -3.9924    0.9210   -0.9342 H   0  0  0  0  0  0  0  0  0  0  0  0
   -3.9609    0.8670    0.8170 H   0  0  0  0  0  0  0  0  0  0  0  0
   -1.4056    0.1806    0.0504 C   0  0  0  0  0  0  0  0  0  0  0  0
   -2.6649   -1.2952   -0.7829 H   0  0  0  0  0  0  0  0  0  0  0  0
   -2.7059   -1.2474    0.9365 H   0  0  0  0  0  0  0  0  0  0  0  0
   -0.1791   -0.6938    0.0035 C   0  0  0  0  0  0  0  0  0  0  0  0
   -1.3207    0.9311    0.9664 H   0  0  0  0  0  0  0  0  0  0  0  0
   -1.4647    0.7812   -0.8074 H   0  0  0  0  0  0  0  0  0  0  0  0
   -0.0678   -1.3470    0.9291 H   0  0  0  0  0  0  0  0  0  0  0  0
    0.7410   -0.1034   -0.1142 H   0  0  0  0  0  0  0  0  0  0  0  0
   -0.1790   -1.2897   -0.8316 H   0  0  0  0  0  0  0  0  0  0  0  0
  1  3  1  0  0  0  0
  1  2  1  0  0  0  0
  1  5  1  0  0  0  0
  2  8  1  0  0  0  0
  4  1  1  0  0  0  0
  6  2  1  0  0  0  0
  6 10  1  0  0  0  0
  7  2  1  0  0  0  0
  9  6  1  0  0  0  0
  9 12  1  0  0  0  0
 11  6  1  0  0  0  0
 13  9  1  0  0  0  0
 14  9  1  0  0  0  0
M  END
$$$$
