butane_opt
 OpenBabel08242015383D

 14 13  0  0  0  0  0  0  0  0999 V2000
   -3.9551    0.2746    0.1015 C   0  0  0  0  0  0  0  0  0  0  0  0
   -2.6907   -0.6104   -0.0427 C   0  0  0  0  0  0  0  0  0  0  0  0
   -4.9237   -0.2899    0.2413 H   0  0  0  0  0  0  0  0  0  0  0  0
   -3.9940    0.9589   -0.8275 H   0  0  0  0  0  0  0  0  0  0  0  0
   -3.9496    0.9542    1.0416 H   0  0  0  0  0  0  0  0  0  0  0  0
   -1.3706    0.1260   -0.0872 C   0  0  0  0  0  0  0  0  0  0  0  0
   -2.6353   -1.3430   -0.8928 H   0  0  0  0  0  0  0  0  0  0  0  0
   -2.5864   -1.1721    0.8790 H   0  0  0  0  0  0  0  0  0  0  0  0
   -0.2103   -0.6767    0.1182 C   0  0  0  0  0  0  0  0  0  0  0  0
   -1.4468    0.7185    0.6762 H   0  0  0  0  0  0  0  0  0  0  0  0
   -1.1672    0.9902   -1.1716 H   0  0  0  0  0  0  0  0  0  0  0  0
   -0.3446   -1.0853    0.8548 H   0  0  0  0  0  0  0  0  0  0  0  0
    0.7788   -0.0112    0.4083 H   0  0  0  0  0  0  0  0  0  0  0  0
   -0.0285   -1.5655   -0.8669 H   0  0  0  0  0  0  0  0  0  0  0  0
  1  3  1  0  0  0  0
  1  5  1  0  0  0  0
  2  1  1  0  0  0  0
  2  8  1  0  0  0  0
  4  1  1  0  0  0  0
  6  2  1  0  0  0  0
  6  9  1  0  0  0  0
  6 10  1  0  0  0  0
  7  2  1  0  0  0  0
  9 13  1  0  0  0  0
  9 12  1  0  0  0  0
 11  6  1  0  0  0  0
 14  9  1  0  0  0  0
M  END
$$$$
