butane_opt
 OpenBabel08242015383D

 14 12  0  0  0  0  0  0  0  0999 V2000
   -3.9051    0.2322   -0.0155 C   0  0  0  0  0  0  0  0  0  0  0  0
   -2.7047   -0.5724    0.0033 C   0  0  0  0  0  0  0  0  0  0  0  0
   -4.7857   -0.3784    0.5502 H   0  0  0  0  0  0  0  0  0  0  0  0
   -4.1210    1.2617   -1.1461 H   0  0  0  0  0  0  0  0  0  0  0  0
   -3.7216    0.5380    0.7056 H   0  0  0  0  0  0  0  0  0  0  0  0
   -1.3914    0.2012    0.0477 C   0  0  0  0  0  0  0  0  0  0  0  0
   -2.7922   -1.2313   -0.8070 H   0  0  0  0  0  0  0  0  0  0  0  0
   -2.7887   -1.3144    0.9655 H   0  0  0  0  0  0  0  0  0  0  0  0
   -0.1937   -0.7300    0.0339 C   0  0  0  0  0  0  0  0  0  0  0  0
   -1.4176    1.1104    1.0799 H   0  0  0  0  0  0  0  0  0  0  0  0
   -1.4924    0.7976   -0.7030 H   0  0  0  0  0  0  0  0  0  0  0  0
    0.0398   -1.1807    0.7381 H   0  0  0  0  0  0  0  0  0  0  0  0
    0.6590   -0.1691    0.0398 H   0  0  0  0  0  0  0  0  0  0  0  0
   -0.2476   -1.4692   -0.8617 H   0  0  0  0  0  0  0  0  0  0  0  0
  1  2  1  0  0  0  0
  1  3  1  0  0  0  0
  1  5  1  0  0  0  0
  2  6  1  0  0  0  0
  2  8  1  0  0  0  0
  6 10  1  0  0  0  0
  7  2  1  0  0  0  0
  9 13  1  0  0  0  0
  9  6  1  0  0  0  0
  9 12  1  0  0  0  0
 11  6  1  0  0  0  0
 14  9  1  0  0  0  0
M  RAD  2   1   2   4   2
M  END
$$$$
