butane_opt
 OpenBabel08242015383D

 14 13  0  0  0  0  0  0  0  0999 V2000
   -3.8983    0.2490   -0.0372 C   0  0  0  0  0  0  0  0  0  0  0  0
   -2.7080   -0.5890    0.1608 C   0  0  0  0  0  0  0  0  0  0  0  0
   -4.9182   -0.3595   -0.4211 H   0  0  0  0  0  0  0  0  0  0  0  0
   -3.5880    0.6231   -0.8405 H   0  0  0  0  0  0  0  0  0  0  0  0
   -4.2090    0.9492    0.8121 H   0  0  0  0  0  0  0  0  0  0  0  0
   -1.4012    0.2297    0.0495 C   0  0  0  0  0  0  0  0  0  0  0  0
   -2.6188   -1.3083   -0.7335 H   0  0  0  0  0  0  0  0  0  0  0  0
   -2.6703   -1.2156    1.0872 H   0  0  0  0  0  0  0  0  0  0  0  0
   -0.2116   -0.7282   -0.0380 C   0  0  0  0  0  0  0  0  0  0  0  0
   -1.4037    0.9201    0.9543 H   0  0  0  0  0  0  0  0  0  0  0  0
   -1.3857    0.9187   -0.8040 H   0  0  0  0  0  0  0  0  0  0  0  0
   -0.0855   -1.3378    0.8707 H   0  0  0  0  0  0  0  0  0  0  0  0
    0.6857   -0.1724   -0.1699 H   0  0  0  0  0  0  0  0  0  0  0  0
   -0.1805   -1.4642   -0.9418 H   0  0  0  0  0  0  0  0  0  0  0  0
  1  2  1  0  0  0  0
  1  5  1  0  0  0  0
  2  8  1  0  0  0  0
  3  1  1  0  0  0  0
  4  1  1  0  0  0  0
  6  2  1  0  0  0  0
  6 10  1  0  0  0  0
  7  2  1  0  0  0  0
  9  6  1  0  0  0  0
  9 12  1  0  0  0  0
 11  6  1  0  0  0  0
 13  9  1  0  0  0  0
 14  9  1  0  0  0  0
M  END
$$$$
