14
butane_opt
C  -3.961814   0.303330  -0.062947
C  -2.724907  -0.670535   0.105630
H  -4.768444  -0.196219   0.446276
H  -4.167656   1.279188  -1.257876
H  -3.910607   0.564777   0.517496
C  -1.374590   0.178430   0.091162
H  -2.790523  -1.320338  -0.760537
H  -2.740204  -1.421550   1.041087
C  -0.153028  -0.673743  -0.058980
H  -1.290582   1.070822   1.185389
H  -1.552277   0.615569  -0.662728
H  -0.098864  -1.165598   0.789037
H   0.849129   0.031501   0.273847
H  -0.036134  -1.533402  -1.077378
