14
butane_opt
C  -3.891498   0.243831   0.113379
C  -2.688658  -0.584040  -0.115541
H  -4.904746  -0.478666   0.585562
H  -4.147984   0.833312  -0.833636
H  -3.510240   0.729824   0.968064
C  -1.477737   0.246907  -0.086799
H  -2.738966  -1.316248  -1.043046
H  -2.613815  -1.175203   0.665484
C  -0.191639  -0.729858   0.152426
H  -1.450512   0.880267   0.678848
H  -1.322303   0.866293  -0.964820
H  -0.035710  -1.416677   1.103952
H   0.698780  -0.161052   0.175552
H  -0.003094  -1.352664  -0.641160
