14
butane_opt
C  -3.965296   0.246516   0.016604
C  -2.734568  -0.582760   0.043134
H  -4.936331  -0.466222  -0.163173
H  -3.914342   0.893584  -0.828182
H  -3.988328   0.904176   0.867429
C  -1.390237   0.227494   0.038485
H  -2.757154  -1.409845  -0.940348
H  -2.649519  -1.146236   0.837809
C  -0.141939  -0.733192   0.043534
H  -1.284312   0.894137   0.941353
H  -1.382389   0.893550  -0.899515
H   0.170506  -1.587158   1.099172
H   0.772112  -0.069537  -0.387405
H  -0.263859  -1.282089  -0.779950
