14
butane_opt
C  -3.907972   0.226901   0.140232
C  -2.744519  -0.547783  -0.037672
H  -4.809813  -0.270581  -0.119594
H  -3.864655   0.691095  -0.664731
H  -3.794279   0.957866   1.084993
C  -1.426506   0.194220  -0.118274
H  -2.762681  -1.376216  -1.024455
H  -2.707485  -1.097880   0.751360
C  -0.152450  -0.725325   0.114961
H  -1.473085   0.703328   0.673478
H  -1.434955   1.012069  -1.177644
H  -0.330324  -1.368482   1.128732
H   0.818971  -0.087945   0.278975
H   0.091140  -1.404741  -0.669625
