14
butane_opt
C  -3.939553   0.214501  -0.065067
C  -2.740010  -0.590653   0.105310
H  -4.768274  -0.323538  -0.115868
H  -3.881065   0.863034  -0.972039
H  -4.046757   0.969260   0.886970
C  -1.422450   0.259894   0.111596
H  -2.642249  -1.322196  -0.687671
H  -2.886099  -1.188648   1.031926
C  -0.120081  -0.715313  -0.036657
H  -1.303579   0.785140   0.922899
H  -1.620277   0.801556  -0.754322
H   0.260698  -1.496479   0.885750
H   0.735544  -0.201958  -0.232279
H  -0.213786  -1.350264  -0.870413
