butane_opt
 OpenBabel08242015383D

 14 13  0  0  0  0  0  0  0  0999 V2000
   -4.0070    0.2959   -0.0720 C   0  0  0  0  0  0  0  0  0  0  0  0
   -2.6887   -0.6596    0.1655 C   0  0  0  0  0  0  0  0  0  0  0  0
   -4.9239   -0.2636   -0.4173 H   0  0  0  0  0  0  0  0  0  0  0  0
   -3.7596    0.9691   -1.0574 H   0  0  0  0  0  0  0  0  0  0  0  0
   -4.1806    0.9745    0.7868 H   0  0  0  0  0  0  0  0  0  0  0  0
   -1.4039    0.1600    0.1338 C   0  0  0  0  0  0  0  0  0  0  0  0
   -2.5988   -1.2319   -0.6571 H   0  0  0  0  0  0  0  0  0  0  0  0
   -2.6990   -1.4114    1.2079 H   0  0  0  0  0  0  0  0  0  0  0  0
   -0.1398   -0.6641   -0.0747 C   0  0  0  0  0  0  0  0  0  0  0  0
   -1.1624    0.8700    0.9636 H   0  0  0  0  0  0  0  0  0  0  0  0
   -1.3714    0.6771   -0.7501 H   0  0  0  0  0  0  0  0  0  0  0  0
   -0.0302   -1.2219    0.7610 H   0  0  0  0  0  0  0  0  0  0  0  0
    0.8378   -0.0345   -0.1819 H   0  0  0  0  0  0  0  0  0  0  0  0
   -0.2740   -1.3782   -1.0615 H   0  0  0  0  0  0  0  0  0  0  0  0
  1  2  1  0  0  0  0
  1  5  1  0  0  0  0
  2  8  1  0  0  0  0
  3  1  1  0  0  0  0
  4  1  1  0  0  0  0
  6  2  1  0  0  0  0
  6 10  1  0  0  0  0
  7  2  1  0  0  0  0
  9  6  1  0  0  0  0
  9 12  1  0  0  0  0
 11  6  1  0  0  0  0
 13  9  1  0  0  0  0
 14  9  1  0  0  0  0
M  END
$$$$
