14
butane_opt
C  -3.959701   0.218705  -0.052422
C  -2.752051  -0.578564   0.071073
H  -4.911123  -0.438704   0.427159
H  -4.138325   1.358675  -1.308500
H  -3.704666   0.497673   0.684857
C  -1.420850   0.241202   0.134474
H  -2.556764  -1.235421  -0.739717
H  -2.882370  -1.225403   0.962949
C  -0.091283  -0.743895  -0.044825
H  -1.421413   0.983086   0.970771
H  -1.475319   0.800618  -0.702102
H  -0.020503  -1.140825   0.726696
H   0.805692  -0.162306   0.050138
H  -0.012412  -1.551590  -0.995618
