butane_opt
 OpenBabel08242015383D

 14 13  0  0  0  0  0  0  0  0999 V2000
   -4.0089    0.2754   -0.0777 C   0  0  0  0  0  0  0  0  0  0  0  0
   -2.7010   -0.6523    0.1173 C   0  0  0  0  0  0  0  0  0  0  0  0
   -4.7537   -0.2071   -0.0459 H   0  0  0  0  0  0  0  0  0  0  0  0
   -3.8835    0.9926   -1.0329 H   0  0  0  0  0  0  0  0  0  0  0  0
   -4.1893    0.9050    0.7052 H   0  0  0  0  0  0  0  0  0  0  0  0
   -1.3776    0.1791    0.1469 C   0  0  0  0  0  0  0  0  0  0  0  0
   -2.4264   -1.2189   -0.6489 H   0  0  0  0  0  0  0  0  0  0  0  0
   -2.8134   -1.3577    1.0020 H   0  0  0  0  0  0  0  0  0  0  0  0
   -0.1426   -0.6787   -0.0865 C   0  0  0  0  0  0  0  0  0  0  0  0
   -1.2050    1.0126    1.1106 H   0  0  0  0  0  0  0  0  0  0  0  0
   -1.5223    0.6043   -0.5678 H   0  0  0  0  0  0  0  0  0  0  0  0
   -0.0513   -1.4962    0.9932 H   0  0  0  0  0  0  0  0  0  0  0  0
    0.8569    0.0638   -0.4049 H   0  0  0  0  0  0  0  0  0  0  0  0
   -0.2960   -1.2211   -0.8427 H   0  0  0  0  0  0  0  0  0  0  0  0
  1  3  1  0  0  0  0
  1  2  1  0  0  0  0
  1  5  1  0  0  0  0
  2  6  1  0  0  0  0
  2  8  1  0  0  0  0
  4  1  1  0  0  0  0
  6 10  1  0  0  0  0
  7  2  1  0  0  0  0
  9  6  1  0  0  0  0
  9 12  1  0  0  0  0
 11  6  1  0  0  0  0
 13  9  1  0  0  0  0
 14  9  1  0  0  0  0
M  END
$$$$
