14
butane_opt
C  -3.913864   0.269311   0.010285
C  -2.701976  -0.617852   0.033809
H  -4.918886  -0.451155  -0.039206
H  -3.881937   0.952286  -0.908543
H  -3.796651   0.844418   0.824484
C  -1.412620   0.202355   0.048176
H  -2.835681  -1.316752  -0.924475
H  -2.613467  -1.126821   0.803765
C  -0.174121  -0.690504   0.037824
H  -1.404344   0.962423   0.981430
H  -1.405693   0.748025  -0.789652
H   0.013903  -1.625686   1.061449
H   0.659705  -0.248647  -0.414058
H  -0.400581  -1.178880  -0.718986
