butane_opt
 OpenBabel08242015383D

 14 13  0  0  0  0  0  0  0  0999 V2000
   -3.8762    0.2494    0.1347 C   0  0  0  0  0  0  0  0  0  0  0  0
   -2.7152   -0.6174   -0.1090 C   0  0  0  0  0  0  0  0  0  0  0  0
   -4.8772   -0.4366    0.2784 H   0  0  0  0  0  0  0  0  0  0  0  0
   -4.2619    0.9096   -0.7379 H   0  0  0  0  0  0  0  0  0  0  0  0
   -3.6528    0.9975    1.0669 H   0  0  0  0  0  0  0  0  0  0  0  0
   -1.4462    0.2356   -0.1438 C   0  0  0  0  0  0  0  0  0  0  0  0
   -2.9102   -1.2484   -0.9252 H   0  0  0  0  0  0  0  0  0  0  0  0
   -2.6932   -1.2510    0.8380 H   0  0  0  0  0  0  0  0  0  0  0  0
   -0.1539   -0.7251    0.1694 C   0  0  0  0  0  0  0  0  0  0  0  0
   -1.4985    0.8022    0.7010 H   0  0  0  0  0  0  0  0  0  0  0  0
   -1.3257    0.8735   -1.0702 H   0  0  0  0  0  0  0  0  0  0  0  0
   -0.2771   -1.1761    1.0280 H   0  0  0  0  0  0  0  0  0  0  0  0
    0.7859   -0.1735    0.3204 H   0  0  0  0  0  0  0  0  0  0  0  0
    0.0051   -1.4857   -0.7049 H   0  0  0  0  0  0  0  0  0  0  0  0
  1  3  1  0  0  0  0
  1  5  1  0  0  0  0
  2  1  1  0  0  0  0
  2  8  1  0  0  0  0
  4  1  1  0  0  0  0
  6  2  1  0  0  0  0
  6  9  1  0  0  0  0
  6 10  1  0  0  0  0
  7  2  1  0  0  0  0
  9 13  1  0  0  0  0
  9 12  1  0  0  0  0
 11  6  1  0  0  0  0
 14  9  1  0  0  0  0
M  END
$$$$
