butane_opt
 OpenBabel08242015383D

 14 12  0  0  0  0  0  0  0  0999 V2000
   -3.9558    0.2466   -0.0663 C   0  0  0  0  0  0  0  0  0  0  0  0
   -2.7354   -0.5972    0.1341 C   0  0  0  0  0  0  0  0  0  0  0  0
   -4.8696   -0.3671    0.0969 H   0  0  0  0  0  0  0  0  0  0  0  0
   -3.9534    1.0478   -1.1031 H   0  0  0  0  0  0  0  0  0  0  0  0
   -3.9415    0.7371    0.6140 H   0  0  0  0  0  0  0  0  0  0  0  0
   -1.3925    0.2175    0.1102 C   0  0  0  0  0  0  0  0  0  0  0  0
   -2.7016   -1.2222   -0.6729 H   0  0  0  0  0  0  0  0  0  0  0  0
   -2.8810   -1.2964    1.1169 H   0  0  0  0  0  0  0  0  0  0  0  0
   -0.1376   -0.7035   -0.0464 C   0  0  0  0  0  0  0  0  0  0  0  0
   -1.2862    0.7686    0.8626 H   0  0  0  0  0  0  0  0  0  0  0  0
   -1.5449    0.9069   -0.7255 H   0  0  0  0  0  0  0  0  0  0  0  0
   -0.0208   -1.0239    0.5924 H   0  0  0  0  0  0  0  0  0  0  0  0
    0.7112   -0.1978    0.1431 H   0  0  0  0  0  0  0  0  0  0  0  0
    0.1104   -1.7904   -1.1192 H   0  0  0  0  0  0  0  0  0  0  0  0
  1  3  1  0  0  0  0
  1  2  1  0  0  0  0
  1  5  1  0  0  0  0
  2  8  1  0  0  0  0
  4  1  1  0  0  0  0
  6  2  1  0  0  0  0
  6 10  1  0  0  0  0
  7  2  1  0  0  0  0
  9  6  1  0  0  0  0
  9 13  1  0  0  0  0
  9 12  1  0  0  0  0
 11  6  1  0  0  0  0
M  RAD  2   9   2  14   2
M  END
$$$$
