butane_opt
 OpenBabel08242015383D

 14 13  0  0  0  0  0  0  0  0999 V2000
   -3.9033    0.2305   -0.0518 C   0  0  0  0  0  0  0  0  0  0  0  0
   -2.7170   -0.5650    0.1048 C   0  0  0  0  0  0  0  0  0  0  0  0
   -4.8502   -0.4874   -0.1460 H   0  0  0  0  0  0  0  0  0  0  0  0
   -3.8499    0.7116   -0.8438 H   0  0  0  0  0  0  0  0  0  0  0  0
   -4.0699    0.9931    0.8454 H   0  0  0  0  0  0  0  0  0  0  0  0
   -1.4205    0.2190    0.0958 C   0  0  0  0  0  0  0  0  0  0  0  0
   -2.6157   -1.3008   -0.7192 H   0  0  0  0  0  0  0  0  0  0  0  0
   -2.7360   -1.1820    0.9337 H   0  0  0  0  0  0  0  0  0  0  0  0
   -0.1768   -0.7334   -0.0056 C   0  0  0  0  0  0  0  0  0  0  0  0
   -1.4259    1.0146    0.9437 H   0  0  0  0  0  0  0  0  0  0  0  0
   -1.3284    0.8814   -0.8853 H   0  0  0  0  0  0  0  0  0  0  0  0
    0.1304   -1.4754    0.9119 H   0  0  0  0  0  0  0  0  0  0  0  0
    0.6712   -0.2095   -0.4585 H   0  0  0  0  0  0  0  0  0  0  0  0
   -0.3074   -1.2548   -0.8385 H   0  0  0  0  0  0  0  0  0  0  0  0
  1  2  1  0  0  0  0
  1  5  1  0  0  0  0
  2  8  1  0  0  0  0
  3  1  1  0  0  0  0
  4  1  1  0  0  0  0
  6  2  1  0  0  0  0
  6 10  1  0  0  0  0
  7  2  1  0  0  0  0
  9  6  1  0  0  0  0
  9 12  1  0  0  0  0
 11  6  1  0  0  0  0
 13  9  1  0  0  0  0
 14  9  1  0  0  0  0
M  END
$$$$
