14
butane_opt
C  -4.009896   0.316767   0.127035
C  -2.682893  -0.652285  -0.126266
H  -4.892501  -0.280338   0.469414
H  -4.475019   0.992407  -0.827205
H  -3.703377   0.828103   0.990111
C  -1.335876   0.129052  -0.081484
H  -2.762635  -1.402286  -1.059505
H  -2.696153  -1.166683   0.652973
C  -0.174625  -0.667764   0.145518
H  -1.326549   0.769204   0.721966
H  -1.243423   0.824798  -0.988865
H  -0.194230  -1.317094   1.129355
H   0.757705  -0.063278   0.116371
H  -0.053292  -1.145115  -0.540239
