butane_opt
 OpenBabel08242015383D

 14 13  0  0  0  0  0  0  0  0999 V2000
   -3.9439    0.2326    0.0266 C   0  0  0  0  0  0  0  0  0  0  0  0
   -2.7405   -0.6030    0.0491 C   0  0  0  0  0  0  0  0  0  0  0  0
   -4.9595   -0.4302    0.1800 H   0  0  0  0  0  0  0  0  0  0  0  0
   -3.9579    0.8854   -0.8295 H   0  0  0  0  0  0  0  0  0  0  0  0
   -3.8622    1.0186    1.0112 H   0  0  0  0  0  0  0  0  0  0  0  0
   -1.4298    0.2353   -0.0693 C   0  0  0  0  0  0  0  0  0  0  0  0
   -2.7701   -1.1763   -0.7833 H   0  0  0  0  0  0  0  0  0  0  0  0
   -2.8079   -1.1958    0.9386 H   0  0  0  0  0  0  0  0  0  0  0  0
   -0.0832   -0.7362    0.0457 C   0  0  0  0  0  0  0  0  0  0  0  0
   -1.4699    0.8674    0.7551 H   0  0  0  0  0  0  0  0  0  0  0  0
   -1.4000    0.8199   -0.8878 H   0  0  0  0  0  0  0  0  0  0  0  0
   -0.3627   -1.1042    0.8820 H   0  0  0  0  0  0  0  0  0  0  0  0
    0.7863   -0.1855    0.4289 H   0  0  0  0  0  0  0  0  0  0  0  0
    0.1753   -1.5507   -0.8958 H   0  0  0  0  0  0  0  0  0  0  0  0
  1  2  1  0  0  0  0
  1  3  1  0  0  0  0
  1  5  1  0  0  0  0
  2  8  1  0  0  0  0
  4  1  1  0  0  0  0
  6  9  1  0  0  0  0
  6  2  1  0  0  0  0
  6 10  1  0  0  0  0
  7  2  1  0  0  0  0
  9 13  1  0  0  0  0
  9 12  1  0  0  0  0
 11  6  1  0  0  0  0
 14  9  1  0  0  0  0
M  END
$$$$
