butane_opt
 OpenBabel08242015383D

 14 13  0  0  0  0  0  0  0  0999 V2000
   -3.9369    0.2358    0.1333 C   0  0  0  0  0  0  0  0  0  0  0  0
   -2.7535   -0.5959   -0.0643 C   0  0  0  0  0  0  0  0  0  0  0  0
   -4.8600   -0.3583    0.2370 H   0  0  0  0  0  0  0  0  0  0  0  0
   -3.8740    0.7552   -0.7190 H   0  0  0  0  0  0  0  0  0  0  0  0
   -3.8503    0.9881    1.0232 H   0  0  0  0  0  0  0  0  0  0  0  0
   -1.4083    0.2575   -0.1232 C   0  0  0  0  0  0  0  0  0  0  0  0
   -2.9325   -1.3324   -0.9317 H   0  0  0  0  0  0  0  0  0  0  0  0
   -2.5278   -1.1348    0.6842 H   0  0  0  0  0  0  0  0  0  0  0  0
   -0.1372   -0.7319    0.1376 C   0  0  0  0  0  0  0  0  0  0  0  0
   -1.5038    0.7731    0.5601 H   0  0  0  0  0  0  0  0  0  0  0  0
   -1.3332    0.9369   -1.1280 H   0  0  0  0  0  0  0  0  0  0  0  0
   -0.2998   -1.3655    1.0545 H   0  0  0  0  0  0  0  0  0  0  0  0
    0.7941   -0.1545    0.3890 H   0  0  0  0  0  0  0  0  0  0  0  0
    0.1845   -1.5615   -0.7248 H   0  0  0  0  0  0  0  0  0  0  0  0
  1  3  1  0  0  0  0
  1  5  1  0  0  0  0
  2  1  1  0  0  0  0
  2  8  1  0  0  0  0
  4  1  1  0  0  0  0
  6  2  1  0  0  0  0
  6  9  1  0  0  0  0
  6 10  1  0  0  0  0
  7  2  1  0  0  0  0
  9 13  1  0  0  0  0
  9 12  1  0  0  0  0
 11  6  1  0  0  0  0
 14  9  1  0  0  0  0
M  END
$$$$
