butane_opt
 OpenBabel08242015383D

 14 13  0  0  0  0  0  0  0  0999 V2000
   -3.8834    0.2187    0.1164 C   0  0  0  0  0  0  0  0  0  0  0  0
   -2.7124   -0.5720   -0.0927 C   0  0  0  0  0  0  0  0  0  0  0  0
   -4.7199   -0.3569    0.3399 H   0  0  0  0  0  0  0  0  0  0  0  0
   -4.1271    0.9426   -0.7893 H   0  0  0  0  0  0  0  0  0  0  0  0
   -3.6026    0.7945    0.9999 H   0  0  0  0  0  0  0  0  0  0  0  0
   -1.4534    0.2286   -0.0860 C   0  0  0  0  0  0  0  0  0  0  0  0
   -2.9151   -1.3617   -1.0780 H   0  0  0  0  0  0  0  0  0  0  0  0
   -2.6360   -0.9636    0.6957 H   0  0  0  0  0  0  0  0  0  0  0  0
   -0.1733   -0.7201    0.1561 C   0  0  0  0  0  0  0  0  0  0  0  0
   -1.5900    0.7187    0.6705 H   0  0  0  0  0  0  0  0  0  0  0  0
   -1.2114    0.9401   -0.9951 H   0  0  0  0  0  0  0  0  0  0  0  0
   -0.1255   -1.4488    1.1409 H   0  0  0  0  0  0  0  0  0  0  0  0
    0.7259   -0.1896    0.0412 H   0  0  0  0  0  0  0  0  0  0  0  0
   -0.1452   -1.4094   -0.7414 H   0  0  0  0  0  0  0  0  0  0  0  0
  1  3  1  0  0  0  0
  1  5  1  0  0  0  0
  2  6  1  0  0  0  0
  2  1  1  0  0  0  0
  2  8  1  0  0  0  0
  4  1  1  0  0  0  0
  6  9  1  0  0  0  0
  6 10  1  0  0  0  0
  7  2  1  0  0  0  0
  9 12  1  0  0  0  0
 11  6  1  0  0  0  0
 13  9  1  0  0  0  0
 14  9  1  0  0  0  0
M  END
$$$$
