14
butane_opt
C  -3.903318   0.230546  -0.051778
C  -2.716984  -0.564978   0.104774
H  -4.850238  -0.487430  -0.146002
H  -3.849866   0.711576  -0.843768
H  -4.069855   0.993142   0.845417
C  -1.420488   0.218981   0.095830
H  -2.615716  -1.300767  -0.719166
H  -2.735990  -1.182043   0.933715
C  -0.176823  -0.733379  -0.005647
H  -1.425857   1.014647   0.943729
H  -1.328419   0.881364  -0.885278
H   0.130442  -1.475353   0.911857
H   0.671173  -0.209483  -0.458511
H  -0.307421  -1.254781  -0.838464
