butane_opt
 OpenBabel08242015383D

 14 13  0  0  0  0  0  0  0  0999 V2000
   -3.9786    0.2604   -0.0792 C   0  0  0  0  0  0  0  0  0  0  0  0
   -2.7404   -0.5771    0.1384 C   0  0  0  0  0  0  0  0  0  0  0  0
   -4.8812   -0.3761   -0.0825 H   0  0  0  0  0  0  0  0  0  0  0  0
   -3.7462    0.8092   -0.9786 H   0  0  0  0  0  0  0  0  0  0  0  0
   -4.1264    0.7733    0.6919 H   0  0  0  0  0  0  0  0  0  0  0  0
   -1.3819    0.1978    0.1362 C   0  0  0  0  0  0  0  0  0  0  0  0
   -2.6311   -1.2841   -0.7248 H   0  0  0  0  0  0  0  0  0  0  0  0
   -2.7290   -1.1573    0.9526 H   0  0  0  0  0  0  0  0  0  0  0  0
   -0.1257   -0.6996   -0.0563 C   0  0  0  0  0  0  0  0  0  0  0  0
   -1.3957    0.9686    1.0565 H   0  0  0  0  0  0  0  0  0  0  0  0
   -1.3457    0.6084   -0.7086 H   0  0  0  0  0  0  0  0  0  0  0  0
    0.2102   -1.5491    0.8862 H   0  0  0  0  0  0  0  0  0  0  0  0
    0.6903   -0.1935   -0.4631 H   0  0  0  0  0  0  0  0  0  0  0  0
   -0.3537   -1.2379   -0.8404 H   0  0  0  0  0  0  0  0  0  0  0  0
  1  2  1  0  0  0  0
  1  5  1  0  0  0  0
  2  8  1  0  0  0  0
  3  1  1  0  0  0  0
  4  1  1  0  0  0  0
  6  2  1  0  0  0  0
  6 10  1  0  0  0  0
  7  2  1  0  0  0  0
  9  6  1  0  0  0  0
  9 12  1  0  0  0  0
 11  6  1  0  0  0  0
 13  9  1  0  0  0  0
 14  9  1  0  0  0  0
M  END
$$$$
