butane_opt
 OpenBabel08242015383D

 14 13  0  0  0  0  0  0  0  0999 V2000
   -3.9333    0.3020    0.0571 C   0  0  0  0  0  0  0  0  0  0  0  0
   -2.6471   -0.6664   -0.0379 C   0  0  0  0  0  0  0  0  0  0  0  0
   -4.8379   -0.2558    0.1168 H   0  0  0  0  0  0  0  0  0  0  0  0
   -4.0080    1.0318   -0.8466 H   0  0  0  0  0  0  0  0  0  0  0  0
   -3.9334    0.9450    0.8857 H   0  0  0  0  0  0  0  0  0  0  0  0
   -1.3907    0.1590    0.0230 C   0  0  0  0  0  0  0  0  0  0  0  0
   -2.6841   -1.4378   -0.9172 H   0  0  0  0  0  0  0  0  0  0  0  0
   -2.6787   -1.2072    0.7742 H   0  0  0  0  0  0  0  0  0  0  0  0
   -0.2193   -0.6535    0.0803 C   0  0  0  0  0  0  0  0  0  0  0  0
   -1.4552    0.6827    0.7773 H   0  0  0  0  0  0  0  0  0  0  0  0
   -1.2113    0.8059   -0.8134 H   0  0  0  0  0  0  0  0  0  0  0  0
   -0.2041   -1.4468    1.0957 H   0  0  0  0  0  0  0  0  0  0  0  0
    0.7295   -0.0346   -0.3781 H   0  0  0  0  0  0  0  0  0  0  0  0
   -0.4559   -1.2289   -0.7381 H   0  0  0  0  0  0  0  0  0  0  0  0
  1  3  1  0  0  0  0
  1  5  1  0  0  0  0
  2  6  1  0  0  0  0
  2  1  1  0  0  0  0
  2  8  1  0  0  0  0
  4  1  1  0  0  0  0
  6  9  1  0  0  0  0
  6 10  1  0  0  0  0
  7  2  1  0  0  0  0
  9 12  1  0  0  0  0
 11  6  1  0  0  0  0
 13  9  1  0  0  0  0
 14  9  1  0  0  0  0
M  END
$$$$
