butane_opt
 OpenBabel08242015383D

 14 13  0  0  0  0  0  0  0  0999 V2000
   -3.9807    0.2472    0.1187 C   0  0  0  0  0  0  0  0  0  0  0  0
   -2.7085   -0.6166   -0.0289 C   0  0  0  0  0  0  0  0  0  0  0  0
   -4.8384   -0.2621    0.1185 H   0  0  0  0  0  0  0  0  0  0  0  0
   -4.0008    0.7065   -0.7070 H   0  0  0  0  0  0  0  0  0  0  0  0
   -3.8402    1.0259    1.1038 H   0  0  0  0  0  0  0  0  0  0  0  0
   -1.4203    0.2321   -0.1430 C   0  0  0  0  0  0  0  0  0  0  0  0
   -2.6964   -1.3871   -1.0350 H   0  0  0  0  0  0  0  0  0  0  0  0
   -2.7066   -1.2707    0.8591 H   0  0  0  0  0  0  0  0  0  0  0  0
   -0.1291   -0.7015    0.1546 C   0  0  0  0  0  0  0  0  0  0  0  0
   -1.4936    0.7225    0.6004 H   0  0  0  0  0  0  0  0  0  0  0  0
   -1.2530    0.9705   -1.1663 H   0  0  0  0  0  0  0  0  0  0  0  0
   -0.2606   -1.0881    0.9132 H   0  0  0  0  0  0  0  0  0  0  0  0
    0.7528   -0.2002    0.3165 H   0  0  0  0  0  0  0  0  0  0  0  0
    0.1701   -1.6156   -0.7891 H   0  0  0  0  0  0  0  0  0  0  0  0
  1  5  1  0  0  0  0
  2  1  1  0  0  0  0
  2  8  1  0  0  0  0
  3  1  1  0  0  0  0
  4  1  1  0  0  0  0
  6  2  1  0  0  0  0
  6  9  1  0  0  0  0
  6 10  1  0  0  0  0
  7  2  1  0  0  0  0
  9 13  1  0  0  0  0
  9 12  1  0  0  0  0
 11  6  1  0  0  0  0
 14  9  1  0  0  0  0
M  END
$$$$
