butane_opt
 OpenBabel08242015383D

 14 13  0  0  0  0  0  0  0  0999 V2000
   -3.8915    0.2438    0.1134 C   0  0  0  0  0  0  0  0  0  0  0  0
   -2.6887   -0.5840   -0.1155 C   0  0  0  0  0  0  0  0  0  0  0  0
   -4.9047   -0.4787    0.5856 H   0  0  0  0  0  0  0  0  0  0  0  0
   -4.1480    0.8333   -0.8336 H   0  0  0  0  0  0  0  0  0  0  0  0
   -3.5102    0.7298    0.9681 H   0  0  0  0  0  0  0  0  0  0  0  0
   -1.4777    0.2469   -0.0868 C   0  0  0  0  0  0  0  0  0  0  0  0
   -2.7390   -1.3162   -1.0430 H   0  0  0  0  0  0  0  0  0  0  0  0
   -2.6138   -1.1752    0.6655 H   0  0  0  0  0  0  0  0  0  0  0  0
   -0.1916   -0.7299    0.1524 C   0  0  0  0  0  0  0  0  0  0  0  0
   -1.4505    0.8803    0.6788 H   0  0  0  0  0  0  0  0  0  0  0  0
   -1.3223    0.8663   -0.9648 H   0  0  0  0  0  0  0  0  0  0  0  0
   -0.0357   -1.4167    1.1040 H   0  0  0  0  0  0  0  0  0  0  0  0
    0.6988   -0.1611    0.1756 H   0  0  0  0  0  0  0  0  0  0  0  0
   -0.0031   -1.3527   -0.6412 H   0  0  0  0  0  0  0  0  0  0  0  0
  1  3  1  0  0  0  0
  1  5  1  0  0  0  0
  2  6  1  0  0  0  0
  2  1  1  0  0  0  0
  2  8  1  0  0  0  0
  4  1  1  0  0  0  0
  6  9  1  0  0  0  0
  6 10  1  0  0  0  0
  7  2  1  0  0  0  0
  9 13  1  0  0  0  0
  9 12  1  0  0  0  0
 11  6  1  0  0  0  0
 14  9  1  0  0  0  0
M  END
$$$$
