butane_opt
 OpenBabel08242015383D

 14 13  0  0  0  0  0  0  0  0999 V2000
   -3.9273    0.2303   -0.0840 C   0  0  0  0  0  0  0  0  0  0  0  0
   -2.7445   -0.5938    0.1174 C   0  0  0  0  0  0  0  0  0  0  0  0
   -4.7747   -0.3026   -0.0306 H   0  0  0  0  0  0  0  0  0  0  0  0
   -4.0691    0.9435   -1.0797 H   0  0  0  0  0  0  0  0  0  0  0  0
   -3.9586    0.7556    0.7273 H   0  0  0  0  0  0  0  0  0  0  0  0
   -1.4288    0.2403    0.1673 C   0  0  0  0  0  0  0  0  0  0  0  0
   -2.5556   -1.2988   -0.7745 H   0  0  0  0  0  0  0  0  0  0  0  0
   -2.8735   -1.2641    1.0148 H   0  0  0  0  0  0  0  0  0  0  0  0
   -0.1237   -0.7170   -0.0841 C   0  0  0  0  0  0  0  0  0  0  0  0
   -1.4027    0.9275    1.0144 H   0  0  0  0  0  0  0  0  0  0  0  0
   -1.4708    0.7498   -0.5809 H   0  0  0  0  0  0  0  0  0  0  0  0
    0.2516   -1.4696    0.8941 H   0  0  0  0  0  0  0  0  0  0  0  0
    0.7184   -0.2067   -0.4018 H   0  0  0  0  0  0  0  0  0  0  0  0
   -0.1896   -1.2018   -0.7429 H   0  0  0  0  0  0  0  0  0  0  0  0
  1  3  1  0  0  0  0
  1  2  1  0  0  0  0
  1  5  1  0  0  0  0
  2  6  1  0  0  0  0
  2  8  1  0  0  0  0
  4  1  1  0  0  0  0
  6 10  1  0  0  0  0
  7  2  1  0  0  0  0
  9  6  1  0  0  0  0
  9 12  1  0  0  0  0
 11  6  1  0  0  0  0
 13  9  1  0  0  0  0
 14  9  1  0  0  0  0
M  END
$$$$
