butane_opt
 OpenBabel08242015383D

 14 12  0  0  0  0  0  0  0  0999 V2000
   -3.9413    0.2272   -0.0196 C   0  0  0  0  0  0  0  0  0  0  0  0
   -2.7000   -0.5950    0.0587 C   0  0  0  0  0  0  0  0  0  0  0  0
   -4.8752   -0.3214    0.2824 H   0  0  0  0  0  0  0  0  0  0  0  0
   -4.0570    1.1376   -1.0285 H   0  0  0  0  0  0  0  0  0  0  0  0
   -3.9074    0.6500    0.7193 H   0  0  0  0  0  0  0  0  0  0  0  0
   -1.4370    0.2198    0.0519 C   0  0  0  0  0  0  0  0  0  0  0  0
   -2.8153   -1.2052   -0.7418 H   0  0  0  0  0  0  0  0  0  0  0  0
   -2.8652   -1.2941    1.0212 H   0  0  0  0  0  0  0  0  0  0  0  0
   -0.0991   -0.6926    0.0153 C   0  0  0  0  0  0  0  0  0  0  0  0
   -1.3786    0.7964    0.9210 H   0  0  0  0  0  0  0  0  0  0  0  0
   -1.5232    0.9372   -0.8783 H   0  0  0  0  0  0  0  0  0  0  0  0
   -0.1736   -1.0707    0.7163 H   0  0  0  0  0  0  0  0  0  0  0  0
    0.6928   -0.1946    0.2347 H   0  0  0  0  0  0  0  0  0  0  0  0
    0.0111   -1.8351   -1.1485 H   0  0  0  0  0  0  0  0  0  0  0  0
  1  2  1  0  0  0  0
  1  3  1  0  0  0  0
  1  5  1  0  0  0  0
  2  8  1  0  0  0  0
  4  1  1  0  0  0  0
  6  2  1  0  0  0  0
  6 10  1  0  0  0  0
  7  2  1  0  0  0  0
  9  6  1  0  0  0  0
  9 13  1  0  0  0  0
  9 12  1  0  0  0  0
 11  6  1  0  0  0  0
M  RAD  2   9   2  14   2
M  END
$$$$
