14
butane_opt
C  -3.993298   0.283462  -0.065433
C  -2.686669  -0.679876   0.150608
H  -4.698125  -0.128817  -0.361650
H  -3.884544   0.707418  -0.765803
H  -4.231464   1.208219   0.954197
C  -1.373667   0.157682   0.052329
H  -2.747583  -1.335294  -0.644899
H  -2.727844  -1.331998   1.046311
C  -0.146401  -0.662559  -0.045539
H  -1.286190   1.019323   0.978204
H  -1.547796   0.807305  -0.861098
H  -0.017931  -1.375281   0.939586
H   0.713858  -0.050548  -0.053763
H  -0.227361  -1.171844  -0.848171
