14
butane_opt
C  -4.003730   0.304115  -0.051847
C  -2.675938  -0.673747   0.081828
H  -4.934046  -0.235418   0.013446
H  -3.940721   0.919216  -0.907311
H  -4.079509   1.045190   0.807559
C  -1.391056   0.143874   0.120428
H  -2.617893  -1.474873  -0.850215
H  -2.636695  -1.180202   0.861491
C  -0.164424  -0.663822  -0.014056
H  -1.210317   0.841197   0.937192
H  -1.391034   0.702743  -0.793099
H   0.113724  -1.433902   0.962353
H   0.803942  -0.033475  -0.519335
H  -0.329811  -0.922787  -0.664633
