14
butane_opt
C  -3.990874   0.294317  -0.056479
C  -2.708664  -0.667581   0.064487
H  -4.747160  -0.222068   0.368187
H  -4.285366   1.309162  -1.211347
H  -3.786400   0.805233   0.728970
C  -1.357371   0.140874   0.096222
H  -2.709163  -1.149774  -0.639782
H  -2.736594  -1.399660   1.014856
C  -0.153126  -0.655334  -0.027465
H  -1.288103   0.867010   1.040654
H  -1.398771   0.581791  -0.731179
H  -0.146212  -1.069254   0.717006
H   0.756489  -0.005074   0.152519
H  -0.186084  -1.491826  -0.976099
