butane_opt
 OpenBabel08242015383D

 14 13  0  0  0  0  0  0  0  0999 V2000
   -3.9314    0.2574    0.0093 C   0  0  0  0  0  0  0  0  0  0  0  0
   -2.6960   -0.5953    0.0368 C   0  0  0  0  0  0  0  0  0  0  0  0
   -4.8822   -0.3896    0.1698 H   0  0  0  0  0  0  0  0  0  0  0  0
   -3.9887    0.9867   -0.9900 H   0  0  0  0  0  0  0  0  0  0  0  0
   -3.9140    0.7666    0.7848 H   0  0  0  0  0  0  0  0  0  0  0  0
   -1.4203    0.1892    0.0307 C   0  0  0  0  0  0  0  0  0  0  0  0
   -2.7274   -1.2725   -0.7979 H   0  0  0  0  0  0  0  0  0  0  0  0
   -2.7017   -1.2211    0.9376 H   0  0  0  0  0  0  0  0  0  0  0  0
   -0.1604   -0.7013    0.0173 C   0  0  0  0  0  0  0  0  0  0  0  0
   -1.4109    0.9055    0.9246 H   0  0  0  0  0  0  0  0  0  0  0  0
   -1.3813    0.7383   -0.8098 H   0  0  0  0  0  0  0  0  0  0  0  0
   -0.1371   -1.2678    0.8972 H   0  0  0  0  0  0  0  0  0  0  0  0
    0.7322   -0.1238    0.0087 H   0  0  0  0  0  0  0  0  0  0  0  0
   -0.1092   -1.3933   -0.8400 H   0  0  0  0  0  0  0  0  0  0  0  0
  1  2  1  0  0  0  0
  1  3  1  0  0  0  0
  1  5  1  0  0  0  0
  2  8  1  0  0  0  0
  4  1  1  0  0  0  0
  6  2  1  0  0  0  0
  6 10  1  0  0  0  0
  7  2  1  0  0  0  0
  9  6  1  0  0  0  0
  9 12  1  0  0  0  0
 11  6  1  0  0  0  0
 13  9  1  0  0  0  0
 14  9  1  0  0  0  0
M  END
$$$$
