butane_opt
 OpenBabel08242015383D

 14 13  0  0  0  0  0  0  0  0999 V2000
   -3.9331    0.2683    0.0657 C   0  0  0  0  0  0  0  0  0  0  0  0
   -2.6642   -0.6436   -0.0499 C   0  0  0  0  0  0  0  0  0  0  0  0
   -4.8396   -0.2596   -0.1010 H   0  0  0  0  0  0  0  0  0  0  0  0
   -4.0499    0.7015   -0.6864 H   0  0  0  0  0  0  0  0  0  0  0  0
   -3.8720    1.1931    1.0902 H   0  0  0  0  0  0  0  0  0  0  0  0
   -1.4106    0.1771   -0.0149 C   0  0  0  0  0  0  0  0  0  0  0  0
   -2.6610   -1.4100   -0.9667 H   0  0  0  0  0  0  0  0  0  0  0  0
   -2.4686   -1.2940    0.8057 H   0  0  0  0  0  0  0  0  0  0  0  0
   -0.2037   -0.6793    0.1023 C   0  0  0  0  0  0  0  0  0  0  0  0
   -1.4465    0.8712    0.8400 H   0  0  0  0  0  0  0  0  0  0  0  0
   -1.2537    0.9352   -0.9337 H   0  0  0  0  0  0  0  0  0  0  0  0
   -0.0467   -1.6606    1.1280 H   0  0  0  0  0  0  0  0  0  0  0  0
    0.6558   -0.1110   -0.3999 H   0  0  0  0  0  0  0  0  0  0  0  0
   -0.4784   -0.9115   -0.5284 H   0  0  0  0  0  0  0  0  0  0  0  0
  1  5  1  0  0  0  0
  2  6  1  0  0  0  0
  2  1  1  0  0  0  0
  2  8  1  0  0  0  0
  3  1  1  0  0  0  0
  4  1  1  0  0  0  0
  6  9  1  0  0  0  0
  6 10  1  0  0  0  0
  7  2  1  0  0  0  0
  9 12  1  0  0  0  0
 11  6  1  0  0  0  0
 13  9  1  0  0  0  0
 14  9  1  0  0  0  0
M  END
$$$$
