14
butane_opt
C  -3.989685   0.316663   0.071903
C  -2.692532  -0.697700  -0.074241
H  -4.735111  -0.236018   0.014259
H  -4.011096   0.797834  -0.692709
H  -3.913856   1.159734   1.097761
C  -1.382287   0.182115  -0.010212
H  -2.807779  -1.513451  -0.980391
H  -2.646565  -1.187785   0.750078
C  -0.168154  -0.654694   0.121792
H  -1.343702   0.689736   0.760612
H  -1.303199   0.803551  -0.943070
H   0.067655  -1.639163   1.268202
H   0.761302  -0.064888  -0.535771
H  -0.346026  -0.984818  -0.566432
