butane_opt
 OpenBabel08242015383D

 14 13  0  0  0  0  0  0  0  0999 V2000
   -3.9586    0.2443    0.0358 C   0  0  0  0  0  0  0  0  0  0  0  0
   -2.7142   -0.6230    0.0399 C   0  0  0  0  0  0  0  0  0  0  0  0
   -4.8383   -0.3528    0.1094 H   0  0  0  0  0  0  0  0  0  0  0  0
   -3.8932    0.9671   -0.9623 H   0  0  0  0  0  0  0  0  0  0  0  0
   -3.9967    0.8379    0.9271 H   0  0  0  0  0  0  0  0  0  0  0  0
   -1.3975    0.2156   -0.0069 C   0  0  0  0  0  0  0  0  0  0  0  0
   -2.7695   -1.3024   -0.7891 H   0  0  0  0  0  0  0  0  0  0  0  0
   -2.6790   -1.0796    0.8088 H   0  0  0  0  0  0  0  0  0  0  0  0
   -0.1530   -0.6923    0.0440 C   0  0  0  0  0  0  0  0  0  0  0  0
   -1.3710    0.8141    0.7958 H   0  0  0  0  0  0  0  0  0  0  0  0
   -1.5426    0.8943   -1.0176 H   0  0  0  0  0  0  0  0  0  0  0  0
   -0.1238   -1.2156    0.9034 H   0  0  0  0  0  0  0  0  0  0  0  0
    0.6793   -0.2124    0.1883 H   0  0  0  0  0  0  0  0  0  0  0  0
    0.1726   -1.5575   -0.8910 H   0  0  0  0  0  0  0  0  0  0  0  0
  1  2  1  0  0  0  0
  1  3  1  0  0  0  0
  1  5  1  0  0  0  0
  2  8  1  0  0  0  0
  4  1  1  0  0  0  0
  6  2  1  0  0  0  0
  6  9  1  0  0  0  0
  6 10  1  0  0  0  0
  7  2  1  0  0  0  0
  9 13  1  0  0  0  0
  9 12  1  0  0  0  0
 11  6  1  0  0  0  0
 14  9  1  0  0  0  0
M  END
$$$$
