butane_opt
 OpenBabel08242015383D

 14 13  0  0  0  0  0  0  0  0999 V2000
   -3.8862    0.2181    0.1282 C   0  0  0  0  0  0  0  0  0  0  0  0
   -2.7054   -0.5791   -0.1548 C   0  0  0  0  0  0  0  0  0  0  0  0
   -4.7727   -0.4125    0.5668 H   0  0  0  0  0  0  0  0  0  0  0  0
   -4.2928    1.0230   -0.8482 H   0  0  0  0  0  0  0  0  0  0  0  0
   -3.4929    0.7390    0.9425 H   0  0  0  0  0  0  0  0  0  0  0  0
   -1.4718    0.2462   -0.0743 C   0  0  0  0  0  0  0  0  0  0  0  0
   -2.7942   -1.2545   -0.9894 H   0  0  0  0  0  0  0  0  0  0  0  0
   -2.7204   -1.1825    0.6909 H   0  0  0  0  0  0  0  0  0  0  0  0
   -0.1596   -0.7367    0.1539 C   0  0  0  0  0  0  0  0  0  0  0  0
   -1.4740    0.8207    0.8021 H   0  0  0  0  0  0  0  0  0  0  0  0
   -1.4178    0.8277   -0.9393 H   0  0  0  0  0  0  0  0  0  0  0  0
   -0.1071   -1.4252    1.0386 H   0  0  0  0  0  0  0  0  0  0  0  0
    0.6921   -0.1586    0.1143 H   0  0  0  0  0  0  0  0  0  0  0  0
    0.0362   -1.2071   -0.5790 H   0  0  0  0  0  0  0  0  0  0  0  0
  1  3  1  0  0  0  0
  1  5  1  0  0  0  0
  2  6  1  0  0  0  0
  2  1  1  0  0  0  0
  2  8  1  0  0  0  0
  4  1  1  0  0  0  0
  6  9  1  0  0  0  0
  6 10  1  0  0  0  0
  7  2  1  0  0  0  0
  9 12  1  0  0  0  0
 11  6  1  0  0  0  0
 13  9  1  0  0  0  0
 14  9  1  0  0  0  0
M  END
$$$$
