butane_opt
 OpenBabel08242015383D

 14 13  0  0  0  0  0  0  0  0999 V2000
   -3.9353    0.2594   -0.0160 C   0  0  0  0  0  0  0  0  0  0  0  0
   -2.7044   -0.5706    0.0982 C   0  0  0  0  0  0  0  0  0  0  0  0
   -4.8375   -0.3856   -0.4597 H   0  0  0  0  0  0  0  0  0  0  0  0
   -3.6465    0.4852   -0.7219 H   0  0  0  0  0  0  0  0  0  0  0  0
   -4.1412    1.0610    0.9092 H   0  0  0  0  0  0  0  0  0  0  0  0
   -1.4011    0.2020    0.0462 C   0  0  0  0  0  0  0  0  0  0  0  0
   -2.8335   -1.0968   -0.6344 H   0  0  0  0  0  0  0  0  0  0  0  0
   -2.8500   -1.2805    1.0970 H   0  0  0  0  0  0  0  0  0  0  0  0
   -0.1651   -0.7358    0.0083 C   0  0  0  0  0  0  0  0  0  0  0  0
   -1.4088    0.7030    0.8173 H   0  0  0  0  0  0  0  0  0  0  0  0
   -1.4886    0.9306   -0.9307 H   0  0  0  0  0  0  0  0  0  0  0  0
    0.0169   -1.1951    0.8521 H   0  0  0  0  0  0  0  0  0  0  0  0
    0.8438   -0.0568   -0.2002 H   0  0  0  0  0  0  0  0  0  0  0  0
   -0.2264   -1.4958   -0.9245 H   0  0  0  0  0  0  0  0  0  0  0  0
  1  2  1  0  0  0  0
  1  5  1  0  0  0  0
  2  8  1  0  0  0  0
  3  1  1  0  0  0  0
  4  1  1  0  0  0  0
  6  2  1  0  0  0  0
  6 10  1  0  0  0  0
  7  2  1  0  0  0  0
  9  6  1  0  0  0  0
  9 12  1  0  0  0  0
 11  6  1  0  0  0  0
 13  9  1  0  0  0  0
 14  9  1  0  0  0  0
M  END
$$$$
