butane_opt
 OpenBabel08242015383D

 14 13  0  0  0  0  0  0  0  0999 V2000
   -3.9519    0.2358    0.0469 C   0  0  0  0  0  0  0  0  0  0  0  0
   -2.7216   -0.6198    0.0693 C   0  0  0  0  0  0  0  0  0  0  0  0
   -4.8484   -0.3947   -0.1649 H   0  0  0  0  0  0  0  0  0  0  0  0
   -3.7900    0.7803   -0.7985 H   0  0  0  0  0  0  0  0  0  0  0  0
   -4.0804    0.9746    0.8878 H   0  0  0  0  0  0  0  0  0  0  0  0
   -1.4181    0.2544   -0.0408 C   0  0  0  0  0  0  0  0  0  0  0  0
   -2.7860   -1.3515   -0.7795 H   0  0  0  0  0  0  0  0  0  0  0  0
   -2.7851   -1.0891    0.8022 H   0  0  0  0  0  0  0  0  0  0  0  0
   -0.1015   -0.7141    0.0446 C   0  0  0  0  0  0  0  0  0  0  0  0
   -1.5055    0.9383    0.7555 H   0  0  0  0  0  0  0  0  0  0  0  0
   -1.4522    0.9054   -0.9736 H   0  0  0  0  0  0  0  0  0  0  0  0
   -0.0148   -1.3487    0.9762 H   0  0  0  0  0  0  0  0  0  0  0  0
    0.7204   -0.2901    0.1278 H   0  0  0  0  0  0  0  0  0  0  0  0
   -0.1567   -1.4921   -0.8122 H   0  0  0  0  0  0  0  0  0  0  0  0
  1  2  1  0  0  0  0
  1  5  1  0  0  0  0
  2  8  1  0  0  0  0
  3  1  1  0  0  0  0
  4  1  1  0  0  0  0
  6  9  1  0  0  0  0
  6  2  1  0  0  0  0
  6 10  1  0  0  0  0
  7  2  1  0  0  0  0
  9 13  1  0  0  0  0
  9 12  1  0  0  0  0
 11  6  1  0  0  0  0
 14  9  1  0  0  0  0
M  END
$$$$
