butane_opt
 OpenBabel08242015383D

 14 12  0  0  0  0  0  0  0  0999 V2000
   -3.9276    0.2455    0.0483 C   0  0  0  0  0  0  0  0  0  0  0  0
   -2.6952   -0.5809    0.0479 C   0  0  0  0  0  0  0  0  0  0  0  0
   -4.9078   -0.3698    0.1135 H   0  0  0  0  0  0  0  0  0  0  0  0
   -3.9042    0.8884   -0.8415 H   0  0  0  0  0  0  0  0  0  0  0  0
   -3.8901    0.8454    0.8251 H   0  0  0  0  0  0  0  0  0  0  0  0
   -1.3907    0.2011   -0.0512 C   0  0  0  0  0  0  0  0  0  0  0  0
   -2.9000   -1.2623   -0.7993 H   0  0  0  0  0  0  0  0  0  0  0  0
   -2.5582   -1.1855    0.8553 H   0  0  0  0  0  0  0  0  0  0  0  0
   -0.1933   -0.7099    0.0804 C   0  0  0  0  0  0  0  0  0  0  0  0
   -1.5625    0.7555    0.6589 H   0  0  0  0  0  0  0  0  0  0  0  0
   -1.4231    0.8650   -1.0400 H   0  0  0  0  0  0  0  0  0  0  0  0
   -0.2964   -1.0618    0.7658 H   0  0  0  0  0  0  0  0  0  0  0  0
    0.7602   -0.0318    0.3673 H   0  0  0  0  0  0  0  0  0  0  0  0
    0.1217   -1.7904   -1.0271 H   0  0  0  0  0  0  0  0  0  0  0  0
  1  3  1  0  0  0  0
  1  5  1  0  0  0  0
  2  1  1  0  0  0  0
  2  8  1  0  0  0  0
  4  1  1  0  0  0  0
  6  2  1  0  0  0  0
  6  9  1  0  0  0  0
  6 10  1  0  0  0  0
  7  2  1  0  0  0  0
  9 13  1  0  0  0  0
  9 12  1  0  0  0  0
 11  6  1  0  0  0  0
M  RAD  2   9   2  14   2
M  END
$$$$
