butane_opt
 OpenBabel08242015383D

 14 13  0  0  0  0  0  0  0  0999 V2000
   -3.9319    0.2905    0.1041 C   0  0  0  0  0  0  0  0  0  0  0  0
   -2.6862   -0.6355   -0.0517 C   0  0  0  0  0  0  0  0  0  0  0  0
   -4.8079   -0.2313    0.2120 H   0  0  0  0  0  0  0  0  0  0  0  0
   -4.0760    0.8177   -0.6363 H   0  0  0  0  0  0  0  0  0  0  0  0
   -3.7856    1.2685    1.1040 H   0  0  0  0  0  0  0  0  0  0  0  0
   -1.3874    0.1040   -0.1129 C   0  0  0  0  0  0  0  0  0  0  0  0
   -2.8015   -1.4217   -0.9162 H   0  0  0  0  0  0  0  0  0  0  0  0
   -2.6007   -1.1506    0.7759 H   0  0  0  0  0  0  0  0  0  0  0  0
   -0.1965   -0.6433    0.1496 C   0  0  0  0  0  0  0  0  0  0  0  0
   -1.5512    0.4656    0.4785 H   0  0  0  0  0  0  0  0  0  0  0  0
   -1.4106    0.9174   -1.1599 H   0  0  0  0  0  0  0  0  0  0  0  0
   -0.4467   -1.1627    0.9558 H   0  0  0  0  0  0  0  0  0  0  0  0
    0.8455    0.0842    0.3930 H   0  0  0  0  0  0  0  0  0  0  0  0
   -0.0088   -1.4203   -0.8240 H   0  0  0  0  0  0  0  0  0  0  0  0
  1  3  1  0  0  0  0
  1  5  1  0  0  0  0
  2  1  1  0  0  0  0
  2  8  1  0  0  0  0
  4  1  1  0  0  0  0
  6  2  1  0  0  0  0
  6  9  1  0  0  0  0
  6 10  1  0  0  0  0
  7  2  1  0  0  0  0
  9 13  1  0  0  0  0
  9 12  1  0  0  0  0
 11  6  1  0  0  0  0
 14  9  1  0  0  0  0
M  END
$$$$
