butane_opt
 OpenBabel08242015383D

 14 10  0  0  0  0  0  0  0  0999 V2000
   -3.9443    0.2432    0.0818 C   0  0  0  0  0  0  0  0  0  0  0  0
   -2.7304   -0.5642    0.0093 C   0  0  0  0  0  0  0  0  0  0  0  0
   -4.9878   -0.4428   -0.2747 H   0  0  0  0  0  0  0  0  0  0  0  0
   -3.7322    0.3915   -0.4943 H   0  0  0  0  0  0  0  0  0  0  0  0
   -4.0257    1.3251    1.2357 H   0  0  0  0  0  0  0  0  0  0  0  0
   -1.4117    0.2047   -0.0935 C   0  0  0  0  0  0  0  0  0  0  0  0
   -2.8976   -1.4029   -1.0298 H   0  0  0  0  0  0  0  0  0  0  0  0
   -2.7939   -1.0457    0.8147 H   0  0  0  0  0  0  0  0  0  0  0  0
   -0.1225   -0.7167    0.1194 C   0  0  0  0  0  0  0  0  0  0  0  0
   -1.3319    0.7213    0.6146 H   0  0  0  0  0  0  0  0  0  0  0  0
   -1.4480    1.0449   -1.1707 H   0  0  0  0  0  0  0  0  0  0  0  0
   -0.0841   -1.6488    1.1626 H   0  0  0  0  0  0  0  0  0  0  0  0
    0.7621   -0.1527   -0.0821 H   0  0  0  0  0  0  0  0  0  0  0  0
    0.0199   -1.2909   -0.6543 H   0  0  0  0  0  0  0  0  0  0  0  0
  2  1  1  0  0  0  0
  2  8  1  0  0  0  0
  3  1  1  0  0  0  0
  6  9  1  0  0  0  0
  6 10  1  0  0  0  0
  7  2  1  0  0  0  0
  9 12  1  0  0  0  0
 11  6  1  0  0  0  0
 13  9  1  0  0  0  0
 14  9  1  0  0  0  0
M  RAD  5   1   3   2   2   4   2   5   2   6   2
M  END
$$$$
