butane_opt
 OpenBabel08242015383D

 14 13  0  0  0  0  0  0  0  0999 V2000
   -3.9602    0.2835    0.0777 C   0  0  0  0  0  0  0  0  0  0  0  0
   -2.6834   -0.6371    0.0309 C   0  0  0  0  0  0  0  0  0  0  0  0
   -4.8307   -0.2248   -0.4103 H   0  0  0  0  0  0  0  0  0  0  0  0
   -3.6790    0.5456   -0.6567 H   0  0  0  0  0  0  0  0  0  0  0  0
   -4.1251    1.2349    1.1178 H   0  0  0  0  0  0  0  0  0  0  0  0
   -1.3874    0.1688   -0.0845 C   0  0  0  0  0  0  0  0  0  0  0  0
   -2.8456   -1.3624   -0.8168 H   0  0  0  0  0  0  0  0  0  0  0  0
   -2.5625   -1.0832    0.8288 H   0  0  0  0  0  0  0  0  0  0  0  0
   -0.1807   -0.7045    0.1025 C   0  0  0  0  0  0  0  0  0  0  0  0
   -1.2901    0.7237    0.7533 H   0  0  0  0  0  0  0  0  0  0  0  0
   -1.4006    0.8706   -1.0826 H   0  0  0  0  0  0  0  0  0  0  0  0
   -0.2894   -1.2630    1.0368 H   0  0  0  0  0  0  0  0  0  0  0  0
    0.7543    0.0002   -0.1737 H   0  0  0  0  0  0  0  0  0  0  0  0
   -0.2255   -1.2419   -0.6564 H   0  0  0  0  0  0  0  0  0  0  0  0
  1  5  1  0  0  0  0
  2  1  1  0  0  0  0
  2  8  1  0  0  0  0
  3  1  1  0  0  0  0
  4  1  1  0  0  0  0
  6  2  1  0  0  0  0
  6  9  1  0  0  0  0
  6 10  1  0  0  0  0
  7  2  1  0  0  0  0
  9 12  1  0  0  0  0
 11  6  1  0  0  0  0
 13  9  1  0  0  0  0
 14  9  1  0  0  0  0
M  END
$$$$
