14
butane_opt
C  -3.940403   0.270042  -0.012371
C  -2.679688  -0.626205   0.071801
H  -4.832133  -0.288863  -0.066349
H  -3.950702   0.880165  -0.897966
H  -4.067703   0.974050   0.865873
C  -1.405715   0.171829   0.045979
H  -2.723669  -1.303774  -0.781201
H  -2.731716  -1.278715   1.012198
C  -0.172005  -0.679488   0.006539
H  -1.401388   0.838467   0.889140
H  -1.384482   0.812116  -0.851046
H  -0.111930  -1.298891   0.878110
H   0.770083  -0.055815  -0.088997
H  -0.218148  -1.377930  -0.869957
