14
butane_opt
C  -3.893651   0.242288   0.074720
C  -2.704494  -0.594755  -0.021622
H  -4.818888  -0.397431   0.106487
H  -3.889193   0.777684  -0.748284
H  -3.682351   0.932127   0.943369
C  -1.437629   0.225389  -0.030065
H  -2.806512  -1.448732  -0.979158
H  -2.770590  -0.918713   0.724500
C  -0.193175  -0.720324   0.073696
H  -1.468064   0.783397   0.778473
H  -1.366527   0.947871  -1.048527
H  -0.068343  -1.561983   1.131938
H   0.673777  -0.248534  -0.004513
H  -0.093923  -1.168589  -0.591936
