14
butane_opt
C  -3.917882   0.258365  -0.078793
C  -2.714665  -0.583825   0.139542
H  -4.963017  -0.502401  -0.107449
H  -3.750597   0.929402  -1.101768
H  -4.047427   0.632336   0.650563
C  -1.394989   0.212994   0.158001
H  -2.600751  -1.128668  -0.709242
H  -2.722979  -1.173100   1.001083
C  -0.180136  -0.735428  -0.095909
H  -1.362543   1.105366   1.164785
H  -1.536247   0.689829  -0.641279
H   0.090424  -1.539549   0.847086
H   0.739858  -0.142673  -0.277113
H  -0.354949  -1.186099  -0.847287
