14
butane_opt
C  -3.985247   0.289522  -0.024209
C  -2.701054  -0.631633   0.080322
H  -4.863508  -0.338640   0.159666
H  -4.071865   0.752802  -0.874559
H  -3.869610   0.913218   0.832924
C  -1.356989   0.178449   0.010147
H  -2.644549  -1.108131  -0.654457
H  -2.734919  -1.338914   0.947066
C  -0.169886  -0.694864   0.008287
H  -1.467353   0.888288   0.913536
H  -1.369198   0.774255  -0.906084
H  -0.135913  -1.116432   0.753794
H   0.743747  -0.065558   0.275163
H  -0.072411  -1.523425  -0.907392
