14
butane_opt
C  -3.937037   0.276717   0.033515
C  -2.692364  -0.624068   0.032608
H  -4.853918  -0.342050   0.069763
H  -3.971184   0.918970  -0.881098
H  -4.000621   0.949042   0.897055
C  -1.410698   0.160831  -0.017797
H  -2.735836  -1.295734  -0.808458
H  -2.644883  -1.236043   0.899323
C  -0.169012  -0.681832   0.049616
H  -1.371920   0.822198   0.802554
H  -1.378507   0.799645  -0.917940
H  -0.207303  -1.188127   0.912329
H   0.776587  -0.051915   0.137340
H  -0.127814  -1.427408  -0.854619
