14
butane_opt
C  -3.977667   0.295110   0.103443
C  -2.722205  -0.625949  -0.014615
H  -4.881412  -0.299809  -0.400167
H  -3.857866   0.457157  -0.481566
H  -4.268147   1.253513   1.121837
C  -1.365927   0.160593  -0.086340
H  -2.742724  -1.407601  -0.883117
H  -2.599077  -1.203919   0.766998
C  -0.146077  -0.662226   0.100329
H  -1.333781   0.588682   0.657800
H  -1.380212   0.943609  -1.020013
H  -0.010455  -1.542762   1.136786
H   0.713065  -0.130940  -0.056013
H  -0.133882  -1.135834  -0.562223
