butane_opt
 OpenBabel08242015383D

 14 13  0  0  0  0  0  0  0  0999 V2000
   -3.9933    0.2835   -0.0654 C   0  0  0  0  0  0  0  0  0  0  0  0
   -2.6867   -0.6799    0.1506 C   0  0  0  0  0  0  0  0  0  0  0  0
   -4.6981   -0.1288   -0.3617 H   0  0  0  0  0  0  0  0  0  0  0  0
   -3.8845    0.7074   -0.7658 H   0  0  0  0  0  0  0  0  0  0  0  0
   -4.2315    1.2082    0.9542 H   0  0  0  0  0  0  0  0  0  0  0  0
   -1.3737    0.1577    0.0523 C   0  0  0  0  0  0  0  0  0  0  0  0
   -2.7476   -1.3353   -0.6449 H   0  0  0  0  0  0  0  0  0  0  0  0
   -2.7278   -1.3320    1.0463 H   0  0  0  0  0  0  0  0  0  0  0  0
   -0.1464   -0.6626   -0.0455 C   0  0  0  0  0  0  0  0  0  0  0  0
   -1.2862    1.0193    0.9782 H   0  0  0  0  0  0  0  0  0  0  0  0
   -1.5478    0.8073   -0.8611 H   0  0  0  0  0  0  0  0  0  0  0  0
   -0.0179   -1.3753    0.9396 H   0  0  0  0  0  0  0  0  0  0  0  0
    0.7139   -0.0505   -0.0538 H   0  0  0  0  0  0  0  0  0  0  0  0
   -0.2274   -1.1718   -0.8482 H   0  0  0  0  0  0  0  0  0  0  0  0
  1  2  1  0  0  0  0
  1  5  1  0  0  0  0
  2  8  1  0  0  0  0
  3  1  1  0  0  0  0
  4  1  1  0  0  0  0
  6  2  1  0  0  0  0
  6 10  1  0  0  0  0
  7  2  1  0  0  0  0
  9  6  1  0  0  0  0
  9 12  1  0  0  0  0
 11  6  1  0  0  0  0
 13  9  1  0  0  0  0
 14  9  1  0  0  0  0
M  END
$$$$
