butane_opt
 OpenBabel08242015383D

 14 12  0  0  0  0  0  0  0  0999 V2000
   -3.9442    0.3027   -0.0802 C   0  0  0  0  0  0  0  0  0  0  0  0
   -2.6633   -0.6747    0.1151 C   0  0  0  0  0  0  0  0  0  0  0  0
   -4.8272   -0.3583    0.4085 H   0  0  0  0  0  0  0  0  0  0  0  0
   -4.1986    1.3556   -1.2795 H   0  0  0  0  0  0  0  0  0  0  0  0
   -3.7452    0.6312    0.5205 H   0  0  0  0  0  0  0  0  0  0  0  0
   -1.3716    0.1770    0.1564 C   0  0  0  0  0  0  0  0  0  0  0  0
   -2.5925   -1.3571   -0.7509 H   0  0  0  0  0  0  0  0  0  0  0  0
   -2.8203   -1.1588    0.9337 H   0  0  0  0  0  0  0  0  0  0  0  0
   -0.2334   -0.6802   -0.0565 C   0  0  0  0  0  0  0  0  0  0  0  0
   -1.3084    0.8716    0.9903 H   0  0  0  0  0  0  0  0  0  0  0  0
   -1.3849    0.7016   -0.7345 H   0  0  0  0  0  0  0  0  0  0  0  0
   -0.0726   -1.1055    0.7033 H   0  0  0  0  0  0  0  0  0  0  0  0
    0.7547   -0.0268   -0.0173 H   0  0  0  0  0  0  0  0  0  0  0  0
   -0.2907   -1.4966   -1.0053 H   0  0  0  0  0  0  0  0  0  0  0  0
  1  2  1  0  0  0  0
  1  3  1  0  0  0  0
  1  5  1  0  0  0  0
  2  6  1  0  0  0  0
  2  8  1  0  0  0  0
  6 10  1  0  0  0  0
  7  2  1  0  0  0  0
  9 13  1  0  0  0  0
  9  6  1  0  0  0  0
  9 12  1  0  0  0  0
 11  6  1  0  0  0  0
 14  9  1  0  0  0  0
M  RAD  2   1   2   4   2
M  END
$$$$
