14
butane_opt
C  -3.886212   0.218073   0.128185
C  -2.705417  -0.579142  -0.154764
H  -4.772665  -0.412545   0.566757
H  -4.292811   1.022969  -0.848156
H  -3.492864   0.739046   0.942508
C  -1.471832   0.246195  -0.074276
H  -2.794226  -1.254492  -0.989447
H  -2.720434  -1.182488   0.690918
C  -0.159624  -0.736732   0.153927
H  -1.473950   0.820673   0.802082
H  -1.417799   0.827706  -0.939263
H  -0.107072  -1.425211   1.038572
H   0.692079  -0.158573   0.114268
H   0.036232  -1.207085  -0.578964
