butane_opt
 OpenBabel08242015383D

 14 13  0  0  0  0  0  0  0  0999 V2000
   -3.9482    0.2661    0.0887 C   0  0  0  0  0  0  0  0  0  0  0  0
   -2.7132   -0.6237   -0.0960 C   0  0  0  0  0  0  0  0  0  0  0  0
   -4.8339   -0.3891    0.5607 H   0  0  0  0  0  0  0  0  0  0  0  0
   -4.0644    1.0203   -0.9074 H   0  0  0  0  0  0  0  0  0  0  0  0
   -3.6450    0.7257    0.8833 H   0  0  0  0  0  0  0  0  0  0  0  0
   -1.4160    0.2298   -0.0189 C   0  0  0  0  0  0  0  0  0  0  0  0
   -2.9007   -1.4308   -1.0456 H   0  0  0  0  0  0  0  0  0  0  0  0
   -2.6301   -1.1811    0.7710 H   0  0  0  0  0  0  0  0  0  0  0  0
   -0.1617   -0.7060    0.1141 C   0  0  0  0  0  0  0  0  0  0  0  0
   -1.4761    0.7967    0.6632 H   0  0  0  0  0  0  0  0  0  0  0  0
   -1.2587    1.0213   -1.0061 H   0  0  0  0  0  0  0  0  0  0  0  0
   -0.0489   -1.3343    1.0983 H   0  0  0  0  0  0  0  0  0  0  0  0
    0.7178   -0.2002    0.1204 H   0  0  0  0  0  0  0  0  0  0  0  0
   -0.0317   -1.4871   -0.7765 H   0  0  0  0  0  0  0  0  0  0  0  0
  1  3  1  0  0  0  0
  1  5  1  0  0  0  0
  2  6  1  0  0  0  0
  2  1  1  0  0  0  0
  2  8  1  0  0  0  0
  4  1  1  0  0  0  0
  6  9  1  0  0  0  0
  6 10  1  0  0  0  0
  7  2  1  0  0  0  0
  9 13  1  0  0  0  0
  9 12  1  0  0  0  0
 11  6  1  0  0  0  0
 14  9  1  0  0  0  0
M  END
$$$$
