14
butane_opt
C  -3.959915   0.300052   0.053561
C  -2.670397  -0.643030  -0.052350
H  -4.894981  -0.299498   0.460730
H  -4.147040   1.092820  -0.949256
H  -3.839029   0.876694   0.844814
C  -1.424285   0.106174  -0.007252
H  -2.603802  -1.368522  -0.842083
H  -2.624281  -1.264808   0.854018
C  -0.196075  -0.647301   0.067381
H  -1.282452   0.822065   0.922450
H  -1.290549   0.816204  -0.952353
H  -0.184979  -1.226958   1.017292
H   0.895799   0.056359   0.120864
H  -0.081018  -1.338852  -0.779531
