butane_opt
 OpenBabel08242015383D

 14 13  0  0  0  0  0  0  0  0999 V2000
   -3.9452    0.2636    0.0379 C   0  0  0  0  0  0  0  0  0  0  0  0
   -2.6880   -0.6146    0.0322 C   0  0  0  0  0  0  0  0  0  0  0  0
   -4.8612   -0.3140    0.0431 H   0  0  0  0  0  0  0  0  0  0  0  0
   -3.9567    0.8639   -0.8433 H   0  0  0  0  0  0  0  0  0  0  0  0
   -3.9788    0.8771    0.8813 H   0  0  0  0  0  0  0  0  0  0  0  0
   -1.4047    0.1894   -0.0165 C   0  0  0  0  0  0  0  0  0  0  0  0
   -2.7692   -1.3011   -0.8370 H   0  0  0  0  0  0  0  0  0  0  0  0
   -2.6507   -1.2295    0.9128 H   0  0  0  0  0  0  0  0  0  0  0  0
   -0.1665   -0.6905    0.0445 C   0  0  0  0  0  0  0  0  0  0  0  0
   -1.4113    0.8260    0.8080 H   0  0  0  0  0  0  0  0  0  0  0  0
   -1.3683    0.8515   -0.9604 H   0  0  0  0  0  0  0  0  0  0  0  0
   -0.1978   -1.2470    0.9186 H   0  0  0  0  0  0  0  0  0  0  0  0
    0.7140   -0.1312    0.1949 H   0  0  0  0  0  0  0  0  0  0  0  0
   -0.0897   -1.4498   -0.8653 H   0  0  0  0  0  0  0  0  0  0  0  0
  1  3  1  0  0  0  0
  1  5  1  0  0  0  0
  2  1  1  0  0  0  0
  2  8  1  0  0  0  0
  4  1  1  0  0  0  0
  6  2  1  0  0  0  0
  6  9  1  0  0  0  0
  6 10  1  0  0  0  0
  7  2  1  0  0  0  0
  9 13  1  0  0  0  0
  9 12  1  0  0  0  0
 11  6  1  0  0  0  0
 14  9  1  0  0  0  0
M  END
$$$$
