butane_opt
 OpenBabel08242015383D

 14 13  0  0  0  0  0  0  0  0999 V2000
   -3.9327    0.2082   -0.0172 C   0  0  0  0  0  0  0  0  0  0  0  0
   -2.7473   -0.5857    0.1323 C   0  0  0  0  0  0  0  0  0  0  0  0
   -4.7089   -0.2773   -0.3101 H   0  0  0  0  0  0  0  0  0  0  0  0
   -3.6217    0.7226   -0.9071 H   0  0  0  0  0  0  0  0  0  0  0  0
   -4.1725    1.0120    0.8743 H   0  0  0  0  0  0  0  0  0  0  0  0
   -1.4350    0.2422    0.0282 C   0  0  0  0  0  0  0  0  0  0  0  0
   -2.6865   -1.2835   -0.7046 H   0  0  0  0  0  0  0  0  0  0  0  0
   -2.8074   -1.1221    0.9660 H   0  0  0  0  0  0  0  0  0  0  0  0
   -0.1197   -0.7264   -0.0219 C   0  0  0  0  0  0  0  0  0  0  0  0
   -1.3783    0.9359    1.0143 H   0  0  0  0  0  0  0  0  0  0  0  0
   -1.4918    0.9072   -0.9008 H   0  0  0  0  0  0  0  0  0  0  0  0
    0.0887   -1.3824    0.8467 H   0  0  0  0  0  0  0  0  0  0  0  0
    0.7202   -0.2299   -0.0654 H   0  0  0  0  0  0  0  0  0  0  0  0
   -0.1566   -1.4107   -0.8011 H   0  0  0  0  0  0  0  0  0  0  0  0
  1  2  1  0  0  0  0
  1  5  1  0  0  0  0
  2  8  1  0  0  0  0
  3  1  1  0  0  0  0
  4  1  1  0  0  0  0
  6  2  1  0  0  0  0
  6 10  1  0  0  0  0
  7  2  1  0  0  0  0
  9  6  1  0  0  0  0
  9 12  1  0  0  0  0
 11  6  1  0  0  0  0
 13  9  1  0  0  0  0
 14  9  1  0  0  0  0
M  END
$$$$
