14
butane_opt
C  -3.953098   0.269903   0.003134
C  -2.694796  -0.627705   0.032854
H  -4.820752  -0.294215   0.040122
H  -4.033949   0.873228  -0.873388
H  -4.038814   0.957006   0.889649
C  -1.391979   0.181555   0.039554
H  -2.717159  -1.329980  -0.821104
H  -2.727040  -1.275032   0.946455
C  -0.159050  -0.685753   0.017316
H  -1.387098   0.878740   0.912176
H  -1.424376   0.794809  -0.842595
H  -0.071672  -1.403426   0.986912
H   0.754765  -0.098330  -0.125418
H  -0.172539  -1.218688  -0.773285
