14
butane_opt
C  -3.941361   0.261274  -0.004567
C  -2.726871  -0.618149   0.072200
H  -4.867465  -0.418941  -0.011243
H  -3.830517   1.028050  -1.092076
H  -3.964021   0.806089   0.738673
C  -1.397347   0.216796   0.064374
H  -2.644628  -1.400094  -0.805573
H  -2.722592  -1.172994   0.931018
C  -0.177043  -0.716807  -0.014419
H  -1.345148   1.074201   1.105681
H  -1.411829   0.760596  -0.796750
H   0.136244  -1.459212   0.993885
H   0.754287  -0.170425  -0.218758
H  -0.226905  -1.225475  -0.811506
