butane_opt
 OpenBabel08242015383D

 14 13  0  0  0  0  0  0  0  0999 V2000
   -3.9204    0.2205   -0.0390 C   0  0  0  0  0  0  0  0  0  0  0  0
   -2.7303   -0.5588    0.1267 C   0  0  0  0  0  0  0  0  0  0  0  0
   -4.8740   -0.4103   -0.3588 H   0  0  0  0  0  0  0  0  0  0  0  0
   -3.6110    0.6290   -0.9151 H   0  0  0  0  0  0  0  0  0  0  0  0
   -4.1517    0.9926    0.8071 H   0  0  0  0  0  0  0  0  0  0  0  0
   -1.4493    0.2113    0.0643 C   0  0  0  0  0  0  0  0  0  0  0  0
   -2.6586   -1.0815   -0.6123 H   0  0  0  0  0  0  0  0  0  0  0  0
   -2.7147   -1.3186    1.1809 H   0  0  0  0  0  0  0  0  0  0  0  0
   -0.0970   -0.7354   -0.0424 C   0  0  0  0  0  0  0  0  0  0  0  0
   -1.2983    1.0902    1.0532 H   0  0  0  0  0  0  0  0  0  0  0  0
   -1.6604    0.8191   -0.7902 H   0  0  0  0  0  0  0  0  0  0  0  0
   -0.1884   -1.3653    0.8280 H   0  0  0  0  0  0  0  0  0  0  0  0
    0.7169   -0.1234   -0.1536 H   0  0  0  0  0  0  0  0  0  0  0  0
   -0.1865   -1.3975   -0.8969 H   0  0  0  0  0  0  0  0  0  0  0  0
  1  2  1  0  0  0  0
  1  5  1  0  0  0  0
  2  8  1  0  0  0  0
  3  1  1  0  0  0  0
  4  1  1  0  0  0  0
  6  2  1  0  0  0  0
  6 10  1  0  0  0  0
  7  2  1  0  0  0  0
  9  6  1  0  0  0  0
  9 12  1  0  0  0  0
 11  6  1  0  0  0  0
 13  9  1  0  0  0  0
 14  9  1  0  0  0  0
M  END
$$$$
