14
butane_opt
C  -3.927438   0.257231  -0.102205
C  -2.722166  -0.584608   0.209209
H  -4.921415  -0.425809  -0.414723
H  -3.490105   0.677967  -0.909365
H  -4.105854   1.074590   0.827612
C  -1.427396   0.189829   0.102523
H  -2.419915  -1.173366  -0.591571
H  -2.804517  -1.345353   1.196169
C  -0.177304  -0.700817  -0.070243
H  -1.339478   0.887410   0.947564
H  -1.443613   0.837606  -0.759454
H   0.101786  -1.219223   0.767990
H   0.834401  -0.111265  -0.183948
H  -0.392037  -1.627632  -1.092260
