butane_opt
 OpenBabel08242015383D

 14 11  0  0  0  0  0  0  0  0999 V2000
   -3.9694    0.2680   -0.0364 C   0  0  0  0  0  0  0  0  0  0  0  0
   -2.7158   -0.6011    0.0871 C   0  0  0  0  0  0  0  0  0  0  0  0
   -5.0263   -0.4083    0.3805 H   0  0  0  0  0  0  0  0  0  0  0  0
   -3.9583    1.2865   -1.3106 H   0  0  0  0  0  0  0  0  0  0  0  0
   -3.8741    0.3951    0.4517 H   0  0  0  0  0  0  0  0  0  0  0  0
   -1.3902    0.2055    0.1340 C   0  0  0  0  0  0  0  0  0  0  0  0
   -2.6996   -1.2395   -0.7619 H   0  0  0  0  0  0  0  0  0  0  0  0
   -2.8906   -1.2244    1.0296 H   0  0  0  0  0  0  0  0  0  0  0  0
   -0.1429   -0.7191   -0.0493 C   0  0  0  0  0  0  0  0  0  0  0  0
   -1.3896    0.9864    1.0488 H   0  0  0  0  0  0  0  0  0  0  0  0
   -1.3317    0.7764   -0.8051 H   0  0  0  0  0  0  0  0  0  0  0  0
    0.0957   -1.0825    0.6397 H   0  0  0  0  0  0  0  0  0  0  0  0
    0.7940   -0.1559    0.1434 H   0  0  0  0  0  0  0  0  0  0  0  0
   -0.1302   -1.6456   -1.0619 H   0  0  0  0  0  0  0  0  0  0  0  0
  1  2  1  0  0  0  0
  1  3  1  0  0  0  0
  2  6  1  0  0  0  0
  2  8  1  0  0  0  0
  6 10  1  0  0  0  0
  7  2  1  0  0  0  0
  9  6  1  0  0  0  0
  9 13  1  0  0  0  0
  9 12  1  0  0  0  0
 11  6  1  0  0  0  0
 14  9  1  0  0  0  0
M  RAD  3   1   3   4   2   5   2
M  END
$$$$
