14
butane_opt
C  -3.992382   0.292433   0.078973
C  -2.726413  -0.642673   0.009902
H  -4.889881  -0.270069   0.167541
H  -4.055985   0.848713  -0.772455
H  -3.871134   1.094036   1.091184
C  -1.372469   0.135107  -0.128261
H  -2.667528  -1.274971  -0.741667
H  -2.605170  -1.196446   0.779272
C  -0.152533  -0.653994   0.089106
H  -1.353716   0.784560   0.695692
H  -1.205993   0.769253  -1.055841
H  -0.518787  -1.099539   0.963954
H   0.793834  -0.092156   0.518207
H   0.252954  -1.602479  -0.823864
