butane_opt
 OpenBabel08242015383D

 14 13  0  0  0  0  0  0  0  0999 V2000
   -3.9930    0.2773   -0.0749 C   0  0  0  0  0  0  0  0  0  0  0  0
   -2.6757   -0.6414    0.1664 C   0  0  0  0  0  0  0  0  0  0  0  0
   -4.9250   -0.2811   -0.3017 H   0  0  0  0  0  0  0  0  0  0  0  0
   -3.8645    0.7759   -0.9531 H   0  0  0  0  0  0  0  0  0  0  0  0
   -4.1988    1.1297    0.9038 H   0  0  0  0  0  0  0  0  0  0  0  0
   -1.4032    0.1899    0.0622 C   0  0  0  0  0  0  0  0  0  0  0  0
   -2.7200   -1.1174   -0.5725 H   0  0  0  0  0  0  0  0  0  0  0  0
   -2.6605   -1.4771    1.1926 H   0  0  0  0  0  0  0  0  0  0  0  0
   -0.1249   -0.6803   -0.0466 C   0  0  0  0  0  0  0  0  0  0  0  0
   -1.3317    0.8429    0.9165 H   0  0  0  0  0  0  0  0  0  0  0  0
   -1.3779    0.5985   -0.7939 H   0  0  0  0  0  0  0  0  0  0  0  0
   -0.1258   -1.1390    0.7099 H   0  0  0  0  0  0  0  0  0  0  0  0
    0.8939   -0.0457    0.1149 H   0  0  0  0  0  0  0  0  0  0  0  0
   -0.3413   -1.4905   -1.0617 H   0  0  0  0  0  0  0  0  0  0  0  0
  1  2  1  0  0  0  0
  1  5  1  0  0  0  0
  2  8  1  0  0  0  0
  3  1  1  0  0  0  0
  4  1  1  0  0  0  0
  6  2  1  0  0  0  0
  6 10  1  0  0  0  0
  7  2  1  0  0  0  0
  9  6  1  0  0  0  0
  9 13  1  0  0  0  0
  9 12  1  0  0  0  0
 11  6  1  0  0  0  0
 14  9  1  0  0  0  0
M  END
$$$$
