butane_opt
 OpenBabel08242015383D

 14 13  0  0  0  0  0  0  0  0999 V2000
   -3.9335    0.2488    0.0944 C   0  0  0  0  0  0  0  0  0  0  0  0
   -2.7376   -0.5796    0.0174 C   0  0  0  0  0  0  0  0  0  0  0  0
   -4.9087   -0.4819   -0.3957 H   0  0  0  0  0  0  0  0  0  0  0  0
   -3.7350    0.4813   -0.5470 H   0  0  0  0  0  0  0  0  0  0  0  0
   -3.9951    1.1819    1.1530 H   0  0  0  0  0  0  0  0  0  0  0  0
   -1.4256    0.2292   -0.0771 C   0  0  0  0  0  0  0  0  0  0  0  0
   -2.8440   -1.4324   -0.9555 H   0  0  0  0  0  0  0  0  0  0  0  0
   -2.6570   -1.1331    0.8375 H   0  0  0  0  0  0  0  0  0  0  0  0
   -0.1276   -0.7307    0.0858 C   0  0  0  0  0  0  0  0  0  0  0  0
   -1.3954    0.7961    0.5980 H   0  0  0  0  0  0  0  0  0  0  0  0
   -1.2414    1.1107   -1.1399 H   0  0  0  0  0  0  0  0  0  0  0  0
   -0.1707   -1.5386    1.0738 H   0  0  0  0  0  0  0  0  0  0  0  0
    0.6092   -0.2631    0.0758 H   0  0  0  0  0  0  0  0  0  0  0  0
    0.0321   -1.2498   -0.6635 H   0  0  0  0  0  0  0  0  0  0  0  0
  1  5  1  0  0  0  0
  2  1  1  0  0  0  0
  2  8  1  0  0  0  0
  3  1  1  0  0  0  0
  4  1  1  0  0  0  0
  6  2  1  0  0  0  0
  6  9  1  0  0  0  0
  6 10  1  0  0  0  0
  7  2  1  0  0  0  0
  9 12  1  0  0  0  0
 11  6  1  0  0  0  0
 13  9  1  0  0  0  0
 14  9  1  0  0  0  0
M  END
$$$$
