14
butane_opt
C  -3.920441   0.220465  -0.038984
C  -2.730319  -0.558825   0.126728
H  -4.874047  -0.410343  -0.358797
H  -3.611009   0.629008  -0.915090
H  -4.151737   0.992637   0.807100
C  -1.449318   0.211291   0.064306
H  -2.658579  -1.081457  -0.612320
H  -2.714709  -1.318599   1.180936
C  -0.096982  -0.735351  -0.042417
H  -1.298277   1.090242   1.053190
H  -1.660438   0.819108  -0.790216
H  -0.188429  -1.365274   0.827987
H   0.716877  -0.123406  -0.153608
H  -0.186478  -1.397456  -0.896883
