14
butane_opt
C  -3.892486   0.231520  -0.034573
C  -2.720712  -0.592354   0.080499
H  -4.824890  -0.336248   0.227287
H  -3.980907   1.126805  -1.153730
H  -3.870776   0.533026   0.526503
C  -1.447816   0.230640   0.092102
H  -2.736012  -1.136718  -0.726626
H  -2.751131  -1.352528   1.124036
C  -0.132868  -0.716341  -0.031472
H  -1.443183   0.997436   1.048164
H  -1.532062   0.799161  -0.721488
H  -0.084011  -1.080887   0.713907
H   0.711383  -0.229816   0.154137
H  -0.170295  -1.652303  -1.096675
