butane_opt
 OpenBabel08242015383D

 14 13  0  0  0  0  0  0  0  0999 V2000
   -3.9657    0.3128   -0.0216 C   0  0  0  0  0  0  0  0  0  0  0  0
   -2.7033   -0.6871    0.0187 C   0  0  0  0  0  0  0  0  0  0  0  0
   -4.8343   -0.2527    0.3620 H   0  0  0  0  0  0  0  0  0  0  0  0
   -4.2910    1.1085   -0.9492 H   0  0  0  0  0  0  0  0  0  0  0  0
   -3.9395    0.7552    0.7467 H   0  0  0  0  0  0  0  0  0  0  0  0
   -1.4047    0.1711    0.0567 C   0  0  0  0  0  0  0  0  0  0  0  0
   -2.6047   -1.3394   -0.7494 H   0  0  0  0  0  0  0  0  0  0  0  0
   -2.6809   -1.3742    0.9355 H   0  0  0  0  0  0  0  0  0  0  0  0
   -0.1429   -0.6593    0.0237 C   0  0  0  0  0  0  0  0  0  0  0  0
   -1.4676    1.0078    0.9614 H   0  0  0  0  0  0  0  0  0  0  0  0
   -1.2308    0.5945   -0.7133 H   0  0  0  0  0  0  0  0  0  0  0  0
   -0.0859   -1.2524    0.9699 H   0  0  0  0  0  0  0  0  0  0  0  0
    0.8809   -0.0221   -0.2194 H   0  0  0  0  0  0  0  0  0  0  0  0
   -0.1906   -1.3187   -0.8804 H   0  0  0  0  0  0  0  0  0  0  0  0
  1  2  1  0  0  0  0
  1  3  1  0  0  0  0
  1  5  1  0  0  0  0
  2  6  1  0  0  0  0
  2  8  1  0  0  0  0
  4  1  1  0  0  0  0
  6 10  1  0  0  0  0
  7  2  1  0  0  0  0
  9  6  1  0  0  0  0
  9 12  1  0  0  0  0
 11  6  1  0  0  0  0
 13  9  1  0  0  0  0
 14  9  1  0  0  0  0
M  END
$$$$
