butane_opt
 OpenBabel08242015383D

 14 13  0  0  0  0  0  0  0  0999 V2000
   -3.9443    0.2342   -0.0511 C   0  0  0  0  0  0  0  0  0  0  0  0
   -2.7439   -0.5812    0.1541 C   0  0  0  0  0  0  0  0  0  0  0  0
   -4.8558   -0.3972   -0.4138 H   0  0  0  0  0  0  0  0  0  0  0  0
   -3.7734    0.7553   -0.9540 H   0  0  0  0  0  0  0  0  0  0  0  0
   -4.2464    0.9319    0.8681 H   0  0  0  0  0  0  0  0  0  0  0  0
   -1.4201    0.2376    0.0886 C   0  0  0  0  0  0  0  0  0  0  0  0
   -2.6410   -1.3655   -0.6873 H   0  0  0  0  0  0  0  0  0  0  0  0
   -2.8192   -1.2709    1.0492 H   0  0  0  0  0  0  0  0  0  0  0  0
   -0.1236   -0.7086   -0.0379 C   0  0  0  0  0  0  0  0  0  0  0  0
   -1.3308    0.9579    0.9375 H   0  0  0  0  0  0  0  0  0  0  0  0
   -1.4709    0.8703   -0.8399 H   0  0  0  0  0  0  0  0  0  0  0  0
    0.2829   -1.4446    0.8955 H   0  0  0  0  0  0  0  0  0  0  0  0
    0.7292   -0.1753   -0.2792 H   0  0  0  0  0  0  0  0  0  0  0  0
   -0.1247   -1.5145   -0.9720 H   0  0  0  0  0  0  0  0  0  0  0  0
  1  2  1  0  0  0  0
  1  5  1  0  0  0  0
  2  8  1  0  0  0  0
  3  1  1  0  0  0  0
  4  1  1  0  0  0  0
  6  2  1  0  0  0  0
  6 10  1  0  0  0  0
  7  2  1  0  0  0  0
  9  6  1  0  0  0  0
  9 12  1  0  0  0  0
 11  6  1  0  0  0  0
 13  9  1  0  0  0  0
 14  9  1  0  0  0  0
M  END
$$$$
