14
butane_opt
C  -3.965704   0.312834  -0.021633
C  -2.703318  -0.687101   0.018681
H  -4.834296  -0.252686   0.362049
H  -4.291011   1.108488  -0.949249
H  -3.939537   0.755236   0.746701
C  -1.404728   0.171111   0.056743
H  -2.604732  -1.339360  -0.749428
H  -2.680905  -1.374222   0.935521
C  -0.142883  -0.659251   0.023729
H  -1.467608   1.007782   0.961421
H  -1.230825   0.594496  -0.713254
H  -0.085902  -1.252431   0.969860
H   0.880875  -0.022126  -0.219400
H  -0.190611  -1.318669  -0.880388
