14
butane_opt
C  -3.938492   0.246201   0.077292
C  -2.730927  -0.620273   0.036214
H  -4.880713  -0.393098  -0.386123
H  -3.693490   0.639955  -0.751419
H  -4.114834   1.161106   1.025288
C  -1.421925   0.239516  -0.049858
H  -2.657623  -1.357628  -0.792951
H  -2.685416  -1.140577   0.781915
C  -0.134899  -0.710407   0.058795
H  -1.354806   0.898926   0.828244
H  -1.335699   0.936272  -0.963323
H  -0.035130  -1.629096   1.080712
H   0.672059  -0.235422  -0.090225
H  -0.208194  -1.235480  -0.703859
