14
butane_opt
C  -3.941263   0.227173  -0.019644
C  -2.700001  -0.594964   0.058719
H  -4.875211  -0.321376   0.282396
H  -4.056996   1.137634  -1.028505
H  -3.907390   0.649951   0.719301
C  -1.437012   0.219814   0.051947
H  -2.815304  -1.205171  -0.741805
H  -2.865195  -1.294106   1.021172
C  -0.099141  -0.692565   0.015312
H  -1.378592   0.796410   0.920951
H  -1.523150   0.937158  -0.878342
H  -0.173605  -1.070700   0.716297
H   0.692795  -0.194550   0.234743
H   0.011128  -1.835082  -1.148461
