butane_opt
 OpenBabel08242015383D

 14 13  0  0  0  0  0  0  0  0999 V2000
   -3.9385    0.2462    0.0773 C   0  0  0  0  0  0  0  0  0  0  0  0
   -2.7309   -0.6203    0.0362 C   0  0  0  0  0  0  0  0  0  0  0  0
   -4.8807   -0.3931   -0.3861 H   0  0  0  0  0  0  0  0  0  0  0  0
   -3.6935    0.6400   -0.7514 H   0  0  0  0  0  0  0  0  0  0  0  0
   -4.1148    1.1611    1.0253 H   0  0  0  0  0  0  0  0  0  0  0  0
   -1.4219    0.2395   -0.0499 C   0  0  0  0  0  0  0  0  0  0  0  0
   -2.6576   -1.3576   -0.7930 H   0  0  0  0  0  0  0  0  0  0  0  0
   -2.6854   -1.1406    0.7819 H   0  0  0  0  0  0  0  0  0  0  0  0
   -0.1349   -0.7104    0.0588 C   0  0  0  0  0  0  0  0  0  0  0  0
   -1.3548    0.8989    0.8282 H   0  0  0  0  0  0  0  0  0  0  0  0
   -1.3357    0.9363   -0.9633 H   0  0  0  0  0  0  0  0  0  0  0  0
   -0.0351   -1.6291    1.0807 H   0  0  0  0  0  0  0  0  0  0  0  0
    0.6721   -0.2354   -0.0902 H   0  0  0  0  0  0  0  0  0  0  0  0
   -0.2082   -1.2355   -0.7039 H   0  0  0  0  0  0  0  0  0  0  0  0
  1  5  1  0  0  0  0
  2  1  1  0  0  0  0
  2  8  1  0  0  0  0
  3  1  1  0  0  0  0
  4  1  1  0  0  0  0
  6  2  1  0  0  0  0
  6  9  1  0  0  0  0
  6 10  1  0  0  0  0
  7  2  1  0  0  0  0
  9 12  1  0  0  0  0
 11  6  1  0  0  0  0
 13  9  1  0  0  0  0
 14  9  1  0  0  0  0
M  END
$$$$
