butane_opt
 OpenBabel08242015383D

 14 13  0  0  0  0  0  0  0  0999 V2000
   -3.9139    0.2922   -0.0976 C   0  0  0  0  0  0  0  0  0  0  0  0
   -2.6932   -0.6222    0.1809 C   0  0  0  0  0  0  0  0  0  0  0  0
   -4.7676   -0.1481   -0.2833 H   0  0  0  0  0  0  0  0  0  0  0  0
   -3.6665    0.7542   -0.9187 H   0  0  0  0  0  0  0  0  0  0  0  0
   -4.2200    1.1337    0.8612 H   0  0  0  0  0  0  0  0  0  0  0  0
   -1.3853    0.1141    0.0884 C   0  0  0  0  0  0  0  0  0  0  0  0
   -2.6382   -1.2361   -0.5923 H   0  0  0  0  0  0  0  0  0  0  0  0
   -2.8333   -1.5316    1.2617 H   0  0  0  0  0  0  0  0  0  0  0  0
   -0.2110   -0.6548   -0.0774 C   0  0  0  0  0  0  0  0  0  0  0  0
   -1.2330    0.8522    1.0145 H   0  0  0  0  0  0  0  0  0  0  0  0
   -1.6191    0.7350   -0.6914 H   0  0  0  0  0  0  0  0  0  0  0  0
   -0.2031   -1.1659    0.6905 H   0  0  0  0  0  0  0  0  0  0  0  0
    0.7723   -0.0103    0.0239 H   0  0  0  0  0  0  0  0  0  0  0  0
   -0.2081   -1.3819   -1.0318 H   0  0  0  0  0  0  0  0  0  0  0  0
  1  2  1  0  0  0  0
  1  5  1  0  0  0  0
  2  8  1  0  0  0  0
  3  1  1  0  0  0  0
  4  1  1  0  0  0  0
  6  2  1  0  0  0  0
  6 10  1  0  0  0  0
  7  2  1  0  0  0  0
  9 13  1  0  0  0  0
  9  6  1  0  0  0  0
  9 12  1  0  0  0  0
 11  6  1  0  0  0  0
 14  9  1  0  0  0  0
M  END
$$$$
