butane_opt
 OpenBabel08242015383D

 14 13  0  0  0  0  0  0  0  0999 V2000
   -3.9089    0.2474   -0.1044 C   0  0  0  0  0  0  0  0  0  0  0  0
   -2.7147   -0.5932    0.1986 C   0  0  0  0  0  0  0  0  0  0  0  0
   -4.8865   -0.4040   -0.4320 H   0  0  0  0  0  0  0  0  0  0  0  0
   -3.7404    0.6383   -0.8858 H   0  0  0  0  0  0  0  0  0  0  0  0
   -4.1993    0.9783    0.8560 H   0  0  0  0  0  0  0  0  0  0  0  0
   -1.3966    0.2515    0.1298 C   0  0  0  0  0  0  0  0  0  0  0  0
   -2.5447   -1.2294   -0.6295 H   0  0  0  0  0  0  0  0  0  0  0  0
   -2.9176   -1.2713    1.2018 H   0  0  0  0  0  0  0  0  0  0  0  0
   -0.1658   -0.7451   -0.0835 C   0  0  0  0  0  0  0  0  0  0  0  0
   -1.4320    0.7593    0.9130 H   0  0  0  0  0  0  0  0  0  0  0  0
   -1.5236    0.9280   -0.7232 H   0  0  0  0  0  0  0  0  0  0  0  0
   -0.0413   -1.2160    0.6958 H   0  0  0  0  0  0  0  0  0  0  0  0
    0.7221   -0.1569   -0.2459 H   0  0  0  0  0  0  0  0  0  0  0  0
   -0.1958   -1.4433   -1.0003 H   0  0  0  0  0  0  0  0  0  0  0  0
  1  2  1  0  0  0  0
  1  5  1  0  0  0  0
  2  8  1  0  0  0  0
  3  1  1  0  0  0  0
  4  1  1  0  0  0  0
  6  2  1  0  0  0  0
  6 10  1  0  0  0  0
  7  2  1  0  0  0  0
  9  6  1  0  0  0  0
  9 12  1  0  0  0  0
 11  6  1  0  0  0  0
 13  9  1  0  0  0  0
 14  9  1  0  0  0  0
M  END
$$$$
