butane_opt
 OpenBabel08242015383D

 14 13  0  0  0  0  0  0  0  0999 V2000
   -3.9178    0.2197    0.0277 C   0  0  0  0  0  0  0  0  0  0  0  0
   -2.6770   -0.5651    0.0428 C   0  0  0  0  0  0  0  0  0  0  0  0
   -4.9381   -0.4304    0.1042 H   0  0  0  0  0  0  0  0  0  0  0  0
   -3.9966    1.0295   -1.0211 H   0  0  0  0  0  0  0  0  0  0  0  0
   -3.7758    0.7453    0.7357 H   0  0  0  0  0  0  0  0  0  0  0  0
   -1.4111    0.2168    0.0037 C   0  0  0  0  0  0  0  0  0  0  0  0
   -2.6589   -1.1446   -0.7273 H   0  0  0  0  0  0  0  0  0  0  0  0
   -2.7185   -1.3780    1.0871 H   0  0  0  0  0  0  0  0  0  0  0  0
   -0.2010   -0.7266    0.0249 C   0  0  0  0  0  0  0  0  0  0  0  0
   -1.5581    0.9006    0.9222 H   0  0  0  0  0  0  0  0  0  0  0  0
   -1.4240    0.8763   -0.9327 H   0  0  0  0  0  0  0  0  0  0  0  0
   -0.1521   -1.0129    0.6391 H   0  0  0  0  0  0  0  0  0  0  0  0
    0.6401   -0.1325    0.3823 H   0  0  0  0  0  0  0  0  0  0  0  0
    0.0555   -1.6811   -1.0034 H   0  0  0  0  0  0  0  0  0  0  0  0
  1  2  1  0  0  0  0
  1  3  1  0  0  0  0
  1  5  1  0  0  0  0
  2  8  1  0  0  0  0
  4  1  1  0  0  0  0
  6  9  1  0  0  0  0
  6  2  1  0  0  0  0
  6 10  1  0  0  0  0
  7  2  1  0  0  0  0
  9 13  1  0  0  0  0
  9 12  1  0  0  0  0
 11  6  1  0  0  0  0
 14  9  1  0  0  0  0
M  END
$$$$
