butane_opt
 OpenBabel08242015383D

 14 13  0  0  0  0  0  0  0  0999 V2000
   -3.9512    0.2953   -0.0113 C   0  0  0  0  0  0  0  0  0  0  0  0
   -2.6789   -0.6460    0.0185 C   0  0  0  0  0  0  0  0  0  0  0  0
   -4.9055   -0.3156    0.4833 H   0  0  0  0  0  0  0  0  0  0  0  0
   -4.1066    1.2048   -1.1381 H   0  0  0  0  0  0  0  0  0  0  0  0
   -3.8827    0.6597    0.5647 H   0  0  0  0  0  0  0  0  0  0  0  0
   -1.4149    0.1547    0.0833 C   0  0  0  0  0  0  0  0  0  0  0  0
   -2.4967   -1.3368   -0.7729 H   0  0  0  0  0  0  0  0  0  0  0  0
   -2.5890   -1.3341    0.9887 H   0  0  0  0  0  0  0  0  0  0  0  0
   -0.1764   -0.6471   -0.0100 C   0  0  0  0  0  0  0  0  0  0  0  0
   -1.1900    0.9215    1.0769 H   0  0  0  0  0  0  0  0  0  0  0  0
   -1.4963    0.6510   -0.7622 H   0  0  0  0  0  0  0  0  0  0  0  0
   -0.3195   -1.3197    0.8883 H   0  0  0  0  0  0  0  0  0  0  0  0
    0.8018    0.0170    0.0511 H   0  0  0  0  0  0  0  0  0  0  0  0
   -0.1921   -1.4822   -0.9278 H   0  0  0  0  0  0  0  0  0  0  0  0
  1  2  1  0  0  0  0
  1  3  1  0  0  0  0
  1  5  1  0  0  0  0
  2  6  1  0  0  0  0
  2  8  1  0  0  0  0
  4  1  1  0  0  0  0
  6 10  1  0  0  0  0
  7  2  1  0  0  0  0
  9 13  1  0  0  0  0
  9  6  1  0  0  0  0
  9 12  1  0  0  0  0
 11  6  1  0  0  0  0
 14  9  1  0  0  0  0
M  END
$$$$
