butane_opt
 OpenBabel08242015383D

 14 13  0  0  0  0  0  0  0  0999 V2000
   -3.9507    0.2951   -0.0714 C   0  0  0  0  0  0  0  0  0  0  0  0
   -2.7111   -0.6538    0.0913 C   0  0  0  0  0  0  0  0  0  0  0  0
   -4.7906   -0.2132    0.1978 H   0  0  0  0  0  0  0  0  0  0  0  0
   -4.0879    1.1362   -1.1141 H   0  0  0  0  0  0  0  0  0  0  0  0
   -4.0215    0.7827    0.6397 H   0  0  0  0  0  0  0  0  0  0  0  0
   -1.3764    0.1554    0.1692 C   0  0  0  0  0  0  0  0  0  0  0  0
   -2.5369   -1.4016   -0.8251 H   0  0  0  0  0  0  0  0  0  0  0  0
   -2.7253   -1.3528    1.0626 H   0  0  0  0  0  0  0  0  0  0  0  0
   -0.1744   -0.6389   -0.0576 C   0  0  0  0  0  0  0  0  0  0  0  0
   -1.2140    0.8068    0.9774 H   0  0  0  0  0  0  0  0  0  0  0  0
   -1.3906    0.7485   -0.7737 H   0  0  0  0  0  0  0  0  0  0  0  0
   -0.0295   -1.3248    0.7967 H   0  0  0  0  0  0  0  0  0  0  0  0
    0.6581   -0.1518   -0.1928 H   0  0  0  0  0  0  0  0  0  0  0  0
   -0.3329   -1.3728   -0.9113 H   0  0  0  0  0  0  0  0  0  0  0  0
  1  2  1  0  0  0  0
  1  3  1  0  0  0  0
  1  5  1  0  0  0  0
  2  6  1  0  0  0  0
  2  8  1  0  0  0  0
  4  1  1  0  0  0  0
  6 10  1  0  0  0  0
  7  2  1  0  0  0  0
  9  6  1  0  0  0  0
  9 12  1  0  0  0  0
 11  6  1  0  0  0  0
 13  9  1  0  0  0  0
 14  9  1  0  0  0  0
M  END
$$$$
