butane_opt
 OpenBabel08242015383D

 14 13  0  0  0  0  0  0  0  0999 V2000
   -3.9546    0.3098    0.0847 C   0  0  0  0  0  0  0  0  0  0  0  0
   -2.6880   -0.6373   -0.0722 C   0  0  0  0  0  0  0  0  0  0  0  0
   -4.9426   -0.3271    0.0802 H   0  0  0  0  0  0  0  0  0  0  0  0
   -4.1180    0.7740   -0.7471 H   0  0  0  0  0  0  0  0  0  0  0  0
   -3.7026    0.9997    0.9687 H   0  0  0  0  0  0  0  0  0  0  0  0
   -1.3884    0.1348   -0.0172 C   0  0  0  0  0  0  0  0  0  0  0  0
   -2.7240   -1.4803   -0.9944 H   0  0  0  0  0  0  0  0  0  0  0  0
   -2.7206   -1.1246    0.6937 H   0  0  0  0  0  0  0  0  0  0  0  0
   -0.1663   -0.6623    0.1185 C   0  0  0  0  0  0  0  0  0  0  0  0
   -1.2910    0.8088    0.8829 H   0  0  0  0  0  0  0  0  0  0  0  0
   -1.3660    0.9309   -1.0426 H   0  0  0  0  0  0  0  0  0  0  0  0
   -0.1075   -1.6103    1.2035 H   0  0  0  0  0  0  0  0  0  0  0  0
    0.7247   -0.1565   -0.3786 H   0  0  0  0  0  0  0  0  0  0  0  0
   -0.4191   -1.0201   -0.5502 H   0  0  0  0  0  0  0  0  0  0  0  0
  1  5  1  0  0  0  0
  2  6  1  0  0  0  0
  2  1  1  0  0  0  0
  2  8  1  0  0  0  0
  3  1  1  0  0  0  0
  4  1  1  0  0  0  0
  6  9  1  0  0  0  0
  6 10  1  0  0  0  0
  7  2  1  0  0  0  0
  9 12  1  0  0  0  0
 11  6  1  0  0  0  0
 13  9  1  0  0  0  0
 14  9  1  0  0  0  0
M  END
$$$$
