butane_opt
 OpenBabel08242015383D

 14 13  0  0  0  0  0  0  0  0999 V2000
   -3.9504    0.2497   -0.0107 C   0  0  0  0  0  0  0  0  0  0  0  0
   -2.7093   -0.5968    0.0713 C   0  0  0  0  0  0  0  0  0  0  0  0
   -4.8823   -0.3696    0.0375 H   0  0  0  0  0  0  0  0  0  0  0  0
   -3.9247    0.8733   -0.9159 H   0  0  0  0  0  0  0  0  0  0  0  0
   -3.9947    0.9048    0.8355 H   0  0  0  0  0  0  0  0  0  0  0  0
   -1.4065    0.2001    0.0282 C   0  0  0  0  0  0  0  0  0  0  0  0
   -2.7235   -1.2151   -0.7148 H   0  0  0  0  0  0  0  0  0  0  0  0
   -2.7148   -1.2506    0.9584 H   0  0  0  0  0  0  0  0  0  0  0  0
   -0.1460   -0.7063    0.0130 C   0  0  0  0  0  0  0  0  0  0  0  0
   -1.3379    0.8826    0.8815 H   0  0  0  0  0  0  0  0  0  0  0  0
   -1.3920    0.8198   -0.8700 H   0  0  0  0  0  0  0  0  0  0  0  0
   -0.0957   -1.2291    0.8376 H   0  0  0  0  0  0  0  0  0  0  0  0
    0.7391   -0.1507    0.0663 H   0  0  0  0  0  0  0  0  0  0  0  0
   -0.1399   -1.5077   -0.9066 H   0  0  0  0  0  0  0  0  0  0  0  0
  1  3  1  0  0  0  0
  1  2  1  0  0  0  0
  1  5  1  0  0  0  0
  2  8  1  0  0  0  0
  4  1  1  0  0  0  0
  6  2  1  0  0  0  0
  6 10  1  0  0  0  0
  7  2  1  0  0  0  0
  9  6  1  0  0  0  0
  9 13  1  0  0  0  0
  9 12  1  0  0  0  0
 11  6  1  0  0  0  0
 14  9  1  0  0  0  0
M  END
$$$$
