14
butane_opt
C  -3.950655   0.295140  -0.071405
C  -2.711130  -0.653759   0.091251
H  -4.790562  -0.213249   0.197833
H  -4.087895   1.136247  -1.114119
H  -4.021498   0.782731   0.639714
C  -1.376431   0.155408   0.169229
H  -2.536922  -1.401640  -0.825096
H  -2.725311  -1.352849   1.062625
C  -0.174421  -0.638910  -0.057645
H  -1.213972   0.806797   0.977443
H  -1.390620   0.748518  -0.773723
H  -0.029511  -1.324814   0.796725
H   0.658076  -0.151824  -0.192761
H  -0.332852  -1.372758  -0.911263
