14
butane_opt
C  -3.917808   0.219744   0.027652
C  -2.677009  -0.565056   0.042810
H  -4.938119  -0.430400   0.104191
H  -3.996605   1.029481  -1.021088
H  -3.775785   0.745325   0.735743
C  -1.411141   0.216801   0.003710
H  -2.658900  -1.144613  -0.727273
H  -2.718498  -1.378034   1.087074
C  -0.201006  -0.726639   0.024908
H  -1.558145   0.900608   0.922229
H  -1.424008   0.876285  -0.932723
H  -0.152141  -1.012895   0.639122
H   0.640075  -0.132518   0.382295
H   0.055458  -1.681112  -1.003376
