butane_opt
 OpenBabel08242015383D

 14 12  0  0  0  0  0  0  0  0999 V2000
   -3.9897    0.3167    0.0719 C   0  0  0  0  0  0  0  0  0  0  0  0
   -2.6925   -0.6977   -0.0742 C   0  0  0  0  0  0  0  0  0  0  0  0
   -4.7351   -0.2360    0.0143 H   0  0  0  0  0  0  0  0  0  0  0  0
   -4.0111    0.7978   -0.6927 H   0  0  0  0  0  0  0  0  0  0  0  0
   -3.9139    1.1597    1.0978 H   0  0  0  0  0  0  0  0  0  0  0  0
   -1.3823    0.1821   -0.0102 C   0  0  0  0  0  0  0  0  0  0  0  0
   -2.8078   -1.5135   -0.9804 H   0  0  0  0  0  0  0  0  0  0  0  0
   -2.6466   -1.1878    0.7501 H   0  0  0  0  0  0  0  0  0  0  0  0
   -0.1682   -0.6547    0.1218 C   0  0  0  0  0  0  0  0  0  0  0  0
   -1.3437    0.6897    0.7606 H   0  0  0  0  0  0  0  0  0  0  0  0
   -1.3032    0.8036   -0.9431 H   0  0  0  0  0  0  0  0  0  0  0  0
    0.0677   -1.6392    1.2682 H   0  0  0  0  0  0  0  0  0  0  0  0
    0.7613   -0.0649   -0.5358 H   0  0  0  0  0  0  0  0  0  0  0  0
   -0.3460   -0.9848   -0.5664 H   0  0  0  0  0  0  0  0  0  0  0  0
  1  5  1  0  0  0  0
  2  6  1  0  0  0  0
  2  1  1  0  0  0  0
  2  8  1  0  0  0  0
  3  1  1  0  0  0  0
  4  1  1  0  0  0  0
  6  9  1  0  0  0  0
  6 10  1  0  0  0  0
  7  2  1  0  0  0  0
 11  6  1  0  0  0  0
 13  9  1  0  0  0  0
 14  9  1  0  0  0  0
M  RAD  2   9   2  12   2
M  END
$$$$
