14
butane_opt
C  -3.993384   0.287579   0.128047
C  -2.678843  -0.635560  -0.101822
H  -4.960844  -0.285628   0.478162
H  -4.283185   1.109146  -0.904899
H  -3.823281   0.839823   0.873643
C  -1.371985   0.136525  -0.072856
H  -2.711740  -1.434603  -1.094569
H  -2.729949  -1.059955   0.662989
C  -0.147970  -0.659958   0.143462
H  -1.406967   0.738844   0.736209
H  -1.142722   0.796742  -0.962329
H  -0.113492  -1.415520   1.077491
H   0.733180  -0.026991   0.080374
H  -0.267556  -1.277769  -0.659861
