butane_opt
 OpenBabel08242015383D

 14 13  0  0  0  0  0  0  0  0999 V2000
   -3.9219    0.2569   -0.0483 C   0  0  0  0  0  0  0  0  0  0  0  0
   -2.7199   -0.5899    0.0882 C   0  0  0  0  0  0  0  0  0  0  0  0
   -4.8009   -0.3519    0.1685 H   0  0  0  0  0  0  0  0  0  0  0  0
   -3.9773    1.1359   -1.1589 H   0  0  0  0  0  0  0  0  0  0  0  0
   -3.8363    0.5343    0.5776 H   0  0  0  0  0  0  0  0  0  0  0  0
   -1.4021    0.2185    0.0871 C   0  0  0  0  0  0  0  0  0  0  0  0
   -2.7408   -1.2868   -0.7040 H   0  0  0  0  0  0  0  0  0  0  0  0
   -2.6164   -1.3744    1.0579 H   0  0  0  0  0  0  0  0  0  0  0  0
   -0.1797   -0.7204   -0.0253 C   0  0  0  0  0  0  0  0  0  0  0  0
   -1.2735    1.1876    1.1496 H   0  0  0  0  0  0  0  0  0  0  0  0
   -1.4963    0.6278   -0.6533 H   0  0  0  0  0  0  0  0  0  0  0  0
   -0.0726   -1.2999    0.8522 H   0  0  0  0  0  0  0  0  0  0  0  0
    0.7568   -0.1318   -0.0816 H   0  0  0  0  0  0  0  0  0  0  0  0
   -0.2826   -1.4830   -1.0440 H   0  0  0  0  0  0  0  0  0  0  0  0
  1  2  1  0  0  0  0
  1  3  1  0  0  0  0
  1  5  1  0  0  0  0
  2  8  1  0  0  0  0
  4  1  1  0  0  0  0
  6  2  1  0  0  0  0
  6 10  1  0  0  0  0
  7  2  1  0  0  0  0
  9  6  1  0  0  0  0
  9 12  1  0  0  0  0
 11  6  1  0  0  0  0
 13  9  1  0  0  0  0
 14  9  1  0  0  0  0
M  END
$$$$
