14
butane_opt
C  -3.986032   0.263556   0.094021
C  -2.679081  -0.622090  -0.066721
H  -4.895901  -0.313568   0.447338
H  -4.100955   1.070512  -0.865145
H  -3.691653   0.853701   0.890754
C  -1.391236   0.158144  -0.076699
H  -2.763409  -1.299402  -0.985637
H  -2.365722  -1.161143   0.712964
C  -0.182933  -0.687270   0.119374
H  -1.445062   0.904684   0.756185
H  -1.248166   0.768383  -0.920085
H  -0.251652  -1.331513   1.000624
H   0.795331  -0.020459   0.264552
H  -0.180130  -1.294871  -0.712479
