butane_opt
 OpenBabel08242015383D

 14 13  0  0  0  0  0  0  0  0999 V2000
   -3.9581    0.2687   -0.0135 C   0  0  0  0  0  0  0  0  0  0  0  0
   -2.6965   -0.6247    0.0682 C   0  0  0  0  0  0  0  0  0  0  0  0
   -4.8296   -0.2718    0.0087 H   0  0  0  0  0  0  0  0  0  0  0  0
   -3.9494    0.9488   -0.9521 H   0  0  0  0  0  0  0  0  0  0  0  0
   -4.0253    0.8975    0.8210 H   0  0  0  0  0  0  0  0  0  0  0  0
   -1.4053    0.1735    0.0575 C   0  0  0  0  0  0  0  0  0  0  0  0
   -2.7165   -1.2814   -0.7834 H   0  0  0  0  0  0  0  0  0  0  0  0
   -2.7149   -1.2878    0.9690 H   0  0  0  0  0  0  0  0  0  0  0  0
   -0.1512   -0.6854   -0.0000 C   0  0  0  0  0  0  0  0  0  0  0  0
   -1.3591    0.8406    0.8876 H   0  0  0  0  0  0  0  0  0  0  0  0
   -1.3908    0.7935   -0.8133 H   0  0  0  0  0  0  0  0  0  0  0  0
   -0.0514   -1.2723    0.8539 H   0  0  0  0  0  0  0  0  0  0  0  0
    0.7649   -0.0591   -0.0320 H   0  0  0  0  0  0  0  0  0  0  0  0
   -0.2242   -1.3558   -0.8695 H   0  0  0  0  0  0  0  0  0  0  0  0
  1  3  1  0  0  0  0
  1  2  1  0  0  0  0
  1  5  1  0  0  0  0
  2  8  1  0  0  0  0
  4  1  1  0  0  0  0
  6  2  1  0  0  0  0
  6 10  1  0  0  0  0
  7  2  1  0  0  0  0
  9  6  1  0  0  0  0
  9 12  1  0  0  0  0
 11  6  1  0  0  0  0
 13  9  1  0  0  0  0
 14  9  1  0  0  0  0
M  END
$$$$
