butane_opt
 OpenBabel08242015383D

 14 13  0  0  0  0  0  0  0  0999 V2000
   -3.9429    0.2891    0.1371 C   0  0  0  0  0  0  0  0  0  0  0  0
   -2.6863   -0.6593   -0.0617 C   0  0  0  0  0  0  0  0  0  0  0  0
   -4.7080   -0.1154    0.0976 H   0  0  0  0  0  0  0  0  0  0  0  0
   -4.0752    0.8141   -0.7047 H   0  0  0  0  0  0  0  0  0  0  0  0
   -4.0362    0.9426    1.0273 H   0  0  0  0  0  0  0  0  0  0  0  0
   -1.3960    0.1589   -0.1073 C   0  0  0  0  0  0  0  0  0  0  0  0
   -2.6415   -1.4248   -1.0532 H   0  0  0  0  0  0  0  0  0  0  0  0
   -2.5612   -1.2827    0.8132 H   0  0  0  0  0  0  0  0  0  0  0  0
   -0.1758   -0.6576    0.1461 C   0  0  0  0  0  0  0  0  0  0  0  0
   -1.4958    0.7112    0.6193 H   0  0  0  0  0  0  0  0  0  0  0  0
   -1.2692    1.0283   -1.2078 H   0  0  0  0  0  0  0  0  0  0  0  0
   -0.3704   -1.2430    0.9438 H   0  0  0  0  0  0  0  0  0  0  0  0
    0.8182   -0.0291    0.3667 H   0  0  0  0  0  0  0  0  0  0  0  0
   -0.2727   -1.4350   -0.8130 H   0  0  0  0  0  0  0  0  0  0  0  0
  1  5  1  0  0  0  0
  2  1  1  0  0  0  0
  2  8  1  0  0  0  0
  3  1  1  0  0  0  0
  4  1  1  0  0  0  0
  6  2  1  0  0  0  0
  6  9  1  0  0  0  0
  6 10  1  0  0  0  0
  7  2  1  0  0  0  0
  9 13  1  0  0  0  0
  9 12  1  0  0  0  0
 11  6  1  0  0  0  0
 14  9  1  0  0  0  0
M  END
$$$$
