butane_opt
 OpenBabel08242015383D

 14 11  0  0  0  0  0  0  0  0999 V2000
   -3.9953    0.2712    0.0787 C   0  0  0  0  0  0  0  0  0  0  0  0
   -2.6770   -0.6357    0.0048 C   0  0  0  0  0  0  0  0  0  0  0  0
   -4.8069   -0.2211   -0.4215 H   0  0  0  0  0  0  0  0  0  0  0  0
   -4.0014    0.5396   -0.4781 H   0  0  0  0  0  0  0  0  0  0  0  0
   -4.2207    1.4073    1.2217 H   0  0  0  0  0  0  0  0  0  0  0  0
   -1.3913    0.1513   -0.0696 C   0  0  0  0  0  0  0  0  0  0  0  0
   -2.6851   -1.3850   -0.8695 H   0  0  0  0  0  0  0  0  0  0  0  0
   -2.7046   -1.2804    0.8236 H   0  0  0  0  0  0  0  0  0  0  0  0
   -0.1523   -0.6866    0.1049 C   0  0  0  0  0  0  0  0  0  0  0  0
   -1.2995    0.6099    0.6534 H   0  0  0  0  0  0  0  0  0  0  0  0
   -1.2857    1.0781   -1.1547 H   0  0  0  0  0  0  0  0  0  0  0  0
   -0.1138   -1.2955    1.0031 H   0  0  0  0  0  0  0  0  0  0  0  0
    0.7967    0.0047   -0.0862 H   0  0  0  0  0  0  0  0  0  0  0  0
   -0.1132   -1.1274   -0.6231 H   0  0  0  0  0  0  0  0  0  0  0  0
  2  1  1  0  0  0  0
  2  8  1  0  0  0  0
  3  1  1  0  0  0  0
  6  2  1  0  0  0  0
  6  9  1  0  0  0  0
  6 10  1  0  0  0  0
  7  2  1  0  0  0  0
  9 12  1  0  0  0  0
 11  6  1  0  0  0  0
 13  9  1  0  0  0  0
 14  9  1  0  0  0  0
M  RAD  3   1   3   4   2   5   2
M  END
$$$$
