14
butane_opt
C  -3.976103   0.276807  -0.054433
C  -2.698035  -0.633747   0.131911
H  -4.789275  -0.228743  -0.132349
H  -3.804305   1.122669  -1.088986
H  -4.136466   0.858138   0.739335
C  -1.379347   0.173596   0.099447
H  -2.733099  -1.474984  -0.786626
H  -2.846633  -1.257054   1.063988
C  -0.162700  -0.665224  -0.032668
H  -1.240965   0.907478   1.064840
H  -1.386803   0.644475  -0.718956
H   0.078144  -1.356539   0.842561
H   0.679641  -0.074284  -0.353967
H  -0.277493  -1.394208  -0.943430
