14
butane_opt
C  -3.963765   0.268405   0.034523
C  -2.693587  -0.631392   0.012131
H  -4.837554  -0.288630  -0.022446
H  -4.014586   0.862154  -0.845429
H  -3.992992   1.006386   0.950252
C  -1.398490   0.177477   0.002552
H  -2.731047  -1.284485  -0.837737
H  -2.682177  -1.237386   0.904404
C  -0.155550  -0.686339   0.051113
H  -1.379491   0.837585   0.843442
H  -1.378791   0.804217  -0.882156
H  -0.099060  -1.375585   0.982749
H   0.801825  -0.075824  -0.097430
H  -0.175735  -1.248183  -0.750865
