butane_opt
 OpenBabel08242015383D

 14 12  0  0  0  0  0  0  0  0999 V2000
   -3.9847    0.2824    0.1051 C   0  0  0  0  0  0  0  0  0  0  0  0
   -2.6937   -0.6610   -0.0163 C   0  0  0  0  0  0  0  0  0  0  0  0
   -4.8740   -0.2022   -0.4321 H   0  0  0  0  0  0  0  0  0  0  0  0
   -3.8712    0.5358   -0.4901 H   0  0  0  0  0  0  0  0  0  0  0  0
   -4.2231    1.3385    1.2210 H   0  0  0  0  0  0  0  0  0  0  0  0
   -1.3783    0.1543   -0.0943 C   0  0  0  0  0  0  0  0  0  0  0  0
   -2.6754   -1.3840   -0.8737 H   0  0  0  0  0  0  0  0  0  0  0  0
   -2.6367   -1.2310    0.9092 H   0  0  0  0  0  0  0  0  0  0  0  0
   -0.1475   -0.6328    0.1216 C   0  0  0  0  0  0  0  0  0  0  0  0
   -1.5021    0.6491    0.6293 H   0  0  0  0  0  0  0  0  0  0  0  0
   -1.2237    1.0510   -1.1811 H   0  0  0  0  0  0  0  0  0  0  0  0
   -0.0777   -1.4720    1.1111 H   0  0  0  0  0  0  0  0  0  0  0  0
    0.6554   -0.1321   -0.0358 H   0  0  0  0  0  0  0  0  0  0  0  0
   -0.1581   -1.3632   -0.7725 H   0  0  0  0  0  0  0  0  0  0  0  0
  2  1  1  0  0  0  0
  2  8  1  0  0  0  0
  3  1  1  0  0  0  0
  4  1  1  0  0  0  0
  6  2  1  0  0  0  0
  6  9  1  0  0  0  0
  6 10  1  0  0  0  0
  7  2  1  0  0  0  0
  9 12  1  0  0  0  0
 11  6  1  0  0  0  0
 13  9  1  0  0  0  0
 14  9  1  0  0  0  0
M  RAD  2   1   2   5   2
M  END
$$$$
