14
butane_opt
C  -3.895942   0.232852   0.114721
C  -2.712705  -0.546195  -0.101153
H  -4.887052  -0.351190   0.507211
H  -4.100137   0.906494  -0.847422
H  -3.788337   0.695104   0.815920
C  -1.434279   0.196793  -0.055712
H  -2.843354  -1.248763  -1.006889
H  -2.640246  -1.125389   0.722633
C  -0.159096  -0.733893   0.104187
H  -1.481858   0.968867   0.768555
H  -1.226732   0.708550  -0.871397
H  -0.347317  -1.508066   1.146651
H   0.771080  -0.089980   0.075818
H  -0.026254  -1.236654  -0.618026
