14
butane_opt
C  -3.957381   0.278528   0.048814
C  -2.699474  -0.637380   0.001778
H  -4.846299  -0.308466   0.116162
H  -4.010937   0.852670  -0.817665
H  -3.945410   0.971504   0.937789
C  -1.401239   0.188134  -0.024483
H  -2.724784  -1.330355  -0.838780
H  -2.696667  -1.244910   0.865618
C  -0.153529  -0.683556   0.068868
H  -1.351209   0.776429   0.760388
H  -1.345066   0.867977  -0.963548
H  -0.201395  -1.297746   0.944357
H   0.734425  -0.100448   0.127811
H  -0.100887  -1.404184  -0.823417
