butane_opt
 OpenBabel08242015383D

 14 13  0  0  0  0  0  0  0  0999 V2000
   -3.9934    0.2876    0.1280 C   0  0  0  0  0  0  0  0  0  0  0  0
   -2.6788   -0.6356   -0.1018 C   0  0  0  0  0  0  0  0  0  0  0  0
   -4.9608   -0.2856    0.4782 H   0  0  0  0  0  0  0  0  0  0  0  0
   -4.2832    1.1091   -0.9049 H   0  0  0  0  0  0  0  0  0  0  0  0
   -3.8233    0.8398    0.8736 H   0  0  0  0  0  0  0  0  0  0  0  0
   -1.3720    0.1365   -0.0729 C   0  0  0  0  0  0  0  0  0  0  0  0
   -2.7117   -1.4346   -1.0946 H   0  0  0  0  0  0  0  0  0  0  0  0
   -2.7299   -1.0600    0.6630 H   0  0  0  0  0  0  0  0  0  0  0  0
   -0.1480   -0.6600    0.1435 C   0  0  0  0  0  0  0  0  0  0  0  0
   -1.4070    0.7388    0.7362 H   0  0  0  0  0  0  0  0  0  0  0  0
   -1.1427    0.7967   -0.9623 H   0  0  0  0  0  0  0  0  0  0  0  0
   -0.1135   -1.4155    1.0775 H   0  0  0  0  0  0  0  0  0  0  0  0
    0.7332   -0.0270    0.0804 H   0  0  0  0  0  0  0  0  0  0  0  0
   -0.2676   -1.2778   -0.6599 H   0  0  0  0  0  0  0  0  0  0  0  0
  1  3  1  0  0  0  0
  1  5  1  0  0  0  0
  2  6  1  0  0  0  0
  2  1  1  0  0  0  0
  2  8  1  0  0  0  0
  4  1  1  0  0  0  0
  6  9  1  0  0  0  0
  6 10  1  0  0  0  0
  7  2  1  0  0  0  0
  9 12  1  0  0  0  0
 11  6  1  0  0  0  0
 13  9  1  0  0  0  0
 14  9  1  0  0  0  0
M  END
$$$$
