14
butane_opt
C  -3.944239   0.302685  -0.080176
C  -2.663285  -0.674698   0.115099
H  -4.827239  -0.358252   0.408484
H  -4.198609   1.355568  -1.279517
H  -3.745235   0.631195   0.520463
C  -1.371632   0.177038   0.156416
H  -2.592458  -1.357060  -0.750918
H  -2.820252  -1.158754   0.933684
C  -0.233352  -0.680225  -0.056459
H  -1.308407   0.871618   0.990327
H  -1.384864   0.701564  -0.734497
H  -0.072560  -1.105532   0.703328
H   0.754694  -0.026779  -0.017340
H  -0.290713  -1.496564  -1.005305
