butane_opt
 OpenBabel08242015383D

 14 13  0  0  0  0  0  0  0  0999 V2000
   -3.9984    0.3053    0.0380 C   0  0  0  0  0  0  0  0  0  0  0  0
   -2.7139   -0.6664   -0.0330 C   0  0  0  0  0  0  0  0  0  0  0  0
   -4.7883   -0.2215    0.4656 H   0  0  0  0  0  0  0  0  0  0  0  0
   -4.2869    1.1731   -0.9835 H   0  0  0  0  0  0  0  0  0  0  0  0
   -3.6393    0.7316    0.7500 H   0  0  0  0  0  0  0  0  0  0  0  0
   -1.3863    0.1544    0.0086 C   0  0  0  0  0  0  0  0  0  0  0  0
   -2.8277   -1.2888   -0.9032 H   0  0  0  0  0  0  0  0  0  0  0  0
   -2.7194   -1.3122    0.9315 H   0  0  0  0  0  0  0  0  0  0  0  0
   -0.1214   -0.6647    0.0687 C   0  0  0  0  0  0  0  0  0  0  0  0
   -1.5269    0.9388    0.8809 H   0  0  0  0  0  0  0  0  0  0  0  0
   -1.2285    0.6840   -0.8820 H   0  0  0  0  0  0  0  0  0  0  0  0
   -0.2080   -1.2834    0.9237 H   0  0  0  0  0  0  0  0  0  0  0  0
    0.9202    0.0744    0.1003 H   0  0  0  0  0  0  0  0  0  0  0  0
   -0.1278   -1.4701   -0.8894 H   0  0  0  0  0  0  0  0  0  0  0  0
  1  3  1  0  0  0  0
  1  5  1  0  0  0  0
  2  6  1  0  0  0  0
  2  1  1  0  0  0  0
  2  8  1  0  0  0  0
  4  1  1  0  0  0  0
  6  9  1  0  0  0  0
  6 10  1  0  0  0  0
  7  2  1  0  0  0  0
  9 13  1  0  0  0  0
  9 12  1  0  0  0  0
 11  6  1  0  0  0  0
 14  9  1  0  0  0  0
M  END
$$$$
