14
butane_opt
C  -3.906744   0.236352  -0.091190
C  -2.699997  -0.577077   0.217898
H  -4.837693  -0.363773  -0.370269
H  -3.628107   0.711259  -0.924388
H  -4.156774   0.858577   0.723506
C  -1.420950   0.223167   0.073695
H  -2.748724  -1.137311  -0.591016
H  -2.873481  -1.171721   1.133430
C  -0.169130  -0.714930  -0.067852
H  -1.185451   0.881554   0.972041
H  -1.615546   0.823406  -0.710321
H  -0.026091  -1.241549   0.632420
H   0.622192  -0.239133   0.092741
H  -0.197901  -1.638321  -1.102998
