14
butane_opt
C  -3.944274   0.234163  -0.051064
C  -2.743850  -0.581230   0.154139
H  -4.855757  -0.397242  -0.413791
H  -3.773413   0.755270  -0.954016
H  -4.246366   0.931932   0.868119
C  -1.420088   0.237646   0.088616
H  -2.641047  -1.365512  -0.687304
H  -2.819192  -1.270858   1.049183
C  -0.123626  -0.708550  -0.037895
H  -1.330793   0.957913   0.937544
H  -1.470857   0.870273  -0.839934
H   0.282884  -1.444619   0.895530
H   0.729222  -0.175267  -0.279181
H  -0.124739  -1.514518  -0.972044
