butane_opt
 OpenBabel08242015383D

 14 13  0  0  0  0  0  0  0  0999 V2000
   -3.9874    0.3064    0.0884 C   0  0  0  0  0  0  0  0  0  0  0  0
   -2.7278   -0.6679   -0.0099 C   0  0  0  0  0  0  0  0  0  0  0  0
   -4.7237   -0.2276   -0.1432 H   0  0  0  0  0  0  0  0  0  0  0  0
   -4.1234    0.6029   -0.5913 H   0  0  0  0  0  0  0  0  0  0  0  0
   -4.0772    1.3444    1.1355 H   0  0  0  0  0  0  0  0  0  0  0  0
   -1.3452    0.1231   -0.0848 C   0  0  0  0  0  0  0  0  0  0  0  0
   -2.7371   -1.2917   -0.8833 H   0  0  0  0  0  0  0  0  0  0  0  0
   -2.7372   -1.1787    0.7370 H   0  0  0  0  0  0  0  0  0  0  0  0
   -0.1267   -0.6508    0.1165 C   0  0  0  0  0  0  0  0  0  0  0  0
   -1.3418    0.5606    0.6375 H   0  0  0  0  0  0  0  0  0  0  0  0
   -1.4346    1.0133   -1.2063 H   0  0  0  0  0  0  0  0  0  0  0  0
   -0.2002   -1.2807    1.0365 H   0  0  0  0  0  0  0  0  0  0  0  0
    0.7916   -0.0654    0.2026 H   0  0  0  0  0  0  0  0  0  0  0  0
   -0.2139   -1.2724   -0.7356 H   0  0  0  0  0  0  0  0  0  0  0  0
  1  5  1  0  0  0  0
  2  1  1  0  0  0  0
  2  8  1  0  0  0  0
  3  1  1  0  0  0  0
  4  1  1  0  0  0  0
  6  2  1  0  0  0  0
  6  9  1  0  0  0  0
  6 10  1  0  0  0  0
  7  2  1  0  0  0  0
  9 13  1  0  0  0  0
  9 12  1  0  0  0  0
 11  6  1  0  0  0  0
 14  9  1  0  0  0  0
M  END
$$$$
