butane_opt
 OpenBabel08242015383D

 14 13  0  0  0  0  0  0  0  0999 V2000
   -3.8935    0.2431    0.0611 C   0  0  0  0  0  0  0  0  0  0  0  0
   -2.7403   -0.5588   -0.0438 C   0  0  0  0  0  0  0  0  0  0  0  0
   -4.8592   -0.3657   -0.0471 H   0  0  0  0  0  0  0  0  0  0  0  0
   -3.8877    0.6030   -0.6415 H   0  0  0  0  0  0  0  0  0  0  0  0
   -3.8822    1.0257    1.0791 H   0  0  0  0  0  0  0  0  0  0  0  0
   -1.4148    0.1833    0.0053 C   0  0  0  0  0  0  0  0  0  0  0  0
   -2.8304   -1.2989   -0.9857 H   0  0  0  0  0  0  0  0  0  0  0  0
   -2.7448   -1.0550    0.7778 H   0  0  0  0  0  0  0  0  0  0  0  0
   -0.1639   -0.7188    0.0811 C   0  0  0  0  0  0  0  0  0  0  0  0
   -1.5621    0.6766    0.7473 H   0  0  0  0  0  0  0  0  0  0  0  0
   -1.4427    1.0272   -0.9951 H   0  0  0  0  0  0  0  0  0  0  0  0
    0.1350   -1.6970    1.1487 H   0  0  0  0  0  0  0  0  0  0  0  0
    0.8091   -0.0777   -0.2697 H   0  0  0  0  0  0  0  0  0  0  0  0
   -0.2287   -1.0861   -0.5602 H   0  0  0  0  0  0  0  0  0  0  0  0
  1  5  1  0  0  0  0
  2  6  1  0  0  0  0
  2  1  1  0  0  0  0
  2  8  1  0  0  0  0
  3  1  1  0  0  0  0
  4  1  1  0  0  0  0
  6  9  1  0  0  0  0
  6 10  1  0  0  0  0
  7  2  1  0  0  0  0
  9 12  1  0  0  0  0
 11  6  1  0  0  0  0
 13  9  1  0  0  0  0
 14  9  1  0  0  0  0
M  END
$$$$
