14
butane_opt
C  -3.924772   0.281714   0.077908
C  -2.664136  -0.631392   0.001649
H  -4.885267  -0.243978   0.156168
H  -3.972101   0.857668  -0.776863
H  -4.107054   1.000759   0.956163
C  -1.403952   0.143604  -0.073268
H  -2.858893  -1.429580  -0.837228
H  -2.613014  -1.145790   0.806854
C  -0.184908  -0.677800   0.075697
H  -1.400040   0.702044   0.714578
H  -1.408491   1.005995  -1.119556
H  -0.506449  -1.165603   0.949347
H   0.870188   0.075044   0.446919
H  -0.018549  -1.523130  -0.843164
