14
butane_opt
C  -3.995330   0.271155   0.078736
C  -2.676974  -0.635744   0.004819
H  -4.806893  -0.221133  -0.421516
H  -4.001350   0.539583  -0.478132
H  -4.220661   1.407337   1.221720
C  -1.391268   0.151283  -0.069551
H  -2.685064  -1.385010  -0.869457
H  -2.704608  -1.280357   0.823626
C  -0.152327  -0.686647   0.104873
H  -1.299503   0.609918   0.653406
H  -1.285699   1.078099  -1.154676
H  -0.113830  -1.295461   1.003063
H   0.796663   0.004740  -0.086215
H  -0.113232  -1.127403  -0.623087
