14
butane_opt
C  -3.913881   0.292210  -0.097575
C  -2.693241  -0.622191   0.180929
H  -4.767616  -0.148140  -0.283272
H  -3.666530   0.754161  -0.918663
H  -4.220024   1.133695   0.861237
C  -1.385253   0.114074   0.088375
H  -2.638170  -1.236138  -0.592340
H  -2.833320  -1.531606   1.261679
C  -0.211037  -0.654762  -0.077398
H  -1.232959   0.852234   1.014458
H  -1.619147   0.735012  -0.691414
H  -0.203120  -1.165917   0.690530
H   0.772305  -0.010275   0.023890
H  -0.208137  -1.381865  -1.031811
