14
butane_opt
C  -3.960159   0.283518   0.077713
C  -2.683381  -0.637086   0.030949
H  -4.830663  -0.224782  -0.410337
H  -3.679047   0.545580  -0.656710
H  -4.125075   1.234947   1.117770
C  -1.387435   0.168763  -0.084452
H  -2.845634  -1.362409  -0.816838
H  -2.562452  -1.083235   0.828812
C  -0.180650  -0.704523   0.102513
H  -1.290142   0.723679   0.753338
H  -1.400630   0.870632  -1.082625
H  -0.289354  -1.262980   1.036807
H   0.754291   0.000202  -0.173697
H  -0.225463  -1.241906  -0.656436
