butane_opt
 OpenBabel08242015383D

 14 13  0  0  0  0  0  0  0  0999 V2000
   -3.9718    0.2542    0.1001 C   0  0  0  0  0  0  0  0  0  0  0  0
   -2.7039   -0.6134    0.0127 C   0  0  0  0  0  0  0  0  0  0  0  0
   -4.8244   -0.3485   -0.4226 H   0  0  0  0  0  0  0  0  0  0  0  0
   -3.6821    0.4152   -0.5326 H   0  0  0  0  0  0  0  0  0  0  0  0
   -4.1224    1.1403    1.2092 H   0  0  0  0  0  0  0  0  0  0  0  0
   -1.3967    0.2387   -0.0881 C   0  0  0  0  0  0  0  0  0  0  0  0
   -2.6694   -1.3907   -0.9044 H   0  0  0  0  0  0  0  0  0  0  0  0
   -2.7413   -1.1100    0.8245 H   0  0  0  0  0  0  0  0  0  0  0  0
   -0.1480   -0.7145    0.0789 C   0  0  0  0  0  0  0  0  0  0  0  0
   -1.4685    0.7744    0.6387 H   0  0  0  0  0  0  0  0  0  0  0  0
   -1.5193    0.9992   -1.1519 H   0  0  0  0  0  0  0  0  0  0  0  0
   -0.0995   -1.5573    1.1433 H   0  0  0  0  0  0  0  0  0  0  0  0
    0.7170   -0.1708    0.1055 H   0  0  0  0  0  0  0  0  0  0  0  0
    0.0134   -1.2042   -0.6287 H   0  0  0  0  0  0  0  0  0  0  0  0
  1  5  1  0  0  0  0
  2  1  1  0  0  0  0
  2  8  1  0  0  0  0
  3  1  1  0  0  0  0
  4  1  1  0  0  0  0
  6  2  1  0  0  0  0
  6  9  1  0  0  0  0
  6 10  1  0  0  0  0
  7  2  1  0  0  0  0
  9 13  1  0  0  0  0
  9 12  1  0  0  0  0
 11  6  1  0  0  0  0
 14  9  1  0  0  0  0
M  END
$$$$
