butane_opt
 OpenBabel08242015383D

 14 13  0  0  0  0  0  0  0  0999 V2000
   -3.9657    0.2533   -0.0533 C   0  0  0  0  0  0  0  0  0  0  0  0
   -2.7321   -0.6001    0.0765 C   0  0  0  0  0  0  0  0  0  0  0  0
   -4.9826   -0.4694    0.3213 H   0  0  0  0  0  0  0  0  0  0  0  0
   -3.9211    1.0587   -1.0441 H   0  0  0  0  0  0  0  0  0  0  0  0
   -3.9916    0.6046    0.5063 H   0  0  0  0  0  0  0  0  0  0  0  0
   -1.4177    0.2200    0.1360 C   0  0  0  0  0  0  0  0  0  0  0  0
   -2.6835   -1.2336   -0.7503 H   0  0  0  0  0  0  0  0  0  0  0  0
   -2.6048   -1.1548    0.9286 H   0  0  0  0  0  0  0  0  0  0  0  0
   -0.1126   -0.7203   -0.0449 C   0  0  0  0  0  0  0  0  0  0  0  0
   -1.2676    0.9730    1.0448 H   0  0  0  0  0  0  0  0  0  0  0  0
   -1.4805    0.7649   -0.7648 H   0  0  0  0  0  0  0  0  0  0  0  0
    0.0263   -1.3443    0.8124 H   0  0  0  0  0  0  0  0  0  0  0  0
    0.7368   -0.1920   -0.0905 H   0  0  0  0  0  0  0  0  0  0  0  0
   -0.1038   -1.3380   -0.9049 H   0  0  0  0  0  0  0  0  0  0  0  0
  1  2  1  0  0  0  0
  1  3  1  0  0  0  0
  1  5  1  0  0  0  0
  2  6  1  0  0  0  0
  2  8  1  0  0  0  0
  4  1  1  0  0  0  0
  6 10  1  0  0  0  0
  7  2  1  0  0  0  0
  9  6  1  0  0  0  0
  9 12  1  0  0  0  0
 11  6  1  0  0  0  0
 13  9  1  0  0  0  0
 14  9  1  0  0  0  0
M  END
$$$$
