butane_opt
 OpenBabel08242015383D

 14 13  0  0  0  0  0  0  0  0999 V2000
   -3.9423    0.2574   -0.1010 C   0  0  0  0  0  0  0  0  0  0  0  0
   -2.6960   -0.6151    0.1403 C   0  0  0  0  0  0  0  0  0  0  0  0
   -4.9713   -0.4960   -0.0905 H   0  0  0  0  0  0  0  0  0  0  0  0
   -3.8606    0.8445   -0.9635 H   0  0  0  0  0  0  0  0  0  0  0  0
   -4.0860    0.9063    0.7395 H   0  0  0  0  0  0  0  0  0  0  0  0
   -1.4222    0.2334    0.1400 C   0  0  0  0  0  0  0  0  0  0  0  0
   -2.6883   -1.3611   -0.6972 H   0  0  0  0  0  0  0  0  0  0  0  0
   -2.8112   -1.2545    1.1123 H   0  0  0  0  0  0  0  0  0  0  0  0
   -0.1364   -0.7149   -0.0742 C   0  0  0  0  0  0  0  0  0  0  0  0
   -1.3360    1.1063    1.1665 H   0  0  0  0  0  0  0  0  0  0  0  0
   -1.4835    0.7286   -0.6993 H   0  0  0  0  0  0  0  0  0  0  0  0
    0.1339   -1.4842    0.9118 H   0  0  0  0  0  0  0  0  0  0  0  0
    0.6440   -0.2784   -0.4574 H   0  0  0  0  0  0  0  0  0  0  0  0
   -0.1818   -1.1310   -0.8316 H   0  0  0  0  0  0  0  0  0  0  0  0
  1  3  1  0  0  0  0
  1  2  1  0  0  0  0
  1  5  1  0  0  0  0
  2  8  1  0  0  0  0
  4  1  1  0  0  0  0
  6  2  1  0  0  0  0
  6 10  1  0  0  0  0
  7  2  1  0  0  0  0
  9  6  1  0  0  0  0
  9 12  1  0  0  0  0
 11  6  1  0  0  0  0
 13  9  1  0  0  0  0
 14  9  1  0  0  0  0
M  END
$$$$
