14
butane_opt
C  -3.988418   0.245050  -0.034391
C  -2.707199  -0.601464   0.074550
H  -4.934549  -0.401921   0.404273
H  -3.924740   1.326980  -1.282926
H  -3.808242   0.490509   0.538624
C  -1.416960   0.227559   0.102815
H  -2.732355  -1.190410  -0.758871
H  -2.877293  -1.306927   0.993629
C  -0.092599  -0.709172  -0.045664
H  -1.425316   1.022101   1.114866
H  -1.537545   0.589490  -0.617829
H  -0.127626  -1.208290   0.725054
H   0.799146  -0.149623   0.045557
H  -0.006743  -1.559215  -0.951542
