butane_opt
 OpenBabel08242015383D

 14 13  0  0  0  0  0  0  0  0999 V2000
   -3.9800    0.3173    0.0637 C   0  0  0  0  0  0  0  0  0  0  0  0
   -2.7075   -0.6576    0.0160 C   0  0  0  0  0  0  0  0  0  0  0  0
   -4.8026   -0.2710    0.1428 H   0  0  0  0  0  0  0  0  0  0  0  0
   -3.9811    0.8618   -0.7587 H   0  0  0  0  0  0  0  0  0  0  0  0
   -4.0106    0.9667    0.9000 H   0  0  0  0  0  0  0  0  0  0  0  0
   -1.3863    0.1150   -0.0634 C   0  0  0  0  0  0  0  0  0  0  0  0
   -2.6587   -1.2621   -0.8059 H   0  0  0  0  0  0  0  0  0  0  0  0
   -2.6118   -1.1937    0.8503 H   0  0  0  0  0  0  0  0  0  0  0  0
   -0.1826   -0.6583    0.0786 C   0  0  0  0  0  0  0  0  0  0  0  0
   -1.1864    0.6141    0.7190 H   0  0  0  0  0  0  0  0  0  0  0  0
   -1.2838    0.9120   -1.0553 H   0  0  0  0  0  0  0  0  0  0  0  0
   -0.3837   -1.0218    0.7511 H   0  0  0  0  0  0  0  0  0  0  0  0
    0.7757    0.0218    0.4554 H   0  0  0  0  0  0  0  0  0  0  0  0
    0.1629   -1.4945   -0.9026 H   0  0  0  0  0  0  0  0  0  0  0  0
  1  3  1  0  0  0  0
  1  5  1  0  0  0  0
  2  1  1  0  0  0  0
  2  8  1  0  0  0  0
  4  1  1  0  0  0  0
  6  2  1  0  0  0  0
  6  9  1  0  0  0  0
  6 10  1  0  0  0  0
  7  2  1  0  0  0  0
  9 13  1  0  0  0  0
  9 12  1  0  0  0  0
 11  6  1  0  0  0  0
 14  9  1  0  0  0  0
M  END
$$$$
