butane_opt
 OpenBabel08242015383D

 14 13  0  0  0  0  0  0  0  0999 V2000
   -4.0137    0.2874   -0.0668 C   0  0  0  0  0  0  0  0  0  0  0  0
   -2.6954   -0.6496    0.1138 C   0  0  0  0  0  0  0  0  0  0  0  0
   -5.0087   -0.3335    0.4092 H   0  0  0  0  0  0  0  0  0  0  0  0
   -4.1304    1.0813   -1.1298 H   0  0  0  0  0  0  0  0  0  0  0  0
   -3.8809    0.8100    0.6986 H   0  0  0  0  0  0  0  0  0  0  0  0
   -1.3554    0.1805    0.0546 C   0  0  0  0  0  0  0  0  0  0  0  0
   -2.5567   -1.2137   -0.6722 H   0  0  0  0  0  0  0  0  0  0  0  0
   -2.7760   -1.3669    1.1184 H   0  0  0  0  0  0  0  0  0  0  0  0
   -0.1213   -0.6680   -0.0289 C   0  0  0  0  0  0  0  0  0  0  0  0
   -1.4627    0.8699    0.9462 H   0  0  0  0  0  0  0  0  0  0  0  0
   -1.3790    0.6985   -0.7025 H   0  0  0  0  0  0  0  0  0  0  0  0
   -0.2887   -0.9747    0.6516 H   0  0  0  0  0  0  0  0  0  0  0  0
    0.7694   -0.1311    0.3180 H   0  0  0  0  0  0  0  0  0  0  0  0
   -0.0676   -1.7224   -1.1220 H   0  0  0  0  0  0  0  0  0  0  0  0
  1  2  1  0  0  0  0
  1  3  1  0  0  0  0
  1  5  1  0  0  0  0
  2  8  1  0  0  0  0
  4  1  1  0  0  0  0
  6  2  1  0  0  0  0
  6 10  1  0  0  0  0
  7  2  1  0  0  0  0
  9  6  1  0  0  0  0
  9 13  1  0  0  0  0
  9 12  1  0  0  0  0
 11  6  1  0  0  0  0
 14  9  1  0  0  0  0
M  END
$$$$
