14
butane_opt
C  -3.976958   0.267407   0.130588
C  -2.674082  -0.624485  -0.034432
H  -4.815329  -0.273534   0.175784
H  -4.019471   0.947387  -0.819585
H  -3.899665   1.084257   1.034175
C  -1.412222   0.139684  -0.148540
H  -2.797895  -1.401405  -0.922691
H  -2.598399  -1.130280   0.795329
C  -0.156685  -0.674102   0.128100
H  -1.451497   0.710251   0.587027
H  -1.201530   0.822735  -1.040760
H  -0.410231  -1.107210   0.960336
H   0.776845   0.029133   0.544109
H   0.028078  -1.453066  -0.792743
