butane_opt
 OpenBabel08242015383D

 14 13  0  0  0  0  0  0  0  0999 V2000
   -3.9186    0.2425    0.0935 C   0  0  0  0  0  0  0  0  0  0  0  0
   -2.7204   -0.5625   -0.0392 C   0  0  0  0  0  0  0  0  0  0  0  0
   -4.8780   -0.4361    0.4155 H   0  0  0  0  0  0  0  0  0  0  0  0
   -3.9821    0.9492   -0.9628 H   0  0  0  0  0  0  0  0  0  0  0  0
   -3.7749    0.7750    0.9040 H   0  0  0  0  0  0  0  0  0  0  0  0
   -1.4255    0.2252   -0.0597 C   0  0  0  0  0  0  0  0  0  0  0  0
   -2.7483   -1.4619   -1.0300 H   0  0  0  0  0  0  0  0  0  0  0  0
   -2.7670   -0.9778    0.7077 H   0  0  0  0  0  0  0  0  0  0  0  0
   -0.1691   -0.7271    0.1036 C   0  0  0  0  0  0  0  0  0  0  0  0
   -1.3134    0.7313    0.7320 H   0  0  0  0  0  0  0  0  0  0  0  0
   -1.3869    0.7509   -0.9684 H   0  0  0  0  0  0  0  0  0  0  0  0
   -0.1816   -1.3980    1.0577 H   0  0  0  0  0  0  0  0  0  0  0  0
    0.7675   -0.1289    0.1406 H   0  0  0  0  0  0  0  0  0  0  0  0
    0.0439   -1.3864   -0.7169 H   0  0  0  0  0  0  0  0  0  0  0  0
  1  3  1  0  0  0  0
  1  5  1  0  0  0  0
  2  1  1  0  0  0  0
  2  8  1  0  0  0  0
  4  1  1  0  0  0  0
  6  2  1  0  0  0  0
  6  9  1  0  0  0  0
  6 10  1  0  0  0  0
  7  2  1  0  0  0  0
  9 13  1  0  0  0  0
  9 12  1  0  0  0  0
 11  6  1  0  0  0  0
 14  9  1  0  0  0  0
M  END
$$$$
