butane_opt
 OpenBabel08242015383D

 14 13  0  0  0  0  0  0  0  0999 V2000
   -3.9858    0.2539   -0.0454 C   0  0  0  0  0  0  0  0  0  0  0  0
   -2.7204   -0.5858    0.1565 C   0  0  0  0  0  0  0  0  0  0  0  0
   -4.9553   -0.3455   -0.4178 H   0  0  0  0  0  0  0  0  0  0  0  0
   -3.7234    0.5361   -0.8067 H   0  0  0  0  0  0  0  0  0  0  0  0
   -4.2153    1.1455    0.9460 H   0  0  0  0  0  0  0  0  0  0  0  0
   -1.3848    0.2118    0.0163 C   0  0  0  0  0  0  0  0  0  0  0  0
   -2.4881   -1.2918   -0.6274 H   0  0  0  0  0  0  0  0  0  0  0  0
   -2.7952   -1.3750    1.2061 H   0  0  0  0  0  0  0  0  0  0  0  0
   -0.1417   -0.7142   -0.0367 C   0  0  0  0  0  0  0  0  0  0  0  0
   -1.2300    0.9896    0.9792 H   0  0  0  0  0  0  0  0  0  0  0  0
   -1.4927    0.7065   -0.8291 H   0  0  0  0  0  0  0  0  0  0  0  0
   -0.0170   -1.3643    0.8085 H   0  0  0  0  0  0  0  0  0  0  0  0
    0.7781   -0.1307    0.0246 H   0  0  0  0  0  0  0  0  0  0  0  0
   -0.0852   -1.3330   -0.8752 H   0  0  0  0  0  0  0  0  0  0  0  0
  1  2  1  0  0  0  0
  1  5  1  0  0  0  0
  2  8  1  0  0  0  0
  3  1  1  0  0  0  0
  4  1  1  0  0  0  0
  6  2  1  0  0  0  0
  6 10  1  0  0  0  0
  7  2  1  0  0  0  0
  9  6  1  0  0  0  0
  9 13  1  0  0  0  0
  9 12  1  0  0  0  0
 11  6  1  0  0  0  0
 14  9  1  0  0  0  0
M  END
$$$$
