butane_opt
 OpenBabel08242015383D

 14 13  0  0  0  0  0  0  0  0999 V2000
   -3.8878    0.2497   -0.0694 C   0  0  0  0  0  0  0  0  0  0  0  0
   -2.7064   -0.5961    0.1160 C   0  0  0  0  0  0  0  0  0  0  0  0
   -4.9164   -0.4836   -0.0313 H   0  0  0  0  0  0  0  0  0  0  0  0
   -3.7749    0.9149   -1.1048 H   0  0  0  0  0  0  0  0  0  0  0  0
   -3.8686    0.7268    0.7285 H   0  0  0  0  0  0  0  0  0  0  0  0
   -1.4345    0.2295    0.1252 C   0  0  0  0  0  0  0  0  0  0  0  0
   -2.6890   -1.1080   -0.6437 H   0  0  0  0  0  0  0  0  0  0  0  0
   -2.8522   -1.1602    1.0216 H   0  0  0  0  0  0  0  0  0  0  0  0
   -0.1666   -0.7203   -0.0966 C   0  0  0  0  0  0  0  0  0  0  0  0
   -1.3547    1.0621    1.1914 H   0  0  0  0  0  0  0  0  0  0  0  0
   -1.4694    0.6912   -0.5907 H   0  0  0  0  0  0  0  0  0  0  0  0
   -0.0608   -1.5661    0.9851 H   0  0  0  0  0  0  0  0  0  0  0  0
    0.5859   -0.2696   -0.1798 H   0  0  0  0  0  0  0  0  0  0  0  0
   -0.2576   -1.2636   -0.8389 H   0  0  0  0  0  0  0  0  0  0  0  0
  1  3  1  0  0  0  0
  1  2  1  0  0  0  0
  1  5  1  0  0  0  0
  2  6  1  0  0  0  0
  2  8  1  0  0  0  0
  4  1  1  0  0  0  0
  6 10  1  0  0  0  0
  7  2  1  0  0  0  0
  9  6  1  0  0  0  0
  9 12  1  0  0  0  0
 11  6  1  0  0  0  0
 13  9  1  0  0  0  0
 14  9  1  0  0  0  0
M  END
$$$$
