butane_opt
 OpenBabel08242015383D

 14 13  0  0  0  0  0  0  0  0999 V2000
   -3.9243    0.2861    0.1249 C   0  0  0  0  0  0  0  0  0  0  0  0
   -2.7127   -0.6092   -0.0978 C   0  0  0  0  0  0  0  0  0  0  0  0
   -4.8701   -0.3552    0.4279 H   0  0  0  0  0  0  0  0  0  0  0  0
   -4.2450    1.1246   -0.9105 H   0  0  0  0  0  0  0  0  0  0  0  0
   -3.6567    0.8184    0.9278 H   0  0  0  0  0  0  0  0  0  0  0  0
   -1.4014    0.1195   -0.0616 C   0  0  0  0  0  0  0  0  0  0  0  0
   -2.7994   -1.5118   -1.0325 H   0  0  0  0  0  0  0  0  0  0  0  0
   -2.4560   -1.0852    0.6197 H   0  0  0  0  0  0  0  0  0  0  0  0
   -0.1724   -0.6636    0.1305 C   0  0  0  0  0  0  0  0  0  0  0  0
   -1.4028    0.7421    0.7387 H   0  0  0  0  0  0  0  0  0  0  0  0
   -1.2670    0.8961   -1.1111 H   0  0  0  0  0  0  0  0  0  0  0  0
   -0.3813   -1.3999    1.1059 H   0  0  0  0  0  0  0  0  0  0  0  0
    0.7029   -0.0182    0.2321 H   0  0  0  0  0  0  0  0  0  0  0  0
   -0.1201   -1.2709   -0.7302 H   0  0  0  0  0  0  0  0  0  0  0  0
  1  3  1  0  0  0  0
  1  5  1  0  0  0  0
  2  6  1  0  0  0  0
  2  1  1  0  0  0  0
  2  8  1  0  0  0  0
  4  1  1  0  0  0  0
  6  9  1  0  0  0  0
  6 10  1  0  0  0  0
  7  2  1  0  0  0  0
  9 13  1  0  0  0  0
  9 12  1  0  0  0  0
 11  6  1  0  0  0  0
 14  9  1  0  0  0  0
M  END
$$$$
