butane_opt
 OpenBabel08242015383D

 14 13  0  0  0  0  0  0  0  0999 V2000
   -3.9486    0.2902    0.1188 C   0  0  0  0  0  0  0  0  0  0  0  0
   -2.7022   -0.6520   -0.0482 C   0  0  0  0  0  0  0  0  0  0  0  0
   -4.9179   -0.3562    0.2356 H   0  0  0  0  0  0  0  0  0  0  0  0
   -4.0379    0.9375   -0.7674 H   0  0  0  0  0  0  0  0  0  0  0  0
   -4.0830    1.0207    1.0655 H   0  0  0  0  0  0  0  0  0  0  0  0
   -1.3979    0.1601   -0.1219 C   0  0  0  0  0  0  0  0  0  0  0  0
   -2.8317   -1.3745   -0.8988 H   0  0  0  0  0  0  0  0  0  0  0  0
   -2.7324   -1.1030    0.7881 H   0  0  0  0  0  0  0  0  0  0  0  0
   -0.1321   -0.6788    0.1280 C   0  0  0  0  0  0  0  0  0  0  0  0
   -1.5171    0.6989    0.5819 H   0  0  0  0  0  0  0  0  0  0  0  0
   -1.2763    0.9186   -1.0607 H   0  0  0  0  0  0  0  0  0  0  0  0
   -0.3741   -1.1033    0.9429 H   0  0  0  0  0  0  0  0  0  0  0  0
    0.8780   -0.0975    0.4183 H   0  0  0  0  0  0  0  0  0  0  0  0
    0.0471   -1.4536   -0.7903 H   0  0  0  0  0  0  0  0  0  0  0  0
  1  3  1  0  0  0  0
  1  5  1  0  0  0  0
  2  1  1  0  0  0  0
  2  8  1  0  0  0  0
  4  1  1  0  0  0  0
  6  2  1  0  0  0  0
  6  9  1  0  0  0  0
  6 10  1  0  0  0  0
  7  2  1  0  0  0  0
  9 13  1  0  0  0  0
  9 12  1  0  0  0  0
 11  6  1  0  0  0  0
 14  9  1  0  0  0  0
M  END
$$$$
