14
butane_opt
C  -3.938704   0.271818  -0.001869
C  -2.666414  -0.653434   0.059672
H  -4.810899  -0.162755   0.318701
H  -4.076099   1.353156  -1.258741
H  -4.031332   0.689105   0.642520
C  -1.381648   0.142258   0.073519
H  -2.699634  -1.310744  -0.790564
H  -2.714260  -1.307697   0.968318
C  -0.188306  -0.658042   0.008322
H  -1.395205   0.871679   0.983214
H  -1.427541   0.804233  -0.911225
H  -0.295615  -0.937148   0.717142
H   0.753210  -0.033724   0.116163
H  -0.226441  -1.657788  -1.094198
