14
butane_opt
C  -3.925481   0.259535   0.066297
C  -2.734573  -0.603091  -0.051346
H  -4.858952  -0.337416   0.076564
H  -4.033265   0.709280  -0.700912
H  -4.005112   1.090326   1.011105
C  -1.396560   0.207764  -0.009949
H  -2.925539  -1.411424  -1.085888
H  -2.708238  -1.209987   0.810719
C  -0.135629  -0.701642   0.065669
H  -1.374537   0.871547   0.833129
H  -1.473856   0.775514  -0.847969
H  -0.019134  -1.784130   1.271756
H   0.759378  -0.158070  -0.323781
H  -0.075237  -0.948693  -0.386338
