14
butane_opt
C  -3.957406   0.273129  -0.078166
C  -2.693392  -0.660419   0.111630
H  -4.797565  -0.227874  -0.161714
H  -3.997724   1.008237  -1.008177
H  -4.065571   0.973536   0.757953
C  -1.387644   0.188918   0.140931
H  -2.648158  -1.194959  -0.636450
H  -2.930341  -1.338912   1.070087
C  -0.141929  -0.686646  -0.047530
H  -1.340459   1.095587   1.138413
H  -1.350843   0.635078  -0.737604
H   0.083772  -1.515023   0.912555
H   0.783721  -0.030302  -0.492430
H  -0.596215  -1.248972  -0.916400
