14
butane_opt
C  -3.896448   0.243061   0.093633
C  -2.686676  -0.574751  -0.038716
H  -4.869738  -0.429400   0.208547
H  -4.051606   0.815881  -0.690510
H  -3.796554   0.923715   0.988430
C  -1.451773   0.186306  -0.098561
H  -2.913411  -1.301732  -0.944934
H  -2.643293  -1.152436   0.791309
C  -0.142612  -0.695512   0.128823
H  -1.575342   0.685610   0.538844
H  -1.426648   0.913291  -1.041827
H  -0.186656  -1.147647   0.920888
H   0.721752  -0.193477   0.392824
H  -0.134186  -1.507853  -0.748615
