butane_opt
 OpenBabel08242015383D

 14 13  0  0  0  0  0  0  0  0999 V2000
   -3.9397    0.2222   -0.0704 C   0  0  0  0  0  0  0  0  0  0  0  0
   -2.7188   -0.5946    0.1730 C   0  0  0  0  0  0  0  0  0  0  0  0
   -4.7508   -0.2606   -0.5247 H   0  0  0  0  0  0  0  0  0  0  0  0
   -3.7977    0.7228   -0.8500 H   0  0  0  0  0  0  0  0  0  0  0  0
   -4.1351    1.1589    0.9064 H   0  0  0  0  0  0  0  0  0  0  0  0
   -1.4108    0.2333    0.0709 C   0  0  0  0  0  0  0  0  0  0  0  0
   -2.8496   -1.1452   -0.6327 H   0  0  0  0  0  0  0  0  0  0  0  0
   -2.7650   -1.4380    1.1956 H   0  0  0  0  0  0  0  0  0  0  0  0
   -0.1517   -0.7251   -0.0503 C   0  0  0  0  0  0  0  0  0  0  0  0
   -1.3478    0.9509    0.8930 H   0  0  0  0  0  0  0  0  0  0  0  0
   -1.3642    0.8738   -0.7745 H   0  0  0  0  0  0  0  0  0  0  0  0
    0.0574   -1.2828    0.8239 H   0  0  0  0  0  0  0  0  0  0  0  0
    0.7977   -0.1093   -0.0891 H   0  0  0  0  0  0  0  0  0  0  0  0
   -0.2123   -1.5807   -1.0054 H   0  0  0  0  0  0  0  0  0  0  0  0
  1  2  1  0  0  0  0
  1  5  1  0  0  0  0
  2  8  1  0  0  0  0
  3  1  1  0  0  0  0
  4  1  1  0  0  0  0
  6  2  1  0  0  0  0
  6 10  1  0  0  0  0
  7  2  1  0  0  0  0
  9  6  1  0  0  0  0
  9 12  1  0  0  0  0
 11  6  1  0  0  0  0
 13  9  1  0  0  0  0
 14  9  1  0  0  0  0
M  END
$$$$
