butane_opt
 OpenBabel08242015383D

 14 13  0  0  0  0  0  0  0  0999 V2000
   -3.9896    0.2792   -0.0818 C   0  0  0  0  0  0  0  0  0  0  0  0
   -2.7251   -0.6123    0.1367 C   0  0  0  0  0  0  0  0  0  0  0  0
   -4.9059   -0.3121    0.0455 H   0  0  0  0  0  0  0  0  0  0  0  0
   -3.9932    0.9592   -0.9763 H   0  0  0  0  0  0  0  0  0  0  0  0
   -3.9768    0.8238    0.7300 H   0  0  0  0  0  0  0  0  0  0  0  0
   -1.3610    0.1930    0.0881 C   0  0  0  0  0  0  0  0  0  0  0  0
   -2.6002   -1.2467   -0.5764 H   0  0  0  0  0  0  0  0  0  0  0  0
   -2.8397   -1.4606    1.2409 H   0  0  0  0  0  0  0  0  0  0  0  0
   -0.1236   -0.7066   -0.0610 C   0  0  0  0  0  0  0  0  0  0  0  0
   -1.3512    0.9101    0.9592 H   0  0  0  0  0  0  0  0  0  0  0  0
   -1.3232    0.7762   -0.7407 H   0  0  0  0  0  0  0  0  0  0  0  0
   -0.3144   -1.0201    0.7060 H   0  0  0  0  0  0  0  0  0  0  0  0
    0.7712   -0.1276    0.1789 H   0  0  0  0  0  0  0  0  0  0  0  0
   -0.0838   -1.6254   -1.1678 H   0  0  0  0  0  0  0  0  0  0  0  0
  1  3  1  0  0  0  0
  1  2  1  0  0  0  0
  1  5  1  0  0  0  0
  2  8  1  0  0  0  0
  4  1  1  0  0  0  0
  6  2  1  0  0  0  0
  6 10  1  0  0  0  0
  7  2  1  0  0  0  0
  9  6  1  0  0  0  0
  9 13  1  0  0  0  0
  9 12  1  0  0  0  0
 11  6  1  0  0  0  0
 14  9  1  0  0  0  0
M  END
$$$$
