14
butane_opt
C  -3.904222   0.248189   0.079476
C  -2.687046  -0.579153  -0.007538
H  -4.858192  -0.385117   0.093388
H  -3.972766   0.780223  -0.749780
H  -3.818274   0.996667   0.990368
C  -1.463193   0.190016  -0.088974
H  -2.836615  -1.340839  -0.913107
H  -2.592099  -1.189775   0.857893
C  -0.158648  -0.705435   0.074215
H  -1.412451   0.703625   0.662247
H  -1.457511   0.862948  -0.895794
H  -0.385749  -1.290091   0.985564
H   0.872553  -0.033278   0.412160
H  -0.000156  -1.409553  -0.684434
