butane_opt
 OpenBabel08242015383D

 14 13  0  0  0  0  0  0  0  0999 V2000
   -3.9562    0.3103   -0.0831 C   0  0  0  0  0  0  0  0  0  0  0  0
   -2.7025   -0.6366    0.2079 C   0  0  0  0  0  0  0  0  0  0  0  0
   -4.8422   -0.3372   -0.4557 H   0  0  0  0  0  0  0  0  0  0  0  0
   -3.6779    0.7693   -0.9378 H   0  0  0  0  0  0  0  0  0  0  0  0
   -4.2569    1.0603    0.8165 H   0  0  0  0  0  0  0  0  0  0  0  0
   -1.3854    0.1474    0.0954 C   0  0  0  0  0  0  0  0  0  0  0  0
   -2.5180   -1.3687   -0.6918 H   0  0  0  0  0  0  0  0  0  0  0  0
   -2.6584   -1.3332    1.1034 H   0  0  0  0  0  0  0  0  0  0  0  0
   -0.1801   -0.6729   -0.0696 C   0  0  0  0  0  0  0  0  0  0  0  0
   -1.0977    0.7342    0.9360 H   0  0  0  0  0  0  0  0  0  0  0  0
   -1.5877    0.7362   -0.7828 H   0  0  0  0  0  0  0  0  0  0  0  0
   -0.1828   -1.0739    0.7801 H   0  0  0  0  0  0  0  0  0  0  0  0
    0.7773   -0.0485   -0.1595 H   0  0  0  0  0  0  0  0  0  0  0  0
   -0.2917   -1.3757   -0.9627 H   0  0  0  0  0  0  0  0  0  0  0  0
  1  2  1  0  0  0  0
  1  5  1  0  0  0  0
  2  8  1  0  0  0  0
  3  1  1  0  0  0  0
  4  1  1  0  0  0  0
  6  2  1  0  0  0  0
  6 10  1  0  0  0  0
  7  2  1  0  0  0  0
  9  6  1  0  0  0  0
  9 12  1  0  0  0  0
 11  6  1  0  0  0  0
 13  9  1  0  0  0  0
 14  9  1  0  0  0  0
M  END
$$$$
