butane_opt
 OpenBabel08242015383D

 14 13  0  0  0  0  0  0  0  0999 V2000
   -3.9531    0.2858    0.0633 C   0  0  0  0  0  0  0  0  0  0  0  0
   -2.7023   -0.6168   -0.0800 C   0  0  0  0  0  0  0  0  0  0  0  0
   -4.7559   -0.2337    0.3953 H   0  0  0  0  0  0  0  0  0  0  0  0
   -4.0715    1.0930   -0.8968 H   0  0  0  0  0  0  0  0  0  0  0  0
   -3.8208    0.7349    0.8309 H   0  0  0  0  0  0  0  0  0  0  0  0
   -1.4148    0.1299    0.0057 C   0  0  0  0  0  0  0  0  0  0  0  0
   -2.7855   -1.2441   -0.8477 H   0  0  0  0  0  0  0  0  0  0  0  0
   -2.6766   -1.2473    0.8663 H   0  0  0  0  0  0  0  0  0  0  0  0
   -0.1642   -0.6649    0.0870 C   0  0  0  0  0  0  0  0  0  0  0  0
   -1.3657    0.8515    0.8107 H   0  0  0  0  0  0  0  0  0  0  0  0
   -1.2596    0.6948   -0.8149 H   0  0  0  0  0  0  0  0  0  0  0  0
   -0.1780   -1.3684    1.0072 H   0  0  0  0  0  0  0  0  0  0  0  0
    0.8869    0.0213   -0.0876 H   0  0  0  0  0  0  0  0  0  0  0  0
   -0.2153   -1.3470   -0.7617 H   0  0  0  0  0  0  0  0  0  0  0  0
  1  3  1  0  0  0  0
  1  5  1  0  0  0  0
  2  6  1  0  0  0  0
  2  1  1  0  0  0  0
  2  8  1  0  0  0  0
  4  1  1  0  0  0  0
  6  9  1  0  0  0  0
  6 10  1  0  0  0  0
  7  2  1  0  0  0  0
  9 12  1  0  0  0  0
 11  6  1  0  0  0  0
 13  9  1  0  0  0  0
 14  9  1  0  0  0  0
M  END
$$$$
