butane_opt
 OpenBabel08242015383D

 14 12  0  0  0  0  0  0  0  0999 V2000
   -3.9686    0.2211    0.0890 C   0  0  0  0  0  0  0  0  0  0  0  0
   -2.6807   -0.5809   -0.0923 C   0  0  0  0  0  0  0  0  0  0  0  0
   -4.9253   -0.4067    0.1111 H   0  0  0  0  0  0  0  0  0  0  0  0
   -3.9826    0.7308   -0.7215 H   0  0  0  0  0  0  0  0  0  0  0  0
   -3.7440    1.0830    1.0823 H   0  0  0  0  0  0  0  0  0  0  0  0
   -1.4183    0.2084   -0.0285 C   0  0  0  0  0  0  0  0  0  0  0  0
   -2.8196   -1.2459   -0.8972 H   0  0  0  0  0  0  0  0  0  0  0  0
   -2.7466   -1.0652    0.7475 H   0  0  0  0  0  0  0  0  0  0  0  0
   -0.1327   -0.7178    0.1050 C   0  0  0  0  0  0  0  0  0  0  0  0
   -1.6324    0.9069    0.7552 H   0  0  0  0  0  0  0  0  0  0  0  0
   -1.2447    0.8419   -0.8878 H   0  0  0  0  0  0  0  0  0  0  0  0
    0.1076   -1.7653    1.1995 H   0  0  0  0  0  0  0  0  0  0  0  0
    0.6422   -0.1852   -0.2794 H   0  0  0  0  0  0  0  0  0  0  0  0
   -0.2601   -0.9549   -0.4986 H   0  0  0  0  0  0  0  0  0  0  0  0
  1  3  1  0  0  0  0
  1  5  1  0  0  0  0
  2  6  1  0  0  0  0
  2  1  1  0  0  0  0
  2  8  1  0  0  0  0
  4  1  1  0  0  0  0
  6  9  1  0  0  0  0
  6 10  1  0  0  0  0
  7  2  1  0  0  0  0
 11  6  1  0  0  0  0
 13  9  1  0  0  0  0
 14  9  1  0  0  0  0
M  RAD  2   9   2  12   2
M  END
$$$$
