14
butane_opt
C  -3.959937   0.279933  -0.037959
C  -2.701563  -0.643734   0.153156
H  -4.859007  -0.318678   0.012005
H  -3.881197   1.062131  -1.063248
H  -4.005233   0.850449   0.756480
C  -1.392891   0.174224   0.020734
H  -2.695393  -1.312468  -0.595987
H  -2.895145  -1.233988   1.039495
C  -0.161328  -0.669489  -0.016547
H  -1.212953   0.921055   0.934448
H  -1.411260   0.842232  -0.900610
H  -0.330224  -0.963966   0.664567
H   0.727461  -0.225751   0.338180
H   0.110252  -1.795144  -1.230825
