butane_opt
 OpenBabel08242015383D

 14 13  0  0  0  0  0  0  0  0999 V2000
   -3.9415    0.2098   -0.0585 C   0  0  0  0  0  0  0  0  0  0  0  0
   -2.7425   -0.5822    0.1830 C   0  0  0  0  0  0  0  0  0  0  0  0
   -4.8049   -0.2718   -0.3362 H   0  0  0  0  0  0  0  0  0  0  0  0
   -3.6804    0.6773   -0.9210 H   0  0  0  0  0  0  0  0  0  0  0  0
   -4.2556    1.1750    1.0099 H   0  0  0  0  0  0  0  0  0  0  0  0
   -1.3932    0.2485    0.0469 C   0  0  0  0  0  0  0  0  0  0  0  0
   -2.6164   -1.2987   -0.6518 H   0  0  0  0  0  0  0  0  0  0  0  0
   -2.9197   -1.1773    0.9947 H   0  0  0  0  0  0  0  0  0  0  0  0
   -0.1300   -0.7293   -0.0334 C   0  0  0  0  0  0  0  0  0  0  0  0
   -1.3056    0.8050    0.8066 H   0  0  0  0  0  0  0  0  0  0  0  0
   -1.5375    0.8362   -0.8420 H   0  0  0  0  0  0  0  0  0  0  0  0
   -0.0147   -1.3226    0.7965 H   0  0  0  0  0  0  0  0  0  0  0  0
    0.6765   -0.2063   -0.0163 H   0  0  0  0  0  0  0  0  0  0  0  0
   -0.0645   -1.4565   -1.0080 H   0  0  0  0  0  0  0  0  0  0  0  0
  1  2  1  0  0  0  0
  1  5  1  0  0  0  0
  2  8  1  0  0  0  0
  3  1  1  0  0  0  0
  4  1  1  0  0  0  0
  6  2  1  0  0  0  0
  6 10  1  0  0  0  0
  7  2  1  0  0  0  0
  9 13  1  0  0  0  0
  9  6  1  0  0  0  0
  9 12  1  0  0  0  0
 11  6  1  0  0  0  0
 14  9  1  0  0  0  0
M  END
$$$$
