14
butane_opt
C  -3.938839   0.231403  -0.066980
C  -2.697838  -0.626091   0.090980
H  -4.797970  -0.368625   0.176082
H  -4.067642   1.118577  -1.171673
H  -3.945976   0.767917   0.745499
C  -1.432328   0.252820   0.129775
H  -2.536419  -1.151367  -0.683030
H  -2.966158  -1.327689   1.138747
C  -0.121583  -0.727798  -0.062250
H  -1.309059   1.056973   1.048156
H  -1.442563   0.748746  -0.705927
H  -0.150656  -1.210388   0.864939
H   0.745814  -0.198796  -0.125760
H  -0.220646  -1.484936  -0.971754
