butane_opt
 OpenBabel08242015383D

 14 13  0  0  0  0  0  0  0  0999 V2000
   -3.9411    0.2966    0.0849 C   0  0  0  0  0  0  0  0  0  0  0  0
   -2.6600   -0.6833   -0.0245 C   0  0  0  0  0  0  0  0  0  0  0  0
   -4.7666   -0.1573    0.4131 H   0  0  0  0  0  0  0  0  0  0  0  0
   -4.1455    1.2088   -1.0595 H   0  0  0  0  0  0  0  0  0  0  0  0
   -3.8198    0.7297    0.7743 H   0  0  0  0  0  0  0  0  0  0  0  0
   -1.3850    0.1573   -0.0245 C   0  0  0  0  0  0  0  0  0  0  0  0
   -2.7392   -1.4721   -1.0303 H   0  0  0  0  0  0  0  0  0  0  0  0
   -2.7583   -1.0769    0.7335 H   0  0  0  0  0  0  0  0  0  0  0  0
   -0.1981   -0.6799    0.0759 C   0  0  0  0  0  0  0  0  0  0  0  0
   -1.3745    0.7848    0.8455 H   0  0  0  0  0  0  0  0  0  0  0  0
   -1.4168    0.8708   -0.9386 H   0  0  0  0  0  0  0  0  0  0  0  0
   -0.4825   -1.1453    0.9088 H   0  0  0  0  0  0  0  0  0  0  0  0
    0.7489    0.0244    0.1678 H   0  0  0  0  0  0  0  0  0  0  0  0
   -0.0698   -1.3095   -0.7493 H   0  0  0  0  0  0  0  0  0  0  0  0
  1  3  1  0  0  0  0
  1  5  1  0  0  0  0
  2  1  1  0  0  0  0
  2  8  1  0  0  0  0
  4  1  1  0  0  0  0
  6  2  1  0  0  0  0
  6  9  1  0  0  0  0
  6 10  1  0  0  0  0
  7  2  1  0  0  0  0
  9 13  1  0  0  0  0
  9 12  1  0  0  0  0
 11  6  1  0  0  0  0
 14  9  1  0  0  0  0
M  END
$$$$
