butane_opt
 OpenBabel08242015383D

 14 12  0  0  0  0  0  0  0  0999 V2000
   -3.9616    0.2737    0.0716 C   0  0  0  0  0  0  0  0  0  0  0  0
   -2.6920   -0.6632   -0.0796 C   0  0  0  0  0  0  0  0  0  0  0  0
   -4.8299   -0.2480    0.0658 H   0  0  0  0  0  0  0  0  0  0  0  0
   -3.9665    0.7252   -0.6502 H   0  0  0  0  0  0  0  0  0  0  0  0
   -3.9009    1.2977    1.1364 H   0  0  0  0  0  0  0  0  0  0  0  0
   -1.4062    0.1651   -0.0303 C   0  0  0  0  0  0  0  0  0  0  0  0
   -2.6877   -1.3219   -0.9201 H   0  0  0  0  0  0  0  0  0  0  0  0
   -2.4521   -1.2005    0.7295 H   0  0  0  0  0  0  0  0  0  0  0  0
   -0.1799   -0.6713    0.1127 C   0  0  0  0  0  0  0  0  0  0  0  0
   -1.4884    0.8413    0.7865 H   0  0  0  0  0  0  0  0  0  0  0  0
   -1.2927    0.7941   -0.8547 H   0  0  0  0  0  0  0  0  0  0  0  0
   -0.0229   -1.7423    1.2426 H   0  0  0  0  0  0  0  0  0  0  0  0
    0.8123   -0.0145   -0.4262 H   0  0  0  0  0  0  0  0  0  0  0  0
   -0.3332   -0.8395   -0.4946 H   0  0  0  0  0  0  0  0  0  0  0  0
  1  5  1  0  0  0  0
  2  6  1  0  0  0  0
  2  1  1  0  0  0  0
  2  8  1  0  0  0  0
  3  1  1  0  0  0  0
  4  1  1  0  0  0  0
  6  9  1  0  0  0  0
  6 10  1  0  0  0  0
  7  2  1  0  0  0  0
 11  6  1  0  0  0  0
 13  9  1  0  0  0  0
 14  9  1  0  0  0  0
M  RAD  2   9   2  12   2
M  END
$$$$
