14
butane_opt
C  -3.954582   0.258825   0.044354
C  -2.709897  -0.619347   0.003753
H  -4.856058  -0.326237   0.164214
H  -4.018048   0.950965  -0.901183
H  -3.917768   0.850449   0.854259
C  -1.394112   0.202977  -0.002657
H  -2.760026  -1.339518  -0.896141
H  -2.650731  -1.202774   0.868817
C  -0.154817  -0.706833   0.050794
H  -1.399153   0.909164   0.858611
H  -1.355991   0.854147  -0.933243
H  -0.117018  -1.335040   0.972589
H   0.721375  -0.121220   0.061339
H  -0.103936  -1.343712  -0.769669
