butane_opt
 OpenBabel08242015383D

 14 13  0  0  0  0  0  0  0  0999 V2000
   -3.9574    0.2731   -0.0782 C   0  0  0  0  0  0  0  0  0  0  0  0
   -2.6934   -0.6604    0.1116 C   0  0  0  0  0  0  0  0  0  0  0  0
   -4.7976   -0.2279   -0.1617 H   0  0  0  0  0  0  0  0  0  0  0  0
   -3.9977    1.0082   -1.0082 H   0  0  0  0  0  0  0  0  0  0  0  0
   -4.0656    0.9735    0.7580 H   0  0  0  0  0  0  0  0  0  0  0  0
   -1.3876    0.1889    0.1409 C   0  0  0  0  0  0  0  0  0  0  0  0
   -2.6482   -1.1950   -0.6364 H   0  0  0  0  0  0  0  0  0  0  0  0
   -2.9303   -1.3389    1.0701 H   0  0  0  0  0  0  0  0  0  0  0  0
   -0.1419   -0.6866   -0.0475 C   0  0  0  0  0  0  0  0  0  0  0  0
   -1.3405    1.0956    1.1384 H   0  0  0  0  0  0  0  0  0  0  0  0
   -1.3508    0.6351   -0.7376 H   0  0  0  0  0  0  0  0  0  0  0  0
    0.0838   -1.5150    0.9126 H   0  0  0  0  0  0  0  0  0  0  0  0
    0.7837   -0.0303   -0.4924 H   0  0  0  0  0  0  0  0  0  0  0  0
   -0.5962   -1.2490   -0.9164 H   0  0  0  0  0  0  0  0  0  0  0  0
  1  2  1  0  0  0  0
  1  5  1  0  0  0  0
  2  6  1  0  0  0  0
  2  8  1  0  0  0  0
  3  1  1  0  0  0  0
  4  1  1  0  0  0  0
  6 10  1  0  0  0  0
  7  2  1  0  0  0  0
  9  6  1  0  0  0  0
  9 12  1  0  0  0  0
 11  6  1  0  0  0  0
 13  9  1  0  0  0  0
 14  9  1  0  0  0  0
M  END
$$$$
