14
butane_opt
C  -3.941368   0.261293  -0.032945
C  -2.677377  -0.606076   0.091632
H  -4.847776  -0.233665   0.329854
H  -3.939769   1.432161  -1.250509
H  -3.847126   0.519648   0.581618
C  -1.418079   0.130246   0.080909
H  -2.663642  -1.333675  -0.842164
H  -2.670715  -1.214902   0.934688
C  -0.192703  -0.679193  -0.028134
H  -1.275688   1.054501   1.088836
H  -1.391510   0.670411  -0.674072
H  -0.149022  -1.156642   0.814725
H   0.854762   0.010832   0.088666
H  -0.349012  -1.485150  -1.025726
