butane_opt
 OpenBabel08242015383D

 14 13  0  0  0  0  0  0  0  0999 V2000
   -3.9895    0.2677   -0.0744 C   0  0  0  0  0  0  0  0  0  0  0  0
   -2.7051   -0.6243    0.1207 C   0  0  0  0  0  0  0  0  0  0  0  0
   -4.8988   -0.3631   -0.1651 H   0  0  0  0  0  0  0  0  0  0  0  0
   -3.9343    1.1218   -1.0569 H   0  0  0  0  0  0  0  0  0  0  0  0
   -4.0459    0.8714    0.7759 H   0  0  0  0  0  0  0  0  0  0  0  0
   -1.4142    0.1704    0.1438 C   0  0  0  0  0  0  0  0  0  0  0  0
   -2.6336   -1.2899   -0.7144 H   0  0  0  0  0  0  0  0  0  0  0  0
   -2.7583   -1.2366    0.9195 H   0  0  0  0  0  0  0  0  0  0  0  0
   -0.1300   -0.6878   -0.0357 C   0  0  0  0  0  0  0  0  0  0  0  0
   -1.2162    0.8235    0.9951 H   0  0  0  0  0  0  0  0  0  0  0  0
   -1.4220    0.6896   -0.6546 H   0  0  0  0  0  0  0  0  0  0  0  0
    0.3274   -1.3121    0.8452 H   0  0  0  0  0  0  0  0  0  0  0  0
    0.8037   -0.0482   -0.4825 H   0  0  0  0  0  0  0  0  0  0  0  0
   -0.3935   -1.2178   -0.8833 H   0  0  0  0  0  0  0  0  0  0  0  0
  1  2  1  0  0  0  0
  1  5  1  0  0  0  0
  2  6  1  0  0  0  0
  2  8  1  0  0  0  0
  3  1  1  0  0  0  0
  4  1  1  0  0  0  0
  6 10  1  0  0  0  0
  7  2  1  0  0  0  0
  9  6  1  0  0  0  0
  9 12  1  0  0  0  0
 11  6  1  0  0  0  0
 13  9  1  0  0  0  0
 14  9  1  0  0  0  0
M  END
$$$$
