butane_opt
 OpenBabel08242015383D

 14 13  0  0  0  0  0  0  0  0999 V2000
   -3.9521    0.2742    0.0181 C   0  0  0  0  0  0  0  0  0  0  0  0
   -2.7074   -0.6184    0.0443 C   0  0  0  0  0  0  0  0  0  0  0  0
   -4.8721   -0.3307    0.0933 H   0  0  0  0  0  0  0  0  0  0  0  0
   -3.9718    0.9423   -0.9046 H   0  0  0  0  0  0  0  0  0  0  0  0
   -3.9869    0.8940    0.8351 H   0  0  0  0  0  0  0  0  0  0  0  0
   -1.3943    0.1686    0.0112 C   0  0  0  0  0  0  0  0  0  0  0  0
   -2.7040   -1.3024   -0.8000 H   0  0  0  0  0  0  0  0  0  0  0  0
   -2.6891   -1.2350    0.9066 H   0  0  0  0  0  0  0  0  0  0  0  0
   -0.1576   -0.6834    0.0253 C   0  0  0  0  0  0  0  0  0  0  0  0
   -1.3891    0.8277    0.8538 H   0  0  0  0  0  0  0  0  0  0  0  0
   -1.3277    0.8095   -0.8922 H   0  0  0  0  0  0  0  0  0  0  0  0
   -0.1613   -1.2354    0.8952 H   0  0  0  0  0  0  0  0  0  0  0  0
    0.7507   -0.1160    0.1114 H   0  0  0  0  0  0  0  0  0  0  0  0
   -0.1358   -1.4175   -0.8565 H   0  0  0  0  0  0  0  0  0  0  0  0
  1  2  1  0  0  0  0
  1  3  1  0  0  0  0
  1  5  1  0  0  0  0
  2  8  1  0  0  0  0
  4  1  1  0  0  0  0
  6  9  1  0  0  0  0
  6  2  1  0  0  0  0
  6 10  1  0  0  0  0
  7  2  1  0  0  0  0
  9 13  1  0  0  0  0
  9 12  1  0  0  0  0
 11  6  1  0  0  0  0
 14  9  1  0  0  0  0
M  END
$$$$
