14
butane_opt
C  -3.948565   0.290172   0.118779
C  -2.702249  -0.651999  -0.048225
H  -4.917877  -0.356240   0.235633
H  -4.037904   0.937463  -0.767438
H  -4.082965   1.020737   1.065458
C  -1.397900   0.160116  -0.121916
H  -2.831704  -1.374455  -0.898820
H  -2.732395  -1.103033   0.788081
C  -0.132083  -0.678823   0.128047
H  -1.517132   0.698856   0.581875
H  -1.276327   0.918582  -1.060653
H  -0.374129  -1.103292   0.942915
H   0.878027  -0.097479   0.418293
H   0.047112  -1.453602  -0.790326
