14
butane_opt
C  -3.976950   0.297501  -0.039745
C  -2.677954  -0.635599   0.148030
H  -4.867408  -0.296615  -0.356498
H  -3.720063   0.704674  -0.849612
H  -4.116429   1.174185   0.944116
C  -1.369650   0.152142   0.034372
H  -2.623125  -1.406714  -0.735901
H  -2.573377  -1.186930   1.057575
C  -0.199503  -0.686916  -0.031834
H  -1.256174   0.702326   0.846590
H  -1.456103   0.746059  -0.850864
H  -0.167250  -1.216202   0.907909
H   0.798301   0.012807   0.031035
H  -0.357332  -1.220356  -0.852185
