butane_opt
 OpenBabel08242015383D

 14 13  0  0  0  0  0  0  0  0999 V2000
   -3.9480    0.2231   -0.0937 C   0  0  0  0  0  0  0  0  0  0  0  0
   -2.7276   -0.5779    0.1692 C   0  0  0  0  0  0  0  0  0  0  0  0
   -4.8931   -0.3608   -0.1861 H   0  0  0  0  0  0  0  0  0  0  0  0
   -3.7946    0.8708   -1.0933 H   0  0  0  0  0  0  0  0  0  0  0  0
   -4.1777    0.8416    0.7504 H   0  0  0  0  0  0  0  0  0  0  0  0
   -1.3756    0.2383    0.1560 C   0  0  0  0  0  0  0  0  0  0  0  0
   -2.6979   -1.3493   -0.7222 H   0  0  0  0  0  0  0  0  0  0  0  0
   -2.8640   -1.1026    1.0425 H   0  0  0  0  0  0  0  0  0  0  0  0
   -0.1241   -0.7283   -0.0783 C   0  0  0  0  0  0  0  0  0  0  0  0
   -1.3450    0.9881    0.9948 H   0  0  0  0  0  0  0  0  0  0  0  0
   -1.4755    0.7875   -0.6466 H   0  0  0  0  0  0  0  0  0  0  0  0
    0.0754   -1.4558    0.8549 H   0  0  0  0  0  0  0  0  0  0  0  0
    0.5218   -0.3412   -0.4685 H   0  0  0  0  0  0  0  0  0  0  0  0
   -0.2186   -1.2481   -0.9239 H   0  0  0  0  0  0  0  0  0  0  0  0
  1  2  1  0  0  0  0
  1  5  1  0  0  0  0
  2  8  1  0  0  0  0
  3  1  1  0  0  0  0
  4  1  1  0  0  0  0
  6  2  1  0  0  0  0
  6 10  1  0  0  0  0
  7  2  1  0  0  0  0
  9  6  1  0  0  0  0
  9 12  1  0  0  0  0
 11  6  1  0  0  0  0
 13  9  1  0  0  0  0
 14  9  1  0  0  0  0
M  END
$$$$
