14
butane_opt
C  -3.950917   0.294765  -0.067909
C  -2.651488  -0.637540   0.096438
H  -4.903982  -0.368210   0.365008
H  -4.044475   1.325177  -1.153968
H  -3.821043   0.558378   0.579853
C  -1.421135   0.129468   0.143031
H  -2.470298  -1.327512  -0.708479
H  -2.830289  -1.312056   0.965039
C  -0.179822  -0.636629  -0.046304
H  -1.306005   0.852522   1.041846
H  -1.424715   0.857856  -0.817999
H  -0.279919  -1.087132   0.697797
H   0.722677  -0.092280   0.024355
H  -0.237597  -1.673249  -1.119426
