butane_opt
 OpenBabel08242015383D

 14 13  0  0  0  0  0  0  0  0999 V2000
   -3.9650    0.2741    0.0246 C   0  0  0  0  0  0  0  0  0  0  0  0
   -2.6554   -0.6533    0.0722 C   0  0  0  0  0  0  0  0  0  0  0  0
   -4.7592   -0.2209    0.0196 H   0  0  0  0  0  0  0  0  0  0  0  0
   -3.8609    1.0826   -1.0180 H   0  0  0  0  0  0  0  0  0  0  0  0
   -4.0513    0.7829    0.7222 H   0  0  0  0  0  0  0  0  0  0  0  0
   -1.3942    0.1486    0.0199 C   0  0  0  0  0  0  0  0  0  0  0  0
   -2.6125   -1.2825   -0.7230 H   0  0  0  0  0  0  0  0  0  0  0  0
   -2.6738   -1.1734    0.9255 H   0  0  0  0  0  0  0  0  0  0  0  0
   -0.2042   -0.6562   -0.0014 C   0  0  0  0  0  0  0  0  0  0  0  0
   -1.4294    0.8478    0.8092 H   0  0  0  0  0  0  0  0  0  0  0  0
   -1.3742    0.8187   -0.8379 H   0  0  0  0  0  0  0  0  0  0  0  0
   -0.1755   -1.1042    0.8471 H   0  0  0  0  0  0  0  0  0  0  0  0
    0.6650   -0.0427    0.2751 H   0  0  0  0  0  0  0  0  0  0  0  0
   -0.1458   -1.5484   -0.9937 H   0  0  0  0  0  0  0  0  0  0  0  0
  1  2  1  0  0  0  0
  1  5  1  0  0  0  0
  2  8  1  0  0  0  0
  3  1  1  0  0  0  0
  4  1  1  0  0  0  0
  6  2  1  0  0  0  0
  6 10  1  0  0  0  0
  7  2  1  0  0  0  0
  9  6  1  0  0  0  0
  9 13  1  0  0  0  0
  9 12  1  0  0  0  0
 11  6  1  0  0  0  0
 14  9  1  0  0  0  0
M  END
$$$$
