butane_opt
 OpenBabel08242015383D

 14 13  0  0  0  0  0  0  0  0999 V2000
   -3.9042    0.2482    0.0795 C   0  0  0  0  0  0  0  0  0  0  0  0
   -2.6870   -0.5792   -0.0075 C   0  0  0  0  0  0  0  0  0  0  0  0
   -4.8582   -0.3851    0.0934 H   0  0  0  0  0  0  0  0  0  0  0  0
   -3.9728    0.7802   -0.7498 H   0  0  0  0  0  0  0  0  0  0  0  0
   -3.8183    0.9967    0.9904 H   0  0  0  0  0  0  0  0  0  0  0  0
   -1.4632    0.1900   -0.0890 C   0  0  0  0  0  0  0  0  0  0  0  0
   -2.8366   -1.3408   -0.9131 H   0  0  0  0  0  0  0  0  0  0  0  0
   -2.5921   -1.1898    0.8579 H   0  0  0  0  0  0  0  0  0  0  0  0
   -0.1586   -0.7054    0.0742 C   0  0  0  0  0  0  0  0  0  0  0  0
   -1.4125    0.7036    0.6622 H   0  0  0  0  0  0  0  0  0  0  0  0
   -1.4575    0.8629   -0.8958 H   0  0  0  0  0  0  0  0  0  0  0  0
   -0.3857   -1.2901    0.9856 H   0  0  0  0  0  0  0  0  0  0  0  0
    0.8726   -0.0333    0.4122 H   0  0  0  0  0  0  0  0  0  0  0  0
   -0.0002   -1.4096   -0.6844 H   0  0  0  0  0  0  0  0  0  0  0  0
  1  3  1  0  0  0  0
  1  5  1  0  0  0  0
  2  1  1  0  0  0  0
  2  8  1  0  0  0  0
  4  1  1  0  0  0  0
  6  2  1  0  0  0  0
  6  9  1  0  0  0  0
  6 10  1  0  0  0  0
  7  2  1  0  0  0  0
  9 13  1  0  0  0  0
  9 12  1  0  0  0  0
 11  6  1  0  0  0  0
 14  9  1  0  0  0  0
M  END
$$$$
