14
butane_opt
C  -3.952148   0.254729  -0.066979
C  -2.685347  -0.591930   0.181474
H  -4.929257  -0.479475  -0.450939
H  -3.475590   0.664648  -0.964448
H  -4.097684   1.041652   0.877566
C  -1.425807   0.199378   0.098002
H  -2.669374  -1.133778  -0.654721
H  -2.805142  -1.309158   1.122589
C  -0.160061  -0.714061  -0.085572
H  -1.398649   0.967204   1.025859
H  -1.463901   0.882812  -0.829471
H   0.016251  -1.355291   0.840524
H   0.722983  -0.168461  -0.064012
H  -0.246782  -1.380747  -0.958181
