butane_opt
 OpenBabel08242015383D

 14 13  0  0  0  0  0  0  0  0999 V2000
   -3.8901    0.2392   -0.0450 C   0  0  0  0  0  0  0  0  0  0  0  0
   -2.7130   -0.5779    0.0406 C   0  0  0  0  0  0  0  0  0  0  0  0
   -4.9299   -0.4439    0.0543 H   0  0  0  0  0  0  0  0  0  0  0  0
   -3.9167    0.7691   -0.8703 H   0  0  0  0  0  0  0  0  0  0  0  0
   -3.9082    0.8645    0.7908 H   0  0  0  0  0  0  0  0  0  0  0  0
   -1.4588    0.2248    0.1141 C   0  0  0  0  0  0  0  0  0  0  0  0
   -2.5919   -1.1820   -0.6517 H   0  0  0  0  0  0  0  0  0  0  0  0
   -2.8156   -1.2842    0.9916 H   0  0  0  0  0  0  0  0  0  0  0  0
   -0.1642   -0.7240   -0.0161 C   0  0  0  0  0  0  0  0  0  0  0  0
   -1.2073    0.9572    1.0026 H   0  0  0  0  0  0  0  0  0  0  0  0
   -1.4581    0.8518   -0.7758 H   0  0  0  0  0  0  0  0  0  0  0  0
    0.1431   -1.5384    0.8972 H   0  0  0  0  0  0  0  0  0  0  0  0
    0.6357   -0.2139   -0.3058 H   0  0  0  0  0  0  0  0  0  0  0  0
   -0.2431   -1.2197   -0.7760 H   0  0  0  0  0  0  0  0  0  0  0  0
  1  2  1  0  0  0  0
  1  3  1  0  0  0  0
  1  5  1  0  0  0  0
  2  6  1  0  0  0  0
  2  8  1  0  0  0  0
  4  1  1  0  0  0  0
  6 10  1  0  0  0  0
  7  2  1  0  0  0  0
  9  6  1  0  0  0  0
  9 12  1  0  0  0  0
 11  6  1  0  0  0  0
 13  9  1  0  0  0  0
 14  9  1  0  0  0  0
M  END
$$$$
