14
butane_opt
C  -3.967431   0.297755   0.127388
C  -2.690779  -0.682775  -0.061847
H  -4.825880  -0.318992   0.099038
H  -4.272218   0.859808  -0.733108
H  -3.931252   1.043688   1.051230
C  -1.394225   0.172176  -0.138407
H  -2.717668  -1.207273  -0.773002
H  -2.543824  -1.288838   0.792627
C  -0.171844  -0.650418   0.121913
H  -1.260394   0.725910   0.730115
H  -1.334709   0.866144  -1.093993
H  -0.399456  -1.171019   0.978813
H   0.694859  -0.060523   0.541153
H   0.245420  -1.563269  -0.759256
