butane_opt
 OpenBabel08242015383D

 14 13  0  0  0  0  0  0  0  0999 V2000
   -3.9946    0.2337   -0.0472 C   0  0  0  0  0  0  0  0  0  0  0  0
   -2.7110   -0.5952    0.1320 C   0  0  0  0  0  0  0  0  0  0  0  0
   -5.0047   -0.4029   -0.2168 H   0  0  0  0  0  0  0  0  0  0  0  0
   -3.8565    0.9322   -1.0940 H   0  0  0  0  0  0  0  0  0  0  0  0
   -4.0797    0.7932    0.6716 H   0  0  0  0  0  0  0  0  0  0  0  0
   -1.3907    0.2288    0.1378 C   0  0  0  0  0  0  0  0  0  0  0  0
   -2.6074   -1.2582   -0.7145 H   0  0  0  0  0  0  0  0  0  0  0  0
   -2.7446   -1.1106    0.9635 H   0  0  0  0  0  0  0  0  0  0  0  0
   -0.1347   -0.7303   -0.0701 C   0  0  0  0  0  0  0  0  0  0  0  0
   -1.2654    0.9618    0.9402 H   0  0  0  0  0  0  0  0  0  0  0  0
   -1.5329    0.8279   -0.7093 H   0  0  0  0  0  0  0  0  0  0  0  0
    0.1781   -1.4389    0.9057 H   0  0  0  0  0  0  0  0  0  0  0  0
    0.7986   -0.1329   -0.2395 H   0  0  0  0  0  0  0  0  0  0  0  0
   -0.1251   -1.3098   -0.8927 H   0  0  0  0  0  0  0  0  0  0  0  0
  1  2  1  0  0  0  0
  1  5  1  0  0  0  0
  2  6  1  0  0  0  0
  2  8  1  0  0  0  0
  3  1  1  0  0  0  0
  4  1  1  0  0  0  0
  6 10  1  0  0  0  0
  7  2  1  0  0  0  0
  9  6  1  0  0  0  0
  9 12  1  0  0  0  0
 11  6  1  0  0  0  0
 13  9  1  0  0  0  0
 14  9  1  0  0  0  0
M  END
$$$$
