butane_opt
 OpenBabel08242015383D

 14 12  0  0  0  0  0  0  0  0999 V2000
   -3.9425    0.2091   -0.0761 C   0  0  0  0  0  0  0  0  0  0  0  0
   -2.6951   -0.5729    0.0799 C   0  0  0  0  0  0  0  0  0  0  0  0
   -4.9600   -0.4348    0.5826 H   0  0  0  0  0  0  0  0  0  0  0  0
   -4.2015    1.3267   -1.1861 H   0  0  0  0  0  0  0  0  0  0  0  0
   -3.8415    0.4943    0.5693 H   0  0  0  0  0  0  0  0  0  0  0  0
   -1.4314    0.2538    0.1227 C   0  0  0  0  0  0  0  0  0  0  0  0
   -2.6385   -1.2682   -0.8400 H   0  0  0  0  0  0  0  0  0  0  0  0
   -2.8669   -1.2793    1.0874 H   0  0  0  0  0  0  0  0  0  0  0  0
   -0.1271   -0.7210   -0.0341 C   0  0  0  0  0  0  0  0  0  0  0  0
   -1.3945    1.0016    1.0611 H   0  0  0  0  0  0  0  0  0  0  0  0
   -1.3182    0.7636   -0.6668 H   0  0  0  0  0  0  0  0  0  0  0  0
   -0.0013   -1.2057    0.7014 H   0  0  0  0  0  0  0  0  0  0  0  0
    0.6544   -0.2280    0.0118 H   0  0  0  0  0  0  0  0  0  0  0  0
   -0.0545   -1.6919   -1.0611 H   0  0  0  0  0  0  0  0  0  0  0  0
  1  2  1  0  0  0  0
  1  5  1  0  0  0  0
  1  3  1  0  0  0  0
  2  6  1  0  0  0  0
  2  8  1  0  0  0  0
  6 10  1  0  0  0  0
  7  2  1  0  0  0  0
  9 13  1  0  0  0  0
  9  6  1  0  0  0  0
  9 12  1  0  0  0  0
 11  6  1  0  0  0  0
 14  9  1  0  0  0  0
M  RAD  2   1   2   4   2
M  END
$$$$
