butane_opt
 OpenBabel08242015383D

 14 12  0  0  0  0  0  0  0  0999 V2000
   -3.9601    0.2503   -0.0298 C   0  0  0  0  0  0  0  0  0  0  0  0
   -2.7205   -0.6206    0.1164 C   0  0  0  0  0  0  0  0  0  0  0  0
   -4.9091   -0.4499    0.1357 H   0  0  0  0  0  0  0  0  0  0  0  0
   -3.9567    1.0711   -1.0888 H   0  0  0  0  0  0  0  0  0  0  0  0
   -3.8645    0.7901    0.7814 H   0  0  0  0  0  0  0  0  0  0  0  0
   -1.4134    0.2489    0.0549 C   0  0  0  0  0  0  0  0  0  0  0  0
   -2.8049   -1.2433   -0.7459 H   0  0  0  0  0  0  0  0  0  0  0  0
   -2.7908   -1.3409    1.0233 H   0  0  0  0  0  0  0  0  0  0  0  0
   -0.1322   -0.7193   -0.0253 C   0  0  0  0  0  0  0  0  0  0  0  0
   -1.2904    0.7923    0.8542 H   0  0  0  0  0  0  0  0  0  0  0  0
   -1.4380    0.9893   -0.9880 H   0  0  0  0  0  0  0  0  0  0  0  0
   -0.1014   -0.9965    0.6335 H   0  0  0  0  0  0  0  0  0  0  0  0
    0.6921   -0.2524    0.5636 H   0  0  0  0  0  0  0  0  0  0  0  0
    0.1527   -1.7530   -1.1596 H   0  0  0  0  0  0  0  0  0  0  0  0
  1  2  1  0  0  0  0
  1  3  1  0  0  0  0
  1  5  1  0  0  0  0
  2  8  1  0  0  0  0
  4  1  1  0  0  0  0
  6  2  1  0  0  0  0
  6 10  1  0  0  0  0
  7  2  1  0  0  0  0
  9  6  1  0  0  0  0
  9 13  1  0  0  0  0
  9 12  1  0  0  0  0
 11  6  1  0  0  0  0
M  RAD  2   9   2  14   2
M  END
$$$$
