14
butane_opt
C  -3.908202   0.220383   0.110887
C  -2.670340  -0.568284  -0.025610
H  -4.865764  -0.384007  -0.028223
H  -3.839320   0.664231  -0.676502
H  -3.908583   1.040937   1.050139
C  -1.442286   0.218610  -0.127579
H  -2.932008  -1.252174  -0.890229
H  -2.538874  -1.215045   0.941402
C  -0.200452  -0.719829   0.097777
H  -1.494753   0.848519   0.711219
H  -1.396228   0.959924  -1.098814
H  -0.283075  -1.340578   1.019316
H   0.753033  -0.093895   0.512391
H   0.135280  -1.528056  -0.762307
