14
butane_opt
C  -3.977683   0.275235   0.118672
C  -2.724091  -0.609814   0.011701
H  -4.842522  -0.279929  -0.576750
H  -3.722095   0.458607  -0.504689
H  -4.138668   1.315373   1.198754
C  -1.391444   0.179583  -0.129558
H  -2.805829  -1.399951  -0.935929
H  -2.665405  -1.119556   0.872163
C  -0.148892  -0.686054   0.119713
H  -1.338975   0.653357   0.590363
H  -1.224620   0.801993  -1.047198
H  -0.069365  -1.461851   1.128878
H   0.755955  -0.169100  -0.064578
H  -0.080543  -1.174138  -0.617652
