14
butane_opt
C  -3.934787   0.276074  -0.010126
C  -2.688958  -0.627218   0.070680
H  -4.852821  -0.303341   0.026419
H  -3.967305   0.931311  -0.950633
H  -4.001457   0.900256   0.823438
C  -1.404473   0.160849   0.033680
H  -2.695078  -1.245597  -0.731040
H  -2.679239  -1.342789   1.028543
C  -0.175825  -0.677528   0.004551
H  -1.399539   0.893443   0.899808
H  -1.410611   0.784448  -0.842051
H  -0.180263  -1.143814   0.819650
H   0.722338  -0.076967   0.077644
H  -0.114173  -1.457500  -0.923352
