butane_opt
 OpenBabel08242015383D

 14 11  0  0  0  0  0  0  0  0999 V2000
   -3.9104    0.2470    0.0739 C   0  0  0  0  0  0  0  0  0  0  0  0
   -2.6747   -0.6004    0.0319 C   0  0  0  0  0  0  0  0  0  0  0  0
   -4.8783   -0.3918   -0.4971 H   0  0  0  0  0  0  0  0  0  0  0  0
   -3.8731    0.3268   -0.5295 H   0  0  0  0  0  0  0  0  0  0  0  0
   -3.9898    1.3784    1.2113 H   0  0  0  0  0  0  0  0  0  0  0  0
   -1.4105    0.2125   -0.0719 C   0  0  0  0  0  0  0  0  0  0  0  0
   -2.7897   -1.2563   -0.8865 H   0  0  0  0  0  0  0  0  0  0  0  0
   -2.7644   -1.0880    0.8548 H   0  0  0  0  0  0  0  0  0  0  0  0
   -0.2070   -0.7199    0.0962 C   0  0  0  0  0  0  0  0  0  0  0  0
   -1.3488    0.7204    0.5784 H   0  0  0  0  0  0  0  0  0  0  0  0
   -1.4302    1.0268   -1.1507 H   0  0  0  0  0  0  0  0  0  0  0  0
   -0.1057   -1.5142    1.1476 H   0  0  0  0  0  0  0  0  0  0  0  0
    0.6639   -0.0895   -0.0878 H   0  0  0  0  0  0  0  0  0  0  0  0
   -0.0685   -1.2937   -0.6949 H   0  0  0  0  0  0  0  0  0  0  0  0
  2  1  1  0  0  0  0
  2  8  1  0  0  0  0
  3  1  1  0  0  0  0
  6  2  1  0  0  0  0
  6  9  1  0  0  0  0
  6 10  1  0  0  0  0
  7  2  1  0  0  0  0
  9 12  1  0  0  0  0
 11  6  1  0  0  0  0
 13  9  1  0  0  0  0
 14  9  1  0  0  0  0
M  RAD  3   1   3   4   2   5   2
M  END
$$$$
