butane_opt
 OpenBabel08242015383D

 14 13  0  0  0  0  0  0  0  0999 V2000
   -3.9509    0.2948   -0.0679 C   0  0  0  0  0  0  0  0  0  0  0  0
   -2.6515   -0.6375    0.0964 C   0  0  0  0  0  0  0  0  0  0  0  0
   -4.9040   -0.3682    0.3650 H   0  0  0  0  0  0  0  0  0  0  0  0
   -4.0445    1.3252   -1.1540 H   0  0  0  0  0  0  0  0  0  0  0  0
   -3.8210    0.5584    0.5799 H   0  0  0  0  0  0  0  0  0  0  0  0
   -1.4211    0.1295    0.1430 C   0  0  0  0  0  0  0  0  0  0  0  0
   -2.4703   -1.3275   -0.7085 H   0  0  0  0  0  0  0  0  0  0  0  0
   -2.8303   -1.3121    0.9650 H   0  0  0  0  0  0  0  0  0  0  0  0
   -0.1798   -0.6366   -0.0463 C   0  0  0  0  0  0  0  0  0  0  0  0
   -1.3060    0.8525    1.0418 H   0  0  0  0  0  0  0  0  0  0  0  0
   -1.4247    0.8579   -0.8180 H   0  0  0  0  0  0  0  0  0  0  0  0
   -0.2799   -1.0871    0.6978 H   0  0  0  0  0  0  0  0  0  0  0  0
    0.7227   -0.0923    0.0244 H   0  0  0  0  0  0  0  0  0  0  0  0
   -0.2376   -1.6732   -1.1194 H   0  0  0  0  0  0  0  0  0  0  0  0
  1  2  1  0  0  0  0
  1  3  1  0  0  0  0
  1  5  1  0  0  0  0
  2  6  1  0  0  0  0
  2  8  1  0  0  0  0
  4  1  1  0  0  0  0
  6 10  1  0  0  0  0
  7  2  1  0  0  0  0
  9 13  1  0  0  0  0
  9  6  1  0  0  0  0
  9 12  1  0  0  0  0
 11  6  1  0  0  0  0
 14  9  1  0  0  0  0
M  END
$$$$
