butane_opt
 OpenBabel08242015383D

 14 13  0  0  0  0  0  0  0  0999 V2000
   -3.8964    0.2431    0.0936 C   0  0  0  0  0  0  0  0  0  0  0  0
   -2.6867   -0.5748   -0.0387 C   0  0  0  0  0  0  0  0  0  0  0  0
   -4.8697   -0.4294    0.2085 H   0  0  0  0  0  0  0  0  0  0  0  0
   -4.0516    0.8159   -0.6905 H   0  0  0  0  0  0  0  0  0  0  0  0
   -3.7966    0.9237    0.9884 H   0  0  0  0  0  0  0  0  0  0  0  0
   -1.4518    0.1863   -0.0986 C   0  0  0  0  0  0  0  0  0  0  0  0
   -2.9134   -1.3017   -0.9449 H   0  0  0  0  0  0  0  0  0  0  0  0
   -2.6433   -1.1524    0.7913 H   0  0  0  0  0  0  0  0  0  0  0  0
   -0.1426   -0.6955    0.1288 C   0  0  0  0  0  0  0  0  0  0  0  0
   -1.5753    0.6856    0.5388 H   0  0  0  0  0  0  0  0  0  0  0  0
   -1.4266    0.9133   -1.0418 H   0  0  0  0  0  0  0  0  0  0  0  0
   -0.1867   -1.1476    0.9209 H   0  0  0  0  0  0  0  0  0  0  0  0
    0.7218   -0.1935    0.3928 H   0  0  0  0  0  0  0  0  0  0  0  0
   -0.1342   -1.5079   -0.7486 H   0  0  0  0  0  0  0  0  0  0  0  0
  1  3  1  0  0  0  0
  1  5  1  0  0  0  0
  2  1  1  0  0  0  0
  2  8  1  0  0  0  0
  4  1  1  0  0  0  0
  6  2  1  0  0  0  0
  6  9  1  0  0  0  0
  6 10  1  0  0  0  0
  7  2  1  0  0  0  0
  9 13  1  0  0  0  0
  9 12  1  0  0  0  0
 11  6  1  0  0  0  0
 14  9  1  0  0  0  0
M  END
$$$$
