14
butane_opt
C  -3.951161   0.278514  -0.076375
C  -2.679677  -0.589493   0.165411
H  -4.887443  -0.353595   0.009007
H  -4.043130   1.052093  -1.110052
H  -3.870644   0.797540   0.752271
C  -1.362973   0.126682   0.077868
H  -2.623019  -1.266783  -0.614134
H  -2.768453  -1.384424   1.136631
C  -0.213044  -0.686212  -0.032441
H  -1.281633   0.821620   0.885267
H  -1.513841   0.869881  -0.938193
H  -0.190114  -0.762174   0.474069
H   0.721448  -0.030025   0.368420
H  -0.091091  -1.764158  -1.198104
