14
butane_opt
C  -3.891792   0.280661  -0.107045
C  -2.667506  -0.639173   0.200493
H  -4.794569  -0.200416  -0.352214
H  -3.735303   0.827642  -0.930969
H  -4.269373   1.167973   0.849227
C  -1.421763   0.138788   0.106741
H  -2.727147  -1.276927  -0.583675
H  -2.795388  -1.441221   1.198542
C  -0.194035  -0.643025  -0.063435
H  -1.407703   0.739138   0.938990
H  -1.401336   0.819761  -0.777103
H  -0.051900  -1.154497   0.666506
H   0.708407  -0.015504  -0.077324
H  -0.461027  -1.578312  -1.140702
