butane_opt
 OpenBabel08242015383D

 14 12  0  0  0  0  0  0  0  0999 V2000
   -3.9089    0.2634   -0.0149 C   0  0  0  0  0  0  0  0  0  0  0  0
   -2.7023   -0.6173    0.0670 C   0  0  0  0  0  0  0  0  0  0  0  0
   -4.8990   -0.3792    0.2253 H   0  0  0  0  0  0  0  0  0  0  0  0
   -3.9033    1.2521   -1.2231 H   0  0  0  0  0  0  0  0  0  0  0  0
   -3.8145    0.5230    0.6157 H   0  0  0  0  0  0  0  0  0  0  0  0
   -1.4281    0.2235    0.1111 C   0  0  0  0  0  0  0  0  0  0  0  0
   -2.6468   -1.3725   -0.8369 H   0  0  0  0  0  0  0  0  0  0  0  0
   -2.6066   -1.1824    0.8837 H   0  0  0  0  0  0  0  0  0  0  0  0
   -0.2020   -0.6913   -0.0263 C   0  0  0  0  0  0  0  0  0  0  0  0
   -1.4637    0.8507    0.9788 H   0  0  0  0  0  0  0  0  0  0  0  0
   -1.3590    0.6640   -0.7197 H   0  0  0  0  0  0  0  0  0  0  0  0
    0.0162   -1.3652    0.8399 H   0  0  0  0  0  0  0  0  0  0  0  0
    0.7345   -0.1477   -0.0691 H   0  0  0  0  0  0  0  0  0  0  0  0
   -0.2016   -1.4223   -0.9479 H   0  0  0  0  0  0  0  0  0  0  0  0
  1  2  1  0  0  0  0
  1  3  1  0  0  0  0
  1  5  1  0  0  0  0
  2  6  1  0  0  0  0
  2  8  1  0  0  0  0
  6 10  1  0  0  0  0
  7  2  1  0  0  0  0
  9  6  1  0  0  0  0
  9 12  1  0  0  0  0
 11  6  1  0  0  0  0
 13  9  1  0  0  0  0
 14  9  1  0  0  0  0
M  RAD  2   1   2   4   2
M  END
$$$$
