butane_opt
 OpenBabel08242015383D

 14 13  0  0  0  0  0  0  0  0999 V2000
   -3.9670    0.2601   -0.0780 C   0  0  0  0  0  0  0  0  0  0  0  0
   -2.7256   -0.6191    0.1322 C   0  0  0  0  0  0  0  0  0  0  0  0
   -4.8856   -0.4358    0.0027 H   0  0  0  0  0  0  0  0  0  0  0  0
   -3.7829    1.0272   -1.2104 H   0  0  0  0  0  0  0  0  0  0  0  0
   -4.0968    0.7780    0.6096 H   0  0  0  0  0  0  0  0  0  0  0  0
   -1.3701    0.2261    0.1722 C   0  0  0  0  0  0  0  0  0  0  0  0
   -2.7286   -1.3356   -0.7492 H   0  0  0  0  0  0  0  0  0  0  0  0
   -2.7381   -1.1698    0.9550 H   0  0  0  0  0  0  0  0  0  0  0  0
   -0.1390   -0.7096   -0.0882 C   0  0  0  0  0  0  0  0  0  0  0  0
   -1.2696    1.0302    1.1920 H   0  0  0  0  0  0  0  0  0  0  0  0
   -1.4951    0.8067   -0.6819 H   0  0  0  0  0  0  0  0  0  0  0  0
    0.1510   -1.5946    0.9187 H   0  0  0  0  0  0  0  0  0  0  0  0
    0.6344   -0.2101   -0.3677 H   0  0  0  0  0  0  0  0  0  0  0  0
   -0.3786   -1.2624   -0.8720 H   0  0  0  0  0  0  0  0  0  0  0  0
  1  3  1  0  0  0  0
  1  2  1  0  0  0  0
  1  5  1  0  0  0  0
  2  6  1  0  0  0  0
  2  8  1  0  0  0  0
  4  1  1  0  0  0  0
  6 10  1  0  0  0  0
  7  2  1  0  0  0  0
  9  6  1  0  0  0  0
  9 12  1  0  0  0  0
 11  6  1  0  0  0  0
 13  9  1  0  0  0  0
 14  9  1  0  0  0  0
M  END
$$$$
