14
butane_opt
C  -3.919459   0.290566   0.030268
C  -2.707704  -0.650714   0.012055
H  -4.749013  -0.216046  -0.082319
H  -4.042357   0.798339  -0.769433
H  -4.034970   1.235979   1.085642
C  -1.393862   0.122855  -0.013691
H  -2.651235  -1.409135  -0.839442
H  -2.695176  -1.207897   0.858320
C  -0.209493  -0.661560   0.034628
H  -1.386320   0.980676   0.965875
H  -1.328668   0.728597  -0.878551
H  -0.081736  -1.697992   1.195916
H   0.930871   0.053913  -0.185457
H  -0.252843  -0.914546  -0.603331
