14
butane_opt
C  -3.941118   0.296583   0.084942
C  -2.659977  -0.683262  -0.024457
H  -4.766592  -0.157295   0.413137
H  -4.145476   1.208836  -1.059540
H  -3.819795   0.729684   0.774299
C  -1.384988   0.157317  -0.024512
H  -2.739213  -1.472112  -1.030330
H  -2.758329  -1.076856   0.733488
C  -0.198072  -0.679891   0.075939
H  -1.374462   0.784783   0.845520
H  -1.416767   0.870798  -0.938573
H  -0.482508  -1.145320   0.908828
H   0.748858   0.024411   0.167845
H  -0.069838  -1.309544  -0.749348
