butane_opt
 OpenBabel08242015383D

 14 13  0  0  0  0  0  0  0  0999 V2000
   -3.9769    0.2975   -0.0397 C   0  0  0  0  0  0  0  0  0  0  0  0
   -2.6780   -0.6356    0.1480 C   0  0  0  0  0  0  0  0  0  0  0  0
   -4.8674   -0.2966   -0.3565 H   0  0  0  0  0  0  0  0  0  0  0  0
   -3.7201    0.7047   -0.8496 H   0  0  0  0  0  0  0  0  0  0  0  0
   -4.1164    1.1742    0.9441 H   0  0  0  0  0  0  0  0  0  0  0  0
   -1.3697    0.1521    0.0344 C   0  0  0  0  0  0  0  0  0  0  0  0
   -2.6231   -1.4067   -0.7359 H   0  0  0  0  0  0  0  0  0  0  0  0
   -2.5734   -1.1869    1.0576 H   0  0  0  0  0  0  0  0  0  0  0  0
   -0.1995   -0.6869   -0.0318 C   0  0  0  0  0  0  0  0  0  0  0  0
   -1.2562    0.7023    0.8466 H   0  0  0  0  0  0  0  0  0  0  0  0
   -1.4561    0.7461   -0.8509 H   0  0  0  0  0  0  0  0  0  0  0  0
   -0.1673   -1.2162    0.9079 H   0  0  0  0  0  0  0  0  0  0  0  0
    0.7983    0.0128    0.0310 H   0  0  0  0  0  0  0  0  0  0  0  0
   -0.3573   -1.2204   -0.8522 H   0  0  0  0  0  0  0  0  0  0  0  0
  1  2  1  0  0  0  0
  1  5  1  0  0  0  0
  2  8  1  0  0  0  0
  3  1  1  0  0  0  0
  4  1  1  0  0  0  0
  6  2  1  0  0  0  0
  6 10  1  0  0  0  0
  7  2  1  0  0  0  0
  9 13  1  0  0  0  0
  9  6  1  0  0  0  0
  9 12  1  0  0  0  0
 11  6  1  0  0  0  0
 14  9  1  0  0  0  0
M  END
$$$$
