butane_opt
 OpenBabel08242015383D

 14 13  0  0  0  0  0  0  0  0999 V2000
   -3.9303    0.2750   -0.0429 C   0  0  0  0  0  0  0  0  0  0  0  0
   -2.6654   -0.6153    0.0207 C   0  0  0  0  0  0  0  0  0  0  0  0
   -4.8296   -0.3715    0.1547 H   0  0  0  0  0  0  0  0  0  0  0  0
   -4.0503    0.9029   -0.9554 H   0  0  0  0  0  0  0  0  0  0  0  0
   -3.9823    0.9734    0.8639 H   0  0  0  0  0  0  0  0  0  0  0  0
   -1.4181    0.1436    0.1108 C   0  0  0  0  0  0  0  0  0  0  0  0
   -2.5878   -1.1571   -0.6197 H   0  0  0  0  0  0  0  0  0  0  0  0
   -2.7310   -1.2663    0.9318 H   0  0  0  0  0  0  0  0  0  0  0  0
   -0.1856   -0.6867   -0.0205 C   0  0  0  0  0  0  0  0  0  0  0  0
   -1.3180    0.9073    1.0552 H   0  0  0  0  0  0  0  0  0  0  0  0
   -1.4126    0.7126   -0.7193 H   0  0  0  0  0  0  0  0  0  0  0  0
   -0.1045   -1.4749    1.0614 H   0  0  0  0  0  0  0  0  0  0  0  0
    0.8639    0.0078   -0.3629 H   0  0  0  0  0  0  0  0  0  0  0  0
   -0.4703   -1.0905   -0.7604 H   0  0  0  0  0  0  0  0  0  0  0  0
  1  2  1  0  0  0  0
  1  3  1  0  0  0  0
  1  5  1  0  0  0  0
  2  6  1  0  0  0  0
  2  8  1  0  0  0  0
  4  1  1  0  0  0  0
  6 10  1  0  0  0  0
  7  2  1  0  0  0  0
  9  6  1  0  0  0  0
  9 12  1  0  0  0  0
 11  6  1  0  0  0  0
 13  9  1  0  0  0  0
 14  9  1  0  0  0  0
M  END
$$$$
