14
butane_opt
C  -3.890114   0.239235  -0.045048
C  -2.712960  -0.577943   0.040566
H  -4.929936  -0.443862   0.054289
H  -3.916713   0.769100  -0.870344
H  -3.908211   0.864536   0.790796
C  -1.458821   0.224841   0.114106
H  -2.591887  -1.181952  -0.651715
H  -2.815600  -1.284218   0.991553
C  -0.164152  -0.723957  -0.016096
H  -1.207291   0.957177   1.002621
H  -1.458050   0.851826  -0.775838
H   0.143092  -1.538383   0.897214
H   0.635687  -0.213934  -0.305764
H  -0.243079  -1.219690  -0.776026
