butane_opt
 OpenBabel08242015383D

 14 13  0  0  0  0  0  0  0  0999 V2000
   -3.9385    0.2308   -0.0744 C   0  0  0  0  0  0  0  0  0  0  0  0
   -2.7039   -0.5767    0.1372 C   0  0  0  0  0  0  0  0  0  0  0  0
   -4.9481   -0.4566   -0.3516 H   0  0  0  0  0  0  0  0  0  0  0  0
   -3.6305    0.5652   -0.8273 H   0  0  0  0  0  0  0  0  0  0  0  0
   -4.0947    1.1678    0.9801 H   0  0  0  0  0  0  0  0  0  0  0  0
   -1.4078    0.2273    0.0677 C   0  0  0  0  0  0  0  0  0  0  0  0
   -2.6432   -0.9873   -0.5211 H   0  0  0  0  0  0  0  0  0  0  0  0
   -2.6391   -1.4204    1.1856 H   0  0  0  0  0  0  0  0  0  0  0  0
   -0.1586   -0.7457   -0.0433 C   0  0  0  0  0  0  0  0  0  0  0  0
   -1.3761    0.8743    0.9285 H   0  0  0  0  0  0  0  0  0  0  0  0
   -1.4490    0.8815   -0.7356 H   0  0  0  0  0  0  0  0  0  0  0  0
   -0.0830   -1.1546    0.7948 H   0  0  0  0  0  0  0  0  0  0  0  0
    0.6424   -0.2140   -0.0937 H   0  0  0  0  0  0  0  0  0  0  0  0
   -0.2472   -1.4076   -0.9601 H   0  0  0  0  0  0  0  0  0  0  0  0
  1  2  1  0  0  0  0
  1  5  1  0  0  0  0
  2  8  1  0  0  0  0
  3  1  1  0  0  0  0
  4  1  1  0  0  0  0
  6  2  1  0  0  0  0
  6 10  1  0  0  0  0
  7  2  1  0  0  0  0
  9  6  1  0  0  0  0
  9 12  1  0  0  0  0
 11  6  1  0  0  0  0
 13  9  1  0  0  0  0
 14  9  1  0  0  0  0
M  END
$$$$
