14
butane_opt
C  -3.887841   0.249679  -0.069381
C  -2.706391  -0.596052   0.115963
H  -4.916413  -0.483554  -0.031338
H  -3.774896   0.914866  -1.104821
H  -3.868560   0.726833   0.728490
C  -1.434453   0.229479   0.125156
H  -2.689010  -1.107953  -0.643682
H  -2.852209  -1.160216   1.021562
C  -0.166594  -0.720263  -0.096645
H  -1.354681   1.062071   1.191417
H  -1.469430   0.691235  -0.590744
H  -0.060769  -1.566067   0.985148
H   0.585886  -0.269648  -0.179770
H  -0.257608  -1.263627  -0.838891
