14
butane_opt
C  -3.937693   0.257578   0.091418
C  -2.704657  -0.645125  -0.027085
H  -4.787934  -0.287837   0.107579
H  -4.064563   0.743585  -0.644700
H  -3.838563   1.050831   1.029404
C  -1.429128   0.218329  -0.110999
H  -2.829831  -1.201381  -0.777229
H  -2.732982  -1.246114   0.821355
C  -0.145419  -0.717749   0.123756
H  -1.556366   0.866592   0.640595
H  -1.245000   0.913440  -1.128712
H  -0.164768  -1.133227   0.877719
H   0.736410  -0.107081   0.421924
H   0.047117  -1.440588  -0.831177
