14
butane_opt
C  -3.942265   0.257443  -0.101048
C  -2.696026  -0.615138   0.140320
H  -4.971266  -0.495969  -0.090481
H  -3.860591   0.844526  -0.963543
H  -4.085978   0.906286   0.739521
C  -1.422220   0.233350   0.139970
H  -2.688327  -1.361064  -0.697161
H  -2.811187  -1.254505   1.112311
C  -0.136356  -0.714851  -0.074217
H  -1.336038   1.106265   1.166476
H  -1.483516   0.728609  -0.699347
H   0.133894  -1.484201   0.911792
H   0.643976  -0.278387  -0.457395
H  -0.181776  -1.130964  -0.831645
