butane_opt
 OpenBabel08242015383D

 14 12  0  0  0  0  0  0  0  0999 V2000
   -3.8876    0.2153   -0.0635 C   0  0  0  0  0  0  0  0  0  0  0  0
   -2.6944   -0.5687    0.1418 C   0  0  0  0  0  0  0  0  0  0  0  0
   -4.8431   -0.3896   -0.0972 H   0  0  0  0  0  0  0  0  0  0  0  0
   -3.8551    0.9132   -1.0461 H   0  0  0  0  0  0  0  0  0  0  0  0
   -4.0232    0.7333    0.7045 H   0  0  0  0  0  0  0  0  0  0  0  0
   -1.4619    0.2441    0.0760 C   0  0  0  0  0  0  0  0  0  0  0  0
   -2.7088   -1.0126   -0.5933 H   0  0  0  0  0  0  0  0  0  0  0  0
   -2.7682   -1.4342    1.2255 H   0  0  0  0  0  0  0  0  0  0  0  0
   -0.1571   -0.7373   -0.0545 C   0  0  0  0  0  0  0  0  0  0  0  0
   -1.3738    1.0151    1.0608 H   0  0  0  0  0  0  0  0  0  0  0  0
   -1.5052    0.8407   -0.7944 H   0  0  0  0  0  0  0  0  0  0  0  0
   -0.1978   -1.0432    0.6625 H   0  0  0  0  0  0  0  0  0  0  0  0
    0.8163   -0.1244    0.1777 H   0  0  0  0  0  0  0  0  0  0  0  0
   -0.1271   -1.8309   -1.1208 H   0  0  0  0  0  0  0  0  0  0  0  0
  1  2  1  0  0  0  0
  1  5  1  0  0  0  0
  2  8  1  0  0  0  0
  3  1  1  0  0  0  0
  4  1  1  0  0  0  0
  6  2  1  0  0  0  0
  6 10  1  0  0  0  0
  7  2  1  0  0  0  0
  9  6  1  0  0  0  0
  9 13  1  0  0  0  0
  9 12  1  0  0  0  0
 11  6  1  0  0  0  0
M  RAD  2   9   2  14   2
M  END
$$$$
