butane_opt
 OpenBabel08242015383D

 14 13  0  0  0  0  0  0  0  0999 V2000
   -3.9209    0.2231   -0.0977 C   0  0  0  0  0  0  0  0  0  0  0  0
   -2.7379   -0.5641    0.1560 C   0  0  0  0  0  0  0  0  0  0  0  0
   -4.8278   -0.3518   -0.0160 H   0  0  0  0  0  0  0  0  0  0  0  0
   -3.8036    0.8138   -0.9306 H   0  0  0  0  0  0  0  0  0  0  0  0
   -4.0425    0.8520    0.7960 H   0  0  0  0  0  0  0  0  0  0  0  0
   -1.4376    0.2297    0.0827 C   0  0  0  0  0  0  0  0  0  0  0  0
   -2.5645   -1.1461   -0.6277 H   0  0  0  0  0  0  0  0  0  0  0  0
   -2.9088   -1.4149    1.2292 H   0  0  0  0  0  0  0  0  0  0  0  0
   -0.1185   -0.7244   -0.0578 C   0  0  0  0  0  0  0  0  0  0  0  0
   -1.3665    1.0240    0.9744 H   0  0  0  0  0  0  0  0  0  0  0  0
   -1.4975    0.6682   -0.6615 H   0  0  0  0  0  0  0  0  0  0  0  0
    0.0068   -1.1396    0.7616 H   0  0  0  0  0  0  0  0  0  0  0  0
    0.6511   -0.2541   -0.0114 H   0  0  0  0  0  0  0  0  0  0  0  0
   -0.0751   -1.5159   -1.0754 H   0  0  0  0  0  0  0  0  0  0  0  0
  1  3  1  0  0  0  0
  1  2  1  0  0  0  0
  1  5  1  0  0  0  0
  2  8  1  0  0  0  0
  4  1  1  0  0  0  0
  6  2  1  0  0  0  0
  6 10  1  0  0  0  0
  7  2  1  0  0  0  0
  9 13  1  0  0  0  0
  9  6  1  0  0  0  0
  9 12  1  0  0  0  0
 11  6  1  0  0  0  0
 14  9  1  0  0  0  0
M  END
$$$$
