14
butane_opt
C  -3.919725   0.213339   0.031778
C  -2.748910  -0.576179  -0.051933
H  -4.859888  -0.344279   0.086244
H  -4.095456   0.812699  -0.774470
H  -3.839904   1.029689   1.055373
C  -1.408861   0.269974   0.026949
H  -2.805721  -1.311301  -0.867022
H  -2.734886  -1.335089   0.908294
C  -0.112319  -0.744675   0.062144
H  -1.395934   0.910978   0.880213
H  -1.403806   0.909625  -0.819661
H  -0.116659  -1.715518   1.180990
H   0.718244  -0.182059  -0.365353
H  -0.174595  -1.199524  -0.657823
