14
butane_opt
C  -3.946440   0.262225  -0.094275
C  -2.700272  -0.633069   0.204888
H  -4.876099  -0.333648  -0.470093
H  -3.777894   0.668588  -0.870968
H  -4.078962   1.060376   0.834919
C  -1.394796   0.218667   0.104956
H  -2.517034  -1.190678  -0.585459
H  -3.000941  -1.209519   1.136736
C  -0.181088  -0.712640  -0.070678
H  -1.233347   0.886371   0.913319
H  -1.473221   0.907090  -0.861613
H   0.129965  -1.198264   0.679273
H   0.704571  -0.162548  -0.146297
H  -0.230294  -1.541510  -0.908999
