14
butane_opt
C  -3.953979   0.273098  -0.049397
C  -2.686326  -0.653046   0.168796
H  -4.873210  -0.238258  -0.168001
H  -3.913210   0.937215  -0.984455
H  -4.042371   0.863644   0.745575
C  -1.404333   0.190757   0.044888
H  -2.739780  -1.274267  -0.721739
H  -2.611210  -1.235797   1.048360
C  -0.194363  -0.696775  -0.035368
H  -1.182618   0.871494   0.953507
H  -1.323978   0.946654  -0.893877
H  -0.182602  -0.983232   0.669713
H   0.737195  -0.125563   0.250570
H  -0.022004  -1.629594  -1.060723
