butane_opt
 OpenBabel08242015383D

 14 13  0  0  0  0  0  0  0  0999 V2000
   -3.9674    0.2978    0.1274 C   0  0  0  0  0  0  0  0  0  0  0  0
   -2.6908   -0.6828   -0.0618 C   0  0  0  0  0  0  0  0  0  0  0  0
   -4.8259   -0.3190    0.0990 H   0  0  0  0  0  0  0  0  0  0  0  0
   -4.2722    0.8598   -0.7331 H   0  0  0  0  0  0  0  0  0  0  0  0
   -3.9313    1.0437    1.0512 H   0  0  0  0  0  0  0  0  0  0  0  0
   -1.3942    0.1722   -0.1384 C   0  0  0  0  0  0  0  0  0  0  0  0
   -2.7177   -1.2073   -0.7730 H   0  0  0  0  0  0  0  0  0  0  0  0
   -2.5438   -1.2888    0.7926 H   0  0  0  0  0  0  0  0  0  0  0  0
   -0.1718   -0.6504    0.1219 C   0  0  0  0  0  0  0  0  0  0  0  0
   -1.2604    0.7259    0.7301 H   0  0  0  0  0  0  0  0  0  0  0  0
   -1.3347    0.8661   -1.0940 H   0  0  0  0  0  0  0  0  0  0  0  0
   -0.3995   -1.1710    0.9788 H   0  0  0  0  0  0  0  0  0  0  0  0
    0.6949   -0.0605    0.5412 H   0  0  0  0  0  0  0  0  0  0  0  0
    0.2454   -1.5633   -0.7593 H   0  0  0  0  0  0  0  0  0  0  0  0
  1  5  1  0  0  0  0
  2  1  1  0  0  0  0
  2  8  1  0  0  0  0
  3  1  1  0  0  0  0
  4  1  1  0  0  0  0
  6  2  1  0  0  0  0
  6  9  1  0  0  0  0
  6 10  1  0  0  0  0
  7  2  1  0  0  0  0
  9 13  1  0  0  0  0
  9 12  1  0  0  0  0
 11  6  1  0  0  0  0
 14  9  1  0  0  0  0
M  END
$$$$
