14
butane_opt
C  -3.970477   0.287337  -0.007509
C  -2.705355  -0.663895   0.033740
H  -4.823289  -0.227527   0.392481
H  -4.125908   1.182793  -1.039643
H  -3.959699   0.836132   0.669933
C  -1.390617   0.177777   0.077334
H  -2.807382  -1.487623  -0.868012
H  -2.776988  -1.283396   0.946657
C  -0.123851  -0.664143   0.000329
H  -1.291588   0.795094   0.852453
H  -1.415079   0.848503  -0.842774
H  -0.210960  -1.259681   0.893756
H   0.757845  -0.096012   0.130809
H  -0.099916  -1.409800  -0.956252
