butane_opt
 OpenBabel08242015383D

 14 13  0  0  0  0  0  0  0  0999 V2000
   -3.9770    0.3084    0.1255 C   0  0  0  0  0  0  0  0  0  0  0  0
   -2.7131   -0.6452   -0.0454 C   0  0  0  0  0  0  0  0  0  0  0  0
   -4.8252   -0.1925    0.2039 H   0  0  0  0  0  0  0  0  0  0  0  0
   -4.1682    0.8621   -0.7239 H   0  0  0  0  0  0  0  0  0  0  0  0
   -3.9668    0.9818    1.0324 H   0  0  0  0  0  0  0  0  0  0  0  0
   -1.3544    0.1240   -0.1322 C   0  0  0  0  0  0  0  0  0  0  0  0
   -2.8253   -1.4589   -0.9700 H   0  0  0  0  0  0  0  0  0  0  0  0
   -2.7087   -1.2262    0.8109 H   0  0  0  0  0  0  0  0  0  0  0  0
   -0.1302   -0.6570    0.1174 C   0  0  0  0  0  0  0  0  0  0  0  0
   -1.4851    0.7091    0.6491 H   0  0  0  0  0  0  0  0  0  0  0  0
   -1.2847    0.9675   -1.0841 H   0  0  0  0  0  0  0  0  0  0  0  0
   -0.6413   -1.1857    1.0651 H   0  0  0  0  0  0  0  0  0  0  0  0
    0.8049    0.0490    0.4712 H   0  0  0  0  0  0  0  0  0  0  0  0
    0.1549   -1.5394   -0.8250 H   0  0  0  0  0  0  0  0  0  0  0  0
  1  3  1  0  0  0  0
  1  5  1  0  0  0  0
  2  1  1  0  0  0  0
  2  8  1  0  0  0  0
  4  1  1  0  0  0  0
  6  2  1  0  0  0  0
  6  9  1  0  0  0  0
  6 10  1  0  0  0  0
  7  2  1  0  0  0  0
  9 13  1  0  0  0  0
  9 12  1  0  0  0  0
 11  6  1  0  0  0  0
 14  9  1  0  0  0  0
M  END
$$$$
