14
butane_opt
C  -3.943984   0.287601  -0.052571
C  -2.649784  -0.644690   0.099372
H  -4.853924  -0.205515  -0.100537
H  -3.883086   1.052364  -1.087546
H  -4.086563   0.704027   0.662040
C  -1.413053   0.176861   0.122447
H  -2.537309  -1.314214  -0.675793
H  -2.674420  -1.379216   1.130628
C  -0.202786  -0.677638  -0.064017
H  -1.261434   1.004302   1.053811
H  -1.337767   0.537988  -0.519615
H  -0.098343  -1.326980   0.852528
H   0.683743  -0.065260  -0.298220
H  -0.440826  -1.176943  -0.865695
