butane_opt
 OpenBabel08242015383D

 14 13  0  0  0  0  0  0  0  0999 V2000
   -3.9344    0.2760    0.0451 C   0  0  0  0  0  0  0  0  0  0  0  0
   -2.6968   -0.6353   -0.0033 C   0  0  0  0  0  0  0  0  0  0  0  0
   -4.8246   -0.3099    0.1762 H   0  0  0  0  0  0  0  0  0  0  0  0
   -4.0336    0.9549   -0.8745 H   0  0  0  0  0  0  0  0  0  0  0  0
   -3.8861    0.9049    0.8697 H   0  0  0  0  0  0  0  0  0  0  0  0
   -1.4055    0.1795    0.0002 C   0  0  0  0  0  0  0  0  0  0  0  0
   -2.6810   -1.3512   -0.8797 H   0  0  0  0  0  0  0  0  0  0  0  0
   -2.7231   -1.2127    0.8503 H   0  0  0  0  0  0  0  0  0  0  0  0
   -0.1700   -0.6839    0.0597 C   0  0  0  0  0  0  0  0  0  0  0  0
   -1.4175    0.8184    0.7942 H   0  0  0  0  0  0  0  0  0  0  0  0
   -1.3641    0.8323   -0.9132 H   0  0  0  0  0  0  0  0  0  0  0  0
   -0.1904   -1.2934    0.9615 H   0  0  0  0  0  0  0  0  0  0  0  0
    0.7484   -0.1090   -0.0007 H   0  0  0  0  0  0  0  0  0  0  0  0
   -0.1723   -1.3346   -0.7652 H   0  0  0  0  0  0  0  0  0  0  0  0
  1  3  1  0  0  0  0
  1  5  1  0  0  0  0
  2  6  1  0  0  0  0
  2  1  1  0  0  0  0
  2  8  1  0  0  0  0
  4  1  1  0  0  0  0
  6  9  1  0  0  0  0
  6 10  1  0  0  0  0
  7  2  1  0  0  0  0
  9 12  1  0  0  0  0
 11  6  1  0  0  0  0
 13  9  1  0  0  0  0
 14  9  1  0  0  0  0
M  END
$$$$
