14
butane_opt
C  -3.967115   0.308834  -0.053661
C  -2.687560  -0.659723   0.113557
H  -4.868661  -0.284307   0.127614
H  -4.132796   1.023536  -1.005163
H  -4.147890   0.893397   0.774983
C  -1.396029   0.119180   0.025369
H  -2.744978  -1.125668  -0.584150
H  -2.823874  -1.504805   1.160708
C  -0.126463  -0.656295  -0.008610
H  -1.339345   0.916336   0.997699
H  -1.386887   0.770378  -0.795981
H  -0.174379  -0.805141   0.572002
H   0.878851  -0.053521   0.352539
H  -0.161233  -1.643673  -1.125797
