butane_opt
 OpenBabel08242015383D

 14 12  0  0  0  0  0  0  0  0999 V2000
   -3.9380    0.2873   -0.0327 C   0  0  0  0  0  0  0  0  0  0  0  0
   -2.6454   -0.6343    0.1296 C   0  0  0  0  0  0  0  0  0  0  0  0
   -4.7236   -0.2428    0.1283 H   0  0  0  0  0  0  0  0  0  0  0  0
   -4.0882    1.0901   -1.1015 H   0  0  0  0  0  0  0  0  0  0  0  0
   -3.9592    0.6227    0.5650 H   0  0  0  0  0  0  0  0  0  0  0  0
   -1.4239    0.1560    0.0397 C   0  0  0  0  0  0  0  0  0  0  0  0
   -2.6666   -1.3343   -0.6824 H   0  0  0  0  0  0  0  0  0  0  0  0
   -2.5095   -1.2737    1.0502 H   0  0  0  0  0  0  0  0  0  0  0  0
   -0.2130   -0.6496   -0.0186 C   0  0  0  0  0  0  0  0  0  0  0  0
   -1.2746    0.7967    0.9430 H   0  0  0  0  0  0  0  0  0  0  0  0
   -1.3114    0.6752   -0.8351 H   0  0  0  0  0  0  0  0  0  0  0  0
   -0.3345   -0.9031    0.6113 H   0  0  0  0  0  0  0  0  0  0  0  0
    0.6539   -0.0603    0.3802 H   0  0  0  0  0  0  0  0  0  0  0  0
   -0.1691   -1.7410   -1.1212 H   0  0  0  0  0  0  0  0  0  0  0  0
  1  3  1  0  0  0  0
  1  2  1  0  0  0  0
  1  5  1  0  0  0  0
  2  8  1  0  0  0  0
  4  1  1  0  0  0  0
  6  2  1  0  0  0  0
  6 10  1  0  0  0  0
  7  2  1  0  0  0  0
  9  6  1  0  0  0  0
  9 13  1  0  0  0  0
  9 12  1  0  0  0  0
 11  6  1  0  0  0  0
M  RAD  2   9   2  14   2
M  END
$$$$
