butane_opt
 OpenBabel08242015383D

 14 13  0  0  0  0  0  0  0  0999 V2000
   -3.8969    0.2837   -0.0638 C   0  0  0  0  0  0  0  0  0  0  0  0
   -2.6755   -0.6369    0.1155 C   0  0  0  0  0  0  0  0  0  0  0  0
   -4.7269   -0.1911    0.3495 H   0  0  0  0  0  0  0  0  0  0  0  0
   -4.0717    1.2234   -1.2055 H   0  0  0  0  0  0  0  0  0  0  0  0
   -3.9618    0.6066    0.5815 H   0  0  0  0  0  0  0  0  0  0  0  0
   -1.4217    0.1369    0.1150 C   0  0  0  0  0  0  0  0  0  0  0  0
   -2.6319   -1.5041   -0.8591 H   0  0  0  0  0  0  0  0  0  0  0  0
   -2.7294   -1.2404    0.9603 H   0  0  0  0  0  0  0  0  0  0  0  0
   -0.2063   -0.6551   -0.0482 C   0  0  0  0  0  0  0  0  0  0  0  0
   -1.4801    0.9421    1.0513 H   0  0  0  0  0  0  0  0  0  0  0  0
   -1.4805    0.7020   -0.6702 H   0  0  0  0  0  0  0  0  0  0  0  0
   -0.0284   -1.2289    0.7793 H   0  0  0  0  0  0  0  0  0  0  0  0
    0.7263    0.0095    0.0008 H   0  0  0  0  0  0  0  0  0  0  0  0
   -0.2645   -1.2979   -0.9968 H   0  0  0  0  0  0  0  0  0  0  0  0
  1  2  1  0  0  0  0
  1  3  1  0  0  0  0
  1  5  1  0  0  0  0
  2  8  1  0  0  0  0
  4  1  1  0  0  0  0
  6  2  1  0  0  0  0
  6 10  1  0  0  0  0
  7  2  1  0  0  0  0
  9 13  1  0  0  0  0
  9  6  1  0  0  0  0
  9 12  1  0  0  0  0
 11  6  1  0  0  0  0
 14  9  1  0  0  0  0
M  END
$$$$
