14
butane_opt
C  -3.965384   0.303462  -0.022426
C  -2.722617  -0.655869   0.023263
H  -4.823671  -0.245924   0.571939
H  -4.190393   1.300304  -1.277205
H  -3.926626   0.613091   0.637588
C  -1.365799   0.171983   0.088365
H  -2.606375  -1.374111  -0.781569
H  -2.746523  -1.470682   1.074037
C  -0.183160  -0.662438  -0.011728
H  -1.286001   0.997273   1.001627
H  -1.257089   0.630281  -0.668124
H  -0.038610  -1.161567   0.793537
H   0.735547  -0.070399   0.077929
H  -0.058103  -1.533801  -0.968356
