butane_opt
 OpenBabel08242015383D

 14 12  0  0  0  0  0  0  0  0999 V2000
   -3.9490    0.2411    0.0053 C   0  0  0  0  0  0  0  0  0  0  0  0
   -2.7503   -0.5813    0.0041 C   0  0  0  0  0  0  0  0  0  0  0  0
   -4.8283   -0.3272    0.4684 H   0  0  0  0  0  0  0  0  0  0  0  0
   -4.3070    1.1948   -1.1320 H   0  0  0  0  0  0  0  0  0  0  0  0
   -3.6732    0.5634    0.6260 H   0  0  0  0  0  0  0  0  0  0  0  0
   -1.4234    0.1823    0.0714 C   0  0  0  0  0  0  0  0  0  0  0  0
   -2.7877   -1.1620   -0.8775 H   0  0  0  0  0  0  0  0  0  0  0  0
   -2.7747   -1.2469    0.9158 H   0  0  0  0  0  0  0  0  0  0  0  0
   -0.0933   -0.7217    0.0050 C   0  0  0  0  0  0  0  0  0  0  0  0
   -1.2918    1.0021    1.0622 H   0  0  0  0  0  0  0  0  0  0  0  0
   -1.3671    0.8287   -0.8489 H   0  0  0  0  0  0  0  0  0  0  0  0
   -0.1377   -1.2354    0.9156 H   0  0  0  0  0  0  0  0  0  0  0  0
    0.7937   -0.1311    0.1446 H   0  0  0  0  0  0  0  0  0  0  0  0
   -0.0485   -1.4142   -0.9113 H   0  0  0  0  0  0  0  0  0  0  0  0
  1  3  1  0  0  0  0
  1  5  1  0  0  0  0
  2  1  1  0  0  0  0
  2  6  1  0  0  0  0
  2  8  1  0  0  0  0
  6 10  1  0  0  0  0
  7  2  1  0  0  0  0
  9  6  1  0  0  0  0
  9 13  1  0  0  0  0
  9 12  1  0  0  0  0
 11  6  1  0  0  0  0
 14  9  1  0  0  0  0
M  RAD  2   1   2   4   2
M  END
$$$$
