14
butane_opt
C  -3.942534   0.209091  -0.076120
C  -2.695136  -0.572945   0.079877
H  -4.959967  -0.434800   0.582647
H  -4.201537   1.326730  -1.186055
H  -3.841466   0.494270   0.569331
C  -1.431355   0.253832   0.122748
H  -2.638502  -1.268236  -0.839965
H  -2.866929  -1.279316   1.087403
C  -0.127128  -0.721001  -0.034108
H  -1.394459   1.001648   1.061075
H  -1.318221   0.763616  -0.666811
H  -0.001308  -1.205689   0.701421
H   0.654369  -0.227997   0.011781
H  -0.054502  -1.691874  -1.061086
