butane_opt
 OpenBabel08242015383D

 14 13  0  0  0  0  0  0  0  0999 V2000
   -3.9472    0.2401    0.0910 C   0  0  0  0  0  0  0  0  0  0  0  0
   -2.7389   -0.6007    0.0039 C   0  0  0  0  0  0  0  0  0  0  0  0
   -4.9051   -0.4090   -0.0156 H   0  0  0  0  0  0  0  0  0  0  0  0
   -4.0414    0.5910   -0.5651 H   0  0  0  0  0  0  0  0  0  0  0  0
   -3.9564    1.0386    1.0639 H   0  0  0  0  0  0  0  0  0  0  0  0
   -1.3931    0.2708   -0.1137 C   0  0  0  0  0  0  0  0  0  0  0  0
   -2.6513   -1.3467   -0.9414 H   0  0  0  0  0  0  0  0  0  0  0  0
   -2.8215   -1.0802    0.7651 H   0  0  0  0  0  0  0  0  0  0  0  0
   -0.1351   -0.7589    0.1224 C   0  0  0  0  0  0  0  0  0  0  0  0
   -1.3481    0.7315    0.6364 H   0  0  0  0  0  0  0  0  0  0  0  0
   -1.2645    1.0732   -1.1861 H   0  0  0  0  0  0  0  0  0  0  0  0
   -0.1373   -1.2449    0.9905 H   0  0  0  0  0  0  0  0  0  0  0  0
    0.6657   -0.2605    0.3051 H   0  0  0  0  0  0  0  0  0  0  0  0
    0.0441   -1.4284   -0.8159 H   0  0  0  0  0  0  0  0  0  0  0  0
  1  5  1  0  0  0  0
  2  1  1  0  0  0  0
  2  8  1  0  0  0  0
  3  1  1  0  0  0  0
  4  1  1  0  0  0  0
  6  2  1  0  0  0  0
  6  9  1  0  0  0  0
  6 10  1  0  0  0  0
  7  2  1  0  0  0  0
  9 13  1  0  0  0  0
  9 12  1  0  0  0  0
 11  6  1  0  0  0  0
 14  9  1  0  0  0  0
M  END
$$$$
