butane_opt
 OpenBabel08242015383D

 14 13  0  0  0  0  0  0  0  0999 V2000
   -3.9531    0.2578   -0.0018 C   0  0  0  0  0  0  0  0  0  0  0  0
   -2.7051   -0.6203    0.0575 C   0  0  0  0  0  0  0  0  0  0  0  0
   -4.9005   -0.3301   -0.0394 H   0  0  0  0  0  0  0  0  0  0  0  0
   -3.8933    0.8007   -0.8749 H   0  0  0  0  0  0  0  0  0  0  0  0
   -4.0018    0.9841    0.8933 H   0  0  0  0  0  0  0  0  0  0  0  0
   -1.4029    0.2000    0.0261 C   0  0  0  0  0  0  0  0  0  0  0  0
   -2.7229   -1.1965   -0.7182 H   0  0  0  0  0  0  0  0  0  0  0  0
   -2.7035   -1.2925    0.9965 H   0  0  0  0  0  0  0  0  0  0  0  0
   -0.1494   -0.6976    0.0160 C   0  0  0  0  0  0  0  0  0  0  0  0
   -1.4191    0.8950    0.8723 H   0  0  0  0  0  0  0  0  0  0  0  0
   -1.3964    0.8389   -0.8683 H   0  0  0  0  0  0  0  0  0  0  0  0
   -0.0818   -1.3021    0.8852 H   0  0  0  0  0  0  0  0  0  0  0  0
    0.7263   -0.1426    0.0084 H   0  0  0  0  0  0  0  0  0  0  0  0
   -0.1038   -1.4188   -0.8895 H   0  0  0  0  0  0  0  0  0  0  0  0
  1  2  1  0  0  0  0
  1  5  1  0  0  0  0
  2  8  1  0  0  0  0
  3  1  1  0  0  0  0
  4  1  1  0  0  0  0
  6  2  1  0  0  0  0
  6 10  1  0  0  0  0
  7  2  1  0  0  0  0
  9  6  1  0  0  0  0
  9 12  1  0  0  0  0
 11  6  1  0  0  0  0
 13  9  1  0  0  0  0
 14  9  1  0  0  0  0
M  END
$$$$
