14
butane_opt
C  -3.985155   0.220417   0.015425
C  -2.714635  -0.602656   0.080275
H  -4.872553  -0.347102  -0.034187
H  -4.005204   0.882992  -0.899490
H  -3.852331   0.882648   0.868300
C  -1.397562   0.245470  -0.015752
H  -2.627447  -1.258038  -0.774345
H  -2.741064  -1.135277   0.937654
C  -0.129955  -0.712804   0.041833
H  -1.339833   0.759971   0.750596
H  -1.514914   0.997426  -0.924551
H  -0.102268  -1.192209   0.813006
H   0.665402  -0.183120   0.304173
H   0.098751  -1.716265  -1.085329
