butane_opt
 OpenBabel08242015383D

 14 12  0  0  0  0  0  0  0  0999 V2000
   -3.9685    0.2443   -0.0352 C   0  0  0  0  0  0  0  0  0  0  0  0
   -2.6877   -0.6181    0.1421 C   0  0  0  0  0  0  0  0  0  0  0  0
   -4.8084   -0.2939    0.0905 H   0  0  0  0  0  0  0  0  0  0  0  0
   -3.9890    1.0213   -1.1113 H   0  0  0  0  0  0  0  0  0  0  0  0
   -4.0478    0.6745    0.6040 H   0  0  0  0  0  0  0  0  0  0  0  0
   -1.4113    0.2154    0.0411 C   0  0  0  0  0  0  0  0  0  0  0  0
   -2.6536   -1.1292   -0.5603 H   0  0  0  0  0  0  0  0  0  0  0  0
   -2.6778   -1.3033    1.0392 H   0  0  0  0  0  0  0  0  0  0  0  0
   -0.1707   -0.7028   -0.0545 C   0  0  0  0  0  0  0  0  0  0  0  0
   -1.2917    0.9650    0.9930 H   0  0  0  0  0  0  0  0  0  0  0  0
   -1.3138    0.8030   -0.7565 H   0  0  0  0  0  0  0  0  0  0  0  0
   -0.3003   -0.9417    0.5978 H   0  0  0  0  0  0  0  0  0  0  0  0
    0.7084   -0.2132    0.4625 H   0  0  0  0  0  0  0  0  0  0  0  0
    0.2173   -1.7374   -1.1171 H   0  0  0  0  0  0  0  0  0  0  0  0
  1  3  1  0  0  0  0
  1  2  1  0  0  0  0
  1  5  1  0  0  0  0
  2  8  1  0  0  0  0
  4  1  1  0  0  0  0
  6  2  1  0  0  0  0
  6 10  1  0  0  0  0
  7  2  1  0  0  0  0
  9  6  1  0  0  0  0
  9 13  1  0  0  0  0
  9 12  1  0  0  0  0
 11  6  1  0  0  0  0
M  RAD  2   9   2  14   2
M  END
$$$$
