14
butane_opt
C  -3.896983   0.228067   0.040938
C  -2.699477  -0.554287   0.009011
H  -4.852468  -0.350083  -0.037021
H  -3.897223   0.727892  -0.754568
H  -3.939654   1.043922   0.959872
C  -1.419400   0.177321   0.009834
H  -2.806399  -1.525634  -1.047253
H  -2.612899  -1.042313   0.749718
C  -0.160897  -0.704262   0.048584
H  -1.446232   0.862277   0.821160
H  -1.594383   0.848410  -0.933111
H  -0.043616  -1.648464   1.274181
H   0.708015  -0.217207  -0.299059
H  -0.394672  -0.936540  -0.525478
