butane_opt
 OpenBabel08242015383D

 14 13  0  0  0  0  0  0  0  0999 V2000
   -3.9129    0.2490    0.1405 C   0  0  0  0  0  0  0  0  0  0  0  0
   -2.6782   -0.5747   -0.0444 C   0  0  0  0  0  0  0  0  0  0  0  0
   -4.8364   -0.4828   -0.0442 H   0  0  0  0  0  0  0  0  0  0  0  0
   -3.9000    0.7139   -0.5917 H   0  0  0  0  0  0  0  0  0  0  0  0
   -3.8240    0.9145    1.0526 H   0  0  0  0  0  0  0  0  0  0  0  0
   -1.4056    0.2457   -0.1592 C   0  0  0  0  0  0  0  0  0  0  0  0
   -2.9759   -1.3688   -1.0300 H   0  0  0  0  0  0  0  0  0  0  0  0
   -2.6459   -1.2000    0.8287 H   0  0  0  0  0  0  0  0  0  0  0  0
   -0.2130   -0.7407    0.1528 C   0  0  0  0  0  0  0  0  0  0  0  0
   -1.4567    0.7885    0.6110 H   0  0  0  0  0  0  0  0  0  0  0  0
   -1.3595    0.9129   -1.1332 H   0  0  0  0  0  0  0  0  0  0  0  0
   -0.2473   -1.2364    0.9781 H   0  0  0  0  0  0  0  0  0  0  0  0
    0.6349   -0.1919    0.3834 H   0  0  0  0  0  0  0  0  0  0  0  0
    0.1089   -1.4785   -0.7000 H   0  0  0  0  0  0  0  0  0  0  0  0
  1  5  1  0  0  0  0
  2  1  1  0  0  0  0
  2  8  1  0  0  0  0
  3  1  1  0  0  0  0
  4  1  1  0  0  0  0
  6  2  1  0  0  0  0
  6  9  1  0  0  0  0
  6 10  1  0  0  0  0
  7  2  1  0  0  0  0
  9 13  1  0  0  0  0
  9 12  1  0  0  0  0
 11  6  1  0  0  0  0
 14  9  1  0  0  0  0
M  END
$$$$
