14
butane_opt
C  -3.947497   0.261180   0.081912
C  -2.672032  -0.600819  -0.001758
H  -4.775515  -0.227011   0.024127
H  -4.004229   0.878952  -0.814018
H  -3.820094   1.009944   0.904413
C  -1.398021   0.125849  -0.072448
H  -2.909722  -1.226488  -0.855979
H  -2.637764  -1.203458   0.948338
C  -0.176102  -0.687847   0.066387
H  -1.423148   0.823231   0.752001
H  -1.437378   0.768794  -0.977250
H  -0.499616  -1.140457   0.901977
H   0.790403  -0.012033   0.396245
H   0.008976  -1.323271  -0.748823
