butane_opt
 OpenBabel08242015383D

 14 13  0  0  0  0  0  0  0  0999 V2000
   -3.9750    0.2925   -0.0724 C   0  0  0  0  0  0  0  0  0  0  0  0
   -2.6890   -0.6828    0.1521 C   0  0  0  0  0  0  0  0  0  0  0  0
   -4.8466   -0.1628   -0.1561 H   0  0  0  0  0  0  0  0  0  0  0  0
   -3.9250    0.9642   -0.9837 H   0  0  0  0  0  0  0  0  0  0  0  0
   -4.1450    1.0174    0.8125 H   0  0  0  0  0  0  0  0  0  0  0  0
   -1.3946    0.1640    0.1094 C   0  0  0  0  0  0  0  0  0  0  0  0
   -2.4957   -1.5409   -0.7337 H   0  0  0  0  0  0  0  0  0  0  0  0
   -2.7238   -1.2903    1.0068 H   0  0  0  0  0  0  0  0  0  0  0  0
   -0.1509   -0.6506   -0.0643 C   0  0  0  0  0  0  0  0  0  0  0  0
   -1.2877    0.9179    1.0013 H   0  0  0  0  0  0  0  0  0  0  0  0
   -1.3882    0.7758   -0.8176 H   0  0  0  0  0  0  0  0  0  0  0  0
   -0.0280   -1.3171    0.8307 H   0  0  0  0  0  0  0  0  0  0  0  0
    0.6767   -0.1343   -0.1694 H   0  0  0  0  0  0  0  0  0  0  0  0
   -0.3480   -1.1661   -0.8261 H   0  0  0  0  0  0  0  0  0  0  0  0
  1  2  1  0  0  0  0
  1  5  1  0  0  0  0
  2  8  1  0  0  0  0
  3  1  1  0  0  0  0
  4  1  1  0  0  0  0
  6  2  1  0  0  0  0
  6 10  1  0  0  0  0
  7  2  1  0  0  0  0
  9  6  1  0  0  0  0
  9 12  1  0  0  0  0
 11  6  1  0  0  0  0
 13  9  1  0  0  0  0
 14  9  1  0  0  0  0
M  END
$$$$
