14
butane_opt
C  -3.956579   0.245182   0.091772
C  -2.720318  -0.622813   0.003744
H  -4.839795  -0.281509  -0.372007
H  -3.942516   0.426979  -0.566357
H  -4.119295   1.420162   1.322486
C  -1.421734   0.212164  -0.128850
H  -2.775918  -1.295567  -0.830524
H  -2.713698  -1.182711   0.808872
C  -0.128672  -0.708755   0.109876
H  -1.254169   0.790649   0.648112
H  -1.443768   0.876177  -1.009489
H  -0.037778  -1.553277   1.116573
H   0.752853  -0.095883   0.109273
H   0.075939  -1.091930  -0.610172
