14
butane_opt
C  -3.912856   0.249006   0.140529
C  -2.678161  -0.574738  -0.044409
H  -4.836431  -0.482825  -0.044242
H  -3.899972   0.713907  -0.591656
H  -3.823987   0.914473   1.052566
C  -1.405583   0.245684  -0.159213
H  -2.975912  -1.368782  -1.030004
H  -2.645908  -1.199991   0.828675
C  -0.212959  -0.740710   0.152832
H  -1.456683   0.788500   0.611038
H  -1.359457   0.912889  -1.133176
H  -0.247312  -1.236438   0.978101
H   0.634932  -0.191851   0.383401
H   0.108879  -1.478541  -0.699985
