butane_opt
 OpenBabel08242015383D

 14 13  0  0  0  0  0  0  0  0999 V2000
   -3.8722    0.2464   -0.0297 C   0  0  0  0  0  0  0  0  0  0  0  0
   -2.7192   -0.5933    0.1463 C   0  0  0  0  0  0  0  0  0  0  0  0
   -4.8331   -0.4395   -0.4946 H   0  0  0  0  0  0  0  0  0  0  0  0
   -3.6912    0.5739   -0.7413 H   0  0  0  0  0  0  0  0  0  0  0  0
   -4.1280    1.1148    0.8731 H   0  0  0  0  0  0  0  0  0  0  0  0
   -1.4338    0.2329    0.0366 C   0  0  0  0  0  0  0  0  0  0  0  0
   -2.7311   -1.2178   -0.6486 H   0  0  0  0  0  0  0  0  0  0  0  0
   -2.7742   -1.2717    1.0291 H   0  0  0  0  0  0  0  0  0  0  0  0
   -0.1734   -0.7222   -0.0096 C   0  0  0  0  0  0  0  0  0  0  0  0
   -1.5381    0.8427    0.8311 H   0  0  0  0  0  0  0  0  0  0  0  0
   -1.4330    0.9313   -0.8577 H   0  0  0  0  0  0  0  0  0  0  0  0
    0.0218   -1.3460    0.7732 H   0  0  0  0  0  0  0  0  0  0  0  0
    0.7500   -0.1978   -0.0964 H   0  0  0  0  0  0  0  0  0  0  0  0
   -0.2742   -1.4441   -0.9379 H   0  0  0  0  0  0  0  0  0  0  0  0
  1  2  1  0  0  0  0
  1  5  1  0  0  0  0
  2  8  1  0  0  0  0
  3  1  1  0  0  0  0
  4  1  1  0  0  0  0
  6  2  1  0  0  0  0
  6 10  1  0  0  0  0
  7  2  1  0  0  0  0
  9  6  1  0  0  0  0
  9 12  1  0  0  0  0
 11  6  1  0  0  0  0
 13  9  1  0  0  0  0
 14  9  1  0  0  0  0
M  END
$$$$
