14
butane_opt
C  -3.959753   0.255207  -0.035416
C  -2.705552  -0.625486   0.121863
H  -4.845714  -0.269958  -0.289904
H  -3.974719   0.691314  -0.781352
H  -4.292435   1.113427   0.934313
C  -1.387605   0.199578   0.056212
H  -2.431884  -1.285436  -0.793534
H  -2.852346  -1.363185   1.099949
C  -0.148414  -0.683642  -0.020517
H  -1.286444   0.816489   0.872456
H  -1.422341   0.871875  -0.877350
H   0.026249  -1.350141   0.777279
H   0.653548  -0.148127  -0.067515
H  -0.152233  -1.311376  -0.846850
