14
butane_opt
C  -3.914794   0.243258  -0.088275
C  -2.705716  -0.585908   0.121686
H  -4.896940  -0.440950  -0.108713
H  -3.739458   0.933757  -1.147800
H  -4.034927   0.772474   0.716120
C  -1.430542   0.217082   0.192901
H  -2.686950  -1.121528  -0.694136
H  -2.873311  -1.208885   1.044924
C  -0.144062  -0.726970  -0.062412
H  -1.280565   0.942557   1.095156
H  -1.488175   0.870989  -0.745860
H   0.125221  -1.472285   0.837164
H   0.755249  -0.150095  -0.510784
H  -0.537924  -1.384024  -1.007364
