butane_opt
 OpenBabel08242015383D

 14 13  0  0  0  0  0  0  0  0999 V2000
   -3.9157    0.2586   -0.0025 C   0  0  0  0  0  0  0  0  0  0  0  0
   -2.6880   -0.6078    0.0416 C   0  0  0  0  0  0  0  0  0  0  0  0
   -4.9336   -0.4368    0.4785 H   0  0  0  0  0  0  0  0  0  0  0  0
   -3.8822    1.2415   -1.1275 H   0  0  0  0  0  0  0  0  0  0  0  0
   -3.7647    0.6299    0.6828 H   0  0  0  0  0  0  0  0  0  0  0  0
   -1.4244    0.1979    0.0688 C   0  0  0  0  0  0  0  0  0  0  0  0
   -2.8387   -1.3494   -0.9270 H   0  0  0  0  0  0  0  0  0  0  0  0
   -2.6702   -1.1814    0.8267 H   0  0  0  0  0  0  0  0  0  0  0  0
   -0.1855   -0.7025    0.0039 C   0  0  0  0  0  0  0  0  0  0  0  0
   -1.3598    0.8667    0.9527 H   0  0  0  0  0  0  0  0  0  0  0  0
   -1.4251    0.8612   -0.9019 H   0  0  0  0  0  0  0  0  0  0  0  0
   -0.1829   -1.2342    0.8222 H   0  0  0  0  0  0  0  0  0  0  0  0
    0.6067   -0.1485    0.1938 H   0  0  0  0  0  0  0  0  0  0  0  0
   -0.0160   -1.4812   -0.9357 H   0  0  0  0  0  0  0  0  0  0  0  0
  1  2  1  0  0  0  0
  1  3  1  0  0  0  0
  1  5  1  0  0  0  0
  2  6  1  0  0  0  0
  2  8  1  0  0  0  0
  4  1  1  0  0  0  0
  6 10  1  0  0  0  0
  7  2  1  0  0  0  0
  9  6  1  0  0  0  0
  9 13  1  0  0  0  0
  9 12  1  0  0  0  0
 11  6  1  0  0  0  0
 14  9  1  0  0  0  0
M  END
$$$$
