14
butane_opt
C  -3.980045   0.281041  -0.046639
C  -2.727870  -0.642647   0.075873
H  -4.832113  -0.270834   0.423078
H  -4.273144   1.345747  -1.252298
H  -3.853068   0.528503   0.504186
C  -1.401913   0.158415   0.090714
H  -2.555126  -1.141870  -0.652425
H  -2.694491  -1.349236   0.972740
C  -0.105118  -0.652243  -0.021178
H  -1.416434   0.965288   1.130727
H  -1.362871   0.536724  -0.657947
H  -0.044375  -1.089461   0.712123
H   0.841115  -0.030028   0.081575
H  -0.272182  -1.672927  -1.087746
