14
butane_opt
C  -3.955961   0.296568   0.078953
C  -2.691255  -0.623911   0.018289
H  -4.876506  -0.283352  -0.293748
H  -3.901182   0.641553  -0.613803
H  -4.200759   1.133934   1.058888
C  -1.402559   0.145353  -0.055336
H  -2.670633  -1.510575  -0.920835
H  -2.750439  -1.143151   0.878370
C  -0.150313  -0.667250   0.069417
H  -1.427549   0.593381   0.677825
H  -1.389153   0.836931  -1.031599
H  -0.158224  -1.378377   1.035015
H   0.877528  -0.043232   0.022444
H  -0.142763  -1.100698  -0.656722
