14
butane_opt
C  -3.964693   0.297691   0.061662
C  -2.683652  -0.631264   0.053394
H  -4.883647  -0.378171  -0.051411
H  -3.877106   0.875651  -0.763352
H  -3.957597   1.016274   0.957514
C  -1.365328   0.144666  -0.087978
H  -2.782699  -1.346318  -0.884556
H  -2.530545  -1.215258   0.852325
C  -0.195556  -0.669425   0.081267
H  -1.439415   0.743148   0.651835
H  -1.393925   0.838113  -0.973081
H  -0.438091  -1.080504   0.871467
H   0.807328  -0.028127   0.331572
H  -0.026473  -1.597596  -0.882548
