butane_opt
 OpenBabel08242015383D

 14 13  0  0  0  0  0  0  0  0999 V2000
   -3.9909    0.3190    0.0582 C   0  0  0  0  0  0  0  0  0  0  0  0
   -2.7080   -0.6732   -0.0359 C   0  0  0  0  0  0  0  0  0  0  0  0
   -4.9817   -0.3352    0.1783 H   0  0  0  0  0  0  0  0  0  0  0  0
   -4.1712    1.0053   -0.8009 H   0  0  0  0  0  0  0  0  0  0  0  0
   -3.9587    0.9953    0.9638 H   0  0  0  0  0  0  0  0  0  0  0  0
   -1.3669    0.1551   -0.0153 C   0  0  0  0  0  0  0  0  0  0  0  0
   -2.7259   -1.4490   -0.9047 H   0  0  0  0  0  0  0  0  0  0  0  0
   -2.6688   -1.1593    0.7077 H   0  0  0  0  0  0  0  0  0  0  0  0
   -0.1429   -0.6662    0.0703 C   0  0  0  0  0  0  0  0  0  0  0  0
   -1.3616    0.8208    0.8594 H   0  0  0  0  0  0  0  0  0  0  0  0
   -1.1481    0.6822   -0.7966 H   0  0  0  0  0  0  0  0  0  0  0  0
   -0.1984   -1.5483    1.1040 H   0  0  0  0  0  0  0  0  0  0  0  0
    0.8290   -0.0425   -0.2612 H   0  0  0  0  0  0  0  0  0  0  0  0
   -0.1337   -1.0349   -0.5333 H   0  0  0  0  0  0  0  0  0  0  0  0
  1  3  1  0  0  0  0
  1  5  1  0  0  0  0
  2  6  1  0  0  0  0
  2  1  1  0  0  0  0
  2  8  1  0  0  0  0
  4  1  1  0  0  0  0
  6  9  1  0  0  0  0
  6 10  1  0  0  0  0
  7  2  1  0  0  0  0
  9 12  1  0  0  0  0
 11  6  1  0  0  0  0
 13  9  1  0  0  0  0
 14  9  1  0  0  0  0
M  END
$$$$
