14
butane_opt
C  -3.941539   0.289268   0.127604
C  -2.682158  -0.662437  -0.089480
H  -4.720529  -0.143521   0.342589
H  -4.068431   0.971483  -0.794029
H  -3.844470   0.827768   1.023753
C  -1.426316   0.174379  -0.127867
H  -2.851500  -1.451291  -1.031268
H  -2.514926  -1.229699   0.782101
C  -0.170893  -0.662869   0.163343
H  -1.448859   0.820548   0.637122
H  -1.380676   0.692475  -0.950247
H  -0.346034  -1.168666   1.000712
H   0.803913  -0.079027   0.169114
H  -0.026203  -1.327742  -0.645070
