butane_opt
 OpenBabel08242015383D

 14 13  0  0  0  0  0  0  0  0999 V2000
   -3.9548    0.2541    0.0463 C   0  0  0  0  0  0  0  0  0  0  0  0
   -2.7027   -0.6080    0.0154 C   0  0  0  0  0  0  0  0  0  0  0  0
   -4.8666   -0.3591    0.0291 H   0  0  0  0  0  0  0  0  0  0  0  0
   -3.9710    0.8018   -0.8045 H   0  0  0  0  0  0  0  0  0  0  0  0
   -3.9446    0.9740    0.9707 H   0  0  0  0  0  0  0  0  0  0  0  0
   -1.4105    0.2056   -0.0350 C   0  0  0  0  0  0  0  0  0  0  0  0
   -2.7689   -1.3190   -0.8628 H   0  0  0  0  0  0  0  0  0  0  0  0
   -2.6658   -1.2428    0.9060 H   0  0  0  0  0  0  0  0  0  0  0  0
   -0.1450   -0.7054    0.0707 C   0  0  0  0  0  0  0  0  0  0  0  0
   -1.4083    0.8406    0.7782 H   0  0  0  0  0  0  0  0  0  0  0  0
   -1.3366    0.9173   -0.9612 H   0  0  0  0  0  0  0  0  0  0  0  0
   -0.1585   -1.2654    0.9482 H   0  0  0  0  0  0  0  0  0  0  0  0
    0.7229   -0.1706    0.0853 H   0  0  0  0  0  0  0  0  0  0  0  0
   -0.0589   -1.4146   -0.8230 H   0  0  0  0  0  0  0  0  0  0  0  0
  1  5  1  0  0  0  0
  2  1  1  0  0  0  0
  2  8  1  0  0  0  0
  3  1  1  0  0  0  0
  4  1  1  0  0  0  0
  6  2  1  0  0  0  0
  6  9  1  0  0  0  0
  6 10  1  0  0  0  0
  7  2  1  0  0  0  0
  9 13  1  0  0  0  0
  9 12  1  0  0  0  0
 11  6  1  0  0  0  0
 14  9  1  0  0  0  0
M  END
$$$$
