butane_opt
 OpenBabel08242015383D

 14 13  0  0  0  0  0  0  0  0999 V2000
   -3.8836    0.2227   -0.0357 C   0  0  0  0  0  0  0  0  0  0  0  0
   -2.7121   -0.5804    0.0470 C   0  0  0  0  0  0  0  0  0  0  0  0
   -4.8169   -0.3253    0.4708 H   0  0  0  0  0  0  0  0  0  0  0  0
   -4.1260    1.0798   -1.0287 H   0  0  0  0  0  0  0  0  0  0  0  0
   -3.6801    0.5676    0.6197 H   0  0  0  0  0  0  0  0  0  0  0  0
   -1.4342    0.2400    0.0564 C   0  0  0  0  0  0  0  0  0  0  0  0
   -2.6526   -1.2152   -0.7738 H   0  0  0  0  0  0  0  0  0  0  0  0
   -2.7565   -1.3107    1.0067 H   0  0  0  0  0  0  0  0  0  0  0  0
   -0.1825   -0.7422    0.0159 C   0  0  0  0  0  0  0  0  0  0  0  0
   -1.3768    1.0413    1.0110 H   0  0  0  0  0  0  0  0  0  0  0  0
   -1.5958    0.8854   -0.7371 H   0  0  0  0  0  0  0  0  0  0  0  0
   -0.2007   -1.1460    0.7491 H   0  0  0  0  0  0  0  0  0  0  0  0
    0.7830   -0.1256    0.1068 H   0  0  0  0  0  0  0  0  0  0  0  0
   -0.0435   -1.6155   -1.0392 H   0  0  0  0  0  0  0  0  0  0  0  0
  1  2  1  0  0  0  0
  1  3  1  0  0  0  0
  1  5  1  0  0  0  0
  2  6  1  0  0  0  0
  2  8  1  0  0  0  0
  4  1  1  0  0  0  0
  6 10  1  0  0  0  0
  7  2  1  0  0  0  0
  9  6  1  0  0  0  0
  9 13  1  0  0  0  0
  9 12  1  0  0  0  0
 11  6  1  0  0  0  0
 14  9  1  0  0  0  0
M  END
$$$$
