butane_opt
 OpenBabel08242015383D

 14 13  0  0  0  0  0  0  0  0999 V2000
   -3.9304    0.2890   -0.0292 C   0  0  0  0  0  0  0  0  0  0  0  0
   -2.7099   -0.6479    0.0619 C   0  0  0  0  0  0  0  0  0  0  0  0
   -4.7197   -0.2050    0.3569 H   0  0  0  0  0  0  0  0  0  0  0  0
   -3.9753    1.0154   -0.9814 H   0  0  0  0  0  0  0  0  0  0  0  0
   -3.8102    0.8708    0.7170 H   0  0  0  0  0  0  0  0  0  0  0  0
   -1.3966    0.1527    0.0294 C   0  0  0  0  0  0  0  0  0  0  0  0
   -2.7542   -1.1882   -0.6516 H   0  0  0  0  0  0  0  0  0  0  0  0
   -2.5923   -1.4609    1.0294 H   0  0  0  0  0  0  0  0  0  0  0  0
   -0.1974   -0.6813    0.0196 C   0  0  0  0  0  0  0  0  0  0  0  0
   -1.4196    0.9939    0.9204 H   0  0  0  0  0  0  0  0  0  0  0  0
   -1.3573    0.7856   -0.9098 H   0  0  0  0  0  0  0  0  0  0  0  0
   -0.2924   -0.9584    0.6888 H   0  0  0  0  0  0  0  0  0  0  0  0
    0.8359   -0.0099    0.2909 H   0  0  0  0  0  0  0  0  0  0  0  0
   -0.1638   -1.6436   -1.0468 H   0  0  0  0  0  0  0  0  0  0  0  0
  1  2  1  0  0  0  0
  1  3  1  0  0  0  0
  1  5  1  0  0  0  0
  2  8  1  0  0  0  0
  4  1  1  0  0  0  0
  6  2  1  0  0  0  0
  6 10  1  0  0  0  0
  7  2  1  0  0  0  0
  9  6  1  0  0  0  0
  9 13  1  0  0  0  0
  9 12  1  0  0  0  0
 11  6  1  0  0  0  0
 14  9  1  0  0  0  0
M  END
$$$$
