14
butane_opt
C  -3.921305   0.238550  -0.047036
C  -2.702900  -0.579258   0.133829
H  -4.887548  -0.389241   0.185619
H  -3.838588   1.038081  -1.101113
H  -3.971730   0.784584   0.755914
C  -1.420232   0.215828   0.027460
H  -2.753107  -1.101862  -0.627159
H  -2.760965  -1.290611   1.048621
C  -0.162658  -0.747259  -0.002073
H  -1.357680   0.765515   0.860037
H  -1.461048   0.796907  -0.871520
H  -0.207520  -0.728303   0.552441
H   0.832395   0.012124   0.418571
H  -0.122325  -1.896010  -1.186621
