14
butane_opt
C  -4.014516   0.280166   0.117681
C  -2.692131  -0.629510  -0.065382
H  -4.819701  -0.195325   0.333072
H  -4.295131   1.000210  -0.741898
H  -3.705576   0.859948   0.895826
C  -1.367360   0.133782  -0.097799
H  -2.852049  -1.456066  -1.049744
H  -2.503782  -0.965993   0.606545
C  -0.154098  -0.671632   0.138309
H  -1.251712   0.731868   0.708863
H  -1.237571   0.831580  -1.091971
H  -0.397594  -1.339384   1.058825
H   0.770763  -0.063668   0.265844
H  -0.003402  -1.224946  -0.670929
