14
butane_opt
C  -3.950597   0.278635   0.157859
C  -2.675987  -0.620775  -0.079227
H  -4.909316  -0.371914  -0.020386
H  -3.978929   0.918353  -0.744068
H  -3.922916   0.984486   1.055023
C  -1.408152   0.164611  -0.136054
H  -2.695811  -1.437417  -1.014893
H  -2.477863  -1.288478   0.837081
C  -0.176379  -0.672484   0.133025
H  -1.457032   0.793374   0.685010
H  -1.271253   0.823291  -0.969423
H  -0.400769  -1.344853   1.184810
H   0.705626  -0.052128   0.235285
H  -0.066222  -1.308854  -0.728285
