butane_opt
 OpenBabel08242015383D

 14 13  0  0  0  0  0  0  0  0999 V2000
   -3.9848    0.2674    0.0216 C   0  0  0  0  0  0  0  0  0  0  0  0
   -2.6809   -0.6559    0.0211 C   0  0  0  0  0  0  0  0  0  0  0  0
   -4.7732   -0.1483    0.0197 H   0  0  0  0  0  0  0  0  0  0  0  0
   -3.9832    0.8595   -0.9037 H   0  0  0  0  0  0  0  0  0  0  0  0
   -4.2464    1.0204    0.9782 H   0  0  0  0  0  0  0  0  0  0  0  0
   -1.3720    0.1667    0.0334 C   0  0  0  0  0  0  0  0  0  0  0  0
   -2.7798   -1.4466   -0.9077 H   0  0  0  0  0  0  0  0  0  0  0  0
   -2.6561   -1.1086    0.7777 H   0  0  0  0  0  0  0  0  0  0  0  0
   -0.1389   -0.6617    0.0385 C   0  0  0  0  0  0  0  0  0  0  0  0
   -1.4743    0.9794    0.8668 H   0  0  0  0  0  0  0  0  0  0  0  0
   -1.3401    0.6891   -0.7977 H   0  0  0  0  0  0  0  0  0  0  0  0
   -0.0048   -1.5826    1.0877 H   0  0  0  0  0  0  0  0  0  0  0  0
    0.7026   -0.2108   -0.4516 H   0  0  0  0  0  0  0  0  0  0  0  0
   -0.3339   -0.9054   -0.5607 H   0  0  0  0  0  0  0  0  0  0  0  0
  1  5  1  0  0  0  0
  2  1  1  0  0  0  0
  2  6  1  0  0  0  0
  2  8  1  0  0  0  0
  3  1  1  0  0  0  0
  4  1  1  0  0  0  0
  6  9  1  0  0  0  0
  6 10  1  0  0  0  0
  7  2  1  0  0  0  0
  9 12  1  0  0  0  0
 11  6  1  0  0  0  0
 13  9  1  0  0  0  0
 14  9  1  0  0  0  0
M  END
$$$$
