14
butane_opt
C  -3.990434   0.292768   0.095339
C  -2.678440  -0.670784  -0.062767
H  -4.814400  -0.152181   0.131358
H  -4.221025   0.718458  -0.692926
H  -3.951989   0.991462   1.013906
C  -1.381938   0.175637  -0.059891
H  -2.783500  -1.352129  -1.034833
H  -2.688027  -1.140805   0.713137
C  -0.160437  -0.673738   0.128534
H  -1.507265   0.861223   0.779195
H  -1.195189   0.777874  -0.978732
H  -0.086640  -1.525662   1.143404
H   0.830647  -0.033444  -0.288302
H  -0.095831  -1.079546  -0.542720
