butane_opt
 OpenBabel08242015383D

 14 13  0  0  0  0  0  0  0  0999 V2000
   -3.9598    0.2552   -0.0354 C   0  0  0  0  0  0  0  0  0  0  0  0
   -2.7056   -0.6255    0.1219 C   0  0  0  0  0  0  0  0  0  0  0  0
   -4.8457   -0.2700   -0.2899 H   0  0  0  0  0  0  0  0  0  0  0  0
   -3.9747    0.6913   -0.7814 H   0  0  0  0  0  0  0  0  0  0  0  0
   -4.2924    1.1134    0.9343 H   0  0  0  0  0  0  0  0  0  0  0  0
   -1.3876    0.1996    0.0562 C   0  0  0  0  0  0  0  0  0  0  0  0
   -2.4319   -1.2854   -0.7935 H   0  0  0  0  0  0  0  0  0  0  0  0
   -2.8523   -1.3632    1.0999 H   0  0  0  0  0  0  0  0  0  0  0  0
   -0.1484   -0.6836   -0.0205 C   0  0  0  0  0  0  0  0  0  0  0  0
   -1.2864    0.8165    0.8725 H   0  0  0  0  0  0  0  0  0  0  0  0
   -1.4223    0.8719   -0.8773 H   0  0  0  0  0  0  0  0  0  0  0  0
    0.0262   -1.3501    0.7773 H   0  0  0  0  0  0  0  0  0  0  0  0
    0.6535   -0.1481   -0.0675 H   0  0  0  0  0  0  0  0  0  0  0  0
   -0.1522   -1.3114   -0.8468 H   0  0  0  0  0  0  0  0  0  0  0  0
  1  2  1  0  0  0  0
  1  5  1  0  0  0  0
  2  8  1  0  0  0  0
  3  1  1  0  0  0  0
  4  1  1  0  0  0  0
  6  2  1  0  0  0  0
  6 10  1  0  0  0  0
  7  2  1  0  0  0  0
  9  6  1  0  0  0  0
  9 12  1  0  0  0  0
 11  6  1  0  0  0  0
 13  9  1  0  0  0  0
 14  9  1  0  0  0  0
M  END
$$$$
