14
butane_opt
C  -3.960623   0.248698   0.093089
C  -2.704280  -0.628777  -0.040706
H  -4.950533  -0.446957  -0.003695
H  -3.780731   0.703175  -0.739544
H  -3.999468   1.182445   1.050347
C  -1.408970   0.238035  -0.025316
H  -2.835527  -1.467504  -1.135273
H  -2.772108  -1.053990   0.725287
C  -0.141306  -0.719969   0.089010
H  -1.320780   0.849633   0.782109
H  -1.454172   1.024333  -1.009945
H   0.076500  -1.745517   1.250003
H   0.617325  -0.206525  -0.306437
H  -0.016870  -0.989605  -0.475147
