butane_opt
 OpenBabel08242015383D

 14 13  0  0  0  0  0  0  0  0999 V2000
   -3.9447    0.2748    0.0075 C   0  0  0  0  0  0  0  0  0  0  0  0
   -2.6882   -0.6120    0.0537 C   0  0  0  0  0  0  0  0  0  0  0  0
   -4.8541   -0.3246    0.0077 H   0  0  0  0  0  0  0  0  0  0  0  0
   -3.9834    0.8902   -0.8909 H   0  0  0  0  0  0  0  0  0  0  0  0
   -3.9798    0.9254    0.8293 H   0  0  0  0  0  0  0  0  0  0  0  0
   -1.4037    0.1662    0.0151 C   0  0  0  0  0  0  0  0  0  0  0  0
   -2.7184   -1.2543   -0.7429 H   0  0  0  0  0  0  0  0  0  0  0  0
   -2.6612   -1.3526    1.0118 H   0  0  0  0  0  0  0  0  0  0  0  0
   -0.1732   -0.6846    0.0197 C   0  0  0  0  0  0  0  0  0  0  0  0
   -1.3619    0.8469    0.8621 H   0  0  0  0  0  0  0  0  0  0  0  0
   -1.3545    0.7755   -0.8737 H   0  0  0  0  0  0  0  0  0  0  0  0
   -0.2094   -1.1874    0.8297 H   0  0  0  0  0  0  0  0  0  0  0  0
    0.7758   -0.0711    0.1359 H   0  0  0  0  0  0  0  0  0  0  0  0
   -0.1581   -1.4480   -0.8983 H   0  0  0  0  0  0  0  0  0  0  0  0
  1  3  1  0  0  0  0
  1  2  1  0  0  0  0
  1  5  1  0  0  0  0
  2  8  1  0  0  0  0
  4  1  1  0  0  0  0
  6  9  1  0  0  0  0
  6  2  1  0  0  0  0
  6 10  1  0  0  0  0
  7  2  1  0  0  0  0
  9 13  1  0  0  0  0
  9 12  1  0  0  0  0
 11  6  1  0  0  0  0
 14  9  1  0  0  0  0
M  END
$$$$
