butane_opt
 OpenBabel08242015383D

 14 13  0  0  0  0  0  0  0  0999 V2000
   -3.9329    0.2498   -0.0374 C   0  0  0  0  0  0  0  0  0  0  0  0
   -2.7438   -0.5836    0.1076 C   0  0  0  0  0  0  0  0  0  0  0  0
   -4.8466   -0.2183   -0.3641 H   0  0  0  0  0  0  0  0  0  0  0  0
   -3.8020    0.6651   -0.7640 H   0  0  0  0  0  0  0  0  0  0  0  0
   -4.1770    1.1164    0.9794 H   0  0  0  0  0  0  0  0  0  0  0  0
   -1.3872    0.1857    0.0507 C   0  0  0  0  0  0  0  0  0  0  0  0
   -2.6843   -1.1572   -0.5917 H   0  0  0  0  0  0  0  0  0  0  0  0
   -2.8016   -1.4502    1.1395 H   0  0  0  0  0  0  0  0  0  0  0  0
   -0.1515   -0.7154   -0.0287 C   0  0  0  0  0  0  0  0  0  0  0  0
   -1.4973    0.7964    0.8687 H   0  0  0  0  0  0  0  0  0  0  0  0
   -1.3349    0.8077   -0.8173 H   0  0  0  0  0  0  0  0  0  0  0  0
    0.0357   -1.2487    0.7996 H   0  0  0  0  0  0  0  0  0  0  0  0
    0.8372   -0.0622   -0.0115 H   0  0  0  0  0  0  0  0  0  0  0  0
   -0.1795   -1.3460   -0.8963 H   0  0  0  0  0  0  0  0  0  0  0  0
  1  2  1  0  0  0  0
  1  5  1  0  0  0  0
  2  8  1  0  0  0  0
  3  1  1  0  0  0  0
  4  1  1  0  0  0  0
  6  2  1  0  0  0  0
  6 10  1  0  0  0  0
  7  2  1  0  0  0  0
  9 13  1  0  0  0  0
  9  6  1  0  0  0  0
  9 12  1  0  0  0  0
 11  6  1  0  0  0  0
 14  9  1  0  0  0  0
M  END
$$$$
