14
butane_opt
C  -3.966202   0.292988  -0.053318
C  -2.633520  -0.605148   0.141654
H  -4.851496  -0.335548   0.117091
H  -3.929587   1.038690  -1.082928
H  -4.024812   0.679623   0.616620
C  -1.399803   0.124483   0.034909
H  -2.717403  -1.186165  -0.551835
H  -2.614708  -1.361632   1.107898
C  -0.220577  -0.658098  -0.040145
H  -1.398688   0.937946   1.030435
H  -1.328872   0.538657  -0.698165
H  -0.349153  -0.909853   0.650819
H   0.802312   0.061609   0.257215
H  -0.000474  -1.760366  -1.101118
