butane_opt
 OpenBabel08242015383D

 14 13  0  0  0  0  0  0  0  0999 V2000
   -4.0055    0.2983   -0.0953 C   0  0  0  0  0  0  0  0  0  0  0  0
   -2.6639   -0.6515    0.1074 C   0  0  0  0  0  0  0  0  0  0  0  0
   -4.9418   -0.2736   -0.0177 H   0  0  0  0  0  0  0  0  0  0  0  0
   -3.9320    0.9410   -0.9562 H   0  0  0  0  0  0  0  0  0  0  0  0
   -4.0234    1.0866    0.8003 H   0  0  0  0  0  0  0  0  0  0  0  0
   -1.3560    0.1465    0.1438 C   0  0  0  0  0  0  0  0  0  0  0  0
   -2.5775   -1.2783   -0.6727 H   0  0  0  0  0  0  0  0  0  0  0  0
   -2.8851   -1.3414    1.0371 H   0  0  0  0  0  0  0  0  0  0  0  0
   -0.1731   -0.6632   -0.0523 C   0  0  0  0  0  0  0  0  0  0  0  0
   -1.1445    0.9019    1.0017 H   0  0  0  0  0  0  0  0  0  0  0  0
   -1.5075    0.5756   -0.6223 H   0  0  0  0  0  0  0  0  0  0  0  0
    0.0444   -1.4531    0.9744 H   0  0  0  0  0  0  0  0  0  0  0  0
    0.7885   -0.0116   -0.4920 H   0  0  0  0  0  0  0  0  0  0  0  0
   -0.4751   -1.1598   -0.8117 H   0  0  0  0  0  0  0  0  0  0  0  0
  1  3  1  0  0  0  0
  1  2  1  0  0  0  0
  1  5  1  0  0  0  0
  2  6  1  0  0  0  0
  2  8  1  0  0  0  0
  4  1  1  0  0  0  0
  6 10  1  0  0  0  0
  7  2  1  0  0  0  0
  9  6  1  0  0  0  0
  9 12  1  0  0  0  0
 11  6  1  0  0  0  0
 13  9  1  0  0  0  0
 14  9  1  0  0  0  0
M  END
$$$$
