butane_opt
 OpenBabel08242015383D

 14 13  0  0  0  0  0  0  0  0999 V2000
   -3.9533    0.2211    0.1337 C   0  0  0  0  0  0  0  0  0  0  0  0
   -2.7107   -0.5476   -0.0584 C   0  0  0  0  0  0  0  0  0  0  0  0
   -4.9798   -0.4857    0.2586 H   0  0  0  0  0  0  0  0  0  0  0  0
   -4.1143    0.8026   -0.7634 H   0  0  0  0  0  0  0  0  0  0  0  0
   -3.8940    0.8420    0.9856 H   0  0  0  0  0  0  0  0  0  0  0  0
   -1.4299    0.2174   -0.1348 C   0  0  0  0  0  0  0  0  0  0  0  0
   -2.7683   -1.4025   -0.9972 H   0  0  0  0  0  0  0  0  0  0  0  0
   -2.7169   -1.0035    0.7525 H   0  0  0  0  0  0  0  0  0  0  0  0
   -0.1111   -0.7419    0.1404 C   0  0  0  0  0  0  0  0  0  0  0  0
   -1.3842    0.8196    0.6249 H   0  0  0  0  0  0  0  0  0  0  0  0
   -1.3456    0.9634   -1.0410 H   0  0  0  0  0  0  0  0  0  0  0  0
   -0.3140   -1.1736    1.0235 H   0  0  0  0  0  0  0  0  0  0  0  0
    0.7190   -0.2336    0.2966 H   0  0  0  0  0  0  0  0  0  0  0  0
    0.2831   -1.4311   -0.6820 H   0  0  0  0  0  0  0  0  0  0  0  0
  1  3  1  0  0  0  0
  1  5  1  0  0  0  0
  2  1  1  0  0  0  0
  2  8  1  0  0  0  0
  4  1  1  0  0  0  0
  6  2  1  0  0  0  0
  6  9  1  0  0  0  0
  6 10  1  0  0  0  0
  7  2  1  0  0  0  0
  9 13  1  0  0  0  0
  9 12  1  0  0  0  0
 11  6  1  0  0  0  0
 14  9  1  0  0  0  0
M  END
$$$$
