14
butane_opt
C  -3.990948   0.319026   0.058171
C  -2.707959  -0.673240  -0.035949
H  -4.981680  -0.335176   0.178282
H  -4.171176   1.005293  -0.800899
H  -3.958686   0.995293   0.963768
C  -1.366939   0.155062  -0.015343
H  -2.725933  -1.448996  -0.904732
H  -2.668762  -1.159324   0.707650
C  -0.142921  -0.666185   0.070259
H  -1.361628   0.820830   0.859393
H  -1.148112   0.682202  -0.796571
H  -0.198403  -1.548340   1.104021
H   0.829039  -0.042459  -0.261228
H  -0.133669  -1.034897  -0.533307
