butane_opt
 OpenBabel08242015383D

 14 13  0  0  0  0  0  0  0  0999 V2000
   -3.9501    0.2668    0.0364 C   0  0  0  0  0  0  0  0  0  0  0  0
   -2.7074   -0.6142    0.0350 C   0  0  0  0  0  0  0  0  0  0  0  0
   -4.9049   -0.3529   -0.1330 H   0  0  0  0  0  0  0  0  0  0  0  0
   -3.9423    0.7580   -0.7856 H   0  0  0  0  0  0  0  0  0  0  0  0
   -4.0161    1.0251    0.9290 H   0  0  0  0  0  0  0  0  0  0  0  0
   -1.3990    0.1867   -0.0163 C   0  0  0  0  0  0  0  0  0  0  0  0
   -2.7498   -1.2468   -0.7974 H   0  0  0  0  0  0  0  0  0  0  0  0
   -2.6910   -1.2663    0.9361 H   0  0  0  0  0  0  0  0  0  0  0  0
   -0.1500   -0.6912    0.0469 C   0  0  0  0  0  0  0  0  0  0  0  0
   -1.3921    0.8589    0.8325 H   0  0  0  0  0  0  0  0  0  0  0  0
   -1.4012    0.8015   -0.9236 H   0  0  0  0  0  0  0  0  0  0  0  0
   -0.1019   -1.3594    0.9878 H   0  0  0  0  0  0  0  0  0  0  0  0
    0.7528   -0.1205    0.0052 H   0  0  0  0  0  0  0  0  0  0  0  0
   -0.1016   -1.3560   -0.8246 H   0  0  0  0  0  0  0  0  0  0  0  0
  1  5  1  0  0  0  0
  2  1  1  0  0  0  0
  2  8  1  0  0  0  0
  3  1  1  0  0  0  0
  4  1  1  0  0  0  0
  6  2  1  0  0  0  0
  6  9  1  0  0  0  0
  6 10  1  0  0  0  0
  7  2  1  0  0  0  0
  9 12  1  0  0  0  0
 11  6  1  0  0  0  0
 13  9  1  0  0  0  0
 14  9  1  0  0  0  0
M  END
$$$$
