14
butane_opt
C  -3.920255   0.291559  -0.064693
C  -2.665517  -0.634447   0.075976
H  -4.882570  -0.260488   0.069876
H  -3.996984   0.963259  -1.035107
H  -4.032765   0.929419   0.752361
C  -1.430962   0.104008   0.130729
H  -2.667480  -1.279122  -0.656732
H  -2.728369  -1.209690   0.955314
C  -0.173052  -0.646533  -0.034083
H  -1.442147   0.879513   1.057638
H  -1.426186   0.664180  -0.706462
H   0.075311  -1.421600   0.979321
H   0.840441   0.098782  -0.432851
H  -0.514338  -1.189301  -0.835540
