14
butane_opt
C  -3.959896   0.266888  -0.003180
C  -2.694360  -0.624202   0.070750
H  -4.886155  -0.308766  -0.079332
H  -3.947906   0.843794  -0.881666
H  -4.028426   0.996347   0.891718
C  -1.394575   0.178755   0.032639
H  -2.647525  -1.318985  -0.783042
H  -2.770497  -1.233225   0.954078
C  -0.151796  -0.688212   0.012496
H  -1.371438   0.867025   0.888904
H  -1.434786   0.849451  -0.905941
H  -0.102561  -1.322703   0.932211
H   0.777209  -0.076703  -0.070685
H  -0.205098  -1.369022  -0.847783
