butane_opt
 OpenBabel08242015383D

 14 11  0  0  0  0  0  0  0  0999 V2000
   -3.9768    0.2469   -0.0423 C   0  0  0  0  0  0  0  0  0  0  0  0
   -2.7296   -0.5902    0.1240 C   0  0  0  0  0  0  0  0  0  0  0  0
   -4.8184   -0.3505    0.0989 H   0  0  0  0  0  0  0  0  0  0  0  0
   -3.9911    1.0837   -1.0866 H   0  0  0  0  0  0  0  0  0  0  0  0
   -3.9877    0.6176    0.6180 H   0  0  0  0  0  0  0  0  0  0  0  0
   -1.4273    0.1839    0.0765 C   0  0  0  0  0  0  0  0  0  0  0  0
   -2.8484   -1.1086   -0.6100 H   0  0  0  0  0  0  0  0  0  0  0  0
   -2.6824   -1.2644    1.0638 H   0  0  0  0  0  0  0  0  0  0  0  0
   -0.0750   -0.7023   -0.0270 C   0  0  0  0  0  0  0  0  0  0  0  0
   -1.3679    0.8583    0.8118 H   0  0  0  0  0  0  0  0  0  0  0  0
   -1.3501    0.8751   -0.8550 H   0  0  0  0  0  0  0  0  0  0  0  0
   -0.1829   -0.8682    0.5487 H   0  0  0  0  0  0  0  0  0  0  0  0
    0.7622   -0.1786    0.4071 H   0  0  0  0  0  0  0  0  0  0  0  0
   -0.0394   -1.8228   -1.2177 H   0  0  0  0  0  0  0  0  0  0  0  0
  1  3  1  0  0  0  0
  1  2  1  0  0  0  0
  1  5  1  0  0  0  0
  2  8  1  0  0  0  0
  4  1  1  0  0  0  0
  6  2  1  0  0  0  0
  6 10  1  0  0  0  0
  7  2  1  0  0  0  0
  9  6  1  0  0  0  0
  9 13  1  0  0  0  0
 11  6  1  0  0  0  0
M  RAD  3   9   3  12   2  14   2
M  END
$$$$
