14
butane_opt
C  -3.918508   0.246678  -0.034290
C  -2.703558  -0.619444   0.018337
H  -4.805667  -0.310972   0.218113
H  -3.945794   1.034364  -1.005536
H  -3.948467   0.898996   0.846216
C  -1.421867   0.205499   0.097699
H  -2.782365  -1.127292  -0.689475
H  -2.690937  -1.305401   0.957896
C  -0.174889  -0.714075  -0.005721
H  -1.375792   0.914723   0.998964
H  -1.373984   0.751908  -0.678268
H   0.020981  -1.417856   0.860510
H   0.827707  -0.077935  -0.234743
H  -0.317984  -1.234454  -0.748391
