butane_opt
 OpenBabel08242015383D

 14 13  0  0  0  0  0  0  0  0999 V2000
   -3.9869    0.2596    0.0959 C   0  0  0  0  0  0  0  0  0  0  0  0
   -2.6786   -0.6239    0.0036 C   0  0  0  0  0  0  0  0  0  0  0  0
   -4.8973   -0.3467   -0.4252 H   0  0  0  0  0  0  0  0  0  0  0  0
   -3.8576    0.4167   -0.5793 H   0  0  0  0  0  0  0  0  0  0  0  0
   -4.1037    1.3131    1.1473 H   0  0  0  0  0  0  0  0  0  0  0  0
   -1.3961    0.2035   -0.0893 C   0  0  0  0  0  0  0  0  0  0  0  0
   -2.8180   -1.2823   -0.8735 H   0  0  0  0  0  0  0  0  0  0  0  0
   -2.6569   -1.0838    0.8083 H   0  0  0  0  0  0  0  0  0  0  0  0
   -0.1520   -0.7098    0.1306 C   0  0  0  0  0  0  0  0  0  0  0  0
   -1.3779    0.6966    0.6517 H   0  0  0  0  0  0  0  0  0  0  0  0
   -1.4055    0.9749   -1.1302 H   0  0  0  0  0  0  0  0  0  0  0  0
   -0.0438   -1.3677    1.0669 H   0  0  0  0  0  0  0  0  0  0  0  0
    0.8104   -0.1393   -0.2015 H   0  0  0  0  0  0  0  0  0  0  0  0
   -0.1113   -1.2183   -0.6666 H   0  0  0  0  0  0  0  0  0  0  0  0
  1  5  1  0  0  0  0
  2  1  1  0  0  0  0
  2  8  1  0  0  0  0
  3  1  1  0  0  0  0
  4  1  1  0  0  0  0
  6  2  1  0  0  0  0
  6  9  1  0  0  0  0
  6 10  1  0  0  0  0
  7  2  1  0  0  0  0
  9 12  1  0  0  0  0
 11  6  1  0  0  0  0
 13  9  1  0  0  0  0
 14  9  1  0  0  0  0
M  END
$$$$
