butane_opt
 OpenBabel08242015383D

 14 13  0  0  0  0  0  0  0  0999 V2000
   -3.9762    0.2995   -0.0528 C   0  0  0  0  0  0  0  0  0  0  0  0
   -2.6994   -0.6895    0.1300 C   0  0  0  0  0  0  0  0  0  0  0  0
   -4.8756   -0.2645   -0.1518 H   0  0  0  0  0  0  0  0  0  0  0  0
   -4.0449    1.0600   -1.0885 H   0  0  0  0  0  0  0  0  0  0  0  0
   -4.1160    0.9573    0.7707 H   0  0  0  0  0  0  0  0  0  0  0  0
   -1.3483    0.1804    0.1081 C   0  0  0  0  0  0  0  0  0  0  0  0
   -2.5962   -1.4069   -0.7876 H   0  0  0  0  0  0  0  0  0  0  0  0
   -2.8620   -1.1961    0.9927 H   0  0  0  0  0  0  0  0  0  0  0  0
   -0.1848   -0.6718   -0.0385 C   0  0  0  0  0  0  0  0  0  0  0  0
   -1.1990    0.9605    1.0246 H   0  0  0  0  0  0  0  0  0  0  0  0
   -1.4706    0.7341   -0.7702 H   0  0  0  0  0  0  0  0  0  0  0  0
    0.0914   -1.3590    0.8805 H   0  0  0  0  0  0  0  0  0  0  0  0
    0.8060   -0.1018   -0.3303 H   0  0  0  0  0  0  0  0  0  0  0  0
   -0.2621   -1.2610   -0.8539 H   0  0  0  0  0  0  0  0  0  0  0  0
  1  2  1  0  0  0  0
  1  5  1  0  0  0  0
  2  8  1  0  0  0  0
  3  1  1  0  0  0  0
  4  1  1  0  0  0  0
  6  2  1  0  0  0  0
  6 10  1  0  0  0  0
  7  2  1  0  0  0  0
  9  6  1  0  0  0  0
  9 12  1  0  0  0  0
 11  6  1  0  0  0  0
 13  9  1  0  0  0  0
 14  9  1  0  0  0  0
M  END
$$$$
