butane_opt
 OpenBabel08242015383D

 14 13  0  0  0  0  0  0  0  0999 V2000
   -3.9370    0.2441    0.0406 C   0  0  0  0  0  0  0  0  0  0  0  0
   -2.7007   -0.5885    0.0094 C   0  0  0  0  0  0  0  0  0  0  0  0
   -4.8354   -0.3411    0.0173 H   0  0  0  0  0  0  0  0  0  0  0  0
   -3.9688    0.8356   -0.8279 H   0  0  0  0  0  0  0  0  0  0  0  0
   -3.8888    0.9505    0.9298 H   0  0  0  0  0  0  0  0  0  0  0  0
   -1.4172    0.1909   -0.0001 C   0  0  0  0  0  0  0  0  0  0  0  0
   -2.7146   -1.3559   -0.9058 H   0  0  0  0  0  0  0  0  0  0  0  0
   -2.6924   -1.1715    0.8318 H   0  0  0  0  0  0  0  0  0  0  0  0
   -0.1598   -0.7058    0.0563 C   0  0  0  0  0  0  0  0  0  0  0  0
   -1.4029    0.8540    0.8444 H   0  0  0  0  0  0  0  0  0  0  0  0
   -1.4322    0.8722   -0.9151 H   0  0  0  0  0  0  0  0  0  0  0  0
   -0.0891   -1.4501    1.0704 H   0  0  0  0  0  0  0  0  0  0  0  0
    0.7605   -0.0932   -0.1314 H   0  0  0  0  0  0  0  0  0  0  0  0
   -0.1850   -1.2588   -0.7320 H   0  0  0  0  0  0  0  0  0  0  0  0
  1  5  1  0  0  0  0
  2  1  1  0  0  0  0
  2  8  1  0  0  0  0
  3  1  1  0  0  0  0
  4  1  1  0  0  0  0
  6  2  1  0  0  0  0
  6  9  1  0  0  0  0
  6 10  1  0  0  0  0
  7  2  1  0  0  0  0
  9 12  1  0  0  0  0
 11  6  1  0  0  0  0
 13  9  1  0  0  0  0
 14  9  1  0  0  0  0
M  END
$$$$
