butane_opt
 OpenBabel08242015383D

 14 12  0  0  0  0  0  0  0  0999 V2000
   -3.9318    0.2411    0.0882 C   0  0  0  0  0  0  0  0  0  0  0  0
   -2.6687   -0.6093   -0.0415 C   0  0  0  0  0  0  0  0  0  0  0  0
   -4.8976   -0.4291    0.0640 H   0  0  0  0  0  0  0  0  0  0  0  0
   -3.9078    0.7771   -0.7384 H   0  0  0  0  0  0  0  0  0  0  0  0
   -3.9412    1.1524    1.1265 H   0  0  0  0  0  0  0  0  0  0  0  0
   -1.4134    0.2123   -0.0640 C   0  0  0  0  0  0  0  0  0  0  0  0
   -2.6393   -1.4934   -1.0212 H   0  0  0  0  0  0  0  0  0  0  0  0
   -2.6914   -1.1213    0.7497 H   0  0  0  0  0  0  0  0  0  0  0  0
   -0.1752   -0.6956    0.1081 C   0  0  0  0  0  0  0  0  0  0  0  0
   -1.4297    0.9694    0.8281 H   0  0  0  0  0  0  0  0  0  0  0  0
   -1.4456    0.7983   -1.0235 H   0  0  0  0  0  0  0  0  0  0  0  0
   -0.1972   -1.7097    1.2468 H   0  0  0  0  0  0  0  0  0  0  0  0
    0.5829   -0.1398   -0.2549 H   0  0  0  0  0  0  0  0  0  0  0  0
   -0.1630   -1.0697   -0.5582 H   0  0  0  0  0  0  0  0  0  0  0  0
  1  5  1  0  0  0  0
  2  1  1  0  0  0  0
  2  8  1  0  0  0  0
  3  1  1  0  0  0  0
  4  1  1  0  0  0  0
  6  2  1  0  0  0  0
  6  9  1  0  0  0  0
  6 10  1  0  0  0  0
  7  2  1  0  0  0  0
 11  6  1  0  0  0  0
 13  9  1  0  0  0  0
 14  9  1  0  0  0  0
M  RAD  2   9   2  12   2
M  END
$$$$
