butane_opt
 OpenBabel08242015383D

 14 13  0  0  0  0  0  0  0  0999 V2000
   -3.9730    0.2282   -0.0696 C   0  0  0  0  0  0  0  0  0  0  0  0
   -2.7191   -0.6017    0.1039 C   0  0  0  0  0  0  0  0  0  0  0  0
   -4.8961   -0.3026   -0.1789 H   0  0  0  0  0  0  0  0  0  0  0  0
   -3.8447    0.9039   -0.9947 H   0  0  0  0  0  0  0  0  0  0  0  0
   -3.9540    0.7815    0.7292 H   0  0  0  0  0  0  0  0  0  0  0  0
   -1.4265    0.2655    0.1595 C   0  0  0  0  0  0  0  0  0  0  0  0
   -2.6087   -1.3277   -0.7233 H   0  0  0  0  0  0  0  0  0  0  0  0
   -2.7737   -1.2734    1.0712 H   0  0  0  0  0  0  0  0  0  0  0  0
   -0.1193   -0.7225   -0.0572 C   0  0  0  0  0  0  0  0  0  0  0  0
   -1.4077    0.9108    0.9630 H   0  0  0  0  0  0  0  0  0  0  0  0
   -1.3200    0.8075   -0.6144 H   0  0  0  0  0  0  0  0  0  0  0  0
    0.3174   -1.5123    0.8350 H   0  0  0  0  0  0  0  0  0  0  0  0
    0.6384   -0.2586   -0.4877 H   0  0  0  0  0  0  0  0  0  0  0  0
   -0.3069   -1.2345   -0.8118 H   0  0  0  0  0  0  0  0  0  0  0  0
  1  2  1  0  0  0  0
  1  5  1  0  0  0  0
  2  6  1  0  0  0  0
  2  8  1  0  0  0  0
  3  1  1  0  0  0  0
  4  1  1  0  0  0  0
  6 10  1  0  0  0  0
  7  2  1  0  0  0  0
  9  6  1  0  0  0  0
  9 12  1  0  0  0  0
 11  6  1  0  0  0  0
 13  9  1  0  0  0  0
 14  9  1  0  0  0  0
M  END
$$$$
