14
butane_opt
C  -3.974991   0.292523  -0.072365
C  -2.689048  -0.682755   0.152143
H  -4.846639  -0.162846  -0.156092
H  -3.925004   0.964157  -0.983672
H  -4.145010   1.017354   0.812470
C  -1.394606   0.163981   0.109351
H  -2.495684  -1.540917  -0.733674
H  -2.723815  -1.290294   1.006782
C  -0.150914  -0.650584  -0.064326
H  -1.287666   0.917873   1.001298
H  -1.388231   0.775813  -0.817582
H  -0.028000  -1.317143   0.830692
H   0.676697  -0.134285  -0.169363
H  -0.348019  -1.166055  -0.826126
