butane_opt
 OpenBabel08242015383D

 14 13  0  0  0  0  0  0  0  0999 V2000
   -3.9148    0.2433   -0.0883 C   0  0  0  0  0  0  0  0  0  0  0  0
   -2.7057   -0.5859    0.1217 C   0  0  0  0  0  0  0  0  0  0  0  0
   -4.8969   -0.4410   -0.1087 H   0  0  0  0  0  0  0  0  0  0  0  0
   -3.7395    0.9338   -1.1478 H   0  0  0  0  0  0  0  0  0  0  0  0
   -4.0349    0.7725    0.7161 H   0  0  0  0  0  0  0  0  0  0  0  0
   -1.4305    0.2171    0.1929 C   0  0  0  0  0  0  0  0  0  0  0  0
   -2.6869   -1.1215   -0.6941 H   0  0  0  0  0  0  0  0  0  0  0  0
   -2.8733   -1.2089    1.0449 H   0  0  0  0  0  0  0  0  0  0  0  0
   -0.1441   -0.7270   -0.0624 C   0  0  0  0  0  0  0  0  0  0  0  0
   -1.2806    0.9426    1.0952 H   0  0  0  0  0  0  0  0  0  0  0  0
   -1.4882    0.8710   -0.7459 H   0  0  0  0  0  0  0  0  0  0  0  0
    0.1252   -1.4723    0.8372 H   0  0  0  0  0  0  0  0  0  0  0  0
    0.7552   -0.1501   -0.5108 H   0  0  0  0  0  0  0  0  0  0  0  0
   -0.5379   -1.3840   -1.0074 H   0  0  0  0  0  0  0  0  0  0  0  0
  1  2  1  0  0  0  0
  1  5  1  0  0  0  0
  2  6  1  0  0  0  0
  2  8  1  0  0  0  0
  3  1  1  0  0  0  0
  4  1  1  0  0  0  0
  6 10  1  0  0  0  0
  7  2  1  0  0  0  0
  9  6  1  0  0  0  0
  9 12  1  0  0  0  0
 11  6  1  0  0  0  0
 13  9  1  0  0  0  0
 14  9  1  0  0  0  0
M  END
$$$$
