14
butane_opt
C  -3.973736   0.304408   0.109538
C  -2.640739  -0.631514  -0.061932
H  -4.835221  -0.321117   0.177789
H  -4.054675   0.847242  -0.738564
H  -3.856226   0.968228   1.037167
C  -1.406229   0.132371  -0.101533
H  -2.866382  -1.495048  -1.100707
H  -2.424771  -1.278518   0.770013
C  -0.198354  -0.673409   0.138369
H  -1.408513   0.879038   0.745616
H  -1.306641   0.778480  -0.961852
H  -0.385814  -1.356369   1.034985
H   0.823723   0.081055  -0.004869
H  -0.090777  -1.122498  -0.536327
