14
butane_opt
C  -3.965759   0.305231   0.057513
C  -2.689908  -0.638634   0.023663
H  -4.826354  -0.310560  -0.377885
H  -3.794462   0.551044  -0.606825
H  -4.041875   1.349971   1.241625
C  -1.374968   0.107989  -0.042801
H  -2.593339  -1.274747  -0.780605
H  -2.796894  -1.184241   0.898908
C  -0.194750  -0.644351   0.072676
H  -1.395087   0.610280   0.697788
H  -1.346793   0.918530  -1.141662
H  -0.231284  -1.382334   1.103342
H   0.778682  -0.035289  -0.082773
H  -0.113423  -1.267461  -0.793528
