butane_opt
 OpenBabel08242015383D

 14 13  0  0  0  0  0  0  0  0999 V2000
   -3.9247    0.2708    0.0398 C   0  0  0  0  0  0  0  0  0  0  0  0
   -2.6674   -0.5889   -0.0497 C   0  0  0  0  0  0  0  0  0  0  0  0
   -4.9269   -0.4464    0.0328 H   0  0  0  0  0  0  0  0  0  0  0  0
   -4.0431    0.8570   -0.8278 H   0  0  0  0  0  0  0  0  0  0  0  0
   -3.9754    0.9641    0.9557 H   0  0  0  0  0  0  0  0  0  0  0  0
   -1.4071    0.1453    0.0458 C   0  0  0  0  0  0  0  0  0  0  0  0
   -2.6440   -1.2615   -0.9007 H   0  0  0  0  0  0  0  0  0  0  0  0
   -2.6354   -1.3632    0.9700 H   0  0  0  0  0  0  0  0  0  0  0  0
   -0.1866   -0.6660    0.0684 C   0  0  0  0  0  0  0  0  0  0  0  0
   -1.4284    0.9127    0.8807 H   0  0  0  0  0  0  0  0  0  0  0  0
   -1.4673    0.7280   -0.8532 H   0  0  0  0  0  0  0  0  0  0  0  0
   -0.0517   -1.6289    1.1199 H   0  0  0  0  0  0  0  0  0  0  0  0
    0.7177    0.0066   -0.4695 H   0  0  0  0  0  0  0  0  0  0  0  0
   -0.3273   -1.1721   -0.6993 H   0  0  0  0  0  0  0  0  0  0  0  0
  1  5  1  0  0  0  0
  2  1  1  0  0  0  0
  2  6  1  0  0  0  0
  2  8  1  0  0  0  0
  3  1  1  0  0  0  0
  4  1  1  0  0  0  0
  6  9  1  0  0  0  0
  6 10  1  0  0  0  0
  7  2  1  0  0  0  0
  9 12  1  0  0  0  0
 11  6  1  0  0  0  0
 13  9  1  0  0  0  0
 14  9  1  0  0  0  0
M  END
$$$$
