14
butane_opt
C  -4.005492   0.298295  -0.095288
C  -2.663943  -0.651486   0.107424
H  -4.941774  -0.273605  -0.017715
H  -3.931979   0.941049  -0.956203
H  -4.023368   1.086646   0.800288
C  -1.355955   0.146516   0.143832
H  -2.577484  -1.278322  -0.672686
H  -2.885135  -1.341383   1.037115
C  -0.173112  -0.663203  -0.052311
H  -1.144502   0.901942   1.001728
H  -1.507531   0.575569  -0.622347
H   0.044384  -1.453063   0.974407
H   0.788533  -0.011604  -0.491968
H  -0.475055  -1.159840  -0.811652
