14
butane_opt
C  -3.883594   0.222689  -0.035715
C  -2.712078  -0.580363   0.046996
H  -4.816871  -0.325282   0.470781
H  -4.125996   1.079784  -1.028708
H  -3.680104   0.567597   0.619722
C  -1.434236   0.239989   0.056440
H  -2.652581  -1.215151  -0.773794
H  -2.756473  -1.310668   1.006653
C  -0.182517  -0.742213   0.015864
H  -1.376773   1.041269   1.010980
H  -1.595750   0.885403  -0.737128
H  -0.200668  -1.146020   0.749142
H   0.782957  -0.125591   0.106815
H  -0.043544  -1.615508  -1.039194
