14
butane_opt
C  -3.912368   0.230922   0.107053
C  -2.754829  -0.599719  -0.017539
H  -4.914856  -0.392968  -0.524871
H  -3.852005   0.448669  -0.472251
H  -4.145238   1.274146   1.236338
C  -1.402078   0.259967  -0.094693
H  -2.838194  -1.211479  -0.856146
H  -2.631856  -1.194949   0.827644
C  -0.135036  -0.748330   0.125307
H  -1.403718   0.777491   0.579488
H  -1.382703   1.101484  -1.079577
H  -0.046079  -1.527811   1.122131
H   0.757714  -0.203995  -0.098211
H  -0.078417  -1.306761  -0.693077
