butane_opt
 OpenBabel08242015383D

 14 13  0  0  0  0  0  0  0  0999 V2000
   -3.9856    0.2914    0.1134 C   0  0  0  0  0  0  0  0  0  0  0  0
   -2.6949   -0.6362   -0.0178 C   0  0  0  0  0  0  0  0  0  0  0  0
   -4.8679   -0.2768    0.0651 H   0  0  0  0  0  0  0  0  0  0  0  0
   -4.1379    0.8411   -0.6979 H   0  0  0  0  0  0  0  0  0  0  0  0
   -4.0881    1.0087    1.0439 H   0  0  0  0  0  0  0  0  0  0  0  0
   -1.3723    0.1394   -0.1231 C   0  0  0  0  0  0  0  0  0  0  0  0
   -2.8080   -1.5131   -1.0063 H   0  0  0  0  0  0  0  0  0  0  0  0
   -2.6461   -1.1118    0.7411 H   0  0  0  0  0  0  0  0  0  0  0  0
   -0.1420   -0.6581    0.1268 C   0  0  0  0  0  0  0  0  0  0  0  0
   -1.3856    0.7846    0.6325 H   0  0  0  0  0  0  0  0  0  0  0  0
   -1.4067    0.9136   -1.1636 H   0  0  0  0  0  0  0  0  0  0  0  0
   -0.2572   -1.3114    1.0834 H   0  0  0  0  0  0  0  0  0  0  0  0
    0.9237   -0.0156    0.3793 H   0  0  0  0  0  0  0  0  0  0  0  0
   -0.0315   -1.4186   -0.8020 H   0  0  0  0  0  0  0  0  0  0  0  0
  1  5  1  0  0  0  0
  2  1  1  0  0  0  0
  2  8  1  0  0  0  0
  3  1  1  0  0  0  0
  4  1  1  0  0  0  0
  6  2  1  0  0  0  0
  6  9  1  0  0  0  0
  6 10  1  0  0  0  0
  7  2  1  0  0  0  0
  9 13  1  0  0  0  0
  9 12  1  0  0  0  0
 11  6  1  0  0  0  0
 14  9  1  0  0  0  0
M  END
$$$$
