14
butane_opt
C  -3.955391   0.279117   0.006293
C  -2.703362  -0.630559   0.072837
H  -4.892640  -0.332741   0.021302
H  -3.975225   0.913377  -0.919246
H  -3.976502   0.902117   0.841640
C  -1.392416   0.181591   0.008822
H  -2.716845  -1.319962  -0.798040
H  -2.691842  -1.240072   0.936088
C  -0.152777  -0.681639   0.021263
H  -1.359822   0.826482   0.826509
H  -1.428638   0.807193  -0.871961
H  -0.201518  -1.225185   0.857426
H   0.753879  -0.102460   0.145613
H  -0.089531  -1.484727  -0.923042
