14
butane_opt
C  -3.887140   0.242376   0.103982
C  -2.717756  -0.603895   0.007707
H  -4.837624  -0.420341   0.109669
H  -3.981087   0.869362  -0.822127
H  -3.906854   0.942096   0.974075
C  -1.454556   0.234019  -0.123965
H  -2.725787  -1.473979  -0.947073
H  -2.693175  -1.184622   0.901849
C  -0.151053  -0.716183   0.110071
H  -1.489815   0.847253   0.589867
H  -1.408649   0.984448  -1.057363
H  -0.324070  -1.177966   0.901237
H   0.778247  -0.124460   0.573800
H   0.107149  -1.628618  -0.961481
