14
butane_opt
C  -3.952549   0.253286  -0.008732
C  -2.706656  -0.613053   0.059447
H  -4.845071  -0.330015   0.022259
H  -3.929570   0.923803  -0.937232
H  -3.976479   0.881141   0.813634
C  -1.400664   0.200653   0.048329
H  -2.677770  -1.268152  -0.773681
H  -2.780978  -1.259140   0.978373
C  -0.149746  -0.704322   0.002741
H  -1.396532   0.930452   0.956562
H  -1.410796   0.836131  -0.817928
H  -0.009737  -1.339538   0.906094
H   0.718953  -0.123171  -0.070410
H  -0.199575  -1.367038  -0.859829
