butane_opt
 OpenBabel08242015383D

 14 11  0  0  0  0  0  0  0  0999 V2000
   -3.9213    0.2386   -0.0470 C   0  0  0  0  0  0  0  0  0  0  0  0
   -2.7029   -0.5793    0.1338 C   0  0  0  0  0  0  0  0  0  0  0  0
   -4.8875   -0.3892    0.1856 H   0  0  0  0  0  0  0  0  0  0  0  0
   -3.8386    1.0381   -1.1011 H   0  0  0  0  0  0  0  0  0  0  0  0
   -3.9717    0.7846    0.7559 H   0  0  0  0  0  0  0  0  0  0  0  0
   -1.4202    0.2158    0.0275 C   0  0  0  0  0  0  0  0  0  0  0  0
   -2.7531   -1.1019   -0.6272 H   0  0  0  0  0  0  0  0  0  0  0  0
   -2.7610   -1.2906    1.0486 H   0  0  0  0  0  0  0  0  0  0  0  0
   -0.1627   -0.7473   -0.0021 C   0  0  0  0  0  0  0  0  0  0  0  0
   -1.3577    0.7655    0.8600 H   0  0  0  0  0  0  0  0  0  0  0  0
   -1.4610    0.7969   -0.8715 H   0  0  0  0  0  0  0  0  0  0  0  0
   -0.2075   -0.7283    0.5524 H   0  0  0  0  0  0  0  0  0  0  0  0
    0.8324    0.0121    0.4186 H   0  0  0  0  0  0  0  0  0  0  0  0
   -0.1223   -1.8960   -1.1866 H   0  0  0  0  0  0  0  0  0  0  0  0
  1  2  1  0  0  0  0
  1  3  1  0  0  0  0
  1  5  1  0  0  0  0
  2  8  1  0  0  0  0
  4  1  1  0  0  0  0
  6  2  1  0  0  0  0
  6 10  1  0  0  0  0
  7  2  1  0  0  0  0
  9  6  1  0  0  0  0
  9 13  1  0  0  0  0
 11  6  1  0  0  0  0
M  RAD  3   9   3  12   2  14   2
M  END
$$$$
