14
butane_opt
C  -3.940161   0.235921   0.047839
C  -2.742097  -0.586259   0.036472
H  -4.796606  -0.336627  -0.134848
H  -3.964614   0.509722  -0.605021
H  -4.035771   1.097734   1.084922
C  -1.388139   0.240481  -0.072686
H  -2.739663  -1.279352  -0.841083
H  -2.862908  -1.143547   0.867551
C  -0.116587  -0.717184   0.078807
H  -1.439536   0.717804   0.722571
H  -1.468006   0.979385  -1.048228
H  -0.106307  -1.392293   1.048312
H   0.675125  -0.281831   0.173346
H  -0.032266  -1.438652  -0.864196
