butane_opt
 OpenBabel08242015383D

 14 13  0  0  0  0  0  0  0  0999 V2000
   -3.9983    0.2872    0.0856 C   0  0  0  0  0  0  0  0  0  0  0  0
   -2.6669   -0.6716   -0.0537 C   0  0  0  0  0  0  0  0  0  0  0  0
   -4.8002   -0.2336    0.0448 H   0  0  0  0  0  0  0  0  0  0  0  0
   -4.2073    0.8640   -0.6779 H   0  0  0  0  0  0  0  0  0  0  0  0
   -3.8503    1.0279    1.0374 H   0  0  0  0  0  0  0  0  0  0  0  0
   -1.3914    0.1957   -0.0661 C   0  0  0  0  0  0  0  0  0  0  0  0
   -2.7763   -1.4803   -1.0336 H   0  0  0  0  0  0  0  0  0  0  0  0
   -2.4855   -1.2083    0.7289 H   0  0  0  0  0  0  0  0  0  0  0  0
   -0.1615   -0.6627    0.1039 C   0  0  0  0  0  0  0  0  0  0  0  0
   -1.2709    0.8504    0.7509 H   0  0  0  0  0  0  0  0  0  0  0  0
   -1.3187    0.6974   -0.8025 H   0  0  0  0  0  0  0  0  0  0  0  0
   -0.2252   -1.6072    1.2066 H   0  0  0  0  0  0  0  0  0  0  0  0
    0.7256   -0.1664   -0.1625 H   0  0  0  0  0  0  0  0  0  0  0  0
   -0.1864   -0.9781   -0.4662 H   0  0  0  0  0  0  0  0  0  0  0  0
  1  5  1  0  0  0  0
  2  1  1  0  0  0  0
  2  8  1  0  0  0  0
  3  1  1  0  0  0  0
  4  1  1  0  0  0  0
  6  2  1  0  0  0  0
  6  9  1  0  0  0  0
  6 10  1  0  0  0  0
  7  2  1  0  0  0  0
  9 12  1  0  0  0  0
 11  6  1  0  0  0  0
 13  9  1  0  0  0  0
 14  9  1  0  0  0  0
M  END
$$$$
