14
butane_opt
C  -3.904958   0.230804   0.076364
C  -2.711191  -0.533003  -0.035295
H  -4.891774  -0.434958   0.170897
H  -4.009677   0.802788  -0.783827
H  -3.740923   0.794859   0.861554
C  -1.413715   0.196748  -0.065849
H  -2.711138  -1.126728  -0.820660
H  -2.676950  -1.347888   1.001861
C  -0.177194  -0.730081   0.081700
H  -1.426560   0.856559   0.876839
H  -1.351103   0.921045  -1.001626
H  -0.260199  -1.182061   0.987821
H   0.664607  -0.182701   0.397516
H  -0.109822  -1.584756  -0.954901
