14
butane_opt
C  -3.993425   0.320344   0.027986
C  -2.688546  -0.664716   0.040823
H  -4.882488  -0.251944  -0.231801
H  -3.878648   0.556032  -0.621485
H  -4.062154   1.194040   1.011735
C  -1.403601   0.136335  -0.043625
H  -2.618605  -1.179722  -0.675252
H  -2.608336  -1.414289   1.022885
C  -0.153068  -0.663091   0.042962
H  -1.415714   0.781766   0.779866
H  -1.104759   0.802297  -0.890113
H  -0.179966  -1.207494   1.001750
H   0.803935   0.013164   0.090950
H  -0.233546  -1.325369  -0.855119
