butane_opt
 OpenBabel08242015383D

 14 12  0  0  0  0  0  0  0  0999 V2000
   -3.9156    0.2224    0.0023 C   0  0  0  0  0  0  0  0  0  0  0  0
   -2.7037   -0.5958    0.0397 C   0  0  0  0  0  0  0  0  0  0  0  0
   -4.7587   -0.2715    0.4026 H   0  0  0  0  0  0  0  0  0  0  0  0
   -4.0326    1.2879   -1.1856 H   0  0  0  0  0  0  0  0  0  0  0  0
   -3.6996    0.4464    0.5605 H   0  0  0  0  0  0  0  0  0  0  0  0
   -1.4615    0.2250    0.0641 C   0  0  0  0  0  0  0  0  0  0  0  0
   -2.8965   -1.2901   -0.8926 H   0  0  0  0  0  0  0  0  0  0  0  0
   -2.5815   -1.0867    0.8593 H   0  0  0  0  0  0  0  0  0  0  0  0
   -0.1526   -0.7134   -0.0002 C   0  0  0  0  0  0  0  0  0  0  0  0
   -1.4002    1.0181    0.9977 H   0  0  0  0  0  0  0  0  0  0  0  0
   -1.3878    0.6894   -0.7567 H   0  0  0  0  0  0  0  0  0  0  0  0
   -0.0557   -1.2810    0.8955 H   0  0  0  0  0  0  0  0  0  0  0  0
    0.6861   -0.1033    0.0708 H   0  0  0  0  0  0  0  0  0  0  0  0
   -0.1066   -1.5331   -0.8590 H   0  0  0  0  0  0  0  0  0  0  0  0
  1  2  1  0  0  0  0
  1  3  1  0  0  0  0
  1  5  1  0  0  0  0
  2  6  1  0  0  0  0
  2  8  1  0  0  0  0
  6 10  1  0  0  0  0
  7  2  1  0  0  0  0
  9  6  1  0  0  0  0
  9 13  1  0  0  0  0
  9 12  1  0  0  0  0
 11  6  1  0  0  0  0
 14  9  1  0  0  0  0
M  RAD  2   1   2   4   2
M  END
$$$$
