14
butane_opt
C  -3.915683   0.258578  -0.002487
C  -2.687987  -0.607835   0.041621
H  -4.933570  -0.436759   0.478475
H  -3.882166   1.241529  -1.127482
H  -3.764708   0.629854   0.682753
C  -1.424441   0.197932   0.068843
H  -2.838736  -1.349410  -0.926964
H  -2.670182  -1.181435   0.826690
C  -0.185455  -0.702512   0.003902
H  -1.359788   0.866722   0.952715
H  -1.425098   0.861219  -0.901853
H  -0.182929  -1.234192   0.822171
H   0.606665  -0.148484   0.193781
H  -0.016017  -1.481199  -0.935680
