14
butane_opt
C  -3.922008   0.246555   0.090511
C  -2.679157  -0.585070  -0.086489
H  -5.020708  -0.500340   0.299594
H  -4.025899   0.951269  -0.805572
H  -3.628268   0.847209   0.983531
C  -1.443854   0.198584  -0.058027
H  -2.858389  -1.195740  -0.903407
H  -2.550670  -1.240485   0.937683
C  -0.155971  -0.695633   0.116842
H  -1.630528   0.809068   0.714602
H  -1.309580   0.795027  -0.947469
H  -0.263569  -1.282441   1.040886
H   0.698482  -0.208341   0.140183
H  -0.006563  -1.445824  -0.824355
