butane_opt
 OpenBabel08242015383D

 14 13  0  0  0  0  0  0  0  0999 V2000
   -3.9672    0.2802   -0.0509 C   0  0  0  0  0  0  0  0  0  0  0  0
   -2.7189   -0.6637    0.1259 C   0  0  0  0  0  0  0  0  0  0  0  0
   -4.6990   -0.1697    0.1290 H   0  0  0  0  0  0  0  0  0  0  0  0
   -3.9902    1.0263   -1.0272 H   0  0  0  0  0  0  0  0  0  0  0  0
   -4.1992    0.7846    0.7341 H   0  0  0  0  0  0  0  0  0  0  0  0
   -1.4063    0.1723    0.0276 C   0  0  0  0  0  0  0  0  0  0  0  0
   -2.6079   -1.2297   -0.5281 H   0  0  0  0  0  0  0  0  0  0  0  0
   -2.7431   -1.3484    1.0483 H   0  0  0  0  0  0  0  0  0  0  0  0
   -0.1444   -0.6789   -0.0250 C   0  0  0  0  0  0  0  0  0  0  0  0
   -1.2893    1.0171    1.0226 H   0  0  0  0  0  0  0  0  0  0  0  0
   -1.4172    0.6955   -0.7707 H   0  0  0  0  0  0  0  0  0  0  0  0
   -0.0867   -0.9227    0.6688 H   0  0  0  0  0  0  0  0  0  0  0  0
    0.8092   -0.0525    0.2723 H   0  0  0  0  0  0  0  0  0  0  0  0
    0.0103   -1.5716   -1.0745 H   0  0  0  0  0  0  0  0  0  0  0  0
  1  2  1  0  0  0  0
  1  3  1  0  0  0  0
  1  5  1  0  0  0  0
  2  8  1  0  0  0  0
  4  1  1  0  0  0  0
  6  2  1  0  0  0  0
  6 10  1  0  0  0  0
  7  2  1  0  0  0  0
  9  6  1  0  0  0  0
  9 13  1  0  0  0  0
  9 12  1  0  0  0  0
 11  6  1  0  0  0  0
 14  9  1  0  0  0  0
M  END
$$$$
