14
butane_opt
C  -4.005759   0.299473  -0.068002
C  -2.674521  -0.669940   0.079339
H  -4.905540  -0.178165  -0.045621
H  -4.070726   0.877087  -0.960957
H  -4.104078   1.020594   0.814328
C  -1.378992   0.144597   0.116770
H  -2.767775  -1.268072  -0.634906
H  -2.751072  -1.323361   0.983777
C  -0.102556  -0.667432  -0.027282
H  -1.336840   0.916390   1.066240
H  -1.437873   0.684511  -0.670852
H  -0.054665  -1.327714   0.946720
H   0.834447  -0.060622  -0.508288
H  -0.485615  -1.077851  -0.761975
