butane_opt
 OpenBabel08242015383D

 14 13  0  0  0  0  0  0  0  0999 V2000
   -3.9726    0.2836   -0.0989 C   0  0  0  0  0  0  0  0  0  0  0  0
   -2.6781   -0.6179    0.1608 C   0  0  0  0  0  0  0  0  0  0  0  0
   -4.8304   -0.3198   -0.2326 H   0  0  0  0  0  0  0  0  0  0  0  0
   -3.7282    0.8023   -0.9119 H   0  0  0  0  0  0  0  0  0  0  0  0
   -4.0551    1.1565    0.9635 H   0  0  0  0  0  0  0  0  0  0  0  0
   -1.4193    0.1194    0.1240 C   0  0  0  0  0  0  0  0  0  0  0  0
   -2.4566   -1.3397   -0.6490 H   0  0  0  0  0  0  0  0  0  0  0  0
   -2.7675   -1.3361    1.1160 H   0  0  0  0  0  0  0  0  0  0  0  0
   -0.1835   -0.6504   -0.0685 C   0  0  0  0  0  0  0  0  0  0  0  0
   -1.2643    0.8286    0.9285 H   0  0  0  0  0  0  0  0  0  0  0  0
   -1.3278    0.8106   -0.8325 H   0  0  0  0  0  0  0  0  0  0  0  0
   -0.0563   -1.3052    0.8360 H   0  0  0  0  0  0  0  0  0  0  0  0
    0.7717   -0.0438   -0.2375 H   0  0  0  0  0  0  0  0  0  0  0  0
   -0.2886   -1.3221   -0.9239 H   0  0  0  0  0  0  0  0  0  0  0  0
  1  2  1  0  0  0  0
  1  5  1  0  0  0  0
  2  8  1  0  0  0  0
  3  1  1  0  0  0  0
  4  1  1  0  0  0  0
  6  2  1  0  0  0  0
  6 10  1  0  0  0  0
  7  2  1  0  0  0  0
  9  6  1  0  0  0  0
  9 12  1  0  0  0  0
 11  6  1  0  0  0  0
 13  9  1  0  0  0  0
 14  9  1  0  0  0  0
M  END
$$$$
