14
butane_opt
C  -3.941675   0.302172   0.061402
C  -2.685417  -0.640871  -0.059406
H  -4.888558  -0.354464   0.083239
H  -4.095901   0.648507  -0.658116
H  -3.913883   1.119636   1.065836
C  -1.438879   0.138681  -0.028040
H  -2.633247  -1.389093  -0.963571
H  -2.630267  -1.205839   0.770100
C  -0.152231  -0.676597   0.095831
H  -1.419384   0.908787   0.987051
H  -1.252678   0.829847  -0.987801
H  -0.048927  -1.646134   1.247830
H   0.842359   0.032121  -0.423432
H  -0.374706  -0.881379  -0.458890
