butane_opt
 OpenBabel08242015383D

 14 13  0  0  0  0  0  0  0  0999 V2000
   -3.9294    0.2336   -0.0731 C   0  0  0  0  0  0  0  0  0  0  0  0
   -2.6846   -0.5630    0.1181 C   0  0  0  0  0  0  0  0  0  0  0  0
   -4.9146   -0.3500   -0.0167 H   0  0  0  0  0  0  0  0  0  0  0  0
   -3.8759    0.8533   -1.0400 H   0  0  0  0  0  0  0  0  0  0  0  0
   -3.9867    0.7857    0.6598 H   0  0  0  0  0  0  0  0  0  0  0  0
   -1.4276    0.1827    0.1056 C   0  0  0  0  0  0  0  0  0  0  0  0
   -2.6398   -1.0782   -0.5816 H   0  0  0  0  0  0  0  0  0  0  0  0
   -2.7313   -1.2828    1.0239 H   0  0  0  0  0  0  0  0  0  0  0  0
   -0.1623   -0.7152   -0.0317 C   0  0  0  0  0  0  0  0  0  0  0  0
   -1.2843    1.0352    1.1282 H   0  0  0  0  0  0  0  0  0  0  0  0
   -1.4527    0.7077   -0.6687 H   0  0  0  0  0  0  0  0  0  0  0  0
   -0.0536   -1.2228    0.7782 H   0  0  0  0  0  0  0  0  0  0  0  0
    0.7283   -0.2007   -0.3339 H   0  0  0  0  0  0  0  0  0  0  0  0
   -0.3396   -1.3984   -0.9614 H   0  0  0  0  0  0  0  0  0  0  0  0
  1  3  1  0  0  0  0
  1  2  1  0  0  0  0
  1  5  1  0  0  0  0
  2  8  1  0  0  0  0
  4  1  1  0  0  0  0
  6  2  1  0  0  0  0
  6 10  1  0  0  0  0
  7  2  1  0  0  0  0
  9  6  1  0  0  0  0
  9 12  1  0  0  0  0
 11  6  1  0  0  0  0
 13  9  1  0  0  0  0
 14  9  1  0  0  0  0
M  END
$$$$
