14
butane_opt
C  -3.935051   0.261490   0.036606
C  -2.707137  -0.593923   0.013648
H  -4.878407  -0.368683   0.044640
H  -3.968774   0.804991  -0.815952
H  -3.928702   0.935611   0.907284
C  -1.409690   0.187823  -0.000652
H  -2.728985  -1.323046  -0.881798
H  -2.715964  -1.216469   0.888555
C  -0.158994  -0.703221   0.045605
H  -1.375697   0.880358   0.838993
H  -1.367013   0.808451  -0.893585
H  -0.171535  -1.422566   1.029708
H   0.758268  -0.139524  -0.068146
H  -0.108921  -1.259373  -0.739116
