butane_opt
 OpenBabel08242015383D

 14 13  0  0  0  0  0  0  0  0999 V2000
   -3.9968    0.3120   -0.0872 C   0  0  0  0  0  0  0  0  0  0  0  0
   -2.7133   -0.6606    0.1758 C   0  0  0  0  0  0  0  0  0  0  0  0
   -4.8118   -0.2482   -0.1244 H   0  0  0  0  0  0  0  0  0  0  0  0
   -3.9341    0.8367   -0.9431 H   0  0  0  0  0  0  0  0  0  0  0  0
   -4.1174    1.0122    0.7997 H   0  0  0  0  0  0  0  0  0  0  0  0
   -1.3814    0.1390    0.0938 C   0  0  0  0  0  0  0  0  0  0  0  0
   -2.5940   -1.3235   -0.5812 H   0  0  0  0  0  0  0  0  0  0  0  0
   -2.7859   -1.2365    0.9677 H   0  0  0  0  0  0  0  0  0  0  0  0
   -0.1592   -0.6641   -0.0589 C   0  0  0  0  0  0  0  0  0  0  0  0
   -1.1718    0.7914    0.9303 H   0  0  0  0  0  0  0  0  0  0  0  0
   -1.2715    0.7755   -0.8486 H   0  0  0  0  0  0  0  0  0  0  0  0
   -0.0691   -1.0787    0.7049 H   0  0  0  0  0  0  0  0  0  0  0  0
    0.7620   -0.0232   -0.0646 H   0  0  0  0  0  0  0  0  0  0  0  0
   -0.0574   -1.4679   -0.8950 H   0  0  0  0  0  0  0  0  0  0  0  0
  1  2  1  0  0  0  0
  1  5  1  0  0  0  0
  2  8  1  0  0  0  0
  3  1  1  0  0  0  0
  4  1  1  0  0  0  0
  6  2  1  0  0  0  0
  6 10  1  0  0  0  0
  7  2  1  0  0  0  0
  9  6  1  0  0  0  0
  9 12  1  0  0  0  0
 11  6  1  0  0  0  0
 13  9  1  0  0  0  0
 14  9  1  0  0  0  0
M  END
$$$$
