butane_opt
 OpenBabel08242015383D

 14 12  0  0  0  0  0  0  0  0999 V2000
   -3.9278    0.2297   -0.0701 C   0  0  0  0  0  0  0  0  0  0  0  0
   -2.7400   -0.6064    0.1814 C   0  0  0  0  0  0  0  0  0  0  0  0
   -4.8113   -0.3524    0.0289 H   0  0  0  0  0  0  0  0  0  0  0  0
   -3.8815    1.0668   -1.0854 H   0  0  0  0  0  0  0  0  0  0  0  0
   -4.0475    0.7676    0.6791 H   0  0  0  0  0  0  0  0  0  0  0  0
   -1.4058    0.2098    0.0516 C   0  0  0  0  0  0  0  0  0  0  0  0
   -2.7843   -1.1933   -0.5771 H   0  0  0  0  0  0  0  0  0  0  0  0
   -2.8405   -1.1915    1.1233 H   0  0  0  0  0  0  0  0  0  0  0  0
   -0.1082   -0.7092   -0.0450 C   0  0  0  0  0  0  0  0  0  0  0  0
   -1.4632    1.0392    0.9283 H   0  0  0  0  0  0  0  0  0  0  0  0
   -1.4863    0.8954   -0.8166 H   0  0  0  0  0  0  0  0  0  0  0  0
   -0.2517   -0.9198    0.6122 H   0  0  0  0  0  0  0  0  0  0  0  0
    0.6438   -0.2407    0.3243 H   0  0  0  0  0  0  0  0  0  0  0  0
    0.0965   -1.8835   -1.2741 H   0  0  0  0  0  0  0  0  0  0  0  0
  1  3  1  0  0  0  0
  1  2  1  0  0  0  0
  1  5  1  0  0  0  0
  2  8  1  0  0  0  0
  4  1  1  0  0  0  0
  6  2  1  0  0  0  0
  6 10  1  0  0  0  0
  7  2  1  0  0  0  0
  9  6  1  0  0  0  0
  9 13  1  0  0  0  0
  9 12  1  0  0  0  0
 11  6  1  0  0  0  0
M  RAD  2   9   2  14   2
M  END
$$$$
