butane_opt
 OpenBabel08242015383D

 14 13  0  0  0  0  0  0  0  0999 V2000
   -3.9087    0.2328    0.1188 C   0  0  0  0  0  0  0  0  0  0  0  0
   -2.7233   -0.5803   -0.0447 C   0  0  0  0  0  0  0  0  0  0  0  0
   -4.8148   -0.4047   -0.0945 H   0  0  0  0  0  0  0  0  0  0  0  0
   -3.9204    0.6463   -0.6976 H   0  0  0  0  0  0  0  0  0  0  0  0
   -3.7131    1.1409    1.1730 H   0  0  0  0  0  0  0  0  0  0  0  0
   -1.4254    0.1915   -0.1282 C   0  0  0  0  0  0  0  0  0  0  0  0
   -2.8206   -1.0471   -0.8003 H   0  0  0  0  0  0  0  0  0  0  0  0
   -2.4695   -1.2691    0.7906 H   0  0  0  0  0  0  0  0  0  0  0  0
   -0.1891   -0.7048    0.1269 C   0  0  0  0  0  0  0  0  0  0  0  0
   -1.5506    0.8183    0.6314 H   0  0  0  0  0  0  0  0  0  0  0  0
   -1.2533    0.9375   -1.0620 H   0  0  0  0  0  0  0  0  0  0  0  0
   -0.2333   -1.3199    1.0042 H   0  0  0  0  0  0  0  0  0  0  0  0
    0.6421   -0.1515    0.3513 H   0  0  0  0  0  0  0  0  0  0  0  0
    0.0680   -1.5168   -0.7387 H   0  0  0  0  0  0  0  0  0  0  0  0
  1  5  1  0  0  0  0
  2  1  1  0  0  0  0
  2  8  1  0  0  0  0
  3  1  1  0  0  0  0
  4  1  1  0  0  0  0
  6  2  1  0  0  0  0
  6  9  1  0  0  0  0
  6 10  1  0  0  0  0
  7  2  1  0  0  0  0
  9 13  1  0  0  0  0
  9 12  1  0  0  0  0
 11  6  1  0  0  0  0
 14  9  1  0  0  0  0
M  END
$$$$
