14
butane_opt
C  -3.937266   0.229583  -0.041677
C  -2.692747  -0.569101   0.160294
H  -4.911642  -0.500758  -0.412490
H  -3.579527   0.655208  -0.895991
H  -4.140476   1.048813   0.915654
C  -1.420768   0.225166   0.028135
H  -2.685965  -1.097103  -0.577529
H  -2.823390  -1.180017   1.043319
C  -0.154244  -0.724212  -0.033894
H  -1.323744   1.019326   0.940033
H  -1.405327   0.736049  -0.720892
H  -0.047832  -1.466293   0.835749
H   0.636518  -0.220455  -0.046417
H  -0.247877  -1.446665  -0.966767
