butane_opt
 OpenBabel08242015383D

 14 13  0  0  0  0  0  0  0  0999 V2000
   -3.9567    0.2727   -0.0440 C   0  0  0  0  0  0  0  0  0  0  0  0
   -2.7422   -0.6256    0.0733 C   0  0  0  0  0  0  0  0  0  0  0  0
   -4.8784   -0.3081    0.0265 H   0  0  0  0  0  0  0  0  0  0  0  0
   -3.9716    1.0337   -0.9362 H   0  0  0  0  0  0  0  0  0  0  0  0
   -3.9748    0.9078    0.7892 H   0  0  0  0  0  0  0  0  0  0  0  0
   -1.3938    0.1999    0.0875 C   0  0  0  0  0  0  0  0  0  0  0  0
   -2.6877   -1.3894   -0.8072 H   0  0  0  0  0  0  0  0  0  0  0  0
   -2.8004   -1.3331    1.0444 H   0  0  0  0  0  0  0  0  0  0  0  0
   -0.1071   -0.6975   -0.0268 C   0  0  0  0  0  0  0  0  0  0  0  0
   -1.3022    1.0622    1.0589 H   0  0  0  0  0  0  0  0  0  0  0  0
   -1.4134    0.5769   -0.6883 H   0  0  0  0  0  0  0  0  0  0  0  0
   -0.1302   -1.5095    1.0146 H   0  0  0  0  0  0  0  0  0  0  0  0
    0.7878   -0.1153   -0.3826 H   0  0  0  0  0  0  0  0  0  0  0  0
   -0.2495   -1.1764   -0.7629 H   0  0  0  0  0  0  0  0  0  0  0  0
  1  3  1  0  0  0  0
  1  2  1  0  0  0  0
  1  5  1  0  0  0  0
  2  6  1  0  0  0  0
  2  8  1  0  0  0  0
  4  1  1  0  0  0  0
  6 10  1  0  0  0  0
  7  2  1  0  0  0  0
  9  6  1  0  0  0  0
  9 12  1  0  0  0  0
 11  6  1  0  0  0  0
 13  9  1  0  0  0  0
 14  9  1  0  0  0  0
M  END
$$$$
