butane_opt
 OpenBabel08242015383D

 14 13  0  0  0  0  0  0  0  0999 V2000
   -3.9285    0.3091    0.0751 C   0  0  0  0  0  0  0  0  0  0  0  0
   -2.6679   -0.6492   -0.0296 C   0  0  0  0  0  0  0  0  0  0  0  0
   -4.7706   -0.2329    0.3281 H   0  0  0  0  0  0  0  0  0  0  0  0
   -4.1165    1.0914   -0.9978 H   0  0  0  0  0  0  0  0  0  0  0  0
   -3.8939    0.6528    0.7830 H   0  0  0  0  0  0  0  0  0  0  0  0
   -1.4205    0.1455   -0.0134 C   0  0  0  0  0  0  0  0  0  0  0  0
   -2.8229   -1.5138   -1.0090 H   0  0  0  0  0  0  0  0  0  0  0  0
   -2.4568   -1.2783    0.8573 H   0  0  0  0  0  0  0  0  0  0  0  0
   -0.2197   -0.6585    0.0670 C   0  0  0  0  0  0  0  0  0  0  0  0
   -1.3518    0.8149    0.8105 H   0  0  0  0  0  0  0  0  0  0  0  0
   -1.2353    0.8166   -0.9391 H   0  0  0  0  0  0  0  0  0  0  0  0
   -0.2908   -1.1578    0.9609 H   0  0  0  0  0  0  0  0  0  0  0  0
    0.7386   -0.0070    0.1645 H   0  0  0  0  0  0  0  0  0  0  0  0
   -0.0075   -1.3872   -0.7651 H   0  0  0  0  0  0  0  0  0  0  0  0
  1  3  1  0  0  0  0
  1  5  1  0  0  0  0
  2  6  1  0  0  0  0
  2  1  1  0  0  0  0
  2  8  1  0  0  0  0
  4  1  1  0  0  0  0
  6  9  1  0  0  0  0
  6 10  1  0  0  0  0
  7  2  1  0  0  0  0
  9 13  1  0  0  0  0
  9 12  1  0  0  0  0
 11  6  1  0  0  0  0
 14  9  1  0  0  0  0
M  END
$$$$
