14
butane_opt
C  -3.988306   0.294842  -0.092198
C  -2.689131  -0.664156   0.173393
H  -4.779720  -0.270859  -0.495899
H  -3.952557   0.836889  -0.896787
H  -4.239442   1.151335   0.894414
C  -1.339394   0.169411   0.109977
H  -2.607584  -1.153132  -0.556511
H  -2.885637  -1.505861   1.319290
C  -0.189214  -0.654965  -0.082922
H  -1.189890   0.834183   0.927349
H  -1.508313   0.717212  -0.728471
H   0.005581  -1.230363   0.757849
H   0.747403  -0.055326  -0.054574
H  -0.156515  -1.522749  -1.026486
