14
butane_opt
C  -3.931994   0.289762   0.045394
C  -2.688288  -0.665718  -0.033188
H  -4.717285  -0.180718  -0.010362
H  -4.183047   0.813975  -0.771732
H  -3.829000   1.101297   1.008747
C  -1.417700   0.165958   0.023006
H  -2.635982  -1.566743  -1.062985
H  -2.622555  -1.238204   0.871286
C  -0.187800  -0.656063   0.070429
H  -1.392395   0.732622   0.836680
H  -1.445180   0.896221  -0.931561
H   0.011738  -1.599680   1.139802
H   0.824646   0.002244  -0.387872
H  -0.352379  -0.985240  -0.479665
