14
butane_opt
C  -3.913125   0.247268   0.056968
C  -2.708002  -0.584169   0.018297
H  -4.827805  -0.431882  -0.252495
H  -3.796984   0.635164  -0.664327
H  -3.996791   1.133412   1.096993
C  -1.423526   0.212189  -0.039627
H  -2.668205  -1.289826  -0.737913
H  -2.664244  -1.235352   0.907458
C  -0.177547  -0.735371   0.068044
H  -1.442861   0.653253   0.655726
H  -1.482384   1.009374  -1.060913
H  -0.153785  -1.228904   0.833836
H   0.806899  -0.049454   0.167631
H  -0.125216  -1.336240  -0.719646
