14
butane_opt
C  -3.936590   0.285269  -0.050427
C  -2.648044  -0.658464   0.127857
H  -4.851770  -0.209634  -0.328842
H  -3.774481   0.686944  -0.797033
H  -4.254574   1.162689   0.972562
C  -1.405304   0.167660   0.035700
H  -2.696488  -1.108684  -0.611520
H  -2.793500  -1.433910   1.182562
C  -0.203935  -0.672749  -0.014903
H  -1.358309   0.893885   0.907005
H  -1.515576   0.686366  -0.830671
H  -0.095632  -1.229171   0.810795
H   0.856504   0.111330  -0.057652
H  -0.242117  -1.481303  -0.966389
