butane_opt
 OpenBabel08242015383D

 14 12  0  0  0  0  0  0  0  0999 V2000
   -3.9295    0.2500    0.0586 C   0  0  0  0  0  0  0  0  0  0  0  0
   -2.6940   -0.5855   -0.0103 C   0  0  0  0  0  0  0  0  0  0  0  0
   -4.9561   -0.3894   -0.2188 H   0  0  0  0  0  0  0  0  0  0  0  0
   -3.8568    0.4020   -0.5565 H   0  0  0  0  0  0  0  0  0  0  0  0
   -3.9275    1.4032    1.2546 H   0  0  0  0  0  0  0  0  0  0  0  0
   -1.4083    0.2201   -0.0740 C   0  0  0  0  0  0  0  0  0  0  0  0
   -2.6948   -1.2885   -0.8214 H   0  0  0  0  0  0  0  0  0  0  0  0
   -2.7144   -1.2345    0.9385 H   0  0  0  0  0  0  0  0  0  0  0  0
   -0.1795   -0.7287    0.1109 C   0  0  0  0  0  0  0  0  0  0  0  0
   -1.3176    0.6495    0.6431 H   0  0  0  0  0  0  0  0  0  0  0  0
   -1.4311    0.8648   -1.0571 H   0  0  0  0  0  0  0  0  0  0  0  0
   -0.1483   -1.4958    1.0613 H   0  0  0  0  0  0  0  0  0  0  0  0
    0.7830   -0.0601   -0.0531 H   0  0  0  0  0  0  0  0  0  0  0  0
   -0.2082   -1.1947   -0.6875 H   0  0  0  0  0  0  0  0  0  0  0  0
  2  1  1  0  0  0  0
  2  8  1  0  0  0  0
  3  1  1  0  0  0  0
  4  1  1  0  0  0  0
  6  2  1  0  0  0  0
  6  9  1  0  0  0  0
  6 10  1  0  0  0  0
  7  2  1  0  0  0  0
  9 12  1  0  0  0  0
 11  6  1  0  0  0  0
 13  9  1  0  0  0  0
 14  9  1  0  0  0  0
M  RAD  2   1   2   5   2
M  END
$$$$
