butane_opt
 OpenBabel08242015383D

 14 11  0  0  0  0  0  0  0  0999 V2000
   -3.9590    0.3160    0.0534 C   0  0  0  0  0  0  0  0  0  0  0  0
   -2.7021   -0.6435    0.0074 C   0  0  0  0  0  0  0  0  0  0  0  0
   -4.8208   -0.2918   -0.2456 H   0  0  0  0  0  0  0  0  0  0  0  0
   -4.0559    0.3833   -0.4785 H   0  0  0  0  0  0  0  0  0  0  0  0
   -4.1497    1.3457    1.1974 H   0  0  0  0  0  0  0  0  0  0  0  0
   -1.3891    0.1273   -0.0862 C   0  0  0  0  0  0  0  0  0  0  0  0
   -2.8080   -1.3088   -0.8196 H   0  0  0  0  0  0  0  0  0  0  0  0
   -2.6467   -1.4040    0.9131 H   0  0  0  0  0  0  0  0  0  0  0  0
   -0.1385   -0.6502    0.1027 C   0  0  0  0  0  0  0  0  0  0  0  0
   -1.4460    0.7568    0.7396 H   0  0  0  0  0  0  0  0  0  0  0  0
   -1.4445    0.8821   -1.0716 H   0  0  0  0  0  0  0  0  0  0  0  0
   -0.2413   -1.3954    1.0988 H   0  0  0  0  0  0  0  0  0  0  0  0
    0.8644    0.0185   -0.0352 H   0  0  0  0  0  0  0  0  0  0  0  0
   -0.0453   -1.2347   -0.7371 H   0  0  0  0  0  0  0  0  0  0  0  0
  2  1  1  0  0  0  0
  2  8  1  0  0  0  0
  3  1  1  0  0  0  0
  6  2  1  0  0  0  0
  6  9  1  0  0  0  0
  6 10  1  0  0  0  0
  7  2  1  0  0  0  0
  9 12  1  0  0  0  0
 11  6  1  0  0  0  0
 13  9  1  0  0  0  0
 14  9  1  0  0  0  0
M  RAD  3   1   3   4   2   5   2
M  END
$$$$
