butane_opt
 OpenBabel08242015383D

 14 13  0  0  0  0  0  0  0  0999 V2000
   -3.9276    0.2268    0.1044 C   0  0  0  0  0  0  0  0  0  0  0  0
   -2.7025   -0.5398   -0.0252 C   0  0  0  0  0  0  0  0  0  0  0  0
   -4.9038   -0.4934    0.1041 H   0  0  0  0  0  0  0  0  0  0  0  0
   -3.8169    0.7713   -0.7788 H   0  0  0  0  0  0  0  0  0  0  0  0
   -3.7717    0.9266    0.9294 H   0  0  0  0  0  0  0  0  0  0  0  0
   -1.4355    0.1975   -0.1003 C   0  0  0  0  0  0  0  0  0  0  0  0
   -2.7830   -1.2441   -0.8934 H   0  0  0  0  0  0  0  0  0  0  0  0
   -2.5107   -1.3265    0.9532 H   0  0  0  0  0  0  0  0  0  0  0  0
   -0.1685   -0.7127    0.0916 C   0  0  0  0  0  0  0  0  0  0  0  0
   -1.5298    0.8750    0.7356 H   0  0  0  0  0  0  0  0  0  0  0  0
   -1.4140    0.8713   -1.1038 H   0  0  0  0  0  0  0  0  0  0  0  0
   -0.2615   -1.1839    0.9369 H   0  0  0  0  0  0  0  0  0  0  0  0
    0.6812   -0.2149    0.5335 H   0  0  0  0  0  0  0  0  0  0  0  0
    0.0971   -1.5289   -0.8269 H   0  0  0  0  0  0  0  0  0  0  0  0
  1  5  1  0  0  0  0
  2  1  1  0  0  0  0
  2  8  1  0  0  0  0
  3  1  1  0  0  0  0
  4  1  1  0  0  0  0
  6  2  1  0  0  0  0
  6  9  1  0  0  0  0
  6 10  1  0  0  0  0
  7  2  1  0  0  0  0
  9 13  1  0  0  0  0
  9 12  1  0  0  0  0
 11  6  1  0  0  0  0
 14  9  1  0  0  0  0
M  END
$$$$
