butane_opt
 OpenBabel08242015383D

 14 13  0  0  0  0  0  0  0  0999 V2000
   -3.9431    0.2847   -0.0178 C   0  0  0  0  0  0  0  0  0  0  0  0
   -2.6526   -0.6253    0.0676 C   0  0  0  0  0  0  0  0  0  0  0  0
   -4.8218   -0.2656   -0.1725 H   0  0  0  0  0  0  0  0  0  0  0  0
   -3.9626    0.9713   -0.9259 H   0  0  0  0  0  0  0  0  0  0  0  0
   -4.1186    0.9779    0.8529 H   0  0  0  0  0  0  0  0  0  0  0  0
   -1.4114    0.1287    0.0834 C   0  0  0  0  0  0  0  0  0  0  0  0
   -2.7245   -1.2809   -0.7572 H   0  0  0  0  0  0  0  0  0  0  0  0
   -2.6688   -1.3176    0.9450 H   0  0  0  0  0  0  0  0  0  0  0  0
   -0.1744   -0.6547   -0.0238 C   0  0  0  0  0  0  0  0  0  0  0  0
   -1.4439    0.8522    0.9414 H   0  0  0  0  0  0  0  0  0  0  0  0
   -1.3557    0.5187   -0.6664 H   0  0  0  0  0  0  0  0  0  0  0  0
   -0.1522   -1.5088    1.0299 H   0  0  0  0  0  0  0  0  0  0  0  0
    0.7905    0.0735   -0.3362 H   0  0  0  0  0  0  0  0  0  0  0  0
   -0.3951   -1.0643   -0.7826 H   0  0  0  0  0  0  0  0  0  0  0  0
  1  2  1  0  0  0  0
  1  5  1  0  0  0  0
  2  6  1  0  0  0  0
  2  8  1  0  0  0  0
  3  1  1  0  0  0  0
  4  1  1  0  0  0  0
  6 10  1  0  0  0  0
  7  2  1  0  0  0  0
  9  6  1  0  0  0  0
  9 12  1  0  0  0  0
 11  6  1  0  0  0  0
 13  9  1  0  0  0  0
 14  9  1  0  0  0  0
M  END
$$$$
