14
butane_opt
C  -3.933377   0.228830   0.055671
C  -2.741330  -0.570549  -0.016872
H  -4.939938  -0.488417   0.160685
H  -3.943697   0.934084  -0.887762
H  -3.843635   0.956086   1.001779
C  -1.406799   0.225566  -0.005023
H  -2.754990  -1.279672  -0.821503
H  -2.735101  -1.186184   0.827128
C  -0.116167  -0.724216   0.067439
H  -1.552220   0.801613   0.724186
H  -1.239458   0.878684  -0.994197
H  -0.128255  -1.387021   0.949330
H   0.601223  -0.233589   0.075693
H  -0.081832  -1.404008  -0.814308
