14
butane_opt
C  -3.935277   0.228430  -0.069289
C  -2.732249  -0.574341   0.123030
H  -4.870807  -0.368774  -0.017478
H  -3.870852   1.055552  -1.134969
H  -4.091067   0.771209   0.684988
C  -1.407730   0.228091   0.167837
H  -2.830160  -1.405564  -0.815381
H  -2.967442  -1.135334   1.006719
C  -0.123794  -0.739791  -0.081197
H  -1.377830   0.981286   1.013476
H  -1.431761   0.794934  -0.669882
H   0.134754  -1.490068   0.946169
H   0.760076  -0.122765  -0.441755
H  -0.086756  -1.253925  -0.831855
