14
butane_opt
C  -3.923987   0.284436   0.074437
C  -2.692416  -0.661206   0.010255
H  -4.721344  -0.213484  -0.219319
H  -3.926642   0.696376  -0.734541
H  -4.226977   1.275460   1.053869
C  -1.418554   0.132556  -0.036817
H  -2.525987  -1.427105  -0.903090
H  -2.661324  -1.102408   0.852625
C  -0.169224  -0.641048   0.065976
H  -1.389431   0.693454   0.733282
H  -1.426334   0.825512  -0.988026
H  -0.216807  -1.477528   1.072039
H   0.800207  -0.007207  -0.139115
H  -0.279331  -1.095665  -0.584959
