14
butane_opt
C  -3.928479   0.309085   0.075072
C  -2.667911  -0.649205  -0.029557
H  -4.770628  -0.232883   0.328065
H  -4.116545   1.091389  -0.997807
H  -3.893865   0.652775   0.782987
C  -1.420542   0.145476  -0.013441
H  -2.822888  -1.513838  -1.009028
H  -2.456772  -1.278265   0.857303
C  -0.219681  -0.658453   0.067040
H  -1.351831   0.814917   0.810451
H  -1.235317   0.816603  -0.939079
H  -0.290752  -1.157843   0.960947
H   0.738550  -0.006983   0.164537
H  -0.007470  -1.387174  -0.765136
