butane_opt
 OpenBabel08242015383D

 14 13  0  0  0  0  0  0  0  0999 V2000
   -3.9245    0.2268   -0.0248 C   0  0  0  0  0  0  0  0  0  0  0  0
   -2.7288   -0.5274    0.0970 C   0  0  0  0  0  0  0  0  0  0  0  0
   -4.8946   -0.5014    0.0471 H   0  0  0  0  0  0  0  0  0  0  0  0
   -3.7075    0.9232   -1.0669 H   0  0  0  0  0  0  0  0  0  0  0  0
   -3.9942    0.7973    0.7559 H   0  0  0  0  0  0  0  0  0  0  0  0
   -1.4209    0.1929    0.0583 C   0  0  0  0  0  0  0  0  0  0  0  0
   -2.6931   -1.3609   -0.8152 H   0  0  0  0  0  0  0  0  0  0  0  0
   -2.6409   -1.1877    0.9212 H   0  0  0  0  0  0  0  0  0  0  0  0
   -0.1428   -0.7182   -0.0118 C   0  0  0  0  0  0  0  0  0  0  0  0
   -1.3791    0.9784    1.0688 H   0  0  0  0  0  0  0  0  0  0  0  0
   -1.4178    0.7395   -0.7499 H   0  0  0  0  0  0  0  0  0  0  0  0
    0.0167   -1.4065    0.8466 H   0  0  0  0  0  0  0  0  0  0  0  0
    0.5983   -0.2605   -0.1781 H   0  0  0  0  0  0  0  0  0  0  0  0
   -0.2763   -1.2861   -0.8087 H   0  0  0  0  0  0  0  0  0  0  0  0
  1  3  1  0  0  0  0
  1  2  1  0  0  0  0
  1  5  1  0  0  0  0
  2  8  1  0  0  0  0
  4  1  1  0  0  0  0
  6  2  1  0  0  0  0
  6 10  1  0  0  0  0
  7  2  1  0  0  0  0
  9  6  1  0  0  0  0
  9 12  1  0  0  0  0
 11  6  1  0  0  0  0
 13  9  1  0  0  0  0
 14  9  1  0  0  0  0
M  END
$$$$
