butane_opt
 OpenBabel08242015383D

 14 13  0  0  0  0  0  0  0  0999 V2000
   -3.9412    0.2529   -0.0123 C   0  0  0  0  0  0  0  0  0  0  0  0
   -2.6966   -0.6000    0.0575 C   0  0  0  0  0  0  0  0  0  0  0  0
   -4.8450   -0.3224   -0.0017 H   0  0  0  0  0  0  0  0  0  0  0  0
   -3.9469    0.8121   -0.8801 H   0  0  0  0  0  0  0  0  0  0  0  0
   -3.9349    0.9190    0.8664 H   0  0  0  0  0  0  0  0  0  0  0  0
   -1.4131    0.1982    0.0432 C   0  0  0  0  0  0  0  0  0  0  0  0
   -2.6637   -1.2375   -0.7847 H   0  0  0  0  0  0  0  0  0  0  0  0
   -2.7538   -1.2609    0.9621 H   0  0  0  0  0  0  0  0  0  0  0  0
   -0.1628   -0.7027    0.0134 C   0  0  0  0  0  0  0  0  0  0  0  0
   -1.3376    0.8931    0.9219 H   0  0  0  0  0  0  0  0  0  0  0  0
   -1.4299    0.7636   -0.8169 H   0  0  0  0  0  0  0  0  0  0  0  0
   -0.0727   -1.3807    0.9378 H   0  0  0  0  0  0  0  0  0  0  0  0
    0.7209   -0.1246   -0.1486 H   0  0  0  0  0  0  0  0  0  0  0  0
   -0.1914   -1.3137   -0.8274 H   0  0  0  0  0  0  0  0  0  0  0  0
  1  3  1  0  0  0  0
  1  2  1  0  0  0  0
  1  5  1  0  0  0  0
  2  8  1  0  0  0  0
  4  1  1  0  0  0  0
  6  2  1  0  0  0  0
  6 10  1  0  0  0  0
  7  2  1  0  0  0  0
  9  6  1  0  0  0  0
  9 12  1  0  0  0  0
 11  6  1  0  0  0  0
 13  9  1  0  0  0  0
 14  9  1  0  0  0  0
M  END
$$$$
