butane_opt
 OpenBabel08242015383D

 14 13  0  0  0  0  0  0  0  0999 V2000
   -3.9757    0.3032   -0.0413 C   0  0  0  0  0  0  0  0  0  0  0  0
   -2.6669   -0.6409    0.0869 C   0  0  0  0  0  0  0  0  0  0  0  0
   -4.8463   -0.3034    0.1846 H   0  0  0  0  0  0  0  0  0  0  0  0
   -3.9888    1.0605   -1.0533 H   0  0  0  0  0  0  0  0  0  0  0  0
   -4.0690    0.8813    0.7964 H   0  0  0  0  0  0  0  0  0  0  0  0
   -1.4038    0.1219    0.0569 C   0  0  0  0  0  0  0  0  0  0  0  0
   -2.7444   -1.1544   -0.6443 H   0  0  0  0  0  0  0  0  0  0  0  0
   -2.7823   -1.5532    1.2000 H   0  0  0  0  0  0  0  0  0  0  0  0
   -0.1673   -0.6517   -0.0231 C   0  0  0  0  0  0  0  0  0  0  0  0
   -1.4547    0.9151    0.8892 H   0  0  0  0  0  0  0  0  0  0  0  0
   -1.2944    0.6435   -0.7901 H   0  0  0  0  0  0  0  0  0  0  0  0
   -0.1593   -0.9611    0.6788 H   0  0  0  0  0  0  0  0  0  0  0  0
    0.8843    0.0448    0.2920 H   0  0  0  0  0  0  0  0  0  0  0  0
   -0.0400   -1.6028   -1.1093 H   0  0  0  0  0  0  0  0  0  0  0  0
  1  2  1  0  0  0  0
  1  3  1  0  0  0  0
  1  5  1  0  0  0  0
  2  8  1  0  0  0  0
  4  1  1  0  0  0  0
  6  2  1  0  0  0  0
  6 10  1  0  0  0  0
  7  2  1  0  0  0  0
  9  6  1  0  0  0  0
  9 13  1  0  0  0  0
  9 12  1  0  0  0  0
 11  6  1  0  0  0  0
 14  9  1  0  0  0  0
M  END
$$$$
