14
butane_opt
C  -3.991398   0.298640   0.121812
C  -2.679346  -0.661049  -0.060308
H  -4.768965  -0.243856   0.088150
H  -4.085083   0.741786  -0.640473
H  -4.097140   1.182209   1.146406
C  -1.373844   0.161863  -0.133664
H  -2.708566  -1.429562  -0.906728
H  -2.663767  -1.275443   0.753471
C  -0.195926  -0.654395   0.156256
H  -1.347933   0.647837   0.652560
H  -1.084382   0.960062  -1.112720
H  -0.170788  -1.288358   1.057797
H   0.758790  -0.004758   0.168201
H   0.002555  -1.477009  -0.758802
