butane_opt
 OpenBabel08242015383D

 14 13  0  0  0  0  0  0  0  0999 V2000
   -3.9333    0.2252   -0.0586 C   0  0  0  0  0  0  0  0  0  0  0  0
   -2.6963   -0.5702    0.0808 C   0  0  0  0  0  0  0  0  0  0  0  0
   -4.7921   -0.2491   -0.0914 H   0  0  0  0  0  0  0  0  0  0  0  0
   -3.8785    0.7332   -0.8992 H   0  0  0  0  0  0  0  0  0  0  0  0
   -3.9916    0.9694    0.8838 H   0  0  0  0  0  0  0  0  0  0  0  0
   -1.4108    0.1859    0.1055 C   0  0  0  0  0  0  0  0  0  0  0  0
   -2.6868   -1.1561   -0.6815 H   0  0  0  0  0  0  0  0  0  0  0  0
   -2.8356   -1.3304    1.0888 H   0  0  0  0  0  0  0  0  0  0  0  0
   -0.1569   -0.7136   -0.0451 C   0  0  0  0  0  0  0  0  0  0  0  0
   -1.4328    0.9695    1.1013 H   0  0  0  0  0  0  0  0  0  0  0  0
   -1.5251    0.8404   -0.7924 H   0  0  0  0  0  0  0  0  0  0  0  0
    0.0237   -1.5064    0.9383 H   0  0  0  0  0  0  0  0  0  0  0  0
    0.7278   -0.1121   -0.2155 H   0  0  0  0  0  0  0  0  0  0  0  0
   -0.2697   -1.1560   -0.8511 H   0  0  0  0  0  0  0  0  0  0  0  0
  1  2  1  0  0  0  0
  1  5  1  0  0  0  0
  2  6  1  0  0  0  0
  2  8  1  0  0  0  0
  3  1  1  0  0  0  0
  4  1  1  0  0  0  0
  6 10  1  0  0  0  0
  7  2  1  0  0  0  0
  9  6  1  0  0  0  0
  9 12  1  0  0  0  0
 11  6  1  0  0  0  0
 13  9  1  0  0  0  0
 14  9  1  0  0  0  0
M  END
$$$$
