14
butane_opt
C  -4.018113   0.287056  -0.048352
C  -2.710387  -0.635906   0.086732
H  -4.880614  -0.269277   0.478976
H  -3.988183   1.424616  -1.283038
H  -4.017275   0.531526   0.520614
C  -1.334793   0.158378   0.106816
H  -2.667301  -1.287882  -0.819122
H  -2.679112  -1.294918   1.007877
C  -0.155829  -0.671957  -0.043625
H  -1.159348   0.891096   1.017099
H  -1.484049   0.601501  -0.610302
H  -0.120701  -1.065000   0.778862
H   0.732593  -0.015736   0.141300
H  -0.138649  -1.624690  -1.063104
