butane_opt
 OpenBabel08242015383D

 14 13  0  0  0  0  0  0  0  0999 V2000
   -3.8991    0.2312    0.0896 C   0  0  0  0  0  0  0  0  0  0  0  0
   -2.6914   -0.5909   -0.0148 C   0  0  0  0  0  0  0  0  0  0  0  0
   -4.6870   -0.3241   -0.1623 H   0  0  0  0  0  0  0  0  0  0  0  0
   -3.8189    0.5376   -0.6666 H   0  0  0  0  0  0  0  0  0  0  0  0
   -4.0868    1.2593    1.1016 H   0  0  0  0  0  0  0  0  0  0  0  0
   -1.4436    0.1879   -0.0883 C   0  0  0  0  0  0  0  0  0  0  0  0
   -2.7499   -1.2773   -0.8326 H   0  0  0  0  0  0  0  0  0  0  0  0
   -2.6124   -1.2603    0.9257 H   0  0  0  0  0  0  0  0  0  0  0  0
   -0.1709   -0.7042    0.0877 C   0  0  0  0  0  0  0  0  0  0  0  0
   -1.5720    0.9784    0.7685 H   0  0  0  0  0  0  0  0  0  0  0  0
   -1.2823    0.9083   -0.9970 H   0  0  0  0  0  0  0  0  0  0  0  0
   -0.2783   -1.4579    1.1005 H   0  0  0  0  0  0  0  0  0  0  0  0
    0.6921   -0.1504    0.0008 H   0  0  0  0  0  0  0  0  0  0  0  0
   -0.1444   -1.1926   -0.6490 H   0  0  0  0  0  0  0  0  0  0  0  0
  1  5  1  0  0  0  0
  2  1  1  0  0  0  0
  2  8  1  0  0  0  0
  3  1  1  0  0  0  0
  4  1  1  0  0  0  0
  6  2  1  0  0  0  0
  6  9  1  0  0  0  0
  6 10  1  0  0  0  0
  7  2  1  0  0  0  0
  9 12  1  0  0  0  0
 11  6  1  0  0  0  0
 13  9  1  0  0  0  0
 14  9  1  0  0  0  0
M  END
$$$$
