14
butane_opt
C  -3.942819   0.248337   0.010456
C  -2.694064  -0.596124   0.034258
H  -4.886364  -0.372299   0.172812
H  -3.942646   1.000828  -0.972232
H  -3.879866   0.810252   0.784119
C  -1.414670   0.200736   0.031435
H  -2.711008  -1.294962  -0.818313
H  -2.687923  -1.225730   0.948385
C  -0.162979  -0.705812   0.015630
H  -1.420667   0.910903   0.889707
H  -1.386773   0.766157  -0.798068
H  -0.126473  -1.321800   0.922876
H   0.752081  -0.112813   0.034397
H  -0.152432  -1.398896  -0.841290
