butane_opt
 OpenBabel08242015383D

 14 13  0  0  0  0  0  0  0  0999 V2000
   -3.9396    0.2916    0.0438 C   0  0  0  0  0  0  0  0  0  0  0  0
   -2.6573   -0.6753   -0.0450 C   0  0  0  0  0  0  0  0  0  0  0  0
   -4.6928   -0.1742    0.4814 H   0  0  0  0  0  0  0  0  0  0  0  0
   -4.2677    1.0914   -0.9251 H   0  0  0  0  0  0  0  0  0  0  0  0
   -3.7855    0.7640    0.8558 H   0  0  0  0  0  0  0  0  0  0  0  0
   -1.4140    0.1675   -0.0156 C   0  0  0  0  0  0  0  0  0  0  0  0
   -2.6923   -1.3677   -0.8272 H   0  0  0  0  0  0  0  0  0  0  0  0
   -2.6245   -1.2094    0.7536 H   0  0  0  0  0  0  0  0  0  0  0  0
   -0.2104   -0.6826    0.0863 C   0  0  0  0  0  0  0  0  0  0  0  0
   -1.4986    0.8958    0.9220 H   0  0  0  0  0  0  0  0  0  0  0  0
   -1.2085    0.7511   -0.8551 H   0  0  0  0  0  0  0  0  0  0  0  0
   -0.2778   -1.1858    0.9089 H   0  0  0  0  0  0  0  0  0  0  0  0
    0.8370    0.0197   -0.0601 H   0  0  0  0  0  0  0  0  0  0  0  0
   -0.1767   -1.2254   -0.6937 H   0  0  0  0  0  0  0  0  0  0  0  0
  1  3  1  0  0  0  0
  1  5  1  0  0  0  0
  2  6  1  0  0  0  0
  2  1  1  0  0  0  0
  2  8  1  0  0  0  0
  4  1  1  0  0  0  0
  6  9  1  0  0  0  0
  6 10  1  0  0  0  0
  7  2  1  0  0  0  0
  9 12  1  0  0  0  0
 11  6  1  0  0  0  0
 13  9  1  0  0  0  0
 14  9  1  0  0  0  0
M  END
$$$$
