butane_opt
 OpenBabel08242015383D

 14 13  0  0  0  0  0  0  0  0999 V2000
   -3.9535    0.2650   -0.0237 C   0  0  0  0  0  0  0  0  0  0  0  0
   -2.7001   -0.5849    0.0548 C   0  0  0  0  0  0  0  0  0  0  0  0
   -4.8407   -0.4208   -0.0382 H   0  0  0  0  0  0  0  0  0  0  0  0
   -3.7547    0.9070   -0.9900 H   0  0  0  0  0  0  0  0  0  0  0  0
   -3.8572    0.8475    0.7837 H   0  0  0  0  0  0  0  0  0  0  0  0
   -1.4149    0.1824    0.1102 C   0  0  0  0  0  0  0  0  0  0  0  0
   -2.5547   -1.3543   -0.8746 H   0  0  0  0  0  0  0  0  0  0  0  0
   -2.6102   -1.3247    1.0627 H   0  0  0  0  0  0  0  0  0  0  0  0
   -0.1819   -0.7014    0.0020 C   0  0  0  0  0  0  0  0  0  0  0  0
   -1.3641    0.8169    0.9516 H   0  0  0  0  0  0  0  0  0  0  0  0
   -1.4374    0.8641   -0.8031 H   0  0  0  0  0  0  0  0  0  0  0  0
    0.0268   -1.3787    0.8438 H   0  0  0  0  0  0  0  0  0  0  0  0
    0.7412   -0.0850   -0.3674 H   0  0  0  0  0  0  0  0  0  0  0  0
   -0.3709   -1.2562   -0.8496 H   0  0  0  0  0  0  0  0  0  0  0  0
  1  2  1  0  0  0  0
  1  5  1  0  0  0  0
  2  6  1  0  0  0  0
  2  8  1  0  0  0  0
  3  1  1  0  0  0  0
  4  1  1  0  0  0  0
  6 10  1  0  0  0  0
  7  2  1  0  0  0  0
  9  6  1  0  0  0  0
  9 12  1  0  0  0  0
 11  6  1  0  0  0  0
 13  9  1  0  0  0  0
 14  9  1  0  0  0  0
M  END
$$$$
