14
butane_opt
C  -3.878093   0.228215  -0.059108
C  -2.725236  -0.547177   0.169609
H  -4.754757  -0.401458  -0.302907
H  -3.796943   0.861393  -1.023397
H  -4.217793   0.787073   0.701468
C  -1.421253   0.210663   0.090648
H  -2.681309  -1.310401  -0.653556
H  -2.794239  -1.210678   1.085924
C  -0.175829  -0.740020  -0.051898
H  -1.382507   1.021761   1.039010
H  -1.430035   0.794234  -0.778797
H   0.003978  -1.268652   0.746701
H   0.761695  -0.154233  -0.151019
H  -0.298264  -1.417669  -1.033414
