butane_opt
 OpenBabel08242015383D

 14 13  0  0  0  0  0  0  0  0999 V2000
   -3.9732    0.2543   -0.1074 C   0  0  0  0  0  0  0  0  0  0  0  0
   -2.7231   -0.5859    0.1377 C   0  0  0  0  0  0  0  0  0  0  0  0
   -4.9781   -0.4354    0.1820 H   0  0  0  0  0  0  0  0  0  0  0  0
   -3.7734    0.9070   -1.0533 H   0  0  0  0  0  0  0  0  0  0  0  0
   -3.9336    0.6323    0.5706 H   0  0  0  0  0  0  0  0  0  0  0  0
   -1.4175    0.2319    0.1340 C   0  0  0  0  0  0  0  0  0  0  0  0
   -2.7729   -1.1807   -0.6454 H   0  0  0  0  0  0  0  0  0  0  0  0
   -2.7915   -1.2157    1.0145 H   0  0  0  0  0  0  0  0  0  0  0  0
   -0.1185   -0.7366   -0.0825 C   0  0  0  0  0  0  0  0  0  0  0  0
   -1.2645    1.0886    1.1885 H   0  0  0  0  0  0  0  0  0  0  0  0
   -1.5394    0.6430   -0.5410 H   0  0  0  0  0  0  0  0  0  0  0  0
    0.1750   -1.3818    0.8903 H   0  0  0  0  0  0  0  0  0  0  0  0
    0.7348   -0.1630   -0.2421 H   0  0  0  0  0  0  0  0  0  0  0  0
   -0.1117   -1.3391   -0.9141 H   0  0  0  0  0  0  0  0  0  0  0  0
  1  2  1  0  0  0  0
  1  3  1  0  0  0  0
  1  5  1  0  0  0  0
  2  8  1  0  0  0  0
  4  1  1  0  0  0  0
  6  2  1  0  0  0  0
  6 10  1  0  0  0  0
  7  2  1  0  0  0  0
  9  6  1  0  0  0  0
  9 12  1  0  0  0  0
 11  6  1  0  0  0  0
 13  9  1  0  0  0  0
 14  9  1  0  0  0  0
M  END
$$$$
