14
butane_opt
C  -3.973165   0.254311  -0.107360
C  -2.723150  -0.585864   0.137709
H  -4.978129  -0.435373   0.182021
H  -3.773432   0.907038  -1.053304
H  -3.933554   0.632349   0.570634
C  -1.417484   0.231932   0.133996
H  -2.772944  -1.180726  -0.645433
H  -2.791488  -1.215743   1.014466
C  -0.118494  -0.736609  -0.082520
H  -1.264502   1.088555   1.188485
H  -1.539429   0.642989  -0.540998
H   0.175023  -1.381764   0.890334
H   0.734815  -0.162986  -0.242129
H  -0.111727  -1.339089  -0.914064
