butane_opt
 OpenBabel08242015383D

 14 13  0  0  0  0  0  0  0  0999 V2000
   -3.9263    0.2789    0.1022 C   0  0  0  0  0  0  0  0  0  0  0  0
   -2.6900   -0.5908   -0.0961 C   0  0  0  0  0  0  0  0  0  0  0  0
   -4.8724   -0.4153    0.5029 H   0  0  0  0  0  0  0  0  0  0  0  0
   -4.2028    1.0344   -0.8901 H   0  0  0  0  0  0  0  0  0  0  0  0
   -3.6266    0.8883    0.9551 H   0  0  0  0  0  0  0  0  0  0  0  0
   -1.3863    0.1510   -0.0562 C   0  0  0  0  0  0  0  0  0  0  0  0
   -2.8415   -1.5046   -1.1397 H   0  0  0  0  0  0  0  0  0  0  0  0
   -2.5225   -1.2134    0.6708 H   0  0  0  0  0  0  0  0  0  0  0  0
   -0.2197   -0.6754    0.1487 C   0  0  0  0  0  0  0  0  0  0  0  0
   -1.5069    0.7342    0.7394 H   0  0  0  0  0  0  0  0  0  0  0  0
   -1.2796    0.8334   -0.9994 H   0  0  0  0  0  0  0  0  0  0  0  0
   -0.1488   -1.4148    1.1034 H   0  0  0  0  0  0  0  0  0  0  0  0
    0.7316   -0.0033   -0.0622 H   0  0  0  0  0  0  0  0  0  0  0  0
   -0.1056   -1.3333   -0.6420 H   0  0  0  0  0  0  0  0  0  0  0  0
  1  3  1  0  0  0  0
  1  5  1  0  0  0  0
  2  6  1  0  0  0  0
  2  1  1  0  0  0  0
  2  8  1  0  0  0  0
  4  1  1  0  0  0  0
  6  9  1  0  0  0  0
  6 10  1  0  0  0  0
  7  2  1  0  0  0  0
  9 12  1  0  0  0  0
 11  6  1  0  0  0  0
 13  9  1  0  0  0  0
 14  9  1  0  0  0  0
M  END
$$$$
