14
butane_opt
C  -3.976291   0.238879   0.129637
C  -2.709587  -0.599028  -0.123429
H  -4.867911  -0.371259   0.444949
H  -4.212908   1.017191  -0.860342
H  -3.614637   0.751050   0.839558
C  -1.421207   0.202760  -0.051875
H  -2.909486  -1.252776  -0.981919
H  -2.615138  -1.139117   0.640929
C  -0.114788  -0.706437   0.125142
H  -1.536054   0.919059   0.722071
H  -1.248904   0.815330  -0.948820
H  -0.060012  -1.429836   1.131349
H   0.630380  -0.205362   0.079980
H   0.069403  -1.221460  -0.601712
