butane_opt
 OpenBabel08242015383D

 14 12  0  0  0  0  0  0  0  0999 V2000
   -3.9246    0.2741   -0.0387 C   0  0  0  0  0  0  0  0  0  0  0  0
   -2.6767   -0.6590    0.0639 C   0  0  0  0  0  0  0  0  0  0  0  0
   -4.7304   -0.2278    0.3533 H   0  0  0  0  0  0  0  0  0  0  0  0
   -4.0388    1.2463   -1.2113 H   0  0  0  0  0  0  0  0  0  0  0  0
   -3.9299    0.5981    0.6517 H   0  0  0  0  0  0  0  0  0  0  0  0
   -1.4108    0.1749    0.1244 C   0  0  0  0  0  0  0  0  0  0  0  0
   -2.5883   -1.2674   -0.8056 H   0  0  0  0  0  0  0  0  0  0  0  0
   -2.5703   -1.2671    0.9419 H   0  0  0  0  0  0  0  0  0  0  0  0
   -0.1950   -0.6788   -0.0275 C   0  0  0  0  0  0  0  0  0  0  0  0
   -1.4855    0.8917    1.0282 H   0  0  0  0  0  0  0  0  0  0  0  0
   -1.3520    0.8383   -0.7869 H   0  0  0  0  0  0  0  0  0  0  0  0
   -0.2369   -1.0708    0.7722 H   0  0  0  0  0  0  0  0  0  0  0  0
    0.7343   -0.0644   -0.0910 H   0  0  0  0  0  0  0  0  0  0  0  0
   -0.3293   -1.4709   -0.9490 H   0  0  0  0  0  0  0  0  0  0  0  0
  1  2  1  0  0  0  0
  1  3  1  0  0  0  0
  1  5  1  0  0  0  0
  2  6  1  0  0  0  0
  2  8  1  0  0  0  0
  6 10  1  0  0  0  0
  7  2  1  0  0  0  0
  9  6  1  0  0  0  0
  9 12  1  0  0  0  0
 11  6  1  0  0  0  0
 13  9  1  0  0  0  0
 14  9  1  0  0  0  0
M  RAD  2   1   2   4   2
M  END
$$$$
