14
butane_opt
C  -3.940852   0.264153   0.093156
C  -2.706997  -0.633070  -0.033757
H  -4.646385  -0.169048   0.077173
H  -4.082704   0.870234  -0.715104
H  -3.933508   1.089899   1.091105
C  -1.374392   0.156421  -0.084160
H  -2.674701  -1.404362  -0.949869
H  -2.725255  -1.228918   0.922411
C  -0.191950  -0.678300   0.101198
H  -1.443662   0.755951   0.680415
H  -1.304614   0.982329  -1.131086
H  -0.298455  -1.215613   0.948082
H   0.756796  -0.091828   0.339627
H  -0.103888  -1.355911  -0.722421
