butane_opt
 OpenBabel08242015383D

 14 13  0  0  0  0  0  0  0  0999 V2000
   -3.9479    0.2725    0.0492 C   0  0  0  0  0  0  0  0  0  0  0  0
   -2.6822   -0.6219    0.0098 C   0  0  0  0  0  0  0  0  0  0  0  0
   -4.8447   -0.3360    0.1184 H   0  0  0  0  0  0  0  0  0  0  0  0
   -3.9971    0.8443   -0.8205 H   0  0  0  0  0  0  0  0  0  0  0  0
   -3.9099    0.9850    0.9463 H   0  0  0  0  0  0  0  0  0  0  0  0
   -1.4073    0.1685   -0.0390 C   0  0  0  0  0  0  0  0  0  0  0  0
   -2.7413   -1.2763   -0.8500 H   0  0  0  0  0  0  0  0  0  0  0  0
   -2.6793   -1.2482    0.8841 H   0  0  0  0  0  0  0  0  0  0  0  0
   -0.1684   -0.6853    0.0682 C   0  0  0  0  0  0  0  0  0  0  0  0
   -1.4692    0.8298    0.8068 H   0  0  0  0  0  0  0  0  0  0  0  0
   -1.3398    0.8412   -0.9871 H   0  0  0  0  0  0  0  0  0  0  0  0
   -0.2674   -1.2445    0.9571 H   0  0  0  0  0  0  0  0  0  0  0  0
    0.7815   -0.0510    0.1591 H   0  0  0  0  0  0  0  0  0  0  0  0
   -0.0944   -1.4203   -0.8368 H   0  0  0  0  0  0  0  0  0  0  0  0
  1  3  1  0  0  0  0
  1  5  1  0  0  0  0
  2  1  1  0  0  0  0
  2  8  1  0  0  0  0
  4  1  1  0  0  0  0
  6  2  1  0  0  0  0
  6  9  1  0  0  0  0
  6 10  1  0  0  0  0
  7  2  1  0  0  0  0
  9 13  1  0  0  0  0
  9 12  1  0  0  0  0
 11  6  1  0  0  0  0
 14  9  1  0  0  0  0
M  END
$$$$
