14
butane_opt
C  -3.971238   0.239883   0.133131
C  -2.728799  -0.573767  -0.071594
H  -4.933473  -0.453130   0.188289
H  -3.990534   0.692754  -0.669219
H  -3.699533   0.933414   1.025593
C  -1.384780   0.243150  -0.162340
H  -2.840759  -1.208292  -0.853787
H  -2.661090  -1.168627   0.855166
C  -0.129345  -0.731875   0.166999
H  -1.573317   0.739861   0.596454
H  -1.336562   0.925964  -1.124874
H  -0.171321  -1.190096   0.964210
H   0.698334  -0.147113   0.498986
H   0.052057  -1.745049  -0.851593
