14
butane_opt
C  -3.956688   0.272717  -0.044019
C  -2.742153  -0.625563   0.073330
H  -4.878421  -0.308070   0.026524
H  -3.971628   1.033709  -0.936231
H  -3.974767   0.907791   0.789207
C  -1.393845   0.199921   0.087537
H  -2.687729  -1.389428  -0.807215
H  -2.800437  -1.333052   1.044370
C  -0.107057  -0.697503  -0.026768
H  -1.302235   1.062152   1.058885
H  -1.413409   0.576852  -0.688265
H  -0.130226  -1.509494   1.014596
H   0.787777  -0.115323  -0.382561
H  -0.249455  -1.176421  -0.762935
