butane_opt
 OpenBabel08242015383D

 14 13  0  0  0  0  0  0  0  0999 V2000
   -3.9270    0.2414    0.0983 C   0  0  0  0  0  0  0  0  0  0  0  0
   -2.7677   -0.5736   -0.0948 C   0  0  0  0  0  0  0  0  0  0  0  0
   -4.9363   -0.4091    0.1038 H   0  0  0  0  0  0  0  0  0  0  0  0
   -4.1572    0.6707   -0.6935 H   0  0  0  0  0  0  0  0  0  0  0  0
   -3.6656    1.0501    1.1430 H   0  0  0  0  0  0  0  0  0  0  0  0
   -1.4013    0.2266   -0.0765 C   0  0  0  0  0  0  0  0  0  0  0  0
   -2.7784   -1.3253   -0.9496 H   0  0  0  0  0  0  0  0  0  0  0  0
   -2.7048   -1.1202    0.8095 H   0  0  0  0  0  0  0  0  0  0  0  0
   -0.1031   -0.7382    0.1377 C   0  0  0  0  0  0  0  0  0  0  0  0
   -1.4485    0.8294    0.7133 H   0  0  0  0  0  0  0  0  0  0  0  0
   -1.4318    0.8530   -0.9421 H   0  0  0  0  0  0  0  0  0  0  0  0
   -0.1057   -1.5370    1.1763 H   0  0  0  0  0  0  0  0  0  0  0  0
    0.7809   -0.2333   -0.1939 H   0  0  0  0  0  0  0  0  0  0  0  0
   -0.1554   -1.1290   -0.4759 H   0  0  0  0  0  0  0  0  0  0  0  0
  1  3  1  0  0  0  0
  1  5  1  0  0  0  0
  2  6  1  0  0  0  0
  2  1  1  0  0  0  0
  2  8  1  0  0  0  0
  4  1  1  0  0  0  0
  6  9  1  0  0  0  0
  6 10  1  0  0  0  0
  7  2  1  0  0  0  0
  9 12  1  0  0  0  0
 11  6  1  0  0  0  0
 13  9  1  0  0  0  0
 14  9  1  0  0  0  0
M  END
$$$$
