14
butane_opt
C  -3.987945   0.286859  -0.033614
C  -2.667790  -0.639372   0.098668
H  -4.951915  -0.369888   0.193186
H  -4.112894   0.983265  -1.018128
H  -3.903294   0.838920   0.730234
C  -1.373853   0.166290   0.021289
H  -2.606712  -1.094842  -0.574076
H  -2.723517  -1.369737   1.024478
C  -0.184403  -0.678950  -0.020617
H  -1.429058   0.917933   0.962797
H  -1.366810   0.716176  -0.773491
H  -0.198047  -1.036746   0.731573
H   0.870706  -0.045206   0.435886
H  -0.048812  -1.629105  -1.098054
