butane_opt
 OpenBabel08242015383D

 14 13  0  0  0  0  0  0  0  0999 V2000
   -3.9349    0.3014    0.0727 C   0  0  0  0  0  0  0  0  0  0  0  0
   -2.6676   -0.6614   -0.0229 C   0  0  0  0  0  0  0  0  0  0  0  0
   -4.8001   -0.2213   -0.1270 H   0  0  0  0  0  0  0  0  0  0  0  0
   -3.9714    0.6121   -0.5939 H   0  0  0  0  0  0  0  0  0  0  0  0
   -3.9830    1.1776    1.1409 H   0  0  0  0  0  0  0  0  0  0  0  0
   -1.4074    0.1597   -0.0660 C   0  0  0  0  0  0  0  0  0  0  0  0
   -2.8056   -1.3931   -0.8953 H   0  0  0  0  0  0  0  0  0  0  0  0
   -2.5523   -1.2973    0.8043 H   0  0  0  0  0  0  0  0  0  0  0  0
   -0.1769   -0.6456    0.1311 C   0  0  0  0  0  0  0  0  0  0  0  0
   -1.5397    0.6706    0.6339 H   0  0  0  0  0  0  0  0  0  0  0  0
   -1.3739    0.8360   -1.0599 H   0  0  0  0  0  0  0  0  0  0  0  0
   -0.2046   -1.3175    1.0272 H   0  0  0  0  0  0  0  0  0  0  0  0
    0.7224   -0.1284   -0.1644 H   0  0  0  0  0  0  0  0  0  0  0  0
   -0.2918   -1.2334   -0.6854 H   0  0  0  0  0  0  0  0  0  0  0  0
  1  5  1  0  0  0  0
  2  1  1  0  0  0  0
  2  8  1  0  0  0  0
  3  1  1  0  0  0  0
  4  1  1  0  0  0  0
  6  2  1  0  0  0  0
  6  9  1  0  0  0  0
  6 10  1  0  0  0  0
  7  2  1  0  0  0  0
  9 12  1  0  0  0  0
 11  6  1  0  0  0  0
 13  9  1  0  0  0  0
 14  9  1  0  0  0  0
M  END
$$$$
