14
butane_opt
C  -3.931618   0.287840   0.112130
C  -2.655680  -0.651502  -0.046677
H  -4.792449  -0.369800   0.111563
H  -4.040349   0.765724  -0.717727
H  -3.972067   1.262569   1.126648
C  -1.374416   0.143666  -0.104989
H  -2.765299  -1.395978  -0.937741
H  -2.555287  -1.203972   0.805791
C  -0.235486  -0.656309   0.129438
H  -1.448046   0.618795   0.565395
H  -1.373222   1.043776  -1.159297
H  -0.403551  -1.193910   1.000076
H   0.672743  -0.069566   0.332781
H   0.022651  -1.417780  -0.746302
