butane_opt
 OpenBabel08242015383D

 14 13  0  0  0  0  0  0  0  0999 V2000
   -3.9316    0.2878    0.1121 C   0  0  0  0  0  0  0  0  0  0  0  0
   -2.6557   -0.6515   -0.0467 C   0  0  0  0  0  0  0  0  0  0  0  0
   -4.7924   -0.3698    0.1116 H   0  0  0  0  0  0  0  0  0  0  0  0
   -4.0403    0.7657   -0.7177 H   0  0  0  0  0  0  0  0  0  0  0  0
   -3.9721    1.2626    1.1266 H   0  0  0  0  0  0  0  0  0  0  0  0
   -1.3744    0.1437   -0.1050 C   0  0  0  0  0  0  0  0  0  0  0  0
   -2.7653   -1.3960   -0.9377 H   0  0  0  0  0  0  0  0  0  0  0  0
   -2.5553   -1.2040    0.8058 H   0  0  0  0  0  0  0  0  0  0  0  0
   -0.2355   -0.6563    0.1294 C   0  0  0  0  0  0  0  0  0  0  0  0
   -1.4480    0.6188    0.5654 H   0  0  0  0  0  0  0  0  0  0  0  0
   -1.3732    1.0438   -1.1593 H   0  0  0  0  0  0  0  0  0  0  0  0
   -0.4036   -1.1939    1.0001 H   0  0  0  0  0  0  0  0  0  0  0  0
    0.6727   -0.0696    0.3328 H   0  0  0  0  0  0  0  0  0  0  0  0
    0.0227   -1.4178   -0.7463 H   0  0  0  0  0  0  0  0  0  0  0  0
  1  5  1  0  0  0  0
  2  1  1  0  0  0  0
  2  8  1  0  0  0  0
  3  1  1  0  0  0  0
  4  1  1  0  0  0  0
  6  2  1  0  0  0  0
  6  9  1  0  0  0  0
  6 10  1  0  0  0  0
  7  2  1  0  0  0  0
  9 13  1  0  0  0  0
  9 12  1  0  0  0  0
 11  6  1  0  0  0  0
 14  9  1  0  0  0  0
M  END
$$$$
