butane_opt
 OpenBabel08242015383D

 14 13  0  0  0  0  0  0  0  0999 V2000
   -3.9347    0.2977   -0.0933 C   0  0  0  0  0  0  0  0  0  0  0  0
   -2.6689   -0.6370    0.1917 C   0  0  0  0  0  0  0  0  0  0  0  0
   -4.7889   -0.2935   -0.3589 H   0  0  0  0  0  0  0  0  0  0  0  0
   -3.7687    0.8121   -1.0256 H   0  0  0  0  0  0  0  0  0  0  0  0
   -4.2034    1.1346    0.8618 H   0  0  0  0  0  0  0  0  0  0  0  0
   -1.3980    0.1080    0.0877 C   0  0  0  0  0  0  0  0  0  0  0  0
   -2.6425   -1.0768   -0.5426 H   0  0  0  0  0  0  0  0  0  0  0  0
   -2.8950   -1.3958    1.2467 H   0  0  0  0  0  0  0  0  0  0  0  0
   -0.2057   -0.6725   -0.0596 C   0  0  0  0  0  0  0  0  0  0  0  0
   -1.3076    0.9398    1.0862 H   0  0  0  0  0  0  0  0  0  0  0  0
   -1.3943    0.7472   -0.7936 H   0  0  0  0  0  0  0  0  0  0  0  0
   -0.1590   -1.0539    0.6728 H   0  0  0  0  0  0  0  0  0  0  0  0
    0.9000    0.1333   -0.1599 H   0  0  0  0  0  0  0  0  0  0  0  0
   -0.3008   -1.5637   -1.0871 H   0  0  0  0  0  0  0  0  0  0  0  0
  1  2  1  0  0  0  0
  1  5  1  0  0  0  0
  2  8  1  0  0  0  0
  3  1  1  0  0  0  0
  4  1  1  0  0  0  0
  6  2  1  0  0  0  0
  6 10  1  0  0  0  0
  7  2  1  0  0  0  0
  9  6  1  0  0  0  0
  9 12  1  0  0  0  0
 11  6  1  0  0  0  0
 13  9  1  0  0  0  0
 14  9  1  0  0  0  0
M  END
$$$$
