14
butane_opt
C  -3.939608   0.291639   0.043813
C  -2.657324  -0.675301  -0.044983
H  -4.692841  -0.174245   0.481403
H  -4.267680   1.091408  -0.925070
H  -3.785476   0.763999   0.855773
C  -1.414025   0.167464  -0.015604
H  -2.692291  -1.367730  -0.827170
H  -2.624503  -1.209415   0.753581
C  -0.210392  -0.682573   0.086261
H  -1.498611   0.895812   0.921950
H  -1.208523   0.751092  -0.855096
H  -0.277824  -1.185805   0.908940
H   0.837022   0.019674  -0.060051
H  -0.176717  -1.225440  -0.693739
