14
butane_opt
C  -3.915992   0.232883  -0.040656
C  -2.690576  -0.594047   0.063830
H  -4.814535  -0.459775   0.232883
H  -3.979553   1.120037  -1.093391
H  -3.636384   0.620902   0.727673
C  -1.449606   0.234054   0.066715
H  -2.871231  -1.109536  -0.678793
H  -2.712485  -1.297426   1.044259
C  -0.167397  -0.719004  -0.008315
H  -1.472182   1.121272   1.067129
H  -1.425964   0.738824  -0.802595
H   0.013922  -1.241717   0.797980
H   0.670701  -0.172469   0.083500
H  -0.126406  -1.639070  -0.988440
