14
butane_opt
C  -3.924478   0.226761  -0.024841
C  -2.728763  -0.527371   0.097016
H  -4.894641  -0.501395   0.047056
H  -3.707480   0.923214  -1.066850
H  -3.994179   0.797317   0.755936
C  -1.420931   0.192887   0.058258
H  -2.693121  -1.360937  -0.815192
H  -2.640895  -1.187717   0.921189
C  -0.142847  -0.718180  -0.011774
H  -1.379142   0.978438   1.068847
H  -1.417776   0.739524  -0.749945
H   0.016733  -1.406494   0.846608
H   0.598302  -0.260517  -0.178086
H  -0.276267  -1.286107  -0.808667
