14
butane_opt
C  -3.897888   0.238861   0.084843
C  -2.705857  -0.540060  -0.072595
H  -4.924597  -0.510580   0.266707
H  -4.056164   0.887623  -0.919646
H  -3.750317   0.829857   0.879293
C  -1.426573   0.187199  -0.026214
H  -2.777858  -1.229357  -0.948408
H  -2.654679  -1.244229   0.946605
C  -0.183182  -0.737534   0.099132
H  -1.353180   0.895355   0.849413
H  -1.320336   0.854158  -0.977718
H  -0.072047  -1.290837   0.957463
H   0.706097  -0.189765   0.056426
H  -0.214472  -1.272412  -0.688991
