butane_opt
 OpenBabel08242015383D

 14 13  0  0  0  0  0  0  0  0999 V2000
   -3.9315    0.2219   -0.0857 C   0  0  0  0  0  0  0  0  0  0  0  0
   -2.6916   -0.5580    0.1137 C   0  0  0  0  0  0  0  0  0  0  0  0
   -4.9817   -0.4929    0.0011 H   0  0  0  0  0  0  0  0  0  0  0  0
   -3.6790    0.9772   -1.1592 H   0  0  0  0  0  0  0  0  0  0  0  0
   -4.0352    0.7936    0.7373 H   0  0  0  0  0  0  0  0  0  0  0  0
   -1.4128    0.2262    0.1672 C   0  0  0  0  0  0  0  0  0  0  0  0
   -2.6570   -1.1670   -0.6001 H   0  0  0  0  0  0  0  0  0  0  0  0
   -2.7352   -1.3090    1.0536 H   0  0  0  0  0  0  0  0  0  0  0  0
   -0.1682   -0.7386   -0.0701 C   0  0  0  0  0  0  0  0  0  0  0  0
   -1.4315    0.9634    1.0318 H   0  0  0  0  0  0  0  0  0  0  0  0
   -1.5855    0.8007   -0.6965 H   0  0  0  0  0  0  0  0  0  0  0  0
    0.1725   -1.2753    0.7670 H   0  0  0  0  0  0  0  0  0  0  0  0
    0.7525   -0.1705   -0.3126 H   0  0  0  0  0  0  0  0  0  0  0  0
   -0.3720   -1.4072   -0.8900 H   0  0  0  0  0  0  0  0  0  0  0  0
  1  3  1  0  0  0  0
  1  2  1  0  0  0  0
  1  5  1  0  0  0  0
  2  6  1  0  0  0  0
  2  8  1  0  0  0  0
  4  1  1  0  0  0  0
  6 10  1  0  0  0  0
  7  2  1  0  0  0  0
  9  6  1  0  0  0  0
  9 12  1  0  0  0  0
 11  6  1  0  0  0  0
 13  9  1  0  0  0  0
 14  9  1  0  0  0  0
M  END
$$$$
