butane_opt
 OpenBabel08242015383D

 14 12  0  0  0  0  0  0  0  0999 V2000
   -3.9983    0.3048    0.0952 C   0  0  0  0  0  0  0  0  0  0  0  0
   -2.6854   -0.7068    0.0088 C   0  0  0  0  0  0  0  0  0  0  0  0
   -4.8243   -0.2184   -0.5018 H   0  0  0  0  0  0  0  0  0  0  0  0
   -3.9029    0.5729   -0.6480 H   0  0  0  0  0  0  0  0  0  0  0  0
   -4.0996    1.4410    1.2340 H   0  0  0  0  0  0  0  0  0  0  0  0
   -1.3670    0.1620   -0.0736 C   0  0  0  0  0  0  0  0  0  0  0  0
   -2.6972   -1.4150   -0.9099 H   0  0  0  0  0  0  0  0  0  0  0  0
   -2.6484   -1.2388    0.8913 H   0  0  0  0  0  0  0  0  0  0  0  0
   -0.1644   -0.6449    0.0883 C   0  0  0  0  0  0  0  0  0  0  0  0
   -1.3290    0.6574    0.6640 H   0  0  0  0  0  0  0  0  0  0  0  0
   -1.4687    1.0275   -1.0980 H   0  0  0  0  0  0  0  0  0  0  0  0
   -0.1452   -1.4496    1.1474 H   0  0  0  0  0  0  0  0  0  0  0  0
    0.7158   -0.0758   -0.0136 H   0  0  0  0  0  0  0  0  0  0  0  0
   -0.0708   -1.1546   -0.6884 H   0  0  0  0  0  0  0  0  0  0  0  0
  2  1  1  0  0  0  0
  2  8  1  0  0  0  0
  3  1  1  0  0  0  0
  4  1  1  0  0  0  0
  6  2  1  0  0  0  0
  6  9  1  0  0  0  0
  6 10  1  0  0  0  0
  7  2  1  0  0  0  0
  9 12  1  0  0  0  0
 11  6  1  0  0  0  0
 13  9  1  0  0  0  0
 14  9  1  0  0  0  0
M  RAD  2   1   2   5   2
M  END
$$$$
