butane_opt
 OpenBabel08242015383D

 14 13  0  0  0  0  0  0  0  0999 V2000
   -3.9528    0.2485   -0.0413 C   0  0  0  0  0  0  0  0  0  0  0  0
   -2.7338   -0.6165    0.0419 C   0  0  0  0  0  0  0  0  0  0  0  0
   -4.8647   -0.3315    0.1403 H   0  0  0  0  0  0  0  0  0  0  0  0
   -4.0699    0.9615   -0.9531 H   0  0  0  0  0  0  0  0  0  0  0  0
   -3.8964    0.8603    0.8441 H   0  0  0  0  0  0  0  0  0  0  0  0
   -1.3942    0.2128    0.1039 C   0  0  0  0  0  0  0  0  0  0  0  0
   -2.5662   -1.2676   -0.7404 H   0  0  0  0  0  0  0  0  0  0  0  0
   -2.9184   -1.2653    0.9405 H   0  0  0  0  0  0  0  0  0  0  0  0
   -0.1303   -0.6896   -0.0106 C   0  0  0  0  0  0  0  0  0  0  0  0
   -1.3259    1.0733    1.0618 H   0  0  0  0  0  0  0  0  0  0  0  0
   -1.3558    0.7910   -0.7818 H   0  0  0  0  0  0  0  0  0  0  0  0
    0.0637   -1.5668    1.0755 H   0  0  0  0  0  0  0  0  0  0  0  0
    0.6751   -0.3159   -0.4313 H   0  0  0  0  0  0  0  0  0  0  0  0
   -0.2231   -1.2818   -0.8321 H   0  0  0  0  0  0  0  0  0  0  0  0
  1  2  1  0  0  0  0
  1  3  1  0  0  0  0
  1  5  1  0  0  0  0
  2  6  1  0  0  0  0
  2  8  1  0  0  0  0
  4  1  1  0  0  0  0
  6 10  1  0  0  0  0
  7  2  1  0  0  0  0
  9  6  1  0  0  0  0
  9 12  1  0  0  0  0
 11  6  1  0  0  0  0
 13  9  1  0  0  0  0
 14  9  1  0  0  0  0
M  END
$$$$
