butane_opt
 OpenBabel08242015383D

 14 13  0  0  0  0  0  0  0  0999 V2000
   -3.9817    0.2749    0.0607 C   0  0  0  0  0  0  0  0  0  0  0  0
   -2.7167   -0.6748   -0.0366 C   0  0  0  0  0  0  0  0  0  0  0  0
   -4.7444   -0.1813    0.4050 H   0  0  0  0  0  0  0  0  0  0  0  0
   -4.2637    1.1724   -0.9300 H   0  0  0  0  0  0  0  0  0  0  0  0
   -3.8520    0.8958    0.9432 H   0  0  0  0  0  0  0  0  0  0  0  0
   -1.3636    0.1975   -0.0543 C   0  0  0  0  0  0  0  0  0  0  0  0
   -2.6182   -1.3327   -0.8403 H   0  0  0  0  0  0  0  0  0  0  0  0
   -2.7846   -1.2196    0.8822 H   0  0  0  0  0  0  0  0  0  0  0  0
   -0.1462   -0.6896    0.0797 C   0  0  0  0  0  0  0  0  0  0  0  0
   -1.3667    0.8550    0.8329 H   0  0  0  0  0  0  0  0  0  0  0  0
   -1.3087    0.7114   -0.8834 H   0  0  0  0  0  0  0  0  0  0  0  0
   -0.3038   -1.2135    0.8659 H   0  0  0  0  0  0  0  0  0  0  0  0
    0.8481   -0.0463    0.3011 H   0  0  0  0  0  0  0  0  0  0  0  0
   -0.1257   -1.3770   -0.7396 H   0  0  0  0  0  0  0  0  0  0  0  0
  1  3  1  0  0  0  0
  1  5  1  0  0  0  0
  2  1  1  0  0  0  0
  2  8  1  0  0  0  0
  4  1  1  0  0  0  0
  6  2  1  0  0  0  0
  6  9  1  0  0  0  0
  6 10  1  0  0  0  0
  7  2  1  0  0  0  0
  9 13  1  0  0  0  0
  9 12  1  0  0  0  0
 11  6  1  0  0  0  0
 14  9  1  0  0  0  0
M  END
$$$$
