butane_opt
 OpenBabel08242015383D

 14 13  0  0  0  0  0  0  0  0999 V2000
   -3.9240    0.2844    0.0744 C   0  0  0  0  0  0  0  0  0  0  0  0
   -2.6924   -0.6612    0.0103 C   0  0  0  0  0  0  0  0  0  0  0  0
   -4.7213   -0.2135   -0.2193 H   0  0  0  0  0  0  0  0  0  0  0  0
   -3.9266    0.6964   -0.7345 H   0  0  0  0  0  0  0  0  0  0  0  0
   -4.2270    1.2755    1.0539 H   0  0  0  0  0  0  0  0  0  0  0  0
   -1.4186    0.1326   -0.0368 C   0  0  0  0  0  0  0  0  0  0  0  0
   -2.5260   -1.4271   -0.9031 H   0  0  0  0  0  0  0  0  0  0  0  0
   -2.6613   -1.1024    0.8526 H   0  0  0  0  0  0  0  0  0  0  0  0
   -0.1692   -0.6410    0.0660 C   0  0  0  0  0  0  0  0  0  0  0  0
   -1.3894    0.6935    0.7333 H   0  0  0  0  0  0  0  0  0  0  0  0
   -1.4263    0.8255   -0.9880 H   0  0  0  0  0  0  0  0  0  0  0  0
   -0.2168   -1.4775    1.0720 H   0  0  0  0  0  0  0  0  0  0  0  0
    0.8002   -0.0072   -0.1391 H   0  0  0  0  0  0  0  0  0  0  0  0
   -0.2793   -1.0957   -0.5850 H   0  0  0  0  0  0  0  0  0  0  0  0
  1  5  1  0  0  0  0
  2  1  1  0  0  0  0
  2  8  1  0  0  0  0
  3  1  1  0  0  0  0
  4  1  1  0  0  0  0
  6  2  1  0  0  0  0
  6  9  1  0  0  0  0
  6 10  1  0  0  0  0
  7  2  1  0  0  0  0
  9 12  1  0  0  0  0
 11  6  1  0  0  0  0
 13  9  1  0  0  0  0
 14  9  1  0  0  0  0
M  END
$$$$
