butane_opt
 OpenBabel08242015383D

 14 13  0  0  0  0  0  0  0  0999 V2000
   -3.9536    0.2562    0.0270 C   0  0  0  0  0  0  0  0  0  0  0  0
   -2.7117   -0.6031    0.0383 C   0  0  0  0  0  0  0  0  0  0  0  0
   -4.8911   -0.3891   -0.0952 H   0  0  0  0  0  0  0  0  0  0  0  0
   -3.9056    0.7624   -0.8101 H   0  0  0  0  0  0  0  0  0  0  0  0
   -3.9789    1.0406    0.9808 H   0  0  0  0  0  0  0  0  0  0  0  0
   -1.4025    0.1968   -0.0111 C   0  0  0  0  0  0  0  0  0  0  0  0
   -2.6921   -1.2536   -0.7904 H   0  0  0  0  0  0  0  0  0  0  0  0
   -2.7443   -1.2575    0.9446 H   0  0  0  0  0  0  0  0  0  0  0  0
   -0.1473   -0.7013    0.0355 C   0  0  0  0  0  0  0  0  0  0  0  0
   -1.4026    0.8490    0.8326 H   0  0  0  0  0  0  0  0  0  0  0  0
   -1.4152    0.8349   -0.8905 H   0  0  0  0  0  0  0  0  0  0  0  0
   -0.0768   -1.3718    0.9609 H   0  0  0  0  0  0  0  0  0  0  0  0
    0.7363   -0.1294    0.0282 H   0  0  0  0  0  0  0  0  0  0  0  0
   -0.0710   -1.3446   -0.7791 H   0  0  0  0  0  0  0  0  0  0  0  0
  1  2  1  0  0  0  0
  1  5  1  0  0  0  0
  2  8  1  0  0  0  0
  3  1  1  0  0  0  0
  4  1  1  0  0  0  0
  6  9  1  0  0  0  0
  6  2  1  0  0  0  0
  6 10  1  0  0  0  0
  7  2  1  0  0  0  0
  9 12  1  0  0  0  0
 11  6  1  0  0  0  0
 13  9  1  0  0  0  0
 14  9  1  0  0  0  0
M  END
$$$$
