butane_opt
 OpenBabel08242015383D

 14 13  0  0  0  0  0  0  0  0999 V2000
   -3.9429    0.2935   -0.0102 C   0  0  0  0  0  0  0  0  0  0  0  0
   -2.6849   -0.6691    0.1284 C   0  0  0  0  0  0  0  0  0  0  0  0
   -4.8288   -0.2581   -0.5038 H   0  0  0  0  0  0  0  0  0  0  0  0
   -3.5809    0.7033   -0.8365 H   0  0  0  0  0  0  0  0  0  0  0  0
   -4.1859    1.1990    0.9974 H   0  0  0  0  0  0  0  0  0  0  0  0
   -1.4172    0.1468    0.0294 C   0  0  0  0  0  0  0  0  0  0  0  0
   -2.6338   -1.2961   -0.6506 H   0  0  0  0  0  0  0  0  0  0  0  0
   -2.4781   -1.2440    0.9479 H   0  0  0  0  0  0  0  0  0  0  0  0
   -0.2008   -0.6611   -0.0278 C   0  0  0  0  0  0  0  0  0  0  0  0
   -1.3510    0.7599    0.8528 H   0  0  0  0  0  0  0  0  0  0  0  0
   -1.4030    0.9379   -0.8664 H   0  0  0  0  0  0  0  0  0  0  0  0
   -0.1087   -1.3412    0.9114 H   0  0  0  0  0  0  0  0  0  0  0  0
    0.7168    0.0604    0.0144 H   0  0  0  0  0  0  0  0  0  0  0  0
   -0.2504   -1.3204   -0.8447 H   0  0  0  0  0  0  0  0  0  0  0  0
  1  2  1  0  0  0  0
  1  5  1  0  0  0  0
  2  8  1  0  0  0  0
  3  1  1  0  0  0  0
  4  1  1  0  0  0  0
  6  2  1  0  0  0  0
  6 10  1  0  0  0  0
  7  2  1  0  0  0  0
  9 13  1  0  0  0  0
  9  6  1  0  0  0  0
  9 12  1  0  0  0  0
 11  6  1  0  0  0  0
 14  9  1  0  0  0  0
M  END
$$$$
