14
butane_opt
C  -3.898673   0.298899   0.069990
C  -2.692886  -0.643492   0.024258
H  -4.778343  -0.288274   0.085843
H  -4.111988   1.034872  -0.990532
H  -3.984574   0.886557   0.894230
C  -1.416791   0.155929  -0.081856
H  -2.797679  -1.295430  -0.772723
H  -2.653417  -1.280291   0.950981
C  -0.188190  -0.667785   0.073169
H  -1.367828   0.773386   0.795734
H  -1.314540   0.578572  -0.909670
H  -0.438711  -1.002845   0.846381
H   0.814039   0.020258   0.388040
H  -0.038875  -1.591035  -0.930262
