butane_opt
 OpenBabel08242015383D

 14 13  0  0  0  0  0  0  0  0999 V2000
   -3.9320    0.2898    0.0454 C   0  0  0  0  0  0  0  0  0  0  0  0
   -2.6883   -0.6657   -0.0332 C   0  0  0  0  0  0  0  0  0  0  0  0
   -4.7173   -0.1807   -0.0104 H   0  0  0  0  0  0  0  0  0  0  0  0
   -4.1830    0.8140   -0.7717 H   0  0  0  0  0  0  0  0  0  0  0  0
   -3.8290    1.1013    1.0087 H   0  0  0  0  0  0  0  0  0  0  0  0
   -1.4177    0.1660    0.0230 C   0  0  0  0  0  0  0  0  0  0  0  0
   -2.6360   -1.5667   -1.0630 H   0  0  0  0  0  0  0  0  0  0  0  0
   -2.6226   -1.2382    0.8713 H   0  0  0  0  0  0  0  0  0  0  0  0
   -0.1878   -0.6561    0.0704 C   0  0  0  0  0  0  0  0  0  0  0  0
   -1.3924    0.7326    0.8367 H   0  0  0  0  0  0  0  0  0  0  0  0
   -1.4452    0.8962   -0.9316 H   0  0  0  0  0  0  0  0  0  0  0  0
    0.0117   -1.5997    1.1398 H   0  0  0  0  0  0  0  0  0  0  0  0
    0.8246    0.0022   -0.3879 H   0  0  0  0  0  0  0  0  0  0  0  0
   -0.3524   -0.9852   -0.4797 H   0  0  0  0  0  0  0  0  0  0  0  0
  1  5  1  0  0  0  0
  2  6  1  0  0  0  0
  2  1  1  0  0  0  0
  2  8  1  0  0  0  0
  3  1  1  0  0  0  0
  4  1  1  0  0  0  0
  6  9  1  0  0  0  0
  6 10  1  0  0  0  0
  7  2  1  0  0  0  0
  9 12  1  0  0  0  0
 11  6  1  0  0  0  0
 13  9  1  0  0  0  0
 14  9  1  0  0  0  0
M  END
$$$$
