14
butane_opt
C  -3.977816   0.265206  -0.006677
C  -2.706466  -0.639695   0.008869
H  -4.850565  -0.249384   0.476850
H  -4.146639   1.428725  -1.203473
H  -3.881316   0.677182   0.672365
C  -1.374037   0.162429   0.082493
H  -2.604963  -1.197985  -0.839568
H  -2.800031  -1.399352   1.026116
C  -0.140940  -0.691020   0.004598
H  -1.456108   1.009834   1.066951
H  -1.309340   0.699371  -0.721699
H  -0.200128  -1.116551   0.782581
H   0.876817   0.037223  -0.069347
H  -0.252171  -1.503870  -0.889519
