14
butane_opt
C  -3.921960   0.280455  -0.071788
C  -2.666147  -0.657591   0.156797
H  -4.942389  -0.349931  -0.105830
H  -3.779114   0.935581  -0.978484
H  -4.106941   1.003275   0.790295
C  -1.389857   0.192109   0.096035
H  -2.566804  -1.121597  -0.583789
H  -2.875579  -1.320522   1.140355
C  -0.205529  -0.690794  -0.048457
H  -1.220908   0.753117   0.833350
H  -1.483133   0.878327  -0.897197
H  -0.269547  -0.970178   0.569227
H   0.655623  -0.106872   0.198078
H  -0.208828  -1.699203  -1.124014
