14
butane_opt
C  -3.945075   0.278248  -0.062366
C  -2.686716  -0.655658   0.091500
H  -4.727497  -0.095681  -0.033547
H  -3.952079   0.883349  -0.981614
H  -4.321173   0.895384   0.676528
C  -1.391341   0.160306   0.132154
H  -2.624709  -1.195877  -0.688965
H  -2.584812  -1.395666   1.003822
C  -0.193861  -0.664198  -0.065626
H  -1.293858   1.033587   1.098456
H  -1.415788   0.593314  -0.558988
H   0.048984  -1.520940   0.951073
H   0.789244   0.035819  -0.410543
H  -0.349740  -1.106317  -0.742051
