14
butane_opt
C  -3.935264   0.278168   0.086121
C  -2.652179  -0.648896  -0.072987
H  -4.798225  -0.209959   0.049204
H  -3.999742   0.700000  -0.642131
H  -3.961058   1.110244   1.019237
C  -1.405775   0.149336  -0.032731
H  -2.733111  -1.316992  -0.971278
H  -2.645438  -1.232714   0.828950
C  -0.191301  -0.665735   0.085134
H  -1.616075   0.911084   0.884000
H  -1.244375   0.873396  -0.950963
H  -0.202225  -1.611563   1.294671
H   0.742110  -0.084985  -0.289455
H  -0.354022  -0.971810  -0.531601
