butane_opt
 OpenBabel08242015383D

 14 11  0  0  0  0  0  0  0  0999 V2000
   -3.9405    0.2125   -0.0375 C   0  0  0  0  0  0  0  0  0  0  0  0
   -2.7210   -0.5645    0.1080 C   0  0  0  0  0  0  0  0  0  0  0  0
   -4.8505   -0.3960    0.3088 H   0  0  0  0  0  0  0  0  0  0  0  0
   -4.0713    1.2151   -1.2070 H   0  0  0  0  0  0  0  0  0  0  0  0
   -3.8881    0.4875    0.4479 H   0  0  0  0  0  0  0  0  0  0  0  0
   -1.4113    0.2034    0.0866 C   0  0  0  0  0  0  0  0  0  0  0  0
   -2.8161   -1.2201   -0.7969 H   0  0  0  0  0  0  0  0  0  0  0  0
   -2.7562   -1.0887    0.9699 H   0  0  0  0  0  0  0  0  0  0  0  0
   -0.1161   -0.7297   -0.0337 C   0  0  0  0  0  0  0  0  0  0  0  0
   -1.5622    1.1034    1.1009 H   0  0  0  0  0  0  0  0  0  0  0  0
   -1.4973    0.8216   -0.7201 H   0  0  0  0  0  0  0  0  0  0  0  0
    0.0027   -1.1558    0.7055 H   0  0  0  0  0  0  0  0  0  0  0  0
    0.7415   -0.1452    0.0858 H   0  0  0  0  0  0  0  0  0  0  0  0
   -0.0476   -1.5813   -1.0138 H   0  0  0  0  0  0  0  0  0  0  0  0
  1  2  1  0  0  0  0
  1  3  1  0  0  0  0
  2  8  1  0  0  0  0
  6  2  1  0  0  0  0
  6 10  1  0  0  0  0
  7  2  1  0  0  0  0
  9 13  1  0  0  0  0
  9  6  1  0  0  0  0
  9 12  1  0  0  0  0
 11  6  1  0  0  0  0
 14  9  1  0  0  0  0
M  RAD  3   1   3   4   2   5   2
M  END
$$$$
