butane_opt
 OpenBabel08242015383D

 14 13  0  0  0  0  0  0  0  0999 V2000
   -3.9895    0.3084   -0.0595 C   0  0  0  0  0  0  0  0  0  0  0  0
   -2.6769   -0.6440    0.1347 C   0  0  0  0  0  0  0  0  0  0  0  0
   -4.9547   -0.3418   -0.1825 H   0  0  0  0  0  0  0  0  0  0  0  0
   -4.0339    1.0135   -1.0745 H   0  0  0  0  0  0  0  0  0  0  0  0
   -4.1492    0.9266    0.7184 H   0  0  0  0  0  0  0  0  0  0  0  0
   -1.3568    0.1479    0.1206 C   0  0  0  0  0  0  0  0  0  0  0  0
   -2.6666   -1.5043   -0.7822 H   0  0  0  0  0  0  0  0  0  0  0  0
   -2.8063   -1.2547    0.9871 H   0  0  0  0  0  0  0  0  0  0  0  0
   -0.1644   -0.6479   -0.0451 C   0  0  0  0  0  0  0  0  0  0  0  0
   -1.1031    0.8514    1.0098 H   0  0  0  0  0  0  0  0  0  0  0  0
   -1.5012    0.7012   -0.7195 H   0  0  0  0  0  0  0  0  0  0  0  0
    0.0489   -1.4447    0.8977 H   0  0  0  0  0  0  0  0  0  0  0  0
    0.7549   -0.0668   -0.3490 H   0  0  0  0  0  0  0  0  0  0  0  0
   -0.3633   -1.3003   -0.8642 H   0  0  0  0  0  0  0  0  0  0  0  0
  1  2  1  0  0  0  0
  1  5  1  0  0  0  0
  2  8  1  0  0  0  0
  3  1  1  0  0  0  0
  4  1  1  0  0  0  0
  6  2  1  0  0  0  0
  6 10  1  0  0  0  0
  7  2  1  0  0  0  0
  9  6  1  0  0  0  0
  9 12  1  0  0  0  0
 11  6  1  0  0  0  0
 13  9  1  0  0  0  0
 14  9  1  0  0  0  0
M  END
$$$$
