butane_opt
 OpenBabel08242015383D

 14 12  0  0  0  0  0  0  0  0999 V2000
   -3.9353    0.2782    0.0861 C   0  0  0  0  0  0  0  0  0  0  0  0
   -2.6522   -0.6489   -0.0730 C   0  0  0  0  0  0  0  0  0  0  0  0
   -4.7982   -0.2100    0.0492 H   0  0  0  0  0  0  0  0  0  0  0  0
   -3.9997    0.7000   -0.6421 H   0  0  0  0  0  0  0  0  0  0  0  0
   -3.9611    1.1102    1.0192 H   0  0  0  0  0  0  0  0  0  0  0  0
   -1.4058    0.1493   -0.0327 C   0  0  0  0  0  0  0  0  0  0  0  0
   -2.7331   -1.3170   -0.9713 H   0  0  0  0  0  0  0  0  0  0  0  0
   -2.6454   -1.2327    0.8289 H   0  0  0  0  0  0  0  0  0  0  0  0
   -0.1913   -0.6657    0.0851 C   0  0  0  0  0  0  0  0  0  0  0  0
   -1.6161    0.9111    0.8840 H   0  0  0  0  0  0  0  0  0  0  0  0
   -1.2444    0.8734   -0.9510 H   0  0  0  0  0  0  0  0  0  0  0  0
   -0.2022   -1.6116    1.2947 H   0  0  0  0  0  0  0  0  0  0  0  0
    0.7421   -0.0850   -0.2895 H   0  0  0  0  0  0  0  0  0  0  0  0
   -0.3540   -0.9718   -0.5316 H   0  0  0  0  0  0  0  0  0  0  0  0
  1  5  1  0  0  0  0
  2  6  1  0  0  0  0
  2  1  1  0  0  0  0
  2  8  1  0  0  0  0
  3  1  1  0  0  0  0
  4  1  1  0  0  0  0
  6  9  1  0  0  0  0
  6 10  1  0  0  0  0
  7  2  1  0  0  0  0
 11  6  1  0  0  0  0
 13  9  1  0  0  0  0
 14  9  1  0  0  0  0
M  RAD  2   9   2  12   2
M  END
$$$$
