butane_opt
 OpenBabel08242015383D

 14 13  0  0  0  0  0  0  0  0999 V2000
   -3.9196    0.3030   -0.0987 C   0  0  0  0  0  0  0  0  0  0  0  0
   -2.6850   -0.6449    0.1315 C   0  0  0  0  0  0  0  0  0  0  0  0
   -4.8714   -0.3277    0.0023 H   0  0  0  0  0  0  0  0  0  0  0  0
   -3.9085    0.9933   -1.0500 H   0  0  0  0  0  0  0  0  0  0  0  0
   -3.9470    0.8949    0.7071 H   0  0  0  0  0  0  0  0  0  0  0  0
   -1.4055    0.1675    0.1616 C   0  0  0  0  0  0  0  0  0  0  0  0
   -2.5991   -1.3909   -0.7564 H   0  0  0  0  0  0  0  0  0  0  0  0
   -2.9192   -1.1811    1.0290 H   0  0  0  0  0  0  0  0  0  0  0  0
   -0.1930   -0.6816   -0.0615 C   0  0  0  0  0  0  0  0  0  0  0  0
   -1.4213    0.7615    1.0389 H   0  0  0  0  0  0  0  0  0  0  0  0
   -1.4461    0.6538   -0.6137 H   0  0  0  0  0  0  0  0  0  0  0  0
    0.0795   -1.3801    0.8813 H   0  0  0  0  0  0  0  0  0  0  0  0
    0.8952    0.0322   -0.5394 H   0  0  0  0  0  0  0  0  0  0  0  0
   -0.4789   -1.2094   -0.8567 H   0  0  0  0  0  0  0  0  0  0  0  0
  1  3  1  0  0  0  0
  1  2  1  0  0  0  0
  1  5  1  0  0  0  0
  2  6  1  0  0  0  0
  2  8  1  0  0  0  0
  4  1  1  0  0  0  0
  6 10  1  0  0  0  0
  7  2  1  0  0  0  0
  9  6  1  0  0  0  0
  9 12  1  0  0  0  0
 11  6  1  0  0  0  0
 13  9  1  0  0  0  0
 14  9  1  0  0  0  0
M  END
$$$$
