butane_opt
 OpenBabel08242015383D

 14 13  0  0  0  0  0  0  0  0999 V2000
   -3.9131    0.2473    0.0570 C   0  0  0  0  0  0  0  0  0  0  0  0
   -2.7080   -0.5842    0.0183 C   0  0  0  0  0  0  0  0  0  0  0  0
   -4.8278   -0.4319   -0.2525 H   0  0  0  0  0  0  0  0  0  0  0  0
   -3.7970    0.6352   -0.6643 H   0  0  0  0  0  0  0  0  0  0  0  0
   -3.9968    1.1334    1.0970 H   0  0  0  0  0  0  0  0  0  0  0  0
   -1.4235    0.2122   -0.0396 C   0  0  0  0  0  0  0  0  0  0  0  0
   -2.6682   -1.2898   -0.7379 H   0  0  0  0  0  0  0  0  0  0  0  0
   -2.6642   -1.2354    0.9075 H   0  0  0  0  0  0  0  0  0  0  0  0
   -0.1775   -0.7354    0.0680 C   0  0  0  0  0  0  0  0  0  0  0  0
   -1.4429    0.6533    0.6557 H   0  0  0  0  0  0  0  0  0  0  0  0
   -1.4824    1.0094   -1.0609 H   0  0  0  0  0  0  0  0  0  0  0  0
   -0.1538   -1.2289    0.8338 H   0  0  0  0  0  0  0  0  0  0  0  0
    0.8069   -0.0495    0.1676 H   0  0  0  0  0  0  0  0  0  0  0  0
   -0.1252   -1.3362   -0.7196 H   0  0  0  0  0  0  0  0  0  0  0  0
  1  5  1  0  0  0  0
  2  1  1  0  0  0  0
  2  8  1  0  0  0  0
  3  1  1  0  0  0  0
  4  1  1  0  0  0  0
  6  2  1  0  0  0  0
  6  9  1  0  0  0  0
  6 10  1  0  0  0  0
  7  2  1  0  0  0  0
  9 13  1  0  0  0  0
  9 12  1  0  0  0  0
 11  6  1  0  0  0  0
 14  9  1  0  0  0  0
M  END
$$$$
