14
butane_opt
C  -3.908713   0.232790   0.118783
C  -2.723280  -0.580316  -0.044734
H  -4.814756  -0.404716  -0.094533
H  -3.920439   0.646254  -0.697618
H  -3.713059   1.140898   1.172978
C  -1.425404   0.191510  -0.128180
H  -2.820643  -1.047121  -0.800301
H  -2.469509  -1.269102   0.790586
C  -0.189112  -0.704839   0.126891
H  -1.550582   0.818308   0.631409
H  -1.253322   0.937484  -1.061952
H  -0.233285  -1.319941   1.004193
H   0.642065  -0.151477   0.351317
H   0.068010  -1.516779  -0.738658
