14
butane_opt
C  -3.974260   0.265954  -0.058786
C  -2.723416  -0.642592   0.149518
H  -4.852108  -0.232227  -0.207133
H  -4.025118   0.852183  -0.972329
H  -4.120463   1.022738   0.889440
C  -1.353580   0.202587   0.040836
H  -2.666963  -1.263579  -0.664863
H  -2.667004  -1.275748   1.079404
C  -0.167924  -0.702217  -0.045302
H  -1.165540   0.918894   1.009426
H  -1.409567   0.724440  -0.715824
H  -0.134051  -1.195933   0.804401
H   0.656622  -0.138765   0.014624
H   0.010809  -1.378791  -0.852561
