14
butane_opt
C  -3.956103   0.285996   0.024935
C  -2.689101  -0.671349   0.036319
H  -4.796873  -0.221638  -0.178050
H  -3.905358   0.903605  -0.928672
H  -4.050044   1.153374   0.960731
C  -1.376478   0.161742   0.051558
H  -2.695304  -1.470546  -0.957057
H  -2.795076  -1.213450   0.858628
C  -0.166321  -0.674041   0.012231
H  -1.324536   0.824537   0.925436
H  -1.566896   0.901507  -0.845076
H  -0.027818  -1.585650   1.087038
H   0.719249   0.023735  -0.325697
H  -0.341199  -0.994455  -0.598334
