14
butane_opt
C  -3.959020   0.317031   0.098039
C  -2.679566  -0.624647  -0.004913
H  -4.920102  -0.367950  -0.321468
H  -3.990973   0.619237  -0.578788
H  -4.082636   1.186550   1.012477
C  -1.354976   0.113928  -0.100756
H  -2.775260  -1.285941  -0.957407
H  -2.573885  -1.377470   0.942590
C  -0.194145  -0.661932   0.102358
H  -1.337970   0.820455   0.786220
H  -1.348136   0.736149  -0.983231
H  -0.256459  -1.363920   1.082420
H   0.700482   0.006036   0.015198
H  -0.182800  -1.192059  -0.667792
