14
butane_opt
C  -3.962199   0.244447  -0.046315
C  -2.724075  -0.619988   0.090341
H  -4.881719  -0.310083   0.411478
H  -4.080419   1.248840  -1.217830
H  -3.928764   0.509396   0.507479
C  -1.403192   0.212586   0.093666
H  -2.779860  -1.273398  -0.779458
H  -2.597370  -1.302458   0.945743
C  -0.112344  -0.691985  -0.040688
H  -1.359858   1.171627   1.166559
H  -1.465314   0.716038  -0.756727
H   0.006916  -1.213179   0.808273
H   0.609942  -0.272981   0.148698
H  -0.115273  -1.505024  -1.007696
