14
butane_opt
C  -3.927553   0.226819   0.104447
C  -2.702468  -0.539780  -0.025212
H  -4.903807  -0.493432   0.104141
H  -3.816855   0.771268  -0.778769
H  -3.771690   0.926584   0.929394
C  -1.435465   0.197451  -0.100324
H  -2.782967  -1.244081  -0.893378
H  -2.510670  -1.326453   0.953207
C  -0.168475  -0.712750   0.091573
H  -1.529762   0.875013   0.735566
H  -1.413991   0.871293  -1.103823
H  -0.261538  -1.183860   0.936871
H   0.681151  -0.214916   0.533487
H   0.097143  -1.528884  -0.826923
