14
butane_opt
C  -3.972143   0.282129  -0.023961
C  -2.702932  -0.680603   0.019747
H  -4.734689  -0.182335   0.489672
H  -4.277291   1.200291  -1.088098
H  -3.800427   0.676980   0.690222
C  -1.425195   0.200115   0.066418
H  -2.678134  -1.285605  -0.713720
H  -2.743756  -1.297898   0.927647
C  -0.124163  -0.669345   0.017514
H  -1.359170   1.014446   0.949580
H  -1.284567   0.615641  -0.674056
H  -0.172209  -1.285209   0.843455
H   0.789494  -0.025964  -0.078227
H  -0.091227  -1.459127  -0.918688
