14
butane_opt
C  -3.926726   0.254398   0.000920
C  -2.700050  -0.603232   0.049681
H  -4.859611  -0.370048   0.141263
H  -3.965315   0.997096  -0.949280
H  -3.923453   0.779610   0.761694
C  -1.422727   0.205762   0.041346
H  -2.683284  -1.331128  -0.832827
H  -2.756359  -1.246137   0.962832
C  -0.156984  -0.707514   0.007390
H  -1.378687   0.926632   0.915272
H  -1.433016   0.781635  -0.834254
H  -0.105303  -1.300655   0.894635
H   0.729899  -0.128571   0.040740
H  -0.162737  -1.374676  -0.858409
