14
butane_opt
C  -3.932624   0.236339  -0.062534
C  -2.698331  -0.594792   0.133834
H  -4.911291  -0.393308   0.191486
H  -3.741272   1.045520  -1.122187
H  -3.923816   0.755718   0.693699
C  -1.412210   0.234744   0.059489
H  -2.689621  -1.073262  -0.590893
H  -2.781364  -1.291891   1.124327
C  -0.177060  -0.744829  -0.052169
H  -1.147528   0.892667   0.995888
H  -1.540339   0.796959  -0.732666
H  -0.303506  -0.935337   0.573384
H   0.660921  -0.132722   0.405808
H   0.021232  -1.741407  -1.079636
