butane_opt
 OpenBabel08242015383D

 14 13  0  0  0  0  0  0  0  0999 V2000
   -3.9750    0.2922    0.1264 C   0  0  0  0  0  0  0  0  0  0  0  0
   -2.6497   -0.6532   -0.0537 C   0  0  0  0  0  0  0  0  0  0  0  0
   -4.7505   -0.1970    0.1174 H   0  0  0  0  0  0  0  0  0  0  0  0
   -4.1672    0.7564   -0.6592 H   0  0  0  0  0  0  0  0  0  0  0  0
   -3.8342    1.0503    1.1586 H   0  0  0  0  0  0  0  0  0  0  0  0
   -1.3686    0.1440   -0.1468 C   0  0  0  0  0  0  0  0  0  0  0  0
   -2.6689   -1.2900   -0.9320 H   0  0  0  0  0  0  0  0  0  0  0  0
   -2.6078   -1.3272    0.8634 H   0  0  0  0  0  0  0  0  0  0  0  0
   -0.2048   -0.6475    0.1338 C   0  0  0  0  0  0  0  0  0  0  0  0
   -1.6089    0.6821    0.5818 H   0  0  0  0  0  0  0  0  0  0  0  0
   -1.2901    0.8292   -1.1292 H   0  0  0  0  0  0  0  0  0  0  0  0
   -0.5277   -1.1031    0.9332 H   0  0  0  0  0  0  0  0  0  0  0  0
    0.6820   -0.0675    0.5501 H   0  0  0  0  0  0  0  0  0  0  0  0
    0.1116   -1.4132   -0.7708 H   0  0  0  0  0  0  0  0  0  0  0  0
  1  5  1  0  0  0  0
  2  1  1  0  0  0  0
  2  8  1  0  0  0  0
  3  1  1  0  0  0  0
  4  1  1  0  0  0  0
  6  2  1  0  0  0  0
  6  9  1  0  0  0  0
  6 10  1  0  0  0  0
  7  2  1  0  0  0  0
  9 13  1  0  0  0  0
  9 12  1  0  0  0  0
 11  6  1  0  0  0  0
 14  9  1  0  0  0  0
M  END
$$$$
