butane_opt
 OpenBabel08242015383D

 14 13  0  0  0  0  0  0  0  0999 V2000
   -3.9259    0.2670    0.1173 C   0  0  0  0  0  0  0  0  0  0  0  0
   -2.6733   -0.6326   -0.0559 C   0  0  0  0  0  0  0  0  0  0  0  0
   -4.7409   -0.2075    0.2234 H   0  0  0  0  0  0  0  0  0  0  0  0
   -4.0232    0.8743   -0.8184 H   0  0  0  0  0  0  0  0  0  0  0  0
   -3.8031    0.9149    1.0189 H   0  0  0  0  0  0  0  0  0  0  0  0
   -1.4284    0.1987   -0.1444 C   0  0  0  0  0  0  0  0  0  0  0  0
   -2.7662   -1.3736   -0.8791 H   0  0  0  0  0  0  0  0  0  0  0  0
   -2.4664   -1.2960    0.8800 H   0  0  0  0  0  0  0  0  0  0  0  0
   -0.1987   -0.6864    0.1223 C   0  0  0  0  0  0  0  0  0  0  0  0
   -1.4755    0.8144    0.7276 H   0  0  0  0  0  0  0  0  0  0  0  0
   -1.4121    0.6776   -0.9748 H   0  0  0  0  0  0  0  0  0  0  0  0
   -0.3745   -1.1324    0.9640 H   0  0  0  0  0  0  0  0  0  0  0  0
    0.8039   -0.0487    0.4991 H   0  0  0  0  0  0  0  0  0  0  0  0
   -0.0662   -1.4119   -0.6835 H   0  0  0  0  0  0  0  0  0  0  0  0
  1  3  1  0  0  0  0
  1  5  1  0  0  0  0
  2  1  1  0  0  0  0
  2  8  1  0  0  0  0
  4  1  1  0  0  0  0
  6  2  1  0  0  0  0
  6  9  1  0  0  0  0
  6 10  1  0  0  0  0
  7  2  1  0  0  0  0
  9 13  1  0  0  0  0
  9 12  1  0  0  0  0
 11  6  1  0  0  0  0
 14  9  1  0  0  0  0
M  END
$$$$
