14
butane_opt
C  -3.975693   0.303157  -0.041348
C  -2.666850  -0.640925   0.086933
H  -4.846322  -0.303352   0.184610
H  -3.988848   1.060503  -1.053335
H  -4.068973   0.881337   0.796376
C  -1.403841   0.121909   0.056882
H  -2.744420  -1.154435  -0.644347
H  -2.782260  -1.553237   1.200018
C  -0.167272  -0.651711  -0.023133
H  -1.454736   0.915126   0.889195
H  -1.294426   0.643513  -0.790139
H  -0.159316  -0.961084   0.678755
H   0.884287   0.044846   0.292028
H  -0.039986  -1.602797  -1.109285
