butane_opt
 OpenBabel08242015383D

 14 12  0  0  0  0  0  0  0  0999 V2000
   -3.9760    0.2289   -0.0430 C   0  0  0  0  0  0  0  0  0  0  0  0
   -2.7082   -0.5803    0.0647 C   0  0  0  0  0  0  0  0  0  0  0  0
   -4.9726   -0.4449    0.4768 H   0  0  0  0  0  0  0  0  0  0  0  0
   -4.0883    1.2983   -1.2546 H   0  0  0  0  0  0  0  0  0  0  0  0
   -3.7793    0.5109    0.5707 H   0  0  0  0  0  0  0  0  0  0  0  0
   -1.4128    0.2120    0.1422 C   0  0  0  0  0  0  0  0  0  0  0  0
   -2.6194   -1.2836   -0.8474 H   0  0  0  0  0  0  0  0  0  0  0  0
   -3.0170   -1.1516    0.9751 H   0  0  0  0  0  0  0  0  0  0  0  0
   -0.1175   -0.7200   -0.0370 C   0  0  0  0  0  0  0  0  0  0  0  0
   -1.3595    0.9565    0.9891 H   0  0  0  0  0  0  0  0  0  0  0  0
   -1.4595    0.8423   -0.7923 H   0  0  0  0  0  0  0  0  0  0  0  0
    0.1307   -1.1701    0.8073 H   0  0  0  0  0  0  0  0  0  0  0  0
    0.6843   -0.2150   -0.0237 H   0  0  0  0  0  0  0  0  0  0  0  0
    0.0336   -1.5171   -1.0205 H   0  0  0  0  0  0  0  0  0  0  0  0
  1  2  1  0  0  0  0
  1  3  1  0  0  0  0
  1  5  1  0  0  0  0
  2  6  1  0  0  0  0
  2  8  1  0  0  0  0
  6 10  1  0  0  0  0
  7  2  1  0  0  0  0
  9 13  1  0  0  0  0
  9  6  1  0  0  0  0
  9 12  1  0  0  0  0
 11  6  1  0  0  0  0
 14  9  1  0  0  0  0
M  RAD  2   1   2   4   2
M  END
$$$$
