14
butane_opt
C  -3.938781   0.270270   0.030532
C  -2.695253  -0.613755   0.015007
H  -4.836431  -0.304474   0.129253
H  -4.034964   0.914593  -0.868213
H  -3.923736   0.886437   0.873592
C  -1.400900   0.175000   0.009324
H  -2.698838  -1.347072  -0.862325
H  -2.725416  -1.215863   0.877452
C  -0.167831  -0.691551   0.045603
H  -1.413011   0.792873   0.823639
H  -1.351180   0.832103  -0.886082
H  -0.202712  -1.298411   0.961127
H   0.750725  -0.083530  -0.006967
H  -0.153229  -1.322560  -0.813397
