14
butane_opt
C  -3.937376   0.294695   0.092939
C  -2.697189  -0.659577  -0.084336
H  -4.730811  -0.206475  -0.025434
H  -4.141759   0.697917  -0.668412
H  -4.057743   1.217615   1.161771
C  -1.399653   0.145236  -0.045788
H  -2.726316  -1.473202  -1.016603
H  -2.637341  -1.290577   0.782926
C  -0.157245  -0.650731   0.137926
H  -1.461028   0.860809   0.716136
H  -1.340019   0.777315  -0.959618
H   0.115993  -1.667058   1.205733
H   0.724429  -0.038195  -0.414521
H  -0.476333  -0.873115  -0.469091
