14
butane_opt
C  -3.942911   0.293549  -0.010234
C  -2.684890  -0.669134   0.128436
H  -4.828794  -0.258127  -0.503781
H  -3.580940   0.703284  -0.836506
H  -4.185863   1.198997   0.997366
C  -1.417206   0.146807   0.029401
H  -2.633766  -1.296133  -0.650571
H  -2.478134  -1.244008   0.947859
C  -0.200798  -0.661149  -0.027788
H  -1.351018   0.759900   0.852789
H  -1.402965   0.937855  -0.866354
H  -0.108685  -1.341223   0.911447
H   0.716797   0.060404   0.014372
H  -0.250404  -1.320450  -0.844715
