14
butane_opt
C  -3.948488   0.282764  -0.008251
C  -2.721163  -0.631521   0.057605
H  -4.864659  -0.353183   0.337111
H  -4.162940   1.178201  -1.081268
H  -3.937094   0.614481   0.537817
C  -1.409908   0.183781   0.081489
H  -2.629356  -1.361510  -0.876974
H  -2.758724  -1.221897   0.887698
C  -0.112306  -0.694459  -0.032352
H  -1.428650   0.913737   1.015305
H  -1.494331   0.626938  -0.705292
H  -0.176130  -1.265996   0.901206
H   0.819938  -0.045695   0.050601
H  -0.092509  -1.226445  -0.828875
