14
butane_opt
C  -3.962265   0.283655   0.053477
C  -2.735412  -0.660497  -0.023401
H  -4.775600  -0.244186   0.065788
H  -4.125620   0.750698  -0.771564
H  -3.961435   1.107112   1.028421
C  -1.382577   0.210759  -0.008772
H  -2.714561  -1.497200  -0.960377
H  -2.683398  -1.148295   0.814567
C  -0.131765  -0.684074   0.092134
H  -1.285086   0.713610   0.736212
H  -1.366107   0.969941  -1.034226
H  -0.125037  -1.507049   1.198764
H   0.793647  -0.106066  -0.220963
H  -0.239114  -1.296045  -0.744203
