14
butane_opt
C  -3.928334   0.238508   0.056038
C  -2.747508  -0.595161  -0.048346
H  -4.946013  -0.423366   0.080810
H  -4.011779   0.755268  -0.687708
H  -3.992150   1.025503   0.966029
C  -1.413738   0.243989   0.022996
H  -2.668727  -1.381663  -0.899811
H  -2.912492  -1.046176   0.758382
C  -0.118895  -0.734415   0.070118
H  -1.313643   0.749687   0.775045
H  -1.289489   0.945774  -0.923412
H   0.142631  -1.639220   1.126876
H   0.628383  -0.297236  -0.365984
H  -0.125583  -1.020285  -0.536194
