butane_opt
 OpenBabel08242015383D

 14 13  0  0  0  0  0  0  0  0999 V2000
   -3.9561    0.2860    0.0249 C   0  0  0  0  0  0  0  0  0  0  0  0
   -2.6891   -0.6713    0.0363 C   0  0  0  0  0  0  0  0  0  0  0  0
   -4.7969   -0.2216   -0.1781 H   0  0  0  0  0  0  0  0  0  0  0  0
   -3.9054    0.9036   -0.9287 H   0  0  0  0  0  0  0  0  0  0  0  0
   -4.0500    1.1534    0.9607 H   0  0  0  0  0  0  0  0  0  0  0  0
   -1.3765    0.1617    0.0516 C   0  0  0  0  0  0  0  0  0  0  0  0
   -2.6953   -1.4705   -0.9571 H   0  0  0  0  0  0  0  0  0  0  0  0
   -2.7951   -1.2134    0.8586 H   0  0  0  0  0  0  0  0  0  0  0  0
   -0.1663   -0.6740    0.0122 C   0  0  0  0  0  0  0  0  0  0  0  0
   -1.3245    0.8245    0.9254 H   0  0  0  0  0  0  0  0  0  0  0  0
   -1.5669    0.9015   -0.8451 H   0  0  0  0  0  0  0  0  0  0  0  0
   -0.0278   -1.5857    1.0870 H   0  0  0  0  0  0  0  0  0  0  0  0
    0.7192    0.0237   -0.3257 H   0  0  0  0  0  0  0  0  0  0  0  0
   -0.3412   -0.9945   -0.5983 H   0  0  0  0  0  0  0  0  0  0  0  0
  1  2  1  0  0  0  0
  1  5  1  0  0  0  0
  2  6  1  0  0  0  0
  2  8  1  0  0  0  0
  3  1  1  0  0  0  0
  4  1  1  0  0  0  0
  6 10  1  0  0  0  0
  7  2  1  0  0  0  0
  9  6  1  0  0  0  0
  9 12  1  0  0  0  0
 11  6  1  0  0  0  0
 13  9  1  0  0  0  0
 14  9  1  0  0  0  0
M  END
$$$$
