14
butane_opt
C  -3.976456   0.216176   0.035914
C  -2.734858  -0.573530  -0.003541
H  -4.932732  -0.377616  -0.058943
H  -3.854342   0.635454  -0.747813
H  -3.959861   1.131826   1.029724
C  -1.367809   0.219663   0.012481
H  -2.735352  -1.103822  -0.835592
H  -2.785629  -1.083473   0.832345
C  -0.134317  -0.729809   0.035535
H  -1.475665   0.972625   0.879315
H  -1.389921   0.807605  -0.852112
H  -0.000619  -1.746315   1.250000
H   0.741533  -0.231554  -0.339826
H  -0.057952  -1.097614  -0.624873
