14
butane_opt
C  -3.919630   0.303009  -0.098742
C  -2.685049  -0.644852   0.131515
H  -4.871365  -0.327653   0.002323
H  -3.908506   0.993274  -1.050019
H  -3.946981   0.894896   0.707125
C  -1.405485   0.167482   0.161551
H  -2.599137  -1.390922  -0.756381
H  -2.919164  -1.181093   1.029042
C  -0.192961  -0.681600  -0.061453
H  -1.421293   0.761540   1.038860
H  -1.446099   0.653836  -0.613739
H   0.079509  -1.380056   0.881267
H   0.895249   0.032222  -0.539363
H  -0.478929  -1.209436  -0.856680
