butane_opt
 OpenBabel08242015383D

 14 13  0  0  0  0  0  0  0  0999 V2000
   -3.9220    0.2805   -0.0718 C   0  0  0  0  0  0  0  0  0  0  0  0
   -2.6661   -0.6576    0.1568 C   0  0  0  0  0  0  0  0  0  0  0  0
   -4.9424   -0.3499   -0.1058 H   0  0  0  0  0  0  0  0  0  0  0  0
   -3.7791    0.9356   -0.9785 H   0  0  0  0  0  0  0  0  0  0  0  0
   -4.1069    1.0033    0.7903 H   0  0  0  0  0  0  0  0  0  0  0  0
   -1.3899    0.1921    0.0960 C   0  0  0  0  0  0  0  0  0  0  0  0
   -2.5668   -1.1216   -0.5838 H   0  0  0  0  0  0  0  0  0  0  0  0
   -2.8756   -1.3205    1.1404 H   0  0  0  0  0  0  0  0  0  0  0  0
   -0.2055   -0.6908   -0.0485 C   0  0  0  0  0  0  0  0  0  0  0  0
   -1.2209    0.7531    0.8334 H   0  0  0  0  0  0  0  0  0  0  0  0
   -1.4831    0.8783   -0.8972 H   0  0  0  0  0  0  0  0  0  0  0  0
   -0.2695   -0.9702    0.5692 H   0  0  0  0  0  0  0  0  0  0  0  0
    0.6556   -0.1069    0.1981 H   0  0  0  0  0  0  0  0  0  0  0  0
   -0.2088   -1.6992   -1.1240 H   0  0  0  0  0  0  0  0  0  0  0  0
  1  2  1  0  0  0  0
  1  5  1  0  0  0  0
  2  8  1  0  0  0  0
  3  1  1  0  0  0  0
  4  1  1  0  0  0  0
  6  2  1  0  0  0  0
  6 10  1  0  0  0  0
  7  2  1  0  0  0  0
  9  6  1  0  0  0  0
  9 13  1  0  0  0  0
  9 12  1  0  0  0  0
 11  6  1  0  0  0  0
 14  9  1  0  0  0  0
M  END
$$$$
