butane_opt
 OpenBabel08242015383D

 14 13  0  0  0  0  0  0  0  0999 V2000
   -3.9996    0.3309   -0.0206 C   0  0  0  0  0  0  0  0  0  0  0  0
   -2.7084   -0.6876    0.0869 C   0  0  0  0  0  0  0  0  0  0  0  0
   -4.7704   -0.2316    0.2728 H   0  0  0  0  0  0  0  0  0  0  0  0
   -4.1501    1.1571   -0.9802 H   0  0  0  0  0  0  0  0  0  0  0  0
   -3.9113    0.5968    0.6379 H   0  0  0  0  0  0  0  0  0  0  0  0
   -1.3778    0.1659    0.0154 C   0  0  0  0  0  0  0  0  0  0  0  0
   -2.6020   -1.3324   -0.7592 H   0  0  0  0  0  0  0  0  0  0  0  0
   -2.7673   -1.3390    0.9573 H   0  0  0  0  0  0  0  0  0  0  0  0
   -0.1660   -0.6703   -0.0117 C   0  0  0  0  0  0  0  0  0  0  0  0
   -1.1424    1.0175    0.9698 H   0  0  0  0  0  0  0  0  0  0  0  0
   -1.3031    0.6145   -0.6733 H   0  0  0  0  0  0  0  0  0  0  0  0
   -0.2125   -1.0942    0.7718 H   0  0  0  0  0  0  0  0  0  0  0  0
    0.8211    0.0017    0.2916 H   0  0  0  0  0  0  0  0  0  0  0  0
   -0.0001   -1.5028   -0.9289 H   0  0  0  0  0  0  0  0  0  0  0  0
  1  2  1  0  0  0  0
  1  3  1  0  0  0  0
  1  5  1  0  0  0  0
  2  8  1  0  0  0  0
  4  1  1  0  0  0  0
  6  2  1  0  0  0  0
  6 10  1  0  0  0  0
  7  2  1  0  0  0  0
  9  6  1  0  0  0  0
  9 13  1  0  0  0  0
  9 12  1  0  0  0  0
 11  6  1  0  0  0  0
 14  9  1  0  0  0  0
M  END
$$$$
