14
butane_opt
C  -3.982521   0.221906  -0.057684
C  -2.703694  -0.590922   0.123099
H  -4.963668  -0.464518  -0.164892
H  -3.891032   0.938347  -1.000247
H  -4.016798   0.934571   0.864354
C  -1.385372   0.238492   0.072907
H  -2.597414  -1.231272  -0.730252
H  -2.914610  -1.276422   1.107082
C  -0.128961  -0.729498  -0.053495
H  -1.319823   1.133313   1.139700
H  -1.615682   0.759262  -0.659942
H   0.069003  -1.478999   0.927909
H   0.701100  -0.195420  -0.208843
H  -0.046505  -1.290956  -0.840637
