butane_opt
 OpenBabel08242015383D

 14 13  0  0  0  0  0  0  0  0999 V2000
   -3.9451    0.2782   -0.0624 C   0  0  0  0  0  0  0  0  0  0  0  0
   -2.6867   -0.6557    0.0915 C   0  0  0  0  0  0  0  0  0  0  0  0
   -4.7275   -0.0957   -0.0335 H   0  0  0  0  0  0  0  0  0  0  0  0
   -3.9521    0.8833   -0.9816 H   0  0  0  0  0  0  0  0  0  0  0  0
   -4.3212    0.8954    0.6765 H   0  0  0  0  0  0  0  0  0  0  0  0
   -1.3913    0.1603    0.1322 C   0  0  0  0  0  0  0  0  0  0  0  0
   -2.6247   -1.1959   -0.6890 H   0  0  0  0  0  0  0  0  0  0  0  0
   -2.5848   -1.3957    1.0038 H   0  0  0  0  0  0  0  0  0  0  0  0
   -0.1939   -0.6642   -0.0656 C   0  0  0  0  0  0  0  0  0  0  0  0
   -1.2939    1.0336    1.0985 H   0  0  0  0  0  0  0  0  0  0  0  0
   -1.4158    0.5933   -0.5590 H   0  0  0  0  0  0  0  0  0  0  0  0
    0.0490   -1.5209    0.9511 H   0  0  0  0  0  0  0  0  0  0  0  0
    0.7892    0.0358   -0.4105 H   0  0  0  0  0  0  0  0  0  0  0  0
   -0.3497   -1.1063   -0.7421 H   0  0  0  0  0  0  0  0  0  0  0  0
  1  3  1  0  0  0  0
  1  2  1  0  0  0  0
  1  5  1  0  0  0  0
  2  6  1  0  0  0  0
  2  8  1  0  0  0  0
  4  1  1  0  0  0  0
  6 10  1  0  0  0  0
  7  2  1  0  0  0  0
  9  6  1  0  0  0  0
  9 12  1  0  0  0  0
 11  6  1  0  0  0  0
 13  9  1  0  0  0  0
 14  9  1  0  0  0  0
M  END
$$$$
