14
butane_opt
C  -3.953541   0.265043  -0.023651
C  -2.700070  -0.584918   0.054779
H  -4.840722  -0.420813  -0.038175
H  -3.754693   0.907010  -0.990043
H  -3.857181   0.847539   0.783714
C  -1.414917   0.182373   0.110159
H  -2.554719  -1.354280  -0.874550
H  -2.610246  -1.324726   1.062709
C  -0.181858  -0.701418   0.002025
H  -1.364088   0.816935   0.951585
H  -1.437440   0.864080  -0.803095
H   0.026776  -1.378671   0.843830
H   0.741163  -0.084972  -0.367354
H  -0.370931  -1.256207  -0.849592
