14
butane_opt
C  -3.999568   0.330941  -0.020647
C  -2.708354  -0.687646   0.086923
H  -4.770368  -0.231649   0.272771
H  -4.150060   1.157101  -0.980200
H  -3.911266   0.596783   0.637863
C  -1.377830   0.165946   0.015376
H  -2.602039  -1.332398  -0.759211
H  -2.767301  -1.338950   0.957299
C  -0.165983  -0.670329  -0.011734
H  -1.142405   1.017524   0.969767
H  -1.303147   0.614454  -0.673312
H  -0.212459  -1.094202   0.771846
H   0.821138   0.001702   0.291573
H  -0.000114  -1.502750  -0.928941
