14
butane_opt
C  -3.938506   0.316032  -0.010693
C  -2.705684  -0.626982   0.049794
H  -4.967883  -0.353613   0.004528
H  -4.003448   0.922085  -0.995273
H  -3.894776   0.751162   0.663926
C  -1.378246   0.154045   0.115896
H  -2.555978  -1.399797  -0.772208
H  -2.850547  -1.207006   0.870594
C  -0.169610  -0.682024  -0.022768
H  -1.312516   0.780383   0.933011
H  -1.504675   0.731060  -0.732718
H  -0.014341  -1.469910   0.996343
H   0.735230  -0.015988  -0.294351
H  -0.368770  -1.127796  -0.799954
