14
butane_opt
C  -3.932762   0.271119  -0.014680
C  -2.693654  -0.622248   0.055220
H  -4.864244  -0.330931   0.027278
H  -3.961464   0.903946  -0.898239
H  -4.001575   0.947335   0.837027
C  -1.396248   0.173456   0.051462
H  -2.714624  -1.263703  -0.771605
H  -2.694243  -1.282083   0.946916
C  -0.179671  -0.685695   0.007608
H  -1.370318   0.904232   0.933279
H  -1.390822   0.764932  -0.806135
H  -0.046364  -1.349327   0.934167
H   0.716766  -0.121167  -0.139383
H  -0.264542  -1.286616  -0.814120
