butane_opt
 OpenBabel08242015383D

 14 12  0  0  0  0  0  0  0  0999 V2000
   -3.9858    0.2841    0.0119 C   0  0  0  0  0  0  0  0  0  0  0  0
   -2.6691   -0.6336   -0.0148 C   0  0  0  0  0  0  0  0  0  0  0  0
   -4.8355   -0.1966   -0.0035 H   0  0  0  0  0  0  0  0  0  0  0  0
   -4.1074    0.6986   -0.6848 H   0  0  0  0  0  0  0  0  0  0  0  0
   -4.0510    1.1953    1.1254 H   0  0  0  0  0  0  0  0  0  0  0  0
   -1.3995    0.1290    0.0286 C   0  0  0  0  0  0  0  0  0  0  0  0
   -2.6497   -1.3037   -0.8267 H   0  0  0  0  0  0  0  0  0  0  0  0
   -2.7351   -1.2757    0.8148 H   0  0  0  0  0  0  0  0  0  0  0  0
   -0.1544   -0.6804    0.0485 C   0  0  0  0  0  0  0  0  0  0  0  0
   -1.3221    0.7757    0.8413 H   0  0  0  0  0  0  0  0  0  0  0  0
   -1.3493    0.7361   -0.8653 H   0  0  0  0  0  0  0  0  0  0  0  0
   -0.0430   -1.4967    1.1090 H   0  0  0  0  0  0  0  0  0  0  0  0
    0.8377    0.0798   -0.3979 H   0  0  0  0  0  0  0  0  0  0  0  0
   -0.2739   -0.8400   -0.4976 H   0  0  0  0  0  0  0  0  0  0  0  0
  1  5  1  0  0  0  0
  2  1  1  0  0  0  0
  2  6  1  0  0  0  0
  2  8  1  0  0  0  0
  3  1  1  0  0  0  0
  4  1  1  0  0  0  0
  6  9  1  0  0  0  0
  6 10  1  0  0  0  0
  7  2  1  0  0  0  0
  9 12  1  0  0  0  0
 11  6  1  0  0  0  0
 13  9  1  0  0  0  0
M  RAD  2   9   2  14   2
M  END
$$$$
