14
butane_opt
C  -3.960724   0.278918  -0.083104
C  -2.711433  -0.634688   0.182919
H  -4.844023  -0.271174  -0.453173
H  -3.971897   0.770507  -0.907374
H  -4.295006   1.148484   0.819590
C  -1.369098   0.159756   0.083471
H  -2.642326  -1.106254  -0.534689
H  -2.729468  -1.426257   1.161694
C  -0.145280  -0.686475  -0.064087
H  -1.356831   0.948125   0.962299
H  -1.334808   0.624972  -0.666706
H  -0.057437  -1.172711   0.689604
H   0.815154  -0.050558  -0.165326
H  -0.341235  -1.352390  -0.907774
