14
butane_opt
C  -3.943231   0.285721   0.087238
C  -2.679520  -0.608360  -0.092002
H  -4.920583  -0.314507   0.571948
H  -4.260780   1.000796  -0.887173
H  -3.657335   0.631897   0.835155
C  -1.431830   0.162490  -0.053295
H  -2.615210  -1.335059  -1.002511
H  -2.730251  -1.322888   0.800306
C  -0.171747  -0.683984   0.109764
H  -1.469522   0.958058   0.865818
H  -1.257803   0.730900  -0.866276
H  -0.071965  -1.322191   1.021041
H   0.855028  -0.045312   0.137154
H  -0.193459  -1.296190  -0.656287
