14
butane_opt
C  -3.944566   0.263904   0.005233
C  -2.714585  -0.622692   0.060960
H  -4.842238  -0.304993   0.052247
H  -3.960007   0.908749  -0.939545
H  -3.988646   0.857801   0.815044
C  -1.400189   0.201181   0.015149
H  -2.701121  -1.222377  -0.755572
H  -2.755687  -1.332616   1.024590
C  -0.143803  -0.700298   0.013397
H  -1.408133   0.909970   0.900196
H  -1.389701   0.823933  -0.861004
H  -0.153268  -1.189305   0.832335
H   0.724212  -0.125285   0.176918
H  -0.108171  -1.512426  -0.959216
