butane_opt
 OpenBabel08242015383D

 14 13  0  0  0  0  0  0  0  0999 V2000
   -3.9569    0.2675   -0.1028 C   0  0  0  0  0  0  0  0  0  0  0  0
   -2.6733   -0.6263    0.1547 C   0  0  0  0  0  0  0  0  0  0  0  0
   -4.8156   -0.2341   -0.0891 H   0  0  0  0  0  0  0  0  0  0  0  0
   -3.7860    1.0438   -1.1211 H   0  0  0  0  0  0  0  0  0  0  0  0
   -4.0751    0.8593    0.6273 H   0  0  0  0  0  0  0  0  0  0  0  0
   -1.3961    0.1561    0.1903 C   0  0  0  0  0  0  0  0  0  0  0  0
   -2.6207   -1.4032   -0.7062 H   0  0  0  0  0  0  0  0  0  0  0  0
   -2.7159   -1.1777    0.9620 H   0  0  0  0  0  0  0  0  0  0  0  0
   -0.1717   -0.6832   -0.0888 C   0  0  0  0  0  0  0  0  0  0  0  0
   -1.3223    0.8741    1.0910 H   0  0  0  0  0  0  0  0  0  0  0  0
   -1.7033    0.7063   -0.5903 H   0  0  0  0  0  0  0  0  0  0  0  0
   -0.0700   -1.3895    0.8295 H   0  0  0  0  0  0  0  0  0  0  0  0
    0.8539   -0.0431   -0.5248 H   0  0  0  0  0  0  0  0  0  0  0  0
   -0.4096   -1.0415   -0.8708 H   0  0  0  0  0  0  0  0  0  0  0  0
  1  3  1  0  0  0  0
  1  2  1  0  0  0  0
  1  5  1  0  0  0  0
  2  6  1  0  0  0  0
  2  8  1  0  0  0  0
  4  1  1  0  0  0  0
  6 10  1  0  0  0  0
  7  2  1  0  0  0  0
  9  6  1  0  0  0  0
  9 12  1  0  0  0  0
 11  6  1  0  0  0  0
 13  9  1  0  0  0  0
 14  9  1  0  0  0  0
M  END
$$$$
