butane_opt
 OpenBabel08242015383D

 14 13  0  0  0  0  0  0  0  0999 V2000
   -3.8802    0.2337   -0.0987 C   0  0  0  0  0  0  0  0  0  0  0  0
   -2.7429   -0.5454    0.1825 C   0  0  0  0  0  0  0  0  0  0  0  0
   -4.8418   -0.4110   -0.3842 H   0  0  0  0  0  0  0  0  0  0  0  0
   -3.6363    0.5440   -0.8540 H   0  0  0  0  0  0  0  0  0  0  0  0
   -4.1931    1.0598    0.7930 H   0  0  0  0  0  0  0  0  0  0  0  0
   -1.4257    0.1986    0.0945 C   0  0  0  0  0  0  0  0  0  0  0  0
   -2.6591   -1.0620   -0.5523 H   0  0  0  0  0  0  0  0  0  0  0  0
   -2.8814   -1.4276    1.2624 H   0  0  0  0  0  0  0  0  0  0  0  0
   -0.1577   -0.7285   -0.0604 C   0  0  0  0  0  0  0  0  0  0  0  0
   -1.3429    1.0403    0.9798 H   0  0  0  0  0  0  0  0  0  0  0  0
   -1.6098    0.7999   -0.7255 H   0  0  0  0  0  0  0  0  0  0  0  0
    0.1226   -1.2347    0.7522 H   0  0  0  0  0  0  0  0  0  0  0  0
    0.7819   -0.1907   -0.1961 H   0  0  0  0  0  0  0  0  0  0  0  0
   -0.2765   -1.5151   -1.0223 H   0  0  0  0  0  0  0  0  0  0  0  0
  1  2  1  0  0  0  0
  1  5  1  0  0  0  0
  2  8  1  0  0  0  0
  3  1  1  0  0  0  0
  4  1  1  0  0  0  0
  6  2  1  0  0  0  0
  6 10  1  0  0  0  0
  7  2  1  0  0  0  0
  9  6  1  0  0  0  0
  9 12  1  0  0  0  0
 11  6  1  0  0  0  0
 13  9  1  0  0  0  0
 14  9  1  0  0  0  0
M  END
$$$$
