butane_opt
 OpenBabel08242015383D

 14 13  0  0  0  0  0  0  0  0999 V2000
   -3.9184    0.2958    0.1351 C   0  0  0  0  0  0  0  0  0  0  0  0
   -2.6808   -0.6443   -0.1228 C   0  0  0  0  0  0  0  0  0  0  0  0
   -4.7985   -0.2604    0.5353 H   0  0  0  0  0  0  0  0  0  0  0  0
   -4.1025    1.0832   -0.8886 H   0  0  0  0  0  0  0  0  0  0  0  0
   -3.8158    0.8067    0.8811 H   0  0  0  0  0  0  0  0  0  0  0  0
   -1.4241    0.1357   -0.0683 C   0  0  0  0  0  0  0  0  0  0  0  0
   -2.8831   -1.4712   -1.1640 H   0  0  0  0  0  0  0  0  0  0  0  0
   -2.4498   -1.1408    0.6811 H   0  0  0  0  0  0  0  0  0  0  0  0
   -0.2005   -0.6475    0.1395 C   0  0  0  0  0  0  0  0  0  0  0  0
   -1.3355    0.8318    0.7456 H   0  0  0  0  0  0  0  0  0  0  0  0
   -1.1829    0.7725   -0.9912 H   0  0  0  0  0  0  0  0  0  0  0  0
   -0.3036   -1.4853    1.2744 H   0  0  0  0  0  0  0  0  0  0  0  0
    0.6822   -0.0599    0.0678 H   0  0  0  0  0  0  0  0  0  0  0  0
   -0.1571   -1.2237   -0.7020 H   0  0  0  0  0  0  0  0  0  0  0  0
  1  3  1  0  0  0  0
  1  5  1  0  0  0  0
  2  6  1  0  0  0  0
  2  1  1  0  0  0  0
  2  8  1  0  0  0  0
  4  1  1  0  0  0  0
  6  9  1  0  0  0  0
  6 10  1  0  0  0  0
  7  2  1  0  0  0  0
  9 12  1  0  0  0  0
 11  6  1  0  0  0  0
 13  9  1  0  0  0  0
 14  9  1  0  0  0  0
M  END
$$$$
