butane_opt
 OpenBabel08242015383D

 14 13  0  0  0  0  0  0  0  0999 V2000
   -3.9019    0.2649   -0.0768 C   0  0  0  0  0  0  0  0  0  0  0  0
   -2.7149   -0.5947    0.1535 C   0  0  0  0  0  0  0  0  0  0  0  0
   -4.8411   -0.4297   -0.1164 H   0  0  0  0  0  0  0  0  0  0  0  0
   -3.7422    0.9219   -1.1023 H   0  0  0  0  0  0  0  0  0  0  0  0
   -3.9773    0.7771    0.6791 H   0  0  0  0  0  0  0  0  0  0  0  0
   -1.4358    0.2162    0.0993 C   0  0  0  0  0  0  0  0  0  0  0  0
   -2.6621   -1.2809   -0.7015 H   0  0  0  0  0  0  0  0  0  0  0  0
   -2.7386   -1.3522    1.1476 H   0  0  0  0  0  0  0  0  0  0  0  0
   -0.1755   -0.7134   -0.0802 C   0  0  0  0  0  0  0  0  0  0  0  0
   -1.3178    1.1197    1.1384 H   0  0  0  0  0  0  0  0  0  0  0  0
   -1.3287    0.6015   -0.5514 H   0  0  0  0  0  0  0  0  0  0  0  0
    0.0321   -1.3665    0.8846 H   0  0  0  0  0  0  0  0  0  0  0  0
    0.6496   -0.2343   -0.1772 H   0  0  0  0  0  0  0  0  0  0  0  0
   -0.3425   -1.3100   -0.9261 H   0  0  0  0  0  0  0  0  0  0  0  0
  1  2  1  0  0  0  0
  1  5  1  0  0  0  0
  2  8  1  0  0  0  0
  3  1  1  0  0  0  0
  4  1  1  0  0  0  0
  6  2  1  0  0  0  0
  6 10  1  0  0  0  0
  7  2  1  0  0  0  0
  9  6  1  0  0  0  0
  9 12  1  0  0  0  0
 11  6  1  0  0  0  0
 13  9  1  0  0  0  0
 14  9  1  0  0  0  0
M  END
$$$$
