14
butane_opt
C  -3.964606   0.235013   0.094736
C  -2.721918  -0.620490  -0.040628
H  -4.788897  -0.248133  -0.207349
H  -3.830116   0.388787  -0.499329
H  -4.045523   1.353882   1.208560
C  -1.399202   0.247146  -0.107431
H  -2.755311  -1.200501  -0.859879
H  -2.572692  -1.295912   0.871874
C  -0.140082  -0.721900   0.134911
H  -1.438016   0.843305   0.670706
H  -1.438087   0.874307  -1.082553
H  -0.103322  -1.491714   1.156694
H   0.773759  -0.170818  -0.084887
H  -0.115367  -1.207670  -0.638108
