14
butane_opt
C  -3.978304   0.284446   0.060764
C  -2.718841  -0.652108  -0.033466
H  -4.821682  -0.272471   0.068995
H  -4.183572   0.926488  -0.719279
H  -4.056879   1.070411   0.973844
C  -1.400714   0.135110  -0.025051
H  -2.718278  -1.327331  -0.912490
H  -2.599992  -1.153885   0.711557
C  -0.118523  -0.662713   0.076669
H  -1.462312   0.936719   0.955457
H  -1.215890   0.662167  -0.871493
H  -0.131149  -1.593649   1.220863
H   0.890733   0.030770  -0.382892
H  -0.143316  -0.989784  -0.542435
