14
butane_opt
C  -3.919569   0.230738   0.017087
C  -2.680385  -0.590301  -0.003572
H  -4.813624  -0.373501   0.159391
H  -3.847837   0.943774  -0.993316
H  -3.870013   0.761205   0.775917
C  -1.441753   0.238465   0.049609
H  -2.742446  -1.214419  -0.840445
H  -2.683861  -1.296573   0.976245
C  -0.181890  -0.730345   0.027836
H  -1.332507   1.049481   0.995459
H  -1.439163   0.824758  -0.708338
H  -0.069876  -1.473835   1.084638
H   0.733360  -0.131812  -0.272666
H  -0.260647  -1.355134  -0.838709
