14
butane_opt
C  -3.988044   0.232461  -0.026506
C  -2.741743  -0.581212   0.058025
H  -4.921143  -0.384036   0.201797
H  -3.990245   1.017168  -1.084389
H  -3.805100   0.888573   0.826734
C  -1.377673   0.219500   0.051602
H  -2.650381  -1.071605  -0.693263
H  -2.834512  -1.428296   1.142716
C  -0.120080  -0.725317  -0.002509
H  -1.255989   0.919489   0.960942
H  -1.437412   0.851419  -0.785004
H  -0.209121  -1.153296   0.702354
H   0.804475  -0.158549   0.168976
H   0.024581  -1.702038  -1.002828
