butane_opt
 OpenBabel08242015383D

 14 13  0  0  0  0  0  0  0  0999 V2000
   -3.9486    0.2748    0.0031 C   0  0  0  0  0  0  0  0  0  0  0  0
   -2.6895   -0.6259    0.0531 C   0  0  0  0  0  0  0  0  0  0  0  0
   -4.8485   -0.2754   -0.0226 H   0  0  0  0  0  0  0  0  0  0  0  0
   -3.9506    0.8801   -0.8854 H   0  0  0  0  0  0  0  0  0  0  0  0
   -3.9632    0.9604    0.8751 H   0  0  0  0  0  0  0  0  0  0  0  0
   -1.3941    0.1722    0.0288 C   0  0  0  0  0  0  0  0  0  0  0  0
   -2.6855   -1.2964   -0.8003 H   0  0  0  0  0  0  0  0  0  0  0  0
   -2.7538   -1.2545    0.9517 H   0  0  0  0  0  0  0  0  0  0  0  0
   -0.1718   -0.6900    0.0099 C   0  0  0  0  0  0  0  0  0  0  0  0
   -1.3775    0.8503    0.9118 H   0  0  0  0  0  0  0  0  0  0  0  0
   -1.4090    0.7550   -0.8202 H   0  0  0  0  0  0  0  0  0  0  0  0
   -0.1666   -1.3372    0.9489 H   0  0  0  0  0  0  0  0  0  0  0  0
    0.7836   -0.0526   -0.0655 H   0  0  0  0  0  0  0  0  0  0  0  0
   -0.2103   -1.2632   -0.7862 H   0  0  0  0  0  0  0  0  0  0  0  0
  1  2  1  0  0  0  0
  1  5  1  0  0  0  0
  2  8  1  0  0  0  0
  3  1  1  0  0  0  0
  4  1  1  0  0  0  0
  6  2  1  0  0  0  0
  6 10  1  0  0  0  0
  7  2  1  0  0  0  0
  9  6  1  0  0  0  0
  9 12  1  0  0  0  0
 11  6  1  0  0  0  0
 13  9  1  0  0  0  0
 14  9  1  0  0  0  0
M  END
$$$$
