butane_opt
 OpenBabel08242015383D

 14 13  0  0  0  0  0  0  0  0999 V2000
   -3.9555    0.2340    0.0684 C   0  0  0  0  0  0  0  0  0  0  0  0
   -2.7428   -0.5714    0.0229 C   0  0  0  0  0  0  0  0  0  0  0  0
   -4.8841   -0.4753    0.1670 H   0  0  0  0  0  0  0  0  0  0  0  0
   -4.0305    0.9842   -0.8929 H   0  0  0  0  0  0  0  0  0  0  0  0
   -3.7733    0.8779    0.9477 H   0  0  0  0  0  0  0  0  0  0  0  0
   -1.4137    0.2101   -0.0658 C   0  0  0  0  0  0  0  0  0  0  0  0
   -2.8575   -1.4318   -0.9899 H   0  0  0  0  0  0  0  0  0  0  0  0
   -2.6350   -1.0977    0.7267 H   0  0  0  0  0  0  0  0  0  0  0  0
   -0.1173   -0.7176    0.0799 C   0  0  0  0  0  0  0  0  0  0  0  0
   -1.3900    0.8426    0.7459 H   0  0  0  0  0  0  0  0  0  0  0  0
   -1.3544    0.9518   -1.0168 H   0  0  0  0  0  0  0  0  0  0  0  0
   -0.2146   -1.2560    0.9585 H   0  0  0  0  0  0  0  0  0  0  0  0
    0.7117   -0.2221    0.2807 H   0  0  0  0  0  0  0  0  0  0  0  0
    0.1662   -1.5149   -0.7779 H   0  0  0  0  0  0  0  0  0  0  0  0
  1  3  1  0  0  0  0
  1  5  1  0  0  0  0
  2  1  1  0  0  0  0
  2  8  1  0  0  0  0
  4  1  1  0  0  0  0
  6  2  1  0  0  0  0
  6  9  1  0  0  0  0
  6 10  1  0  0  0  0
  7  2  1  0  0  0  0
  9 13  1  0  0  0  0
  9 12  1  0  0  0  0
 11  6  1  0  0  0  0
 14  9  1  0  0  0  0
M  END
$$$$
