butane_opt
 OpenBabel08242015383D

 14 13  0  0  0  0  0  0  0  0999 V2000
   -3.9477    0.2704    0.0539 C   0  0  0  0  0  0  0  0  0  0  0  0
   -2.6913   -0.6235    0.0105 C   0  0  0  0  0  0  0  0  0  0  0  0
   -4.8557   -0.3115    0.0581 H   0  0  0  0  0  0  0  0  0  0  0  0
   -4.0074    0.9107   -0.8579 H   0  0  0  0  0  0  0  0  0  0  0  0
   -3.9444    0.9452    0.8990 H   0  0  0  0  0  0  0  0  0  0  0  0
   -1.3969    0.1694   -0.0312 C   0  0  0  0  0  0  0  0  0  0  0  0
   -2.7237   -1.2778   -0.8340 H   0  0  0  0  0  0  0  0  0  0  0  0
   -2.6872   -1.2921    0.9081 H   0  0  0  0  0  0  0  0  0  0  0  0
   -0.1615   -0.6877    0.0576 C   0  0  0  0  0  0  0  0  0  0  0  0
   -1.4389    0.8882    0.8371 H   0  0  0  0  0  0  0  0  0  0  0  0
   -1.3726    0.8251   -0.9371 H   0  0  0  0  0  0  0  0  0  0  0  0
   -0.2582   -1.2421    0.9475 H   0  0  0  0  0  0  0  0  0  0  0  0
    0.7662   -0.0804    0.1565 H   0  0  0  0  0  0  0  0  0  0  0  0
   -0.1302   -1.3851   -0.8336 H   0  0  0  0  0  0  0  0  0  0  0  0
  1  3  1  0  0  0  0
  1  5  1  0  0  0  0
  2  1  1  0  0  0  0
  2  8  1  0  0  0  0
  4  1  1  0  0  0  0
  6  2  1  0  0  0  0
  6  9  1  0  0  0  0
  6 10  1  0  0  0  0
  7  2  1  0  0  0  0
  9 13  1  0  0  0  0
  9 12  1  0  0  0  0
 11  6  1  0  0  0  0
 14  9  1  0  0  0  0
M  END
$$$$
