butane_opt
 OpenBabel08242015383D

 14 13  0  0  0  0  0  0  0  0999 V2000
   -3.9410    0.2685   -0.0856 C   0  0  0  0  0  0  0  0  0  0  0  0
   -2.6874   -0.6142    0.1485 C   0  0  0  0  0  0  0  0  0  0  0  0
   -4.8649   -0.4252   -0.1611 H   0  0  0  0  0  0  0  0  0  0  0  0
   -3.9094    0.8840   -0.9868 H   0  0  0  0  0  0  0  0  0  0  0  0
   -4.0329    0.7356    0.5589 H   0  0  0  0  0  0  0  0  0  0  0  0
   -1.4317    0.2181    0.1500 C   0  0  0  0  0  0  0  0  0  0  0  0
   -2.6254   -1.2522   -0.7174 H   0  0  0  0  0  0  0  0  0  0  0  0
   -2.8395   -1.3247    1.0921 H   0  0  0  0  0  0  0  0  0  0  0  0
   -0.1467   -0.6973   -0.0917 C   0  0  0  0  0  0  0  0  0  0  0  0
   -1.2195    1.0210    1.1706 H   0  0  0  0  0  0  0  0  0  0  0  0
   -1.5967    0.7168   -0.6451 H   0  0  0  0  0  0  0  0  0  0  0  0
    0.0623   -1.4919    0.8753 H   0  0  0  0  0  0  0  0  0  0  0  0
    0.7235   -0.1766   -0.2575 H   0  0  0  0  0  0  0  0  0  0  0  0
   -0.2428   -1.2614   -0.9330 H   0  0  0  0  0  0  0  0  0  0  0  0
  1  2  1  0  0  0  0
  1  5  1  0  0  0  0
  2  6  1  0  0  0  0
  2  8  1  0  0  0  0
  3  1  1  0  0  0  0
  4  1  1  0  0  0  0
  6 10  1  0  0  0  0
  7  2  1  0  0  0  0
  9  6  1  0  0  0  0
  9 12  1  0  0  0  0
 11  6  1  0  0  0  0
 13  9  1  0  0  0  0
 14  9  1  0  0  0  0
M  END
$$$$
