butane_opt
 OpenBabel08242015383D

 14 13  0  0  0  0  0  0  0  0999 V2000
   -3.9196    0.2571    0.1058 C   0  0  0  0  0  0  0  0  0  0  0  0
   -2.6915   -0.5764   -0.0551 C   0  0  0  0  0  0  0  0  0  0  0  0
   -4.9626   -0.4616    0.1138 H   0  0  0  0  0  0  0  0  0  0  0  0
   -3.8966    0.7289   -0.6459 H   0  0  0  0  0  0  0  0  0  0  0  0
   -3.6907    1.0496    1.0476 H   0  0  0  0  0  0  0  0  0  0  0  0
   -1.4200    0.2048   -0.1133 C   0  0  0  0  0  0  0  0  0  0  0  0
   -2.8815   -1.1818   -0.8374 H   0  0  0  0  0  0  0  0  0  0  0  0
   -2.6329   -1.3872    0.9215 H   0  0  0  0  0  0  0  0  0  0  0  0
   -0.1838   -0.7203    0.1367 C   0  0  0  0  0  0  0  0  0  0  0  0
   -1.5319    0.7629    0.5966 H   0  0  0  0  0  0  0  0  0  0  0  0
   -1.3171    0.8414   -1.0821 H   0  0  0  0  0  0  0  0  0  0  0  0
   -0.4093   -1.1338    0.8956 H   0  0  0  0  0  0  0  0  0  0  0  0
    0.7413   -0.1267    0.3529 H   0  0  0  0  0  0  0  0  0  0  0  0
    0.1333   -1.5528   -0.8353 H   0  0  0  0  0  0  0  0  0  0  0  0
  1  3  1  0  0  0  0
  1  5  1  0  0  0  0
  2  1  1  0  0  0  0
  2  8  1  0  0  0  0
  4  1  1  0  0  0  0
  6  2  1  0  0  0  0
  6  9  1  0  0  0  0
  6 10  1  0  0  0  0
  7  2  1  0  0  0  0
  9 13  1  0  0  0  0
  9 12  1  0  0  0  0
 11  6  1  0  0  0  0
 14  9  1  0  0  0  0
M  END
$$$$
