butane_opt
 OpenBabel08242015383D

 14 13  0  0  0  0  0  0  0  0999 V2000
   -3.9286    0.2640   -0.1009 C   0  0  0  0  0  0  0  0  0  0  0  0
   -2.6632   -0.6125    0.1849 C   0  0  0  0  0  0  0  0  0  0  0  0
   -4.8059   -0.3215   -0.3250 H   0  0  0  0  0  0  0  0  0  0  0  0
   -3.8036    0.7469   -0.9063 H   0  0  0  0  0  0  0  0  0  0  0  0
   -4.1889    1.1360    0.8101 H   0  0  0  0  0  0  0  0  0  0  0  0
   -1.4237    0.1471    0.1374 C   0  0  0  0  0  0  0  0  0  0  0  0
   -2.5075   -1.1533   -0.4819 H   0  0  0  0  0  0  0  0  0  0  0  0
   -2.8719   -1.2375    1.0935 H   0  0  0  0  0  0  0  0  0  0  0  0
   -0.1808   -0.6776   -0.0935 C   0  0  0  0  0  0  0  0  0  0  0  0
   -1.3302    0.7647    0.9357 H   0  0  0  0  0  0  0  0  0  0  0  0
   -1.4176    0.8290   -0.8344 H   0  0  0  0  0  0  0  0  0  0  0  0
   -0.1818   -1.2693    0.7472 H   0  0  0  0  0  0  0  0  0  0  0  0
    0.8651   -0.0379   -0.0582 H   0  0  0  0  0  0  0  0  0  0  0  0
   -0.4191   -1.3848   -1.0471 H   0  0  0  0  0  0  0  0  0  0  0  0
  1  2  1  0  0  0  0
  1  5  1  0  0  0  0
  2  8  1  0  0  0  0
  3  1  1  0  0  0  0
  4  1  1  0  0  0  0
  6  2  1  0  0  0  0
  6 10  1  0  0  0  0
  7  2  1  0  0  0  0
  9 13  1  0  0  0  0
  9  6  1  0  0  0  0
  9 12  1  0  0  0  0
 11  6  1  0  0  0  0
 14  9  1  0  0  0  0
M  END
$$$$
