14
butane_opt
C  -3.932632   0.219358   0.103471
C  -2.726394  -0.582271  -0.058654
H  -4.749683  -0.342684   0.246395
H  -4.320944   0.796116  -0.664406
H  -3.777107   0.920390   0.962618
C  -1.429761   0.260995  -0.098431
H  -2.820885  -1.451883  -1.001791
H  -2.690974  -1.132066   0.734592
C  -0.118190  -0.740339   0.115844
H  -1.508016   0.838284   0.649741
H  -1.334252   0.831400  -0.983869
H  -0.162373  -1.383217   1.139963
H   0.725043  -0.175304   0.192755
H   0.118083  -1.259600  -0.580270
