14
butane_opt
C  -3.937355   0.223567  -0.033957
C  -2.753367  -0.560354   0.054373
H  -4.960975  -0.470473   0.445562
H  -4.067915   1.178947  -1.205307
H  -3.788090   0.705863   0.650884
C  -1.404340   0.219701   0.066640
H  -2.761634  -1.223218  -0.736842
H  -2.724196  -1.302378   1.056192
C  -0.133215  -0.723611  -0.000127
H  -1.480208   1.034588   1.089658
H  -1.321059   0.703056  -0.791136
H   0.133820  -1.191707   0.712995
H   0.714588  -0.189747   0.070582
H  -0.022871  -1.621960  -0.954101
