14
butane_opt
C  -3.941778   0.289502  -0.043717
C  -2.694595  -0.648559   0.088877
H  -4.809046  -0.244768  -0.066573
H  -3.917015   0.862389  -0.931106
H  -3.989723   0.884107   0.791194
C  -1.369244   0.172054   0.081540
H  -2.554159  -1.119693  -0.589742
H  -2.781184  -1.332118   1.038984
C  -0.193088  -0.681629  -0.029775
H  -1.352460   0.850668   1.052985
H  -1.448344   0.784613  -0.806630
H  -0.240062  -1.205299   0.797184
H   0.710316  -0.101187  -0.105607
H  -0.265092  -1.423725  -0.922887
