butane_opt
 OpenBabel08242015383D

 14 13  0  0  0  0  0  0  0  0999 V2000
   -3.9867    0.2700    0.0451 C   0  0  0  0  0  0  0  0  0  0  0  0
   -2.7217   -0.6275    0.0271 C   0  0  0  0  0  0  0  0  0  0  0  0
   -4.8847   -0.3033   -0.2487 H   0  0  0  0  0  0  0  0  0  0  0  0
   -3.7268    0.6317   -0.7373 H   0  0  0  0  0  0  0  0  0  0  0  0
   -4.1107    1.2208    1.0879 H   0  0  0  0  0  0  0  0  0  0  0  0
   -1.3820    0.2095   -0.0321 C   0  0  0  0  0  0  0  0  0  0  0  0
   -2.9000   -1.1491   -0.7956 H   0  0  0  0  0  0  0  0  0  0  0  0
   -2.8275   -1.3065    0.9981 H   0  0  0  0  0  0  0  0  0  0  0  0
   -0.1037   -0.7145    0.0727 C   0  0  0  0  0  0  0  0  0  0  0  0
   -1.3872    0.6594    0.6909 H   0  0  0  0  0  0  0  0  0  0  0  0
   -1.4487    0.8823   -0.9134 H   0  0  0  0  0  0  0  0  0  0  0  0
   -0.0975   -1.3214    0.9216 H   0  0  0  0  0  0  0  0  0  0  0  0
    0.8420   -0.0464    0.0143 H   0  0  0  0  0  0  0  0  0  0  0  0
   -0.1662   -1.3874   -0.8942 H   0  0  0  0  0  0  0  0  0  0  0  0
  1  5  1  0  0  0  0
  2  1  1  0  0  0  0
  2  8  1  0  0  0  0
  3  1  1  0  0  0  0
  4  1  1  0  0  0  0
  6  2  1  0  0  0  0
  6  9  1  0  0  0  0
  6 10  1  0  0  0  0
  7  2  1  0  0  0  0
  9 12  1  0  0  0  0
 11  6  1  0  0  0  0
 13  9  1  0  0  0  0
 14  9  1  0  0  0  0
M  END
$$$$
