butane_opt
 OpenBabel08242015383D

 14 13  0  0  0  0  0  0  0  0999 V2000
   -3.9568    0.2724   -0.0735 C   0  0  0  0  0  0  0  0  0  0  0  0
   -2.6619   -0.6242    0.1691 C   0  0  0  0  0  0  0  0  0  0  0  0
   -4.8456   -0.3528   -0.2829 H   0  0  0  0  0  0  0  0  0  0  0  0
   -3.7532    0.8077   -0.9587 H   0  0  0  0  0  0  0  0  0  0  0  0
   -4.0845    1.0874    0.8057 H   0  0  0  0  0  0  0  0  0  0  0  0
   -1.3966    0.1494    0.0777 C   0  0  0  0  0  0  0  0  0  0  0  0
   -2.5797   -1.1226   -0.5120 H   0  0  0  0  0  0  0  0  0  0  0  0
   -2.7341   -1.4002    1.1044 H   0  0  0  0  0  0  0  0  0  0  0  0
   -0.1900   -0.6801   -0.0579 C   0  0  0  0  0  0  0  0  0  0  0  0
   -1.5158    1.0112    0.9784 H   0  0  0  0  0  0  0  0  0  0  0  0
   -1.4768    0.7231   -0.8010 H   0  0  0  0  0  0  0  0  0  0  0  0
   -0.0914   -1.1577    0.7311 H   0  0  0  0  0  0  0  0  0  0  0  0
    0.8723    0.0104    0.0010 H   0  0  0  0  0  0  0  0  0  0  0  0
   -0.3709   -1.4787   -1.0110 H   0  0  0  0  0  0  0  0  0  0  0  0
  1  2  1  0  0  0  0
  1  5  1  0  0  0  0
  2  8  1  0  0  0  0
  3  1  1  0  0  0  0
  4  1  1  0  0  0  0
  6  2  1  0  0  0  0
  6 10  1  0  0  0  0
  7  2  1  0  0  0  0
  9 13  1  0  0  0  0
  9  6  1  0  0  0  0
  9 12  1  0  0  0  0
 11  6  1  0  0  0  0
 14  9  1  0  0  0  0
M  END
$$$$
