14
butane_opt
C  -3.919585   0.257105   0.105775
C  -2.691512  -0.576423  -0.055139
H  -4.962625  -0.461644   0.113802
H  -3.896630   0.728858  -0.645850
H  -3.690704   1.049592   1.047586
C  -1.420006   0.204810  -0.113293
H  -2.881499  -1.181842  -0.837390
H  -2.632866  -1.387199   0.921514
C  -0.183849  -0.720302   0.136665
H  -1.531880   0.762853   0.596642
H  -1.317069   0.841423  -1.082125
H  -0.409335  -1.133798   0.895585
H   0.741276  -0.126716   0.352913
H   0.133256  -1.552772  -0.835253
