butane_opt
 OpenBabel08242015383D

 14 13  0  0  0  0  0  0  0  0999 V2000
   -3.9196    0.2307    0.0171 C   0  0  0  0  0  0  0  0  0  0  0  0
   -2.6804   -0.5903   -0.0036 C   0  0  0  0  0  0  0  0  0  0  0  0
   -4.8136   -0.3735    0.1594 H   0  0  0  0  0  0  0  0  0  0  0  0
   -3.8478    0.9438   -0.9933 H   0  0  0  0  0  0  0  0  0  0  0  0
   -3.8700    0.7612    0.7759 H   0  0  0  0  0  0  0  0  0  0  0  0
   -1.4418    0.2385    0.0496 C   0  0  0  0  0  0  0  0  0  0  0  0
   -2.7424   -1.2144   -0.8404 H   0  0  0  0  0  0  0  0  0  0  0  0
   -2.6839   -1.2966    0.9762 H   0  0  0  0  0  0  0  0  0  0  0  0
   -0.1819   -0.7303    0.0278 C   0  0  0  0  0  0  0  0  0  0  0  0
   -1.3325    1.0495    0.9955 H   0  0  0  0  0  0  0  0  0  0  0  0
   -1.4392    0.8248   -0.7083 H   0  0  0  0  0  0  0  0  0  0  0  0
   -0.0699   -1.4738    1.0846 H   0  0  0  0  0  0  0  0  0  0  0  0
    0.7334   -0.1318   -0.2727 H   0  0  0  0  0  0  0  0  0  0  0  0
   -0.2606   -1.3551   -0.8387 H   0  0  0  0  0  0  0  0  0  0  0  0
  1  3  1  0  0  0  0
  1  5  1  0  0  0  0
  2  1  1  0  0  0  0
  2  6  1  0  0  0  0
  2  8  1  0  0  0  0
  4  1  1  0  0  0  0
  6 10  1  0  0  0  0
  7  2  1  0  0  0  0
  9  6  1  0  0  0  0
  9 12  1  0  0  0  0
 11  6  1  0  0  0  0
 13  9  1  0  0  0  0
 14  9  1  0  0  0  0
M  END
$$$$
