14
butane_opt
C  -3.912801   0.229897   0.082469
C  -2.682727  -0.596509  -0.070068
H  -4.834081  -0.292028   0.295730
H  -3.981024   0.871338  -0.768793
H  -3.876912   0.885054   0.951563
C  -1.447776   0.189406  -0.031693
H  -2.832164  -1.336686  -1.044726
H  -2.687093  -1.095416   0.773346
C  -0.146514  -0.692409   0.131244
H  -1.473156   0.882235   0.782715
H  -1.422051   0.969215  -1.092081
H  -0.023697  -1.477556   1.048869
H   0.666000  -0.140274  -0.134175
H  -0.274247  -1.320711  -0.687472
