14
butane_opt
C  -3.922971   0.281251  -0.080532
C  -2.661919  -0.637282   0.174743
H  -4.815482  -0.302547  -0.285388
H  -3.801311   0.710541  -0.816395
H  -4.209998   1.084690   0.806154
C  -1.404660   0.168996   0.100846
H  -2.472990  -1.278226  -0.624044
H  -2.660930  -1.326209   1.116461
C  -0.221075  -0.661909  -0.063885
H  -1.396713   0.660493   0.838704
H  -1.430399   0.830457  -0.894072
H  -0.195722  -1.047559   0.716027
H   0.697759  -0.120618  -0.028374
H  -0.207811  -1.494833  -0.967570
