butane_opt
 OpenBabel08242015383D

 14 13  0  0  0  0  0  0  0  0999 V2000
   -3.9128    0.2299    0.0825 C   0  0  0  0  0  0  0  0  0  0  0  0
   -2.6827   -0.5965   -0.0701 C   0  0  0  0  0  0  0  0  0  0  0  0
   -4.8341   -0.2920    0.2957 H   0  0  0  0  0  0  0  0  0  0  0  0
   -3.9810    0.8713   -0.7688 H   0  0  0  0  0  0  0  0  0  0  0  0
   -3.8769    0.8851    0.9516 H   0  0  0  0  0  0  0  0  0  0  0  0
   -1.4478    0.1894   -0.0317 C   0  0  0  0  0  0  0  0  0  0  0  0
   -2.8322   -1.3367   -1.0447 H   0  0  0  0  0  0  0  0  0  0  0  0
   -2.6871   -1.0954    0.7733 H   0  0  0  0  0  0  0  0  0  0  0  0
   -0.1465   -0.6924    0.1312 C   0  0  0  0  0  0  0  0  0  0  0  0
   -1.4732    0.8822    0.7827 H   0  0  0  0  0  0  0  0  0  0  0  0
   -1.4221    0.9692   -1.0921 H   0  0  0  0  0  0  0  0  0  0  0  0
   -0.0237   -1.4776    1.0489 H   0  0  0  0  0  0  0  0  0  0  0  0
    0.6660   -0.1403   -0.1342 H   0  0  0  0  0  0  0  0  0  0  0  0
   -0.2742   -1.3207   -0.6875 H   0  0  0  0  0  0  0  0  0  0  0  0
  1  3  1  0  0  0  0
  1  5  1  0  0  0  0
  2  6  1  0  0  0  0
  2  1  1  0  0  0  0
  2  8  1  0  0  0  0
  4  1  1  0  0  0  0
  6  9  1  0  0  0  0
  6 10  1  0  0  0  0
  7  2  1  0  0  0  0
  9 12  1  0  0  0  0
 11  6  1  0  0  0  0
 13  9  1  0  0  0  0
 14  9  1  0  0  0  0
M  END
$$$$
