14
butane_opt
C  -3.956865   0.267516  -0.102845
C  -2.673342  -0.626341   0.154651
H  -4.815569  -0.234104  -0.089097
H  -3.785994   1.043758  -1.121073
H  -4.075073   0.859305   0.627347
C  -1.396066   0.156112   0.190284
H  -2.620718  -1.403218  -0.706216
H  -2.715893  -1.177678   0.961978
C  -0.171716  -0.683190  -0.088824
H  -1.322327   0.874058   1.090992
H  -1.703293   0.706337  -0.590311
H  -0.069970  -1.389495   0.829504
H   0.853897  -0.043134  -0.524827
H  -0.409575  -1.041548  -0.870773
