butane_opt
 OpenBabel08242015383D

 14 12  0  0  0  0  0  0  0  0999 V2000
   -3.9622    0.2362    0.1006 C   0  0  0  0  0  0  0  0  0  0  0  0
   -2.7014   -0.5656   -0.0560 C   0  0  0  0  0  0  0  0  0  0  0  0
   -4.9844   -0.4895   -0.1659 H   0  0  0  0  0  0  0  0  0  0  0  0
   -3.8417    0.3850   -0.4858 H   0  0  0  0  0  0  0  0  0  0  0  0
   -4.0332    1.2129    1.1738 H   0  0  0  0  0  0  0  0  0  0  0  0
   -1.4262    0.2541   -0.1063 C   0  0  0  0  0  0  0  0  0  0  0  0
   -2.7649   -1.1636   -0.8606 H   0  0  0  0  0  0  0  0  0  0  0  0
   -2.6253   -1.3269    0.9368 H   0  0  0  0  0  0  0  0  0  0  0  0
   -0.1249   -0.7419    0.1336 C   0  0  0  0  0  0  0  0  0  0  0  0
   -1.3898    0.7134    0.6574 H   0  0  0  0  0  0  0  0  0  0  0  0
   -1.3670    0.8780   -1.0241 H   0  0  0  0  0  0  0  0  0  0  0  0
   -0.1075   -1.4668    1.0006 H   0  0  0  0  0  0  0  0  0  0  0  0
    0.7422   -0.1840    0.0390 H   0  0  0  0  0  0  0  0  0  0  0  0
   -0.0416   -1.2403   -0.6310 H   0  0  0  0  0  0  0  0  0  0  0  0
  1  5  1  0  0  0  0
  2  1  1  0  0  0  0
  2  8  1  0  0  0  0
  3  1  1  0  0  0  0
  6  2  1  0  0  0  0
  6  9  1  0  0  0  0
  6 10  1  0  0  0  0
  7  2  1  0  0  0  0
  9 12  1  0  0  0  0
 11  6  1  0  0  0  0
 13  9  1  0  0  0  0
 14  9  1  0  0  0  0
M  RAD  2   1   2   4   2
M  END
$$$$
