butane_opt
 OpenBabel08242015383D

 14 13  0  0  0  0  0  0  0  0999 V2000
   -3.9725    0.2388   -0.0891 C   0  0  0  0  0  0  0  0  0  0  0  0
   -2.7233   -0.5667    0.1452 C   0  0  0  0  0  0  0  0  0  0  0  0
   -4.9070   -0.4117   -0.1018 H   0  0  0  0  0  0  0  0  0  0  0  0
   -3.8273    0.8531   -0.9617 H   0  0  0  0  0  0  0  0  0  0  0  0
   -4.0310    0.8135    0.6631 H   0  0  0  0  0  0  0  0  0  0  0  0
   -1.4188    0.2090    0.1269 C   0  0  0  0  0  0  0  0  0  0  0  0
   -2.6128   -1.2161   -0.7166 H   0  0  0  0  0  0  0  0  0  0  0  0
   -2.8371   -1.2395    1.1603 H   0  0  0  0  0  0  0  0  0  0  0  0
   -0.1205   -0.7100   -0.0847 C   0  0  0  0  0  0  0  0  0  0  0  0
   -1.3021    1.0534    1.0685 H   0  0  0  0  0  0  0  0  0  0  0  0
   -1.4895    0.5273   -0.5715 H   0  0  0  0  0  0  0  0  0  0  0  0
    0.1534   -1.5099    0.8202 H   0  0  0  0  0  0  0  0  0  0  0  0
    0.7589   -0.2074   -0.2725 H   0  0  0  0  0  0  0  0  0  0  0  0
   -0.1054   -1.1822   -0.8080 H   0  0  0  0  0  0  0  0  0  0  0  0
  1  2  1  0  0  0  0
  1  5  1  0  0  0  0
  2  8  1  0  0  0  0
  3  1  1  0  0  0  0
  4  1  1  0  0  0  0
  6  2  1  0  0  0  0
  6 10  1  0  0  0  0
  7  2  1  0  0  0  0
  9  6  1  0  0  0  0
  9 12  1  0  0  0  0
 11  6  1  0  0  0  0
 13  9  1  0  0  0  0
 14  9  1  0  0  0  0
M  END
$$$$
