butane_opt
 OpenBabel08242015383D

 14 13  0  0  0  0  0  0  0  0999 V2000
   -3.9607    0.2789   -0.0831 C   0  0  0  0  0  0  0  0  0  0  0  0
   -2.7114   -0.6347    0.1829 C   0  0  0  0  0  0  0  0  0  0  0  0
   -4.8440   -0.2712   -0.4532 H   0  0  0  0  0  0  0  0  0  0  0  0
   -3.9719    0.7705   -0.9074 H   0  0  0  0  0  0  0  0  0  0  0  0
   -4.2950    1.1485    0.8196 H   0  0  0  0  0  0  0  0  0  0  0  0
   -1.3691    0.1598    0.0835 C   0  0  0  0  0  0  0  0  0  0  0  0
   -2.6423   -1.1063   -0.5347 H   0  0  0  0  0  0  0  0  0  0  0  0
   -2.7295   -1.4263    1.1617 H   0  0  0  0  0  0  0  0  0  0  0  0
   -0.1453   -0.6865   -0.0641 C   0  0  0  0  0  0  0  0  0  0  0  0
   -1.3568    0.9481    0.9623 H   0  0  0  0  0  0  0  0  0  0  0  0
   -1.3348    0.6250   -0.6667 H   0  0  0  0  0  0  0  0  0  0  0  0
   -0.0574   -1.1727    0.6896 H   0  0  0  0  0  0  0  0  0  0  0  0
    0.8152   -0.0506   -0.1653 H   0  0  0  0  0  0  0  0  0  0  0  0
   -0.3412   -1.3524   -0.9078 H   0  0  0  0  0  0  0  0  0  0  0  0
  1  2  1  0  0  0  0
  1  5  1  0  0  0  0
  2  8  1  0  0  0  0
  3  1  1  0  0  0  0
  4  1  1  0  0  0  0
  6  2  1  0  0  0  0
  6 10  1  0  0  0  0
  7  2  1  0  0  0  0
  9  6  1  0  0  0  0
  9 12  1  0  0  0  0
 11  6  1  0  0  0  0
 13  9  1  0  0  0  0
 14  9  1  0  0  0  0
M  END
$$$$
