butane_opt
 OpenBabel08242015383D

 14 13  0  0  0  0  0  0  0  0999 V2000
   -3.9326    0.2194    0.1035 C   0  0  0  0  0  0  0  0  0  0  0  0
   -2.7264   -0.5823   -0.0587 C   0  0  0  0  0  0  0  0  0  0  0  0
   -4.7497   -0.3427    0.2464 H   0  0  0  0  0  0  0  0  0  0  0  0
   -4.3209    0.7961   -0.6644 H   0  0  0  0  0  0  0  0  0  0  0  0
   -3.7771    0.9204    0.9626 H   0  0  0  0  0  0  0  0  0  0  0  0
   -1.4298    0.2610   -0.0984 C   0  0  0  0  0  0  0  0  0  0  0  0
   -2.8209   -1.4519   -1.0018 H   0  0  0  0  0  0  0  0  0  0  0  0
   -2.6910   -1.1321    0.7346 H   0  0  0  0  0  0  0  0  0  0  0  0
   -0.1182   -0.7403    0.1158 C   0  0  0  0  0  0  0  0  0  0  0  0
   -1.5080    0.8383    0.6497 H   0  0  0  0  0  0  0  0  0  0  0  0
   -1.3343    0.8314   -0.9839 H   0  0  0  0  0  0  0  0  0  0  0  0
   -0.1624   -1.3832    1.1400 H   0  0  0  0  0  0  0  0  0  0  0  0
    0.7250   -0.1753    0.1928 H   0  0  0  0  0  0  0  0  0  0  0  0
    0.1181   -1.2596   -0.5803 H   0  0  0  0  0  0  0  0  0  0  0  0
  1  3  1  0  0  0  0
  1  5  1  0  0  0  0
  2  1  1  0  0  0  0
  2  8  1  0  0  0  0
  4  1  1  0  0  0  0
  6  2  1  0  0  0  0
  6  9  1  0  0  0  0
  6 10  1  0  0  0  0
  7  2  1  0  0  0  0
  9 13  1  0  0  0  0
  9 12  1  0  0  0  0
 11  6  1  0  0  0  0
 14  9  1  0  0  0  0
M  END
$$$$
