butane_opt
 OpenBabel08242015383D

 14 13  0  0  0  0  0  0  0  0999 V2000
   -3.9440    0.2851    0.1334 C   0  0  0  0  0  0  0  0  0  0  0  0
   -2.7196   -0.6462   -0.0902 C   0  0  0  0  0  0  0  0  0  0  0  0
   -4.8368   -0.3576    0.4061 H   0  0  0  0  0  0  0  0  0  0  0  0
   -4.2138    1.0828   -0.8757 H   0  0  0  0  0  0  0  0  0  0  0  0
   -3.9251    0.8133    0.8615 H   0  0  0  0  0  0  0  0  0  0  0  0
   -1.3868    0.1809   -0.0676 C   0  0  0  0  0  0  0  0  0  0  0  0
   -2.7707   -1.4969   -1.1427 H   0  0  0  0  0  0  0  0  0  0  0  0
   -2.5423   -0.9787    0.6105 H   0  0  0  0  0  0  0  0  0  0  0  0
   -0.1738   -0.6748    0.1268 C   0  0  0  0  0  0  0  0  0  0  0  0
   -1.4384    0.7461    0.7323 H   0  0  0  0  0  0  0  0  0  0  0  0
   -1.1573    0.8003   -0.9368 H   0  0  0  0  0  0  0  0  0  0  0  0
   -0.2288   -1.4900    1.2148 H   0  0  0  0  0  0  0  0  0  0  0  0
    0.7345   -0.0807   -0.0527 H   0  0  0  0  0  0  0  0  0  0  0  0
    0.0498   -1.2465   -0.6258 H   0  0  0  0  0  0  0  0  0  0  0  0
  1  3  1  0  0  0  0
  1  5  1  0  0  0  0
  2  6  1  0  0  0  0
  2  1  1  0  0  0  0
  2  8  1  0  0  0  0
  4  1  1  0  0  0  0
  6  9  1  0  0  0  0
  6 10  1  0  0  0  0
  7  2  1  0  0  0  0
  9 12  1  0  0  0  0
 11  6  1  0  0  0  0
 13  9  1  0  0  0  0
 14  9  1  0  0  0  0
M  END
$$$$
