butane_opt
 OpenBabel08242015383D

 14 13  0  0  0  0  0  0  0  0999 V2000
   -3.9409    0.2516    0.0468 C   0  0  0  0  0  0  0  0  0  0  0  0
   -2.7134   -0.6052    0.0041 C   0  0  0  0  0  0  0  0  0  0  0  0
   -4.8519   -0.3226    0.0807 H   0  0  0  0  0  0  0  0  0  0  0  0
   -4.0267    0.8862   -0.8507 H   0  0  0  0  0  0  0  0  0  0  0  0
   -3.9252    0.9282    0.9094 H   0  0  0  0  0  0  0  0  0  0  0  0
   -1.4102    0.2055   -0.0145 C   0  0  0  0  0  0  0  0  0  0  0  0
   -2.7677   -1.3646   -0.8865 H   0  0  0  0  0  0  0  0  0  0  0  0
   -2.7446   -1.1756    0.8643 H   0  0  0  0  0  0  0  0  0  0  0  0
   -0.1460   -0.7071    0.0630 C   0  0  0  0  0  0  0  0  0  0  0  0
   -1.3841    0.8427    0.8039 H   0  0  0  0  0  0  0  0  0  0  0  0
   -1.3662    0.8216   -0.8899 H   0  0  0  0  0  0  0  0  0  0  0  0
   -0.0868   -1.3705    1.0217 H   0  0  0  0  0  0  0  0  0  0  0  0
    0.7560   -0.1346   -0.0448 H   0  0  0  0  0  0  0  0  0  0  0  0
   -0.0974   -1.3177   -0.7593 H   0  0  0  0  0  0  0  0  0  0  0  0
  1  3  1  0  0  0  0
  1  5  1  0  0  0  0
  2  1  1  0  0  0  0
  2  8  1  0  0  0  0
  4  1  1  0  0  0  0
  6  2  1  0  0  0  0
  6  9  1  0  0  0  0
  6 10  1  0  0  0  0
  7  2  1  0  0  0  0
  9 12  1  0  0  0  0
 11  6  1  0  0  0  0
 13  9  1  0  0  0  0
 14  9  1  0  0  0  0
M  END
$$$$
