14
butane_opt
C  -3.902804   0.242469   0.097646
C  -2.699489  -0.583490  -0.075870
H  -4.882725  -0.428446   0.522083
H  -4.123626   1.022299  -0.961344
H  -3.609288   0.609012   0.849511
C  -1.411176   0.238758  -0.050122
H  -2.736947  -1.371380  -1.051876
H  -2.705715  -1.006617   0.711448
C  -0.180129  -0.720757   0.121771
H  -1.614812   0.766141   0.760980
H  -1.265829   0.902798  -0.940666
H  -0.112447  -1.392346   1.094377
H   0.649663  -0.181986   0.114497
H  -0.276209  -1.526335  -0.807044
