butane_opt
 OpenBabel08242015383D

 14 13  0  0  0  0  0  0  0  0999 V2000
   -3.9337    0.2590   -0.0140 C   0  0  0  0  0  0  0  0  0  0  0  0
   -2.7230   -0.6133    0.0729 C   0  0  0  0  0  0  0  0  0  0  0  0
   -4.8534   -0.3581    0.0039 H   0  0  0  0  0  0  0  0  0  0  0  0
   -3.9538    0.9336   -0.9412 H   0  0  0  0  0  0  0  0  0  0  0  0
   -3.9870    0.8529    0.7974 H   0  0  0  0  0  0  0  0  0  0  0  0
   -1.4048    0.2134    0.0523 C   0  0  0  0  0  0  0  0  0  0  0  0
   -2.6872   -1.3306   -0.7827 H   0  0  0  0  0  0  0  0  0  0  0  0
   -2.7778   -1.2019    0.9436 H   0  0  0  0  0  0  0  0  0  0  0  0
   -0.1466   -0.7084   -0.0010 C   0  0  0  0  0  0  0  0  0  0  0  0
   -1.3611    0.9099    0.9357 H   0  0  0  0  0  0  0  0  0  0  0  0
   -1.4404    0.7782   -0.7938 H   0  0  0  0  0  0  0  0  0  0  0  0
   -0.0361   -1.3853    0.9120 H   0  0  0  0  0  0  0  0  0  0  0  0
    0.7428   -0.1235   -0.1129 H   0  0  0  0  0  0  0  0  0  0  0  0
   -0.1704   -1.3517   -0.8460 H   0  0  0  0  0  0  0  0  0  0  0  0
  1  3  1  0  0  0  0
  1  2  1  0  0  0  0
  1  5  1  0  0  0  0
  2  8  1  0  0  0  0
  4  1  1  0  0  0  0
  6  2  1  0  0  0  0
  6 10  1  0  0  0  0
  7  2  1  0  0  0  0
  9  6  1  0  0  0  0
  9 12  1  0  0  0  0
 11  6  1  0  0  0  0
 13  9  1  0  0  0  0
 14  9  1  0  0  0  0
M  END
$$$$
