14
butane_opt
C  -3.962243   0.236196   0.100632
C  -2.701380  -0.565629  -0.055973
H  -4.984354  -0.489485  -0.165877
H  -3.841675   0.384950  -0.485840
H  -4.033204   1.212884   1.173784
C  -1.426178   0.254145  -0.106346
H  -2.764906  -1.163620  -0.860565
H  -2.625337  -1.326925   0.936751
C  -0.124884  -0.741929   0.133610
H  -1.389794   0.713419   0.657376
H  -1.367028   0.877989  -1.024068
H  -0.107472  -1.466832   1.000572
H   0.742153  -0.184041   0.038960
H  -0.041577  -1.240322  -0.631023
