butane_opt
 OpenBabel08242015383D

 14 13  0  0  0  0  0  0  0  0999 V2000
   -3.9415    0.2736    0.0486 C   0  0  0  0  0  0  0  0  0  0  0  0
   -2.6914   -0.6280    0.0103 C   0  0  0  0  0  0  0  0  0  0  0  0
   -4.8325   -0.3219    0.0845 H   0  0  0  0  0  0  0  0  0  0  0  0
   -3.9836    0.9057   -0.8549 H   0  0  0  0  0  0  0  0  0  0  0  0
   -3.9495    0.9635    0.9414 H   0  0  0  0  0  0  0  0  0  0  0  0
   -1.4035    0.1785   -0.0318 C   0  0  0  0  0  0  0  0  0  0  0  0
   -2.7716   -1.3118   -0.8291 H   0  0  0  0  0  0  0  0  0  0  0  0
   -2.6542   -1.2676    0.9128 H   0  0  0  0  0  0  0  0  0  0  0  0
   -0.1792   -0.6909    0.0546 C   0  0  0  0  0  0  0  0  0  0  0  0
   -1.3793    0.8513    0.8092 H   0  0  0  0  0  0  0  0  0  0  0  0
   -1.3331    0.8312   -0.9402 H   0  0  0  0  0  0  0  0  0  0  0  0
   -0.2345   -1.2575    0.9451 H   0  0  0  0  0  0  0  0  0  0  0  0
    0.7706   -0.0728    0.2005 H   0  0  0  0  0  0  0  0  0  0  0  0
   -0.0730   -1.3854   -0.8139 H   0  0  0  0  0  0  0  0  0  0  0  0
  1  3  1  0  0  0  0
  1  5  1  0  0  0  0
  2  1  1  0  0  0  0
  2  8  1  0  0  0  0
  4  1  1  0  0  0  0
  6  2  1  0  0  0  0
  6  9  1  0  0  0  0
  6 10  1  0  0  0  0
  7  2  1  0  0  0  0
  9 13  1  0  0  0  0
  9 12  1  0  0  0  0
 11  6  1  0  0  0  0
 14  9  1  0  0  0  0
M  END
$$$$
