14
butane_opt
C  -3.951524   0.214285  -0.053484
C  -2.724843  -0.576266   0.097327
H  -4.795269  -0.324954   0.435405
H  -3.975321   1.298836  -1.333872
H  -3.856169   0.424636   0.467484
C  -1.411995   0.238747   0.129625
H  -2.804687  -1.227806  -0.831522
H  -2.815421  -1.141345   0.968257
C  -0.136069  -0.746901  -0.040137
H  -1.205962   1.127646   1.109872
H  -1.486454   0.755471  -0.710605
H   0.018295  -1.178825   0.747940
H   0.703445  -0.199181  -0.042028
H  -0.098785  -1.574181  -1.025091
