butane_opt
 OpenBabel08242015383D

 14 13  0  0  0  0  0  0  0  0999 V2000
   -3.9510    0.2888   -0.0061 C   0  0  0  0  0  0  0  0  0  0  0  0
   -2.6604   -0.6326    0.0595 C   0  0  0  0  0  0  0  0  0  0  0  0
   -4.8548   -0.3027    0.0947 H   0  0  0  0  0  0  0  0  0  0  0  0
   -4.1785    0.9899   -0.8859 H   0  0  0  0  0  0  0  0  0  0  0  0
   -3.8734    0.8954    0.7893 H   0  0  0  0  0  0  0  0  0  0  0  0
   -1.3946    0.1372    0.0274 C   0  0  0  0  0  0  0  0  0  0  0  0
   -2.6762   -1.2262   -0.6904 H   0  0  0  0  0  0  0  0  0  0  0  0
   -2.6338   -1.4506    1.0264 H   0  0  0  0  0  0  0  0  0  0  0  0
   -0.1896   -0.6670    0.0150 C   0  0  0  0  0  0  0  0  0  0  0  0
   -1.4205    0.8471    0.8278 H   0  0  0  0  0  0  0  0  0  0  0  0
   -1.4758    0.8587   -0.9800 H   0  0  0  0  0  0  0  0  0  0  0  0
   -0.3774   -1.0482    0.7687 H   0  0  0  0  0  0  0  0  0  0  0  0
    0.9341    0.0720    0.3731 H   0  0  0  0  0  0  0  0  0  0  0  0
   -0.1389   -1.6113   -1.0730 H   0  0  0  0  0  0  0  0  0  0  0  0
  1  2  1  0  0  0  0
  1  3  1  0  0  0  0
  1  5  1  0  0  0  0
  2  8  1  0  0  0  0
  4  1  1  0  0  0  0
  6  2  1  0  0  0  0
  6 10  1  0  0  0  0
  7  2  1  0  0  0  0
  9  6  1  0  0  0  0
  9 13  1  0  0  0  0
  9 12  1  0  0  0  0
 11  6  1  0  0  0  0
 14  9  1  0  0  0  0
M  END
$$$$
