14
butane_opt
C  -3.955415   0.264408   0.105766
C  -2.703736  -0.656520  -0.074030
H  -4.796405  -0.297902  -0.181935
H  -4.095607   0.688698  -0.591761
H  -4.144812   1.270189   1.154690
C  -1.394622   0.220357  -0.068259
H  -2.604116  -1.327530  -0.883577
H  -2.698414  -1.311903   0.925172
C  -0.137125  -0.698408   0.106145
H  -1.524409   0.803115   0.674842
H  -1.310122   0.796185  -0.908264
H  -0.056204  -1.595851   1.229697
H   0.798286  -0.008403  -0.159338
H  -0.278470  -1.045855  -0.595055
