14
butane_opt
C  -3.881451   0.254687   0.047787
C  -2.710040  -0.587635   0.065602
H  -4.823848  -0.409985  -0.390182
H  -3.662184   0.408829  -0.634669
H  -4.003814   1.173201   1.023387
C  -1.428249   0.227496  -0.048968
H  -2.792081  -1.423433  -0.857519
H  -2.793285  -1.155011   0.913121
C  -0.190712  -0.730564   0.056156
H  -1.358761   0.844784   0.770915
H  -1.626057   1.009838  -1.087198
H  -0.019923  -1.500451   1.022581
H   0.666785  -0.108934   0.018359
H  -0.106681  -1.285227  -0.708851
