butane_opt
 OpenBabel08242015383D

 14 13  0  0  0  0  0  0  0  0999 V2000
   -3.9165    0.2860    0.0463 C   0  0  0  0  0  0  0  0  0  0  0  0
   -2.6577   -0.6420    0.0139 C   0  0  0  0  0  0  0  0  0  0  0  0
   -4.7475   -0.2346    0.0320 H   0  0  0  0  0  0  0  0  0  0  0  0
   -4.1302    1.0631   -0.9289 H   0  0  0  0  0  0  0  0  0  0  0  0
   -3.9439    0.8879    0.8680 H   0  0  0  0  0  0  0  0  0  0  0  0
   -1.3870    0.1548   -0.0289 C   0  0  0  0  0  0  0  0  0  0  0  0
   -2.8597   -1.1574   -0.6824 H   0  0  0  0  0  0  0  0  0  0  0  0
   -2.7177   -1.4392    0.9894 H   0  0  0  0  0  0  0  0  0  0  0  0
   -0.2235   -0.6685    0.0598 C   0  0  0  0  0  0  0  0  0  0  0  0
   -1.3741    0.8403    0.7742 H   0  0  0  0  0  0  0  0  0  0  0  0
   -1.4347    0.6358   -0.8772 H   0  0  0  0  0  0  0  0  0  0  0  0
   -0.3271   -1.0268    0.7778 H   0  0  0  0  0  0  0  0  0  0  0  0
    0.8297   -0.0537    0.3294 H   0  0  0  0  0  0  0  0  0  0  0  0
   -0.1163   -1.5181   -0.9780 H   0  0  0  0  0  0  0  0  0  0  0  0
  1  5  1  0  0  0  0
  2  1  1  0  0  0  0
  2  8  1  0  0  0  0
  3  1  1  0  0  0  0
  4  1  1  0  0  0  0
  6  2  1  0  0  0  0
  6  9  1  0  0  0  0
  6 10  1  0  0  0  0
  7  2  1  0  0  0  0
  9 13  1  0  0  0  0
  9 12  1  0  0  0  0
 11  6  1  0  0  0  0
 14  9  1  0  0  0  0
M  END
$$$$
