14
butane_opt
C  -3.899755   0.255885  -0.046232
C  -2.760478  -0.573477   0.097711
H  -4.861417  -0.482543   0.294343
H  -4.039172   1.179801  -1.165750
H  -3.828288   0.468572   0.523135
C  -1.422544   0.213696   0.079625
H  -2.738465  -1.233187  -0.790835
H  -2.737708  -1.262193   1.054316
C  -0.127238  -0.734881  -0.043132
H  -1.483242   1.204528   1.172849
H  -1.413413   0.623208  -0.599520
H  -0.100311  -1.357920   0.812493
H   0.858173  -0.084594   0.045464
H  -0.150825  -1.464020  -1.023159
