butane_opt
 OpenBabel08242015383D

 14 13  0  0  0  0  0  0  0  0999 V2000
   -3.9352    0.2168   -0.0560 C   0  0  0  0  0  0  0  0  0  0  0  0
   -2.7116   -0.5655    0.1642 C   0  0  0  0  0  0  0  0  0  0  0  0
   -4.9457   -0.4656   -0.3452 H   0  0  0  0  0  0  0  0  0  0  0  0
   -3.4950    0.7390   -0.8458 H   0  0  0  0  0  0  0  0  0  0  0  0
   -4.0801    1.0718    0.8839 H   0  0  0  0  0  0  0  0  0  0  0  0
   -1.4396    0.2149    0.0677 C   0  0  0  0  0  0  0  0  0  0  0  0
   -2.4616   -1.2203   -0.6481 H   0  0  0  0  0  0  0  0  0  0  0  0
   -2.7755   -1.1957    1.0634 H   0  0  0  0  0  0  0  0  0  0  0  0
   -0.1616   -0.7307   -0.0510 C   0  0  0  0  0  0  0  0  0  0  0  0
   -1.3061    0.8587    0.9860 H   0  0  0  0  0  0  0  0  0  0  0  0
   -1.5887    0.9881   -0.9195 H   0  0  0  0  0  0  0  0  0  0  0  0
   -0.0723   -1.3068    0.7953 H   0  0  0  0  0  0  0  0  0  0  0  0
    0.7746   -0.1018   -0.0101 H   0  0  0  0  0  0  0  0  0  0  0  0
   -0.0984   -1.4947   -0.9881 H   0  0  0  0  0  0  0  0  0  0  0  0
  1  2  1  0  0  0  0
  1  5  1  0  0  0  0
  2  8  1  0  0  0  0
  3  1  1  0  0  0  0
  4  1  1  0  0  0  0
  6  2  1  0  0  0  0
  6 10  1  0  0  0  0
  7  2  1  0  0  0  0
  9 13  1  0  0  0  0
  9  6  1  0  0  0  0
  9 12  1  0  0  0  0
 11  6  1  0  0  0  0
 14  9  1  0  0  0  0
M  END
$$$$
