14
butane_opt
C  -3.957308   0.256497   0.055907
C  -2.695246  -0.599479   0.007315
H  -4.908243  -0.362261   0.078693
H  -3.971796   0.841851  -0.813243
H  -3.922190   0.898086   0.893186
C  -1.403732   0.198729  -0.040102
H  -2.774361  -1.317045  -0.870360
H  -2.703694  -1.224850   0.886691
C  -0.153933  -0.710008   0.066275
H  -1.426023   0.915078   0.824405
H  -1.368491   0.816035  -0.941778
H  -0.131363  -1.310181   0.981911
H   0.762107  -0.119636   0.113074
H  -0.057246  -1.363420  -0.784264
