14
butane_opt
C  -3.911696   0.224521  -0.033242
C  -2.709185  -0.554401   0.024096
H  -4.985902  -0.512627   0.130511
H  -4.101141   0.948385  -0.971930
H  -3.740597   0.797324   0.759146
C  -1.427017   0.219006   0.102803
H  -2.695165  -1.107126  -0.678211
H  -2.730361  -1.132886   0.955077
C  -0.165612  -0.738113  -0.014524
H  -1.242858   0.922893   1.048419
H  -1.390753   0.723857  -0.728770
H   0.027936  -1.499304   1.064000
H   0.679081  -0.193834  -0.293392
H  -0.243342  -1.264818  -0.809211
