butane_opt
 OpenBabel08242015383D

 14 13  0  0  0  0  0  0  0  0999 V2000
   -3.8611    0.2485   -0.0833 C   0  0  0  0  0  0  0  0  0  0  0  0
   -2.7315   -0.6022    0.1687 C   0  0  0  0  0  0  0  0  0  0  0  0
   -4.8876   -0.4394   -0.3336 H   0  0  0  0  0  0  0  0  0  0  0  0
   -3.6042    0.8000   -1.0658 H   0  0  0  0  0  0  0  0  0  0  0  0
   -4.1975    0.9011    0.7599 H   0  0  0  0  0  0  0  0  0  0  0  0
   -1.4266    0.2363    0.1428 C   0  0  0  0  0  0  0  0  0  0  0  0
   -2.8327   -1.1820   -0.5909 H   0  0  0  0  0  0  0  0  0  0  0  0
   -2.7156   -1.2240    1.0868 H   0  0  0  0  0  0  0  0  0  0  0  0
   -0.1683   -0.7286   -0.0806 C   0  0  0  0  0  0  0  0  0  0  0  0
   -1.3958    0.9732    1.0007 H   0  0  0  0  0  0  0  0  0  0  0  0
   -1.6047    0.8640   -0.7027 H   0  0  0  0  0  0  0  0  0  0  0  0
   -0.0295   -1.4252    0.7748 H   0  0  0  0  0  0  0  0  0  0  0  0
    0.7531   -0.1690   -0.2752 H   0  0  0  0  0  0  0  0  0  0  0  0
   -0.2445   -1.4381   -0.9954 H   0  0  0  0  0  0  0  0  0  0  0  0
  1  2  1  0  0  0  0
  1  5  1  0  0  0  0
  2  8  1  0  0  0  0
  3  1  1  0  0  0  0
  4  1  1  0  0  0  0
  6  2  1  0  0  0  0
  6 10  1  0  0  0  0
  7  2  1  0  0  0  0
  9  6  1  0  0  0  0
  9 12  1  0  0  0  0
 11  6  1  0  0  0  0
 13  9  1  0  0  0  0
 14  9  1  0  0  0  0
M  END
$$$$
