butane_opt
 OpenBabel08242015383D

 14 13  0  0  0  0  0  0  0  0999 V2000
   -3.9536    0.2829    0.0563 C   0  0  0  0  0  0  0  0  0  0  0  0
   -2.6514   -0.6269   -0.0556 C   0  0  0  0  0  0  0  0  0  0  0  0
   -4.8667   -0.3004    0.1408 H   0  0  0  0  0  0  0  0  0  0  0  0
   -4.2024    0.7613   -0.6555 H   0  0  0  0  0  0  0  0  0  0  0  0
   -3.8135    1.1306    1.1245 H   0  0  0  0  0  0  0  0  0  0  0  0
   -1.4135    0.1344   -0.0371 C   0  0  0  0  0  0  0  0  0  0  0  0
   -2.7235   -1.3564   -1.0269 H   0  0  0  0  0  0  0  0  0  0  0  0
   -2.6092   -1.2783    0.8452 H   0  0  0  0  0  0  0  0  0  0  0  0
   -0.1667   -0.6860    0.1071 C   0  0  0  0  0  0  0  0  0  0  0  0
   -1.3920    0.8342    0.8027 H   0  0  0  0  0  0  0  0  0  0  0  0
   -1.3521    0.8428   -0.9684 H   0  0  0  0  0  0  0  0  0  0  0  0
   -0.3368   -1.4043    1.1671 H   0  0  0  0  0  0  0  0  0  0  0  0
    0.8024    0.0021   -0.2205 H   0  0  0  0  0  0  0  0  0  0  0  0
   -0.2850   -0.9598   -0.5886 H   0  0  0  0  0  0  0  0  0  0  0  0
  1  3  1  0  0  0  0
  1  5  1  0  0  0  0
  2  6  1  0  0  0  0
  2  1  1  0  0  0  0
  2  8  1  0  0  0  0
  4  1  1  0  0  0  0
  6  9  1  0  0  0  0
  6 10  1  0  0  0  0
  7  2  1  0  0  0  0
  9 12  1  0  0  0  0
 11  6  1  0  0  0  0
 13  9  1  0  0  0  0
 14  9  1  0  0  0  0
M  END
$$$$
