14
butane_opt
C  -3.946869   0.269730   0.062231
C  -2.664011  -0.595535  -0.002831
H  -4.931847  -0.348504  -0.245669
H  -3.763273   0.542474  -0.614074
H  -3.846938   1.201004   1.108425
C  -1.422282   0.165338  -0.021141
H  -2.771711  -1.396862  -0.972694
H  -2.677301  -1.203490   0.916582
C  -0.187687  -0.684612   0.072513
H  -1.400447   0.666773   0.667077
H  -1.422573   0.963845  -1.053255
H  -0.193058  -1.449876   1.153596
H   0.736989  -0.135810  -0.185611
H  -0.119341  -1.171445  -0.624337
