14
butane_opt
C  -3.951003   0.288774  -0.006086
C  -2.660402  -0.632595   0.059520
H  -4.854833  -0.302741   0.094657
H  -4.178460   0.989922  -0.885898
H  -3.873388   0.895371   0.789323
C  -1.394577   0.137249   0.027421
H  -2.676242  -1.226235  -0.690442
H  -2.633821  -1.450614   1.026442
C  -0.189596  -0.666991   0.014974
H  -1.420483   0.847106   0.827751
H  -1.475753   0.858669  -0.979972
H  -0.377370  -1.048181   0.768713
H   0.934082   0.071974   0.373108
H  -0.138868  -1.611288  -1.072987
