14
butane_opt
C  -3.943106   0.288724   0.129043
C  -2.670330  -0.649551  -0.048634
H  -4.758819  -0.229627   0.206786
H  -4.160241   0.795361  -0.762771
H  -3.908281   1.023384   1.076579
C  -1.371905   0.131902  -0.143850
H  -2.753046  -1.283710  -0.928855
H  -2.629450  -1.228330   0.793877
C  -0.200263  -0.652910   0.106348
H  -1.459532   0.906601   0.713984
H  -1.286743   0.879356  -1.106125
H  -0.565851  -1.273410   1.087092
H   0.661092  -0.124033   0.616460
H   0.069672  -1.374637  -0.755737
