butane_opt
 OpenBabel08242015383D

 14 13  0  0  0  0  0  0  0  0999 V2000
   -3.8885    0.2335   -0.0381 C   0  0  0  0  0  0  0  0  0  0  0  0
   -2.6772   -0.5838    0.0861 C   0  0  0  0  0  0  0  0  0  0  0  0
   -4.8725   -0.3178    0.0263 H   0  0  0  0  0  0  0  0  0  0  0  0
   -3.9778    0.9185   -0.9544 H   0  0  0  0  0  0  0  0  0  0  0  0
   -4.0812    0.7642    0.7484 H   0  0  0  0  0  0  0  0  0  0  0  0
   -1.4208    0.2078    0.0965 C   0  0  0  0  0  0  0  0  0  0  0  0
   -2.6786   -1.4302   -0.8810 H   0  0  0  0  0  0  0  0  0  0  0  0
   -2.8132   -1.1190    1.0454 H   0  0  0  0  0  0  0  0  0  0  0  0
   -0.1757   -0.7024   -0.0366 C   0  0  0  0  0  0  0  0  0  0  0  0
   -1.4827    0.9473    0.9854 H   0  0  0  0  0  0  0  0  0  0  0  0
   -1.5454    0.7316   -0.7188 H   0  0  0  0  0  0  0  0  0  0  0  0
   -0.0989   -1.4679    0.9626 H   0  0  0  0  0  0  0  0  0  0  0  0
    0.6469   -0.1880   -0.3176 H   0  0  0  0  0  0  0  0  0  0  0  0
   -0.1440   -1.1824   -0.7566 H   0  0  0  0  0  0  0  0  0  0  0  0
  1  3  1  0  0  0  0
  1  2  1  0  0  0  0
  1  5  1  0  0  0  0
  2  6  1  0  0  0  0
  2  8  1  0  0  0  0
  4  1  1  0  0  0  0
  6 10  1  0  0  0  0
  7  2  1  0  0  0  0
  9  6  1  0  0  0  0
  9 12  1  0  0  0  0
 11  6  1  0  0  0  0
 13  9  1  0  0  0  0
 14  9  1  0  0  0  0
M  END
$$$$
