14
butane_opt
C  -3.904500   0.278466  -0.054311
C  -2.670015  -0.660180   0.141744
H  -4.755577  -0.192714   0.080649
H  -3.966897   1.089691  -1.048966
H  -4.019149   0.777081   0.629686
C  -1.436598   0.184983   0.072316
H  -2.670357  -1.213018  -0.669805
H  -2.584795  -1.429624   1.099477
C  -0.184577  -0.673138  -0.032932
H  -1.442801   0.689881   0.826398
H  -1.406796   0.797639  -0.855947
H  -0.276029  -0.715338   0.551388
H   0.772509  -0.068130   0.423127
H  -0.321731  -1.762581  -1.187556
