14
butane_opt
C  -3.965136   0.217463   0.150965
C  -2.723577  -0.579659  -0.052207
H  -4.953383  -0.429953   0.049839
H  -4.008272   0.863142  -0.751871
H  -3.993437   1.008447   1.045450
C  -1.399106   0.217749  -0.154083
H  -2.929264  -1.182104  -0.930362
H  -2.665160  -1.172672   0.815314
C  -0.099426  -0.730977   0.131519
H  -1.533534   0.834432   0.625156
H  -1.481521   0.924404  -1.126764
H  -0.243746  -1.167921   0.969324
H   0.817495  -0.153930   0.602296
H   0.232910  -1.520236  -0.771506
