butane_opt
 OpenBabel08242015383D

 14 13  0  0  0  0  0  0  0  0999 V2000
   -3.9462    0.2571   -0.0987 C   0  0  0  0  0  0  0  0  0  0  0  0
   -2.7064   -0.6349    0.1210 C   0  0  0  0  0  0  0  0  0  0  0  0
   -4.8191   -0.2160    0.1029 H   0  0  0  0  0  0  0  0  0  0  0  0
   -4.0461    1.1136   -1.0927 H   0  0  0  0  0  0  0  0  0  0  0  0
   -4.0463    0.8513    0.6943 H   0  0  0  0  0  0  0  0  0  0  0  0
   -1.4279    0.1976    0.1520 C   0  0  0  0  0  0  0  0  0  0  0  0
   -2.5736   -1.2744   -0.7926 H   0  0  0  0  0  0  0  0  0  0  0  0
   -2.9401   -1.4117    1.1318 H   0  0  0  0  0  0  0  0  0  0  0  0
   -0.1505   -0.6832   -0.0607 C   0  0  0  0  0  0  0  0  0  0  0  0
   -1.2633    1.0077    1.1107 H   0  0  0  0  0  0  0  0  0  0  0  0
   -1.3551    0.5955   -0.6013 H   0  0  0  0  0  0  0  0  0  0  0  0
    0.3192   -1.4289    0.8287 H   0  0  0  0  0  0  0  0  0  0  0  0
    0.8077   -0.0514   -0.3382 H   0  0  0  0  0  0  0  0  0  0  0  0
   -0.3519   -1.2672   -0.9515 H   0  0  0  0  0  0  0  0  0  0  0  0
  1  3  1  0  0  0  0
  1  2  1  0  0  0  0
  1  5  1  0  0  0  0
  2  6  1  0  0  0  0
  2  8  1  0  0  0  0
  4  1  1  0  0  0  0
  6 10  1  0  0  0  0
  7  2  1  0  0  0  0
  9  6  1  0  0  0  0
  9 12  1  0  0  0  0
 11  6  1  0  0  0  0
 13  9  1  0  0  0  0
 14  9  1  0  0  0  0
M  END
$$$$
