butane_opt
 OpenBabel08242015383D

 14 13  0  0  0  0  0  0  0  0999 V2000
   -3.9449    0.2819   -0.0254 C   0  0  0  0  0  0  0  0  0  0  0  0
   -2.7322   -0.6859    0.0393 C   0  0  0  0  0  0  0  0  0  0  0  0
   -4.7653   -0.1653   -0.0641 H   0  0  0  0  0  0  0  0  0  0  0  0
   -3.8386    0.9183   -0.9411 H   0  0  0  0  0  0  0  0  0  0  0  0
   -4.0652    1.0810    0.8734 H   0  0  0  0  0  0  0  0  0  0  0  0
   -1.3948    0.1851    0.0844 C   0  0  0  0  0  0  0  0  0  0  0  0
   -2.6557   -1.1693   -0.7024 H   0  0  0  0  0  0  0  0  0  0  0  0
   -2.6681   -1.3217    0.9874 H   0  0  0  0  0  0  0  0  0  0  0  0
   -0.1687   -0.6840   -0.0067 C   0  0  0  0  0  0  0  0  0  0  0  0
   -1.3081    0.9472    1.0617 H   0  0  0  0  0  0  0  0  0  0  0  0
   -1.3836    0.7607   -0.6915 H   0  0  0  0  0  0  0  0  0  0  0  0
    0.0706   -1.4836    1.0626 H   0  0  0  0  0  0  0  0  0  0  0  0
    0.8355   -0.0254   -0.4466 H   0  0  0  0  0  0  0  0  0  0  0  0
   -0.3839   -1.1669   -0.7825 H   0  0  0  0  0  0  0  0  0  0  0  0
  1  2  1  0  0  0  0
  1  5  1  0  0  0  0
  2  6  1  0  0  0  0
  2  8  1  0  0  0  0
  3  1  1  0  0  0  0
  4  1  1  0  0  0  0
  6 10  1  0  0  0  0
  7  2  1  0  0  0  0
  9  6  1  0  0  0  0
  9 12  1  0  0  0  0
 11  6  1  0  0  0  0
 13  9  1  0  0  0  0
 14  9  1  0  0  0  0
M  END
$$$$
