butane_opt
 OpenBabel08242015383D

 14 13  0  0  0  0  0  0  0  0999 V2000
   -3.9406    0.2262    0.1636 C   0  0  0  0  0  0  0  0  0  0  0  0
   -2.7182   -0.5609   -0.0633 C   0  0  0  0  0  0  0  0  0  0  0  0
   -4.8738   -0.4047   -0.0269 H   0  0  0  0  0  0  0  0  0  0  0  0
   -4.0418    0.8432   -0.7022 H   0  0  0  0  0  0  0  0  0  0  0  0
   -4.0145    0.8759    1.0460 H   0  0  0  0  0  0  0  0  0  0  0  0
   -1.4303    0.2063   -0.1356 C   0  0  0  0  0  0  0  0  0  0  0  0
   -2.8547   -1.3637   -1.0299 H   0  0  0  0  0  0  0  0  0  0  0  0
   -2.6719   -1.0760    0.7696 H   0  0  0  0  0  0  0  0  0  0  0  0
   -0.1162   -0.7275    0.1485 C   0  0  0  0  0  0  0  0  0  0  0  0
   -1.4717    0.8048    0.5833 H   0  0  0  0  0  0  0  0  0  0  0  0
   -1.2374    1.0549   -1.1778 H   0  0  0  0  0  0  0  0  0  0  0  0
   -0.3326   -1.3174    1.0462 H   0  0  0  0  0  0  0  0  0  0  0  0
    0.8924   -0.1242    0.3468 H   0  0  0  0  0  0  0  0  0  0  0  0
    0.0775   -1.5201   -0.7901 H   0  0  0  0  0  0  0  0  0  0  0  0
  1  5  1  0  0  0  0
  2  1  1  0  0  0  0
  2  8  1  0  0  0  0
  3  1  1  0  0  0  0
  4  1  1  0  0  0  0
  6  2  1  0  0  0  0
  6  9  1  0  0  0  0
  6 10  1  0  0  0  0
  7  2  1  0  0  0  0
  9 13  1  0  0  0  0
  9 12  1  0  0  0  0
 11  6  1  0  0  0  0
 14  9  1  0  0  0  0
M  END
$$$$
