14
butane_opt
C  -3.949161   0.244397   0.076156
C  -2.725327  -0.609092  -0.011871
H  -4.943658  -0.441842  -0.397608
H  -3.928217   0.520486  -0.603603
H  -3.994032   1.227886   1.151787
C  -1.364724   0.250755  -0.050981
H  -2.793632  -1.186941  -0.856659
H  -2.717243  -1.303421   0.969626
C  -0.162939  -0.732259   0.075250
H  -1.566253   0.951502   0.836379
H  -1.260399   0.965616  -0.981009
H  -0.004343  -1.635105   1.103353
H   0.692845  -0.322620  -0.176989
H  -0.053515  -1.125846  -0.637388
