14
butane_opt
C  -3.925658   0.274951  -0.072413
C  -2.693563  -0.606170   0.168462
H  -4.865789  -0.270041  -0.367692
H  -3.796200   0.707703  -0.870505
H  -4.253538   1.036388   0.804497
C  -1.385072   0.128472   0.107523
H  -2.578109  -1.146175  -0.530961
H  -2.802714  -1.287882   1.116463
C  -0.185583  -0.685755  -0.077005
H  -1.496472   0.793811   0.872441
H  -1.388815   0.896645  -0.879351
H  -0.014769  -1.097895   0.698979
H   0.805515   0.001701   0.040451
H  -0.356426  -1.458793  -0.958609
