butane_opt
 OpenBabel08242015383D

 14 13  0  0  0  0  0  0  0  0999 V2000
   -3.9715    0.2747    0.0754 C   0  0  0  0  0  0  0  0  0  0  0  0
   -2.7043   -0.6173   -0.0674 C   0  0  0  0  0  0  0  0  0  0  0  0
   -4.8505   -0.4046   -0.1161 H   0  0  0  0  0  0  0  0  0  0  0  0
   -3.9840    0.6021   -0.5646 H   0  0  0  0  0  0  0  0  0  0  0  0
   -3.9352    1.1287    1.1000 H   0  0  0  0  0  0  0  0  0  0  0  0
   -1.4210    0.1959   -0.0265 C   0  0  0  0  0  0  0  0  0  0  0  0
   -2.9143   -1.2730   -0.9194 H   0  0  0  0  0  0  0  0  0  0  0  0
   -2.6866   -1.2603    0.8599 H   0  0  0  0  0  0  0  0  0  0  0  0
   -0.0869   -0.6996    0.0950 C   0  0  0  0  0  0  0  0  0  0  0  0
   -1.5532    0.8361    0.6741 H   0  0  0  0  0  0  0  0  0  0  0  0
   -1.3471    0.7969   -0.8876 H   0  0  0  0  0  0  0  0  0  0  0  0
    0.0320   -1.6453    1.2199 H   0  0  0  0  0  0  0  0  0  0  0  0
    0.7731   -0.1358   -0.2805 H   0  0  0  0  0  0  0  0  0  0  0  0
   -0.3457   -0.9590   -0.5104 H   0  0  0  0  0  0  0  0  0  0  0  0
  1  5  1  0  0  0  0
  2  6  1  0  0  0  0
  2  1  1  0  0  0  0
  2  8  1  0  0  0  0
  3  1  1  0  0  0  0
  4  1  1  0  0  0  0
  6  9  1  0  0  0  0
  6 10  1  0  0  0  0
  7  2  1  0  0  0  0
  9 12  1  0  0  0  0
 11  6  1  0  0  0  0
 13  9  1  0  0  0  0
 14  9  1  0  0  0  0
M  END
$$$$
