14
butane_opt
C  -3.898213   0.280435  -0.060747
C  -2.722178  -0.590643   0.150214
H  -4.937757  -0.475370  -0.329440
H  -3.713983   0.807860  -0.985884
H  -4.055658   0.822396   0.666194
C  -1.398907   0.170542   0.134431
H  -2.749327  -1.179540  -0.707892
H  -2.618164  -1.183127   0.962841
C  -0.177783  -0.704820  -0.062575
H  -1.404219   0.861686   1.037884
H  -1.524714   0.787018  -0.787160
H   0.030701  -1.375021   0.811466
H   0.704970  -0.099735  -0.313400
H  -0.388128  -1.317538  -0.861874
