14
butane_opt
C  -3.940203   0.261116  -0.001092
C  -2.698222  -0.616164   0.076262
H  -4.893347  -0.361550   0.027385
H  -3.962281   0.967677  -0.971409
H  -4.004535   0.848667   0.780777
C  -1.401323   0.199788   0.023135
H  -2.755437  -1.267507  -0.765086
H  -2.707013  -1.245508   0.991348
C  -0.162320  -0.698384   0.011895
H  -1.345829   0.871682   0.869030
H  -1.422859   0.786698  -0.832589
H  -0.135407  -1.178570   0.826591
H   0.724982  -0.136637   0.120854
H  -0.087339  -1.524765  -0.956737
