14
butane_opt
C  -3.920176   0.272853  -0.016596
C  -2.715626  -0.609749   0.066272
H  -4.810674  -0.378359   0.254647
H  -4.014219   0.831190  -0.859947
H  -3.991250   0.811440   0.793798
C  -1.375879   0.201419   0.018257
H  -2.682831  -1.074750  -0.693147
H  -2.832890  -1.373095   1.042392
C  -0.169483  -0.721818   0.000481
H  -1.552159   0.887001   0.894743
H  -1.425255   0.830463  -0.906664
H  -0.346886  -1.066894   0.752117
H   0.800457  -0.089671   0.391552
H   0.008525  -1.571204  -1.066682
