14
butane_opt
C  -3.977545   0.233403   0.076809
C  -2.729018  -0.556560  -0.010341
H  -4.973625  -0.467733  -0.294285
H  -3.728714   0.406494  -0.539996
H  -4.089713   1.325158   1.224985
C  -1.422661   0.210201  -0.080689
H  -2.843520  -1.327303  -0.909513
H  -2.713510  -1.202131   0.898013
C  -0.110359  -0.738287   0.124944
H  -1.355044   0.748687   0.662078
H  -1.338331   0.999726  -1.157382
H   0.240705  -1.344527   1.099565
H   0.724412  -0.213893  -0.177999
H  -0.067590  -1.200294  -0.623285
