butane_opt
 OpenBabel08242015383D

 14 13  0  0  0  0  0  0  0  0999 V2000
   -3.9257    0.2750   -0.0724 C   0  0  0  0  0  0  0  0  0  0  0  0
   -2.6936   -0.6062    0.1685 C   0  0  0  0  0  0  0  0  0  0  0  0
   -4.8658   -0.2700   -0.3677 H   0  0  0  0  0  0  0  0  0  0  0  0
   -3.7962    0.7077   -0.8705 H   0  0  0  0  0  0  0  0  0  0  0  0
   -4.2535    1.0364    0.8045 H   0  0  0  0  0  0  0  0  0  0  0  0
   -1.3851    0.1285    0.1075 C   0  0  0  0  0  0  0  0  0  0  0  0
   -2.5781   -1.1462   -0.5310 H   0  0  0  0  0  0  0  0  0  0  0  0
   -2.8027   -1.2879    1.1165 H   0  0  0  0  0  0  0  0  0  0  0  0
   -0.1856   -0.6858   -0.0770 C   0  0  0  0  0  0  0  0  0  0  0  0
   -1.4965    0.7938    0.8724 H   0  0  0  0  0  0  0  0  0  0  0  0
   -1.3888    0.8966   -0.8794 H   0  0  0  0  0  0  0  0  0  0  0  0
   -0.0148   -1.0979    0.6990 H   0  0  0  0  0  0  0  0  0  0  0  0
    0.8055    0.0017    0.0405 H   0  0  0  0  0  0  0  0  0  0  0  0
   -0.3564   -1.4588   -0.9586 H   0  0  0  0  0  0  0  0  0  0  0  0
  1  2  1  0  0  0  0
  1  5  1  0  0  0  0
  2  8  1  0  0  0  0
  3  1  1  0  0  0  0
  4  1  1  0  0  0  0
  6  2  1  0  0  0  0
  6 10  1  0  0  0  0
  7  2  1  0  0  0  0
  9 13  1  0  0  0  0
  9  6  1  0  0  0  0
  9 12  1  0  0  0  0
 11  6  1  0  0  0  0
 14  9  1  0  0  0  0
M  END
$$$$
