butane_opt
 OpenBabel08242015383D

 14 13  0  0  0  0  0  0  0  0999 V2000
   -3.9360    0.2834   -0.0291 C   0  0  0  0  0  0  0  0  0  0  0  0
   -2.6957   -0.6207    0.0516 C   0  0  0  0  0  0  0  0  0  0  0  0
   -4.7559   -0.2331    0.0579 H   0  0  0  0  0  0  0  0  0  0  0  0
   -3.8842    0.9025   -0.8733 H   0  0  0  0  0  0  0  0  0  0  0  0
   -4.0237    0.8908    0.7927 H   0  0  0  0  0  0  0  0  0  0  0  0
   -1.4176    0.1326    0.0690 C   0  0  0  0  0  0  0  0  0  0  0  0
   -2.4814   -1.3520   -0.7705 H   0  0  0  0  0  0  0  0  0  0  0  0
   -2.7512   -1.2524    0.9307 H   0  0  0  0  0  0  0  0  0  0  0  0
   -0.1874   -0.6644   -0.0082 C   0  0  0  0  0  0  0  0  0  0  0  0
   -1.3834    0.9525    1.0757 H   0  0  0  0  0  0  0  0  0  0  0  0
   -1.5343    0.6100   -0.6403 H   0  0  0  0  0  0  0  0  0  0  0  0
    0.0286   -1.5238    1.0139 H   0  0  0  0  0  0  0  0  0  0  0  0
    0.9217    0.0123   -0.3935 H   0  0  0  0  0  0  0  0  0  0  0  0
   -0.3638   -0.9978   -0.7089 H   0  0  0  0  0  0  0  0  0  0  0  0
  1  2  1  0  0  0  0
  1  3  1  0  0  0  0
  1  5  1  0  0  0  0
  2  6  1  0  0  0  0
  2  8  1  0  0  0  0
  4  1  1  0  0  0  0
  6 10  1  0  0  0  0
  7  2  1  0  0  0  0
  9  6  1  0  0  0  0
  9 12  1  0  0  0  0
 11  6  1  0  0  0  0
 13  9  1  0  0  0  0
 14  9  1  0  0  0  0
M  END
$$$$
