14
butane_opt
C  -3.998539   0.297798   0.075865
C  -2.711609  -0.655158   0.031518
H  -4.925715  -0.306930  -0.406986
H  -3.722652   0.589508  -0.637183
H  -4.161282   1.312242   1.155766
C  -1.364223   0.157669  -0.089848
H  -2.822845  -1.315948  -0.862704
H  -2.629445  -1.240748   0.832014
C  -0.129089  -0.673636   0.090936
H  -1.373886   0.840146   0.734132
H  -1.405509   0.792414  -0.937021
H  -0.080564  -1.448272   1.002251
H   0.724262  -0.131262  -0.072351
H  -0.192119  -1.087450  -0.606686
