butane_opt
 OpenBabel08242015383D

 14 13  0  0  0  0  0  0  0  0999 V2000
   -4.0065    0.2509    0.0741 C   0  0  0  0  0  0  0  0  0  0  0  0
   -2.7157   -0.6051   -0.0191 C   0  0  0  0  0  0  0  0  0  0  0  0
   -4.8694   -0.3032    0.2313 H   0  0  0  0  0  0  0  0  0  0  0  0
   -4.1193    0.8563   -0.7863 H   0  0  0  0  0  0  0  0  0  0  0  0
   -3.7720    0.9522    0.9801 H   0  0  0  0  0  0  0  0  0  0  0  0
   -1.3657    0.1741   -0.0937 C   0  0  0  0  0  0  0  0  0  0  0  0
   -2.8835   -1.1825   -0.8495 H   0  0  0  0  0  0  0  0  0  0  0  0
   -2.5844   -1.3081    0.8605 H   0  0  0  0  0  0  0  0  0  0  0  0
   -0.1261   -0.6854    0.1235 C   0  0  0  0  0  0  0  0  0  0  0  0
   -1.5866    0.9180    0.8018 H   0  0  0  0  0  0  0  0  0  0  0  0
   -1.2809    0.8977   -1.1298 H   0  0  0  0  0  0  0  0  0  0  0  0
   -0.2435   -1.1224    0.8178 H   0  0  0  0  0  0  0  0  0  0  0  0
    0.7206   -0.1664    0.3141 H   0  0  0  0  0  0  0  0  0  0  0  0
    0.1460   -1.6306   -0.8656 H   0  0  0  0  0  0  0  0  0  0  0  0
  1  3  1  0  0  0  0
  1  5  1  0  0  0  0
  2  1  1  0  0  0  0
  2  8  1  0  0  0  0
  4  1  1  0  0  0  0
  6  2  1  0  0  0  0
  6  9  1  0  0  0  0
  6 10  1  0  0  0  0
  7  2  1  0  0  0  0
  9 13  1  0  0  0  0
  9 12  1  0  0  0  0
 11  6  1  0  0  0  0
 14  9  1  0  0  0  0
M  END
$$$$
