butane_opt
 OpenBabel08242015383D

 14 13  0  0  0  0  0  0  0  0999 V2000
   -3.9561    0.2742    0.0025 C   0  0  0  0  0  0  0  0  0  0  0  0
   -2.7045   -0.6260    0.0507 C   0  0  0  0  0  0  0  0  0  0  0  0
   -4.8691   -0.3195    0.1972 H   0  0  0  0  0  0  0  0  0  0  0  0
   -3.9781    1.0260   -0.9663 H   0  0  0  0  0  0  0  0  0  0  0  0
   -3.9419    0.8059    0.7671 H   0  0  0  0  0  0  0  0  0  0  0  0
   -1.3991    0.1761    0.0287 C   0  0  0  0  0  0  0  0  0  0  0  0
   -2.7060   -1.3330   -0.8377 H   0  0  0  0  0  0  0  0  0  0  0  0
   -2.6820   -1.2119    0.9262 H   0  0  0  0  0  0  0  0  0  0  0  0
   -0.1584   -0.6928    0.0194 C   0  0  0  0  0  0  0  0  0  0  0  0
   -1.3801    0.9004    0.9243 H   0  0  0  0  0  0  0  0  0  0  0  0
   -1.3355    0.7925   -0.8426 H   0  0  0  0  0  0  0  0  0  0  0  0
   -0.1388   -1.2406    0.8567 H   0  0  0  0  0  0  0  0  0  0  0  0
    0.7673   -0.0754    0.0484 H   0  0  0  0  0  0  0  0  0  0  0  0
   -0.1454   -1.3934   -0.8683 H   0  0  0  0  0  0  0  0  0  0  0  0
  1  2  1  0  0  0  0
  1  3  1  0  0  0  0
  1  5  1  0  0  0  0
  2  8  1  0  0  0  0
  4  1  1  0  0  0  0
  6  2  1  0  0  0  0
  6 10  1  0  0  0  0
  7  2  1  0  0  0  0
  9  6  1  0  0  0  0
  9 13  1  0  0  0  0
  9 12  1  0  0  0  0
 11  6  1  0  0  0  0
 14  9  1  0  0  0  0
M  END
$$$$
