butane_opt
 OpenBabel08242015383D

 14 12  0  0  0  0  0  0  0  0999 V2000
   -3.9089    0.2199   -0.0447 C   0  0  0  0  0  0  0  0  0  0  0  0
   -2.6834   -0.5839    0.1017 C   0  0  0  0  0  0  0  0  0  0  0  0
   -4.8169   -0.3129    0.3124 H   0  0  0  0  0  0  0  0  0  0  0  0
   -3.8790    1.2581   -1.2642 H   0  0  0  0  0  0  0  0  0  0  0  0
   -3.8632    0.4268    0.5708 H   0  0  0  0  0  0  0  0  0  0  0  0
   -1.4212    0.2239    0.1041 C   0  0  0  0  0  0  0  0  0  0  0  0
   -2.7283   -1.3222   -0.7239 H   0  0  0  0  0  0  0  0  0  0  0  0
   -2.6875   -1.1791    1.0317 H   0  0  0  0  0  0  0  0  0  0  0  0
   -0.1803   -0.7194   -0.0467 C   0  0  0  0  0  0  0  0  0  0  0  0
   -1.5507    1.0633    1.1283 H   0  0  0  0  0  0  0  0  0  0  0  0
   -1.5285    0.8396   -0.8091 H   0  0  0  0  0  0  0  0  0  0  0  0
   -0.2556   -1.0742    0.6689 H   0  0  0  0  0  0  0  0  0  0  0  0
    0.6982   -0.2266    0.0974 H   0  0  0  0  0  0  0  0  0  0  0  0
   -0.0777   -1.6267   -1.0397 H   0  0  0  0  0  0  0  0  0  0  0  0
  1  2  1  0  0  0  0
  1  3  1  0  0  0  0
  1  5  1  0  0  0  0
  2  6  1  0  0  0  0
  2  8  1  0  0  0  0
  6 10  1  0  0  0  0
  7  2  1  0  0  0  0
  9 13  1  0  0  0  0
  9  6  1  0  0  0  0
  9 12  1  0  0  0  0
 11  6  1  0  0  0  0
 14  9  1  0  0  0  0
M  RAD  2   1   2   4   2
M  END
$$$$
