14
butane_opt
C  -3.974393   0.305435   0.107566
C  -2.705132  -0.644767  -0.060306
H  -4.917863  -0.322526  -0.030138
H  -4.122618   0.813889  -0.651539
H  -4.046756   1.128805   1.139624
C  -1.361486   0.120226  -0.063454
H  -2.695590  -1.402745  -1.011092
H  -2.546440  -1.147785   0.695211
C  -0.171541  -0.659859   0.127867
H  -1.433571   0.719608   0.747799
H  -1.046603   0.921793  -1.137518
H  -0.193562  -1.510227   1.183084
H   0.730925   0.037600  -0.189646
H  -0.196223  -1.172556  -0.633907
