butane_opt
 OpenBabel08242015383D

 14 13  0  0  0  0  0  0  0  0999 V2000
   -3.8783    0.2247    0.1081 C   0  0  0  0  0  0  0  0  0  0  0  0
   -2.7189   -0.5803   -0.1099 C   0  0  0  0  0  0  0  0  0  0  0  0
   -4.8202   -0.3884    0.5462 H   0  0  0  0  0  0  0  0  0  0  0  0
   -4.1566    1.0802   -0.7897 H   0  0  0  0  0  0  0  0  0  0  0  0
   -3.5930    0.7640    0.8906 H   0  0  0  0  0  0  0  0  0  0  0  0
   -1.4152    0.2378   -0.0442 C   0  0  0  0  0  0  0  0  0  0  0  0
   -2.7708   -1.4683   -1.0482 H   0  0  0  0  0  0  0  0  0  0  0  0
   -2.7087   -1.1139    0.6699 H   0  0  0  0  0  0  0  0  0  0  0  0
   -0.1999   -0.7530    0.1229 C   0  0  0  0  0  0  0  0  0  0  0  0
   -1.6265    0.8582    0.7457 H   0  0  0  0  0  0  0  0  0  0  0  0
   -1.3053    1.0133   -1.0256 H   0  0  0  0  0  0  0  0  0  0  0  0
   -0.2386   -1.3735    1.0180 H   0  0  0  0  0  0  0  0  0  0  0  0
    0.7378   -0.1715    0.0787 H   0  0  0  0  0  0  0  0  0  0  0  0
    0.0186   -1.2146   -0.5870 H   0  0  0  0  0  0  0  0  0  0  0  0
  1  3  1  0  0  0  0
  1  5  1  0  0  0  0
  2  6  1  0  0  0  0
  2  1  1  0  0  0  0
  2  8  1  0  0  0  0
  4  1  1  0  0  0  0
  6  9  1  0  0  0  0
  6 10  1  0  0  0  0
  7  2  1  0  0  0  0
  9 12  1  0  0  0  0
 11  6  1  0  0  0  0
 13  9  1  0  0  0  0
 14  9  1  0  0  0  0
M  END
$$$$
