butane_opt
 OpenBabel08242015383D

 14 13  0  0  0  0  0  0  0  0999 V2000
   -3.9825    0.2371   -0.0812 C   0  0  0  0  0  0  0  0  0  0  0  0
   -2.7059   -0.6089    0.1227 C   0  0  0  0  0  0  0  0  0  0  0  0
   -4.8379   -0.2578   -0.1612 H   0  0  0  0  0  0  0  0  0  0  0  0
   -3.8182    0.6091   -0.8707 H   0  0  0  0  0  0  0  0  0  0  0  0
   -4.1071    1.0709    0.8678 H   0  0  0  0  0  0  0  0  0  0  0  0
   -1.4192    0.2183    0.1032 C   0  0  0  0  0  0  0  0  0  0  0  0
   -2.5746   -1.0284   -0.5334 H   0  0  0  0  0  0  0  0  0  0  0  0
   -2.8455   -1.3572    1.1352 H   0  0  0  0  0  0  0  0  0  0  0  0
   -0.1086   -0.7291   -0.0613 C   0  0  0  0  0  0  0  0  0  0  0  0
   -1.3488    0.9633    1.0162 H   0  0  0  0  0  0  0  0  0  0  0  0
   -1.4036    0.8409   -0.7250 H   0  0  0  0  0  0  0  0  0  0  0  0
   -0.0453   -1.3530    0.7618 H   0  0  0  0  0  0  0  0  0  0  0  0
    0.8043   -0.1023   -0.1504 H   0  0  0  0  0  0  0  0  0  0  0  0
   -0.2364   -1.2809   -0.8668 H   0  0  0  0  0  0  0  0  0  0  0  0
  1  2  1  0  0  0  0
  1  5  1  0  0  0  0
  2  8  1  0  0  0  0
  3  1  1  0  0  0  0
  4  1  1  0  0  0  0
  6  2  1  0  0  0  0
  6 10  1  0  0  0  0
  7  2  1  0  0  0  0
  9  6  1  0  0  0  0
  9 12  1  0  0  0  0
 11  6  1  0  0  0  0
 13  9  1  0  0  0  0
 14  9  1  0  0  0  0
M  END
$$$$
