butane_opt
 OpenBabel08242015383D

 14 12  0  0  0  0  0  0  0  0999 V2000
   -3.9534    0.2968    0.0955 C   0  0  0  0  0  0  0  0  0  0  0  0
   -2.7266   -0.6740   -0.0997 C   0  0  0  0  0  0  0  0  0  0  0  0
   -4.8289   -0.2416   -0.0494 H   0  0  0  0  0  0  0  0  0  0  0  0
   -4.0361    0.7559   -0.6671 H   0  0  0  0  0  0  0  0  0  0  0  0
   -3.9751    1.1785    1.1731 H   0  0  0  0  0  0  0  0  0  0  0  0
   -1.3927    0.1654   -0.0282 C   0  0  0  0  0  0  0  0  0  0  0  0
   -2.6894   -1.2537   -0.8653 H   0  0  0  0  0  0  0  0  0  0  0  0
   -2.7095   -1.2134    0.7363 H   0  0  0  0  0  0  0  0  0  0  0  0
   -0.1489   -0.6781    0.1082 C   0  0  0  0  0  0  0  0  0  0  0  0
   -1.4615    0.8853    0.8322 H   0  0  0  0  0  0  0  0  0  0  0  0
   -1.2938    0.7505   -0.9869 H   0  0  0  0  0  0  0  0  0  0  0  0
    0.0727   -1.7458    1.2652 H   0  0  0  0  0  0  0  0  0  0  0  0
    0.9009    0.0372   -0.3998 H   0  0  0  0  0  0  0  0  0  0  0  0
   -0.3771   -0.9105   -0.4348 H   0  0  0  0  0  0  0  0  0  0  0  0
  1  5  1  0  0  0  0
  2  6  1  0  0  0  0
  2  1  1  0  0  0  0
  2  8  1  0  0  0  0
  3  1  1  0  0  0  0
  4  1  1  0  0  0  0
  6  9  1  0  0  0  0
  6 10  1  0  0  0  0
  7  2  1  0  0  0  0
 11  6  1  0  0  0  0
 13  9  1  0  0  0  0
 14  9  1  0  0  0  0
M  RAD  2   9   2  12   2
M  END
$$$$
