14
butane_opt
C  -3.946554   0.231974  -0.101313
C  -2.705206  -0.559789   0.112571
H  -4.959791  -0.420258  -0.014551
H  -3.843973   0.769776  -1.006423
H  -3.976275   0.883557   0.752893
C  -1.433568   0.216263   0.167742
H  -2.714977  -1.117021  -0.609607
H  -2.873744  -1.304276   1.014586
C  -0.105643  -0.706884  -0.082282
H  -1.327731   0.907115   1.091499
H  -1.590197   0.733252  -0.598253
H   0.104649  -1.632144   0.947017
H   0.776207  -0.201592  -0.372792
H  -0.322359  -1.264467  -0.890272
