butane_opt
 OpenBabel08242015383D

 14 12  0  0  0  0  0  0  0  0999 V2000
   -3.9741    0.2447   -0.0460 C   0  0  0  0  0  0  0  0  0  0  0  0
   -2.7265   -0.5829    0.1120 C   0  0  0  0  0  0  0  0  0  0  0  0
   -4.8503   -0.3262    0.1828 H   0  0  0  0  0  0  0  0  0  0  0  0
   -3.9819    0.9070   -1.0159 H   0  0  0  0  0  0  0  0  0  0  0  0
   -3.8327    0.6985    0.7286 H   0  0  0  0  0  0  0  0  0  0  0  0
   -1.3992    0.2368    0.0276 C   0  0  0  0  0  0  0  0  0  0  0  0
   -2.6433   -1.1442   -0.6346 H   0  0  0  0  0  0  0  0  0  0  0  0
   -2.9719   -1.3793    1.1400 H   0  0  0  0  0  0  0  0  0  0  0  0
   -0.1211   -0.7470   -0.0074 C   0  0  0  0  0  0  0  0  0  0  0  0
   -1.2731    1.0324    0.9913 H   0  0  0  0  0  0  0  0  0  0  0  0
   -1.3917    0.8386   -0.7770 H   0  0  0  0  0  0  0  0  0  0  0  0
   -0.2889   -1.0203    0.6360 H   0  0  0  0  0  0  0  0  0  0  0  0
    0.8110   -0.1472    0.2592 H   0  0  0  0  0  0  0  0  0  0  0  0
    0.0581   -1.7620   -1.1550 H   0  0  0  0  0  0  0  0  0  0  0  0
  1  2  1  0  0  0  0
  1  3  1  0  0  0  0
  1  5  1  0  0  0  0
  2  8  1  0  0  0  0
  4  1  1  0  0  0  0
  6  2  1  0  0  0  0
  6 10  1  0  0  0  0
  7  2  1  0  0  0  0
  9  6  1  0  0  0  0
  9 13  1  0  0  0  0
  9 12  1  0  0  0  0
 11  6  1  0  0  0  0
M  RAD  2   9   2  14   2
M  END
$$$$
