butane_opt
 OpenBabel08242015383D

 14 12  0  0  0  0  0  0  0  0999 V2000
   -3.9903    0.3056   -0.0442 C   0  0  0  0  0  0  0  0  0  0  0  0
   -2.6663   -0.6757    0.0803 C   0  0  0  0  0  0  0  0  0  0  0  0
   -4.9979   -0.2892    0.4146 H   0  0  0  0  0  0  0  0  0  0  0  0
   -4.1005    1.3101   -1.1873 H   0  0  0  0  0  0  0  0  0  0  0  0
   -4.1077    0.5825    0.5641 H   0  0  0  0  0  0  0  0  0  0  0  0
   -1.3615    0.1454    0.1221 C   0  0  0  0  0  0  0  0  0  0  0  0
   -2.5684   -1.3129   -0.7861 H   0  0  0  0  0  0  0  0  0  0  0  0
   -2.6869   -1.1914    0.8422 H   0  0  0  0  0  0  0  0  0  0  0  0
   -0.1702   -0.6586   -0.0378 C   0  0  0  0  0  0  0  0  0  0  0  0
   -1.2068    0.8836    1.1018 H   0  0  0  0  0  0  0  0  0  0  0  0
   -1.5682    0.7361   -0.7879 H   0  0  0  0  0  0  0  0  0  0  0  0
   -0.1852   -1.2088    0.7757 H   0  0  0  0  0  0  0  0  0  0  0  0
    0.8292    0.0284    0.0229 H   0  0  0  0  0  0  0  0  0  0  0  0
   -0.1791   -1.4031   -0.9813 H   0  0  0  0  0  0  0  0  0  0  0  0
  1  2  1  0  0  0  0
  1  3  1  0  0  0  0
  1  5  1  0  0  0  0
  2  6  1  0  0  0  0
  2  8  1  0  0  0  0
  6 10  1  0  0  0  0
  7  2  1  0  0  0  0
  9 13  1  0  0  0  0
  9  6  1  0  0  0  0
  9 12  1  0  0  0  0
 11  6  1  0  0  0  0
 14  9  1  0  0  0  0
M  RAD  2   1   2   4   2
M  END
$$$$
