14
butane_opt
C  -3.965560   0.284465  -0.071633
C  -2.711815  -0.627604   0.147089
H  -4.845969  -0.151417  -0.286580
H  -3.884806   0.693217  -0.788331
H  -4.248864   1.220853   0.991472
C  -1.401832   0.141137   0.069073
H  -2.667681  -1.415497  -0.713868
H  -2.891135  -1.371146   1.116687
C  -0.111599  -0.660679  -0.028528
H  -1.324357   0.701688   0.887405
H  -1.297430   0.850048  -0.851466
H  -0.071352  -1.242836   0.845173
H   0.794207  -0.086806  -0.180077
H  -0.303200  -1.304419  -0.948338
