14
butane_opt
C  -3.921077   0.294601  -0.054117
C  -2.723556  -0.633605   0.095486
H  -4.844953  -0.239592   0.351794
H  -4.089982   1.454460  -1.241889
H  -3.831422   0.513067   0.510968
C  -1.401644   0.131250   0.133531
H  -2.559120  -1.374591  -0.703003
H  -2.731691  -1.279398   0.966117
C  -0.160429  -0.667153  -0.061734
H  -1.240503   0.905895   1.038705
H  -1.497666   0.680521  -0.723791
H  -0.379686  -1.093268   0.737599
H   0.868360   0.062944   0.128386
H  -0.251504  -1.577244  -1.055192
