butane_opt
 OpenBabel08242015383D

 14 12  0  0  0  0  0  0  0  0999 V2000
   -3.9115    0.2749   -0.0795 C   0  0  0  0  0  0  0  0  0  0  0  0
   -2.7237   -0.5867    0.0915 C   0  0  0  0  0  0  0  0  0  0  0  0
   -4.9080   -0.4708    0.4355 H   0  0  0  0  0  0  0  0  0  0  0  0
   -4.0333    1.1819   -1.1653 H   0  0  0  0  0  0  0  0  0  0  0  0
   -3.8072    0.5079    0.4420 H   0  0  0  0  0  0  0  0  0  0  0  0
   -1.4151    0.1832    0.1213 C   0  0  0  0  0  0  0  0  0  0  0  0
   -2.6189   -1.2150   -0.7628 H   0  0  0  0  0  0  0  0  0  0  0  0
   -2.6066   -1.3725    1.1231 H   0  0  0  0  0  0  0  0  0  0  0  0
   -0.1728   -0.7040   -0.0481 C   0  0  0  0  0  0  0  0  0  0  0  0
   -1.3834    1.0762    1.1784 H   0  0  0  0  0  0  0  0  0  0  0  0
   -1.3751    0.5542   -0.5580 H   0  0  0  0  0  0  0  0  0  0  0  0
   -0.0124   -1.1739    0.7580 H   0  0  0  0  0  0  0  0  0  0  0  0
    0.6756   -0.1015   -0.1028 H   0  0  0  0  0  0  0  0  0  0  0  0
   -0.2625   -1.4733   -0.9946 H   0  0  0  0  0  0  0  0  0  0  0  0
  1  2  1  0  0  0  0
  1  3  1  0  0  0  0
  2  6  1  0  0  0  0
  2  8  1  0  0  0  0
  4  1  1  0  0  0  0
  6 10  1  0  0  0  0
  7  2  1  0  0  0  0
  9  6  1  0  0  0  0
  9 12  1  0  0  0  0
 11  6  1  0  0  0  0
 13  9  1  0  0  0  0
 14  9  1  0  0  0  0
M  RAD  2   1   2   5   2
M  END
$$$$
