14
butane_opt
C  -3.944557   0.228795  -0.095870
C  -2.701849  -0.603917   0.190404
H  -4.834147  -0.275447  -0.405718
H  -3.840317   0.635492  -0.862121
H  -3.999751   1.008439   0.925746
C  -1.433467   0.260079   0.074341
H  -2.623560  -1.153604  -0.567625
H  -2.928255  -1.332072   1.210711
C  -0.123377  -0.732894  -0.065630
H  -1.437994   0.875910   0.914385
H  -1.467983   0.831142  -0.686591
H  -0.054278  -1.203357   0.677860
H   0.765906  -0.214546  -0.027849
H  -0.148459  -1.476205  -0.990189
