butane_opt
 OpenBabel08242015383D

 14 13  0  0  0  0  0  0  0  0999 V2000
   -3.9739    0.2890   -0.0666 C   0  0  0  0  0  0  0  0  0  0  0  0
   -2.6805   -0.6220    0.1186 C   0  0  0  0  0  0  0  0  0  0  0  0
   -4.8041   -0.2928   -0.2181 H   0  0  0  0  0  0  0  0  0  0  0  0
   -3.7081    0.8108   -0.9667 H   0  0  0  0  0  0  0  0  0  0  0  0
   -4.0537    0.8581    0.7220 H   0  0  0  0  0  0  0  0  0  0  0  0
   -1.3890    0.1743    0.1383 C   0  0  0  0  0  0  0  0  0  0  0  0
   -2.5030   -1.1985   -0.6620 H   0  0  0  0  0  0  0  0  0  0  0  0
   -2.7911   -1.2991    1.1262 H   0  0  0  0  0  0  0  0  0  0  0  0
   -0.1972   -0.6927   -0.0528 C   0  0  0  0  0  0  0  0  0  0  0  0
   -1.3095    0.8339    0.9776 H   0  0  0  0  0  0  0  0  0  0  0  0
   -1.3587    0.7039   -0.6980 H   0  0  0  0  0  0  0  0  0  0  0  0
    0.1327   -1.3663    0.8046 H   0  0  0  0  0  0  0  0  0  0  0  0
    0.7956   -0.0666   -0.2955 H   0  0  0  0  0  0  0  0  0  0  0  0
   -0.5526   -1.2204   -0.9740 H   0  0  0  0  0  0  0  0  0  0  0  0
  1  2  1  0  0  0  0
  1  5  1  0  0  0  0
  2  6  1  0  0  0  0
  2  8  1  0  0  0  0
  3  1  1  0  0  0  0
  4  1  1  0  0  0  0
  6 10  1  0  0  0  0
  7  2  1  0  0  0  0
  9  6  1  0  0  0  0
  9 12  1  0  0  0  0
 11  6  1  0  0  0  0
 13  9  1  0  0  0  0
 14  9  1  0  0  0  0
M  END
$$$$
