14
butane_opt
C  -3.865889   0.230213   0.049552
C  -2.710891  -0.566757   0.002658
H  -4.926906  -0.424343  -0.244496
H  -3.778168   0.545488  -0.649096
H  -4.033364   1.174236   1.077877
C  -1.441306   0.224560  -0.038430
H  -2.782978  -1.117109  -0.719063
H  -2.735347  -1.349079   0.918761
C  -0.179815  -0.732748   0.066294
H  -1.328991   0.825365   0.816558
H  -1.435096   0.863299  -0.903147
H  -0.089868  -1.378912   0.978358
H   0.577648  -0.259110  -0.115266
H  -0.082708  -1.245603  -0.642906
