14
butane_opt
C  -3.943708   0.276963   0.101323
C  -2.681845  -0.619874  -0.056967
H  -4.772118  -0.346529   0.040059
H  -3.903244   0.837537  -0.723812
H  -3.896397   1.132768   1.121319
C  -1.419856   0.150363  -0.049688
H  -2.786342  -1.590568  -1.159863
H  -2.587098  -1.071759   0.695788
C  -0.162635  -0.668723   0.121293
H  -1.659329   0.761365   0.729614
H  -1.333431   0.774492  -1.014656
H  -0.166112  -1.645952   1.291329
H   0.851503   0.029619  -0.410957
H  -0.300659  -0.968494  -0.485522
