butane_opt
 OpenBabel08242015383D

 14 13  0  0  0  0  0  0  0  0999 V2000
   -3.9361    0.3008   -0.0759 C   0  0  0  0  0  0  0  0  0  0  0  0
   -2.6891   -0.6595    0.1703 C   0  0  0  0  0  0  0  0  0  0  0  0
   -4.8584   -0.2551   -0.2688 H   0  0  0  0  0  0  0  0  0  0  0  0
   -3.7811    0.9821   -0.9730 H   0  0  0  0  0  0  0  0  0  0  0  0
   -4.2211    1.0139    0.7988 H   0  0  0  0  0  0  0  0  0  0  0  0
   -1.4025    0.1331    0.1062 C   0  0  0  0  0  0  0  0  0  0  0  0
   -2.6168   -1.3329   -0.6400 H   0  0  0  0  0  0  0  0  0  0  0  0
   -2.7004   -1.2917    1.0536 H   0  0  0  0  0  0  0  0  0  0  0  0
   -0.1942   -0.6507   -0.0607 C   0  0  0  0  0  0  0  0  0  0  0  0
   -1.0488    0.7789    0.9580 H   0  0  0  0  0  0  0  0  0  0  0  0
   -1.4003    0.8476   -0.7870 H   0  0  0  0  0  0  0  0  0  0  0  0
   -0.2471   -1.1922    0.7423 H   0  0  0  0  0  0  0  0  0  0  0  0
    0.6902   -0.0204   -0.1044 H   0  0  0  0  0  0  0  0  0  0  0  0
   -0.1800   -1.4980   -1.0368 H   0  0  0  0  0  0  0  0  0  0  0  0
  1  2  1  0  0  0  0
  1  5  1  0  0  0  0
  2  8  1  0  0  0  0
  3  1  1  0  0  0  0
  4  1  1  0  0  0  0
  6  2  1  0  0  0  0
  6 10  1  0  0  0  0
  7  2  1  0  0  0  0
  9  6  1  0  0  0  0
  9 12  1  0  0  0  0
 11  6  1  0  0  0  0
 13  9  1  0  0  0  0
 14  9  1  0  0  0  0
M  END
$$$$
