14
butane_opt
C  -3.963960   0.273986  -0.017107
C  -2.700794  -0.625040   0.084987
H  -4.836636  -0.283079  -0.082922
H  -3.910779   0.850430  -0.894627
H  -4.050485   0.975593   0.862617
C  -1.382624   0.175122   0.043552
H  -2.666343  -1.286528  -0.753431
H  -2.729540  -1.276523   0.996823
C  -0.162870  -0.685789   0.007369
H  -1.379399   0.830905   0.860617
H  -1.368905   0.782401  -0.850462
H  -0.089624  -1.247064   0.842489
H   0.727829  -0.074119  -0.082681
H  -0.200719  -1.398486  -0.888262
