14
butane_opt
C  -3.921343   0.248707  -0.090539
C  -2.706221  -0.588329   0.108376
H  -4.886711  -0.419779   0.144250
H  -3.949231   0.842320  -0.964681
H  -3.984378   0.717038   0.661436
C  -1.445117   0.219042   0.158363
H  -2.743434  -1.293060  -0.843390
H  -2.810133  -1.230901   0.988363
C  -0.138287  -0.710457  -0.051264
H  -1.292722   1.008511   1.027998
H  -1.451659   0.871282  -0.719455
H   0.253235  -1.522719   0.938512
H   0.639680  -0.243818  -0.348420
H  -0.257049  -1.253714  -0.920196
