14
butane_opt
C  -3.916529   0.213020   0.104899
C  -2.695161  -0.576390  -0.031448
H  -4.710730  -0.258846  -0.192649
H  -3.771744   0.466832  -0.553130
H  -4.046735   1.210850   1.138229
C  -1.449195   0.236547  -0.081499
H  -2.779497  -1.341307  -0.891925
H  -2.662063  -1.091514   0.800687
C  -0.169294  -0.723766   0.127317
H  -1.572272   0.627521   0.582462
H  -1.262497   0.989113  -1.135114
H  -0.080384  -1.494773   1.063612
H   0.694467  -0.083278  -0.066296
H  -0.079077  -1.285099  -0.691798
