butane_opt
 OpenBabel08242015383D

 14 13  0  0  0  0  0  0  0  0999 V2000
   -3.8938    0.2214   -0.0374 C   0  0  0  0  0  0  0  0  0  0  0  0
   -2.7128   -0.5800    0.1180 C   0  0  0  0  0  0  0  0  0  0  0  0
   -4.8001   -0.3783   -0.1321 H   0  0  0  0  0  0  0  0  0  0  0  0
   -3.7937    0.8291   -0.9392 H   0  0  0  0  0  0  0  0  0  0  0  0
   -3.9841    0.8485    0.8667 H   0  0  0  0  0  0  0  0  0  0  0  0
   -1.4388    0.2372    0.0532 C   0  0  0  0  0  0  0  0  0  0  0  0
   -2.6272   -1.1777   -0.6354 H   0  0  0  0  0  0  0  0  0  0  0  0
   -2.7864   -1.2750    1.0820 H   0  0  0  0  0  0  0  0  0  0  0  0
   -0.1454   -0.7439   -0.0199 C   0  0  0  0  0  0  0  0  0  0  0  0
   -1.3546    0.8241    0.8370 H   0  0  0  0  0  0  0  0  0  0  0  0
   -1.6654    1.0239   -0.8557 H   0  0  0  0  0  0  0  0  0  0  0  0
   -0.2721   -1.0260    0.6560 H   0  0  0  0  0  0  0  0  0  0  0  0
    0.6877   -0.1897    0.2097 H   0  0  0  0  0  0  0  0  0  0  0  0
   -0.1014   -1.5960   -1.0347 H   0  0  0  0  0  0  0  0  0  0  0  0
  1  2  1  0  0  0  0
  1  5  1  0  0  0  0
  2  8  1  0  0  0  0
  3  1  1  0  0  0  0
  4  1  1  0  0  0  0
  6  2  1  0  0  0  0
  6 10  1  0  0  0  0
  7  2  1  0  0  0  0
  9  6  1  0  0  0  0
  9 13  1  0  0  0  0
  9 12  1  0  0  0  0
 11  6  1  0  0  0  0
 14  9  1  0  0  0  0
M  END
$$$$
