butane_opt
 OpenBabel08242015383D

 14 13  0  0  0  0  0  0  0  0999 V2000
   -3.9899    0.2270   -0.0719 C   0  0  0  0  0  0  0  0  0  0  0  0
   -2.6775   -0.5685    0.0897 C   0  0  0  0  0  0  0  0  0  0  0  0
   -4.9762   -0.4230    0.0209 H   0  0  0  0  0  0  0  0  0  0  0  0
   -3.8900    0.9624   -1.2000 H   0  0  0  0  0  0  0  0  0  0  0  0
   -3.9683    0.8466    0.7598 H   0  0  0  0  0  0  0  0  0  0  0  0
   -1.4082    0.2029    0.1622 C   0  0  0  0  0  0  0  0  0  0  0  0
   -2.7596   -1.1740   -0.7169 H   0  0  0  0  0  0  0  0  0  0  0  0
   -2.7436   -1.3504    1.0784 H   0  0  0  0  0  0  0  0  0  0  0  0
   -0.1310   -0.7081   -0.0470 C   0  0  0  0  0  0  0  0  0  0  0  0
   -1.3953    0.9510    1.0602 H   0  0  0  0  0  0  0  0  0  0  0  0
   -1.3731    0.8324   -0.6362 H   0  0  0  0  0  0  0  0  0  0  0  0
    0.1617   -1.4068    0.8582 H   0  0  0  0  0  0  0  0  0  0  0  0
    0.6953   -0.1949   -0.4595 H   0  0  0  0  0  0  0  0  0  0  0  0
   -0.2712   -1.3613   -0.9486 H   0  0  0  0  0  0  0  0  0  0  0  0
  1  3  1  0  0  0  0
  1  2  1  0  0  0  0
  1  5  1  0  0  0  0
  2  6  1  0  0  0  0
  2  8  1  0  0  0  0
  4  1  1  0  0  0  0
  6 10  1  0  0  0  0
  7  2  1  0  0  0  0
  9  6  1  0  0  0  0
  9 12  1  0  0  0  0
 11  6  1  0  0  0  0
 13  9  1  0  0  0  0
 14  9  1  0  0  0  0
M  END
$$$$
