14
butane_opt
C  -3.948944   0.267006   0.034751
C  -2.706705  -0.624577   0.016126
H  -4.853196  -0.329175   0.196424
H  -4.029171   0.956002  -0.916142
H  -3.932446   0.847489   0.863539
C  -1.412933   0.199776  -0.002411
H  -2.716784  -1.352314  -0.881794
H  -2.726683  -1.186372   0.844026
C  -0.147145  -0.698375   0.053078
H  -1.381923   0.850279   0.842172
H  -1.378941   0.793830  -0.892804
H  -0.129790  -1.326696   0.943678
H   0.789334  -0.074903   0.034575
H  -0.081917  -1.363398  -0.812809
