butane_opt
 OpenBabel08242015383D

 14 12  0  0  0  0  0  0  0  0999 V2000
   -3.9404    0.2333   -0.0825 C   0  0  0  0  0  0  0  0  0  0  0  0
   -2.6974   -0.5887    0.1524 C   0  0  0  0  0  0  0  0  0  0  0  0
   -4.8948   -0.4038    0.0729 H   0  0  0  0  0  0  0  0  0  0  0  0
   -4.0160    1.0219   -1.0118 H   0  0  0  0  0  0  0  0  0  0  0  0
   -3.8164    0.7102    0.6540 H   0  0  0  0  0  0  0  0  0  0  0  0
   -1.4233    0.2432    0.0603 C   0  0  0  0  0  0  0  0  0  0  0  0
   -2.8851   -1.1043   -0.5411 H   0  0  0  0  0  0  0  0  0  0  0  0
   -2.8225   -1.3494    1.2307 H   0  0  0  0  0  0  0  0  0  0  0  0
   -0.1376   -0.7401   -0.0440 C   0  0  0  0  0  0  0  0  0  0  0  0
   -1.4210    0.9602    0.9845 H   0  0  0  0  0  0  0  0  0  0  0  0
   -1.5330    0.8172   -0.8282 H   0  0  0  0  0  0  0  0  0  0  0  0
   -0.1693   -0.9401    0.5616 H   0  0  0  0  0  0  0  0  0  0  0  0
    0.8533   -0.0464    0.4393 H   0  0  0  0  0  0  0  0  0  0  0  0
    0.0526   -1.9185   -1.2456 H   0  0  0  0  0  0  0  0  0  0  0  0
  1  3  1  0  0  0  0
  1  2  1  0  0  0  0
  1  5  1  0  0  0  0
  2  8  1  0  0  0  0
  4  1  1  0  0  0  0
  6  2  1  0  0  0  0
  6 10  1  0  0  0  0
  7  2  1  0  0  0  0
  9  6  1  0  0  0  0
  9 13  1  0  0  0  0
  9 12  1  0  0  0  0
 11  6  1  0  0  0  0
M  RAD  2   9   2  14   2
M  END
$$$$
