14
butane_opt
C  -3.935534   0.261151   0.044402
C  -2.721643  -0.603360  -0.003859
H  -4.879944  -0.359212   0.138721
H  -4.020653   0.901789  -0.891677
H  -3.907262   0.862707   0.867435
C  -1.405383   0.203208   0.005058
H  -2.759609  -1.335137  -0.905461
H  -2.681737  -1.233337   0.885465
C  -0.146470  -0.710166   0.062900
H  -1.418689   0.816362   0.830867
H  -1.364867   0.860647  -0.916066
H  -0.096806  -1.329564   0.956971
H   0.751044  -0.113521  -0.043143
H  -0.130493  -1.349840  -0.793272
