butane_opt
 OpenBabel08242015383D

 14 13  0  0  0  0  0  0  0  0999 V2000
   -3.9275    0.2271   -0.0969 C   0  0  0  0  0  0  0  0  0  0  0  0
   -2.7052   -0.5728    0.1899 C   0  0  0  0  0  0  0  0  0  0  0  0
   -4.8846   -0.4232   -0.4013 H   0  0  0  0  0  0  0  0  0  0  0  0
   -3.7660    0.7052   -0.9546 H   0  0  0  0  0  0  0  0  0  0  0  0
   -4.2129    1.0131    0.8907 H   0  0  0  0  0  0  0  0  0  0  0  0
   -1.4300    0.2427    0.0778 C   0  0  0  0  0  0  0  0  0  0  0  0
   -2.6879   -1.1665   -0.4959 H   0  0  0  0  0  0  0  0  0  0  0  0
   -2.9178   -1.4258    1.2630 H   0  0  0  0  0  0  0  0  0  0  0  0
   -0.1412   -0.7155   -0.0743 C   0  0  0  0  0  0  0  0  0  0  0  0
   -1.2343    1.0254    1.0080 H   0  0  0  0  0  0  0  0  0  0  0  0
   -1.5922    0.6986   -0.6672 H   0  0  0  0  0  0  0  0  0  0  0  0
    0.0453   -1.2875    0.7874 H   0  0  0  0  0  0  0  0  0  0  0  0
    0.6819   -0.2038   -0.0848 H   0  0  0  0  0  0  0  0  0  0  0  0
    0.0018   -1.5945   -1.0646 H   0  0  0  0  0  0  0  0  0  0  0  0
  1  2  1  0  0  0  0
  1  5  1  0  0  0  0
  2  8  1  0  0  0  0
  3  1  1  0  0  0  0
  4  1  1  0  0  0  0
  6  2  1  0  0  0  0
  6 10  1  0  0  0  0
  7  2  1  0  0  0  0
  9  6  1  0  0  0  0
  9 12  1  0  0  0  0
 11  6  1  0  0  0  0
 13  9  1  0  0  0  0
 14  9  1  0  0  0  0
M  END
$$$$
