butane_opt
 OpenBabel08242015383D

 14 12  0  0  0  0  0  0  0  0999 V2000
   -3.9028    0.2476   -0.0734 C   0  0  0  0  0  0  0  0  0  0  0  0
   -2.6772   -0.5826    0.1402 C   0  0  0  0  0  0  0  0  0  0  0  0
   -4.9382   -0.4813    0.0377 H   0  0  0  0  0  0  0  0  0  0  0  0
   -3.8921    0.9229   -1.0733 H   0  0  0  0  0  0  0  0  0  0  0  0
   -3.7630    0.7180    0.7717 H   0  0  0  0  0  0  0  0  0  0  0  0
   -1.4568    0.2331    0.1030 C   0  0  0  0  0  0  0  0  0  0  0  0
   -2.7233   -1.1597   -0.6483 H   0  0  0  0  0  0  0  0  0  0  0  0
   -2.7782   -1.4071    1.1648 H   0  0  0  0  0  0  0  0  0  0  0  0
   -0.1870   -0.7163   -0.0522 C   0  0  0  0  0  0  0  0  0  0  0  0
   -1.3786    0.8028    0.8208 H   0  0  0  0  0  0  0  0  0  0  0  0
   -1.5144    0.9019   -0.8728 H   0  0  0  0  0  0  0  0  0  0  0  0
   -0.0905   -1.0036    0.5578 H   0  0  0  0  0  0  0  0  0  0  0  0
    0.6982   -0.1843    0.3908 H   0  0  0  0  0  0  0  0  0  0  0  0
    0.0390   -1.7665   -1.1680 H   0  0  0  0  0  0  0  0  0  0  0  0
  1  3  1  0  0  0  0
  1  2  1  0  0  0  0
  1  5  1  0  0  0  0
  2  8  1  0  0  0  0
  4  1  1  0  0  0  0
  6  2  1  0  0  0  0
  6 10  1  0  0  0  0
  7  2  1  0  0  0  0
  9  6  1  0  0  0  0
  9 13  1  0  0  0  0
  9 12  1  0  0  0  0
 11  6  1  0  0  0  0
M  RAD  2   9   2  14   2
M  END
$$$$
