butane_opt
 OpenBabel08242015383D

 14 13  0  0  0  0  0  0  0  0999 V2000
   -3.9374    0.2282   -0.0941 C   0  0  0  0  0  0  0  0  0  0  0  0
   -2.6907   -0.5643    0.2062 C   0  0  0  0  0  0  0  0  0  0  0  0
   -4.7859   -0.4250   -0.5178 H   0  0  0  0  0  0  0  0  0  0  0  0
   -3.6532    0.7184   -0.9205 H   0  0  0  0  0  0  0  0  0  0  0  0
   -3.9961    1.0641    0.8927 H   0  0  0  0  0  0  0  0  0  0  0  0
   -1.4129    0.2101    0.1060 C   0  0  0  0  0  0  0  0  0  0  0  0
   -2.5755   -1.1964   -0.5641 H   0  0  0  0  0  0  0  0  0  0  0  0
   -2.9154   -1.2773    1.1780 H   0  0  0  0  0  0  0  0  0  0  0  0
   -0.1912   -0.7305   -0.0665 C   0  0  0  0  0  0  0  0  0  0  0  0
   -1.2317    0.8789    0.9082 H   0  0  0  0  0  0  0  0  0  0  0  0
   -1.4375    0.9170   -0.8757 H   0  0  0  0  0  0  0  0  0  0  0  0
    0.0226   -1.1366    0.6416 H   0  0  0  0  0  0  0  0  0  0  0  0
    0.6195   -0.2324   -0.1055 H   0  0  0  0  0  0  0  0  0  0  0  0
   -0.2647   -1.5230   -1.0151 H   0  0  0  0  0  0  0  0  0  0  0  0
  1  2  1  0  0  0  0
  1  5  1  0  0  0  0
  2  8  1  0  0  0  0
  3  1  1  0  0  0  0
  4  1  1  0  0  0  0
  6  2  1  0  0  0  0
  6 10  1  0  0  0  0
  7  2  1  0  0  0  0
  9  6  1  0  0  0  0
  9 12  1  0  0  0  0
 11  6  1  0  0  0  0
 13  9  1  0  0  0  0
 14  9  1  0  0  0  0
M  END
$$$$
