butane_opt
 OpenBabel08242015383D

 14 13  0  0  0  0  0  0  0  0999 V2000
   -3.9744    0.3054    0.1076 C   0  0  0  0  0  0  0  0  0  0  0  0
   -2.7051   -0.6448   -0.0603 C   0  0  0  0  0  0  0  0  0  0  0  0
   -4.9179   -0.3225   -0.0301 H   0  0  0  0  0  0  0  0  0  0  0  0
   -4.1226    0.8139   -0.6515 H   0  0  0  0  0  0  0  0  0  0  0  0
   -4.0468    1.1288    1.1396 H   0  0  0  0  0  0  0  0  0  0  0  0
   -1.3615    0.1202   -0.0635 C   0  0  0  0  0  0  0  0  0  0  0  0
   -2.6956   -1.4027   -1.0111 H   0  0  0  0  0  0  0  0  0  0  0  0
   -2.5464   -1.1478    0.6952 H   0  0  0  0  0  0  0  0  0  0  0  0
   -0.1715   -0.6599    0.1279 C   0  0  0  0  0  0  0  0  0  0  0  0
   -1.4336    0.7196    0.7478 H   0  0  0  0  0  0  0  0  0  0  0  0
   -1.0466    0.9218   -1.1375 H   0  0  0  0  0  0  0  0  0  0  0  0
   -0.1936   -1.5102    1.1831 H   0  0  0  0  0  0  0  0  0  0  0  0
    0.7309    0.0376   -0.1896 H   0  0  0  0  0  0  0  0  0  0  0  0
   -0.1962   -1.1726   -0.6339 H   0  0  0  0  0  0  0  0  0  0  0  0
  1  5  1  0  0  0  0
  2  1  1  0  0  0  0
  2  8  1  0  0  0  0
  3  1  1  0  0  0  0
  4  1  1  0  0  0  0
  6  2  1  0  0  0  0
  6  9  1  0  0  0  0
  6 10  1  0  0  0  0
  7  2  1  0  0  0  0
  9 12  1  0  0  0  0
 11  6  1  0  0  0  0
 13  9  1  0  0  0  0
 14  9  1  0  0  0  0
M  END
$$$$
