14
butane_opt
C  -3.936122   0.300768  -0.075870
C  -2.689093  -0.659470   0.170272
H  -4.858367  -0.255058  -0.268763
H  -3.781051   0.982062  -0.973030
H  -4.221068   1.013941   0.798784
C  -1.402518   0.133086   0.106241
H  -2.616799  -1.332885  -0.640022
H  -2.700373  -1.291694   1.053650
C  -0.194225  -0.650721  -0.060680
H  -1.048819   0.778947   0.957963
H  -1.400292   0.847602  -0.786958
H  -0.247079  -1.192153   0.742314
H   0.690216  -0.020384  -0.104401
H  -0.180015  -1.497980  -1.036771
