butane_opt
 OpenBabel08242015383D

 14 13  0  0  0  0  0  0  0  0999 V2000
   -3.9857    0.3081    0.0990 C   0  0  0  0  0  0  0  0  0  0  0  0
   -2.6970   -0.6739   -0.0076 C   0  0  0  0  0  0  0  0  0  0  0  0
   -4.8274   -0.2187   -0.0389 H   0  0  0  0  0  0  0  0  0  0  0  0
   -4.0225    0.8618   -0.7296 H   0  0  0  0  0  0  0  0  0  0  0  0
   -4.0627    1.1165    1.0604 H   0  0  0  0  0  0  0  0  0  0  0  0
   -1.3659    0.1636   -0.1258 C   0  0  0  0  0  0  0  0  0  0  0  0
   -2.8305   -1.3829   -0.8801 H   0  0  0  0  0  0  0  0  0  0  0  0
   -2.6739   -1.3801    0.9183 H   0  0  0  0  0  0  0  0  0  0  0  0
   -0.1788   -0.6368    0.1130 C   0  0  0  0  0  0  0  0  0  0  0  0
   -1.3554    0.8295    0.7404 H   0  0  0  0  0  0  0  0  0  0  0  0
   -1.1900    0.6609   -1.0303 H   0  0  0  0  0  0  0  0  0  0  0  0
   -0.2655   -1.2224    0.9784 H   0  0  0  0  0  0  0  0  0  0  0  0
    0.7196   -0.0914    0.2132 H   0  0  0  0  0  0  0  0  0  0  0  0
    0.1727   -1.5449   -0.7554 H   0  0  0  0  0  0  0  0  0  0  0  0
  1  5  1  0  0  0  0
  2  1  1  0  0  0  0
  2  8  1  0  0  0  0
  3  1  1  0  0  0  0
  4  1  1  0  0  0  0
  6  2  1  0  0  0  0
  6  9  1  0  0  0  0
  6 10  1  0  0  0  0
  7  2  1  0  0  0  0
  9 13  1  0  0  0  0
  9 12  1  0  0  0  0
 11  6  1  0  0  0  0
 14  9  1  0  0  0  0
M  END
$$$$
