butane_opt
 OpenBabel08242015383D

 14 13  0  0  0  0  0  0  0  0999 V2000
   -3.9165    0.2130    0.1049 C   0  0  0  0  0  0  0  0  0  0  0  0
   -2.6952   -0.5764   -0.0314 C   0  0  0  0  0  0  0  0  0  0  0  0
   -4.7107   -0.2588   -0.1926 H   0  0  0  0  0  0  0  0  0  0  0  0
   -3.7717    0.4668   -0.5531 H   0  0  0  0  0  0  0  0  0  0  0  0
   -4.0467    1.2108    1.1382 H   0  0  0  0  0  0  0  0  0  0  0  0
   -1.4492    0.2365   -0.0815 C   0  0  0  0  0  0  0  0  0  0  0  0
   -2.7795   -1.3413   -0.8919 H   0  0  0  0  0  0  0  0  0  0  0  0
   -2.6621   -1.0915    0.8007 H   0  0  0  0  0  0  0  0  0  0  0  0
   -0.1693   -0.7238    0.1273 C   0  0  0  0  0  0  0  0  0  0  0  0
   -1.5723    0.6275    0.5825 H   0  0  0  0  0  0  0  0  0  0  0  0
   -1.2625    0.9891   -1.1351 H   0  0  0  0  0  0  0  0  0  0  0  0
   -0.0804   -1.4948    1.0636 H   0  0  0  0  0  0  0  0  0  0  0  0
    0.6945   -0.0833   -0.0663 H   0  0  0  0  0  0  0  0  0  0  0  0
   -0.0791   -1.2851   -0.6918 H   0  0  0  0  0  0  0  0  0  0  0  0
  1  5  1  0  0  0  0
  2  1  1  0  0  0  0
  2  8  1  0  0  0  0
  3  1  1  0  0  0  0
  4  1  1  0  0  0  0
  6  2  1  0  0  0  0
  6  9  1  0  0  0  0
  6 10  1  0  0  0  0
  7  2  1  0  0  0  0
  9 12  1  0  0  0  0
 11  6  1  0  0  0  0
 13  9  1  0  0  0  0
 14  9  1  0  0  0  0
M  END
$$$$
