butane_opt
 OpenBabel08242015383D

 14 13  0  0  0  0  0  0  0  0999 V2000
   -3.9590    0.2681   -0.0500 C   0  0  0  0  0  0  0  0  0  0  0  0
   -2.7015   -0.6495    0.1201 C   0  0  0  0  0  0  0  0  0  0  0  0
   -4.8626   -0.2190    0.0053 H   0  0  0  0  0  0  0  0  0  0  0  0
   -4.1630    0.9922   -0.9793 H   0  0  0  0  0  0  0  0  0  0  0  0
   -4.1466    0.9500    0.7752 H   0  0  0  0  0  0  0  0  0  0  0  0
   -1.3601    0.1699    0.0532 C   0  0  0  0  0  0  0  0  0  0  0  0
   -2.7719   -1.2398   -0.6980 H   0  0  0  0  0  0  0  0  0  0  0  0
   -2.7362   -1.4199    1.1231 H   0  0  0  0  0  0  0  0  0  0  0  0
   -0.1361   -0.6826   -0.0145 C   0  0  0  0  0  0  0  0  0  0  0  0
   -1.4367    0.8589    0.9176 H   0  0  0  0  0  0  0  0  0  0  0  0
   -1.4431    0.9653   -0.8497 H   0  0  0  0  0  0  0  0  0  0  0  0
   -0.1514   -0.8957    0.6006 H   0  0  0  0  0  0  0  0  0  0  0  0
    0.7136   -0.1068    0.1842 H   0  0  0  0  0  0  0  0  0  0  0  0
   -0.1194   -1.6478   -1.0018 H   0  0  0  0  0  0  0  0  0  0  0  0
  1  3  1  0  0  0  0
  1  2  1  0  0  0  0
  1  5  1  0  0  0  0
  2  8  1  0  0  0  0
  4  1  1  0  0  0  0
  6  2  1  0  0  0  0
  6 10  1  0  0  0  0
  7  2  1  0  0  0  0
  9  6  1  0  0  0  0
  9 13  1  0  0  0  0
  9 12  1  0  0  0  0
 11  6  1  0  0  0  0
 14  9  1  0  0  0  0
M  END
$$$$
