butane_opt
 OpenBabel08242015383D

 14 13  0  0  0  0  0  0  0  0999 V2000
   -3.9610    0.2674    0.1165 C   0  0  0  0  0  0  0  0  0  0  0  0
   -2.6939   -0.6278   -0.1086 C   0  0  0  0  0  0  0  0  0  0  0  0
   -4.8415   -0.2952    0.5914 H   0  0  0  0  0  0  0  0  0  0  0  0
   -4.1405    1.0214   -0.8363 H   0  0  0  0  0  0  0  0  0  0  0  0
   -3.7528    0.7824    0.9028 H   0  0  0  0  0  0  0  0  0  0  0  0
   -1.4219    0.2004   -0.0796 C   0  0  0  0  0  0  0  0  0  0  0  0
   -2.8445   -1.4972   -1.0563 H   0  0  0  0  0  0  0  0  0  0  0  0
   -2.7490   -1.2071    0.7155 H   0  0  0  0  0  0  0  0  0  0  0  0
   -0.1154   -0.6922    0.1287 C   0  0  0  0  0  0  0  0  0  0  0  0
   -1.4069    0.8922    0.7280 H   0  0  0  0  0  0  0  0  0  0  0  0
   -1.4881    0.8197   -0.9924 H   0  0  0  0  0  0  0  0  0  0  0  0
   -0.2736   -1.3490    1.1252 H   0  0  0  0  0  0  0  0  0  0  0  0
    0.7045   -0.0723    0.1939 H   0  0  0  0  0  0  0  0  0  0  0  0
    0.0582   -1.3192   -0.6033 H   0  0  0  0  0  0  0  0  0  0  0  0
  1  3  1  0  0  0  0
  1  5  1  0  0  0  0
  2  6  1  0  0  0  0
  2  1  1  0  0  0  0
  2  8  1  0  0  0  0
  4  1  1  0  0  0  0
  6  9  1  0  0  0  0
  6 10  1  0  0  0  0
  7  2  1  0  0  0  0
  9 13  1  0  0  0  0
  9 12  1  0  0  0  0
 11  6  1  0  0  0  0
 14  9  1  0  0  0  0
M  END
$$$$
