14
butane_opt
C  -3.982531   0.237144  -0.081173
C  -2.705853  -0.608926   0.122682
H  -4.837882  -0.257754  -0.161192
H  -3.818214   0.609051  -0.870659
H  -4.107146   1.070879   0.867787
C  -1.419229   0.218305   0.103164
H  -2.574634  -1.028385  -0.533449
H  -2.845450  -1.357185   1.135190
C  -0.108645  -0.729102  -0.061332
H  -1.348821   0.963345   1.016205
H  -1.403577   0.840945  -0.725010
H  -0.045295  -1.352979   0.761816
H   0.804322  -0.102322  -0.150429
H  -0.236438  -1.280942  -0.866758
