14
butane_opt
C  -3.903537   0.221383  -0.066577
C  -2.715964  -0.556786   0.140641
H  -4.851905  -0.413063  -0.100902
H  -3.886818   0.906400  -1.053402
H  -3.831834   0.820668   0.738580
C  -1.456429   0.183567   0.058347
H  -2.712379  -1.022271  -0.554227
H  -2.629403  -1.398189   1.254735
C  -0.146455  -0.722037  -0.042668
H  -1.455968   1.058748   1.058992
H  -1.451469   0.821473  -0.795600
H  -0.134852  -0.968092   0.671944
H   0.724953  -0.127647   0.221322
H  -0.110709  -1.701316  -1.154844
