butane_opt
 OpenBabel08242015383D

 14 13  0  0  0  0  0  0  0  0999 V2000
   -3.9348    0.2302    0.0936 C   0  0  0  0  0  0  0  0  0  0  0  0
   -2.7405   -0.5995   -0.0478 C   0  0  0  0  0  0  0  0  0  0  0  0
   -4.8749   -0.4230    0.1062 H   0  0  0  0  0  0  0  0  0  0  0  0
   -4.0181    0.9246   -0.8177 H   0  0  0  0  0  0  0  0  0  0  0  0
   -3.8770    1.0067    1.0034 H   0  0  0  0  0  0  0  0  0  0  0  0
   -1.4258    0.2426   -0.0628 C   0  0  0  0  0  0  0  0  0  0  0  0
   -2.9047   -1.3590   -0.9678 H   0  0  0  0  0  0  0  0  0  0  0  0
   -2.6371   -1.1099    0.7549 H   0  0  0  0  0  0  0  0  0  0  0  0
   -0.1204   -0.7167    0.0936 C   0  0  0  0  0  0  0  0  0  0  0  0
   -1.4446    0.9788    0.7838 H   0  0  0  0  0  0  0  0  0  0  0  0
   -1.1912    0.7019   -0.8535 H   0  0  0  0  0  0  0  0  0  0  0  0
   -0.0960   -1.5706    1.2085 H   0  0  0  0  0  0  0  0  0  0  0  0
    0.7018   -0.3124   -0.1771 H   0  0  0  0  0  0  0  0  0  0  0  0
    0.0051   -1.1954   -0.5248 H   0  0  0  0  0  0  0  0  0  0  0  0
  1  3  1  0  0  0  0
  1  5  1  0  0  0  0
  2  1  1  0  0  0  0
  2  8  1  0  0  0  0
  4  1  1  0  0  0  0
  6  2  1  0  0  0  0
  6  9  1  0  0  0  0
  6 10  1  0  0  0  0
  7  2  1  0  0  0  0
  9 12  1  0  0  0  0
 11  6  1  0  0  0  0
 13  9  1  0  0  0  0
 14  9  1  0  0  0  0
M  END
$$$$
