14
butane_opt
C  -3.953354   0.296778   0.095477
C  -2.726552  -0.674042  -0.099722
H  -4.828885  -0.241602  -0.049369
H  -4.036123   0.755900  -0.667098
H  -3.975077   1.178489   1.173124
C  -1.392688   0.165423  -0.028218
H  -2.689414  -1.253652  -0.865312
H  -2.709549  -1.213389   0.736324
C  -0.148864  -0.678142   0.108155
H  -1.461503   0.885313   0.832183
H  -1.293819   0.750546  -0.986935
H   0.072716  -1.745789   1.265194
H   0.900884   0.037178  -0.399842
H  -0.377104  -0.910473  -0.434783
