14
butane_opt
C  -3.990345   0.305626  -0.044240
C  -2.666281  -0.675738   0.080263
H  -4.997883  -0.289177   0.414632
H  -4.100466   1.310100  -1.187283
H  -4.107672   0.582536   0.564071
C  -1.361521   0.145404   0.122083
H  -2.568423  -1.312890  -0.786132
H  -2.686873  -1.191360   0.842248
C  -0.170223  -0.658575  -0.037769
H  -1.206757   0.883596   1.101795
H  -1.568215   0.736135  -0.787906
H  -0.185155  -1.208801   0.775670
H   0.829216   0.028352   0.022870
H  -0.179119  -1.403128  -0.981332
