14
butane_opt
C  -3.893825   0.221354  -0.037403
C  -2.712833  -0.580045   0.118047
H  -4.800129  -0.378271  -0.132102
H  -3.793734   0.829149  -0.939228
H  -3.984065   0.848500   0.866684
C  -1.438806   0.237170   0.053160
H  -2.627164  -1.177652  -0.635423
H  -2.786426  -1.275017   1.081958
C  -0.145400  -0.743897  -0.019915
H  -1.354605   0.824141   0.837014
H  -1.665391   1.023861  -0.855747
H  -0.272129  -1.026002   0.655970
H   0.687678  -0.189676   0.209676
H  -0.101401  -1.595966  -1.034726
