butane_opt
 OpenBabel08242015383D

 14 12  0  0  0  0  0  0  0  0999 V2000
   -3.9709    0.2394    0.0348 C   0  0  0  0  0  0  0  0  0  0  0  0
   -2.7501   -0.5802    0.0694 C   0  0  0  0  0  0  0  0  0  0  0  0
   -4.8000   -0.3363   -0.4453 H   0  0  0  0  0  0  0  0  0  0  0  0
   -3.6756    0.3697   -0.6601 H   0  0  0  0  0  0  0  0  0  0  0  0
   -4.0930    1.1923    1.0554 H   0  0  0  0  0  0  0  0  0  0  0  0
   -1.4267    0.2209   -0.0474 C   0  0  0  0  0  0  0  0  0  0  0  0
   -2.8061   -1.1519   -0.7555 H   0  0  0  0  0  0  0  0  0  0  0  0
   -2.5441   -1.2946    0.9742 H   0  0  0  0  0  0  0  0  0  0  0  0
   -0.0948   -0.7223    0.0447 C   0  0  0  0  0  0  0  0  0  0  0  0
   -1.4872    0.9317    0.7646 H   0  0  0  0  0  0  0  0  0  0  0  0
   -1.4120    0.7929   -0.8514 H   0  0  0  0  0  0  0  0  0  0  0  0
   -0.0944   -1.4429    1.0584 H   0  0  0  0  0  0  0  0  0  0  0  0
    0.8031   -0.1724   -0.1264 H   0  0  0  0  0  0  0  0  0  0  0  0
   -0.0112   -1.2638   -0.7637 H   0  0  0  0  0  0  0  0  0  0  0  0
  1  2  1  0  0  0  0
  1  5  1  0  0  0  0
  2  8  1  0  0  0  0
  3  1  1  0  0  0  0
  4  1  1  0  0  0  0
  6  9  1  0  0  0  0
  6 10  1  0  0  0  0
  7  2  1  0  0  0  0
  9 12  1  0  0  0  0
 11  6  1  0  0  0  0
 13  9  1  0  0  0  0
 14  9  1  0  0  0  0
M  RAD  2   2   2   6   2
M  END
$$$$
