14
butane_opt
C  -3.989947   0.227049  -0.071914
C  -2.677529  -0.568520   0.089702
H  -4.976247  -0.423028   0.020906
H  -3.889976   0.962378  -1.200009
H  -3.968291   0.846641   0.759829
C  -1.408181   0.202868   0.162151
H  -2.759585  -1.174008  -0.716860
H  -2.743596  -1.350420   1.078354
C  -0.131031  -0.708149  -0.047048
H  -1.395271   0.951023   1.060218
H  -1.373088   0.832436  -0.636242
H   0.161675  -1.406787   0.858230
H   0.695269  -0.194942  -0.459519
H  -0.271164  -1.361255  -0.948577
