14
butane_opt
C  -3.974135   0.244745  -0.045998
C  -2.726493  -0.582931   0.112011
H  -4.850273  -0.326181   0.182846
H  -3.981944   0.906989  -1.015900
H  -3.832689   0.698474   0.728618
C  -1.399246   0.236848   0.027584
H  -2.643340  -1.144163  -0.634639
H  -2.971896  -1.379328   1.140001
C  -0.121123  -0.746956  -0.007383
H  -1.273054   1.032449   0.991309
H  -1.391677   0.838601  -0.777037
H  -0.288936  -1.020264   0.635961
H   0.811021  -0.147201   0.259218
H   0.058143  -1.761956  -1.154993
