14
butane_opt
C  -3.872950   0.223099   0.053486
C  -2.720664  -0.581608  -0.049211
H  -4.883355  -0.480457   0.475690
H  -4.125440   0.981674  -0.887660
H  -3.763800   0.808823   0.848018
C  -1.444727   0.234845  -0.010035
H  -2.659318  -1.287072  -0.890204
H  -2.765595  -1.177353   0.797413
C  -0.154068  -0.741797   0.065669
H  -1.532440   1.012359   0.934422
H  -1.426779   0.929455  -0.901387
H  -0.188127  -1.521150   1.025679
H   0.704665  -0.097534   0.101000
H  -0.046833  -1.281380  -0.766346
