butane_opt
 OpenBabel08242015383D

 14 13  0  0  0  0  0  0  0  0999 V2000
   -3.9473    0.2579    0.0496 C   0  0  0  0  0  0  0  0  0  0  0  0
   -2.7169   -0.5961    0.0232 C   0  0  0  0  0  0  0  0  0  0  0  0
   -4.8786   -0.3654    0.0178 H   0  0  0  0  0  0  0  0  0  0  0  0
   -3.9579    0.8404   -0.8360 H   0  0  0  0  0  0  0  0  0  0  0  0
   -3.9561    0.9472    0.9036 H   0  0  0  0  0  0  0  0  0  0  0  0
   -1.4004    0.1940   -0.0276 C   0  0  0  0  0  0  0  0  0  0  0  0
   -2.7819   -1.3413   -0.9001 H   0  0  0  0  0  0  0  0  0  0  0  0
   -2.6689   -1.2149    0.8825 H   0  0  0  0  0  0  0  0  0  0  0  0
   -0.1507   -0.7071    0.0614 C   0  0  0  0  0  0  0  0  0  0  0  0
   -1.3803    0.8216    0.7923 H   0  0  0  0  0  0  0  0  0  0  0  0
   -1.3883    0.8447   -0.9498 H   0  0  0  0  0  0  0  0  0  0  0  0
   -0.1075   -1.3024    0.9618 H   0  0  0  0  0  0  0  0  0  0  0  0
    0.7523   -0.1116    0.0973 H   0  0  0  0  0  0  0  0  0  0  0  0
   -0.0704   -1.3753   -0.8024 H   0  0  0  0  0  0  0  0  0  0  0  0
  1  5  1  0  0  0  0
  2  1  1  0  0  0  0
  2  8  1  0  0  0  0
  3  1  1  0  0  0  0
  4  1  1  0  0  0  0
  6  2  1  0  0  0  0
  6  9  1  0  0  0  0
  6 10  1  0  0  0  0
  7  2  1  0  0  0  0
  9 13  1  0  0  0  0
  9 12  1  0  0  0  0
 11  6  1  0  0  0  0
 14  9  1  0  0  0  0
M  END
$$$$
