14
butane_opt
C  -3.959553   0.270947   0.013730
C  -2.699286  -0.634433   0.026136
H  -4.823512  -0.278920   0.203509
H  -4.059411   1.028408  -0.968488
H  -3.908899   0.856101   0.811989
C  -1.400056   0.179915   0.025806
H  -2.711833  -1.324190  -0.827595
H  -2.672351  -1.279466   0.926176
C  -0.159284  -0.678984   0.020673
H  -1.348232   0.890222   0.873990
H  -1.387732   0.744285  -0.815197
H  -0.134566  -1.306547   0.946273
H   0.734960  -0.079054   0.085436
H  -0.102972  -1.361223  -0.841720
