14
butane_opt
C  -3.878336   0.224731   0.108104
C  -2.718855  -0.580331  -0.109893
H  -4.820217  -0.388413   0.546232
H  -4.156601   1.080246  -0.789745
H  -3.593048   0.763961   0.890584
C  -1.415179   0.237755  -0.044197
H  -2.770796  -1.468348  -1.048180
H  -2.708656  -1.113915   0.669852
C  -0.199870  -0.753029   0.122941
H  -1.626530   0.858229   0.745716
H  -1.305266   1.013286  -1.025641
H  -0.238630  -1.373539   1.017976
H   0.737793  -0.171513   0.078734
H   0.018571  -1.214569  -0.587000
