14
butane_opt
C  -3.948091   0.286002  -0.057327
C  -2.649551  -0.649878   0.142775
H  -4.782793  -0.236635  -0.268336
H  -3.872722   0.826226  -0.849057
H  -4.174148   1.087127   0.900249
C  -1.392320   0.144661   0.042906
H  -2.441537  -1.148624  -0.609673
H  -2.730299  -1.473745   1.130898
C  -0.241405  -0.658025  -0.031620
H  -1.317368   0.846729   0.974282
H  -1.399421   0.634469  -0.803050
H  -0.004899  -1.058727   0.691879
H   0.745824  -0.073986   0.074540
H  -0.283800  -1.325969  -0.942627
