butane_opt
 OpenBabel08242015383D

 14 12  0  0  0  0  0  0  0  0999 V2000
   -3.9640    0.2701    0.1010 C   0  0  0  0  0  0  0  0  0  0  0  0
   -2.6728   -0.6520   -0.0044 C   0  0  0  0  0  0  0  0  0  0  0  0
   -4.8398   -0.3170   -0.3490 H   0  0  0  0  0  0  0  0  0  0  0  0
   -4.0383    0.6463   -0.5925 H   0  0  0  0  0  0  0  0  0  0  0  0
   -4.0966    1.3615    1.2033 H   0  0  0  0  0  0  0  0  0  0  0  0
   -1.4193    0.1797   -0.1332 C   0  0  0  0  0  0  0  0  0  0  0  0
   -2.8196   -1.3291   -0.8577 H   0  0  0  0  0  0  0  0  0  0  0  0
   -2.5837   -1.3252    0.9333 H   0  0  0  0  0  0  0  0  0  0  0  0
   -0.1527   -0.6844    0.1087 C   0  0  0  0  0  0  0  0  0  0  0  0
   -1.3091    0.9167    0.6876 H   0  0  0  0  0  0  0  0  0  0  0  0
   -1.3364    0.8630   -1.0359 H   0  0  0  0  0  0  0  0  0  0  0  0
   -0.2942   -1.3401    1.0634 H   0  0  0  0  0  0  0  0  0  0  0  0
    0.8556   -0.0488    0.1563 H   0  0  0  0  0  0  0  0  0  0  0  0
   -0.0397   -1.2677   -0.6064 H   0  0  0  0  0  0  0  0  0  0  0  0
  2  1  1  0  0  0  0
  2  8  1  0  0  0  0
  3  1  1  0  0  0  0
  4  1  1  0  0  0  0
  6  2  1  0  0  0  0
  6  9  1  0  0  0  0
  6 10  1  0  0  0  0
  7  2  1  0  0  0  0
  9 13  1  0  0  0  0
  9 12  1  0  0  0  0
 11  6  1  0  0  0  0
 14  9  1  0  0  0  0
M  RAD  2   1   2   5   2
M  END
$$$$
