14
butane_opt
C  -3.984581   0.220602   0.070763
C  -2.704721  -0.571874  -0.014817
H  -4.898619  -0.463665  -0.084375
H  -3.837412   0.557061  -0.688545
H  -3.936194   1.284097   1.224038
C  -1.406584   0.225196  -0.051014
H  -2.574820  -1.403963  -0.971531
H  -2.711564  -1.096650   0.868739
C  -0.140217  -0.722919   0.097538
H  -1.450897   0.709905   0.658837
H  -1.335788   1.069290  -1.118287
H  -0.016347  -1.508435   1.089586
H   0.710352  -0.154923  -0.112554
H  -0.113900  -1.285679  -0.587856
