14
butane_opt
C  -4.002797   0.290074  -0.025814
C  -2.693973  -0.660112   0.056397
H  -4.926404  -0.297212   0.417183
H  -4.088567   1.240779  -1.106448
H  -3.969076   0.779566   0.626307
C  -1.355597   0.149905   0.054532
H  -2.772478  -1.194286  -0.710442
H  -2.727140  -1.308494   1.091027
C  -0.128388  -0.671929  -0.010309
H  -1.400694   1.013591   1.024083
H  -1.272696   0.753880  -0.808604
H  -0.325759  -1.073229   0.773988
H   0.831297  -0.038272   0.228315
H  -0.193619  -1.663110  -1.058176
