butane_opt
 OpenBabel08242015383D

 14 13  0  0  0  0  0  0  0  0999 V2000
   -3.9423    0.2423    0.0491 C   0  0  0  0  0  0  0  0  0  0  0  0
   -2.7042   -0.5850    0.0614 C   0  0  0  0  0  0  0  0  0  0  0  0
   -4.8584   -0.3807    0.0318 H   0  0  0  0  0  0  0  0  0  0  0  0
   -3.9168    0.9826   -0.9603 H   0  0  0  0  0  0  0  0  0  0  0  0
   -3.7706    0.9253    0.9542 H   0  0  0  0  0  0  0  0  0  0  0  0
   -1.4189    0.1966   -0.0630 C   0  0  0  0  0  0  0  0  0  0  0  0
   -2.7727   -1.3696   -0.9056 H   0  0  0  0  0  0  0  0  0  0  0  0
   -2.7083   -1.0875    0.9099 H   0  0  0  0  0  0  0  0  0  0  0  0
   -0.1595   -0.7313    0.0507 C   0  0  0  0  0  0  0  0  0  0  0  0
   -1.4166    0.7940    0.8009 H   0  0  0  0  0  0  0  0  0  0  0  0
   -1.3170    0.9044   -0.9679 H   0  0  0  0  0  0  0  0  0  0  0  0
   -0.3870   -1.0875    0.8683 H   0  0  0  0  0  0  0  0  0  0  0  0
    0.8936   -0.0928    0.3727 H   0  0  0  0  0  0  0  0  0  0  0  0
   -0.0568   -1.5283   -0.8805 H   0  0  0  0  0  0  0  0  0  0  0  0
  1  2  1  0  0  0  0
  1  5  1  0  0  0  0
  2  8  1  0  0  0  0
  3  1  1  0  0  0  0
  4  1  1  0  0  0  0
  6  9  1  0  0  0  0
  6  2  1  0  0  0  0
  6 10  1  0  0  0  0
  7  2  1  0  0  0  0
  9 13  1  0  0  0  0
  9 12  1  0  0  0  0
 11  6  1  0  0  0  0
 14  9  1  0  0  0  0
M  END
$$$$
