14
butane_opt
C  -3.918133   0.250420   0.091985
C  -2.757620  -0.605266   0.010691
H  -4.847236  -0.380370  -0.361409
H  -3.901926   0.350438  -0.502966
H  -4.048491   1.379353   1.206432
C  -1.415398   0.260653  -0.100849
H  -2.695532  -1.485726  -0.976140
H  -2.834901  -1.183732   0.867694
C  -0.118156  -0.728105   0.109202
H  -1.458141   0.687814   0.629017
H  -1.351664   1.031107  -1.166572
H  -0.007016  -1.583279   1.092755
H   0.742073  -0.183655  -0.001392
H  -0.100452  -1.234511  -0.588560
