14
butane_opt
C  -3.859196   0.214018   0.061326
C  -2.731966  -0.569236   0.040093
H  -4.836036  -0.426682  -0.370057
H  -3.828997   0.608757  -0.740420
H  -3.954060   1.257482   1.191408
C  -1.445364   0.235352  -0.075155
H  -2.830632  -1.311496  -0.872553
H  -2.639401  -1.206357   0.916460
C  -0.156502  -0.735252   0.062487
H  -1.451806   0.838208   0.843934
H  -1.521340   0.926304  -1.003240
H  -0.229888  -1.477773   1.121416
H   0.659303  -0.169776   0.027719
H  -0.046739  -1.270180  -0.714122
