14
butane_opt
C  -3.919719   0.305883   0.124158
C  -2.703154  -0.668092  -0.020597
H  -4.788746  -0.258136  -0.512120
H  -3.805858   0.548568  -0.594799
H  -4.165091   1.418731   1.310466
C  -1.408720   0.157121  -0.129891
H  -2.703205  -1.324027  -0.804571
H  -2.603407  -1.326596   0.863495
C  -0.168218  -0.670647   0.096653
H  -1.431959   0.729656   0.696191
H  -1.276267   0.766599  -0.953516
H  -0.413466  -1.449456   1.200210
H   0.776356  -0.019590   0.007966
H  -0.210676  -1.038326  -0.569060
