butane_opt
 OpenBabel08242015383D

 14 13  0  0  0  0  0  0  0  0999 V2000
   -3.9823    0.2588   -0.0331 C   0  0  0  0  0  0  0  0  0  0  0  0
   -2.7249   -0.6246    0.0358 C   0  0  0  0  0  0  0  0  0  0  0  0
   -4.8094   -0.3439    0.0239 H   0  0  0  0  0  0  0  0  0  0  0  0
   -3.8438    0.8052   -0.9165 H   0  0  0  0  0  0  0  0  0  0  0  0
   -3.9331    0.9776    0.8640 H   0  0  0  0  0  0  0  0  0  0  0  0
   -1.4050    0.2261    0.0953 C   0  0  0  0  0  0  0  0  0  0  0  0
   -2.5912   -1.2716   -0.6626 H   0  0  0  0  0  0  0  0  0  0  0  0
   -2.8725   -1.3049    0.9778 H   0  0  0  0  0  0  0  0  0  0  0  0
   -0.1419   -0.7156   -0.0218 C   0  0  0  0  0  0  0  0  0  0  0  0
   -1.2534    1.0810    1.0966 H   0  0  0  0  0  0  0  0  0  0  0  0
   -1.2825    0.8037   -0.7480 H   0  0  0  0  0  0  0  0  0  0  0  0
    0.1535   -1.5930    1.0833 H   0  0  0  0  0  0  0  0  0  0  0  0
    0.6901   -0.2250   -0.4552 H   0  0  0  0  0  0  0  0  0  0  0  0
   -0.2422   -1.1287   -0.7017 H   0  0  0  0  0  0  0  0  0  0  0  0
  1  3  1  0  0  0  0
  1  2  1  0  0  0  0
  1  5  1  0  0  0  0
  2  6  1  0  0  0  0
  2  8  1  0  0  0  0
  4  1  1  0  0  0  0
  6 10  1  0  0  0  0
  7  2  1  0  0  0  0
  9  6  1  0  0  0  0
  9 12  1  0  0  0  0
 11  6  1  0  0  0  0
 13  9  1  0  0  0  0
 14  9  1  0  0  0  0
M  END
$$$$
