butane_opt
 OpenBabel08242015383D

 14 13  0  0  0  0  0  0  0  0999 V2000
   -3.9764    0.2898    0.0875 C   0  0  0  0  0  0  0  0  0  0  0  0
   -2.6749   -0.6700   -0.0110 C   0  0  0  0  0  0  0  0  0  0  0  0
   -4.9827   -0.3359    0.1007 H   0  0  0  0  0  0  0  0  0  0  0  0
   -4.2497    0.9609   -0.7740 H   0  0  0  0  0  0  0  0  0  0  0  0
   -3.9456    1.0053    0.9754 H   0  0  0  0  0  0  0  0  0  0  0  0
   -1.3953    0.1685   -0.0957 C   0  0  0  0  0  0  0  0  0  0  0  0
   -2.8767   -1.2974   -0.8358 H   0  0  0  0  0  0  0  0  0  0  0  0
   -2.5946   -1.3744    0.8630 H   0  0  0  0  0  0  0  0  0  0  0  0
   -0.1444   -0.6554    0.0787 C   0  0  0  0  0  0  0  0  0  0  0  0
   -1.3318    0.8869    0.7631 H   0  0  0  0  0  0  0  0  0  0  0  0
   -1.3400    0.8663   -1.0399 H   0  0  0  0  0  0  0  0  0  0  0  0
   -0.4083   -1.1731    0.9738 H   0  0  0  0  0  0  0  0  0  0  0  0
    0.7072   -0.1772    0.5629 H   0  0  0  0  0  0  0  0  0  0  0  0
    0.2923   -1.4542   -0.8903 H   0  0  0  0  0  0  0  0  0  0  0  0
  1  3  1  0  0  0  0
  1  5  1  0  0  0  0
  2  1  1  0  0  0  0
  2  8  1  0  0  0  0
  4  1  1  0  0  0  0
  6  2  1  0  0  0  0
  6  9  1  0  0  0  0
  6 10  1  0  0  0  0
  7  2  1  0  0  0  0
  9 13  1  0  0  0  0
  9 12  1  0  0  0  0
 11  6  1  0  0  0  0
 14  9  1  0  0  0  0
M  END
$$$$
