14
butane_opt
C  -3.959008   0.268095  -0.050029
C  -2.701535  -0.649508   0.120097
H  -4.862603  -0.219043   0.005280
H  -4.163035   0.992236  -0.979304
H  -4.146633   0.950045   0.775203
C  -1.360108   0.169863   0.053153
H  -2.771944  -1.239809  -0.698023
H  -2.736172  -1.419911   1.123125
C  -0.136077  -0.682641  -0.014497
H  -1.436677   0.858945   0.917618
H  -1.443117   0.965277  -0.849713
H  -0.151428  -0.895736   0.600587
H   0.713568  -0.106840   0.184225
H  -0.119386  -1.647784  -1.001761
