14
butane_opt
C  -3.962075   0.307347  -0.082796
C  -2.703555  -0.676479   0.158268
H  -4.866764  -0.330651  -0.151927
H  -3.903610   1.090704  -1.102323
H  -4.315050   0.843888   0.636516
C  -1.381771   0.189732   0.160886
H  -2.535879  -1.472613  -0.751046
H  -2.626775  -1.272206   1.007780
C  -0.166726  -0.658812  -0.086698
H  -1.306913   0.911462   1.066429
H  -1.334786   0.523172  -0.645518
H   0.182612  -1.484128   0.847138
H   0.708639  -0.058965  -0.378823
H  -0.453238  -1.134206  -0.871606
