14
butane_opt
C  -3.961029   0.267393   0.116538
C  -2.693871  -0.627827  -0.108571
H  -4.841538  -0.295187   0.591363
H  -4.140454   1.021356  -0.836303
H  -3.752829   0.782427   0.902824
C  -1.421906   0.200376  -0.079642
H  -2.844549  -1.497222  -1.056310
H  -2.748984  -1.207139   0.715452
C  -0.115432  -0.692245   0.128749
H  -1.406877   0.892208   0.727952
H  -1.488083   0.819737  -0.992383
H  -0.273633  -1.348960   1.125174
H   0.704506  -0.072316   0.193934
H   0.058168  -1.319159  -0.603275
