14
butane_opt
C  -3.955592   0.223041  -0.092848
C  -2.718279  -0.568600   0.184810
H  -4.863934  -0.358277  -0.529174
H  -3.699245   0.664552  -0.791554
H  -4.022383   1.012869   0.859423
C  -1.450997   0.218312   0.128109
H  -2.677039  -1.180142  -0.689875
H  -2.812389  -1.314570   1.183872
C  -0.100875  -0.731702  -0.081120
H  -1.286564   0.801457   0.951685
H  -1.554630   1.041888  -0.872615
H   0.012649  -1.289526   0.752436
H   0.784665  -0.133710  -0.118646
H  -0.191722  -1.432433  -0.968939
