14
butane_opt
C  -3.939344   0.310411   0.076820
C  -2.674502  -0.671083  -0.044631
H  -4.837992  -0.310293   0.492999
H  -4.065125   1.184158  -0.931177
H  -3.807160   0.674719   0.768539
C  -1.398270   0.151393  -0.044258
H  -2.816166  -1.518769  -1.021551
H  -2.451752  -1.102543   0.780520
C  -0.223989  -0.656706   0.097379
H  -1.451074   0.865106   0.820525
H  -1.303572   0.783428  -0.944870
H  -0.123851  -1.289852   1.010569
H   0.723048   0.047366   0.213499
H  -0.098216  -1.397140  -0.806822
