14
butane_opt
C  -3.967485   0.266844   0.137078
C  -2.694995  -0.640011  -0.083872
H  -4.890418  -0.283242   0.272134
H  -4.120197   0.824387  -0.723431
H  -3.929783   0.893273   0.989288
C  -1.405695   0.229604  -0.125627
H  -2.856763  -1.281616  -0.938287
H  -2.741696  -1.212076   0.734243
C  -0.133317  -0.702973   0.124084
H  -1.463543   0.759582   0.693318
H  -1.435629   0.839341  -1.033492
H  -0.258027  -1.336095   1.099709
H   0.903566  -0.053335   0.434508
H   0.159300  -1.441562  -0.691352
