butane_opt
 OpenBabel08242015383D

 14 13  0  0  0  0  0  0  0  0999 V2000
   -3.9357    0.2399    0.1022 C   0  0  0  0  0  0  0  0  0  0  0  0
   -2.6961   -0.5594   -0.0620 C   0  0  0  0  0  0  0  0  0  0  0  0
   -4.8985   -0.5332    0.0623 H   0  0  0  0  0  0  0  0  0  0  0  0
   -3.8918    0.8480   -0.7379 H   0  0  0  0  0  0  0  0  0  0  0  0
   -3.7466    0.9561    1.0314 H   0  0  0  0  0  0  0  0  0  0  0  0
   -1.4307    0.2008   -0.0597 C   0  0  0  0  0  0  0  0  0  0  0  0
   -2.6444   -1.5358   -1.0892 H   0  0  0  0  0  0  0  0  0  0  0  0
   -2.5873   -1.0173    0.6927 H   0  0  0  0  0  0  0  0  0  0  0  0
   -0.1785   -0.7122    0.1211 C   0  0  0  0  0  0  0  0  0  0  0  0
   -1.5514    0.7996    0.8021 H   0  0  0  0  0  0  0  0  0  0  0  0
   -1.3792    0.7969   -0.9034 H   0  0  0  0  0  0  0  0  0  0  0  0
    0.0552   -1.6890    1.2326 H   0  0  0  0  0  0  0  0  0  0  0  0
    0.7351   -0.0992   -0.3247 H   0  0  0  0  0  0  0  0  0  0  0  0
   -0.2255   -1.0056   -0.5094 H   0  0  0  0  0  0  0  0  0  0  0  0
  1  5  1  0  0  0  0
  2  6  1  0  0  0  0
  2  1  1  0  0  0  0
  2  8  1  0  0  0  0
  3  1  1  0  0  0  0
  4  1  1  0  0  0  0
  6  9  1  0  0  0  0
  6 10  1  0  0  0  0
  7  2  1  0  0  0  0
  9 12  1  0  0  0  0
 11  6  1  0  0  0  0
 13  9  1  0  0  0  0
 14  9  1  0  0  0  0
M  END
$$$$
