butane_opt
 OpenBabel08242015383D

 14 13  0  0  0  0  0  0  0  0999 V2000
   -3.9997    0.3021    0.1209 C   0  0  0  0  0  0  0  0  0  0  0  0
   -2.6852   -0.6425   -0.0292 C   0  0  0  0  0  0  0  0  0  0  0  0
   -4.9290   -0.3165    0.1023 H   0  0  0  0  0  0  0  0  0  0  0  0
   -4.1815    0.7663   -0.6725 H   0  0  0  0  0  0  0  0  0  0  0  0
   -3.8682    1.0098    0.9949 H   0  0  0  0  0  0  0  0  0  0  0  0
   -1.3508    0.1481   -0.1327 C   0  0  0  0  0  0  0  0  0  0  0  0
   -2.7620   -1.3798   -1.0607 H   0  0  0  0  0  0  0  0  0  0  0  0
   -2.5874   -1.2198    0.8002 H   0  0  0  0  0  0  0  0  0  0  0  0
   -0.1648   -0.6691    0.1395 C   0  0  0  0  0  0  0  0  0  0  0  0
   -1.3346    0.7363    0.6294 H   0  0  0  0  0  0  0  0  0  0  0  0
   -1.4067    0.9811   -1.1469 H   0  0  0  0  0  0  0  0  0  0  0  0
   -0.4660   -1.1976    1.0751 H   0  0  0  0  0  0  0  0  0  0  0  0
    0.7834   -0.0021    0.4121 H   0  0  0  0  0  0  0  0  0  0  0  0
    0.1246   -1.5376   -0.8788 H   0  0  0  0  0  0  0  0  0  0  0  0
  1  5  1  0  0  0  0
  2  1  1  0  0  0  0
  2  8  1  0  0  0  0
  3  1  1  0  0  0  0
  4  1  1  0  0  0  0
  6  2  1  0  0  0  0
  6  9  1  0  0  0  0
  6 10  1  0  0  0  0
  7  2  1  0  0  0  0
  9 13  1  0  0  0  0
  9 12  1  0  0  0  0
 11  6  1  0  0  0  0
 14  9  1  0  0  0  0
M  END
$$$$
