butane_opt
 OpenBabel08242015383D

 14 12  0  0  0  0  0  0  0  0999 V2000
   -3.8992    0.2644   -0.0596 C   0  0  0  0  0  0  0  0  0  0  0  0
   -2.7072   -0.5719    0.0867 C   0  0  0  0  0  0  0  0  0  0  0  0
   -5.0645   -0.5113    0.3469 H   0  0  0  0  0  0  0  0  0  0  0  0
   -4.1336    1.1129   -1.0920 H   0  0  0  0  0  0  0  0  0  0  0  0
   -3.5599    0.5648    0.5425 H   0  0  0  0  0  0  0  0  0  0  0  0
   -1.4253    0.2015    0.0917 C   0  0  0  0  0  0  0  0  0  0  0  0
   -2.7407   -1.2467   -0.6999 H   0  0  0  0  0  0  0  0  0  0  0  0
   -2.7624   -1.3101    1.0617 H   0  0  0  0  0  0  0  0  0  0  0  0
   -0.1633   -0.7136   -0.0283 C   0  0  0  0  0  0  0  0  0  0  0  0
   -1.3660    0.9660    1.0280 H   0  0  0  0  0  0  0  0  0  0  0  0
   -1.5233    0.7508   -0.7352 H   0  0  0  0  0  0  0  0  0  0  0  0
   -0.1772   -1.2245    0.7258 H   0  0  0  0  0  0  0  0  0  0  0  0
    0.7374   -0.0793    0.1949 H   0  0  0  0  0  0  0  0  0  0  0  0
   -0.0941   -1.6750   -1.0860 H   0  0  0  0  0  0  0  0  0  0  0  0
  1  2  1  0  0  0  0
  1  3  1  0  0  0  0
  1  5  1  0  0  0  0
  2  8  1  0  0  0  0
  4  1  1  0  0  0  0
  6 10  1  0  0  0  0
  7  2  1  0  0  0  0
  9  6  1  0  0  0  0
  9 13  1  0  0  0  0
  9 12  1  0  0  0  0
 11  6  1  0  0  0  0
 14  9  1  0  0  0  0
M  RAD  2   2   2   6   2
M  END
$$$$
