butane_opt
 OpenBabel08242015383D

 14 13  0  0  0  0  0  0  0  0999 V2000
   -3.9634    0.2780   -0.0126 C   0  0  0  0  0  0  0  0  0  0  0  0
   -2.7026   -0.6164    0.1399 C   0  0  0  0  0  0  0  0  0  0  0  0
   -4.7675   -0.2899   -0.0870 H   0  0  0  0  0  0  0  0  0  0  0  0
   -3.8431    1.0332   -1.0913 H   0  0  0  0  0  0  0  0  0  0  0  0
   -4.1364    0.8501    0.7191 H   0  0  0  0  0  0  0  0  0  0  0  0
   -1.3872    0.1646    0.0390 C   0  0  0  0  0  0  0  0  0  0  0  0
   -2.7564   -1.3098   -0.6287 H   0  0  0  0  0  0  0  0  0  0  0  0
   -2.7527   -1.2542    1.0057 H   0  0  0  0  0  0  0  0  0  0  0  0
   -0.1674   -0.6990   -0.0376 C   0  0  0  0  0  0  0  0  0  0  0  0
   -1.3452    0.7711    0.8246 H   0  0  0  0  0  0  0  0  0  0  0  0
   -1.2850    0.7732   -0.8587 H   0  0  0  0  0  0  0  0  0  0  0  0
   -0.2576   -0.9405    0.5635 H   0  0  0  0  0  0  0  0  0  0  0  0
    0.7985   -0.0242    0.4071 H   0  0  0  0  0  0  0  0  0  0  0  0
   -0.0398   -1.5815   -1.0023 H   0  0  0  0  0  0  0  0  0  0  0  0
  1  2  1  0  0  0  0
  1  5  1  0  0  0  0
  2  8  1  0  0  0  0
  3  1  1  0  0  0  0
  4  1  1  0  0  0  0
  6  2  1  0  0  0  0
  6 10  1  0  0  0  0
  7  2  1  0  0  0  0
  9  6  1  0  0  0  0
  9 13  1  0  0  0  0
  9 12  1  0  0  0  0
 11  6  1  0  0  0  0
 14  9  1  0  0  0  0
M  END
$$$$
