14
butane_opt
C  -3.982344   0.258764  -0.033090
C  -2.724934  -0.624649   0.035794
H  -4.809350  -0.343895   0.023944
H  -3.843785   0.805213  -0.916503
H  -3.933108   0.977636   0.863983
C  -1.405049   0.226131   0.095286
H  -2.591201  -1.271615  -0.662593
H  -2.872459  -1.304860   0.977787
C  -0.141896  -0.715588  -0.021760
H  -1.253380   1.081020   1.096582
H  -1.282477   0.803699  -0.748005
H   0.153489  -1.592989   1.083305
H   0.690085  -0.225033  -0.455162
H  -0.242226  -1.128706  -0.701705
