butane_opt
 OpenBabel08242015383D

 14 13  0  0  0  0  0  0  0  0999 V2000
   -3.9470    0.2699   -0.0116 C   0  0  0  0  0  0  0  0  0  0  0  0
   -2.6956   -0.6340    0.0600 C   0  0  0  0  0  0  0  0  0  0  0  0
   -4.8368   -0.2933    0.0877 H   0  0  0  0  0  0  0  0  0  0  0  0
   -4.0368    0.9844   -0.9502 H   0  0  0  0  0  0  0  0  0  0  0  0
   -3.9995    0.8693    0.8200 H   0  0  0  0  0  0  0  0  0  0  0  0
   -1.3994    0.1866    0.0535 C   0  0  0  0  0  0  0  0  0  0  0  0
   -2.6532   -1.2924   -0.7872 H   0  0  0  0  0  0  0  0  0  0  0  0
   -2.7317   -1.2748    0.9508 H   0  0  0  0  0  0  0  0  0  0  0  0
   -0.1623   -0.6894    0.0046 C   0  0  0  0  0  0  0  0  0  0  0  0
   -1.3794    0.8464    0.8740 H   0  0  0  0  0  0  0  0  0  0  0  0
   -1.3851    0.8085   -0.8109 H   0  0  0  0  0  0  0  0  0  0  0  0
   -0.1328   -1.2493    0.8777 H   0  0  0  0  0  0  0  0  0  0  0  0
    0.7641   -0.0781   -0.0181 H   0  0  0  0  0  0  0  0  0  0  0  0
   -0.1765   -1.3868   -0.8957 H   0  0  0  0  0  0  0  0  0  0  0  0
  1  2  1  0  0  0  0
  1  3  1  0  0  0  0
  1  5  1  0  0  0  0
  2  8  1  0  0  0  0
  4  1  1  0  0  0  0
  6  2  1  0  0  0  0
  6 10  1  0  0  0  0
  7  2  1  0  0  0  0
  9  6  1  0  0  0  0
  9 12  1  0  0  0  0
 11  6  1  0  0  0  0
 13  9  1  0  0  0  0
 14  9  1  0  0  0  0
M  END
$$$$
