14
butane_opt
C  -3.926267   0.250018   0.016312
C  -2.705145  -0.597026   0.039656
H  -4.858357  -0.338300   0.001009
H  -3.945613   0.853242  -0.885301
H  -3.948290   0.935071   0.860404
C  -1.406248   0.193369   0.023480
H  -2.738714  -1.319142  -0.853116
H  -2.721499  -1.132280   0.894063
C  -0.169993  -0.707417   0.030755
H  -1.377541   0.869967   0.874922
H  -1.461527   0.804854  -0.850981
H  -0.071303  -1.453696   0.992582
H   0.774239  -0.070853  -0.135863
H  -0.182895  -1.287301  -0.767116
