14
butane_opt
C  -3.950729   0.235678  -0.031377
C  -2.694547  -0.561372   0.057582
H  -4.972363  -0.474440   0.347886
H  -4.200941   1.097450  -1.021847
H  -3.794009   0.637201   0.700504
C  -1.423239   0.194975   0.048453
H  -2.761799  -1.303136  -0.802213
H  -2.828230  -1.223838   0.956467
C  -0.118164  -0.731172  -0.011506
H  -1.406797   1.082076   1.083987
H  -1.435695   0.756387  -0.710997
H  -0.079779  -1.234392   0.896315
H   0.746597  -0.180961   0.048313
H  -0.023691  -1.303828  -0.856249
