butane_opt
 OpenBabel08242015383D

 14 13  0  0  0  0  0  0  0  0999 V2000
   -3.9490    0.2385    0.1085 C   0  0  0  0  0  0  0  0  0  0  0  0
   -2.7288   -0.5689   -0.0156 C   0  0  0  0  0  0  0  0  0  0  0  0
   -4.9070   -0.3673   -0.2542 H   0  0  0  0  0  0  0  0  0  0  0  0
   -3.8289    0.4585   -0.6257 H   0  0  0  0  0  0  0  0  0  0  0  0
   -4.0723    1.1184    1.0885 H   0  0  0  0  0  0  0  0  0  0  0  0
   -1.4463    0.2317   -0.0866 C   0  0  0  0  0  0  0  0  0  0  0  0
   -2.8925   -1.4058   -1.0289 H   0  0  0  0  0  0  0  0  0  0  0  0
   -2.6576   -1.1948    0.8317 H   0  0  0  0  0  0  0  0  0  0  0  0
   -0.0928   -0.7519    0.1018 C   0  0  0  0  0  0  0  0  0  0  0  0
   -1.5367    0.9008    0.7242 H   0  0  0  0  0  0  0  0  0  0  0  0
   -1.2636    0.9376   -0.9752 H   0  0  0  0  0  0  0  0  0  0  0  0
   -0.1403   -1.5824    1.1516 H   0  0  0  0  0  0  0  0  0  0  0  0
    0.8457   -0.0588   -0.1832 H   0  0  0  0  0  0  0  0  0  0  0  0
    0.0442   -1.0788   -0.5512 H   0  0  0  0  0  0  0  0  0  0  0  0
  1  5  1  0  0  0  0
  2  1  1  0  0  0  0
  2  8  1  0  0  0  0
  3  1  1  0  0  0  0
  4  1  1  0  0  0  0
  6  2  1  0  0  0  0
  6  9  1  0  0  0  0
  6 10  1  0  0  0  0
  7  2  1  0  0  0  0
  9 12  1  0  0  0  0
 11  6  1  0  0  0  0
 13  9  1  0  0  0  0
 14  9  1  0  0  0  0
M  END
$$$$
