14
butane_opt
C  -3.978909   0.306214  -0.072455
C  -2.705209  -0.649849   0.141575
H  -4.828427  -0.253090  -0.266877
H  -3.835985   0.813501  -0.946109
H  -4.161877   1.015151   0.917322
C  -1.394350   0.127858   0.107084
H  -2.446867  -1.234533  -0.645944
H  -2.718621  -1.333033   1.112112
C  -0.166153  -0.640760  -0.049558
H  -1.221903   0.661979   0.937582
H  -1.475298   0.818836  -0.794037
H  -0.113006  -1.236210   0.803997
H   0.840791   0.055319  -0.164799
H  -0.163651  -1.476122  -1.034025
