butane_opt
 OpenBabel08242015383D

 14 13  0  0  0  0  0  0  0  0999 V2000
   -3.9832    0.3133   -0.0319 C   0  0  0  0  0  0  0  0  0  0  0  0
   -2.6787   -0.6635    0.1145 C   0  0  0  0  0  0  0  0  0  0  0  0
   -4.9889   -0.3390   -0.3743 H   0  0  0  0  0  0  0  0  0  0  0  0
   -3.9002    0.7236   -0.7668 H   0  0  0  0  0  0  0  0  0  0  0  0
   -4.2615    1.2821    1.0777 H   0  0  0  0  0  0  0  0  0  0  0  0
   -1.3872    0.1287    0.0242 C   0  0  0  0  0  0  0  0  0  0  0  0
   -2.7656   -1.3505   -0.6789 H   0  0  0  0  0  0  0  0  0  0  0  0
   -2.5924   -1.4048    1.0496 H   0  0  0  0  0  0  0  0  0  0  0  0
   -0.1505   -0.6388    0.0105 C   0  0  0  0  0  0  0  0  0  0  0  0
   -1.3455    0.7401    0.7850 H   0  0  0  0  0  0  0  0  0  0  0  0
   -1.2994    0.8463   -0.9770 H   0  0  0  0  0  0  0  0  0  0  0  0
    0.0460   -1.2034    0.8433 H   0  0  0  0  0  0  0  0  0  0  0  0
    0.7887   -0.0647    0.0020 H   0  0  0  0  0  0  0  0  0  0  0  0
   -0.3154   -1.3744   -0.9111 H   0  0  0  0  0  0  0  0  0  0  0  0
  1  2  1  0  0  0  0
  1  5  1  0  0  0  0
  2  8  1  0  0  0  0
  3  1  1  0  0  0  0
  4  1  1  0  0  0  0
  6  2  1  0  0  0  0
  6 10  1  0  0  0  0
  7  2  1  0  0  0  0
  9  6  1  0  0  0  0
  9 12  1  0  0  0  0
 11  6  1  0  0  0  0
 13  9  1  0  0  0  0
 14  9  1  0  0  0  0
M  END
$$$$
