14
butane_opt
C  -3.917809   0.291086   0.035314
C  -2.708000  -0.628114   0.000771
H  -4.792624  -0.227895   0.186110
H  -4.184058   1.042611  -0.954997
H  -3.812247   0.936158   0.799198
C  -1.387713   0.126563  -0.005389
H  -2.637413  -1.287519  -0.806311
H  -2.634721  -1.288168   0.959194
C  -0.207488  -0.666339   0.057483
H  -1.509200   0.806797   0.879943
H  -1.243708   0.546842  -0.810792
H  -0.145613  -1.207213   0.910714
H   0.852531   0.059399  -0.002888
H  -0.285817  -1.291535  -0.809703
