14
butane_opt
C  -3.947642   0.274923   0.043471
C  -2.690712  -0.620896   0.013126
H  -4.866739  -0.297935   0.127582
H  -4.022397   0.902610  -0.861971
H  -3.928944   0.922761   0.877507
C  -1.391909   0.163320  -0.019293
H  -2.706066  -1.291090  -0.850278
H  -2.690168  -1.232705   0.869457
C  -0.178963  -0.681664   0.066180
H  -1.435305   0.815654   0.798205
H  -1.340887   0.812363  -0.918136
H  -0.183627  -1.255449   0.926918
H   0.782781  -0.032615   0.060061
H  -0.131319  -1.438981  -0.841289
