butane_opt
 OpenBabel08242015383D

 14 13  0  0  0  0  0  0  0  0999 V2000
   -3.9339    0.2595    0.1269 C   0  0  0  0  0  0  0  0  0  0  0  0
   -2.7166   -0.5951   -0.1174 C   0  0  0  0  0  0  0  0  0  0  0  0
   -4.8917   -0.4187    0.4447 H   0  0  0  0  0  0  0  0  0  0  0  0
   -4.1983    0.9074   -0.7329 H   0  0  0  0  0  0  0  0  0  0  0  0
   -3.6664    0.7478    0.8569 H   0  0  0  0  0  0  0  0  0  0  0  0
   -1.4235    0.1955   -0.0593 C   0  0  0  0  0  0  0  0  0  0  0  0
   -2.5989   -1.4522   -1.0400 H   0  0  0  0  0  0  0  0  0  0  0  0
   -2.5926   -1.0624    0.6788 H   0  0  0  0  0  0  0  0  0  0  0  0
   -0.1544   -0.7073    0.1481 C   0  0  0  0  0  0  0  0  0  0  0  0
   -1.4573    0.7258    0.5993 H   0  0  0  0  0  0  0  0  0  0  0  0
   -1.3535    1.0035   -1.0447 H   0  0  0  0  0  0  0  0  0  0  0  0
   -0.1132   -1.3962    1.0624 H   0  0  0  0  0  0  0  0  0  0  0  0
    0.6935   -0.1183    0.1563 H   0  0  0  0  0  0  0  0  0  0  0  0
   -0.0930   -1.2593   -0.7030 H   0  0  0  0  0  0  0  0  0  0  0  0
  1  3  1  0  0  0  0
  1  5  1  0  0  0  0
  2  6  1  0  0  0  0
  2  1  1  0  0  0  0
  2  8  1  0  0  0  0
  4  1  1  0  0  0  0
  6  9  1  0  0  0  0
  6 10  1  0  0  0  0
  7  2  1  0  0  0  0
  9 13  1  0  0  0  0
  9 12  1  0  0  0  0
 11  6  1  0  0  0  0
 14  9  1  0  0  0  0
M  END
$$$$
