butane_opt
 OpenBabel08242015383D

 14 13  0  0  0  0  0  0  0  0999 V2000
   -3.9078    0.2306   -0.0301 C   0  0  0  0  0  0  0  0  0  0  0  0
   -2.6814   -0.5587    0.0297 C   0  0  0  0  0  0  0  0  0  0  0  0
   -4.9002   -0.4732    0.3456 H   0  0  0  0  0  0  0  0  0  0  0  0
   -4.1005    1.1234   -1.0706 H   0  0  0  0  0  0  0  0  0  0  0  0
   -3.7188    0.7202    0.7287 H   0  0  0  0  0  0  0  0  0  0  0  0
   -1.4335    0.1818    0.0796 C   0  0  0  0  0  0  0  0  0  0  0  0
   -2.8100   -1.1444   -0.7636 H   0  0  0  0  0  0  0  0  0  0  0  0
   -2.7993   -1.2498    0.9011 H   0  0  0  0  0  0  0  0  0  0  0  0
   -0.1669   -0.7310    0.0211 C   0  0  0  0  0  0  0  0  0  0  0  0
   -1.5441    0.9810    1.0058 H   0  0  0  0  0  0  0  0  0  0  0  0
   -1.4845    0.7106   -0.6867 H   0  0  0  0  0  0  0  0  0  0  0  0
    0.0145   -1.2339    0.8649 H   0  0  0  0  0  0  0  0  0  0  0  0
    0.8041   -0.0477   -0.2337 H   0  0  0  0  0  0  0  0  0  0  0  0
   -0.2073   -1.3258   -0.9009 H   0  0  0  0  0  0  0  0  0  0  0  0
  1  2  1  0  0  0  0
  1  3  1  0  0  0  0
  1  5  1  0  0  0  0
  2  6  1  0  0  0  0
  2  8  1  0  0  0  0
  4  1  1  0  0  0  0
  6 10  1  0  0  0  0
  7  2  1  0  0  0  0
  9  6  1  0  0  0  0
  9 12  1  0  0  0  0
 11  6  1  0  0  0  0
 13  9  1  0  0  0  0
 14  9  1  0  0  0  0
M  END
$$$$
