14
butane_opt
C  -3.908052   0.234031  -0.063272
C  -2.699233  -0.601327   0.170207
H  -4.870463  -0.343770  -0.380849
H  -3.787138   0.666359  -0.809100
H  -4.185463   1.083136   0.851476
C  -1.417740   0.217186   0.035904
H  -2.664967  -1.104923  -0.555679
H  -2.806102  -1.273082   1.130822
C  -0.156115  -0.703078  -0.046611
H  -1.316488   0.962601   0.940542
H  -1.776067   0.688721  -0.800327
H  -0.076736  -1.314254   0.862292
H   0.778619  -0.107674   0.110391
H  -0.146358  -1.513568  -1.029076
