butane_opt
 OpenBabel08242015383D

 14 13  0  0  0  0  0  0  0  0999 V2000
   -3.9595    0.2054    0.0606 C   0  0  0  0  0  0  0  0  0  0  0  0
   -2.7179   -0.5699   -0.0235 C   0  0  0  0  0  0  0  0  0  0  0  0
   -4.8289   -0.3679    0.4185 H   0  0  0  0  0  0  0  0  0  0  0  0
   -4.0618    1.1779   -1.0865 H   0  0  0  0  0  0  0  0  0  0  0  0
   -3.8145    0.7439    0.7291 H   0  0  0  0  0  0  0  0  0  0  0  0
   -1.4038    0.2524   -0.0186 C   0  0  0  0  0  0  0  0  0  0  0  0
   -2.9205   -1.3851   -0.9447 H   0  0  0  0  0  0  0  0  0  0  0  0
   -2.7385   -1.1987    0.8600 H   0  0  0  0  0  0  0  0  0  0  0  0
   -0.1374   -0.7352    0.0698 C   0  0  0  0  0  0  0  0  0  0  0  0
   -1.2743    1.0503    0.8941 H   0  0  0  0  0  0  0  0  0  0  0  0
   -1.3986    0.7395   -0.8077 H   0  0  0  0  0  0  0  0  0  0  0  0
    0.0250   -1.3990    1.0038 H   0  0  0  0  0  0  0  0  0  0  0  0
    0.6500   -0.2259    0.1254 H   0  0  0  0  0  0  0  0  0  0  0  0
   -0.0220   -1.4404   -0.8238 H   0  0  0  0  0  0  0  0  0  0  0  0
  1  3  1  0  0  0  0
  1  5  1  0  0  0  0
  2  6  1  0  0  0  0
  2  1  1  0  0  0  0
  2  8  1  0  0  0  0
  4  1  1  0  0  0  0
  6  9  1  0  0  0  0
  6 10  1  0  0  0  0
  7  2  1  0  0  0  0
  9 13  1  0  0  0  0
  9 12  1  0  0  0  0
 11  6  1  0  0  0  0
 14  9  1  0  0  0  0
M  END
$$$$
