butane_opt
 OpenBabel08242015383D

 14 13  0  0  0  0  0  0  0  0999 V2000
   -3.9717    0.2909    0.1299 C   0  0  0  0  0  0  0  0  0  0  0  0
   -2.7015   -0.6492   -0.1009 C   0  0  0  0  0  0  0  0  0  0  0  0
   -4.8900   -0.2719    0.3756 H   0  0  0  0  0  0  0  0  0  0  0  0
   -4.3375    1.1971   -0.9481 H   0  0  0  0  0  0  0  0  0  0  0  0
   -3.9397    0.8063    0.8649 H   0  0  0  0  0  0  0  0  0  0  0  0
   -1.3531    0.1622   -0.0599 C   0  0  0  0  0  0  0  0  0  0  0  0
   -2.8180   -1.4451   -1.1068 H   0  0  0  0  0  0  0  0  0  0  0  0
   -2.5553   -1.2689    0.7300 H   0  0  0  0  0  0  0  0  0  0  0  0
   -0.1757   -0.6565    0.1219 C   0  0  0  0  0  0  0  0  0  0  0  0
   -1.2981    0.8410    0.7582 H   0  0  0  0  0  0  0  0  0  0  0  0
   -1.2268    0.7443   -0.8934 H   0  0  0  0  0  0  0  0  0  0  0  0
   -0.2220   -1.3965    1.1690 H   0  0  0  0  0  0  0  0  0  0  0  0
    0.7654   -0.1386    0.0681 H   0  0  0  0  0  0  0  0  0  0  0  0
   -0.0607   -1.2976   -0.6924 H   0  0  0  0  0  0  0  0  0  0  0  0
  1  3  1  0  0  0  0
  1  5  1  0  0  0  0
  2  6  1  0  0  0  0
  2  1  1  0  0  0  0
  2  8  1  0  0  0  0
  4  1  1  0  0  0  0
  6  9  1  0  0  0  0
  6 10  1  0  0  0  0
  7  2  1  0  0  0  0
  9 12  1  0  0  0  0
 11  6  1  0  0  0  0
 13  9  1  0  0  0  0
 14  9  1  0  0  0  0
M  END
$$$$
