butane_opt
 OpenBabel08242015383D

 14 13  0  0  0  0  0  0  0  0999 V2000
   -3.9730    0.2963   -0.1028 C   0  0  0  0  0  0  0  0  0  0  0  0
   -2.6707   -0.6532    0.2174 C   0  0  0  0  0  0  0  0  0  0  0  0
   -4.8175   -0.2083   -0.2963 H   0  0  0  0  0  0  0  0  0  0  0  0
   -3.8010    0.7745   -0.9913 H   0  0  0  0  0  0  0  0  0  0  0  0
   -4.2492    1.0350    0.7461 H   0  0  0  0  0  0  0  0  0  0  0  0
   -1.4050    0.1395    0.0977 C   0  0  0  0  0  0  0  0  0  0  0  0
   -2.6511   -1.2592   -0.5079 H   0  0  0  0  0  0  0  0  0  0  0  0
   -2.7060   -1.2847    1.0623 H   0  0  0  0  0  0  0  0  0  0  0  0
   -0.1472   -0.6789   -0.0824 C   0  0  0  0  0  0  0  0  0  0  0  0
   -1.1378    0.8837    0.9912 H   0  0  0  0  0  0  0  0  0  0  0  0
   -1.5543    0.7676   -0.8165 H   0  0  0  0  0  0  0  0  0  0  0  0
   -0.2548   -1.0407    0.6936 H   0  0  0  0  0  0  0  0  0  0  0  0
    0.8200    0.0846    0.0437 H   0  0  0  0  0  0  0  0  0  0  0  0
   -0.3303   -1.4710   -1.0383 H   0  0  0  0  0  0  0  0  0  0  0  0
  1  2  1  0  0  0  0
  1  5  1  0  0  0  0
  2  8  1  0  0  0  0
  3  1  1  0  0  0  0
  4  1  1  0  0  0  0
  6  2  1  0  0  0  0
  6 10  1  0  0  0  0
  7  2  1  0  0  0  0
  9 13  1  0  0  0  0
  9  6  1  0  0  0  0
  9 12  1  0  0  0  0
 11  6  1  0  0  0  0
 14  9  1  0  0  0  0
M  END
$$$$
