14
butane_opt
C  -3.929834   0.220210   0.051198
C  -2.681916  -0.590822  -0.038323
H  -4.833928  -0.380771   0.112715
H  -4.082621   0.737127  -0.788479
H  -3.740932   1.117108   1.051303
C  -1.433737   0.203063   0.009537
H  -2.820429  -1.345499  -1.013041
H  -2.697268  -0.956950   0.663454
C  -0.157555  -0.705631   0.087118
H  -1.468828   0.817715   0.785423
H  -1.462368   0.919577  -0.985518
H   0.114730  -1.753219   1.248630
H   0.684421  -0.126787  -0.364887
H  -0.276924  -1.025838  -0.520325
