butane_opt
 OpenBabel08242015383D

 14 13  0  0  0  0  0  0  0  0999 V2000
   -4.0058    0.3133    0.0693 C   0  0  0  0  0  0  0  0  0  0  0  0
   -2.7045   -0.6413   -0.0307 C   0  0  0  0  0  0  0  0  0  0  0  0
   -4.8507   -0.2712   -0.1413 H   0  0  0  0  0  0  0  0  0  0  0  0
   -3.9379    0.7144   -0.6474 H   0  0  0  0  0  0  0  0  0  0  0  0
   -3.9598    1.1953    1.0518 H   0  0  0  0  0  0  0  0  0  0  0  0
   -1.3853    0.1440    0.0000 C   0  0  0  0  0  0  0  0  0  0  0  0
   -2.6979   -1.4973   -1.0571 H   0  0  0  0  0  0  0  0  0  0  0  0
   -2.6578   -1.3244    0.8378 H   0  0  0  0  0  0  0  0  0  0  0  0
   -0.1439   -0.6613    0.0896 C   0  0  0  0  0  0  0  0  0  0  0  0
   -1.1983    0.5959    0.7502 H   0  0  0  0  0  0  0  0  0  0  0  0
   -1.2845    0.8966   -1.0394 H   0  0  0  0  0  0  0  0  0  0  0  0
   -0.1471   -1.5219    1.1114 H   0  0  0  0  0  0  0  0  0  0  0  0
    0.8187   -0.0447   -0.3272 H   0  0  0  0  0  0  0  0  0  0  0  0
   -0.2572   -1.0298   -0.5839 H   0  0  0  0  0  0  0  0  0  0  0  0
  1  5  1  0  0  0  0
  2  6  1  0  0  0  0
  2  1  1  0  0  0  0
  2  8  1  0  0  0  0
  3  1  1  0  0  0  0
  4  1  1  0  0  0  0
  6  9  1  0  0  0  0
  6 10  1  0  0  0  0
  7  2  1  0  0  0  0
  9 12  1  0  0  0  0
 11  6  1  0  0  0  0
 13  9  1  0  0  0  0
 14  9  1  0  0  0  0
M  END
$$$$
