14
butane_opt
C  -3.921539   0.266148   0.129514
C  -2.722682  -0.630227  -0.014780
H  -4.806056  -0.182691   0.024810
H  -4.094813   0.792363  -0.700145
H  -4.006336   1.082421   1.083126
C  -1.409677   0.189058  -0.133743
H  -2.865626  -1.528822  -1.025408
H  -2.679392  -1.154339   0.727633
C  -0.147880  -0.680323   0.121643
H  -1.396087   0.709560   0.554667
H  -1.245950   0.957053  -1.205122
H  -0.386036  -1.333119   1.078840
H   0.772309  -0.082441   0.505601
H   0.097938  -1.466946  -0.816416
