14
butane_opt
C  -3.955913   0.303645  -0.022784
C  -2.688296  -0.623480   0.000579
H  -4.844557  -0.358903   0.642118
H  -4.179019   1.201459  -1.132302
H  -3.725760   0.587865   0.634919
C  -1.385426   0.142287   0.082592
H  -2.625207  -1.256851  -0.842547
H  -2.545762  -1.391209   1.012008
C  -0.208645  -0.680863   0.002062
H  -1.292275   0.936935   1.041949
H  -1.334654   0.703925  -0.731142
H  -0.235486  -1.237376   0.768733
H   0.806173   0.072796   0.151075
H  -0.195304  -1.399896  -0.891423
