14
butane_opt
C  -4.021558   0.284694  -0.073447
C  -2.674739  -0.622551   0.151386
H  -4.882674  -0.196576   0.068936
H  -3.898383   0.950273  -1.016433
H  -4.058852   0.738466   0.694377
C  -1.378004   0.142588   0.046818
H  -2.683352  -1.159965  -0.496092
H  -2.712389  -1.392509   1.165897
C  -0.151917  -0.651160  -0.051065
H  -1.384755   0.964888   0.979214
H  -1.332472   0.595921  -0.716318
H  -0.127498  -1.014136   0.615272
H   0.798523  -0.078307   0.369657
H  -0.064892  -1.706847  -1.159682
