butane_opt
 OpenBabel08242015383D

 14 13  0  0  0  0  0  0  0  0999 V2000
   -3.9440    0.2739    0.0450 C   0  0  0  0  0  0  0  0  0  0  0  0
   -2.6895   -0.6210    0.0005 C   0  0  0  0  0  0  0  0  0  0  0  0
   -4.8807   -0.3119   -0.0065 H   0  0  0  0  0  0  0  0  0  0  0  0
   -3.9982    0.8320   -0.8104 H   0  0  0  0  0  0  0  0  0  0  0  0
   -3.9140    0.9955    0.9506 H   0  0  0  0  0  0  0  0  0  0  0  0
   -1.4037    0.1692   -0.0121 C   0  0  0  0  0  0  0  0  0  0  0  0
   -2.6819   -1.3535   -0.8697 H   0  0  0  0  0  0  0  0  0  0  0  0
   -2.6684   -1.2458    0.8789 H   0  0  0  0  0  0  0  0  0  0  0  0
   -0.1708   -0.6773    0.0619 C   0  0  0  0  0  0  0  0  0  0  0  0
   -1.4507    0.8515    0.8577 H   0  0  0  0  0  0  0  0  0  0  0  0
   -1.3546    0.7840   -0.8880 H   0  0  0  0  0  0  0  0  0  0  0  0
   -0.1037   -1.4418    1.0637 H   0  0  0  0  0  0  0  0  0  0  0  0
    0.7513   -0.0792   -0.1417 H   0  0  0  0  0  0  0  0  0  0  0  0
   -0.2340   -1.2324   -0.7285 H   0  0  0  0  0  0  0  0  0  0  0  0
  1  5  1  0  0  0  0
  2  1  1  0  0  0  0
  2  8  1  0  0  0  0
  3  1  1  0  0  0  0
  4  1  1  0  0  0  0
  6  2  1  0  0  0  0
  6  9  1  0  0  0  0
  6 10  1  0  0  0  0
  7  2  1  0  0  0  0
  9 12  1  0  0  0  0
 11  6  1  0  0  0  0
 13  9  1  0  0  0  0
 14  9  1  0  0  0  0
M  END
$$$$
