14
butane_opt
C  -3.898282   0.219382   0.062169
C  -2.681350  -0.597932   0.000741
H  -4.779859  -0.361112  -0.345842
H  -3.928473   0.622681  -0.729896
H  -3.951609   1.228320   1.112913
C  -1.428587   0.205453  -0.043896
H  -2.772565  -1.093769  -0.777917
H  -2.693537  -1.297695   0.963459
C  -0.201412  -0.708283   0.080170
H  -1.503767   0.921912   0.859160
H  -1.541061   0.988932  -0.984583
H  -0.003430  -1.465314   1.049392
H   0.799185  -0.126576  -0.109013
H  -0.136927  -1.323685  -0.763478
