butane_opt
 OpenBabel08242015383D

 14 13  0  0  0  0  0  0  0  0999 V2000
   -3.9613    0.2210   -0.0256 C   0  0  0  0  0  0  0  0  0  0  0  0
   -2.7071   -0.5854    0.0830 C   0  0  0  0  0  0  0  0  0  0  0  0
   -4.8958   -0.4174   -0.3309 H   0  0  0  0  0  0  0  0  0  0  0  0
   -3.8232    0.6116   -0.7687 H   0  0  0  0  0  0  0  0  0  0  0  0
   -4.0649    1.1668    1.0071 H   0  0  0  0  0  0  0  0  0  0  0  0
   -1.4058    0.2424    0.0442 C   0  0  0  0  0  0  0  0  0  0  0  0
   -2.7438   -1.0853   -0.6396 H   0  0  0  0  0  0  0  0  0  0  0  0
   -2.8699   -1.3884    1.1298 H   0  0  0  0  0  0  0  0  0  0  0  0
   -0.1175   -0.7303   -0.0235 C   0  0  0  0  0  0  0  0  0  0  0  0
   -1.2948    0.9375    0.9050 H   0  0  0  0  0  0  0  0  0  0  0  0
   -1.5260    0.8514   -0.8975 H   0  0  0  0  0  0  0  0  0  0  0  0
    0.0613   -1.3294    0.9850 H   0  0  0  0  0  0  0  0  0  0  0  0
    0.5636   -0.3275   -0.0209 H   0  0  0  0  0  0  0  0  0  0  0  0
   -0.1002   -1.3040   -0.8225 H   0  0  0  0  0  0  0  0  0  0  0  0
  1  2  1  0  0  0  0
  1  5  1  0  0  0  0
  2  8  1  0  0  0  0
  3  1  1  0  0  0  0
  4  1  1  0  0  0  0
  6  2  1  0  0  0  0
  6 10  1  0  0  0  0
  7  2  1  0  0  0  0
  9 13  1  0  0  0  0
  9  6  1  0  0  0  0
  9 12  1  0  0  0  0
 11  6  1  0  0  0  0
 14  9  1  0  0  0  0
M  END
$$$$
