14
butane_opt
C  -3.924443   0.297643   0.085814
C  -2.679656  -0.655044  -0.048823
H  -4.733067  -0.189547  -0.105026
H  -4.017818   0.757997  -0.764576
H  -3.907894   1.217197   1.143225
C  -1.392966   0.124934  -0.060088
H  -2.933911  -1.406852  -1.000730
H  -2.603633  -1.177035   0.741436
C  -0.202269  -0.665886   0.099722
H  -1.395640   0.884929   0.943348
H  -1.366992   0.687676  -0.887511
H  -0.129504  -1.636911   1.292183
H   0.734524   0.016414  -0.403468
H  -0.306920  -0.806128  -0.397829
