butane_opt
 OpenBabel08242015383D

 14 13  0  0  0  0  0  0  0  0999 V2000
   -3.9359    0.2340    0.0696 C   0  0  0  0  0  0  0  0  0  0  0  0
   -2.7177   -0.5855   -0.0204 C   0  0  0  0  0  0  0  0  0  0  0  0
   -5.0126   -0.4585    0.1052 H   0  0  0  0  0  0  0  0  0  0  0  0
   -4.1310    0.8160   -0.7667 H   0  0  0  0  0  0  0  0  0  0  0  0
   -3.8349    1.0376    0.9993 H   0  0  0  0  0  0  0  0  0  0  0  0
   -1.4317    0.2177   -0.0345 C   0  0  0  0  0  0  0  0  0  0  0  0
   -2.8198   -1.4271   -0.9706 H   0  0  0  0  0  0  0  0  0  0  0  0
   -2.8271   -0.9797    0.7301 H   0  0  0  0  0  0  0  0  0  0  0  0
   -0.0991   -0.7237    0.0947 C   0  0  0  0  0  0  0  0  0  0  0  0
   -1.5174    0.7647    0.7099 H   0  0  0  0  0  0  0  0  0  0  0  0
   -1.4257    0.8818   -1.0265 H   0  0  0  0  0  0  0  0  0  0  0  0
    0.0221   -1.5043    1.1028 H   0  0  0  0  0  0  0  0  0  0  0  0
    0.8316   -0.1773   -0.0467 H   0  0  0  0  0  0  0  0  0  0  0  0
   -0.0829   -1.1446   -0.6721 H   0  0  0  0  0  0  0  0  0  0  0  0
  1  3  1  0  0  0  0
  1  5  1  0  0  0  0
  2  1  1  0  0  0  0
  2  8  1  0  0  0  0
  4  1  1  0  0  0  0
  6  2  1  0  0  0  0
  6  9  1  0  0  0  0
  6 10  1  0  0  0  0
  7  2  1  0  0  0  0
  9 12  1  0  0  0  0
 11  6  1  0  0  0  0
 13  9  1  0  0  0  0
 14  9  1  0  0  0  0
M  END
$$$$
