butane_opt
 OpenBabel08242015383D

 14 10  0  0  0  0  0  0  0  0999 V2000
   -3.9244    0.2976    0.0858 C   0  0  0  0  0  0  0  0  0  0  0  0
   -2.6797   -0.6550   -0.0488 C   0  0  0  0  0  0  0  0  0  0  0  0
   -4.7331   -0.1895   -0.1050 H   0  0  0  0  0  0  0  0  0  0  0  0
   -4.0178    0.7580   -0.7646 H   0  0  0  0  0  0  0  0  0  0  0  0
   -3.9079    1.2172    1.1432 H   0  0  0  0  0  0  0  0  0  0  0  0
   -1.3930    0.1249   -0.0601 C   0  0  0  0  0  0  0  0  0  0  0  0
   -2.9339   -1.4069   -1.0007 H   0  0  0  0  0  0  0  0  0  0  0  0
   -2.6036   -1.1770    0.7414 H   0  0  0  0  0  0  0  0  0  0  0  0
   -0.2023   -0.6659    0.0997 C   0  0  0  0  0  0  0  0  0  0  0  0
   -1.3956    0.8849    0.9433 H   0  0  0  0  0  0  0  0  0  0  0  0
   -1.3670    0.6877   -0.8875 H   0  0  0  0  0  0  0  0  0  0  0  0
   -0.1295   -1.6369    1.2922 H   0  0  0  0  0  0  0  0  0  0  0  0
    0.7345    0.0164   -0.4035 H   0  0  0  0  0  0  0  0  0  0  0  0
   -0.3069   -0.8061   -0.3978 H   0  0  0  0  0  0  0  0  0  0  0  0
  1  5  1  0  0  0  0
  2  1  1  0  0  0  0
  2  8  1  0  0  0  0
  3  1  1  0  0  0  0
  4  1  1  0  0  0  0
  6  9  1  0  0  0  0
  6 10  1  0  0  0  0
  7  2  1  0  0  0  0
 11  6  1  0  0  0  0
 13  9  1  0  0  0  0
M  RAD  5   2   2   6   2   9   3  12   2  14   2
M  END
$$$$
