14
butane_opt
C  -3.998888   0.306267  -0.073976
C  -2.684465  -0.653228   0.123775
H  -4.994708  -0.316952   0.065357
H  -4.080915   0.982991  -1.029627
H  -4.171501   0.977574   0.812648
C  -1.365003   0.141202   0.077668
H  -2.578998  -1.133763  -0.470643
H  -2.825219  -1.452193   1.122120
C  -0.151159  -0.664007  -0.037349
H  -1.085566   0.763433   0.936754
H  -1.398025   0.746589  -0.790598
H  -0.233012  -0.939515   0.556191
H   0.818540  -0.056232   0.248837
H  -0.070021  -1.604241  -1.110243
