butane_opt
 OpenBabel08242015383D

 14 13  0  0  0  0  0  0  0  0999 V2000
   -3.9543    0.2861    0.0762 C   0  0  0  0  0  0  0  0  0  0  0  0
   -2.6364   -0.6074   -0.0505 C   0  0  0  0  0  0  0  0  0  0  0  0
   -4.8692   -0.3720   -0.0183 H   0  0  0  0  0  0  0  0  0  0  0  0
   -4.0736    0.6407   -0.6137 H   0  0  0  0  0  0  0  0  0  0  0  0
   -3.9154    1.1800    1.1816 H   0  0  0  0  0  0  0  0  0  0  0  0
   -1.4008    0.1125   -0.0656 C   0  0  0  0  0  0  0  0  0  0  0  0
   -2.7846   -1.2921   -0.8800 H   0  0  0  0  0  0  0  0  0  0  0  0
   -2.6165   -1.2880    0.8765 H   0  0  0  0  0  0  0  0  0  0  0  0
   -0.2008   -0.6711    0.1001 C   0  0  0  0  0  0  0  0  0  0  0  0
   -1.4575    0.7670    0.7787 H   0  0  0  0  0  0  0  0  0  0  0  0
   -1.3445    0.9347   -1.0357 H   0  0  0  0  0  0  0  0  0  0  0  0
   -0.3822   -1.3810    1.0289 H   0  0  0  0  0  0  0  0  0  0  0  0
    0.7553    0.0194   -0.0182 H   0  0  0  0  0  0  0  0  0  0  0  0
   -0.0287   -1.1162   -0.5666 H   0  0  0  0  0  0  0  0  0  0  0  0
  1  5  1  0  0  0  0
  2  1  1  0  0  0  0
  2  8  1  0  0  0  0
  3  1  1  0  0  0  0
  4  1  1  0  0  0  0
  6  2  1  0  0  0  0
  6  9  1  0  0  0  0
  6 10  1  0  0  0  0
  7  2  1  0  0  0  0
  9 12  1  0  0  0  0
 11  6  1  0  0  0  0
 13  9  1  0  0  0  0
 14  9  1  0  0  0  0
M  END
$$$$
