butane_opt
 OpenBabel08242015383D

 14 13  0  0  0  0  0  0  0  0999 V2000
   -3.8982    0.2290    0.0596 C   0  0  0  0  0  0  0  0  0  0  0  0
   -2.7014   -0.5624   -0.0122 C   0  0  0  0  0  0  0  0  0  0  0  0
   -4.7849   -0.3826   -0.0970 H   0  0  0  0  0  0  0  0  0  0  0  0
   -3.8645    0.6076   -0.6933 H   0  0  0  0  0  0  0  0  0  0  0  0
   -3.9847    1.1329    0.9515 H   0  0  0  0  0  0  0  0  0  0  0  0
   -1.4126    0.2190   -0.0144 C   0  0  0  0  0  0  0  0  0  0  0  0
   -2.6011   -1.4301   -0.9114 H   0  0  0  0  0  0  0  0  0  0  0  0
   -2.6818   -1.1339    0.8312 H   0  0  0  0  0  0  0  0  0  0  0  0
   -0.1974   -0.7102    0.0836 C   0  0  0  0  0  0  0  0  0  0  0  0
   -1.4651    0.8113    0.7469 H   0  0  0  0  0  0  0  0  0  0  0  0
   -1.3300    0.7858   -0.8802 H   0  0  0  0  0  0  0  0  0  0  0  0
    0.0139   -1.6246    1.1489 H   0  0  0  0  0  0  0  0  0  0  0  0
    0.6325   -0.2743   -0.4073 H   0  0  0  0  0  0  0  0  0  0  0  0
   -0.4085   -1.0686   -0.5852 H   0  0  0  0  0  0  0  0  0  0  0  0
  1  5  1  0  0  0  0
  2  1  1  0  0  0  0
  2  8  1  0  0  0  0
  3  1  1  0  0  0  0
  4  1  1  0  0  0  0
  6  2  1  0  0  0  0
  6  9  1  0  0  0  0
  6 10  1  0  0  0  0
  7  2  1  0  0  0  0
  9 12  1  0  0  0  0
 11  6  1  0  0  0  0
 13  9  1  0  0  0  0
 14  9  1  0  0  0  0
M  END
$$$$
