14
butane_opt
C  -4.003295   0.306881  -0.085741
C  -2.674117  -0.698750   0.124170
H  -4.886754  -0.261973   0.244464
H  -4.141336   1.172481  -1.111640
H  -3.966363   0.880158   0.746219
C  -1.353718   0.175330   0.080168
H  -2.707681  -1.132141  -0.529631
H  -2.793011  -1.444029   1.111274
C  -0.179857  -0.675015  -0.045355
H  -1.228823   0.868445   0.976151
H  -1.347380   0.759314  -0.666144
H  -0.257958  -0.890600   0.565223
H   0.823790  -0.048628   0.274623
H   0.004506  -1.665838  -1.117767
