butane_opt
 OpenBabel08242015383D

 14 13  0  0  0  0  0  0  0  0999 V2000
   -3.9748    0.2883    0.0629 C   0  0  0  0  0  0  0  0  0  0  0  0
   -2.6895   -0.6456   -0.0640 C   0  0  0  0  0  0  0  0  0  0  0  0
   -4.8041   -0.2733    0.5276 H   0  0  0  0  0  0  0  0  0  0  0  0
   -4.2981    1.1230   -0.9684 H   0  0  0  0  0  0  0  0  0  0  0  0
   -3.9240    0.8405    0.8930 H   0  0  0  0  0  0  0  0  0  0  0  0
   -1.3699    0.1666   -0.0301 C   0  0  0  0  0  0  0  0  0  0  0  0
   -2.8998   -1.3479   -0.9705 H   0  0  0  0  0  0  0  0  0  0  0  0
   -2.7406   -1.3110    0.8328 H   0  0  0  0  0  0  0  0  0  0  0  0
   -0.1376   -0.6631    0.0814 C   0  0  0  0  0  0  0  0  0  0  0  0
   -1.4578    0.9157    0.9343 H   0  0  0  0  0  0  0  0  0  0  0  0
   -1.1573    0.6630   -0.8597 H   0  0  0  0  0  0  0  0  0  0  0  0
   -0.2102   -1.3768    1.0835 H   0  0  0  0  0  0  0  0  0  0  0  0
    0.7157   -0.1041    0.0419 H   0  0  0  0  0  0  0  0  0  0  0  0
   -0.1793   -1.3282   -0.6989 H   0  0  0  0  0  0  0  0  0  0  0  0
  1  3  1  0  0  0  0
  1  5  1  0  0  0  0
  2  6  1  0  0  0  0
  2  1  1  0  0  0  0
  2  8  1  0  0  0  0
  4  1  1  0  0  0  0
  6  9  1  0  0  0  0
  6 10  1  0  0  0  0
  7  2  1  0  0  0  0
  9 12  1  0  0  0  0
 11  6  1  0  0  0  0
 13  9  1  0  0  0  0
 14  9  1  0  0  0  0
M  END
$$$$
