14
butane_opt
C  -3.936593   0.214807   0.116591
C  -2.752499  -0.577077  -0.064345
H  -4.793262  -0.288374   0.401320
H  -4.256641   1.125527  -0.943748
H  -3.720715   0.719743   0.856335
C  -1.397481   0.232133  -0.073999
H  -2.778191  -1.558611  -1.046075
H  -2.729179  -1.041679   0.700744
C  -0.117007  -0.732708   0.113013
H  -1.407925   0.967772   0.809904
H  -1.338074   0.901841  -1.022478
H  -0.259704  -1.380585   1.073774
H   0.677311  -0.286276   0.209947
H   0.056354  -1.283619  -0.713078
