butane_opt
 OpenBabel08242015383D

 14 12  0  0  0  0  0  0  0  0999 V2000
   -3.9335    0.2358    0.0898 C   0  0  0  0  0  0  0  0  0  0  0  0
   -2.6797   -0.5726   -0.0347 C   0  0  0  0  0  0  0  0  0  0  0  0
   -4.8273   -0.4132   -0.1662 H   0  0  0  0  0  0  0  0  0  0  0  0
   -3.8121    0.6693   -0.6623 H   0  0  0  0  0  0  0  0  0  0  0  0
   -3.9682    0.9472    0.9652 H   0  0  0  0  0  0  0  0  0  0  0  0
   -1.4337    0.2172   -0.0099 C   0  0  0  0  0  0  0  0  0  0  0  0
   -2.6795   -1.4241   -1.0075 H   0  0  0  0  0  0  0  0  0  0  0  0
   -2.7294   -0.9263    0.7750 H   0  0  0  0  0  0  0  0  0  0  0  0
   -0.1863   -0.7277    0.0786 C   0  0  0  0  0  0  0  0  0  0  0  0
   -1.3472    0.7748    0.7343 H   0  0  0  0  0  0  0  0  0  0  0  0
   -1.4150    0.9064   -0.9421 H   0  0  0  0  0  0  0  0  0  0  0  0
   -0.0382   -1.7385    1.2282 H   0  0  0  0  0  0  0  0  0  0  0  0
    0.7300   -0.0621   -0.3842 H   0  0  0  0  0  0  0  0  0  0  0  0
   -0.1348   -1.0445   -0.5340 H   0  0  0  0  0  0  0  0  0  0  0  0
  1  5  1  0  0  0  0
  2  6  1  0  0  0  0
  2  1  1  0  0  0  0
  2  8  1  0  0  0  0
  3  1  1  0  0  0  0
  4  1  1  0  0  0  0
  6  9  1  0  0  0  0
  6 10  1  0  0  0  0
  7  2  1  0  0  0  0
 11  6  1  0  0  0  0
 13  9  1  0  0  0  0
 14  9  1  0  0  0  0
M  RAD  2   9   2  12   2
M  END
$$$$
