14
butane_opt
C  -3.936375   0.275076   0.046097
C  -2.685276  -0.627981   0.002512
H  -4.837075  -0.308672   0.004679
H  -4.039670   0.871224  -0.810638
H  -3.978728   0.964761   0.939204
C  -1.405038   0.166875  -0.005906
H  -2.732483  -1.363999  -0.902260
H  -2.719224  -1.217742   0.854818
C  -0.170826  -0.679437   0.064751
H  -1.421018   0.848219   0.832561
H  -1.343694   0.855513  -0.920229
H  -0.089057  -1.397950   1.002829
H   0.743915  -0.095302  -0.126909
H  -0.234773  -1.237810  -0.713820
