butane_opt
 OpenBabel08242015383D

 14 13  0  0  0  0  0  0  0  0999 V2000
   -3.8712    0.2292    0.1242 C   0  0  0  0  0  0  0  0  0  0  0  0
   -2.6982   -0.5785   -0.1301 C   0  0  0  0  0  0  0  0  0  0  0  0
   -4.7922   -0.4527    0.4577 H   0  0  0  0  0  0  0  0  0  0  0  0
   -4.3422    0.9796   -0.7232 H   0  0  0  0  0  0  0  0  0  0  0  0
   -3.5339    0.7256    0.9623 H   0  0  0  0  0  0  0  0  0  0  0  0
   -1.4586    0.2585   -0.0792 C   0  0  0  0  0  0  0  0  0  0  0  0
   -2.7730   -1.2876   -1.0382 H   0  0  0  0  0  0  0  0  0  0  0  0
   -2.7457   -1.2158    0.7659 H   0  0  0  0  0  0  0  0  0  0  0  0
   -0.1810   -0.7451    0.1312 C   0  0  0  0  0  0  0  0  0  0  0  0
   -1.5700    0.8838    0.7842 H   0  0  0  0  0  0  0  0  0  0  0  0
   -1.2113    0.9137   -1.0374 H   0  0  0  0  0  0  0  0  0  0  0  0
   -0.3349   -1.5041    1.1822 H   0  0  0  0  0  0  0  0  0  0  0  0
    0.8183   -0.1053    0.2160 H   0  0  0  0  0  0  0  0  0  0  0  0
   -0.0101   -1.3777   -0.7094 H   0  0  0  0  0  0  0  0  0  0  0  0
  1  3  1  0  0  0  0
  1  5  1  0  0  0  0
  2  6  1  0  0  0  0
  2  1  1  0  0  0  0
  2  8  1  0  0  0  0
  4  1  1  0  0  0  0
  6  9  1  0  0  0  0
  6 10  1  0  0  0  0
  7  2  1  0  0  0  0
  9 13  1  0  0  0  0
  9 12  1  0  0  0  0
 11  6  1  0  0  0  0
 14  9  1  0  0  0  0
M  END
$$$$
