butane_opt
 OpenBabel08242015383D

 14 13  0  0  0  0  0  0  0  0999 V2000
   -3.9181    0.2892   -0.0813 C   0  0  0  0  0  0  0  0  0  0  0  0
   -2.6946   -0.6639    0.1730 C   0  0  0  0  0  0  0  0  0  0  0  0
   -4.6971   -0.1535   -0.3662 H   0  0  0  0  0  0  0  0  0  0  0  0
   -3.7468    0.8172   -0.9537 H   0  0  0  0  0  0  0  0  0  0  0  0
   -4.2762    1.0515    0.8186 H   0  0  0  0  0  0  0  0  0  0  0  0
   -1.3904    0.1695    0.1058 C   0  0  0  0  0  0  0  0  0  0  0  0
   -2.4930   -1.1632   -0.6086 H   0  0  0  0  0  0  0  0  0  0  0  0
   -2.7809   -1.4157    1.1876 H   0  0  0  0  0  0  0  0  0  0  0  0
   -0.2001   -0.6774   -0.1005 C   0  0  0  0  0  0  0  0  0  0  0  0
   -1.2205    0.9448    1.0404 H   0  0  0  0  0  0  0  0  0  0  0  0
   -1.5165    0.6285   -0.6605 H   0  0  0  0  0  0  0  0  0  0  0  0
   -0.2645   -1.2519    0.8290 H   0  0  0  0  0  0  0  0  0  0  0  0
    0.8190   -0.0675   -0.1008 H   0  0  0  0  0  0  0  0  0  0  0  0
   -0.4004   -1.2578   -0.8821 H   0  0  0  0  0  0  0  0  0  0  0  0
  1  2  1  0  0  0  0
  1  5  1  0  0  0  0
  2  8  1  0  0  0  0
  3  1  1  0  0  0  0
  4  1  1  0  0  0  0
  6  2  1  0  0  0  0
  6 10  1  0  0  0  0
  7  2  1  0  0  0  0
  9  6  1  0  0  0  0
  9 12  1  0  0  0  0
 11  6  1  0  0  0  0
 13  9  1  0  0  0  0
 14  9  1  0  0  0  0
M  END
$$$$
