butane_opt
 OpenBabel08242015383D

 14 12  0  0  0  0  0  0  0  0999 V2000
   -3.9389    0.3073    0.0903 C   0  0  0  0  0  0  0  0  0  0  0  0
   -2.7005   -0.6715   -0.0734 C   0  0  0  0  0  0  0  0  0  0  0  0
   -4.7418   -0.1888   -0.0576 H   0  0  0  0  0  0  0  0  0  0  0  0
   -3.9961    0.7764   -0.7155 H   0  0  0  0  0  0  0  0  0  0  0  0
   -3.8897    1.2383    1.1009 H   0  0  0  0  0  0  0  0  0  0  0  0
   -1.3808    0.1463   -0.0271 C   0  0  0  0  0  0  0  0  0  0  0  0
   -2.7408   -1.4328   -1.0637 H   0  0  0  0  0  0  0  0  0  0  0  0
   -2.6341   -1.3128    0.7490 H   0  0  0  0  0  0  0  0  0  0  0  0
   -0.1975   -0.6449    0.1292 C   0  0  0  0  0  0  0  0  0  0  0  0
   -1.4389    0.7827    0.7818 H   0  0  0  0  0  0  0  0  0  0  0  0
   -1.3705    0.7405   -0.9190 H   0  0  0  0  0  0  0  0  0  0  0  0
   -0.0172   -1.6904    1.3059 H   0  0  0  0  0  0  0  0  0  0  0  0
    0.8313   -0.0301   -0.5573 H   0  0  0  0  0  0  0  0  0  0  0  0
   -0.4539   -0.9477   -0.5537 H   0  0  0  0  0  0  0  0  0  0  0  0
  1  5  1  0  0  0  0
  2  6  1  0  0  0  0
  2  1  1  0  0  0  0
  2  8  1  0  0  0  0
  3  1  1  0  0  0  0
  4  1  1  0  0  0  0
  6  9  1  0  0  0  0
  6 10  1  0  0  0  0
  7  2  1  0  0  0  0
 11  6  1  0  0  0  0
 13  9  1  0  0  0  0
 14  9  1  0  0  0  0
M  RAD  2   9   2  12   2
M  END
$$$$
