butane_opt
 OpenBabel08242015383D

 14 13  0  0  0  0  0  0  0  0999 V2000
   -3.9578    0.2840   -0.0399 C   0  0  0  0  0  0  0  0  0  0  0  0
   -2.6955   -0.6430    0.1442 C   0  0  0  0  0  0  0  0  0  0  0  0
   -4.8679   -0.2761   -0.0966 H   0  0  0  0  0  0  0  0  0  0  0  0
   -3.9433    0.8987   -0.9488 H   0  0  0  0  0  0  0  0  0  0  0  0
   -4.1895    0.9749    0.8338 H   0  0  0  0  0  0  0  0  0  0  0  0
   -1.3740    0.1879    0.0107 C   0  0  0  0  0  0  0  0  0  0  0  0
   -2.6684   -1.2813   -0.6203 H   0  0  0  0  0  0  0  0  0  0  0  0
   -2.7165   -1.4644    1.1407 H   0  0  0  0  0  0  0  0  0  0  0  0
   -0.1747   -0.6984   -0.0122 C   0  0  0  0  0  0  0  0  0  0  0  0
   -1.2766    1.0257    0.9319 H   0  0  0  0  0  0  0  0  0  0  0  0
   -1.2182    0.7152   -0.8596 H   0  0  0  0  0  0  0  0  0  0  0  0
   -0.3210   -0.9422    0.6431 H   0  0  0  0  0  0  0  0  0  0  0  0
    0.6528   -0.1377    0.2007 H   0  0  0  0  0  0  0  0  0  0  0  0
   -0.0223   -1.5695   -1.0625 H   0  0  0  0  0  0  0  0  0  0  0  0
  1  2  1  0  0  0  0
  1  5  1  0  0  0  0
  2  8  1  0  0  0  0
  3  1  1  0  0  0  0
  4  1  1  0  0  0  0
  6  2  1  0  0  0  0
  6 10  1  0  0  0  0
  7  2  1  0  0  0  0
  9  6  1  0  0  0  0
  9 13  1  0  0  0  0
  9 12  1  0  0  0  0
 11  6  1  0  0  0  0
 14  9  1  0  0  0  0
M  END
$$$$
