butane_opt
 OpenBabel08242015383D

 14 11  0  0  0  0  0  0  0  0999 V2000
   -3.9058    0.2185    0.0679 C   0  0  0  0  0  0  0  0  0  0  0  0
   -2.7012   -0.5945   -0.0334 C   0  0  0  0  0  0  0  0  0  0  0  0
   -4.7462   -0.2556   -0.1100 H   0  0  0  0  0  0  0  0  0  0  0  0
   -3.9189    0.7687   -0.7608 H   0  0  0  0  0  0  0  0  0  0  0  0
   -3.8760    1.0111    0.9676 H   0  0  0  0  0  0  0  0  0  0  0  0
   -1.4723    0.2090   -0.0240 C   0  0  0  0  0  0  0  0  0  0  0  0
   -2.8891   -1.3545   -0.9039 H   0  0  0  0  0  0  0  0  0  0  0  0
   -2.5448   -1.0625    0.7446 H   0  0  0  0  0  0  0  0  0  0  0  0
   -0.1451   -0.7022    0.0807 C   0  0  0  0  0  0  0  0  0  0  0  0
   -1.4063    0.9901    0.9833 H   0  0  0  0  0  0  0  0  0  0  0  0
   -1.3884    0.7413   -0.8747 H   0  0  0  0  0  0  0  0  0  0  0  0
    0.0621   -1.7285    1.2350 H   0  0  0  0  0  0  0  0  0  0  0  0
    0.6562   -0.1718   -0.4599 H   0  0  0  0  0  0  0  0  0  0  0  0
   -0.2837   -0.9726   -0.4509 H   0  0  0  0  0  0  0  0  0  0  0  0
  1  5  1  0  0  0  0
  2  6  1  0  0  0  0
  2  1  1  0  0  0  0
  2  8  1  0  0  0  0
  3  1  1  0  0  0  0
  4  1  1  0  0  0  0
  6  9  1  0  0  0  0
  6 10  1  0  0  0  0
  7  2  1  0  0  0  0
 11  6  1  0  0  0  0
 13  9  1  0  0  0  0
M  RAD  3   9   3  12   2  14   2
M  END
$$$$
