14
butane_opt
C  -3.954841   0.309525   0.115465
C  -2.731725  -0.685629  -0.056295
H  -4.770890  -0.293393  -0.097781
H  -4.115772   0.832201  -0.701232
H  -4.078788   1.103819   0.986117
C  -1.373945   0.172495  -0.053570
H  -2.771354  -1.547838  -1.069905
H  -2.516601  -1.024927   0.617360
C  -0.149565  -0.679452   0.110226
H  -1.493292   0.800955   0.832664
H  -1.177365   0.781048  -0.927470
H  -0.052766  -1.644615   1.261953
H   0.760758  -0.062137  -0.450636
H  -0.285259  -0.800622  -0.374325
