14
butane_opt
C  -3.898221   0.228960   0.059619
C  -2.701385  -0.562418  -0.012218
H  -4.784906  -0.382647  -0.096965
H  -3.864477   0.607566  -0.693296
H  -3.984658   1.132947   0.951462
C  -1.412573   0.219032  -0.014413
H  -2.601140  -1.430111  -0.911436
H  -2.681765  -1.133949   0.831203
C  -0.197368  -0.710219   0.083608
H  -1.465101   0.811287   0.746864
H  -1.330023   0.785757  -0.880160
H   0.013949  -1.624554   1.148896
H   0.632549  -0.274346  -0.407265
H  -0.408478  -1.068568  -0.585229
