14
butane_opt
C  -3.932923   0.306559   0.113204
C  -2.671532  -0.647294  -0.048075
H  -4.927413  -0.330968   0.095151
H  -4.141182   0.863008  -0.704960
H  -3.762453   0.973165   0.979676
C  -1.413343   0.133072  -0.122593
H  -2.618509  -1.350269  -0.943171
H  -2.603821  -1.309594   0.871193
C  -0.178845  -0.653785   0.134360
H  -1.554889   0.750155   0.678254
H  -1.331804   0.806516  -0.965239
H  -0.362451  -1.086781   0.991503
H   0.779014  -0.058191   0.249257
H  -0.142744  -1.396589  -0.759799
