butane_opt
 OpenBabel08242015383D

 14 12  0  0  0  0  0  0  0  0999 V2000
   -3.9911    0.2430    0.0189 C   0  0  0  0  0  0  0  0  0  0  0  0
   -2.6931   -0.5909    0.0717 C   0  0  0  0  0  0  0  0  0  0  0  0
   -4.9248   -0.3559   -0.3925 H   0  0  0  0  0  0  0  0  0  0  0  0
   -3.8070    0.5188   -0.6958 H   0  0  0  0  0  0  0  0  0  0  0  0
   -4.0807    1.2833    1.1575 H   0  0  0  0  0  0  0  0  0  0  0  0
   -1.3910    0.1935   -0.0131 C   0  0  0  0  0  0  0  0  0  0  0  0
   -2.8168   -1.2960   -0.8755 H   0  0  0  0  0  0  0  0  0  0  0  0
   -2.7450   -1.2014    0.9294 H   0  0  0  0  0  0  0  0  0  0  0  0
   -0.1291   -0.7016    0.0498 C   0  0  0  0  0  0  0  0  0  0  0  0
   -1.3275    0.7251    0.7240 H   0  0  0  0  0  0  0  0  0  0  0  0
   -1.4298    1.0218   -1.0040 H   0  0  0  0  0  0  0  0  0  0  0  0
   -0.0554   -1.3492    1.0073 H   0  0  0  0  0  0  0  0  0  0  0  0
    0.7345   -0.2580   -0.1910 H   0  0  0  0  0  0  0  0  0  0  0  0
   -0.1020   -1.3056   -0.7099 H   0  0  0  0  0  0  0  0  0  0  0  0
  1  2  1  0  0  0  0
  2  8  1  0  0  0  0
  3  1  1  0  0  0  0
  4  1  1  0  0  0  0
  6  9  1  0  0  0  0
  6  2  1  0  0  0  0
  6 10  1  0  0  0  0
  7  2  1  0  0  0  0
  9 12  1  0  0  0  0
 11  6  1  0  0  0  0
 13  9  1  0  0  0  0
 14  9  1  0  0  0  0
M  RAD  2   1   2   5   2
M  END
$$$$
