butane_opt
 OpenBabel08242015383D

 14 11  0  0  0  0  0  0  0  0999 V2000
   -4.0015    0.2909   -0.0374 C   0  0  0  0  0  0  0  0  0  0  0  0
   -2.6999   -0.6821    0.1032 C   0  0  0  0  0  0  0  0  0  0  0  0
   -4.8103   -0.2349    0.0660 H   0  0  0  0  0  0  0  0  0  0  0  0
   -3.9383    1.0875   -1.1231 H   0  0  0  0  0  0  0  0  0  0  0  0
   -4.0122    0.9258    0.7741 H   0  0  0  0  0  0  0  0  0  0  0  0
   -1.3820    0.1766    0.0604 C   0  0  0  0  0  0  0  0  0  0  0  0
   -2.6088   -1.0946   -0.5821 H   0  0  0  0  0  0  0  0  0  0  0  0
   -2.5976   -1.5777    1.1331 H   0  0  0  0  0  0  0  0  0  0  0  0
   -0.1586   -0.6523   -0.0249 C   0  0  0  0  0  0  0  0  0  0  0  0
   -1.3060    0.8207    0.8360 H   0  0  0  0  0  0  0  0  0  0  0  0
   -1.3479    0.7580   -0.7598 H   0  0  0  0  0  0  0  0  0  0  0  0
   -0.1155   -0.9092    0.5509 H   0  0  0  0  0  0  0  0  0  0  0  0
    0.7193   -0.0967    0.3974 H   0  0  0  0  0  0  0  0  0  0  0  0
   -0.1156   -1.7343   -1.1106 H   0  0  0  0  0  0  0  0  0  0  0  0
  1  3  1  0  0  0  0
  1  2  1  0  0  0  0
  1  5  1  0  0  0  0
  2  8  1  0  0  0  0
  4  1  1  0  0  0  0
  6  2  1  0  0  0  0
  6 10  1  0  0  0  0
  7  2  1  0  0  0  0
  9  6  1  0  0  0  0
  9 13  1  0  0  0  0
 11  6  1  0  0  0  0
M  RAD  3   9   3  12   2  14   2
M  END
$$$$
