14
butane_opt
C  -3.967729   0.260837   0.092458
C  -2.718113  -0.590397  -0.036313
H  -5.024657  -0.378577  -0.151787
H  -3.910660   0.622829  -0.632374
H  -3.884595   1.002228   1.097873
C  -1.403141   0.200846  -0.057219
H  -2.784898  -1.515037  -1.083797
H  -2.756917  -0.998947   0.708478
C  -0.105802  -0.705634   0.107487
H  -1.382660   0.885555   0.805062
H  -1.403527   0.944824  -0.950927
H  -0.006217  -1.850887   1.352512
H   0.727506  -0.178897  -0.372008
H  -0.251714  -1.017693  -0.546623
