butane_opt
 OpenBabel08242015383D

 14 13  0  0  0  0  0  0  0  0999 V2000
   -3.9723    0.3056   -0.0413 C   0  0  0  0  0  0  0  0  0  0  0  0
   -2.6640   -0.6666    0.0892 C   0  0  0  0  0  0  0  0  0  0  0  0
   -4.8649   -0.1593    0.2871 H   0  0  0  0  0  0  0  0  0  0  0  0
   -4.2504    1.1912   -1.1127 H   0  0  0  0  0  0  0  0  0  0  0  0
   -3.9227    0.5505    0.5520 H   0  0  0  0  0  0  0  0  0  0  0  0
   -1.3952    0.1487    0.0819 C   0  0  0  0  0  0  0  0  0  0  0  0
   -2.6869   -1.4164   -0.7847 H   0  0  0  0  0  0  0  0  0  0  0  0
   -2.7254   -1.3340    1.0108 H   0  0  0  0  0  0  0  0  0  0  0  0
   -0.1722   -0.6470   -0.0062 C   0  0  0  0  0  0  0  0  0  0  0  0
   -1.3024    0.8629    1.0327 H   0  0  0  0  0  0  0  0  0  0  0  0
   -1.3621    0.8100   -0.8244 H   0  0  0  0  0  0  0  0  0  0  0  0
   -0.0491   -0.9792    0.7054 H   0  0  0  0  0  0  0  0  0  0  0  0
    0.7405   -0.0574    0.0989 H   0  0  0  0  0  0  0  0  0  0  0  0
   -0.1844   -1.6115   -1.0842 H   0  0  0  0  0  0  0  0  0  0  0  0
  1  2  1  0  0  0  0
  1  3  1  0  0  0  0
  1  5  1  0  0  0  0
  2  8  1  0  0  0  0
  4  1  1  0  0  0  0
  6  2  1  0  0  0  0
  6 10  1  0  0  0  0
  7  2  1  0  0  0  0
  9  6  1  0  0  0  0
  9 13  1  0  0  0  0
  9 12  1  0  0  0  0
 11  6  1  0  0  0  0
 14  9  1  0  0  0  0
M  END
$$$$
