butane_opt
 OpenBabel08242015383D

 14 13  0  0  0  0  0  0  0  0999 V2000
   -4.0062    0.2304    0.1331 C   0  0  0  0  0  0  0  0  0  0  0  0
   -2.6951   -0.5819   -0.0478 C   0  0  0  0  0  0  0  0  0  0  0  0
   -4.9256   -0.4182    0.1851 H   0  0  0  0  0  0  0  0  0  0  0  0
   -3.8551    0.7343   -0.7158 H   0  0  0  0  0  0  0  0  0  0  0  0
   -3.9738    0.9643    1.0228 H   0  0  0  0  0  0  0  0  0  0  0  0
   -1.3972    0.2270   -0.1351 C   0  0  0  0  0  0  0  0  0  0  0  0
   -2.9967   -1.2896   -0.9762 H   0  0  0  0  0  0  0  0  0  0  0  0
   -2.5562   -1.0509    0.8167 H   0  0  0  0  0  0  0  0  0  0  0  0
   -0.1155   -0.7162    0.1399 C   0  0  0  0  0  0  0  0  0  0  0  0
   -1.5188    0.7044    0.5250 H   0  0  0  0  0  0  0  0  0  0  0  0
   -1.3022    0.9610   -1.1314 H   0  0  0  0  0  0  0  0  0  0  0  0
   -0.2701   -1.2629    0.9694 H   0  0  0  0  0  0  0  0  0  0  0  0
    0.6832   -0.1617    0.5037 H   0  0  0  0  0  0  0  0  0  0  0  0
    0.2656   -1.5951   -0.8450 H   0  0  0  0  0  0  0  0  0  0  0  0
  1  3  1  0  0  0  0
  1  5  1  0  0  0  0
  2  1  1  0  0  0  0
  2  8  1  0  0  0  0
  4  1  1  0  0  0  0
  6  2  1  0  0  0  0
  6  9  1  0  0  0  0
  6 10  1  0  0  0  0
  7  2  1  0  0  0  0
  9 13  1  0  0  0  0
  9 12  1  0  0  0  0
 11  6  1  0  0  0  0
 14  9  1  0  0  0  0
M  END
$$$$
