14
butane_opt
C  -3.991144   0.242985   0.018892
C  -2.693083  -0.590934   0.071657
H  -4.924802  -0.355917  -0.392537
H  -3.807004   0.518818  -0.695804
H  -4.080654   1.283286   1.157465
C  -1.391014   0.193542  -0.013061
H  -2.816792  -1.296007  -0.875451
H  -2.744995  -1.201356   0.929399
C  -0.129078  -0.701581   0.049810
H  -1.327535   0.725080   0.723975
H  -1.429752   1.021813  -1.003958
H  -0.055394  -1.349236   1.007318
H   0.734504  -0.257997  -0.191011
H  -0.102039  -1.305557  -0.709888
