butane_opt
 OpenBabel08242015383D

 14 13  0  0  0  0  0  0  0  0999 V2000
   -4.0094    0.2945    0.0605 C   0  0  0  0  0  0  0  0  0  0  0  0
   -2.6856   -0.6627   -0.0452 C   0  0  0  0  0  0  0  0  0  0  0  0
   -4.9775   -0.2449    0.3917 H   0  0  0  0  0  0  0  0  0  0  0  0
   -4.1481    1.0867   -0.9284 H   0  0  0  0  0  0  0  0  0  0  0  0
   -3.8476    0.7908    0.8938 H   0  0  0  0  0  0  0  0  0  0  0  0
   -1.3740    0.1597    0.0117 C   0  0  0  0  0  0  0  0  0  0  0  0
   -2.7854   -1.5592   -1.0693 H   0  0  0  0  0  0  0  0  0  0  0  0
   -2.5349   -1.1699    0.7508 H   0  0  0  0  0  0  0  0  0  0  0  0
   -0.1275   -0.6653    0.0596 C   0  0  0  0  0  0  0  0  0  0  0  0
   -1.3232    0.8751    0.8103 H   0  0  0  0  0  0  0  0  0  0  0  0
   -1.4076    0.8827   -0.9586 H   0  0  0  0  0  0  0  0  0  0  0  0
   -0.2303   -1.4201    1.0908 H   0  0  0  0  0  0  0  0  0  0  0  0
    0.6928   -0.1374    0.0482 H   0  0  0  0  0  0  0  0  0  0  0  0
   -0.0976   -1.0902   -0.6184 H   0  0  0  0  0  0  0  0  0  0  0  0
  1  3  1  0  0  0  0
  1  5  1  0  0  0  0
  2  6  1  0  0  0  0
  2  1  1  0  0  0  0
  2  8  1  0  0  0  0
  4  1  1  0  0  0  0
  6  9  1  0  0  0  0
  6 10  1  0  0  0  0
  7  2  1  0  0  0  0
  9 12  1  0  0  0  0
 11  6  1  0  0  0  0
 13  9  1  0  0  0  0
 14  9  1  0  0  0  0
M  END
$$$$
