butane_opt
 OpenBabel08242015383D

 14 13  0  0  0  0  0  0  0  0999 V2000
   -3.9658    0.2230   -0.0878 C   0  0  0  0  0  0  0  0  0  0  0  0
   -2.7155   -0.5537    0.2059 C   0  0  0  0  0  0  0  0  0  0  0  0
   -4.8894   -0.3856   -0.4914 H   0  0  0  0  0  0  0  0  0  0  0  0
   -3.7019    0.5719   -0.9071 H   0  0  0  0  0  0  0  0  0  0  0  0
   -4.2095    1.0889    0.8404 H   0  0  0  0  0  0  0  0  0  0  0  0
   -1.4081    0.2171    0.0940 C   0  0  0  0  0  0  0  0  0  0  0  0
   -2.6503   -1.2331   -0.6308 H   0  0  0  0  0  0  0  0  0  0  0  0
   -3.0512   -1.3182    1.2615 H   0  0  0  0  0  0  0  0  0  0  0  0
   -0.0838   -0.7370   -0.0680 C   0  0  0  0  0  0  0  0  0  0  0  0
   -1.3962    0.9183    0.8919 H   0  0  0  0  0  0  0  0  0  0  0  0
   -1.5912    0.9316   -0.7988 H   0  0  0  0  0  0  0  0  0  0  0  0
    0.1145   -1.1989    0.7463 H   0  0  0  0  0  0  0  0  0  0  0  0
    0.7552   -0.2097   -0.0746 H   0  0  0  0  0  0  0  0  0  0  0  0
   -0.2979   -1.4626   -1.0908 H   0  0  0  0  0  0  0  0  0  0  0  0
  1  2  1  0  0  0  0
  1  5  1  0  0  0  0
  2  8  1  0  0  0  0
  3  1  1  0  0  0  0
  4  1  1  0  0  0  0
  6  2  1  0  0  0  0
  6 10  1  0  0  0  0
  7  2  1  0  0  0  0
  9  6  1  0  0  0  0
  9 12  1  0  0  0  0
 11  6  1  0  0  0  0
 13  9  1  0  0  0  0
 14  9  1  0  0  0  0
M  END
$$$$
