butane_opt
 OpenBabel08242015383D

 14 13  0  0  0  0  0  0  0  0999 V2000
   -3.9476    0.2624   -0.0535 C   0  0  0  0  0  0  0  0  0  0  0  0
   -2.7276   -0.5806    0.1510 C   0  0  0  0  0  0  0  0  0  0  0  0
   -4.9813   -0.4244   -0.4767 H   0  0  0  0  0  0  0  0  0  0  0  0
   -3.6071    0.4684   -0.8241 H   0  0  0  0  0  0  0  0  0  0  0  0
   -4.1456    1.0221    0.8813 H   0  0  0  0  0  0  0  0  0  0  0  0
   -1.4100    0.2257    0.0798 C   0  0  0  0  0  0  0  0  0  0  0  0
   -2.8152   -1.0701   -0.6009 H   0  0  0  0  0  0  0  0  0  0  0  0
   -2.7632   -1.3347    1.1315 H   0  0  0  0  0  0  0  0  0  0  0  0
   -0.1142   -0.7262   -0.0517 C   0  0  0  0  0  0  0  0  0  0  0  0
   -1.3053    0.8978    0.8443 H   0  0  0  0  0  0  0  0  0  0  0  0
   -1.4323    0.7939   -0.7814 H   0  0  0  0  0  0  0  0  0  0  0  0
   -0.1099   -1.3606    0.8773 H   0  0  0  0  0  0  0  0  0  0  0  0
    0.6701   -0.2224   -0.1586 H   0  0  0  0  0  0  0  0  0  0  0  0
   -0.1229   -1.4570   -0.9502 H   0  0  0  0  0  0  0  0  0  0  0  0
  1  2  1  0  0  0  0
  1  5  1  0  0  0  0
  2  8  1  0  0  0  0
  3  1  1  0  0  0  0
  4  1  1  0  0  0  0
  6  2  1  0  0  0  0
  6 10  1  0  0  0  0
  7  2  1  0  0  0  0
  9  6  1  0  0  0  0
  9 12  1  0  0  0  0
 11  6  1  0  0  0  0
 13  9  1  0  0  0  0
 14  9  1  0  0  0  0
M  END
$$$$
