butane_opt
 OpenBabel08242015383D

 14 13  0  0  0  0  0  0  0  0999 V2000
   -3.8975    0.2460   -0.0586 C   0  0  0  0  0  0  0  0  0  0  0  0
   -2.7227   -0.5894    0.1004 C   0  0  0  0  0  0  0  0  0  0  0  0
   -4.8025   -0.3379   -0.1030 H   0  0  0  0  0  0  0  0  0  0  0  0
   -3.7170    0.8795   -0.9546 H   0  0  0  0  0  0  0  0  0  0  0  0
   -4.1182    0.8744    0.7961 H   0  0  0  0  0  0  0  0  0  0  0  0
   -1.4080    0.2159    0.0949 C   0  0  0  0  0  0  0  0  0  0  0  0
   -2.7350   -1.2698   -0.7131 H   0  0  0  0  0  0  0  0  0  0  0  0
   -2.8775   -1.3802    1.0878 H   0  0  0  0  0  0  0  0  0  0  0  0
   -0.1439   -0.7171   -0.0393 C   0  0  0  0  0  0  0  0  0  0  0  0
   -1.4332    1.1625    1.0967 H   0  0  0  0  0  0  0  0  0  0  0  0
   -1.5782    0.6065   -0.6400 H   0  0  0  0  0  0  0  0  0  0  0  0
    0.0443   -1.4783    1.0177 H   0  0  0  0  0  0  0  0  0  0  0  0
    0.6523   -0.2004   -0.4289 H   0  0  0  0  0  0  0  0  0  0  0  0
   -0.3857   -1.1937   -0.8660 H   0  0  0  0  0  0  0  0  0  0  0  0
  1  2  1  0  0  0  0
  1  5  1  0  0  0  0
  2  8  1  0  0  0  0
  3  1  1  0  0  0  0
  4  1  1  0  0  0  0
  6  2  1  0  0  0  0
  6 10  1  0  0  0  0
  7  2  1  0  0  0  0
  9  6  1  0  0  0  0
  9 12  1  0  0  0  0
 11  6  1  0  0  0  0
 13  9  1  0  0  0  0
 14  9  1  0  0  0  0
M  END
$$$$
