14
butane_opt
C  -3.908975   0.236536   0.047013
C  -2.704236  -0.592848  -0.001350
H  -4.895436  -0.428887  -0.058929
H  -3.920753   0.624087  -0.693397
H  -3.933940   0.978579   0.944142
C  -1.453771   0.244866   0.002075
H  -2.690913  -1.493261  -1.051891
H  -2.713248  -1.007328   0.800961
C  -0.157972  -0.729022   0.082675
H  -1.262359   0.934753   0.875892
H  -1.437720   0.998112  -0.981607
H   0.043755  -1.715793   1.160501
H   0.688354  -0.271236  -0.467931
H  -0.175033  -1.033069  -0.591630
