butane_opt
 OpenBabel08242015383D

 14 13  0  0  0  0  0  0  0  0999 V2000
   -3.9896    0.2798   -0.0477 C   0  0  0  0  0  0  0  0  0  0  0  0
   -2.7062   -0.6326    0.1119 C   0  0  0  0  0  0  0  0  0  0  0  0
   -4.8976   -0.2680    0.2442 H   0  0  0  0  0  0  0  0  0  0  0  0
   -4.1207    1.0720   -1.0220 H   0  0  0  0  0  0  0  0  0  0  0  0
   -3.9338    0.9200    0.7164 H   0  0  0  0  0  0  0  0  0  0  0  0
   -1.3551    0.1349    0.0301 C   0  0  0  0  0  0  0  0  0  0  0  0
   -2.4777   -1.2600   -0.6668 H   0  0  0  0  0  0  0  0  0  0  0  0
   -2.7680   -1.3962    1.1601 H   0  0  0  0  0  0  0  0  0  0  0  0
   -0.1595   -0.6704   -0.0116 C   0  0  0  0  0  0  0  0  0  0  0  0
   -1.2850    0.9519    0.9378 H   0  0  0  0  0  0  0  0  0  0  0  0
   -1.3086    0.7865   -0.8132 H   0  0  0  0  0  0  0  0  0  0  0  0
   -0.3619   -0.8564    0.6205 H   0  0  0  0  0  0  0  0  0  0  0  0
    0.7037   -0.1314    0.2949 H   0  0  0  0  0  0  0  0  0  0  0  0
   -0.0253   -1.6577   -1.0758 H   0  0  0  0  0  0  0  0  0  0  0  0
  1  2  1  0  0  0  0
  1  3  1  0  0  0  0
  1  5  1  0  0  0  0
  2  8  1  0  0  0  0
  4  1  1  0  0  0  0
  6  2  1  0  0  0  0
  6 10  1  0  0  0  0
  7  2  1  0  0  0  0
  9  6  1  0  0  0  0
  9 13  1  0  0  0  0
  9 12  1  0  0  0  0
 11  6  1  0  0  0  0
 14  9  1  0  0  0  0
M  END
$$$$
