butane_opt
 OpenBabel08242015383D

 14 13  0  0  0  0  0  0  0  0999 V2000
   -3.9170    0.2356   -0.0966 C   0  0  0  0  0  0  0  0  0  0  0  0
   -2.7303   -0.5869    0.1545 C   0  0  0  0  0  0  0  0  0  0  0  0
   -4.8446   -0.4083   -0.1101 H   0  0  0  0  0  0  0  0  0  0  0  0
   -3.8606    0.9378   -1.0017 H   0  0  0  0  0  0  0  0  0  0  0  0
   -4.1335    0.8105    0.7156 H   0  0  0  0  0  0  0  0  0  0  0  0
   -1.3912    0.2494    0.1327 C   0  0  0  0  0  0  0  0  0  0  0  0
   -2.6577   -1.2868   -0.6947 H   0  0  0  0  0  0  0  0  0  0  0  0
   -2.9750   -1.2814    1.1128 H   0  0  0  0  0  0  0  0  0  0  0  0
   -0.1494   -0.7304   -0.0731 C   0  0  0  0  0  0  0  0  0  0  0  0
   -1.3090    1.1334    1.1429 H   0  0  0  0  0  0  0  0  0  0  0  0
   -1.5812    0.6771   -0.6845 H   0  0  0  0  0  0  0  0  0  0  0  0
    0.0667   -1.5006    0.9323 H   0  0  0  0  0  0  0  0  0  0  0  0
    0.6934   -0.1478   -0.4091 H   0  0  0  0  0  0  0  0  0  0  0  0
   -0.1603   -1.4230   -0.9734 H   0  0  0  0  0  0  0  0  0  0  0  0
  1  2  1  0  0  0  0
  1  5  1  0  0  0  0
  2  8  1  0  0  0  0
  3  1  1  0  0  0  0
  4  1  1  0  0  0  0
  6  2  1  0  0  0  0
  6 10  1  0  0  0  0
  7  2  1  0  0  0  0
  9  6  1  0  0  0  0
  9 12  1  0  0  0  0
 11  6  1  0  0  0  0
 13  9  1  0  0  0  0
 14  9  1  0  0  0  0
M  END
$$$$
