butane_opt
 OpenBabel08242015383D

 14 13  0  0  0  0  0  0  0  0999 V2000
   -3.9260    0.2315   -0.0288 C   0  0  0  0  0  0  0  0  0  0  0  0
   -2.7106   -0.5616    0.1119 C   0  0  0  0  0  0  0  0  0  0  0  0
   -4.9396   -0.3758   -0.2967 H   0  0  0  0  0  0  0  0  0  0  0  0
   -3.6804    0.6521   -0.7926 H   0  0  0  0  0  0  0  0  0  0  0  0
   -4.0690    0.9800    0.8805 H   0  0  0  0  0  0  0  0  0  0  0  0
   -1.4096    0.2284    0.0311 C   0  0  0  0  0  0  0  0  0  0  0  0
   -2.7423   -1.1813   -0.6257 H   0  0  0  0  0  0  0  0  0  0  0  0
   -2.8854   -1.2945    1.1428 H   0  0  0  0  0  0  0  0  0  0  0  0
   -0.1423   -0.7169   -0.0258 C   0  0  0  0  0  0  0  0  0  0  0  0
   -1.2805    0.9114    0.8774 H   0  0  0  0  0  0  0  0  0  0  0  0
   -1.5135    0.7252   -0.7233 H   0  0  0  0  0  0  0  0  0  0  0  0
   -0.1806   -1.3450    0.8529 H   0  0  0  0  0  0  0  0  0  0  0  0
    0.5446   -0.3379   -0.0443 H   0  0  0  0  0  0  0  0  0  0  0  0
    0.0140   -1.4196   -0.8846 H   0  0  0  0  0  0  0  0  0  0  0  0
  1  2  1  0  0  0  0
  1  5  1  0  0  0  0
  2  8  1  0  0  0  0
  3  1  1  0  0  0  0
  4  1  1  0  0  0  0
  6  2  1  0  0  0  0
  6 10  1  0  0  0  0
  7  2  1  0  0  0  0
  9  6  1  0  0  0  0
  9 12  1  0  0  0  0
 11  6  1  0  0  0  0
 13  9  1  0  0  0  0
 14  9  1  0  0  0  0
M  END
$$$$
