14
butane_opt
C  -3.973624   0.273106  -0.018822
C  -2.690652  -0.652319   0.092221
H  -4.771433  -0.197665  -0.184029
H  -4.043535   0.954795  -1.010818
H  -4.216228   0.935615   0.747950
C  -1.382925   0.169657   0.106398
H  -2.746372  -1.325947  -0.777156
H  -2.819418  -1.184817   0.863286
C  -0.129475  -0.673255  -0.034916
H  -1.319775   0.913551   0.948184
H  -1.395617   0.710263  -0.742060
H  -0.008062  -1.404659   0.970996
H   0.768296  -0.220136  -0.364039
H  -0.337673  -1.047636  -0.736228
