14
butane_opt
C  -3.962997   0.236723  -0.091860
C  -2.724478  -0.587492   0.080171
H  -5.046211  -0.522299   0.145924
H  -3.990462   1.069739  -1.104452
H  -3.813051   0.710085   0.708336
C  -1.407409   0.235175   0.173665
H  -2.596230  -1.056691  -0.658361
H  -2.792766  -1.351480   1.057301
C  -0.094801  -0.730230  -0.071400
H  -1.350403   1.017082   1.067130
H  -1.556508   0.716233  -0.536333
H   0.107185  -1.419099   0.883591
H   0.637538  -0.228714  -0.317043
H  -0.301640  -1.293686  -0.906437
