14
butane_opt
C  -3.948641   0.267152  -0.019970
C  -2.700066  -0.628660   0.069898
H  -4.818994  -0.269285   0.051719
H  -3.984118   0.987901  -0.959998
H  -3.975798   0.893738   0.817629
C  -1.400103   0.173155   0.054741
H  -2.711424  -1.306347  -0.764777
H  -2.764827  -1.251045   0.959047
C  -0.159967  -0.683574  -0.006726
H  -1.349353   0.962128   0.971519
H  -1.407906   0.743500  -0.802703
H  -0.116786  -1.344625   0.943347
H   0.764958  -0.090321  -0.097372
H  -0.164945  -1.326732  -0.862161
