butane_opt
 OpenBabel08242015383D

 14 13  0  0  0  0  0  0  0  0999 V2000
   -3.9072    0.2748    0.0592 C   0  0  0  0  0  0  0  0  0  0  0  0
   -2.6857   -0.6420    0.0167 C   0  0  0  0  0  0  0  0  0  0  0  0
   -4.7822   -0.2742    0.1113 H   0  0  0  0  0  0  0  0  0  0  0  0
   -4.1566    0.9585   -0.8797 H   0  0  0  0  0  0  0  0  0  0  0  0
   -4.0564    1.0281    0.9166 H   0  0  0  0  0  0  0  0  0  0  0  0
   -1.3981    0.1725   -0.0505 C   0  0  0  0  0  0  0  0  0  0  0  0
   -2.7608   -1.3074   -0.8460 H   0  0  0  0  0  0  0  0  0  0  0  0
   -2.6177   -1.2616    0.8846 H   0  0  0  0  0  0  0  0  0  0  0  0
   -0.1930   -0.6766    0.0896 C   0  0  0  0  0  0  0  0  0  0  0  0
   -1.3918    0.6478    0.6579 H   0  0  0  0  0  0  0  0  0  0  0  0
   -1.3731    0.7891   -1.0251 H   0  0  0  0  0  0  0  0  0  0  0  0
   -0.2364   -1.0516    0.8030 H   0  0  0  0  0  0  0  0  0  0  0  0
    0.7314    0.0405    0.3279 H   0  0  0  0  0  0  0  0  0  0  0  0
   -0.1627   -1.5750   -0.9036 H   0  0  0  0  0  0  0  0  0  0  0  0
  1  3  1  0  0  0  0
  1  5  1  0  0  0  0
  2  1  1  0  0  0  0
  2  8  1  0  0  0  0
  4  1  1  0  0  0  0
  6  2  1  0  0  0  0
  6  9  1  0  0  0  0
  6 10  1  0  0  0  0
  7  2  1  0  0  0  0
  9 13  1  0  0  0  0
  9 12  1  0  0  0  0
 11  6  1  0  0  0  0
 14  9  1  0  0  0  0
M  END
$$$$
