14
butane_opt
C  -3.907204   0.274827   0.059217
C  -2.685683  -0.642006   0.016734
H  -4.782184  -0.274244   0.111300
H  -4.156563   0.958452  -0.879659
H  -4.056387   1.028052   0.916646
C  -1.398068   0.172477  -0.050544
H  -2.760805  -1.307439  -0.846016
H  -2.617660  -1.261646   0.884567
C  -0.192974  -0.676615   0.089612
H  -1.391766   0.647822   0.657938
H  -1.373071   0.789064  -1.025089
H  -0.236408  -1.051612   0.803012
H   0.731416   0.040496   0.327899
H  -0.162746  -1.574970  -0.903644
