14
butane_opt
C  -3.982065   0.299271   0.109936
C  -2.641367  -0.637006  -0.025267
H  -4.907643  -0.357524  -0.280777
H  -3.833101   0.703265  -0.642436
H  -4.126447   1.197998   1.075403
C  -1.383093   0.141272  -0.068810
H  -2.721938  -1.437598  -0.980452
H  -2.651561  -1.126688   0.778548
C  -0.180452  -0.653871   0.087994
H  -1.386846   0.605373   0.743627
H  -1.319162   0.802589  -0.976099
H  -0.206523  -1.558279   1.235665
H   0.713786  -0.038006  -0.123528
H  -0.339965  -1.053320  -0.579985
