14
butane_opt
C  -4.009361   0.294451   0.060500
C  -2.685642  -0.662674  -0.045180
H  -4.977477  -0.244876   0.391701
H  -4.148139   1.086729  -0.928380
H  -3.847648   0.790817   0.893829
C  -1.374005   0.159694   0.011678
H  -2.785429  -1.559220  -1.069250
H  -2.534894  -1.169924   0.750839
C  -0.127506  -0.665317   0.059556
H  -1.323182   0.875059   0.810303
H  -1.407616   0.882719  -0.958600
H  -0.230308  -1.420146   1.090783
H   0.692834  -0.137431   0.048179
H  -0.097646  -1.090237  -0.618396
