14
butane_opt
C  -3.937381   0.272931   0.108898
C  -2.671585  -0.648397  -0.097221
H  -4.817217  -0.175473   0.433870
H  -4.315450   1.070180  -0.863778
H  -3.639055   0.843387   0.976909
C  -1.404308   0.191583  -0.083859
H  -2.792309  -1.375544  -0.967454
H  -2.653139  -1.236123   0.738184
C  -0.196818  -0.691103   0.130418
H  -1.511956   0.868420   0.698631
H  -1.155800   0.689886  -0.896791
H  -0.290952  -1.297366   1.094189
H   0.794598   0.001124   0.113433
H  -0.127145  -1.331276  -0.623160
