14
butane_opt
C  -3.935350   0.269635  -0.008653
C  -2.692924  -0.626240   0.059290
H  -4.829562  -0.326591   0.196932
H  -4.039205   1.020043  -0.974734
H  -3.953178   0.821362   0.790823
C  -1.398904   0.175735   0.038256
H  -2.683679  -1.305269  -0.815535
H  -2.749356  -1.208351   0.928460
C  -0.173959  -0.688353   0.011608
H  -1.382123   0.899193   0.919845
H  -1.392451   0.809825  -0.854020
H  -0.161143  -1.230130   0.881583
H   0.740425  -0.093840   0.050565
H  -0.156746  -1.430254  -0.906138
