14
butane_opt
C  -3.935930   0.234022   0.069625
C  -2.717723  -0.585472  -0.020371
H  -5.012642  -0.458539   0.105175
H  -4.131019   0.816012  -0.766671
H  -3.834948   1.037619   0.999295
C  -1.431668   0.217663  -0.034502
H  -2.819837  -1.427065  -0.970580
H  -2.827075  -0.979749   0.730119
C  -0.099088  -0.723679   0.094678
H  -1.517422   0.764663   0.709902
H  -1.425682   0.881839  -1.026515
H   0.022067  -1.504313   1.102845
H   0.831581  -0.177327  -0.046674
H  -0.082859  -1.144596  -0.672071
