14
butane_opt
C  -3.889176   0.226051   0.093191
C  -2.665960  -0.556788  -0.066385
H  -4.939809  -0.517939   0.298627
H  -4.078769   0.908656  -0.811105
H  -3.808004   0.802887   0.893563
C  -1.442788   0.213709  -0.072213
H  -2.807318  -1.329306  -1.015162
H  -2.685725  -1.134146   0.785708
C  -0.193360  -0.719695   0.098574
H  -1.436362   1.011415   0.936011
H  -1.401300   0.738965  -0.876041
H  -0.064222  -1.480730   1.148047
H   0.654074  -0.321608   0.003361
H  -0.119978  -1.126600  -0.541856
