14
butane_opt
C  -3.900051   0.228266   0.035705
C  -2.692606  -0.560126   0.042112
H  -4.975703  -0.432772  -0.264368
H  -3.828119   0.483296  -0.588210
H  -4.016267   1.161784   1.121849
C  -1.424913   0.219659  -0.048906
H  -2.747953  -1.178568  -0.724785
H  -2.675869  -1.272945   0.938290
C  -0.162292  -0.727643   0.047227
H  -1.579749   0.891335   0.719544
H  -1.530881   0.868874  -0.981259
H  -0.359879  -1.468802   1.078968
H   0.826539  -0.069371   0.057418
H   0.035911  -1.403335  -0.807729
