butane_opt
 OpenBabel08242015383D

 14 12  0  0  0  0  0  0  0  0999 V2000
   -3.9413    0.2347   -0.0469 C   0  0  0  0  0  0  0  0  0  0  0  0
   -2.6881   -0.6198    0.1035 C   0  0  0  0  0  0  0  0  0  0  0  0
   -4.8085   -0.3922    0.1215 H   0  0  0  0  0  0  0  0  0  0  0  0
   -4.0462    1.1536   -1.1201 H   0  0  0  0  0  0  0  0  0  0  0  0
   -3.8373    0.7448    0.6910 H   0  0  0  0  0  0  0  0  0  0  0  0
   -1.4047    0.2362    0.0697 C   0  0  0  0  0  0  0  0  0  0  0  0
   -2.6663   -1.0851   -0.5551 H   0  0  0  0  0  0  0  0  0  0  0  0
   -2.8457   -1.4082    1.1840 H   0  0  0  0  0  0  0  0  0  0  0  0
   -0.1502   -0.7197   -0.0327 C   0  0  0  0  0  0  0  0  0  0  0  0
   -1.4062    0.9223    0.9590 H   0  0  0  0  0  0  0  0  0  0  0  0
   -1.6401    0.8326   -0.8186 H   0  0  0  0  0  0  0  0  0  0  0  0
   -0.2589   -0.8872    0.5706 H   0  0  0  0  0  0  0  0  0  0  0  0
    0.7278   -0.1715    0.4008 H   0  0  0  0  0  0  0  0  0  0  0  0
   -0.0162   -1.7660   -1.1864 H   0  0  0  0  0  0  0  0  0  0  0  0
  1  2  1  0  0  0  0
  1  3  1  0  0  0  0
  1  5  1  0  0  0  0
  2  8  1  0  0  0  0
  4  1  1  0  0  0  0
  6  2  1  0  0  0  0
  6 10  1  0  0  0  0
  7  2  1  0  0  0  0
  9  6  1  0  0  0  0
  9 13  1  0  0  0  0
  9 12  1  0  0  0  0
 11  6  1  0  0  0  0
M  RAD  2   9   2  14   2
M  END
$$$$
