butane_opt
 OpenBabel08242015383D

 14 13  0  0  0  0  0  0  0  0999 V2000
   -3.9810    0.2733    0.1046 C   0  0  0  0  0  0  0  0  0  0  0  0
   -2.7120   -0.6371   -0.0621 C   0  0  0  0  0  0  0  0  0  0  0  0
   -4.8691   -0.2067    0.3657 H   0  0  0  0  0  0  0  0  0  0  0  0
   -4.1943    1.0877   -0.9937 H   0  0  0  0  0  0  0  0  0  0  0  0
   -3.8139    0.7723    0.8544 H   0  0  0  0  0  0  0  0  0  0  0  0
   -1.3960    0.1452   -0.0560 C   0  0  0  0  0  0  0  0  0  0  0  0
   -2.7271   -1.3551   -0.9994 H   0  0  0  0  0  0  0  0  0  0  0  0
   -2.5610   -1.2317    0.8069 H   0  0  0  0  0  0  0  0  0  0  0  0
   -0.1350   -0.6543    0.0805 C   0  0  0  0  0  0  0  0  0  0  0  0
   -1.4808    0.9530    0.9486 H   0  0  0  0  0  0  0  0  0  0  0  0
   -1.2572    0.7569   -0.9233 H   0  0  0  0  0  0  0  0  0  0  0  0
   -0.2985   -1.3791    1.0682 H   0  0  0  0  0  0  0  0  0  0  0  0
    0.7412   -0.1076    0.1767 H   0  0  0  0  0  0  0  0  0  0  0  0
    0.1089   -1.2773   -0.7019 H   0  0  0  0  0  0  0  0  0  0  0  0
  1  3  1  0  0  0  0
  1  5  1  0  0  0  0
  2  6  1  0  0  0  0
  2  1  1  0  0  0  0
  2  8  1  0  0  0  0
  4  1  1  0  0  0  0
  6  9  1  0  0  0  0
  6 10  1  0  0  0  0
  7  2  1  0  0  0  0
  9 13  1  0  0  0  0
  9 12  1  0  0  0  0
 11  6  1  0  0  0  0
 14  9  1  0  0  0  0
M  END
$$$$
