14
butane_opt
C  -3.963189   0.247299   0.088528
C  -2.748237  -0.567853  -0.012828
H  -4.931985  -0.350944   0.037126
H  -3.996734   0.663232  -0.661882
H  -3.849448   0.990405   1.062441
C  -1.397588   0.179044  -0.106934
H  -2.662010  -1.207841  -0.824390
H  -2.757076  -1.300076   0.884396
C  -0.135733  -0.719445   0.093712
H  -1.432695   0.831082   0.721474
H  -1.277249   1.022586  -1.135009
H  -0.117915  -1.145859   0.932867
H   0.728770  -0.121913   0.481565
H   0.196729  -1.544987  -0.798847
