14
butane_opt
C  -4.001481   0.290950  -0.037370
C  -2.699914  -0.682059   0.103193
H  -4.810291  -0.234867   0.066011
H  -3.938291   1.087460  -1.123094
H  -4.012180   0.925838   0.774074
C  -1.381985   0.176647   0.060360
H  -2.608798  -1.094572  -0.582052
H  -2.597550  -1.577702   1.133111
C  -0.158610  -0.652342  -0.024926
H  -1.306010   0.820749   0.835994
H  -1.347928   0.758002  -0.759786
H  -0.115548  -0.909162   0.550893
H   0.719280  -0.096687   0.397358
H  -0.115570  -1.734347  -1.110570
