14
butane_opt
C  -3.989590   0.279804  -0.047684
C  -2.706194  -0.632565   0.111879
H  -4.897552  -0.267990   0.244176
H  -4.120658   1.071990  -1.021957
H  -3.933844   0.920017   0.716422
C  -1.355119   0.134888   0.030115
H  -2.477739  -1.259970  -0.666774
H  -2.768021  -1.396231   1.160112
C  -0.159513  -0.670359  -0.011606
H  -1.285003   0.951937   0.937778
H  -1.308581   0.786517  -0.813241
H  -0.361915  -0.856380   0.620503
H   0.703651  -0.131444   0.294920
H  -0.025255  -1.657709  -1.075840
