14
butane_opt
C  -3.992798   0.269103  -0.050106
C  -2.709659  -0.627410   0.120786
H  -4.770673  -0.223460  -0.189602
H  -4.002511   0.809655  -0.892033
H  -4.217332   1.110651   0.907825
C  -1.391232   0.152946   0.046729
H  -2.569829  -1.145371  -0.596859
H  -2.796359  -1.459207   1.138433
C  -0.113071  -0.668064  -0.003780
H  -1.366003   0.952079   0.882622
H  -1.322532   0.685770  -0.791812
H  -0.144833  -1.182256   0.824595
H   0.893459  -0.002898  -0.112413
H  -0.246231  -1.530329  -1.102305
