butane_opt
 OpenBabel08242015383D

 14 13  0  0  0  0  0  0  0  0999 V2000
   -3.9799    0.2746   -0.0159 C   0  0  0  0  0  0  0  0  0  0  0  0
   -2.7140   -0.6371    0.0978 C   0  0  0  0  0  0  0  0  0  0  0  0
   -4.8508   -0.3215   -0.1253 H   0  0  0  0  0  0  0  0  0  0  0  0
   -3.8383    1.0731   -1.0281 H   0  0  0  0  0  0  0  0  0  0  0  0
   -4.0668    0.8358    0.7667 H   0  0  0  0  0  0  0  0  0  0  0  0
   -1.3982    0.1788    0.0760 C   0  0  0  0  0  0  0  0  0  0  0  0
   -2.8172   -1.3792   -0.7788 H   0  0  0  0  0  0  0  0  0  0  0  0
   -2.8021   -1.1414    0.9225 H   0  0  0  0  0  0  0  0  0  0  0  0
   -0.1130   -0.7034   -0.0295 C   0  0  0  0  0  0  0  0  0  0  0  0
   -1.4057    0.9569    1.0752 H   0  0  0  0  0  0  0  0  0  0  0  0
   -1.3414    0.8595   -0.8394 H   0  0  0  0  0  0  0  0  0  0  0  0
   -0.0686   -1.3676    0.9756 H   0  0  0  0  0  0  0  0  0  0  0  0
    0.8518   -0.0441   -0.1817 H   0  0  0  0  0  0  0  0  0  0  0  0
   -0.2429   -1.2928   -0.9161 H   0  0  0  0  0  0  0  0  0  0  0  0
  1  2  1  0  0  0  0
  1  5  1  0  0  0  0
  2  8  1  0  0  0  0
  3  1  1  0  0  0  0
  4  1  1  0  0  0  0
  6  2  1  0  0  0  0
  6 10  1  0  0  0  0
  7  2  1  0  0  0  0
  9  6  1  0  0  0  0
  9 12  1  0  0  0  0
 11  6  1  0  0  0  0
 13  9  1  0  0  0  0
 14  9  1  0  0  0  0
M  END
$$$$
