14
butane_opt
C  -3.973921   0.277066   0.125373
C  -2.699507  -0.660569  -0.073085
H  -4.774171  -0.215993   0.316071
H  -4.174079   0.969338  -0.747753
H  -4.026145   1.015983   1.060343
C  -1.389968   0.138531  -0.151973
H  -2.956374  -1.330811  -0.961867
H  -2.452951  -1.201018   0.749468
C  -0.126340  -0.649861   0.149994
H  -1.529080   0.859591   0.805562
H  -1.308794   0.838113  -1.092047
H  -0.406269  -1.209871   1.117369
H   0.777607  -0.055101   0.364913
H   0.088237  -1.407057  -0.802759
