butane_opt
 OpenBabel08242015383D

 14 12  0  0  0  0  0  0  0  0999 V2000
   -3.9403    0.2467    0.0832 C   0  0  0  0  0  0  0  0  0  0  0  0
   -2.7361   -0.6120   -0.0587 C   0  0  0  0  0  0  0  0  0  0  0  0
   -4.8694   -0.4975   -0.0124 H   0  0  0  0  0  0  0  0  0  0  0  0
   -3.9298    0.8423   -0.7607 H   0  0  0  0  0  0  0  0  0  0  0  0
   -3.8623    1.0629    1.0815 H   0  0  0  0  0  0  0  0  0  0  0  0
   -1.4245    0.2492   -0.0156 C   0  0  0  0  0  0  0  0  0  0  0  0
   -2.7484   -1.4873   -1.0551 H   0  0  0  0  0  0  0  0  0  0  0  0
   -2.7546   -1.0857    0.7484 H   0  0  0  0  0  0  0  0  0  0  0  0
   -0.1221   -0.7274    0.1099 C   0  0  0  0  0  0  0  0  0  0  0  0
   -1.4657    0.8594    0.8328 H   0  0  0  0  0  0  0  0  0  0  0  0
   -1.1870    0.9606   -0.9990 H   0  0  0  0  0  0  0  0  0  0  0  0
    0.2181   -1.7209    1.2252 H   0  0  0  0  0  0  0  0  0  0  0  0
    0.6643   -0.2639   -0.4441 H   0  0  0  0  0  0  0  0  0  0  0  0
   -0.3880   -1.0252   -0.5538 H   0  0  0  0  0  0  0  0  0  0  0  0
  1  5  1  0  0  0  0
  2  6  1  0  0  0  0
  2  1  1  0  0  0  0
  2  8  1  0  0  0  0
  3  1  1  0  0  0  0
  4  1  1  0  0  0  0
  6  9  1  0  0  0  0
  6 10  1  0  0  0  0
  7  2  1  0  0  0  0
 11  6  1  0  0  0  0
 13  9  1  0  0  0  0
 14  9  1  0  0  0  0
M  RAD  2   9   2  12   2
M  END
$$$$
