14
butane_opt
C  -3.973005   0.296346  -0.102788
C  -2.670679  -0.653156   0.217365
H  -4.817511  -0.208254  -0.296303
H  -3.800978   0.774496  -0.991339
H  -4.249183   1.034999   0.746105
C  -1.405001   0.139531   0.097686
H  -2.651056  -1.259151  -0.507923
H  -2.705965  -1.284748   1.062261
C  -0.147220  -0.678869  -0.082450
H  -1.137761   0.883680   0.991241
H  -1.554293   0.767643  -0.816511
H  -0.254797  -1.040734   0.693588
H   0.820009   0.084603   0.043748
H  -0.330338  -1.470961  -1.038257
