14
butane_opt
C  -3.951085   0.250732   0.020672
C  -2.705243  -0.616365   0.041449
H  -4.831260  -0.270184  -0.087478
H  -3.914565   0.728821  -0.785051
H  -4.036209   1.061324   0.987925
C  -1.401855   0.196825  -0.012093
H  -2.733816  -1.259754  -0.772221
H  -2.699910  -1.238937   0.944646
C  -0.152330  -0.700609   0.041918
H  -1.441955   0.877903   0.830104
H  -1.360427   0.860860  -0.912766
H  -0.091340  -1.346807   0.952929
H   0.744841  -0.124839  -0.011815
H  -0.131658  -1.334104  -0.796035
