butane_opt
 OpenBabel08242015383D

 14 13  0  0  0  0  0  0  0  0999 V2000
   -3.9442    0.3164    0.0961 C   0  0  0  0  0  0  0  0  0  0  0  0
   -2.6784   -0.6578   -0.0425 C   0  0  0  0  0  0  0  0  0  0  0  0
   -4.8707   -0.3020    0.0448 H   0  0  0  0  0  0  0  0  0  0  0  0
   -3.9820    0.9080   -0.8121 H   0  0  0  0  0  0  0  0  0  0  0  0
   -4.0976    0.9563    0.8495 H   0  0  0  0  0  0  0  0  0  0  0  0
   -1.3937    0.1236   -0.0211 C   0  0  0  0  0  0  0  0  0  0  0  0
   -2.8111   -1.4911   -0.9945 H   0  0  0  0  0  0  0  0  0  0  0  0
   -2.5453   -1.2004    0.6785 H   0  0  0  0  0  0  0  0  0  0  0  0
   -0.1718   -0.6486    0.0857 C   0  0  0  0  0  0  0  0  0  0  0  0
   -1.4161    0.7931    0.8429 H   0  0  0  0  0  0  0  0  0  0  0  0
   -1.4525    0.8389   -0.9302 H   0  0  0  0  0  0  0  0  0  0  0  0
   -0.0879   -1.5822    1.1798 H   0  0  0  0  0  0  0  0  0  0  0  0
    0.8126    0.0887   -0.1292 H   0  0  0  0  0  0  0  0  0  0  0  0
   -0.3473   -1.0629   -0.6665 H   0  0  0  0  0  0  0  0  0  0  0  0
  1  5  1  0  0  0  0
  2  6  1  0  0  0  0
  2  1  1  0  0  0  0
  2  8  1  0  0  0  0
  3  1  1  0  0  0  0
  4  1  1  0  0  0  0
  6  9  1  0  0  0  0
  6 10  1  0  0  0  0
  7  2  1  0  0  0  0
  9 12  1  0  0  0  0
 11  6  1  0  0  0  0
 13  9  1  0  0  0  0
 14  9  1  0  0  0  0
M  END
$$$$
