14
butane_opt
C  -3.904659   0.242539   0.135306
C  -2.710219  -0.554241  -0.059240
H  -4.895729  -0.526246  -0.198655
H  -3.784586   0.668971  -0.620429
H  -3.917935   0.964729   1.033107
C  -1.422542   0.187791  -0.088151
H  -2.795785  -1.437018  -0.937714
H  -2.626332  -1.004298   0.702639
C  -0.182848  -0.718035   0.124655
H  -1.587800   0.911971   0.763453
H  -1.350728   0.950235  -1.075194
H  -0.043421  -1.616692   1.189934
H   0.658029  -0.214923  -0.192280
H  -0.038334  -1.083155  -0.553210
