14
butane_opt
C  -3.941333   0.234664  -0.046868
C  -2.688142  -0.619805   0.103522
H  -4.808477  -0.392201   0.121533
H  -4.046217   1.153575  -1.120067
H  -3.837316   0.744792   0.690992
C  -1.404727   0.236214   0.069733
H  -2.666252  -1.085117  -0.555052
H  -2.845720  -1.408235   1.184000
C  -0.150188  -0.719674  -0.032666
H  -1.406198   0.922281   0.959049
H  -1.640115   0.832635  -0.818564
H  -0.258934  -0.887215   0.570612
H   0.727838  -0.171452   0.400772
H  -0.016238  -1.765976  -1.186376
