butane_opt
 OpenBabel08242015383D

 14 11  0  0  0  0  0  0  0  0999 V2000
   -3.9182    0.2975   -0.0631 C   0  0  0  0  0  0  0  0  0  0  0  0
   -2.6659   -0.6301    0.1022 C   0  0  0  0  0  0  0  0  0  0  0  0
   -4.8573   -0.3305    0.3180 H   0  0  0  0  0  0  0  0  0  0  0  0
   -4.1908    1.3723   -1.2527 H   0  0  0  0  0  0  0  0  0  0  0  0
   -3.8961    0.5508    0.4639 H   0  0  0  0  0  0  0  0  0  0  0  0
   -1.4026    0.1133    0.1611 C   0  0  0  0  0  0  0  0  0  0  0  0
   -2.6360   -1.2973   -0.6622 H   0  0  0  0  0  0  0  0  0  0  0  0
   -2.8306   -1.1431    0.9206 H   0  0  0  0  0  0  0  0  0  0  0  0
   -0.1910   -0.6681   -0.0759 C   0  0  0  0  0  0  0  0  0  0  0  0
   -1.3356    0.8952    1.0546 H   0  0  0  0  0  0  0  0  0  0  0  0
   -1.3725    0.6442   -0.6799 H   0  0  0  0  0  0  0  0  0  0  0  0
   -0.2502   -1.2169    0.7427 H   0  0  0  0  0  0  0  0  0  0  0  0
    0.7963    0.1100    0.0032 H   0  0  0  0  0  0  0  0  0  0  0  0
   -0.3228   -1.3965   -1.0189 H   0  0  0  0  0  0  0  0  0  0  0  0
  1  2  1  0  0  0  0
  1  3  1  0  0  0  0
  2  6  1  0  0  0  0
  2  8  1  0  0  0  0
  6 10  1  0  0  0  0
  7  2  1  0  0  0  0
  9 13  1  0  0  0  0
  9  6  1  0  0  0  0
  9 12  1  0  0  0  0
 11  6  1  0  0  0  0
 14  9  1  0  0  0  0
M  RAD  3   1   3   4   2   5   2
M  END
$$$$
