butane_opt
 OpenBabel08242015383D

 14 13  0  0  0  0  0  0  0  0999 V2000
   -3.9215    0.2661    0.1295 C   0  0  0  0  0  0  0  0  0  0  0  0
   -2.7227   -0.6302   -0.0148 C   0  0  0  0  0  0  0  0  0  0  0  0
   -4.8061   -0.1827    0.0248 H   0  0  0  0  0  0  0  0  0  0  0  0
   -4.0948    0.7924   -0.7001 H   0  0  0  0  0  0  0  0  0  0  0  0
   -4.0063    1.0824    1.0831 H   0  0  0  0  0  0  0  0  0  0  0  0
   -1.4097    0.1891   -0.1337 C   0  0  0  0  0  0  0  0  0  0  0  0
   -2.8656   -1.5288   -1.0254 H   0  0  0  0  0  0  0  0  0  0  0  0
   -2.6794   -1.1543    0.7276 H   0  0  0  0  0  0  0  0  0  0  0  0
   -0.1479   -0.6803    0.1216 C   0  0  0  0  0  0  0  0  0  0  0  0
   -1.3961    0.7096    0.5547 H   0  0  0  0  0  0  0  0  0  0  0  0
   -1.2459    0.9571   -1.2051 H   0  0  0  0  0  0  0  0  0  0  0  0
   -0.3860   -1.3331    1.0788 H   0  0  0  0  0  0  0  0  0  0  0  0
    0.7723   -0.0824    0.5056 H   0  0  0  0  0  0  0  0  0  0  0  0
    0.0979   -1.4669   -0.8164 H   0  0  0  0  0  0  0  0  0  0  0  0
  1  5  1  0  0  0  0
  2  1  1  0  0  0  0
  2  8  1  0  0  0  0
  3  1  1  0  0  0  0
  4  1  1  0  0  0  0
  6  2  1  0  0  0  0
  6  9  1  0  0  0  0
  6 10  1  0  0  0  0
  7  2  1  0  0  0  0
  9 13  1  0  0  0  0
  9 12  1  0  0  0  0
 11  6  1  0  0  0  0
 14  9  1  0  0  0  0
M  END
$$$$
