14
butane_opt
C  -3.959042   0.220769  -0.049192
C  -2.732857  -0.568498   0.105655
H  -4.846351  -0.340943  -0.138303
H  -3.817320   0.776935  -0.905672
H  -3.989490   0.930304   0.801889
C  -1.415237   0.205620   0.079827
H  -2.720353  -1.196533  -0.711108
H  -2.820362  -1.189129   0.988083
C  -0.102861  -0.703209   0.004215
H  -1.429736   0.857613   0.916684
H  -1.621608   0.878084  -0.726428
H   0.145772  -1.416554   0.842578
H   0.756006  -0.149272  -0.342780
H  -0.176340  -1.483933  -0.970734
