14
butane_opt
C  -3.980981   0.273323   0.104610
C  -2.712027  -0.637099  -0.062105
H  -4.869130  -0.206680   0.365725
H  -4.194325   1.087695  -0.993748
H  -3.813876   0.772300   0.854437
C  -1.396037   0.145191  -0.055964
H  -2.727137  -1.355068  -0.999437
H  -2.560962  -1.231730   0.806884
C  -0.134987  -0.654269   0.080494
H  -1.480831   0.952973   0.948574
H  -1.257193   0.756882  -0.923257
H  -0.298548  -1.379113   1.068156
H   0.741215  -0.107599   0.176737
H   0.108945  -1.277308  -0.701942
