14
butane_opt
C  -3.940516   0.296544  -0.097888
C  -2.653121  -0.658784   0.131054
H  -4.898399  -0.291362   0.144965
H  -3.997830   1.199436  -1.184822
H  -3.940770   0.710323   0.691632
C  -1.382457   0.162347   0.133105
H  -2.677042  -1.284754  -0.716527
H  -2.814601  -1.329617   1.014006
C  -0.230259  -0.680463  -0.081725
H  -1.116604   1.172340   1.226279
H  -1.525892   0.631790  -0.577905
H  -0.012921  -1.386392   0.838671
H   0.795724  -0.036881  -0.169921
H  -0.367627  -1.272224  -0.843976
