14
butane_opt
C  -3.944149   0.269545   0.032664
C  -2.703131  -0.609137   0.026892
H  -4.849697  -0.325616  -0.091246
H  -3.959362   0.709843  -0.762801
H  -3.916294   1.072860   0.987977
C  -1.401508   0.173539  -0.013952
H  -2.705032  -1.287045  -0.834693
H  -2.652011  -1.244369   0.909628
C  -0.170014  -0.689597   0.053528
H  -1.392260   0.798141   0.795612
H  -1.373128   0.819345  -0.950354
H  -0.137806  -1.376628   1.003481
H   0.739016  -0.071789  -0.033518
H  -0.157878  -1.295951  -0.755529
