14
butane_opt
C  -3.952892   0.257863  -0.006967
C  -2.705056  -0.606342   0.063784
H  -4.879291  -0.344271   0.059880
H  -3.955910   0.916408  -0.941186
H  -3.974659   0.925464   0.846795
C  -1.396719   0.189943   0.023760
H  -2.740344  -1.224520  -0.715447
H  -2.721380  -1.312505   1.017243
C  -0.151785  -0.699230   0.009184
H  -1.365380   0.880743   0.892485
H  -1.367337   0.809179  -0.856792
H  -0.167764  -1.192930   0.819512
H   0.745744  -0.131169   0.134205
H  -0.110811  -1.509525  -0.913547
