14
butane_opt
C  -3.905818   0.218528   0.067856
C  -2.701232  -0.594549  -0.033449
H  -4.746246  -0.255584  -0.109961
H  -3.918932   0.768716  -0.760795
H  -3.875959   1.011070   0.967579
C  -1.472299   0.209000  -0.024015
H  -2.889143  -1.354517  -0.903886
H  -2.544796  -1.062535   0.744601
C  -0.145060  -0.702212   0.080671
H  -1.406306   0.990095   0.983342
H  -1.388433   0.741260  -0.874708
H   0.062082  -1.728456   1.235010
H   0.656205  -0.171800  -0.459914
H  -0.283721  -0.972623  -0.450948
