butane_opt
 OpenBabel08242015383D

 14 13  0  0  0  0  0  0  0  0999 V2000
   -3.9348    0.2629    0.0380 C   0  0  0  0  0  0  0  0  0  0  0  0
   -2.7060   -0.6038    0.0044 C   0  0  0  0  0  0  0  0  0  0  0  0
   -4.8712   -0.3613    0.1579 H   0  0  0  0  0  0  0  0  0  0  0  0
   -4.0366    0.9375   -0.8795 H   0  0  0  0  0  0  0  0  0  0  0  0
   -3.8091    0.8608    0.8657 H   0  0  0  0  0  0  0  0  0  0  0  0
   -1.4060    0.1906    0.0076 C   0  0  0  0  0  0  0  0  0  0  0  0
   -2.6890   -1.3368   -0.8970 H   0  0  0  0  0  0  0  0  0  0  0  0
   -2.6865   -1.2083    0.8677 H   0  0  0  0  0  0  0  0  0  0  0  0
   -0.1679   -0.7000    0.0468 C   0  0  0  0  0  0  0  0  0  0  0  0
   -1.4242    0.8095    0.8239 H   0  0  0  0  0  0  0  0  0  0  0  0
   -1.3437    0.8346   -0.9081 H   0  0  0  0  0  0  0  0  0  0  0  0
   -0.1809   -1.3304    0.9843 H   0  0  0  0  0  0  0  0  0  0  0  0
    0.7506   -0.1313    0.0315 H   0  0  0  0  0  0  0  0  0  0  0  0
   -0.1515   -1.3385   -0.7763 H   0  0  0  0  0  0  0  0  0  0  0  0
  1  3  1  0  0  0  0
  1  5  1  0  0  0  0
  2  6  1  0  0  0  0
  2  1  1  0  0  0  0
  2  8  1  0  0  0  0
  4  1  1  0  0  0  0
  6  9  1  0  0  0  0
  6 10  1  0  0  0  0
  7  2  1  0  0  0  0
  9 12  1  0  0  0  0
 11  6  1  0  0  0  0
 13  9  1  0  0  0  0
 14  9  1  0  0  0  0
M  END
$$$$
