butane_opt
 OpenBabel08242015383D

 14 13  0  0  0  0  0  0  0  0999 V2000
   -3.9374    0.2729    0.1089 C   0  0  0  0  0  0  0  0  0  0  0  0
   -2.6716   -0.6484   -0.0972 C   0  0  0  0  0  0  0  0  0  0  0  0
   -4.8172   -0.1755    0.4339 H   0  0  0  0  0  0  0  0  0  0  0  0
   -4.3155    1.0702   -0.8638 H   0  0  0  0  0  0  0  0  0  0  0  0
   -3.6391    0.8434    0.9769 H   0  0  0  0  0  0  0  0  0  0  0  0
   -1.4043    0.1916   -0.0839 C   0  0  0  0  0  0  0  0  0  0  0  0
   -2.7923   -1.3755   -0.9675 H   0  0  0  0  0  0  0  0  0  0  0  0
   -2.6531   -1.2361    0.7382 H   0  0  0  0  0  0  0  0  0  0  0  0
   -0.1968   -0.6911    0.1304 C   0  0  0  0  0  0  0  0  0  0  0  0
   -1.5120    0.8684    0.6986 H   0  0  0  0  0  0  0  0  0  0  0  0
   -1.1558    0.6899   -0.8968 H   0  0  0  0  0  0  0  0  0  0  0  0
   -0.2910   -1.2974    1.0942 H   0  0  0  0  0  0  0  0  0  0  0  0
    0.7946    0.0011    0.1134 H   0  0  0  0  0  0  0  0  0  0  0  0
   -0.1271   -1.3313   -0.6232 H   0  0  0  0  0  0  0  0  0  0  0  0
  1  3  1  0  0  0  0
  1  5  1  0  0  0  0
  2  6  1  0  0  0  0
  2  1  1  0  0  0  0
  2  8  1  0  0  0  0
  4  1  1  0  0  0  0
  6  9  1  0  0  0  0
  6 10  1  0  0  0  0
  7  2  1  0  0  0  0
  9 12  1  0  0  0  0
 11  6  1  0  0  0  0
 13  9  1  0  0  0  0
 14  9  1  0  0  0  0
M  END
$$$$
