14
butane_opt
C  -3.934707   0.221220   0.102815
C  -2.725389  -0.578595  -0.091860
H  -4.840009  -0.418485   0.408986
H  -4.235146   1.051582  -0.806114
H  -3.635974   0.719327   0.882784
C  -1.382823   0.231750  -0.035308
H  -2.766076  -1.353763  -0.956516
H  -2.727731  -1.092549   0.700109
C  -0.155031  -0.732560   0.113421
H  -1.421088   0.871553   0.700046
H  -1.358803   1.099147  -1.110243
H  -0.172018  -1.347235   1.081746
H   0.548351  -0.283230   0.225596
H  -0.007070  -1.463005  -0.773016
