14
butane_opt
C  -3.997066   0.285853   0.064423
C  -2.685573  -0.648345  -0.029928
H  -4.826519  -0.195404   0.026241
H  -4.056421   0.699124  -0.653208
H  -4.065764   1.070345   1.101255
C  -1.370570   0.157357  -0.048955
H  -2.656740  -1.476069  -1.025197
H  -2.760258  -1.161034   0.740111
C  -0.146976  -0.681686   0.084920
H  -1.407378   1.025781   0.879398
H  -1.492807   0.797196  -0.872446
H  -0.076413  -1.731127   1.300573
H   0.891422   0.063456  -0.344852
H  -0.196205  -0.898601  -0.476517
