butane_opt
 OpenBabel08242015383D

 14 13  0  0  0  0  0  0  0  0999 V2000
   -3.9619    0.2793    0.0504 C   0  0  0  0  0  0  0  0  0  0  0  0
   -2.6985   -0.6308    0.0011 C   0  0  0  0  0  0  0  0  0  0  0  0
   -4.8956   -0.3484    0.1324 H   0  0  0  0  0  0  0  0  0  0  0  0
   -4.0438    0.9395   -0.8591 H   0  0  0  0  0  0  0  0  0  0  0  0
   -3.9684    0.9156    0.8729 H   0  0  0  0  0  0  0  0  0  0  0  0
   -1.3926    0.1712   -0.0266 C   0  0  0  0  0  0  0  0  0  0  0  0
   -2.7391   -1.3330   -0.8585 H   0  0  0  0  0  0  0  0  0  0  0  0
   -2.6483   -1.2451    0.8638 H   0  0  0  0  0  0  0  0  0  0  0  0
   -0.1529   -0.6830    0.0625 C   0  0  0  0  0  0  0  0  0  0  0  0
   -1.3762    0.8786    0.8617 H   0  0  0  0  0  0  0  0  0  0  0  0
   -1.3755    0.8161   -0.8981 H   0  0  0  0  0  0  0  0  0  0  0  0
   -0.1605   -1.3172    0.9890 H   0  0  0  0  0  0  0  0  0  0  0  0
    0.7630   -0.0610    0.0781 H   0  0  0  0  0  0  0  0  0  0  0  0
   -0.1114   -1.3596   -0.7956 H   0  0  0  0  0  0  0  0  0  0  0  0
  1  3  1  0  0  0  0
  1  5  1  0  0  0  0
  2  1  1  0  0  0  0
  2  8  1  0  0  0  0
  4  1  1  0  0  0  0
  6  2  1  0  0  0  0
  6  9  1  0  0  0  0
  6 10  1  0  0  0  0
  7  2  1  0  0  0  0
  9 13  1  0  0  0  0
  9 12  1  0  0  0  0
 11  6  1  0  0  0  0
 14  9  1  0  0  0  0
M  END
$$$$
