14
butane_opt
C  -3.958175   0.261086   0.023512
C  -2.691356  -0.621607   0.036036
H  -4.860068  -0.328791  -0.031668
H  -3.942839   0.787540  -0.792772
H  -3.966919   0.995381   0.937784
C  -1.403846   0.205380  -0.005162
H  -2.766025  -1.295541  -0.815865
H  -2.682189  -1.243556   0.894492
C  -0.157832  -0.699006   0.052934
H  -1.416551   0.821353   0.795063
H  -1.363464   0.865934  -0.914799
H  -0.101970  -1.328016   0.946471
H   0.725991  -0.110107  -0.032206
H  -0.118446  -1.389488  -0.834394
