14
butane_opt
C  -4.009844   0.272663  -0.061292
C  -2.685191  -0.648376   0.153612
H  -4.801146  -0.239734   0.134748
H  -4.083109   1.278576  -1.259854
H  -4.033520   0.744807   0.682856
C  -1.358300   0.141233   0.078660
H  -2.717994  -1.279128  -0.681189
H  -2.746091  -1.170793   1.036763
C  -0.133790  -0.665521  -0.043436
H  -1.293453   0.836768   0.969720
H  -1.624138   0.740356  -0.765803
H  -0.262116  -0.945759   0.568389
H   0.815182   0.036655   0.290134
H  -0.044355  -1.654905  -1.129772
