butane_opt
 OpenBabel08242015383D

 14 12  0  0  0  0  0  0  0  0999 V2000
   -3.9487    0.2830   -0.0424 C   0  0  0  0  0  0  0  0  0  0  0  0
   -2.7160   -0.6765    0.0572 C   0  0  0  0  0  0  0  0  0  0  0  0
   -4.8141   -0.2254    0.5134 H   0  0  0  0  0  0  0  0  0  0  0  0
   -4.2683    1.4435   -1.2456 H   0  0  0  0  0  0  0  0  0  0  0  0
   -3.8375    0.6413    0.6137 H   0  0  0  0  0  0  0  0  0  0  0  0
   -1.3963    0.1816    0.0777 C   0  0  0  0  0  0  0  0  0  0  0  0
   -2.7347   -1.3518   -0.7574 H   0  0  0  0  0  0  0  0  0  0  0  0
   -2.6000   -1.3896    0.9302 H   0  0  0  0  0  0  0  0  0  0  0  0
   -0.1585   -0.6770   -0.0243 C   0  0  0  0  0  0  0  0  0  0  0  0
   -1.3300    1.0275    1.1378 H   0  0  0  0  0  0  0  0  0  0  0  0
   -1.4556    0.6700   -0.6721 H   0  0  0  0  0  0  0  0  0  0  0  0
   -0.0819   -1.1216    0.7411 H   0  0  0  0  0  0  0  0  0  0  0  0
    0.8651    0.0095    0.1762 H   0  0  0  0  0  0  0  0  0  0  0  0
   -0.1548   -1.4633   -0.8811 H   0  0  0  0  0  0  0  0  0  0  0  0
  1  2  1  0  0  0  0
  1  3  1  0  0  0  0
  1  5  1  0  0  0  0
  2  6  1  0  0  0  0
  2  8  1  0  0  0  0
  6 10  1  0  0  0  0
  7  2  1  0  0  0  0
  9  6  1  0  0  0  0
  9 13  1  0  0  0  0
  9 12  1  0  0  0  0
 11  6  1  0  0  0  0
 14  9  1  0  0  0  0
M  RAD  2   1   2   4   2
M  END
$$$$
