14
butane_opt
C  -3.939105   0.223847  -0.030020
C  -2.744319  -0.587677   0.096677
H  -4.744496  -0.271852   0.155908
H  -3.835100   0.914574  -1.022906
H  -4.024107   0.705683   0.688510
C  -1.432901   0.241386   0.042251
H  -2.644518  -1.097172  -0.553829
H  -2.854518  -1.438267   1.158667
C  -0.109498  -0.722990  -0.017265
H  -1.524243   1.003105   0.904204
H  -1.456962   0.805019  -0.813537
H  -0.089473  -0.985263   0.658208
H   0.751605  -0.190547   0.349587
H   0.089539  -1.776012  -1.226706
