butane_opt
 OpenBabel08242015383D

 14 12  0  0  0  0  0  0  0  0999 V2000
   -4.0098    0.2727   -0.0613 C   0  0  0  0  0  0  0  0  0  0  0  0
   -2.6852   -0.6484    0.1536 C   0  0  0  0  0  0  0  0  0  0  0  0
   -4.8011   -0.2397    0.1347 H   0  0  0  0  0  0  0  0  0  0  0  0
   -4.0831    1.2786   -1.2599 H   0  0  0  0  0  0  0  0  0  0  0  0
   -4.0335    0.7448    0.6829 H   0  0  0  0  0  0  0  0  0  0  0  0
   -1.3583    0.1412    0.0787 C   0  0  0  0  0  0  0  0  0  0  0  0
   -2.7180   -1.2791   -0.6812 H   0  0  0  0  0  0  0  0  0  0  0  0
   -2.7461   -1.1708    1.0368 H   0  0  0  0  0  0  0  0  0  0  0  0
   -0.1338   -0.6655   -0.0434 C   0  0  0  0  0  0  0  0  0  0  0  0
   -1.2935    0.8368    0.9697 H   0  0  0  0  0  0  0  0  0  0  0  0
   -1.6241    0.7404   -0.7658 H   0  0  0  0  0  0  0  0  0  0  0  0
   -0.2621   -0.9458    0.5684 H   0  0  0  0  0  0  0  0  0  0  0  0
    0.8152    0.0367    0.2901 H   0  0  0  0  0  0  0  0  0  0  0  0
   -0.0444   -1.6549   -1.1298 H   0  0  0  0  0  0  0  0  0  0  0  0
  1  3  1  0  0  0  0
  1  2  1  0  0  0  0
  1  5  1  0  0  0  0
  2  8  1  0  0  0  0
  6  2  1  0  0  0  0
  6 10  1  0  0  0  0
  7  2  1  0  0  0  0
  9  6  1  0  0  0  0
  9 13  1  0  0  0  0
  9 12  1  0  0  0  0
 11  6  1  0  0  0  0
 14  9  1  0  0  0  0
M  RAD  2   1   2   4   2
M  END
$$$$
