14
butane_opt
C  -3.960704   0.255669  -0.031008
C  -2.750116  -0.576848   0.103290
H  -4.980323  -0.462750  -0.073694
H  -3.889935   0.848068  -0.904745
H  -4.046487   0.926832   0.749389
C  -1.381584   0.186419   0.066401
H  -2.768599  -1.445568  -0.802828
H  -2.795714  -1.083205   0.922615
C  -0.112360  -0.721037  -0.024514
H  -1.340008   0.999572   1.005153
H  -1.419656   0.863536  -0.823229
H   0.145446  -1.492419   1.002093
H   0.706978  -0.162291  -0.212430
H  -0.170896  -1.219428  -0.771936
