butane_opt
 OpenBabel08242015383D

 14 13  0  0  0  0  0  0  0  0999 V2000
   -3.9749    0.2769   -0.0391 C   0  0  0  0  0  0  0  0  0  0  0  0
   -2.6603   -0.6241    0.1058 C   0  0  0  0  0  0  0  0  0  0  0  0
   -4.8768   -0.2376    0.1567 H   0  0  0  0  0  0  0  0  0  0  0  0
   -4.0093    1.1776   -1.1072 H   0  0  0  0  0  0  0  0  0  0  0  0
   -3.8962    0.8380    0.7072 H   0  0  0  0  0  0  0  0  0  0  0  0
   -1.3865    0.1332    0.0577 C   0  0  0  0  0  0  0  0  0  0  0  0
   -2.5588   -1.2308   -0.6236 H   0  0  0  0  0  0  0  0  0  0  0  0
   -2.5612   -1.5126    1.1367 H   0  0  0  0  0  0  0  0  0  0  0  0
   -0.2027   -0.6575   -0.0466 C   0  0  0  0  0  0  0  0  0  0  0  0
   -1.3082    0.8769    0.9341 H   0  0  0  0  0  0  0  0  0  0  0  0
   -1.4627    0.6367   -0.7929 H   0  0  0  0  0  0  0  0  0  0  0  0
   -0.4850   -0.9181    0.6827 H   0  0  0  0  0  0  0  0  0  0  0  0
    0.8302    0.0570    0.4090 H   0  0  0  0  0  0  0  0  0  0  0  0
   -0.0169   -1.6758   -1.0618 H   0  0  0  0  0  0  0  0  0  0  0  0
  1  2  1  0  0  0  0
  1  3  1  0  0  0  0
  1  5  1  0  0  0  0
  2  8  1  0  0  0  0
  4  1  1  0  0  0  0
  6  2  1  0  0  0  0
  6 10  1  0  0  0  0
  7  2  1  0  0  0  0
  9  6  1  0  0  0  0
  9 13  1  0  0  0  0
  9 12  1  0  0  0  0
 11  6  1  0  0  0  0
 14  9  1  0  0  0  0
M  END
$$$$
