14
butane_opt
C  -3.979833   0.236380  -0.038590
C  -2.723208  -0.571463   0.112962
H  -4.970570  -0.359189  -0.173193
H  -3.804395   0.538422  -0.788063
H  -4.098947   1.002284   0.862546
C  -1.373188   0.227433   0.029460
H  -2.787743  -1.136935  -0.670898
H  -2.728022  -1.312000   1.103339
C  -0.136575  -0.729738  -0.038036
H  -1.331227   0.942196   0.918715
H  -1.578967   0.876112  -0.740587
H  -0.052227  -1.379024   0.899754
H   0.744980  -0.189989   0.113098
H   0.138786  -1.433019  -0.852710
