14
butane_opt
C  -3.957197   0.291347   0.079671
C  -2.689456  -0.629387  -0.093667
H  -4.882656  -0.250697   0.122366
H  -3.992061   0.911532  -0.795954
H  -3.787392   1.066477   1.019961
C  -1.368020   0.107902  -0.004652
H  -2.712702  -1.283459  -0.903499
H  -2.593775  -1.245088   0.788725
C  -0.200443  -0.653864   0.098480
H  -1.392979   0.763701   0.846767
H  -1.357433   0.741745  -0.862369
H   0.002441  -1.584996   1.099673
H   0.655408  -0.047499  -0.267900
H  -0.399125  -0.916275  -0.520333
