butane_opt
 OpenBabel08242015383D

 14 13  0  0  0  0  0  0  0  0999 V2000
   -3.9456    0.2428    0.0675 C   0  0  0  0  0  0  0  0  0  0  0  0
   -2.7319   -0.6138   -0.0682 C   0  0  0  0  0  0  0  0  0  0  0  0
   -4.7736   -0.3894    0.4864 H   0  0  0  0  0  0  0  0  0  0  0  0
   -4.3400    1.0032   -0.8482 H   0  0  0  0  0  0  0  0  0  0  0  0
   -3.5524    0.6659    0.8362 H   0  0  0  0  0  0  0  0  0  0  0  0
   -1.4247    0.2665   -0.0153 C   0  0  0  0  0  0  0  0  0  0  0  0
   -2.9096   -1.4653   -1.0549 H   0  0  0  0  0  0  0  0  0  0  0  0
   -2.7886   -0.9866    0.7497 H   0  0  0  0  0  0  0  0  0  0  0  0
   -0.0866   -0.7223    0.1122 C   0  0  0  0  0  0  0  0  0  0  0  0
   -1.5095    0.7429    0.6961 H   0  0  0  0  0  0  0  0  0  0  0  0
   -1.4001    0.9419   -0.9422 H   0  0  0  0  0  0  0  0  0  0  0  0
   -0.0643   -1.4199    1.0382 H   0  0  0  0  0  0  0  0  0  0  0  0
    0.6616   -0.2935    0.0398 H   0  0  0  0  0  0  0  0  0  0  0  0
   -0.0702   -1.3473   -0.7393 H   0  0  0  0  0  0  0  0  0  0  0  0
  1  3  1  0  0  0  0
  1  5  1  0  0  0  0
  2  6  1  0  0  0  0
  2  1  1  0  0  0  0
  2  8  1  0  0  0  0
  4  1  1  0  0  0  0
  6  9  1  0  0  0  0
  6 10  1  0  0  0  0
  7  2  1  0  0  0  0
  9 12  1  0  0  0  0
 11  6  1  0  0  0  0
 13  9  1  0  0  0  0
 14  9  1  0  0  0  0
M  END
$$$$
