butane_opt
 OpenBabel08242015383D

 14 13  0  0  0  0  0  0  0  0999 V2000
   -3.8676    0.2485   -0.0691 C   0  0  0  0  0  0  0  0  0  0  0  0
   -2.7233   -0.5804    0.2164 C   0  0  0  0  0  0  0  0  0  0  0  0
   -4.8384   -0.4375   -0.4266 H   0  0  0  0  0  0  0  0  0  0  0  0
   -3.5531    0.6688   -0.9897 H   0  0  0  0  0  0  0  0  0  0  0  0
   -4.2051    0.8506    0.7442 H   0  0  0  0  0  0  0  0  0  0  0  0
   -1.4514    0.2332    0.0705 C   0  0  0  0  0  0  0  0  0  0  0  0
   -2.7191   -1.1555   -0.5623 H   0  0  0  0  0  0  0  0  0  0  0  0
   -2.8666   -1.1733    1.0846 H   0  0  0  0  0  0  0  0  0  0  0  0
   -0.1543   -0.7503   -0.0581 C   0  0  0  0  0  0  0  0  0  0  0  0
   -1.3503    0.9994    0.9259 H   0  0  0  0  0  0  0  0  0  0  0  0
   -1.4969    0.8121   -0.8075 H   0  0  0  0  0  0  0  0  0  0  0  0
   -0.1477   -1.0771    0.6559 H   0  0  0  0  0  0  0  0  0  0  0  0
    0.7500   -0.1764   -0.0674 H   0  0  0  0  0  0  0  0  0  0  0  0
   -0.2141   -1.6260   -1.0526 H   0  0  0  0  0  0  0  0  0  0  0  0
  1  2  1  0  0  0  0
  1  5  1  0  0  0  0
  2  8  1  0  0  0  0
  3  1  1  0  0  0  0
  4  1  1  0  0  0  0
  6  2  1  0  0  0  0
  6 10  1  0  0  0  0
  7  2  1  0  0  0  0
  9  6  1  0  0  0  0
  9 12  1  0  0  0  0
 11  6  1  0  0  0  0
 13  9  1  0  0  0  0
 14  9  1  0  0  0  0
M  END
$$$$
