butane_opt
 OpenBabel08242015383D

 14 13  0  0  0  0  0  0  0  0999 V2000
   -3.9267    0.2789    0.0086 C   0  0  0  0  0  0  0  0  0  0  0  0
   -2.6559   -0.6401    0.0560 C   0  0  0  0  0  0  0  0  0  0  0  0
   -4.7716   -0.1644    0.1541 H   0  0  0  0  0  0  0  0  0  0  0  0
   -4.0584    1.0688   -1.0202 H   0  0  0  0  0  0  0  0  0  0  0  0
   -3.8378    0.8090    0.7185 H   0  0  0  0  0  0  0  0  0  0  0  0
   -1.3963    0.1565    0.0159 C   0  0  0  0  0  0  0  0  0  0  0  0
   -2.6452   -1.1620   -0.5967 H   0  0  0  0  0  0  0  0  0  0  0  0
   -2.8675   -1.4055    1.0479 H   0  0  0  0  0  0  0  0  0  0  0  0
   -0.2103   -0.6778    0.0000 C   0  0  0  0  0  0  0  0  0  0  0  0
   -1.4070    0.8566    0.8575 H   0  0  0  0  0  0  0  0  0  0  0  0
   -1.3815    0.6777   -0.8220 H   0  0  0  0  0  0  0  0  0  0  0  0
   -0.4263   -0.9087    0.7037 H   0  0  0  0  0  0  0  0  0  0  0  0
    0.7464   -0.0759    0.4021 H   0  0  0  0  0  0  0  0  0  0  0  0
   -0.1164   -1.5625   -1.0209 H   0  0  0  0  0  0  0  0  0  0  0  0
  1  2  1  0  0  0  0
  1  3  1  0  0  0  0
  1  5  1  0  0  0  0
  2  8  1  0  0  0  0
  4  1  1  0  0  0  0
  6  2  1  0  0  0  0
  6 10  1  0  0  0  0
  7  2  1  0  0  0  0
  9  6  1  0  0  0  0
  9 13  1  0  0  0  0
  9 12  1  0  0  0  0
 11  6  1  0  0  0  0
 14  9  1  0  0  0  0
M  END
$$$$
