butane_opt
 OpenBabel08242015383D

 14 13  0  0  0  0  0  0  0  0999 V2000
   -3.9562    0.2698   -0.0432 C   0  0  0  0  0  0  0  0  0  0  0  0
   -2.6539   -0.6150    0.1222 C   0  0  0  0  0  0  0  0  0  0  0  0
   -4.7527   -0.1576    0.1289 H   0  0  0  0  0  0  0  0  0  0  0  0
   -3.9672    1.1105   -1.1569 H   0  0  0  0  0  0  0  0  0  0  0  0
   -3.9681    0.7020    0.5953 H   0  0  0  0  0  0  0  0  0  0  0  0
   -1.3975    0.1140    0.0592 C   0  0  0  0  0  0  0  0  0  0  0  0
   -2.7264   -1.1059   -0.6178 H   0  0  0  0  0  0  0  0  0  0  0  0
   -2.6114   -1.4248    1.1367 H   0  0  0  0  0  0  0  0  0  0  0  0
   -0.1961   -0.6554   -0.0496 C   0  0  0  0  0  0  0  0  0  0  0  0
   -1.3649    0.9451    1.0205 H   0  0  0  0  0  0  0  0  0  0  0  0
   -1.5775    0.6708   -0.6618 H   0  0  0  0  0  0  0  0  0  0  0  0
   -0.4783   -0.9247    0.6520 H   0  0  0  0  0  0  0  0  0  0  0  0
    0.8556    0.0213    0.3496 H   0  0  0  0  0  0  0  0  0  0  0  0
   -0.0146   -1.6533   -1.1488 H   0  0  0  0  0  0  0  0  0  0  0  0
  1  2  1  0  0  0  0
  1  3  1  0  0  0  0
  1  5  1  0  0  0  0
  2  8  1  0  0  0  0
  4  1  1  0  0  0  0
  6  2  1  0  0  0  0
  6 10  1  0  0  0  0
  7  2  1  0  0  0  0
  9  6  1  0  0  0  0
  9 13  1  0  0  0  0
  9 12  1  0  0  0  0
 11  6  1  0  0  0  0
 14  9  1  0  0  0  0
M  END
$$$$
