14
butane_opt
C  -3.924634   0.288778   0.097199
C  -2.694887  -0.639968  -0.065607
H  -4.820681  -0.338979   0.438127
H  -4.111735   1.201969  -1.003039
H  -3.907949   0.833260   0.892291
C  -1.392407   0.150516  -0.026961
H  -2.728051  -1.572137  -0.990328
H  -2.576027  -1.144177   0.688572
C  -0.209881  -0.661034   0.094125
H  -1.276762   0.790364   0.791581
H  -1.274399   0.851804  -0.996201
H  -0.277741  -1.393915   1.012123
H   0.640148  -0.071947   0.132855
H  -0.029285  -1.266252  -0.713063
