butane_opt
 OpenBabel08242015383D

 14 13  0  0  0  0  0  0  0  0999 V2000
   -3.9672    0.2720    0.1092 C   0  0  0  0  0  0  0  0  0  0  0  0
   -2.6770   -0.6114   -0.0640 C   0  0  0  0  0  0  0  0  0  0  0  0
   -4.7391   -0.2481    0.4823 H   0  0  0  0  0  0  0  0  0  0  0  0
   -4.1637    1.0777   -0.8936 H   0  0  0  0  0  0  0  0  0  0  0  0
   -3.7872    0.6965    0.8682 H   0  0  0  0  0  0  0  0  0  0  0  0
   -1.3775    0.1553   -0.0785 C   0  0  0  0  0  0  0  0  0  0  0  0
   -2.8339   -1.5414   -1.0774 H   0  0  0  0  0  0  0  0  0  0  0  0
   -2.5544   -1.0400    0.5822 H   0  0  0  0  0  0  0  0  0  0  0  0
   -0.1753   -0.6816    0.1282 C   0  0  0  0  0  0  0  0  0  0  0  0
   -1.6288    0.7893    0.7349 H   0  0  0  0  0  0  0  0  0  0  0  0
   -1.3784    0.7698   -0.9263 H   0  0  0  0  0  0  0  0  0  0  0  0
   -0.3532   -1.2383    1.0996 H   0  0  0  0  0  0  0  0  0  0  0  0
    0.8069   -0.0411    0.0442 H   0  0  0  0  0  0  0  0  0  0  0  0
   -0.0493   -1.2647   -0.6526 H   0  0  0  0  0  0  0  0  0  0  0  0
  1  3  1  0  0  0  0
  1  5  1  0  0  0  0
  2  1  1  0  0  0  0
  2  8  1  0  0  0  0
  4  1  1  0  0  0  0
  6  2  1  0  0  0  0
  6  9  1  0  0  0  0
  6 10  1  0  0  0  0
  7  2  1  0  0  0  0
  9 12  1  0  0  0  0
 11  6  1  0  0  0  0
 13  9  1  0  0  0  0
 14  9  1  0  0  0  0
M  END
$$$$
