14
butane_opt
C  -3.931865   0.280086   0.089637
C  -2.709025  -0.608768   0.000658
H  -4.930494  -0.387579  -0.368728
H  -3.756882   0.520137  -0.599647
H  -4.034769   1.316893   1.150521
C  -1.377094   0.150154  -0.091221
H  -2.750188  -1.225909  -0.719930
H  -2.679351  -1.231810   0.910727
C  -0.194393  -0.696396   0.081797
H  -1.547884   0.797283   0.711756
H  -1.324496   0.819489  -0.997137
H  -0.231375  -1.325585   1.075203
H   0.706658  -0.091412  -0.020705
H   0.058772  -1.179900  -0.651140
