butane_opt
 OpenBabel08242015383D

 14 13  0  0  0  0  0  0  0  0999 V2000
   -3.9345    0.3093    0.0872 C   0  0  0  0  0  0  0  0  0  0  0  0
   -2.6911   -0.6557   -0.0267 C   0  0  0  0  0  0  0  0  0  0  0  0
   -4.8176   -0.3191    0.0578 H   0  0  0  0  0  0  0  0  0  0  0  0
   -4.1099    0.8448   -0.6771 H   0  0  0  0  0  0  0  0  0  0  0  0
   -3.7411    1.1032    1.1590 H   0  0  0  0  0  0  0  0  0  0  0  0
   -1.3915    0.1602   -0.1230 C   0  0  0  0  0  0  0  0  0  0  0  0
   -2.7150   -1.3442   -0.9649 H   0  0  0  0  0  0  0  0  0  0  0  0
   -2.5120   -1.4119    0.9474 H   0  0  0  0  0  0  0  0  0  0  0  0
   -0.2187   -0.6612    0.1207 C   0  0  0  0  0  0  0  0  0  0  0  0
   -1.3938    0.7596    0.6836 H   0  0  0  0  0  0  0  0  0  0  0  0
   -1.2058    0.8052   -1.0470 H   0  0  0  0  0  0  0  0  0  0  0  0
   -0.4317   -1.2365    0.9498 H   0  0  0  0  0  0  0  0  0  0  0  0
    0.7587    0.0205    0.3826 H   0  0  0  0  0  0  0  0  0  0  0  0
   -0.0372   -1.5044   -0.7678 H   0  0  0  0  0  0  0  0  0  0  0  0
  1  5  1  0  0  0  0
  2  1  1  0  0  0  0
  2  8  1  0  0  0  0
  3  1  1  0  0  0  0
  4  1  1  0  0  0  0
  6  2  1  0  0  0  0
  6  9  1  0  0  0  0
  6 10  1  0  0  0  0
  7  2  1  0  0  0  0
  9 13  1  0  0  0  0
  9 12  1  0  0  0  0
 11  6  1  0  0  0  0
 14  9  1  0  0  0  0
M  END
$$$$
