14
butane_opt
C  -3.934538   0.309281   0.087217
C  -2.691103  -0.655728  -0.026677
H  -4.817554  -0.319062   0.057805
H  -4.109930   0.844833  -0.677058
H  -3.741074   1.103218   1.158973
C  -1.391507   0.160182  -0.123032
H  -2.715034  -1.344234  -0.964899
H  -2.511974  -1.411933   0.947377
C  -0.218661  -0.661182   0.120670
H  -1.393802   0.759641   0.683639
H  -1.205806   0.805246  -1.047025
H  -0.431688  -1.236478   0.949813
H   0.758749   0.020461   0.382621
H  -0.037152  -1.504350  -0.767792
