14
butane_opt
C  -4.023078   0.325289  -0.005427
C  -2.693732  -0.667364   0.106126
H  -4.850494  -0.324927   0.069005
H  -3.972395   0.975351  -0.902696
H  -4.086770   0.796802   0.699605
C  -1.391174   0.143733   0.026285
H  -2.680087  -1.388311  -0.777402
H  -2.572241  -1.325330   1.013884
C  -0.121866  -0.652239  -0.013061
H  -1.226676   0.747997   0.812565
H  -1.312172   0.884658  -1.029438
H  -0.351189  -0.987129   0.696336
H   0.793905  -0.047291   0.554671
H  -0.024677  -1.595821  -1.089025
