butane_opt
 OpenBabel08242015383D

 14 13  0  0  0  0  0  0  0  0999 V2000
   -3.9199    0.2612    0.1552 C   0  0  0  0  0  0  0  0  0  0  0  0
   -2.6623   -0.5973   -0.0693 C   0  0  0  0  0  0  0  0  0  0  0  0
   -4.7857   -0.3716    0.1681 H   0  0  0  0  0  0  0  0  0  0  0  0
   -3.9690    0.8946   -0.7515 H   0  0  0  0  0  0  0  0  0  0  0  0
   -3.9357    0.8683    0.9521 H   0  0  0  0  0  0  0  0  0  0  0  0
   -1.4243    0.1696   -0.1493 C   0  0  0  0  0  0  0  0  0  0  0  0
   -2.9448   -1.3449   -0.9895 H   0  0  0  0  0  0  0  0  0  0  0  0
   -2.5680   -1.0760    0.7314 H   0  0  0  0  0  0  0  0  0  0  0  0
   -0.2000   -0.6959    0.1468 C   0  0  0  0  0  0  0  0  0  0  0  0
   -1.4852    0.6850    0.5692 H   0  0  0  0  0  0  0  0  0  0  0  0
   -1.4224    0.9383   -1.0279 H   0  0  0  0  0  0  0  0  0  0  0  0
   -0.3040   -1.2045    1.0285 H   0  0  0  0  0  0  0  0  0  0  0  0
    0.8791    0.0392    0.5150 H   0  0  0  0  0  0  0  0  0  0  0  0
   -0.0253   -1.5426   -0.7668 H   0  0  0  0  0  0  0  0  0  0  0  0
  1  3  1  0  0  0  0
  1  5  1  0  0  0  0
  2  1  1  0  0  0  0
  2  8  1  0  0  0  0
  4  1  1  0  0  0  0
  6  2  1  0  0  0  0
  6  9  1  0  0  0  0
  6 10  1  0  0  0  0
  7  2  1  0  0  0  0
  9 13  1  0  0  0  0
  9 12  1  0  0  0  0
 11  6  1  0  0  0  0
 14  9  1  0  0  0  0
M  END
$$$$
