14
butane_opt
C  -3.906160   0.259941  -0.074742
C  -2.713803  -0.614419   0.106824
H  -4.892837  -0.363416   0.372649
H  -3.965808   1.073496  -1.090845
H  -3.898907   0.585576   0.671680
C  -1.443102   0.207162   0.111454
H  -2.575776  -1.331184  -0.787527
H  -2.774775  -1.162743   0.997963
C  -0.160824  -0.712497  -0.035163
H  -1.328477   1.008163   1.041963
H  -1.360945   0.874696  -0.844268
H  -0.038406  -1.159091   0.730611
H   0.722590  -0.187669  -0.008631
H  -0.207218  -1.509018  -0.970937
