14
butane_opt
C  -4.000312   0.285013   0.073503
C  -2.720669  -0.644761  -0.051485
H  -4.759577  -0.182645   0.056806
H  -4.018927   0.734694  -0.760781
H  -4.053977   1.172928   1.038660
C  -1.388305   0.150397  -0.011530
H  -2.671948  -1.590982  -1.048888
H  -2.627766  -1.069229   0.728589
C  -0.118569  -0.664699   0.100140
H  -1.257394   0.709544   0.702680
H  -1.505969   0.793301  -0.854889
H   0.035183  -1.668437   1.300237
H   0.839425  -0.011781  -0.442928
H  -0.291060  -0.832427  -0.515369
