butane_opt
 OpenBabel08242015383D

 14 13  0  0  0  0  0  0  0  0999 V2000
   -3.9605    0.2360   -0.0071 C   0  0  0  0  0  0  0  0  0  0  0  0
   -2.7221   -0.5763    0.0976 C   0  0  0  0  0  0  0  0  0  0  0  0
   -4.8760   -0.3541    0.1076 H   0  0  0  0  0  0  0  0  0  0  0  0
   -3.9555    1.0679   -1.0503 H   0  0  0  0  0  0  0  0  0  0  0  0
   -3.9427    0.8318    0.8596 H   0  0  0  0  0  0  0  0  0  0  0  0
   -1.3847    0.1824    0.0339 C   0  0  0  0  0  0  0  0  0  0  0  0
   -2.6813   -1.2393   -0.7320 H   0  0  0  0  0  0  0  0  0  0  0  0
   -2.8369   -1.1780    0.9862 H   0  0  0  0  0  0  0  0  0  0  0  0
   -0.1379   -0.7258   -0.0142 C   0  0  0  0  0  0  0  0  0  0  0  0
   -1.3869    0.7635    0.7147 H   0  0  0  0  0  0  0  0  0  0  0  0
   -1.3888    0.9219   -0.9325 H   0  0  0  0  0  0  0  0  0  0  0  0
   -0.2469   -0.9912    0.6408 H   0  0  0  0  0  0  0  0  0  0  0  0
    0.7518   -0.0540    0.4975 H   0  0  0  0  0  0  0  0  0  0  0  0
    0.0218   -1.6511   -1.0019 H   0  0  0  0  0  0  0  0  0  0  0  0
  1  2  1  0  0  0  0
  1  3  1  0  0  0  0
  1  5  1  0  0  0  0
  2  8  1  0  0  0  0
  4  1  1  0  0  0  0
  6  2  1  0  0  0  0
  6 10  1  0  0  0  0
  7  2  1  0  0  0  0
  9  6  1  0  0  0  0
  9 13  1  0  0  0  0
  9 12  1  0  0  0  0
 11  6  1  0  0  0  0
 14  9  1  0  0  0  0
M  END
$$$$
