14
butane_opt
C  -3.960583   0.311877  -0.087556
C  -2.689163  -0.647809   0.089802
H  -4.805677  -0.225912   0.056138
H  -3.885844   1.031399  -1.037095
H  -4.124564   0.879735   0.663563
C  -1.351186   0.135308   0.154142
H  -2.657084  -1.211951  -0.628098
H  -2.797632  -1.556477   1.167304
C  -0.194565  -0.680616  -0.060874
H  -1.337638   0.933946   1.103465
H  -1.543079   0.630417  -0.560209
H   0.035986  -1.228090   0.805282
H   0.863950   0.093107  -0.333026
H  -0.458548  -1.200302  -0.942986
