butane_opt
 OpenBabel08242015383D

 14 13  0  0  0  0  0  0  0  0999 V2000
   -3.9792    0.3075   -0.0817 C   0  0  0  0  0  0  0  0  0  0  0  0
   -2.7084   -0.6783    0.1673 C   0  0  0  0  0  0  0  0  0  0  0  0
   -4.8124   -0.2029   -0.3328 H   0  0  0  0  0  0  0  0  0  0  0  0
   -3.6900    0.8736   -0.9735 H   0  0  0  0  0  0  0  0  0  0  0  0
   -4.1511    1.0282    0.8421 H   0  0  0  0  0  0  0  0  0  0  0  0
   -1.3815    0.1615    0.1201 C   0  0  0  0  0  0  0  0  0  0  0  0
   -2.5322   -1.2928   -0.5980 H   0  0  0  0  0  0  0  0  0  0  0  0
   -2.7803   -1.3441    1.1042 H   0  0  0  0  0  0  0  0  0  0  0  0
   -0.1766   -0.6772   -0.0681 C   0  0  0  0  0  0  0  0  0  0  0  0
   -1.0498    0.7859    1.0533 H   0  0  0  0  0  0  0  0  0  0  0  0
   -1.4704    0.8846   -0.8499 H   0  0  0  0  0  0  0  0  0  0  0  0
   -0.1647   -1.1486    0.7412 H   0  0  0  0  0  0  0  0  0  0  0  0
    0.7159   -0.0409   -0.1639 H   0  0  0  0  0  0  0  0  0  0  0  0
   -0.1693   -1.3704   -1.0327 H   0  0  0  0  0  0  0  0  0  0  0  0
  1  2  1  0  0  0  0
  1  5  1  0  0  0  0
  2  8  1  0  0  0  0
  3  1  1  0  0  0  0
  4  1  1  0  0  0  0
  6  2  1  0  0  0  0
  6 10  1  0  0  0  0
  7  2  1  0  0  0  0
  9  6  1  0  0  0  0
  9 12  1  0  0  0  0
 11  6  1  0  0  0  0
 13  9  1  0  0  0  0
 14  9  1  0  0  0  0
M  END
$$$$
