14
butane_opt
C  -3.899715   0.215550  -0.053869
C  -2.703280  -0.560796   0.162268
H  -4.875712  -0.398133   0.057754
H  -3.839858   1.055746  -1.052226
H  -3.884024   0.783355   0.721575
C  -1.414538   0.225986   0.039418
H  -2.647460  -1.175341  -0.702046
H  -2.699247  -1.283830   1.095350
C  -0.212090  -0.718844  -0.030509
H  -1.461316   0.783606   0.765519
H  -1.379328   0.798048  -0.772244
H  -0.088791  -0.927719   0.570786
H   0.671175  -0.159370   0.470465
H  -0.045942  -1.909939  -1.183360
