14
butane_opt
C  -3.909371   0.255741  -0.081566
C  -2.713062  -0.587553   0.080849
H  -4.925046  -0.376935   0.474307
H  -3.996632   1.082756  -1.151386
H  -3.733692   0.689961   0.561316
C  -1.406414   0.173496   0.130164
H  -2.620868  -1.050862  -0.582878
H  -2.716752  -1.364020   1.124749
C  -0.170116  -0.690362  -0.061548
H  -1.356766   0.888076   1.039381
H  -1.522542   0.678354  -0.714413
H  -0.220793  -1.084397   0.649366
H   0.607083  -0.175236   0.229191
H  -0.139058  -1.591203  -1.041597
