14
butane_opt
C  -3.998379   0.282260   0.086665
C  -2.678478  -0.675765  -0.030911
H  -4.740133  -0.200481   0.011110
H  -4.256164   0.787273  -0.688458
H  -3.923973   1.082103   1.006937
C  -1.379870   0.167650  -0.075271
H  -2.622999  -1.255861  -0.845753
H  -2.560732  -1.291576   0.897057
C  -0.186773  -0.666302   0.100269
H  -1.257455   0.779030   0.687316
H  -1.331526   0.951786  -1.118799
H  -0.241452  -1.121786   0.931784
H   0.766360  -0.084481   0.308416
H   0.059046  -1.412199  -0.717447
