butane_opt
 OpenBabel08242015383D

 14 13  0  0  0  0  0  0  0  0999 V2000
   -3.9534    0.2715    0.0371 C   0  0  0  0  0  0  0  0  0  0  0  0
   -2.7000   -0.6201    0.0287 C   0  0  0  0  0  0  0  0  0  0  0  0
   -4.8335   -0.3130   -0.0791 H   0  0  0  0  0  0  0  0  0  0  0  0
   -3.9374    0.8366   -0.8371 H   0  0  0  0  0  0  0  0  0  0  0  0
   -4.0695    1.0164    0.9536 H   0  0  0  0  0  0  0  0  0  0  0  0
   -1.3959    0.1726   -0.0030 C   0  0  0  0  0  0  0  0  0  0  0  0
   -2.6892   -1.3493   -0.8275 H   0  0  0  0  0  0  0  0  0  0  0  0
   -2.6935   -1.2116    0.8957 H   0  0  0  0  0  0  0  0  0  0  0  0
   -0.1620   -0.6870    0.0470 C   0  0  0  0  0  0  0  0  0  0  0  0
   -1.4008    0.7957    0.8116 H   0  0  0  0  0  0  0  0  0  0  0  0
   -1.3679    0.8125   -0.9032 H   0  0  0  0  0  0  0  0  0  0  0  0
   -0.1328   -1.3573    0.9686 H   0  0  0  0  0  0  0  0  0  0  0  0
    0.7935   -0.0371   -0.0866 H   0  0  0  0  0  0  0  0  0  0  0  0
   -0.1608   -1.2950   -0.7637 H   0  0  0  0  0  0  0  0  0  0  0  0
  1  5  1  0  0  0  0
  2  1  1  0  0  0  0
  2  8  1  0  0  0  0
  3  1  1  0  0  0  0
  4  1  1  0  0  0  0
  6  2  1  0  0  0  0
  6  9  1  0  0  0  0
  6 10  1  0  0  0  0
  7  2  1  0  0  0  0
  9 12  1  0  0  0  0
 11  6  1  0  0  0  0
 13  9  1  0  0  0  0
 14  9  1  0  0  0  0
M  END
$$$$
