14
butane_opt
C  -3.933898   0.285395  -0.035074
C  -2.670808  -0.659629   0.113671
H  -4.786409  -0.134911   0.095888
H  -4.091665   1.011969  -0.980494
H  -3.975621   0.840925   0.773704
C  -1.400054   0.144744   0.005207
H  -2.498683  -1.230455  -0.656668
H  -2.718059  -1.399425   1.097367
C  -0.215651  -0.681140  -0.008123
H  -1.325643   0.967406   1.064772
H  -1.457355   0.792671  -0.859874
H  -0.365499  -0.871882   0.659239
H   0.883063   0.109037   0.296377
H  -0.064641  -1.615802  -1.010844
