butane_opt
 OpenBabel08242015383D

 14 12  0  0  0  0  0  0  0  0999 V2000
   -3.9391    0.2238   -0.0300 C   0  0  0  0  0  0  0  0  0  0  0  0
   -2.7443   -0.5877    0.0967 C   0  0  0  0  0  0  0  0  0  0  0  0
   -4.7445   -0.2719    0.1559 H   0  0  0  0  0  0  0  0  0  0  0  0
   -3.8351    0.9146   -1.0229 H   0  0  0  0  0  0  0  0  0  0  0  0
   -4.0241    0.7057    0.6885 H   0  0  0  0  0  0  0  0  0  0  0  0
   -1.4329    0.2414    0.0423 C   0  0  0  0  0  0  0  0  0  0  0  0
   -2.6445   -1.0972   -0.5538 H   0  0  0  0  0  0  0  0  0  0  0  0
   -2.8545   -1.4383    1.1587 H   0  0  0  0  0  0  0  0  0  0  0  0
   -0.1095   -0.7230   -0.0173 C   0  0  0  0  0  0  0  0  0  0  0  0
   -1.5242    1.0031    0.9042 H   0  0  0  0  0  0  0  0  0  0  0  0
   -1.4570    0.8050   -0.8135 H   0  0  0  0  0  0  0  0  0  0  0  0
   -0.0895   -0.9853    0.6582 H   0  0  0  0  0  0  0  0  0  0  0  0
    0.7516   -0.1905    0.3496 H   0  0  0  0  0  0  0  0  0  0  0  0
    0.0895   -1.7760   -1.2267 H   0  0  0  0  0  0  0  0  0  0  0  0
  1  2  1  0  0  0  0
  1  3  1  0  0  0  0
  1  5  1  0  0  0  0
  2  8  1  0  0  0  0
  4  1  1  0  0  0  0
  6  2  1  0  0  0  0
  6 10  1  0  0  0  0
  7  2  1  0  0  0  0
  9  6  1  0  0  0  0
  9 13  1  0  0  0  0
  9 12  1  0  0  0  0
 11  6  1  0  0  0  0
M  RAD  2   9   2  14   2
M  END
$$$$
