14
butane_opt
C  -3.994685   0.251814  -0.052349
C  -2.725329  -0.606844   0.116970
H  -4.924733  -0.447767   0.256215
H  -4.014523   1.190703  -1.131874
H  -3.878785   0.661350   0.613496
C  -1.388228   0.220726   0.087172
H  -2.665240  -1.232580  -0.703865
H  -2.771880  -1.121155   0.902713
C  -0.108725  -0.725425  -0.017818
H  -1.098383   0.925324   0.973044
H  -1.469733   0.811449  -0.838488
H  -0.244657  -1.102853   0.723449
H   0.792475  -0.157481   0.089232
H  -0.117798  -1.703334  -1.097619
