14
butane_opt
C  -3.952492   0.318186  -0.019322
C  -2.675397  -0.639789   0.076086
H  -4.823437  -0.235884  -0.115015
H  -3.942563   0.741046  -0.801813
H  -3.960836   1.037856   0.846697
C  -1.366588   0.122704   0.029234
H  -2.594232  -1.220729  -0.705842
H  -2.811961  -1.483975   1.123552
C  -0.212965  -0.661775  -0.004107
H  -1.307186   0.806716   0.984500
H  -1.518935   0.789783  -0.894072
H  -0.225151  -1.237448   0.785551
H   0.879648   0.107241   0.123268
H  -0.274650  -1.409659  -0.867199
