butane_opt
 OpenBabel08242015383D

 14 11  0  0  0  0  0  0  0  0999 V2000
   -3.9971    0.2859    0.0644 C   0  0  0  0  0  0  0  0  0  0  0  0
   -2.6856   -0.6483   -0.0299 C   0  0  0  0  0  0  0  0  0  0  0  0
   -4.8265   -0.1954    0.0262 H   0  0  0  0  0  0  0  0  0  0  0  0
   -4.0564    0.6991   -0.6532 H   0  0  0  0  0  0  0  0  0  0  0  0
   -4.0658    1.0703    1.1013 H   0  0  0  0  0  0  0  0  0  0  0  0
   -1.3706    0.1574   -0.0490 C   0  0  0  0  0  0  0  0  0  0  0  0
   -2.6567   -1.4761   -1.0252 H   0  0  0  0  0  0  0  0  0  0  0  0
   -2.7603   -1.1610    0.7401 H   0  0  0  0  0  0  0  0  0  0  0  0
   -0.1470   -0.6817    0.0849 C   0  0  0  0  0  0  0  0  0  0  0  0
   -1.4074    1.0258    0.8794 H   0  0  0  0  0  0  0  0  0  0  0  0
   -1.4928    0.7972   -0.8724 H   0  0  0  0  0  0  0  0  0  0  0  0
   -0.0764   -1.7311    1.3006 H   0  0  0  0  0  0  0  0  0  0  0  0
    0.8914    0.0635   -0.3449 H   0  0  0  0  0  0  0  0  0  0  0  0
   -0.1962   -0.8986   -0.4765 H   0  0  0  0  0  0  0  0  0  0  0  0
  1  5  1  0  0  0  0
  2  1  1  0  0  0  0
  2  8  1  0  0  0  0
  3  1  1  0  0  0  0
  4  1  1  0  0  0  0
  6  2  1  0  0  0  0
  6  9  1  0  0  0  0
  6 10  1  0  0  0  0
  7  2  1  0  0  0  0
 11  6  1  0  0  0  0
 13  9  1  0  0  0  0
M  RAD  3   9   3  12   2  14   2
M  END
$$$$
