butane_opt
 OpenBabel08242015383D

 14 13  0  0  0  0  0  0  0  0999 V2000
   -3.9655    0.2800   -0.0710 C   0  0  0  0  0  0  0  0  0  0  0  0
   -2.6853   -0.6615    0.0827 C   0  0  0  0  0  0  0  0  0  0  0  0
   -4.8327   -0.3353    0.1196 H   0  0  0  0  0  0  0  0  0  0  0  0
   -3.9590    1.0975   -1.1700 H   0  0  0  0  0  0  0  0  0  0  0  0
   -4.1208    0.8042    0.6382 H   0  0  0  0  0  0  0  0  0  0  0  0
   -1.3835    0.2009    0.1639 C   0  0  0  0  0  0  0  0  0  0  0  0
   -2.7273   -1.1154   -0.7099 H   0  0  0  0  0  0  0  0  0  0  0  0
   -2.8482   -1.4397    1.0479 H   0  0  0  0  0  0  0  0  0  0  0  0
   -0.1692   -0.7044   -0.0540 C   0  0  0  0  0  0  0  0  0  0  0  0
   -1.2278    1.1065    1.1780 H   0  0  0  0  0  0  0  0  0  0  0  0
   -1.4533    0.7708   -0.6663 H   0  0  0  0  0  0  0  0  0  0  0  0
    0.1559   -1.3481    0.8737 H   0  0  0  0  0  0  0  0  0  0  0  0
    0.8059   -0.0703   -0.3867 H   0  0  0  0  0  0  0  0  0  0  0  0
   -0.3770   -1.3158   -0.9433 H   0  0  0  0  0  0  0  0  0  0  0  0
  1  2  1  0  0  0  0
  1  3  1  0  0  0  0
  1  5  1  0  0  0  0
  2  6  1  0  0  0  0
  2  8  1  0  0  0  0
  4  1  1  0  0  0  0
  6 10  1  0  0  0  0
  7  2  1  0  0  0  0
  9  6  1  0  0  0  0
  9 12  1  0  0  0  0
 11  6  1  0  0  0  0
 13  9  1  0  0  0  0
 14  9  1  0  0  0  0
M  END
$$$$
