butane_opt
 OpenBabel08242015383D

 14 13  0  0  0  0  0  0  0  0999 V2000
   -3.9246    0.2888    0.0972 C   0  0  0  0  0  0  0  0  0  0  0  0
   -2.6949   -0.6400   -0.0656 C   0  0  0  0  0  0  0  0  0  0  0  0
   -4.8207   -0.3390    0.4381 H   0  0  0  0  0  0  0  0  0  0  0  0
   -4.1117    1.2020   -1.0030 H   0  0  0  0  0  0  0  0  0  0  0  0
   -3.9079    0.8333    0.8923 H   0  0  0  0  0  0  0  0  0  0  0  0
   -1.3924    0.1505   -0.0270 C   0  0  0  0  0  0  0  0  0  0  0  0
   -2.7281   -1.5721   -0.9903 H   0  0  0  0  0  0  0  0  0  0  0  0
   -2.5760   -1.1442    0.6886 H   0  0  0  0  0  0  0  0  0  0  0  0
   -0.2099   -0.6610    0.0941 C   0  0  0  0  0  0  0  0  0  0  0  0
   -1.2768    0.7904    0.7916 H   0  0  0  0  0  0  0  0  0  0  0  0
   -1.2744    0.8518   -0.9962 H   0  0  0  0  0  0  0  0  0  0  0  0
   -0.2777   -1.3939    1.0121 H   0  0  0  0  0  0  0  0  0  0  0  0
    0.6401   -0.0719    0.1329 H   0  0  0  0  0  0  0  0  0  0  0  0
   -0.0293   -1.2663   -0.7131 H   0  0  0  0  0  0  0  0  0  0  0  0
  1  3  1  0  0  0  0
  1  5  1  0  0  0  0
  2  6  1  0  0  0  0
  2  1  1  0  0  0  0
  2  8  1  0  0  0  0
  4  1  1  0  0  0  0
  6  9  1  0  0  0  0
  6 10  1  0  0  0  0
  7  2  1  0  0  0  0
  9 13  1  0  0  0  0
  9 12  1  0  0  0  0
 11  6  1  0  0  0  0
 14  9  1  0  0  0  0
M  END
$$$$
