14
butane_opt
C  -3.951542   0.258199   0.002234
C  -2.704405  -0.608731   0.062865
H  -4.902743  -0.363122   0.046613
H  -3.935055   0.885783  -0.909704
H  -3.928149   0.914132   0.863138
C  -1.402815   0.199381   0.015891
H  -2.690720  -1.260003  -0.762322
H  -2.796257  -1.280159   0.982659
C  -0.149158  -0.706073   0.017975
H  -1.382981   0.858660   0.853382
H  -1.412436   0.872654  -0.886945
H  -0.124188  -1.209032   0.808384
H   0.728543  -0.142052   0.165136
H  -0.080674  -1.470717  -0.911250
