butane_opt
 OpenBabel08242015383D

 14 13  0  0  0  0  0  0  0  0999 V2000
   -3.9441    0.2390    0.0393 C   0  0  0  0  0  0  0  0  0  0  0  0
   -2.7339   -0.5936   -0.0046 C   0  0  0  0  0  0  0  0  0  0  0  0
   -4.8035   -0.3444    0.0790 H   0  0  0  0  0  0  0  0  0  0  0  0
   -4.1326    0.8696   -0.8914 H   0  0  0  0  0  0  0  0  0  0  0  0
   -3.8085    0.9315    0.9525 H   0  0  0  0  0  0  0  0  0  0  0  0
   -1.4075    0.2205   -0.0008 C   0  0  0  0  0  0  0  0  0  0  0  0
   -2.9341   -1.3986   -0.9587 H   0  0  0  0  0  0  0  0  0  0  0  0
   -2.7888   -1.2233    0.7683 H   0  0  0  0  0  0  0  0  0  0  0  0
   -0.1162   -0.7156    0.0584 C   0  0  0  0  0  0  0  0  0  0  0  0
   -1.3174    1.0454    0.9571 H   0  0  0  0  0  0  0  0  0  0  0  0
   -1.5214    0.7738   -0.8512 H   0  0  0  0  0  0  0  0  0  0  0  0
    0.0576   -1.6084    1.0739 H   0  0  0  0  0  0  0  0  0  0  0  0
    0.6495   -0.2617   -0.2383 H   0  0  0  0  0  0  0  0  0  0  0  0
   -0.0075   -1.0370   -0.5301 H   0  0  0  0  0  0  0  0  0  0  0  0
  1  3  1  0  0  0  0
  1  5  1  0  0  0  0
  2  6  1  0  0  0  0
  2  1  1  0  0  0  0
  2  8  1  0  0  0  0
  4  1  1  0  0  0  0
  6  9  1  0  0  0  0
  6 10  1  0  0  0  0
  7  2  1  0  0  0  0
  9 12  1  0  0  0  0
 11  6  1  0  0  0  0
 13  9  1  0  0  0  0
 14  9  1  0  0  0  0
M  END
$$$$
