butane_opt
 OpenBabel08242015383D

 14 13  0  0  0  0  0  0  0  0999 V2000
   -3.9665    0.2435   -0.0818 C   0  0  0  0  0  0  0  0  0  0  0  0
   -2.6984   -0.6192    0.1876 C   0  0  0  0  0  0  0  0  0  0  0  0
   -4.8999   -0.3983   -0.1883 H   0  0  0  0  0  0  0  0  0  0  0  0
   -3.7632    0.7928   -1.0217 H   0  0  0  0  0  0  0  0  0  0  0  0
   -4.1279    0.8820    0.7133 H   0  0  0  0  0  0  0  0  0  0  0  0
   -1.4065    0.2439    0.0664 C   0  0  0  0  0  0  0  0  0  0  0  0
   -2.8052   -1.0972   -0.5773 H   0  0  0  0  0  0  0  0  0  0  0  0
   -2.7347   -1.3414    1.1420 H   0  0  0  0  0  0  0  0  0  0  0  0
   -0.1262   -0.7263   -0.0557 C   0  0  0  0  0  0  0  0  0  0  0  0
   -1.2959    1.1096    1.0628 H   0  0  0  0  0  0  0  0  0  0  0  0
   -1.4047    0.8805   -0.7403 H   0  0  0  0  0  0  0  0  0  0  0  0
   -0.1104   -1.0997    0.7143 H   0  0  0  0  0  0  0  0  0  0  0  0
    0.6195   -0.2993    0.0568 H   0  0  0  0  0  0  0  0  0  0  0  0
   -0.0958   -1.6642   -1.1603 H   0  0  0  0  0  0  0  0  0  0  0  0
  1  2  1  0  0  0  0
  1  5  1  0  0  0  0
  2  8  1  0  0  0  0
  3  1  1  0  0  0  0
  4  1  1  0  0  0  0
  6  2  1  0  0  0  0
  6 10  1  0  0  0  0
  7  2  1  0  0  0  0
  9 13  1  0  0  0  0
  9  6  1  0  0  0  0
  9 12  1  0  0  0  0
 11  6  1  0  0  0  0
 14  9  1  0  0  0  0
M  END
$$$$
