butane_opt
 OpenBabel08242015383D

 14 12  0  0  0  0  0  0  0  0999 V2000
   -3.9756    0.3042    0.0826 C   0  0  0  0  0  0  0  0  0  0  0  0
   -2.7065   -0.6579   -0.0586 C   0  0  0  0  0  0  0  0  0  0  0  0
   -4.9136   -0.2163    0.0020 H   0  0  0  0  0  0  0  0  0  0  0  0
   -4.1073    0.6960   -0.7145 H   0  0  0  0  0  0  0  0  0  0  0  0
   -3.9836    1.1605    1.0335 H   0  0  0  0  0  0  0  0  0  0  0  0
   -1.3743    0.1482   -0.0435 C   0  0  0  0  0  0  0  0  0  0  0  0
   -2.9194   -1.3771   -0.9849 H   0  0  0  0  0  0  0  0  0  0  0  0
   -2.5985   -1.1944    0.7321 H   0  0  0  0  0  0  0  0  0  0  0  0
   -0.1156   -0.6746    0.1009 C   0  0  0  0  0  0  0  0  0  0  0  0
   -1.4096    0.8793    0.8460 H   0  0  0  0  0  0  0  0  0  0  0  0
   -1.3225    0.7001   -0.7968 H   0  0  0  0  0  0  0  0  0  0  0  0
   -0.2278   -1.6509    1.2580 H   0  0  0  0  0  0  0  0  0  0  0  0
    0.7959   -0.0786   -0.4437 H   0  0  0  0  0  0  0  0  0  0  0  0
   -0.2666   -0.8222   -0.4317 H   0  0  0  0  0  0  0  0  0  0  0  0
  1  5  1  0  0  0  0
  2  6  1  0  0  0  0
  2  1  1  0  0  0  0
  2  8  1  0  0  0  0
  3  1  1  0  0  0  0
  4  1  1  0  0  0  0
  6  9  1  0  0  0  0
  6 10  1  0  0  0  0
  7  2  1  0  0  0  0
  9 12  1  0  0  0  0
 11  6  1  0  0  0  0
 13  9  1  0  0  0  0
M  RAD  2   9   2  14   2
M  END
$$$$
