butane_opt
 OpenBabel08242015383D

 14 13  0  0  0  0  0  0  0  0999 V2000
   -3.9339    0.2854   -0.0351 C   0  0  0  0  0  0  0  0  0  0  0  0
   -2.6708   -0.6596    0.1137 C   0  0  0  0  0  0  0  0  0  0  0  0
   -4.7864   -0.1349    0.0959 H   0  0  0  0  0  0  0  0  0  0  0  0
   -4.0917    1.0120   -0.9805 H   0  0  0  0  0  0  0  0  0  0  0  0
   -3.9756    0.8409    0.7737 H   0  0  0  0  0  0  0  0  0  0  0  0
   -1.4001    0.1447    0.0052 C   0  0  0  0  0  0  0  0  0  0  0  0
   -2.4987   -1.2305   -0.6567 H   0  0  0  0  0  0  0  0  0  0  0  0
   -2.7181   -1.3994    1.0974 H   0  0  0  0  0  0  0  0  0  0  0  0
   -0.2157   -0.6811   -0.0081 C   0  0  0  0  0  0  0  0  0  0  0  0
   -1.3256    0.9674    1.0648 H   0  0  0  0  0  0  0  0  0  0  0  0
   -1.4574    0.7927   -0.8599 H   0  0  0  0  0  0  0  0  0  0  0  0
   -0.3655   -0.8719    0.6592 H   0  0  0  0  0  0  0  0  0  0  0  0
    0.8831    0.1090    0.2964 H   0  0  0  0  0  0  0  0  0  0  0  0
   -0.0646   -1.6158   -1.0108 H   0  0  0  0  0  0  0  0  0  0  0  0
  1  3  1  0  0  0  0
  1  2  1  0  0  0  0
  1  5  1  0  0  0  0
  2  8  1  0  0  0  0
  4  1  1  0  0  0  0
  6  2  1  0  0  0  0
  6 10  1  0  0  0  0
  7  2  1  0  0  0  0
  9  6  1  0  0  0  0
  9 13  1  0  0  0  0
  9 12  1  0  0  0  0
 11  6  1  0  0  0  0
 14  9  1  0  0  0  0
M  END
$$$$
