butane_opt
 OpenBabel08242015383D

 14 13  0  0  0  0  0  0  0  0999 V2000
   -3.8918    0.2119    0.0776 C   0  0  0  0  0  0  0  0  0  0  0  0
   -2.7341   -0.5298    0.0254 C   0  0  0  0  0  0  0  0  0  0  0  0
   -4.8401   -0.3939   -0.2685 H   0  0  0  0  0  0  0  0  0  0  0  0
   -3.7927    0.5255   -0.6111 H   0  0  0  0  0  0  0  0  0  0  0  0
   -3.9825    1.1462    1.2302 H   0  0  0  0  0  0  0  0  0  0  0  0
   -1.4210    0.2028   -0.1111 C   0  0  0  0  0  0  0  0  0  0  0  0
   -2.6633   -1.2582   -0.9393 H   0  0  0  0  0  0  0  0  0  0  0  0
   -2.7760   -1.1051    0.8695 H   0  0  0  0  0  0  0  0  0  0  0  0
   -0.1759   -0.7473    0.0817 C   0  0  0  0  0  0  0  0  0  0  0  0
   -1.3883    0.9166    0.8005 H   0  0  0  0  0  0  0  0  0  0  0  0
   -1.4779    0.9038   -1.0669 H   0  0  0  0  0  0  0  0  0  0  0  0
   -0.1773   -1.5559    1.1289 H   0  0  0  0  0  0  0  0  0  0  0  0
    0.7860   -0.0472    0.1392 H   0  0  0  0  0  0  0  0  0  0  0  0
   -0.0248   -1.2735   -0.6558 H   0  0  0  0  0  0  0  0  0  0  0  0
  1  5  1  0  0  0  0
  2  1  1  0  0  0  0
  2  8  1  0  0  0  0
  3  1  1  0  0  0  0
  4  1  1  0  0  0  0
  6  2  1  0  0  0  0
  6  9  1  0  0  0  0
  6 10  1  0  0  0  0
  7  2  1  0  0  0  0
  9 13  1  0  0  0  0
  9 12  1  0  0  0  0
 11  6  1  0  0  0  0
 14  9  1  0  0  0  0
M  END
$$$$
