14
butane_opt
C  -3.867571   0.248535  -0.069129
C  -2.723276  -0.580401   0.216383
H  -4.838373  -0.437518  -0.426578
H  -3.553148   0.668763  -0.989735
H  -4.205134   0.850611   0.744246
C  -1.451374   0.233152   0.070507
H  -2.719091  -1.155493  -0.562322
H  -2.866629  -1.173341   1.084645
C  -0.154315  -0.750279  -0.058112
H  -1.350337   0.999361   0.925903
H  -1.496880   0.812132  -0.807515
H  -0.147685  -1.077062   0.655895
H   0.750047  -0.176425  -0.067423
H  -0.214063  -1.626035  -1.052571
