butane_opt
 OpenBabel08242015383D

 14 13  0  0  0  0  0  0  0  0999 V2000
   -3.9265    0.2948    0.0355 C   0  0  0  0  0  0  0  0  0  0  0  0
   -2.6837   -0.6412    0.0313 C   0  0  0  0  0  0  0  0  0  0  0  0
   -4.8382   -0.2855    0.0524 H   0  0  0  0  0  0  0  0  0  0  0  0
   -4.1159    0.9179   -0.8861 H   0  0  0  0  0  0  0  0  0  0  0  0
   -4.0338    0.9852    0.9266 H   0  0  0  0  0  0  0  0  0  0  0  0
   -1.3751    0.1607   -0.0260 C   0  0  0  0  0  0  0  0  0  0  0  0
   -2.6309   -1.3631   -0.8592 H   0  0  0  0  0  0  0  0  0  0  0  0
   -2.5536   -1.2810    0.9080 H   0  0  0  0  0  0  0  0  0  0  0  0
   -0.2177   -0.6638    0.0871 C   0  0  0  0  0  0  0  0  0  0  0  0
   -1.2925    0.6108    0.7560 H   0  0  0  0  0  0  0  0  0  0  0  0
   -1.3429    0.7924   -0.9289 H   0  0  0  0  0  0  0  0  0  0  0  0
   -0.2828   -1.1187    0.8175 H   0  0  0  0  0  0  0  0  0  0  0  0
    0.7164   -0.0313    0.0587 H   0  0  0  0  0  0  0  0  0  0  0  0
   -0.1985   -1.4922   -0.9620 H   0  0  0  0  0  0  0  0  0  0  0  0
  1  3  1  0  0  0  0
  1  5  1  0  0  0  0
  2  1  1  0  0  0  0
  2  8  1  0  0  0  0
  4  1  1  0  0  0  0
  6  2  1  0  0  0  0
  6  9  1  0  0  0  0
  6 10  1  0  0  0  0
  7  2  1  0  0  0  0
  9 12  1  0  0  0  0
 11  6  1  0  0  0  0
 13  9  1  0  0  0  0
 14  9  1  0  0  0  0
M  END
$$$$
