butane_opt
 OpenBabel08242015383D

 14 13  0  0  0  0  0  0  0  0999 V2000
   -3.8825    0.2236    0.1393 C   0  0  0  0  0  0  0  0  0  0  0  0
   -2.7042   -0.5571   -0.1178 C   0  0  0  0  0  0  0  0  0  0  0  0
   -4.7894   -0.4288    0.5204 H   0  0  0  0  0  0  0  0  0  0  0  0
   -4.0993    1.0593   -0.9225 H   0  0  0  0  0  0  0  0  0  0  0  0
   -3.6872    0.6619    0.8659 H   0  0  0  0  0  0  0  0  0  0  0  0
   -1.4583    0.2019   -0.1045 C   0  0  0  0  0  0  0  0  0  0  0  0
   -2.9262   -1.4273   -1.0635 H   0  0  0  0  0  0  0  0  0  0  0  0
   -2.5667   -1.1161    0.6853 H   0  0  0  0  0  0  0  0  0  0  0  0
   -0.1510   -0.7000    0.1678 C   0  0  0  0  0  0  0  0  0  0  0  0
   -1.5361    1.0140    0.8312 H   0  0  0  0  0  0  0  0  0  0  0  0
   -1.4887    0.8021   -0.9704 H   0  0  0  0  0  0  0  0  0  0  0  0
   -0.2805   -1.4469    1.1803 H   0  0  0  0  0  0  0  0  0  0  0  0
    0.7150   -0.2227    0.0452 H   0  0  0  0  0  0  0  0  0  0  0  0
   -0.0088   -1.3845   -0.7790 H   0  0  0  0  0  0  0  0  0  0  0  0
  1  3  1  0  0  0  0
  1  5  1  0  0  0  0
  2  6  1  0  0  0  0
  2  1  1  0  0  0  0
  2  8  1  0  0  0  0
  4  1  1  0  0  0  0
  6  9  1  0  0  0  0
  6 10  1  0  0  0  0
  7  2  1  0  0  0  0
  9 12  1  0  0  0  0
 11  6  1  0  0  0  0
 13  9  1  0  0  0  0
 14  9  1  0  0  0  0
M  END
$$$$
