14
butane_opt
C  -3.966529   0.243540  -0.081769
C  -2.698408  -0.619193   0.187570
H  -4.899949  -0.398308  -0.188319
H  -3.763161   0.792792  -1.021735
H  -4.127872   0.881990   0.713282
C  -1.406487   0.243912   0.066398
H  -2.805174  -1.097232  -0.577269
H  -2.734661  -1.341397   1.141973
C  -0.126232  -0.726324  -0.055733
H  -1.295917   1.109615   1.062811
H  -1.404706   0.880521  -0.740337
H  -0.110408  -1.099724   0.714275
H   0.619519  -0.299335   0.056762
H  -0.095788  -1.664237  -1.160303
