14
butane_opt
C  -3.889723   0.234405   0.101595
C  -2.694357  -0.573614  -0.010550
H  -4.835406  -0.444994  -0.392193
H  -3.701865   0.443696  -0.506937
H  -4.090583   1.189664   1.095264
C  -1.449818   0.228095  -0.098749
H  -2.916585  -1.183202  -0.879513
H  -2.631184  -1.319893   0.909716
C  -0.154909  -0.714771   0.111294
H  -1.518279   0.806306   0.712639
H  -1.528541   0.855372  -1.006140
H  -0.206012  -1.472630   1.060211
H   0.618830  -0.194977  -0.062709
H   0.056255  -1.262014  -0.700295
