butane_opt
 OpenBabel08242015383D

 14 13  0  0  0  0  0  0  0  0999 V2000
   -3.8897    0.2344    0.1016 C   0  0  0  0  0  0  0  0  0  0  0  0
   -2.6944   -0.5736   -0.0106 C   0  0  0  0  0  0  0  0  0  0  0  0
   -4.8354   -0.4450   -0.3922 H   0  0  0  0  0  0  0  0  0  0  0  0
   -3.7019    0.4437   -0.5069 H   0  0  0  0  0  0  0  0  0  0  0  0
   -4.0906    1.1897    1.0953 H   0  0  0  0  0  0  0  0  0  0  0  0
   -1.4498    0.2281   -0.0987 C   0  0  0  0  0  0  0  0  0  0  0  0
   -2.9166   -1.1832   -0.8795 H   0  0  0  0  0  0  0  0  0  0  0  0
   -2.6312   -1.3199    0.9097 H   0  0  0  0  0  0  0  0  0  0  0  0
   -0.1549   -0.7148    0.1113 C   0  0  0  0  0  0  0  0  0  0  0  0
   -1.5183    0.8063    0.7126 H   0  0  0  0  0  0  0  0  0  0  0  0
   -1.5285    0.8554   -1.0061 H   0  0  0  0  0  0  0  0  0  0  0  0
   -0.2060   -1.4726    1.0602 H   0  0  0  0  0  0  0  0  0  0  0  0
    0.6188   -0.1950   -0.0627 H   0  0  0  0  0  0  0  0  0  0  0  0
    0.0563   -1.2620   -0.7003 H   0  0  0  0  0  0  0  0  0  0  0  0
  1  5  1  0  0  0  0
  2  1  1  0  0  0  0
  2  8  1  0  0  0  0
  3  1  1  0  0  0  0
  4  1  1  0  0  0  0
  6  2  1  0  0  0  0
  6  9  1  0  0  0  0
  6 10  1  0  0  0  0
  7  2  1  0  0  0  0
  9 12  1  0  0  0  0
 11  6  1  0  0  0  0
 13  9  1  0  0  0  0
 14  9  1  0  0  0  0
M  END
$$$$
