butane_opt
 OpenBabel08242015383D

 14 13  0  0  0  0  0  0  0  0999 V2000
   -3.9062    0.2599   -0.0747 C   0  0  0  0  0  0  0  0  0  0  0  0
   -2.7138   -0.6144    0.1068 C   0  0  0  0  0  0  0  0  0  0  0  0
   -4.8928   -0.3634    0.3726 H   0  0  0  0  0  0  0  0  0  0  0  0
   -3.9658    1.0735   -1.0908 H   0  0  0  0  0  0  0  0  0  0  0  0
   -3.8989    0.5856    0.6717 H   0  0  0  0  0  0  0  0  0  0  0  0
   -1.4431    0.2072    0.1115 C   0  0  0  0  0  0  0  0  0  0  0  0
   -2.5758   -1.3312   -0.7875 H   0  0  0  0  0  0  0  0  0  0  0  0
   -2.7748   -1.1627    0.9980 H   0  0  0  0  0  0  0  0  0  0  0  0
   -0.1608   -0.7125   -0.0352 C   0  0  0  0  0  0  0  0  0  0  0  0
   -1.3285    1.0082    1.0420 H   0  0  0  0  0  0  0  0  0  0  0  0
   -1.3609    0.8747   -0.8443 H   0  0  0  0  0  0  0  0  0  0  0  0
   -0.0384   -1.1591    0.7306 H   0  0  0  0  0  0  0  0  0  0  0  0
    0.7226   -0.1877   -0.0086 H   0  0  0  0  0  0  0  0  0  0  0  0
   -0.2072   -1.5090   -0.9709 H   0  0  0  0  0  0  0  0  0  0  0  0
  1  2  1  0  0  0  0
  1  3  1  0  0  0  0
  1  5  1  0  0  0  0
  2  6  1  0  0  0  0
  2  8  1  0  0  0  0
  4  1  1  0  0  0  0
  6 10  1  0  0  0  0
  7  2  1  0  0  0  0
  9 13  1  0  0  0  0
  9  6  1  0  0  0  0
  9 12  1  0  0  0  0
 11  6  1  0  0  0  0
 14  9  1  0  0  0  0
M  END
$$$$
