butane_opt
 OpenBabel08242015383D

 14 13  0  0  0  0  0  0  0  0999 V2000
   -3.9356    0.2653   -0.0018 C   0  0  0  0  0  0  0  0  0  0  0  0
   -2.6917   -0.6079    0.0720 C   0  0  0  0  0  0  0  0  0  0  0  0
   -4.8613   -0.3269   -0.1319 H   0  0  0  0  0  0  0  0  0  0  0  0
   -3.8590    0.8176   -0.8864 H   0  0  0  0  0  0  0  0  0  0  0  0
   -4.0582    1.0138    0.8755 H   0  0  0  0  0  0  0  0  0  0  0  0
   -1.4018    0.1766    0.0252 C   0  0  0  0  0  0  0  0  0  0  0  0
   -2.7393   -1.2215   -0.7257 H   0  0  0  0  0  0  0  0  0  0  0  0
   -2.7465   -1.3096    1.0064 H   0  0  0  0  0  0  0  0  0  0  0  0
   -0.1737   -0.6943    0.0046 C   0  0  0  0  0  0  0  0  0  0  0  0
   -1.3560    0.8492    0.8951 H   0  0  0  0  0  0  0  0  0  0  0  0
   -1.4578    0.7561   -0.8100 H   0  0  0  0  0  0  0  0  0  0  0  0
   -0.1160   -1.3073    0.8826 H   0  0  0  0  0  0  0  0  0  0  0  0
    0.7722   -0.0526   -0.0072 H   0  0  0  0  0  0  0  0  0  0  0  0
   -0.1727   -1.3605   -0.8495 H   0  0  0  0  0  0  0  0  0  0  0  0
  1  2  1  0  0  0  0
  1  5  1  0  0  0  0
  2  8  1  0  0  0  0
  3  1  1  0  0  0  0
  4  1  1  0  0  0  0
  6  2  1  0  0  0  0
  6 10  1  0  0  0  0
  7  2  1  0  0  0  0
  9  6  1  0  0  0  0
  9 12  1  0  0  0  0
 11  6  1  0  0  0  0
 13  9  1  0  0  0  0
 14  9  1  0  0  0  0
M  END
$$$$
