butane_opt
 OpenBabel08242015383D

 14 13  0  0  0  0  0  0  0  0999 V2000
   -3.9483    0.2574    0.0822 C   0  0  0  0  0  0  0  0  0  0  0  0
   -2.7111   -0.6098   -0.0254 C   0  0  0  0  0  0  0  0  0  0  0  0
   -4.7867   -0.3666    0.1482 H   0  0  0  0  0  0  0  0  0  0  0  0
   -3.9463    0.7229   -0.6619 H   0  0  0  0  0  0  0  0  0  0  0  0
   -3.9484    1.0177    1.0422 H   0  0  0  0  0  0  0  0  0  0  0  0
   -1.4287    0.2127   -0.1177 C   0  0  0  0  0  0  0  0  0  0  0  0
   -2.9119   -1.2775   -0.9285 H   0  0  0  0  0  0  0  0  0  0  0  0
   -2.5518   -1.2626    0.9192 H   0  0  0  0  0  0  0  0  0  0  0  0
   -0.1304   -0.6903    0.1087 C   0  0  0  0  0  0  0  0  0  0  0  0
   -1.3930    0.8074    0.7205 H   0  0  0  0  0  0  0  0  0  0  0  0
   -1.2655    0.7697   -0.9169 H   0  0  0  0  0  0  0  0  0  0  0  0
   -0.3062   -1.2929    1.0088 H   0  0  0  0  0  0  0  0  0  0  0  0
    0.6056   -0.2725    0.3020 H   0  0  0  0  0  0  0  0  0  0  0  0
    0.1202   -1.3744   -0.7676 H   0  0  0  0  0  0  0  0  0  0  0  0
  1  3  1  0  0  0  0
  1  5  1  0  0  0  0
  2  1  1  0  0  0  0
  2  8  1  0  0  0  0
  4  1  1  0  0  0  0
  6  2  1  0  0  0  0
  6  9  1  0  0  0  0
  6 10  1  0  0  0  0
  7  2  1  0  0  0  0
  9 13  1  0  0  0  0
  9 12  1  0  0  0  0
 11  6  1  0  0  0  0
 14  9  1  0  0  0  0
M  END
$$$$
