butane_opt
 OpenBabel08242015383D

 14 13  0  0  0  0  0  0  0  0999 V2000
   -3.9352    0.2874   -0.0988 C   0  0  0  0  0  0  0  0  0  0  0  0
   -2.7006   -0.6064    0.1913 C   0  0  0  0  0  0  0  0  0  0  0  0
   -4.9145   -0.3919   -0.3796 H   0  0  0  0  0  0  0  0  0  0  0  0
   -3.4932    0.6469   -0.9555 H   0  0  0  0  0  0  0  0  0  0  0  0
   -4.0775    1.0127    0.8694 H   0  0  0  0  0  0  0  0  0  0  0  0
   -1.4052    0.1635    0.0935 C   0  0  0  0  0  0  0  0  0  0  0  0
   -2.7371   -1.1651   -0.5491 H   0  0  0  0  0  0  0  0  0  0  0  0
   -2.6842   -1.3504    1.1603 H   0  0  0  0  0  0  0  0  0  0  0  0
   -0.1880   -0.7006   -0.0763 C   0  0  0  0  0  0  0  0  0  0  0  0
   -1.3198    1.0522    1.0239 H   0  0  0  0  0  0  0  0  0  0  0  0
   -1.4716    0.7245   -0.7276 H   0  0  0  0  0  0  0  0  0  0  0  0
    0.0050   -1.2207    0.7945 H   0  0  0  0  0  0  0  0  0  0  0  0
    0.6961   -0.1228   -0.1872 H   0  0  0  0  0  0  0  0  0  0  0  0
   -0.2960   -1.3944   -0.9231 H   0  0  0  0  0  0  0  0  0  0  0  0
  1  2  1  0  0  0  0
  1  5  1  0  0  0  0
  2  8  1  0  0  0  0
  3  1  1  0  0  0  0
  4  1  1  0  0  0  0
  6  2  1  0  0  0  0
  6 10  1  0  0  0  0
  7  2  1  0  0  0  0
  9  6  1  0  0  0  0
  9 12  1  0  0  0  0
 11  6  1  0  0  0  0
 13  9  1  0  0  0  0
 14  9  1  0  0  0  0
M  END
$$$$
