butane_opt
 OpenBabel08242015383D

 14 13  0  0  0  0  0  0  0  0999 V2000
   -3.9252    0.2846   -0.0697 C   0  0  0  0  0  0  0  0  0  0  0  0
   -2.6531   -0.6472    0.1342 C   0  0  0  0  0  0  0  0  0  0  0  0
   -4.7618   -0.2244   -0.2485 H   0  0  0  0  0  0  0  0  0  0  0  0
   -3.9696    0.7332   -0.8488 H   0  0  0  0  0  0  0  0  0  0  0  0
   -4.2292    1.1436    0.8456 H   0  0  0  0  0  0  0  0  0  0  0  0
   -1.4144    0.1547    0.1164 C   0  0  0  0  0  0  0  0  0  0  0  0
   -2.6271   -1.2536   -0.7339 H   0  0  0  0  0  0  0  0  0  0  0  0
   -2.8219   -1.3642    1.0508 H   0  0  0  0  0  0  0  0  0  0  0  0
   -0.1824   -0.6515   -0.0475 C   0  0  0  0  0  0  0  0  0  0  0  0
   -1.4098    0.6973    0.9233 H   0  0  0  0  0  0  0  0  0  0  0  0
   -1.4450    0.7328   -0.7900 H   0  0  0  0  0  0  0  0  0  0  0  0
   -0.1095   -1.3416    0.8083 H   0  0  0  0  0  0  0  0  0  0  0  0
    0.7795   -0.0196   -0.3125 H   0  0  0  0  0  0  0  0  0  0  0  0
   -0.3347   -1.2324   -0.8282 H   0  0  0  0  0  0  0  0  0  0  0  0
  1  2  1  0  0  0  0
  1  5  1  0  0  0  0
  2  8  1  0  0  0  0
  3  1  1  0  0  0  0
  4  1  1  0  0  0  0
  6  2  1  0  0  0  0
  6 10  1  0  0  0  0
  7  2  1  0  0  0  0
  9  6  1  0  0  0  0
  9 12  1  0  0  0  0
 11  6  1  0  0  0  0
 13  9  1  0  0  0  0
 14  9  1  0  0  0  0
M  END
$$$$
