butane_opt
 OpenBabel08242015383D

 14 13  0  0  0  0  0  0  0  0999 V2000
   -3.9884    0.2760   -0.0621 C   0  0  0  0  0  0  0  0  0  0  0  0
   -2.6762   -0.6420    0.1244 C   0  0  0  0  0  0  0  0  0  0  0  0
   -4.7949   -0.2109   -0.0898 H   0  0  0  0  0  0  0  0  0  0  0  0
   -3.8540    0.9909   -1.1018 H   0  0  0  0  0  0  0  0  0  0  0  0
   -4.1198    0.9003    0.7165 H   0  0  0  0  0  0  0  0  0  0  0  0
   -1.3901    0.1666    0.1216 C   0  0  0  0  0  0  0  0  0  0  0  0
   -2.7065   -1.3361   -0.6964 H   0  0  0  0  0  0  0  0  0  0  0  0
   -2.7670   -1.2484    0.9367 H   0  0  0  0  0  0  0  0  0  0  0  0
   -0.1414   -0.6950   -0.0390 C   0  0  0  0  0  0  0  0  0  0  0  0
   -1.2545    0.9482    1.0121 H   0  0  0  0  0  0  0  0  0  0  0  0
   -1.5783    0.6374   -0.6774 H   0  0  0  0  0  0  0  0  0  0  0  0
   -0.0059   -1.2101    0.8669 H   0  0  0  0  0  0  0  0  0  0  0  0
    0.7960   -0.0308   -0.4274 H   0  0  0  0  0  0  0  0  0  0  0  0
   -0.3977   -1.1494   -0.8347 H   0  0  0  0  0  0  0  0  0  0  0  0
  1  2  1  0  0  0  0
  1  5  1  0  0  0  0
  2  8  1  0  0  0  0
  3  1  1  0  0  0  0
  4  1  1  0  0  0  0
  6  2  1  0  0  0  0
  6 10  1  0  0  0  0
  7  2  1  0  0  0  0
  9  6  1  0  0  0  0
  9 12  1  0  0  0  0
 11  6  1  0  0  0  0
 13  9  1  0  0  0  0
 14  9  1  0  0  0  0
M  END
$$$$
