14
butane_opt
C  -3.939628   0.270899   0.034293
C  -2.706497  -0.626360   0.039701
H  -4.865794  -0.306727  -0.093040
H  -3.936937   0.754536  -0.779930
H  -4.027304   1.061208   0.973244
C  -1.406075   0.182995  -0.019411
H  -2.718404  -1.342218  -0.858234
H  -2.720179  -1.199579   0.909869
C  -0.158402  -0.696013   0.042336
H  -1.366366   0.838544   0.840452
H  -1.348836   0.879947  -0.950412
H  -0.144273  -1.381451   0.986716
H   0.771679  -0.089620   0.025085
H  -0.138400  -1.270818  -0.752072
