14
butane_opt
C  -4.023199   0.291054  -0.090235
C  -2.663845  -0.650552   0.112213
H  -5.013024  -0.264795   0.318146
H  -4.040699   1.083569  -1.151869
H  -3.978756   0.766813   0.620593
C  -1.375365   0.167893   0.148246
H  -2.649751  -1.248405  -0.711998
H  -2.774434  -1.412913   1.129262
C  -0.131972  -0.662420  -0.060482
H  -1.265645   0.867150   0.937371
H  -1.428959   0.755439  -0.719879
H  -0.096339  -1.111882   0.736485
H   0.779833  -0.073753   0.043384
H  -0.224442  -1.587753  -1.103634
