butane_opt
 OpenBabel08242015383D

 14 13  0  0  0  0  0  0  0  0999 V2000
   -3.9606    0.3119   -0.0876 C   0  0  0  0  0  0  0  0  0  0  0  0
   -2.6892   -0.6478    0.0898 C   0  0  0  0  0  0  0  0  0  0  0  0
   -4.8057   -0.2259    0.0561 H   0  0  0  0  0  0  0  0  0  0  0  0
   -3.8858    1.0314   -1.0371 H   0  0  0  0  0  0  0  0  0  0  0  0
   -4.1246    0.8797    0.6636 H   0  0  0  0  0  0  0  0  0  0  0  0
   -1.3512    0.1353    0.1541 C   0  0  0  0  0  0  0  0  0  0  0  0
   -2.6571   -1.2120   -0.6281 H   0  0  0  0  0  0  0  0  0  0  0  0
   -2.7976   -1.5565    1.1673 H   0  0  0  0  0  0  0  0  0  0  0  0
   -0.1946   -0.6806   -0.0609 C   0  0  0  0  0  0  0  0  0  0  0  0
   -1.3376    0.9339    1.1035 H   0  0  0  0  0  0  0  0  0  0  0  0
   -1.5431    0.6304   -0.5602 H   0  0  0  0  0  0  0  0  0  0  0  0
    0.0360   -1.2281    0.8053 H   0  0  0  0  0  0  0  0  0  0  0  0
    0.8639    0.0931   -0.3330 H   0  0  0  0  0  0  0  0  0  0  0  0
   -0.4585   -1.2003   -0.9430 H   0  0  0  0  0  0  0  0  0  0  0  0
  1  3  1  0  0  0  0
  1  2  1  0  0  0  0
  1  5  1  0  0  0  0
  2  6  1  0  0  0  0
  2  8  1  0  0  0  0
  4  1  1  0  0  0  0
  6 10  1  0  0  0  0
  7  2  1  0  0  0  0
  9  6  1  0  0  0  0
  9 12  1  0  0  0  0
 11  6  1  0  0  0  0
 13  9  1  0  0  0  0
 14  9  1  0  0  0  0
M  END
$$$$
