14
butane_opt
C  -4.003927   0.304186  -0.111820
C  -2.669897  -0.673195   0.128604
H  -4.770528  -0.204101   0.134817
H  -3.985896   0.966156  -1.069081
H  -4.034519   0.936510   0.661099
C  -1.381770   0.149454   0.160784
H  -2.574654  -1.336090  -0.742015
H  -2.830090  -1.440147   1.166575
C  -0.167733  -0.641900  -0.084561
H  -1.290463   0.930413   1.143130
H  -1.391568   0.644775  -0.575734
H   0.106606  -1.331320   0.857630
H   0.664347  -0.103151  -0.335912
H  -0.269473  -1.166528  -0.906079
