butane_opt
 OpenBabel08242015383D

 14 13  0  0  0  0  0  0  0  0999 V2000
   -3.9494    0.2598    0.0400 C   0  0  0  0  0  0  0  0  0  0  0  0
   -2.7039   -0.6184    0.0278 C   0  0  0  0  0  0  0  0  0  0  0  0
   -4.8796   -0.3290   -0.0599 H   0  0  0  0  0  0  0  0  0  0  0  0
   -3.9418    0.7684   -0.8194 H   0  0  0  0  0  0  0  0  0  0  0  0
   -3.9215    1.0077    0.9600 H   0  0  0  0  0  0  0  0  0  0  0  0
   -1.4136    0.2048   -0.0173 C   0  0  0  0  0  0  0  0  0  0  0  0
   -2.7305   -1.2993   -0.8167 H   0  0  0  0  0  0  0  0  0  0  0  0
   -2.7000   -1.2332    0.9181 H   0  0  0  0  0  0  0  0  0  0  0  0
   -0.1512   -0.6989    0.0519 C   0  0  0  0  0  0  0  0  0  0  0  0
   -1.4220    0.8193    0.7732 H   0  0  0  0  0  0  0  0  0  0  0  0
   -1.3400    0.8835   -0.9435 H   0  0  0  0  0  0  0  0  0  0  0  0
   -0.1184   -1.3378    0.9696 H   0  0  0  0  0  0  0  0  0  0  0  0
    0.7309   -0.1229    0.0603 H   0  0  0  0  0  0  0  0  0  0  0  0
   -0.0862   -1.4031   -0.8273 H   0  0  0  0  0  0  0  0  0  0  0  0
  1  5  1  0  0  0  0
  2  1  1  0  0  0  0
  2  8  1  0  0  0  0
  3  1  1  0  0  0  0
  4  1  1  0  0  0  0
  6  2  1  0  0  0  0
  6  9  1  0  0  0  0
  6 10  1  0  0  0  0
  7  2  1  0  0  0  0
  9 13  1  0  0  0  0
  9 12  1  0  0  0  0
 11  6  1  0  0  0  0
 14  9  1  0  0  0  0
M  END
$$$$
