butane_opt
 OpenBabel08242015383D

 14 12  0  0  0  0  0  0  0  0999 V2000
   -3.9618    0.2765    0.0647 C   0  0  0  0  0  0  0  0  0  0  0  0
   -2.7297   -0.6267    0.0251 C   0  0  0  0  0  0  0  0  0  0  0  0
   -4.9489   -0.3926   -0.3032 H   0  0  0  0  0  0  0  0  0  0  0  0
   -3.9448    0.4665   -0.5038 H   0  0  0  0  0  0  0  0  0  0  0  0
   -3.8671    1.2794    1.0898 H   0  0  0  0  0  0  0  0  0  0  0  0
   -1.3948    0.1924   -0.0742 C   0  0  0  0  0  0  0  0  0  0  0  0
   -2.8704   -1.3243   -0.8713 H   0  0  0  0  0  0  0  0  0  0  0  0
   -2.6870   -1.1046    0.8081 H   0  0  0  0  0  0  0  0  0  0  0  0
   -0.1343   -0.7192    0.0957 C   0  0  0  0  0  0  0  0  0  0  0  0
   -1.3889    0.6908    0.6140 H   0  0  0  0  0  0  0  0  0  0  0  0
   -1.3667    1.1516   -1.0957 H   0  0  0  0  0  0  0  0  0  0  0  0
   -0.0765   -1.3632    0.9909 H   0  0  0  0  0  0  0  0  0  0  0  0
    0.7619   -0.1188    0.0970 H   0  0  0  0  0  0  0  0  0  0  0  0
    0.0031   -1.2686   -0.6858 H   0  0  0  0  0  0  0  0  0  0  0  0
  1  5  1  0  0  0  0
  2  1  1  0  0  0  0
  2  8  1  0  0  0  0
  3  1  1  0  0  0  0
  6  2  1  0  0  0  0
  6  9  1  0  0  0  0
  6 10  1  0  0  0  0
  7  2  1  0  0  0  0
  9 13  1  0  0  0  0
  9 12  1  0  0  0  0
 11  6  1  0  0  0  0
 14  9  1  0  0  0  0
M  RAD  2   1   2   4   2
M  END
$$$$
