butane_opt
 OpenBabel08242015383D

 14 13  0  0  0  0  0  0  0  0999 V2000
   -3.9454    0.2738   -0.0758 C   0  0  0  0  0  0  0  0  0  0  0  0
   -2.6703   -0.6059    0.1422 C   0  0  0  0  0  0  0  0  0  0  0  0
   -4.7919   -0.2528   -0.2209 H   0  0  0  0  0  0  0  0  0  0  0  0
   -3.8275    1.0324   -1.1103 H   0  0  0  0  0  0  0  0  0  0  0  0
   -4.0456    0.7869    0.7079 H   0  0  0  0  0  0  0  0  0  0  0  0
   -1.3937    0.1377    0.1585 C   0  0  0  0  0  0  0  0  0  0  0  0
   -2.5682   -1.4475   -0.8470 H   0  0  0  0  0  0  0  0  0  0  0  0
   -2.8324   -1.2057    1.0930 H   0  0  0  0  0  0  0  0  0  0  0  0
   -0.1897   -0.6636   -0.0855 C   0  0  0  0  0  0  0  0  0  0  0  0
   -1.3378    0.9100    1.1175 H   0  0  0  0  0  0  0  0  0  0  0  0
   -1.6476    0.6736   -0.5906 H   0  0  0  0  0  0  0  0  0  0  0  0
    0.0141   -1.5056    0.9059 H   0  0  0  0  0  0  0  0  0  0  0  0
    0.8053   -0.0441   -0.4757 H   0  0  0  0  0  0  0  0  0  0  0  0
   -0.4209   -1.0810   -0.8035 H   0  0  0  0  0  0  0  0  0  0  0  0
  1  2  1  0  0  0  0
  1  5  1  0  0  0  0
  2  6  1  0  0  0  0
  2  8  1  0  0  0  0
  3  1  1  0  0  0  0
  4  1  1  0  0  0  0
  6 10  1  0  0  0  0
  7  2  1  0  0  0  0
  9  6  1  0  0  0  0
  9 12  1  0  0  0  0
 11  6  1  0  0  0  0
 13  9  1  0  0  0  0
 14  9  1  0  0  0  0
M  END
$$$$
