14
butane_opt
C  -3.953241   0.223140  -0.055064
C  -2.700329  -0.622583   0.149567
H  -4.797876  -0.314662  -0.223350
H  -3.874727   0.810725  -0.942848
H  -4.195839   1.103666   0.929762
C  -1.421508   0.227127   0.040376
H  -2.610125  -1.153391  -0.621980
H  -2.884620  -1.187683   1.097917
C  -0.119924  -0.707525  -0.033207
H  -1.271309   1.003601   0.942772
H  -1.525159   0.724846  -0.769480
H  -0.175611  -1.269193   0.838452
H   0.766542  -0.224922  -0.054102
H  -0.081117  -1.431545  -0.961528
