butane_opt
 OpenBabel08242015383D

 14 13  0  0  0  0  0  0  0  0999 V2000
   -3.9860    0.2954    0.1226 C   0  0  0  0  0  0  0  0  0  0  0  0
   -2.6960   -0.6814   -0.0976 C   0  0  0  0  0  0  0  0  0  0  0  0
   -4.8099   -0.1489    0.3836 H   0  0  0  0  0  0  0  0  0  0  0  0
   -4.2438    1.0299   -0.8244 H   0  0  0  0  0  0  0  0  0  0  0  0
   -3.8657    0.8384    0.9851 H   0  0  0  0  0  0  0  0  0  0  0  0
   -1.3555    0.1879   -0.0852 C   0  0  0  0  0  0  0  0  0  0  0  0
   -2.6442   -1.4872   -1.0220 H   0  0  0  0  0  0  0  0  0  0  0  0
   -2.6534   -1.1483    0.7131 H   0  0  0  0  0  0  0  0  0  0  0  0
   -0.1719   -0.6795    0.1321 C   0  0  0  0  0  0  0  0  0  0  0  0
   -1.3720    0.7678    0.7462 H   0  0  0  0  0  0  0  0  0  0  0  0
   -1.3083    0.7994   -0.9336 H   0  0  0  0  0  0  0  0  0  0  0  0
   -0.3823   -1.3395    1.0821 H   0  0  0  0  0  0  0  0  0  0  0  0
    0.7235   -0.0345    0.0599 H   0  0  0  0  0  0  0  0  0  0  0  0
    0.0401   -1.1964   -0.6205 H   0  0  0  0  0  0  0  0  0  0  0  0
  1  3  1  0  0  0  0
  1  5  1  0  0  0  0
  2  6  1  0  0  0  0
  2  1  1  0  0  0  0
  2  8  1  0  0  0  0
  4  1  1  0  0  0  0
  6  9  1  0  0  0  0
  6 10  1  0  0  0  0
  7  2  1  0  0  0  0
  9 12  1  0  0  0  0
 11  6  1  0  0  0  0
 13  9  1  0  0  0  0
 14  9  1  0  0  0  0
M  END
$$$$
