butane_opt
 OpenBabel08242015383D

 14 13  0  0  0  0  0  0  0  0999 V2000
   -3.9455    0.2821    0.0040 C   0  0  0  0  0  0  0  0  0  0  0  0
   -2.6611   -0.6119    0.0328 C   0  0  0  0  0  0  0  0  0  0  0  0
   -4.7951   -0.3573    0.1002 H   0  0  0  0  0  0  0  0  0  0  0  0
   -4.0424    1.0726   -1.0003 H   0  0  0  0  0  0  0  0  0  0  0  0
   -4.0866    0.7087    0.6629 H   0  0  0  0  0  0  0  0  0  0  0  0
   -1.4105    0.1561    0.0630 C   0  0  0  0  0  0  0  0  0  0  0  0
   -2.6596   -1.3133   -0.8173 H   0  0  0  0  0  0  0  0  0  0  0  0
   -2.6164   -1.3878    0.9430 H   0  0  0  0  0  0  0  0  0  0  0  0
   -0.2066   -0.6720   -0.0083 C   0  0  0  0  0  0  0  0  0  0  0  0
   -1.1769    1.0092    1.0817 H   0  0  0  0  0  0  0  0  0  0  0  0
   -1.3363    0.6736   -0.7035 H   0  0  0  0  0  0  0  0  0  0  0  0
   -0.0258   -1.3994    0.9834 H   0  0  0  0  0  0  0  0  0  0  0  0
    0.7177   -0.0719   -0.1205 H   0  0  0  0  0  0  0  0  0  0  0  0
   -0.3113   -1.2433   -0.7928 H   0  0  0  0  0  0  0  0  0  0  0  0
  1  2  1  0  0  0  0
  1  3  1  0  0  0  0
  1  5  1  0  0  0  0
  2  6  1  0  0  0  0
  2  8  1  0  0  0  0
  4  1  1  0  0  0  0
  6 10  1  0  0  0  0
  7  2  1  0  0  0  0
  9  6  1  0  0  0  0
  9 12  1  0  0  0  0
 11  6  1  0  0  0  0
 13  9  1  0  0  0  0
 14  9  1  0  0  0  0
M  END
$$$$
