butane_opt
 OpenBabel08242015383D

 14 12  0  0  0  0  0  0  0  0999 V2000
   -3.9904    0.2630   -0.0403 C   0  0  0  0  0  0  0  0  0  0  0  0
   -2.6934   -0.6568    0.0800 C   0  0  0  0  0  0  0  0  0  0  0  0
   -4.7233   -0.1598    0.3590 H   0  0  0  0  0  0  0  0  0  0  0  0
   -4.1015    1.4405   -1.2991 H   0  0  0  0  0  0  0  0  0  0  0  0
   -4.0136    0.5301    0.5530 H   0  0  0  0  0  0  0  0  0  0  0  0
   -1.3735    0.1575    0.1210 C   0  0  0  0  0  0  0  0  0  0  0  0
   -2.8320   -1.3504   -0.7534 H   0  0  0  0  0  0  0  0  0  0  0  0
   -2.6147   -1.2059    0.9318 H   0  0  0  0  0  0  0  0  0  0  0  0
   -0.1491   -0.6504   -0.0494 C   0  0  0  0  0  0  0  0  0  0  0  0
   -1.3708    0.9844    1.0838 H   0  0  0  0  0  0  0  0  0  0  0  0
   -1.4594    0.8333   -0.7250 H   0  0  0  0  0  0  0  0  0  0  0  0
   -0.0401   -1.2464    0.7354 H   0  0  0  0  0  0  0  0  0  0  0  0
    0.7772   -0.0774    0.1650 H   0  0  0  0  0  0  0  0  0  0  0  0
   -0.1924   -1.5539   -1.0141 H   0  0  0  0  0  0  0  0  0  0  0  0
  1  2  1  0  0  0  0
  1  3  1  0  0  0  0
  1  5  1  0  0  0  0
  2  6  1  0  0  0  0
  2  8  1  0  0  0  0
  6 10  1  0  0  0  0
  7  2  1  0  0  0  0
  9  6  1  0  0  0  0
  9 13  1  0  0  0  0
  9 12  1  0  0  0  0
 11  6  1  0  0  0  0
 14  9  1  0  0  0  0
M  RAD  2   1   2   4   2
M  END
$$$$
