14
butane_opt
C  -3.940372   0.265467   0.055608
C  -2.685758  -0.621156  -0.003785
H  -4.855061  -0.300802   0.167603
H  -4.018978   0.914390  -0.851094
H  -3.930907   0.928084   0.908174
C  -1.405664   0.175050  -0.028960
H  -2.693052  -1.371145  -0.898004
H  -2.654973  -1.204453   0.858518
C  -0.185138  -0.682707   0.076618
H  -1.431172   0.832277   0.791426
H  -1.320000   0.860756  -0.957842
H  -0.152384  -1.318735   0.953409
H   0.745180  -0.055839   0.076704
H  -0.114015  -1.393584  -0.803206
