butane_opt
 OpenBabel08242015383D

 14 13  0  0  0  0  0  0  0  0999 V2000
   -3.9017    0.2475   -0.0376 C   0  0  0  0  0  0  0  0  0  0  0  0
   -2.6905   -0.5749    0.0828 C   0  0  0  0  0  0  0  0  0  0  0  0
   -4.9422   -0.4786   -0.1153 H   0  0  0  0  0  0  0  0  0  0  0  0
   -3.7932    0.7681   -0.9324 H   0  0  0  0  0  0  0  0  0  0  0  0
   -3.9358    0.8977    0.8397 H   0  0  0  0  0  0  0  0  0  0  0  0
   -1.3973    0.2268    0.0844 C   0  0  0  0  0  0  0  0  0  0  0  0
   -2.6755   -1.2725   -0.8092 H   0  0  0  0  0  0  0  0  0  0  0  0
   -2.7683   -1.1885    1.0137 H   0  0  0  0  0  0  0  0  0  0  0  0
   -0.1971   -0.7212   -0.0146 C   0  0  0  0  0  0  0  0  0  0  0  0
   -1.5013    0.8949    0.9737 H   0  0  0  0  0  0  0  0  0  0  0  0
   -1.4136    0.7687   -0.6616 H   0  0  0  0  0  0  0  0  0  0  0  0
    0.0203   -1.5071    0.9637 H   0  0  0  0  0  0  0  0  0  0  0  0
    0.6353   -0.2530   -0.4635 H   0  0  0  0  0  0  0  0  0  0  0  0
   -0.3741   -1.2531   -0.7492 H   0  0  0  0  0  0  0  0  0  0  0  0
  1  2  1  0  0  0  0
  1  5  1  0  0  0  0
  2  6  1  0  0  0  0
  2  8  1  0  0  0  0
  3  1  1  0  0  0  0
  4  1  1  0  0  0  0
  6 10  1  0  0  0  0
  7  2  1  0  0  0  0
  9  6  1  0  0  0  0
  9 12  1  0  0  0  0
 11  6  1  0  0  0  0
 13  9  1  0  0  0  0
 14  9  1  0  0  0  0
M  END
$$$$
