14
butane_opt
C  -3.898690   0.227646   0.139734
C  -2.711596  -0.581464  -0.095179
H  -4.903826  -0.381215   0.462382
H  -4.102720   1.048574  -0.887449
H  -3.643161   0.711481   0.893500
C  -1.466998   0.236895  -0.070336
H  -2.685009  -1.465533  -1.179958
H  -2.749348  -1.056840   0.652884
C  -0.124154  -0.723333   0.125188
H  -1.529882   0.749326   0.632764
H  -1.401497   0.899302  -0.999219
H  -0.291177  -1.435873   1.141938
H   0.784185  -0.161471   0.247720
H  -0.062631  -1.300280  -0.702925
