14
butane_opt
C  -3.967536   0.325114  -0.060659
C  -2.693429  -0.647033   0.099459
H  -4.904308  -0.272899   0.418627
H  -3.898046   1.325336  -1.144901
H  -3.967807   0.459208   0.416285
C  -1.360916   0.111614   0.138286
H  -2.695191  -1.389973  -0.783910
H  -2.583324  -1.254837   0.995529
C  -0.211079  -0.660501  -0.056800
H  -1.315540   0.927345   0.989061
H  -1.392304   0.721767  -0.707697
H  -0.140339  -1.078514   0.685908
H   0.814393   0.062029   0.103664
H  -0.186183  -1.506641  -1.038528
