14
butane_opt
C  -3.981998   0.308527   0.116653
C  -2.710402  -0.675723  -0.051286
H  -4.834241  -0.198728   0.255421
H  -4.023097   0.835660  -0.774960
H  -3.976389   0.890827   0.913667
C  -1.385356   0.162088  -0.102933
H  -2.655006  -1.339415  -0.940775
H  -2.672143  -1.216912   0.802968
C  -0.127745  -0.649169   0.099800
H  -1.466190   0.794304   0.747696
H  -1.404854   0.785052  -0.940048
H  -0.410859  -1.326020   1.036603
H   0.820220  -0.084012   0.344541
H   0.037640  -1.348076  -0.732556
