butane_opt
 OpenBabel08242015383D

 14 13  0  0  0  0  0  0  0  0999 V2000
   -3.9445    0.2441   -0.0730 C   0  0  0  0  0  0  0  0  0  0  0  0
   -2.7677   -0.6118    0.1066 C   0  0  0  0  0  0  0  0  0  0  0  0
   -4.8780   -0.4419   -0.1505 H   0  0  0  0  0  0  0  0  0  0  0  0
   -3.8696    0.9682   -0.9908 H   0  0  0  0  0  0  0  0  0  0  0  0
   -3.9663    0.7579    0.6666 H   0  0  0  0  0  0  0  0  0  0  0  0
   -1.4042    0.2797    0.1181 C   0  0  0  0  0  0  0  0  0  0  0  0
   -2.6716   -1.2184   -0.6166 H   0  0  0  0  0  0  0  0  0  0  0  0
   -2.7168   -1.2532    1.0635 H   0  0  0  0  0  0  0  0  0  0  0  0
   -0.1210   -0.7215   -0.0522 C   0  0  0  0  0  0  0  0  0  0  0  0
   -1.1851    1.1237    1.1673 H   0  0  0  0  0  0  0  0  0  0  0  0
   -1.5228    0.5804   -0.5446 H   0  0  0  0  0  0  0  0  0  0  0  0
    0.2199   -1.6611    0.9825 H   0  0  0  0  0  0  0  0  0  0  0  0
    0.6808   -0.2823   -0.4562 H   0  0  0  0  0  0  0  0  0  0  0  0
   -0.2582   -1.3360   -0.8835 H   0  0  0  0  0  0  0  0  0  0  0  0
  1  2  1  0  0  0  0
  1  5  1  0  0  0  0
  2  6  1  0  0  0  0
  2  8  1  0  0  0  0
  3  1  1  0  0  0  0
  4  1  1  0  0  0  0
  6 10  1  0  0  0  0
  7  2  1  0  0  0  0
  9  6  1  0  0  0  0
  9 12  1  0  0  0  0
 11  6  1  0  0  0  0
 13  9  1  0  0  0  0
 14  9  1  0  0  0  0
M  END
$$$$
