butane_opt
 OpenBabel08242015383D

 14 12  0  0  0  0  0  0  0  0999 V2000
   -3.9675    0.3251   -0.0607 C   0  0  0  0  0  0  0  0  0  0  0  0
   -2.6934   -0.6470    0.0995 C   0  0  0  0  0  0  0  0  0  0  0  0
   -4.9043   -0.2729    0.4186 H   0  0  0  0  0  0  0  0  0  0  0  0
   -3.8980    1.3253   -1.1449 H   0  0  0  0  0  0  0  0  0  0  0  0
   -3.9678    0.4592    0.4163 H   0  0  0  0  0  0  0  0  0  0  0  0
   -1.3609    0.1116    0.1383 C   0  0  0  0  0  0  0  0  0  0  0  0
   -2.6952   -1.3900   -0.7839 H   0  0  0  0  0  0  0  0  0  0  0  0
   -2.5833   -1.2548    0.9955 H   0  0  0  0  0  0  0  0  0  0  0  0
   -0.2111   -0.6605   -0.0568 C   0  0  0  0  0  0  0  0  0  0  0  0
   -1.3155    0.9273    0.9891 H   0  0  0  0  0  0  0  0  0  0  0  0
   -1.3923    0.7218   -0.7077 H   0  0  0  0  0  0  0  0  0  0  0  0
   -0.1403   -1.0785    0.6859 H   0  0  0  0  0  0  0  0  0  0  0  0
    0.8144    0.0620    0.1037 H   0  0  0  0  0  0  0  0  0  0  0  0
   -0.1862   -1.5066   -1.0385 H   0  0  0  0  0  0  0  0  0  0  0  0
  1  2  1  0  0  0  0
  1  3  1  0  0  0  0
  2  6  1  0  0  0  0
  2  8  1  0  0  0  0
  4  1  1  0  0  0  0
  6 10  1  0  0  0  0
  7  2  1  0  0  0  0
  9 13  1  0  0  0  0
  9  6  1  0  0  0  0
  9 12  1  0  0  0  0
 11  6  1  0  0  0  0
 14  9  1  0  0  0  0
M  RAD  2   1   2   5   2
M  END
$$$$
