14
butane_opt
C  -3.935186   0.287391  -0.098806
C  -2.700559  -0.606446   0.191328
H  -4.914468  -0.391854  -0.379555
H  -3.493156   0.646886  -0.955466
H  -4.077541   1.012682   0.869394
C  -1.405175   0.163506   0.093535
H  -2.737106  -1.165141  -0.549065
H  -2.684231  -1.350449   1.160344
C  -0.188007  -0.700551  -0.076272
H  -1.319841   1.052161   1.023934
H  -1.471642   0.724450  -0.727582
H   0.004984  -1.220736   0.794545
H   0.696135  -0.122798  -0.187209
H  -0.295956  -1.394402  -0.923122
