butane_opt
 OpenBabel08242015383D

 14 13  0  0  0  0  0  0  0  0999 V2000
   -3.9313    0.2956    0.0767 C   0  0  0  0  0  0  0  0  0  0  0  0
   -2.6792   -0.6573   -0.0353 C   0  0  0  0  0  0  0  0  0  0  0  0
   -4.8396   -0.3695    0.0004 H   0  0  0  0  0  0  0  0  0  0  0  0
   -3.9584    0.8491   -0.6996 H   0  0  0  0  0  0  0  0  0  0  0  0
   -3.9562    0.9857    0.9674 H   0  0  0  0  0  0  0  0  0  0  0  0
   -1.3898    0.1727   -0.0281 C   0  0  0  0  0  0  0  0  0  0  0  0
   -2.7436   -1.4684   -1.0437 H   0  0  0  0  0  0  0  0  0  0  0  0
   -2.5920   -1.1212    0.6787 H   0  0  0  0  0  0  0  0  0  0  0  0
   -0.2073   -0.6840    0.1161 C   0  0  0  0  0  0  0  0  0  0  0  0
   -1.3384    0.9065    0.8373 H   0  0  0  0  0  0  0  0  0  0  0  0
   -1.3706    0.9394   -0.9758 H   0  0  0  0  0  0  0  0  0  0  0  0
   -0.0670   -1.5483    1.1850 H   0  0  0  0  0  0  0  0  0  0  0  0
    0.6616   -0.0900   -0.4261 H   0  0  0  0  0  0  0  0  0  0  0  0
   -0.3271   -1.0928   -0.6080 H   0  0  0  0  0  0  0  0  0  0  0  0
  1  5  1  0  0  0  0
  2  6  1  0  0  0  0
  2  1  1  0  0  0  0
  2  8  1  0  0  0  0
  3  1  1  0  0  0  0
  4  1  1  0  0  0  0
  6  9  1  0  0  0  0
  6 10  1  0  0  0  0
  7  2  1  0  0  0  0
  9 12  1  0  0  0  0
 11  6  1  0  0  0  0
 13  9  1  0  0  0  0
 14  9  1  0  0  0  0
M  END
$$$$
