14
butane_opt
C  -3.948735   0.283037  -0.042368
C  -2.715969  -0.676461   0.057214
H  -4.814113  -0.225372   0.513392
H  -4.268337   1.443480  -1.245601
H  -3.837507   0.641273   0.613737
C  -1.396265   0.181630   0.077694
H  -2.734658  -1.351753  -0.757428
H  -2.599959  -1.389604   0.930245
C  -0.158466  -0.676991  -0.024264
H  -1.329957   1.027489   1.137816
H  -1.455588   0.670017  -0.672077
H  -0.081906  -1.121577   0.741113
H   0.865125   0.009534   0.176167
H  -0.154838  -1.463324  -0.881138
