14
butane_opt
C  -3.978725   0.302447  -0.075076
C  -2.721669  -0.677967   0.135767
H  -4.691088  -0.149739   0.147590
H  -3.851035   1.134931  -1.189922
H  -4.086485   0.649754   0.524037
C  -1.399685   0.190871   0.136671
H  -2.652115  -1.473924  -0.747706
H  -2.809509  -1.208647   1.024297
C  -0.148212  -0.680597  -0.066702
H  -1.144235   1.014623   1.073435
H  -1.360750   0.708226  -0.608242
H   0.032238  -1.260510   0.834488
H   0.821101  -0.096147  -0.240035
H  -0.333906  -1.374109  -0.964812
