butane_opt
 OpenBabel08242015383D

 14 13  0  0  0  0  0  0  0  0999 V2000
   -3.9468    0.2716    0.1049 C   0  0  0  0  0  0  0  0  0  0  0  0
   -2.7187   -0.6587   -0.0279 C   0  0  0  0  0  0  0  0  0  0  0  0
   -4.7396   -0.1831    0.0108 H   0  0  0  0  0  0  0  0  0  0  0  0
   -4.0346    0.6889   -0.6366 H   0  0  0  0  0  0  0  0  0  0  0  0
   -4.1324    1.1654    1.1917 H   0  0  0  0  0  0  0  0  0  0  0  0
   -1.4076    0.1783   -0.1160 C   0  0  0  0  0  0  0  0  0  0  0  0
   -2.7099   -1.3402   -0.9104 H   0  0  0  0  0  0  0  0  0  0  0  0
   -2.5699   -1.1888    0.7640 H   0  0  0  0  0  0  0  0  0  0  0  0
   -0.1339   -0.6511    0.1171 C   0  0  0  0  0  0  0  0  0  0  0  0
   -1.4205    0.6170    0.5988 H   0  0  0  0  0  0  0  0  0  0  0  0
   -1.3555    0.9620   -1.1208 H   0  0  0  0  0  0  0  0  0  0  0  0
   -0.3708   -1.3039    1.0516 H   0  0  0  0  0  0  0  0  0  0  0  0
    0.7494   -0.1422    0.3414 H   0  0  0  0  0  0  0  0  0  0  0  0
    0.0424   -1.4249   -0.7556 H   0  0  0  0  0  0  0  0  0  0  0  0
  1  5  1  0  0  0  0
  2  1  1  0  0  0  0
  2  8  1  0  0  0  0
  3  1  1  0  0  0  0
  4  1  1  0  0  0  0
  6  2  1  0  0  0  0
  6  9  1  0  0  0  0
  6 10  1  0  0  0  0
  7  2  1  0  0  0  0
  9 13  1  0  0  0  0
  9 12  1  0  0  0  0
 11  6  1  0  0  0  0
 14  9  1  0  0  0  0
M  END
$$$$
