14
butane_opt
C  -3.945457   0.282057   0.004043
C  -2.661061  -0.611871   0.032826
H  -4.795103  -0.357327   0.100245
H  -4.042441   1.072578  -1.000253
H  -4.086636   0.708706   0.662853
C  -1.410509   0.156134   0.062951
H  -2.659617  -1.313311  -0.817320
H  -2.616362  -1.387813   0.943028
C  -0.206585  -0.671994  -0.008305
H  -1.176897   1.009165   1.081701
H  -1.336288   0.673630  -0.703464
H  -0.025766  -1.399434   0.983384
H   0.717750  -0.071910  -0.120485
H  -0.311319  -1.243274  -0.792835
