14
butane_opt
C  -3.987499   0.211335  -0.084781
C  -2.719079  -0.561582   0.140082
H  -4.996730  -0.415015  -0.198752
H  -3.707971   0.917844  -1.034607
H  -4.121496   0.855067   0.729176
C  -1.375138   0.216642   0.142183
H  -2.609194  -1.098582  -0.564372
H  -2.866753  -1.192863   1.103459
C  -0.125279  -0.725063  -0.085057
H  -1.379732   1.094636   1.168056
H  -1.507862   0.704884  -0.648151
H   0.086551  -1.483113   0.923427
H   0.707376  -0.260082  -0.418014
H  -0.128135  -1.325068  -0.977318
