14
butane_opt
C  -3.994229   0.285574  -0.074684
C  -2.701874  -0.647414   0.127983
H  -4.805237  -0.265806  -0.123511
H  -3.982609   1.096385  -1.105778
H  -4.141686   0.860379   0.711176
C  -1.396865   0.137380   0.152230
H  -2.761206  -1.281315  -0.736444
H  -2.742108  -1.248195   0.994336
C  -0.097784  -0.662716  -0.074766
H  -1.316158   0.879021   1.095835
H  -1.478946   0.661611  -0.681111
H   0.046582  -1.272743   0.900476
H   0.802888  -0.100983  -0.354753
H  -0.364807  -1.131923  -0.846778
