butane_opt
 OpenBabel08242015383D

 14 13  0  0  0  0  0  0  0  0999 V2000
   -3.8974    0.2289   -0.0820 C   0  0  0  0  0  0  0  0  0  0  0  0
   -2.7126   -0.5484    0.1616 C   0  0  0  0  0  0  0  0  0  0  0  0
   -4.8646   -0.3239   -0.3977 H   0  0  0  0  0  0  0  0  0  0  0  0
   -3.7770    0.5250   -0.8051 H   0  0  0  0  0  0  0  0  0  0  0  0
   -4.2483    1.0103    0.8459 H   0  0  0  0  0  0  0  0  0  0  0  0
   -1.4228    0.1907    0.1059 C   0  0  0  0  0  0  0  0  0  0  0  0
   -2.6225   -1.1026   -0.5485 H   0  0  0  0  0  0  0  0  0  0  0  0
   -2.7207   -1.2887    1.1404 H   0  0  0  0  0  0  0  0  0  0  0  0
   -0.1592   -0.7202   -0.0726 C   0  0  0  0  0  0  0  0  0  0  0  0
   -1.3512    0.8067    0.8865 H   0  0  0  0  0  0  0  0  0  0  0  0
   -1.5992    0.8895   -0.7740 H   0  0  0  0  0  0  0  0  0  0  0  0
   -0.0459   -1.3512    0.7737 H   0  0  0  0  0  0  0  0  0  0  0  0
    0.8001   -0.0853   -0.0200 H   0  0  0  0  0  0  0  0  0  0  0  0
   -0.2656   -1.3885   -0.9809 H   0  0  0  0  0  0  0  0  0  0  0  0
  1  2  1  0  0  0  0
  1  5  1  0  0  0  0
  2  8  1  0  0  0  0
  3  1  1  0  0  0  0
  4  1  1  0  0  0  0
  6  2  1  0  0  0  0
  6 10  1  0  0  0  0
  7  2  1  0  0  0  0
  9 13  1  0  0  0  0
  9  6  1  0  0  0  0
  9 12  1  0  0  0  0
 11  6  1  0  0  0  0
 14  9  1  0  0  0  0
M  END
$$$$
