butane_opt
 OpenBabel08242015383D

 14 13  0  0  0  0  0  0  0  0999 V2000
   -3.9694    0.2629    0.1105 C   0  0  0  0  0  0  0  0  0  0  0  0
   -2.6636   -0.6132   -0.0823 C   0  0  0  0  0  0  0  0  0  0  0  0
   -4.8009   -0.2346    0.2563 H   0  0  0  0  0  0  0  0  0  0  0  0
   -4.1275    0.8387   -0.6475 H   0  0  0  0  0  0  0  0  0  0  0  0
   -3.7560    0.9760    1.0520 H   0  0  0  0  0  0  0  0  0  0  0  0
   -1.4072    0.1403   -0.1214 C   0  0  0  0  0  0  0  0  0  0  0  0
   -2.7209   -1.2626   -0.9577 H   0  0  0  0  0  0  0  0  0  0  0  0
   -2.4814   -1.2116    0.8365 H   0  0  0  0  0  0  0  0  0  0  0  0
   -0.1999   -0.6760    0.1580 C   0  0  0  0  0  0  0  0  0  0  0  0
   -1.5210    0.7666    0.7465 H   0  0  0  0  0  0  0  0  0  0  0  0
   -1.1110    0.8826   -1.0712 H   0  0  0  0  0  0  0  0  0  0  0  0
   -0.3623   -1.1685    1.0034 H   0  0  0  0  0  0  0  0  0  0  0  0
    0.7679   -0.0511    0.1520 H   0  0  0  0  0  0  0  0  0  0  0  0
   -0.0334   -1.3803   -0.7465 H   0  0  0  0  0  0  0  0  0  0  0  0
  1  3  1  0  0  0  0
  1  5  1  0  0  0  0
  2  1  1  0  0  0  0
  2  8  1  0  0  0  0
  4  1  1  0  0  0  0
  6  2  1  0  0  0  0
  6  9  1  0  0  0  0
  6 10  1  0  0  0  0
  7  2  1  0  0  0  0
  9 12  1  0  0  0  0
 11  6  1  0  0  0  0
 13  9  1  0  0  0  0
 14  9  1  0  0  0  0
M  END
$$$$
