14
butane_opt
C  -3.948084   0.224432   0.076168
C  -2.727676  -0.597586  -0.069148
H  -4.803595  -0.293396   0.400518
H  -4.240622   1.085429  -0.913680
H  -3.592781   0.678534   0.888732
C  -1.420915   0.227778  -0.044849
H  -2.767561  -1.280304  -0.959788
H  -2.871957  -1.195135   0.863296
C  -0.120729  -0.713591   0.102724
H  -1.489324   0.999944   0.908109
H  -1.337638   0.854737  -0.879882
H  -0.020232  -1.323028   1.016188
H   0.687864  -0.326579   0.056202
H   0.021754  -1.367006  -0.753713
