14
butane_opt
C  -3.942190   0.264766   0.044669
C  -2.703650  -0.612539   0.021590
H  -4.881930  -0.356744  -0.075053
H  -3.961151   0.802169  -0.808830
H  -3.992308   1.020193   0.965187
C  -1.402207   0.187942  -0.024139
H  -2.810881  -1.298363  -0.832304
H  -2.708587  -1.228640   0.882603
C  -0.149928  -0.700562   0.059617
H  -1.378311   0.892701   0.828816
H  -1.405596   0.823909  -0.938828
H  -0.154490  -1.389724   0.993843
H   0.783362  -0.099726  -0.019250
H  -0.134994  -1.314771  -0.765690
