butane_opt
 OpenBabel08242015383D

 14 11  0  0  0  0  0  0  0  0999 V2000
   -3.9239    0.2390    0.0554 C   0  0  0  0  0  0  0  0  0  0  0  0
   -2.7155   -0.5449    0.0189 C   0  0  0  0  0  0  0  0  0  0  0  0
   -4.9296   -0.4249   -0.3782 H   0  0  0  0  0  0  0  0  0  0  0  0
   -3.5097    0.3923   -0.5616 H   0  0  0  0  0  0  0  0  0  0  0  0
   -3.9127    1.2115    1.0352 H   0  0  0  0  0  0  0  0  0  0  0  0
   -1.4343    0.2097   -0.0408 C   0  0  0  0  0  0  0  0  0  0  0  0
   -2.6741   -1.1533   -0.8054 H   0  0  0  0  0  0  0  0  0  0  0  0
   -2.7280   -1.3427    1.0418 H   0  0  0  0  0  0  0  0  0  0  0  0
   -0.1776   -0.7377    0.0721 C   0  0  0  0  0  0  0  0  0  0  0  0
   -1.4473    0.8217    0.8200 H   0  0  0  0  0  0  0  0  0  0  0  0
   -1.3127    0.9084   -1.0134 H   0  0  0  0  0  0  0  0  0  0  0  0
   -0.0446   -1.4700    1.0209 H   0  0  0  0  0  0  0  0  0  0  0  0
    0.7435   -0.1382   -0.1622 H   0  0  0  0  0  0  0  0  0  0  0  0
   -0.2039   -1.2892   -0.7730 H   0  0  0  0  0  0  0  0  0  0  0  0
  1  5  1  0  0  0  0
  2  8  1  0  0  0  0
  3  1  1  0  0  0  0
  4  1  1  0  0  0  0
  6  9  1  0  0  0  0
  6 10  1  0  0  0  0
  7  2  1  0  0  0  0
  9 12  1  0  0  0  0
 11  6  1  0  0  0  0
 13  9  1  0  0  0  0
 14  9  1  0  0  0  0
M  RAD  3   1   2   2   3   6   2
M  END
$$$$
