14
butane_opt
C  -4.016602   0.283867  -0.105391
C  -2.680906  -0.654666   0.171527
H  -4.895906  -0.235901  -0.310340
H  -3.980862   0.807484  -0.932744
H  -4.236386   1.191866   0.808513
C  -1.370582   0.144692   0.117627
H  -2.400543  -1.159694  -0.583364
H  -2.843131  -1.506781   1.309687
C  -0.134428  -0.637257  -0.082293
H  -1.158038   0.938125   1.020426
H  -1.443475   0.630223  -0.712207
H   0.047550  -1.303725   0.833604
H   0.742017  -0.072437  -0.119390
H  -0.414014  -1.414277  -1.050968
