14
butane_opt
C  -3.961537   0.305678  -0.060899
C  -2.687348  -0.652579   0.069106
H  -4.809581  -0.219469   0.535645
H  -4.295788   1.294409  -1.215401
H  -3.834886   0.529203   0.469391
C  -1.362788   0.160842   0.115364
H  -2.599583  -1.366452  -0.698119
H  -2.852533  -1.420434   1.073175
C  -0.185494  -0.654852  -0.046208
H  -1.281293   1.013059   1.106102
H  -1.328031   0.618576  -0.666461
H  -0.088040  -1.153907   0.688261
H   0.704722  -0.122085   0.165291
H  -0.282808  -1.519239  -0.992585
