butane_opt
 OpenBabel08242015383D

 14 13  0  0  0  0  0  0  0  0999 V2000
   -3.9049    0.2118    0.1078 C   0  0  0  0  0  0  0  0  0  0  0  0
   -2.7180   -0.5426   -0.0488 C   0  0  0  0  0  0  0  0  0  0  0  0
   -4.8995   -0.4099    0.1472 H   0  0  0  0  0  0  0  0  0  0  0  0
   -3.9650    0.7995   -0.7252 H   0  0  0  0  0  0  0  0  0  0  0  0
   -3.7691    0.8764    1.0173 H   0  0  0  0  0  0  0  0  0  0  0  0
   -1.4506    0.2145   -0.0992 C   0  0  0  0  0  0  0  0  0  0  0  0
   -2.6359   -1.3144   -0.9187 H   0  0  0  0  0  0  0  0  0  0  0  0
   -2.6662   -1.1852    0.9036 H   0  0  0  0  0  0  0  0  0  0  0  0
   -0.1381   -0.7288    0.1252 C   0  0  0  0  0  0  0  0  0  0  0  0
   -1.6300    0.8402    0.6154 H   0  0  0  0  0  0  0  0  0  0  0  0
   -1.3456    1.0332   -1.0907 H   0  0  0  0  0  0  0  0  0  0  0  0
   -0.2479   -1.2840    0.9997 H   0  0  0  0  0  0  0  0  0  0  0  0
    0.8417   -0.1260    0.3806 H   0  0  0  0  0  0  0  0  0  0  0  0
   -0.1410   -1.5910   -0.9123 H   0  0  0  0  0  0  0  0  0  0  0  0
  1  3  1  0  0  0  0
  1  5  1  0  0  0  0
  2  1  1  0  0  0  0
  2  8  1  0  0  0  0
  4  1  1  0  0  0  0
  6  2  1  0  0  0  0
  6  9  1  0  0  0  0
  6 10  1  0  0  0  0
  7  2  1  0  0  0  0
  9 13  1  0  0  0  0
  9 12  1  0  0  0  0
 11  6  1  0  0  0  0
 14  9  1  0  0  0  0
M  END
$$$$
