14
butane_opt
C  -3.921174   0.232772   0.088254
C  -2.690369  -0.575742  -0.072754
H  -4.937239  -0.470509  -0.105031
H  -4.021643   0.624467  -0.581558
H  -3.957578   1.113705   1.150341
C  -1.395018   0.240163  -0.027561
H  -2.818610  -1.361102  -1.008822
H  -2.640783  -1.176270   0.816658
C  -0.172739  -0.719671   0.097987
H  -1.581945   0.818658   0.723726
H  -1.359516   0.813305  -0.983696
H  -0.017025  -1.800776   1.297272
H   0.579160  -0.161494  -0.387658
H  -0.087842  -1.014203  -0.469505
