14
butane_opt
C  -3.896797   0.236758   0.067542
C  -2.659973  -0.602120  -0.072589
H  -4.972876  -0.417375   0.071477
H  -4.073228   0.627737  -0.668732
H  -3.801414   1.079322   1.058786
C  -1.445041   0.217544  -0.031122
H  -2.723014  -1.307943  -0.931457
H  -2.748269  -1.128652   0.797090
C  -0.182661  -0.710863   0.107279
H  -1.394088   1.006008   0.896671
H  -1.443922   0.922989  -0.935806
H   0.015226  -1.727245   1.300002
H   0.630745  -0.198682  -0.444243
H  -0.270311  -1.062827  -0.501313
