14
butane_opt
C  -3.966108   0.310593  -0.037436
C  -2.690894  -0.682574   0.077460
H  -4.820345  -0.220218   0.217920
H  -4.192350   1.184320  -1.092698
H  -4.111423   0.706749   0.598076
C  -1.356823   0.181612   0.105585
H  -2.675454  -1.413394  -0.774233
H  -2.848596  -1.378324   1.037611
C  -0.152906  -0.683807  -0.067759
H  -1.265660   1.045418   1.042179
H  -1.414054   0.645322  -0.665684
H  -0.172183  -1.287876   0.861277
H   0.730858  -0.008291   0.053748
H  -0.242541  -1.239154  -0.781838
