butane_opt
 OpenBabel08242015383D

 14 13  0  0  0  0  0  0  0  0999 V2000
   -3.9182    0.2499    0.0427 C   0  0  0  0  0  0  0  0  0  0  0  0
   -2.6852   -0.5532    0.0513 C   0  0  0  0  0  0  0  0  0  0  0  0
   -4.9578   -0.4948   -0.3449 H   0  0  0  0  0  0  0  0  0  0  0  0
   -3.7152    0.4332   -0.5371 H   0  0  0  0  0  0  0  0  0  0  0  0
   -3.9408    1.1730    1.1292 H   0  0  0  0  0  0  0  0  0  0  0  0
   -1.4453    0.1966   -0.0665 C   0  0  0  0  0  0  0  0  0  0  0  0
   -2.8834   -1.3940   -0.9218 H   0  0  0  0  0  0  0  0  0  0  0  0
   -2.6278   -1.2482    0.9044 H   0  0  0  0  0  0  0  0  0  0  0  0
   -0.1551   -0.7179    0.0595 C   0  0  0  0  0  0  0  0  0  0  0  0
   -1.4424    0.8466    0.7225 H   0  0  0  0  0  0  0  0  0  0  0  0
   -1.5644    0.9050   -0.9900 H   0  0  0  0  0  0  0  0  0  0  0  0
   -0.0983   -1.5437    1.0682 H   0  0  0  0  0  0  0  0  0  0  0  0
    0.6924   -0.0781    0.0561 H   0  0  0  0  0  0  0  0  0  0  0  0
   -0.0460   -1.1861   -0.6309 H   0  0  0  0  0  0  0  0  0  0  0  0
  1  2  1  0  0  0  0
  1  5  1  0  0  0  0
  2  8  1  0  0  0  0
  3  1  1  0  0  0  0
  4  1  1  0  0  0  0
  6  2  1  0  0  0  0
  6  9  1  0  0  0  0
  6 10  1  0  0  0  0
  7  2  1  0  0  0  0
  9 12  1  0  0  0  0
 11  6  1  0  0  0  0
 13  9  1  0  0  0  0
 14  9  1  0  0  0  0
M  END
$$$$
