butane_opt
 OpenBabel08242015383D

 14 13  0  0  0  0  0  0  0  0999 V2000
   -3.9717    0.2306   -0.0389 C   0  0  0  0  0  0  0  0  0  0  0  0
   -2.7252   -0.5840    0.1219 C   0  0  0  0  0  0  0  0  0  0  0  0
   -4.8256   -0.3560   -0.4368 H   0  0  0  0  0  0  0  0  0  0  0  0
   -3.8874    0.5542   -0.8128 H   0  0  0  0  0  0  0  0  0  0  0  0
   -4.1293    1.2890    1.0388 H   0  0  0  0  0  0  0  0  0  0  0  0
   -1.4018    0.2068    0.0416 C   0  0  0  0  0  0  0  0  0  0  0  0
   -2.6115   -0.9967   -0.5263 H   0  0  0  0  0  0  0  0  0  0  0  0
   -2.9957   -1.3097    1.0901 H   0  0  0  0  0  0  0  0  0  0  0  0
   -0.1254   -0.7330   -0.0221 C   0  0  0  0  0  0  0  0  0  0  0  0
   -1.3001    0.8673    0.8807 H   0  0  0  0  0  0  0  0  0  0  0  0
   -1.3366    0.8413   -0.7897 H   0  0  0  0  0  0  0  0  0  0  0  0
   -0.0534   -1.3360    0.8608 H   0  0  0  0  0  0  0  0  0  0  0  0
    0.8615   -0.0877   -0.1733 H   0  0  0  0  0  0  0  0  0  0  0  0
   -0.0459   -1.3943   -0.8965 H   0  0  0  0  0  0  0  0  0  0  0  0
  1  2  1  0  0  0  0
  1  5  1  0  0  0  0
  2  8  1  0  0  0  0
  3  1  1  0  0  0  0
  4  1  1  0  0  0  0
  6  2  1  0  0  0  0
  6 10  1  0  0  0  0
  7  2  1  0  0  0  0
  9  6  1  0  0  0  0
  9 12  1  0  0  0  0
 11  6  1  0  0  0  0
 13  9  1  0  0  0  0
 14  9  1  0  0  0  0
M  END
$$$$
