14
butane_opt
C  -3.927054   0.273992   0.059012
C  -2.710324  -0.602581   0.014951
H  -4.820810  -0.260424   0.221568
H  -3.987731   0.878613  -0.868259
H  -3.743213   0.853101   0.937787
C  -1.416565   0.138525  -0.049460
H  -2.626032  -1.341446  -0.785457
H  -2.636548  -1.106663   0.788767
C  -0.183158  -0.681314   0.070110
H  -1.431495   0.675829   0.690816
H  -1.302932   0.926620  -1.090713
H  -0.456878  -0.999910   0.880179
H   0.724409  -0.060189   0.378507
H   0.080925  -1.579582  -0.887392
