butane_opt
 OpenBabel08242015383D

 14 13  0  0  0  0  0  0  0  0999 V2000
   -3.9428    0.2753   -0.0233 C   0  0  0  0  0  0  0  0  0  0  0  0
   -2.6980   -0.6295    0.0747 C   0  0  0  0  0  0  0  0  0  0  0  0
   -4.8242   -0.2845   -0.0406 H   0  0  0  0  0  0  0  0  0  0  0  0
   -3.9479    0.8784   -0.9138 H   0  0  0  0  0  0  0  0  0  0  0  0
   -3.9563    0.9409    0.8725 H   0  0  0  0  0  0  0  0  0  0  0  0
   -1.4075    0.1714    0.0566 C   0  0  0  0  0  0  0  0  0  0  0  0
   -2.6576   -1.2870   -0.7771 H   0  0  0  0  0  0  0  0  0  0  0  0
   -2.6937   -1.2541    0.9654 H   0  0  0  0  0  0  0  0  0  0  0  0
   -0.1677   -0.6821   -0.0006 C   0  0  0  0  0  0  0  0  0  0  0  0
   -1.3553    0.8490    0.9189 H   0  0  0  0  0  0  0  0  0  0  0  0
   -1.4394    0.7895   -0.8204 H   0  0  0  0  0  0  0  0  0  0  0  0
   -0.0958   -1.3524    0.9178 H   0  0  0  0  0  0  0  0  0  0  0  0
    0.7900   -0.0393   -0.1132 H   0  0  0  0  0  0  0  0  0  0  0  0
   -0.2631   -1.3224   -0.8548 H   0  0  0  0  0  0  0  0  0  0  0  0
  1  2  1  0  0  0  0
  1  5  1  0  0  0  0
  2  8  1  0  0  0  0
  3  1  1  0  0  0  0
  4  1  1  0  0  0  0
  6  2  1  0  0  0  0
  6 10  1  0  0  0  0
  7  2  1  0  0  0  0
  9  6  1  0  0  0  0
  9 12  1  0  0  0  0
 11  6  1  0  0  0  0
 13  9  1  0  0  0  0
 14  9  1  0  0  0  0
M  END
$$$$
