14
butane_opt
C  -4.012132   0.300667   0.075339
C  -2.691133  -0.643025  -0.080563
H  -4.939425  -0.331442   0.145889
H  -4.216482   0.780154  -0.737223
H  -3.897754   1.054669   1.097408
C  -1.363838   0.146584  -0.008297
H  -2.609944  -1.524018  -0.960386
H  -2.670166  -1.193186   0.758317
C  -0.128245  -0.665674   0.091193
H  -1.474815   0.835517   0.862864
H  -1.233944   0.906384  -0.996371
H  -0.177925  -1.623063   1.238560
H   0.742936  -0.106341  -0.379316
H  -0.194655  -0.919146  -0.491369
