14
butane_opt
C  -3.987763   0.288469   0.103183
C  -2.711419  -0.633611  -0.099209
H  -4.755799  -0.227186   0.471414
H  -4.176987   1.138390  -0.911300
H  -3.902805   0.892354   0.996433
C  -1.385752   0.124523  -0.081231
H  -2.865789  -1.462112  -1.061983
H  -2.610216  -1.165340   0.727000
C  -0.135157  -0.663669   0.131961
H  -1.243555   0.867448   0.951243
H  -1.338398   0.701644  -0.918113
H  -0.221037  -1.465025   1.131669
H   0.870959   0.055331  -0.010766
H  -0.161703  -1.143596  -0.579895
