14
butane_opt
C  -3.966295   0.266065  -0.049339
C  -2.721895  -0.605175   0.054694
H  -4.952673  -0.392929   0.441364
H  -4.043283   1.169682  -1.089859
H  -3.874816   0.681242   0.672152
C  -1.403838   0.190498   0.093240
H  -2.675647  -1.309918  -0.729829
H  -2.797594  -1.185906   0.961672
C  -0.142313  -0.708256   0.006919
H  -1.187790   0.818256   0.977964
H  -1.381853   0.762078  -0.809426
H   0.102815  -1.097485   0.641232
H   0.751748  -0.149264  -0.019306
H  -0.151461  -1.469572  -0.895635
