butane_opt
 OpenBabel08242015383D

 14 13  0  0  0  0  0  0  0  0999 V2000
   -3.9271    0.2740    0.0590 C   0  0  0  0  0  0  0  0  0  0  0  0
   -2.7103   -0.6026    0.0150 C   0  0  0  0  0  0  0  0  0  0  0  0
   -4.8208   -0.2604    0.2216 H   0  0  0  0  0  0  0  0  0  0  0  0
   -3.9877    0.8786   -0.8683 H   0  0  0  0  0  0  0  0  0  0  0  0
   -3.7432    0.8531    0.9378 H   0  0  0  0  0  0  0  0  0  0  0  0
   -1.4166    0.1385   -0.0495 C   0  0  0  0  0  0  0  0  0  0  0  0
   -2.6260   -1.3414   -0.7855 H   0  0  0  0  0  0  0  0  0  0  0  0
   -2.6365   -1.1067    0.7888 H   0  0  0  0  0  0  0  0  0  0  0  0
   -0.1832   -0.6813    0.0701 C   0  0  0  0  0  0  0  0  0  0  0  0
   -1.4315    0.6758    0.6908 H   0  0  0  0  0  0  0  0  0  0  0  0
   -1.3029    0.9266   -1.0907 H   0  0  0  0  0  0  0  0  0  0  0  0
   -0.4569   -0.9999    0.8802 H   0  0  0  0  0  0  0  0  0  0  0  0
    0.7244   -0.0602    0.3785 H   0  0  0  0  0  0  0  0  0  0  0  0
    0.0809   -1.5796   -0.8874 H   0  0  0  0  0  0  0  0  0  0  0  0
  1  3  1  0  0  0  0
  1  5  1  0  0  0  0
  2  1  1  0  0  0  0
  2  8  1  0  0  0  0
  4  1  1  0  0  0  0
  6  2  1  0  0  0  0
  6  9  1  0  0  0  0
  6 10  1  0  0  0  0
  7  2  1  0  0  0  0
  9 13  1  0  0  0  0
  9 12  1  0  0  0  0
 11  6  1  0  0  0  0
 14  9  1  0  0  0  0
M  END
$$$$
