14
butane_opt
C  -3.907224   0.256660  -0.024306
C  -2.706318  -0.572970   0.041449
H  -4.970807  -0.520759   0.262869
H  -3.944948   1.007976  -0.925843
H  -3.821290   0.589587   0.627681
C  -1.425802   0.202833   0.074759
H  -2.604633  -1.212861  -0.705026
H  -2.734263  -1.310669   1.008682
C  -0.163255  -0.721705  -0.009046
H  -1.486996   1.064691   1.007080
H  -1.457566   0.764209  -0.806940
H  -0.004729  -1.283900   0.868090
H   0.670493  -0.122309   0.031641
H  -0.229048  -1.453383  -0.944766
