butane_opt
 OpenBabel08242015383D

 14 13  0  0  0  0  0  0  0  0999 V2000
   -3.9289    0.2289   -0.0353 C   0  0  0  0  0  0  0  0  0  0  0  0
   -2.6881   -0.5605    0.1458 C   0  0  0  0  0  0  0  0  0  0  0  0
   -5.0098   -0.4095   -0.4812 H   0  0  0  0  0  0  0  0  0  0  0  0
   -3.5978    0.5928   -0.7779 H   0  0  0  0  0  0  0  0  0  0  0  0
   -4.0617    1.1667    1.0601 H   0  0  0  0  0  0  0  0  0  0  0  0
   -1.4397    0.1838    0.0481 C   0  0  0  0  0  0  0  0  0  0  0  0
   -2.6406   -1.2720   -0.6727 H   0  0  0  0  0  0  0  0  0  0  0  0
   -2.8011   -1.1244    1.0242 H   0  0  0  0  0  0  0  0  0  0  0  0
   -0.1575   -0.6984   -0.0417 C   0  0  0  0  0  0  0  0  0  0  0  0
   -1.4395    0.7294    0.7502 H   0  0  0  0  0  0  0  0  0  0  0  0
   -1.4594    0.8989   -0.8755 H   0  0  0  0  0  0  0  0  0  0  0  0
   -0.0081   -1.4241    0.9129 H   0  0  0  0  0  0  0  0  0  0  0  0
    0.6830   -0.1895    0.0085 H   0  0  0  0  0  0  0  0  0  0  0  0
   -0.1143   -1.3147   -0.8693 H   0  0  0  0  0  0  0  0  0  0  0  0
  1  2  1  0  0  0  0
  1  5  1  0  0  0  0
  2  8  1  0  0  0  0
  3  1  1  0  0  0  0
  4  1  1  0  0  0  0
  6  2  1  0  0  0  0
  6 10  1  0  0  0  0
  7  2  1  0  0  0  0
  9 13  1  0  0  0  0
  9  6  1  0  0  0  0
  9 12  1  0  0  0  0
 11  6  1  0  0  0  0
 14  9  1  0  0  0  0
M  END
$$$$
