butane_opt
 OpenBabel08242015383D

 14 12  0  0  0  0  0  0  0  0999 V2000
   -3.9530    0.2095   -0.0072 C   0  0  0  0  0  0  0  0  0  0  0  0
   -2.6890   -0.5974    0.0430 C   0  0  0  0  0  0  0  0  0  0  0  0
   -4.7954   -0.3442    0.3913 H   0  0  0  0  0  0  0  0  0  0  0  0
   -3.9701    1.3556   -1.1846 H   0  0  0  0  0  0  0  0  0  0  0  0
   -3.9840    0.5874    0.6739 H   0  0  0  0  0  0  0  0  0  0  0  0
   -1.4200    0.2336    0.0597 C   0  0  0  0  0  0  0  0  0  0  0  0
   -2.8032   -1.1546   -0.7616 H   0  0  0  0  0  0  0  0  0  0  0  0
   -2.8552   -1.2135    0.9317 H   0  0  0  0  0  0  0  0  0  0  0  0
   -0.1230   -0.7199   -0.0055 C   0  0  0  0  0  0  0  0  0  0  0  0
   -1.4305    1.0155    1.0240 H   0  0  0  0  0  0  0  0  0  0  0  0
   -1.5165    0.6184   -0.6798 H   0  0  0  0  0  0  0  0  0  0  0  0
   -0.1155   -1.1819    0.7984 H   0  0  0  0  0  0  0  0  0  0  0  0
    0.6797   -0.1581    0.0663 H   0  0  0  0  0  0  0  0  0  0  0  0
   -0.0016   -1.5031   -0.9520 H   0  0  0  0  0  0  0  0  0  0  0  0
  1  2  1  0  0  0  0
  1  3  1  0  0  0  0
  1  5  1  0  0  0  0
  2  6  1  0  0  0  0
  2  8  1  0  0  0  0
  6 10  1  0  0  0  0
  7  2  1  0  0  0  0
  9  6  1  0  0  0  0
  9 13  1  0  0  0  0
  9 12  1  0  0  0  0
 11  6  1  0  0  0  0
 14  9  1  0  0  0  0
M  RAD  2   1   2   4   2
M  END
$$$$
