butane_opt
 OpenBabel08242015383D

 14 13  0  0  0  0  0  0  0  0999 V2000
   -3.9465    0.2502    0.0365 C   0  0  0  0  0  0  0  0  0  0  0  0
   -2.6975   -0.5997    0.0269 C   0  0  0  0  0  0  0  0  0  0  0  0
   -4.8872   -0.3483    0.0747 H   0  0  0  0  0  0  0  0  0  0  0  0
   -3.9345    0.8382   -0.8531 H   0  0  0  0  0  0  0  0  0  0  0  0
   -3.9227    0.9575    0.9124 H   0  0  0  0  0  0  0  0  0  0  0  0
   -1.4101    0.1969   -0.0194 C   0  0  0  0  0  0  0  0  0  0  0  0
   -2.7516   -1.3258   -0.8671 H   0  0  0  0  0  0  0  0  0  0  0  0
   -2.6875   -1.1874    0.9108 H   0  0  0  0  0  0  0  0  0  0  0  0
   -0.1548   -0.7101    0.0533 C   0  0  0  0  0  0  0  0  0  0  0  0
   -1.3813    0.8481    0.8184 H   0  0  0  0  0  0  0  0  0  0  0  0
   -1.4080    0.8668   -0.9478 H   0  0  0  0  0  0  0  0  0  0  0  0
   -0.1940   -1.2762    0.9149 H   0  0  0  0  0  0  0  0  0  0  0  0
    0.7376   -0.1184    0.0892 H   0  0  0  0  0  0  0  0  0  0  0  0
   -0.0783   -1.3800   -0.7769 H   0  0  0  0  0  0  0  0  0  0  0  0
  1  3  1  0  0  0  0
  1  5  1  0  0  0  0
  2  1  1  0  0  0  0
  2  8  1  0  0  0  0
  4  1  1  0  0  0  0
  6  2  1  0  0  0  0
  6  9  1  0  0  0  0
  6 10  1  0  0  0  0
  7  2  1  0  0  0  0
  9 13  1  0  0  0  0
  9 12  1  0  0  0  0
 11  6  1  0  0  0  0
 14  9  1  0  0  0  0
M  END
$$$$
