butane_opt
 OpenBabel08242015383D

 14 13  0  0  0  0  0  0  0  0999 V2000
   -3.9242    0.2553    0.0667 C   0  0  0  0  0  0  0  0  0  0  0  0
   -2.7277   -0.6187    0.0627 C   0  0  0  0  0  0  0  0  0  0  0  0
   -4.8439   -0.3562   -0.4663 H   0  0  0  0  0  0  0  0  0  0  0  0
   -3.7310    0.5645   -0.6540 H   0  0  0  0  0  0  0  0  0  0  0  0
   -4.1333    1.1349    1.0011 H   0  0  0  0  0  0  0  0  0  0  0  0
   -1.4151    0.2385   -0.0453 C   0  0  0  0  0  0  0  0  0  0  0  0
   -2.8743   -1.3299   -0.9346 H   0  0  0  0  0  0  0  0  0  0  0  0
   -2.7953   -1.1999    0.9214 H   0  0  0  0  0  0  0  0  0  0  0  0
   -0.1408   -0.7274    0.0617 C   0  0  0  0  0  0  0  0  0  0  0  0
   -1.4828    0.8163    0.7051 H   0  0  0  0  0  0  0  0  0  0  0  0
   -1.3524    1.0142   -1.0297 H   0  0  0  0  0  0  0  0  0  0  0  0
    0.0016   -1.3961    0.9958 H   0  0  0  0  0  0  0  0  0  0  0  0
    0.7118   -0.1584   -0.0530 H   0  0  0  0  0  0  0  0  0  0  0  0
   -0.0358   -1.3584   -0.7708 H   0  0  0  0  0  0  0  0  0  0  0  0
  1  5  1  0  0  0  0
  2  1  1  0  0  0  0
  2  8  1  0  0  0  0
  3  1  1  0  0  0  0
  4  1  1  0  0  0  0
  6  9  1  0  0  0  0
  6  2  1  0  0  0  0
  6 10  1  0  0  0  0
  7  2  1  0  0  0  0
  9 12  1  0  0  0  0
 11  6  1  0  0  0  0
 13  9  1  0  0  0  0
 14  9  1  0  0  0  0
M  END
$$$$
