butane_opt
 OpenBabel08242015383D

 14 13  0  0  0  0  0  0  0  0999 V2000
   -3.9613    0.2289   -0.0303 C   0  0  0  0  0  0  0  0  0  0  0  0
   -2.7046   -0.5975    0.1172 C   0  0  0  0  0  0  0  0  0  0  0  0
   -4.8766   -0.3626   -0.3606 H   0  0  0  0  0  0  0  0  0  0  0  0
   -3.8682    0.6446   -0.8225 H   0  0  0  0  0  0  0  0  0  0  0  0
   -4.1792    1.0857    0.9306 H   0  0  0  0  0  0  0  0  0  0  0  0
   -1.3831    0.2326    0.0283 C   0  0  0  0  0  0  0  0  0  0  0  0
   -2.8314   -1.2183   -0.7452 H   0  0  0  0  0  0  0  0  0  0  0  0
   -2.6694   -1.3400    1.0995 H   0  0  0  0  0  0  0  0  0  0  0  0
   -0.1307   -0.7056   -0.0105 C   0  0  0  0  0  0  0  0  0  0  0  0
   -1.3751    1.0779    0.9648 H   0  0  0  0  0  0  0  0  0  0  0  0
   -1.5288    0.8200   -0.8136 H   0  0  0  0  0  0  0  0  0  0  0  0
   -0.0283   -1.4032    0.8936 H   0  0  0  0  0  0  0  0  0  0  0  0
    0.6021   -0.3106   -0.2165 H   0  0  0  0  0  0  0  0  0  0  0  0
   -0.0759   -1.3941   -0.7452 H   0  0  0  0  0  0  0  0  0  0  0  0
  1  2  1  0  0  0  0
  1  5  1  0  0  0  0
  2  8  1  0  0  0  0
  3  1  1  0  0  0  0
  4  1  1  0  0  0  0
  6  2  1  0  0  0  0
  6 10  1  0  0  0  0
  7  2  1  0  0  0  0
  9  6  1  0  0  0  0
  9 12  1  0  0  0  0
 11  6  1  0  0  0  0
 13  9  1  0  0  0  0
 14  9  1  0  0  0  0
M  END
$$$$
