14
butane_opt
C  -3.877516   0.222917   0.117153
C  -2.746711  -0.552221  -0.089473
H  -4.846781  -0.366019   0.397960
H  -4.123737   0.965700  -0.814804
H  -3.770423   0.735821   0.804596
C  -1.424444   0.212479  -0.071775
H  -2.865688  -1.395179  -0.985857
H  -2.639759  -1.144720   0.764692
C  -0.150888  -0.725467   0.113139
H  -1.406176   0.922663   0.793345
H  -1.491944   0.901424  -0.959712
H  -0.330872  -1.403511   1.106039
H   0.710129  -0.187285   0.155583
H   0.150625  -1.407208  -0.671334
