butane_opt
 OpenBabel08242015383D

 14 13  0  0  0  0  0  0  0  0999 V2000
   -3.9594    0.2500   -0.0873 C   0  0  0  0  0  0  0  0  0  0  0  0
   -2.7242   -0.5837    0.1733 C   0  0  0  0  0  0  0  0  0  0  0  0
   -4.9047   -0.3764   -0.4650 H   0  0  0  0  0  0  0  0  0  0  0  0
   -3.8256    0.5465   -0.8468 H   0  0  0  0  0  0  0  0  0  0  0  0
   -4.2712    1.1459    0.9430 H   0  0  0  0  0  0  0  0  0  0  0  0
   -1.3983    0.1966    0.0737 C   0  0  0  0  0  0  0  0  0  0  0  0
   -2.8151   -1.1822   -0.5956 H   0  0  0  0  0  0  0  0  0  0  0  0
   -2.7767   -1.4079    1.2870 H   0  0  0  0  0  0  0  0  0  0  0  0
   -0.1006   -0.7103   -0.0458 C   0  0  0  0  0  0  0  0  0  0  0  0
   -1.4256    0.9135    0.9576 H   0  0  0  0  0  0  0  0  0  0  0  0
   -1.5477    0.8417   -0.8143 H   0  0  0  0  0  0  0  0  0  0  0  0
    0.0611   -1.1861    0.7388 H   0  0  0  0  0  0  0  0  0  0  0  0
    0.7791   -0.1243   -0.1887 H   0  0  0  0  0  0  0  0  0  0  0  0
   -0.0988   -1.4836   -0.9519 H   0  0  0  0  0  0  0  0  0  0  0  0
  1  2  1  0  0  0  0
  1  5  1  0  0  0  0
  2  8  1  0  0  0  0
  3  1  1  0  0  0  0
  4  1  1  0  0  0  0
  6  2  1  0  0  0  0
  6 10  1  0  0  0  0
  7  2  1  0  0  0  0
  9  6  1  0  0  0  0
  9 12  1  0  0  0  0
 11  6  1  0  0  0  0
 13  9  1  0  0  0  0
 14  9  1  0  0  0  0
M  END
$$$$
