butane_opt
 OpenBabel08242015383D

 14 13  0  0  0  0  0  0  0  0999 V2000
   -3.9516    0.2234    0.1178 C   0  0  0  0  0  0  0  0  0  0  0  0
   -2.6957   -0.5709   -0.0301 C   0  0  0  0  0  0  0  0  0  0  0  0
   -4.9099   -0.3824    0.0764 H   0  0  0  0  0  0  0  0  0  0  0  0
   -4.0233    0.7058   -0.7212 H   0  0  0  0  0  0  0  0  0  0  0  0
   -3.9135    0.9653    1.0826 H   0  0  0  0  0  0  0  0  0  0  0  0
   -1.4233    0.2060   -0.1452 C   0  0  0  0  0  0  0  0  0  0  0  0
   -3.0377   -1.1952   -0.9225 H   0  0  0  0  0  0  0  0  0  0  0  0
   -2.5574   -1.0603    0.6960 H   0  0  0  0  0  0  0  0  0  0  0  0
   -0.1306   -0.7408    0.1319 C   0  0  0  0  0  0  0  0  0  0  0  0
   -1.5349    0.8445    0.6518 H   0  0  0  0  0  0  0  0  0  0  0  0
   -1.3308    0.9591   -1.0620 H   0  0  0  0  0  0  0  0  0  0  0  0
   -0.1642   -1.2327    1.0319 H   0  0  0  0  0  0  0  0  0  0  0  0
    0.7863   -0.0600    0.4128 H   0  0  0  0  0  0  0  0  0  0  0  0
    0.0885   -1.4590   -0.7067 H   0  0  0  0  0  0  0  0  0  0  0  0
  1  5  1  0  0  0  0
  2  1  1  0  0  0  0
  2  8  1  0  0  0  0
  3  1  1  0  0  0  0
  4  1  1  0  0  0  0
  6  2  1  0  0  0  0
  6  9  1  0  0  0  0
  6 10  1  0  0  0  0
  7  2  1  0  0  0  0
  9 13  1  0  0  0  0
  9 12  1  0  0  0  0
 11  6  1  0  0  0  0
 14  9  1  0  0  0  0
M  END
$$$$
