butane_opt
 OpenBabel08242015383D

 14 13  0  0  0  0  0  0  0  0999 V2000
   -3.9758    0.2857    0.0982 C   0  0  0  0  0  0  0  0  0  0  0  0
   -2.6922   -0.6313   -0.0497 C   0  0  0  0  0  0  0  0  0  0  0  0
   -4.9635   -0.3319    0.0549 H   0  0  0  0  0  0  0  0  0  0  0  0
   -4.2205    0.7670   -0.6088 H   0  0  0  0  0  0  0  0  0  0  0  0
   -3.8254    0.9975    1.0372 H   0  0  0  0  0  0  0  0  0  0  0  0
   -1.3646    0.1677   -0.1069 C   0  0  0  0  0  0  0  0  0  0  0  0
   -2.8681   -1.3403   -0.9389 H   0  0  0  0  0  0  0  0  0  0  0  0
   -2.6000   -1.1642    0.8211 H   0  0  0  0  0  0  0  0  0  0  0  0
   -0.1578   -0.6934    0.1158 C   0  0  0  0  0  0  0  0  0  0  0  0
   -1.4041    0.9036    0.8262 H   0  0  0  0  0  0  0  0  0  0  0  0
   -1.2771    0.8719   -1.0898 H   0  0  0  0  0  0  0  0  0  0  0  0
   -0.3318   -1.3779    1.1220 H   0  0  0  0  0  0  0  0  0  0  0  0
    0.7661   -0.1508    0.1724 H   0  0  0  0  0  0  0  0  0  0  0  0
   -0.0041   -1.2154   -0.6527 H   0  0  0  0  0  0  0  0  0  0  0  0
  1  5  1  0  0  0  0
  2  1  1  0  0  0  0
  2  8  1  0  0  0  0
  3  1  1  0  0  0  0
  4  1  1  0  0  0  0
  6  2  1  0  0  0  0
  6  9  1  0  0  0  0
  6 10  1  0  0  0  0
  7  2  1  0  0  0  0
  9 13  1  0  0  0  0
  9 12  1  0  0  0  0
 11  6  1  0  0  0  0
 14  9  1  0  0  0  0
M  END
$$$$
