butane_opt
 OpenBabel08242015383D

 14 13  0  0  0  0  0  0  0  0999 V2000
   -3.9208    0.2669    0.1156 C   0  0  0  0  0  0  0  0  0  0  0  0
   -2.7459   -0.6434   -0.0418 C   0  0  0  0  0  0  0  0  0  0  0  0
   -4.8160   -0.3205   -0.1769 H   0  0  0  0  0  0  0  0  0  0  0  0
   -4.0505    0.6042   -0.5671 H   0  0  0  0  0  0  0  0  0  0  0  0
   -3.9820    1.1974    1.0862 H   0  0  0  0  0  0  0  0  0  0  0  0
   -1.4170    0.2297   -0.0906 C   0  0  0  0  0  0  0  0  0  0  0  0
   -2.7447   -1.3187   -0.8821 H   0  0  0  0  0  0  0  0  0  0  0  0
   -2.8421   -1.1826    0.7748 H   0  0  0  0  0  0  0  0  0  0  0  0
   -0.1214   -0.7232    0.1016 C   0  0  0  0  0  0  0  0  0  0  0  0
   -1.3569    0.8506    0.6439 H   0  0  0  0  0  0  0  0  0  0  0  0
   -1.3135    0.9234   -1.0407 H   0  0  0  0  0  0  0  0  0  0  0  0
   -0.2184   -1.4831    1.0909 H   0  0  0  0  0  0  0  0  0  0  0  0
    0.7640   -0.1999    0.0502 H   0  0  0  0  0  0  0  0  0  0  0  0
    0.0139   -1.1167   -0.5022 H   0  0  0  0  0  0  0  0  0  0  0  0
  1  5  1  0  0  0  0
  2  1  1  0  0  0  0
  2  8  1  0  0  0  0
  3  1  1  0  0  0  0
  4  1  1  0  0  0  0
  6  2  1  0  0  0  0
  6  9  1  0  0  0  0
  6 10  1  0  0  0  0
  7  2  1  0  0  0  0
  9 12  1  0  0  0  0
 11  6  1  0  0  0  0
 13  9  1  0  0  0  0
 14  9  1  0  0  0  0
M  END
$$$$
