14
butane_opt
C  -3.921974   0.269270   0.107340
C  -2.648822  -0.613608  -0.031477
H  -4.861602  -0.306971  -0.026638
H  -4.045204   0.836895  -0.832745
H  -4.124039   1.119449   1.046658
C  -1.423424   0.125259  -0.058697
H  -2.743826  -1.566351  -1.084969
H  -2.637601  -1.021158   0.710243
C  -0.187121  -0.665222   0.102152
H  -1.459062   0.827499   0.752544
H  -1.303758   0.836919  -0.978017
H  -0.163660  -1.589785   1.191489
H   0.878973  -0.006411  -0.198340
H  -0.366139  -0.976151  -0.518400
