butane_opt
 OpenBabel08242015383D

 14 13  0  0  0  0  0  0  0  0999 V2000
   -4.0121    0.3007    0.0753 C   0  0  0  0  0  0  0  0  0  0  0  0
   -2.6911   -0.6430   -0.0806 C   0  0  0  0  0  0  0  0  0  0  0  0
   -4.9394   -0.3314    0.1459 H   0  0  0  0  0  0  0  0  0  0  0  0
   -4.2165    0.7802   -0.7372 H   0  0  0  0  0  0  0  0  0  0  0  0
   -3.8978    1.0547    1.0974 H   0  0  0  0  0  0  0  0  0  0  0  0
   -1.3638    0.1466   -0.0083 C   0  0  0  0  0  0  0  0  0  0  0  0
   -2.6099   -1.5240   -0.9604 H   0  0  0  0  0  0  0  0  0  0  0  0
   -2.6702   -1.1932    0.7583 H   0  0  0  0  0  0  0  0  0  0  0  0
   -0.1282   -0.6657    0.0912 C   0  0  0  0  0  0  0  0  0  0  0  0
   -1.4748    0.8355    0.8629 H   0  0  0  0  0  0  0  0  0  0  0  0
   -1.2339    0.9064   -0.9964 H   0  0  0  0  0  0  0  0  0  0  0  0
   -0.1779   -1.6231    1.2386 H   0  0  0  0  0  0  0  0  0  0  0  0
    0.7429   -0.1063   -0.3793 H   0  0  0  0  0  0  0  0  0  0  0  0
   -0.1947   -0.9191   -0.4914 H   0  0  0  0  0  0  0  0  0  0  0  0
  1  3  1  0  0  0  0
  1  5  1  0  0  0  0
  2  6  1  0  0  0  0
  2  1  1  0  0  0  0
  2  8  1  0  0  0  0
  4  1  1  0  0  0  0
  6  9  1  0  0  0  0
  6 10  1  0  0  0  0
  7  2  1  0  0  0  0
  9 12  1  0  0  0  0
 11  6  1  0  0  0  0
 13  9  1  0  0  0  0
 14  9  1  0  0  0  0
M  END
$$$$
