butane_opt
 OpenBabel08242015383D

 14 12  0  0  0  0  0  0  0  0999 V2000
   -3.9165    0.2242   -0.0719 C   0  0  0  0  0  0  0  0  0  0  0  0
   -2.7101   -0.5502    0.1576 C   0  0  0  0  0  0  0  0  0  0  0  0
   -5.0261   -0.5094    0.0667 H   0  0  0  0  0  0  0  0  0  0  0  0
   -3.8810    0.9649   -1.1059 H   0  0  0  0  0  0  0  0  0  0  0  0
   -3.9754    0.7725    0.6384 H   0  0  0  0  0  0  0  0  0  0  0  0
   -1.4215    0.2135    0.0855 C   0  0  0  0  0  0  0  0  0  0  0  0
   -2.7026   -1.1018   -0.6182 H   0  0  0  0  0  0  0  0  0  0  0  0
   -2.6801   -1.3099    1.1387 H   0  0  0  0  0  0  0  0  0  0  0  0
   -0.1456   -0.7091   -0.0373 C   0  0  0  0  0  0  0  0  0  0  0  0
   -1.4397    0.7953    0.8012 H   0  0  0  0  0  0  0  0  0  0  0  0
   -1.5196    0.7974   -0.7935 H   0  0  0  0  0  0  0  0  0  0  0  0
    0.0182   -0.9612    0.5373 H   0  0  0  0  0  0  0  0  0  0  0  0
    0.6629   -0.1714    0.3338 H   0  0  0  0  0  0  0  0  0  0  0  0
   -0.1241   -1.9246   -1.2142 H   0  0  0  0  0  0  0  0  0  0  0  0
  1  3  1  0  0  0  0
  1  2  1  0  0  0  0
  1  5  1  0  0  0  0
  2  8  1  0  0  0  0
  4  1  1  0  0  0  0
  6  2  1  0  0  0  0
  6 10  1  0  0  0  0
  7  2  1  0  0  0  0
  9  6  1  0  0  0  0
  9 13  1  0  0  0  0
  9 12  1  0  0  0  0
 11  6  1  0  0  0  0
M  RAD  2   9   2  14   2
M  END
$$$$
