14
butane_opt
C  -3.907694   0.233576  -0.091062
C  -2.680861  -0.602727   0.223181
H  -4.876997  -0.400377  -0.503949
H  -3.515795   0.762801  -0.965091
H  -4.229272   1.087676   0.803381
C  -1.425569   0.233625   0.096890
H  -2.597341  -1.272531  -0.534944
H  -2.698307  -1.243889   1.151176
C  -0.212636  -0.719231  -0.100911
H  -1.436468   0.890132   0.954423
H  -1.496061   0.777714  -0.717493
H   0.053227  -1.235817   0.767998
H   0.736977  -0.139152  -0.043891
H  -0.239064  -1.450680  -1.005095
