14
butane_opt
C  -3.944182   0.237567  -0.054151
C  -2.712595  -0.549990   0.088960
H  -4.845164  -0.448966   0.365901
H  -3.835857   1.073377  -1.047218
H  -3.868121   0.481517   0.561911
C  -1.452008   0.191175   0.085522
H  -2.513688  -1.169385  -0.707108
H  -2.759596  -1.279036   1.059520
C  -0.134107  -0.700912  -0.056956
H  -1.223034   1.062719   1.063045
H  -1.519183   0.664792  -0.613016
H  -0.201095  -1.251719   0.808442
H   0.669697  -0.222276   0.166639
H  -0.003038  -1.535360  -1.000252
