butane_opt
 OpenBabel08242015383D

 14 13  0  0  0  0  0  0  0  0999 V2000
   -3.9622    0.2440   -0.0912 C   0  0  0  0  0  0  0  0  0  0  0  0
   -2.7385   -0.5933    0.1400 C   0  0  0  0  0  0  0  0  0  0  0  0
   -4.8803   -0.4017   -0.1254 H   0  0  0  0  0  0  0  0  0  0  0  0
   -3.8939    0.9502   -1.0520 H   0  0  0  0  0  0  0  0  0  0  0  0
   -4.0439    0.9193    0.7121 H   0  0  0  0  0  0  0  0  0  0  0  0
   -1.3849    0.2225    0.1353 C   0  0  0  0  0  0  0  0  0  0  0  0
   -2.5612   -1.3105   -0.6837 H   0  0  0  0  0  0  0  0  0  0  0  0
   -2.8909   -1.2726    1.1594 H   0  0  0  0  0  0  0  0  0  0  0  0
   -0.1316   -0.7329   -0.0907 C   0  0  0  0  0  0  0  0  0  0  0  0
   -1.3012    1.1380    1.1272 H   0  0  0  0  0  0  0  0  0  0  0  0
   -1.4862    0.6864   -0.5785 H   0  0  0  0  0  0  0  0  0  0  0  0
    0.1495   -1.5160    0.9160 H   0  0  0  0  0  0  0  0  0  0  0  0
    0.8784   -0.1117   -0.3478 H   0  0  0  0  0  0  0  0  0  0  0  0
   -0.3682   -1.2296   -0.7870 H   0  0  0  0  0  0  0  0  0  0  0  0
  1  2  1  0  0  0  0
  1  5  1  0  0  0  0
  2  8  1  0  0  0  0
  3  1  1  0  0  0  0
  4  1  1  0  0  0  0
  6  2  1  0  0  0  0
  6 10  1  0  0  0  0
  7  2  1  0  0  0  0
  9  6  1  0  0  0  0
  9 12  1  0  0  0  0
 11  6  1  0  0  0  0
 13  9  1  0  0  0  0
 14  9  1  0  0  0  0
M  END
$$$$
