14
butane_opt
C  -3.939722   0.268169  -0.006067
C  -2.688002  -0.624196   0.047814
H  -4.821519  -0.309611   0.129882
H  -4.026012   0.977553  -0.972410
H  -3.965436   0.832356   0.796479
C  -1.408629   0.185433   0.044795
H  -2.737611  -1.248206  -0.751312
H  -2.699421  -1.286511   0.974026
C  -0.170571  -0.688571   0.013329
H  -1.405321   0.864154   0.912368
H  -1.390661   0.763463  -0.824340
H  -0.143181  -1.242423   0.858018
H   0.778305  -0.060051   0.011807
H  -0.137050  -1.440064  -0.920326
