14
butane_opt
C  -3.973518   0.242029  -0.079348
C  -2.730646  -0.570015   0.179997
H  -4.929243  -0.428520  -0.240182
H  -3.746693   0.748389  -1.043067
H  -4.145093   0.860192   0.740360
C  -1.409367   0.216112   0.070684
H  -2.635379  -1.089810  -0.523160
H  -2.703338  -1.396018   1.117027
C  -0.131951  -0.708232  -0.058553
H  -1.277713   1.054288   1.072598
H  -1.552594   0.620540  -0.660210
H   0.069852  -1.220680   0.765521
H   0.756489  -0.149615  -0.091989
H   0.068962  -1.628507  -1.073071
