14
butane_opt
C  -3.960814   0.290316   0.121340
C  -2.659132  -0.634276  -0.036619
H  -4.816607  -0.249964  -0.015537
H  -3.977925   0.810724  -0.707071
H  -4.099196   1.063331   1.011809
C  -1.410418   0.142823  -0.129026
H  -2.842941  -1.246068  -0.844282
H  -2.523292  -1.384231   0.935203
C  -0.186563  -0.679667   0.109793
H  -1.328967   0.808421   0.717474
H  -1.349842   0.744859  -1.100980
H  -0.427435  -1.191616   0.973579
H   0.922542   0.214521   0.534892
H  -0.004228  -1.452782  -0.842089
