14
butane_opt
C  -3.897614   0.252239   0.056261
C  -2.712630  -0.569818   0.019974
H  -4.917464  -0.591871  -0.116193
H  -3.909335   0.775912  -0.813216
H  -3.828558   0.982116   0.900446
C  -1.431774   0.231181  -0.000593
H  -2.815818  -1.419473  -1.034701
H  -2.795946  -0.977525   0.735587
C  -0.157285  -0.737277   0.066874
H  -1.319754   0.780243   0.758164
H  -1.558879   0.762095  -0.885323
H  -0.032975  -1.639490   1.161992
H   0.782991  -0.115950  -0.323211
H  -0.222401  -1.138953  -0.607643
