butane_opt
 OpenBabel08242015383D

 14 13  0  0  0  0  0  0  0  0999 V2000
   -4.0026    0.2619    0.1132 C   0  0  0  0  0  0  0  0  0  0  0  0
   -2.7006   -0.6263   -0.0751 C   0  0  0  0  0  0  0  0  0  0  0  0
   -4.7800   -0.2170    0.1704 H   0  0  0  0  0  0  0  0  0  0  0  0
   -4.1231    0.7405   -0.6471 H   0  0  0  0  0  0  0  0  0  0  0  0
   -3.8078    1.0721    1.0477 H   0  0  0  0  0  0  0  0  0  0  0  0
   -1.3963    0.1870   -0.1074 C   0  0  0  0  0  0  0  0  0  0  0  0
   -2.8472   -1.2488   -0.9193 H   0  0  0  0  0  0  0  0  0  0  0  0
   -2.5472   -1.2090    0.8712 H   0  0  0  0  0  0  0  0  0  0  0  0
   -0.1286   -0.6976    0.1283 C   0  0  0  0  0  0  0  0  0  0  0  0
   -1.4363    0.6776    0.5970 H   0  0  0  0  0  0  0  0  0  0  0  0
   -1.2947    0.9063   -1.0767 H   0  0  0  0  0  0  0  0  0  0  0  0
   -0.4233   -1.2171    1.0354 H   0  0  0  0  0  0  0  0  0  0  0  0
    0.9301   -0.0194    0.3325 H   0  0  0  0  0  0  0  0  0  0  0  0
    0.0324   -1.4424   -0.6899 H   0  0  0  0  0  0  0  0  0  0  0  0
  1  3  1  0  0  0  0
  1  5  1  0  0  0  0
  2  1  1  0  0  0  0
  2  8  1  0  0  0  0
  4  1  1  0  0  0  0
  6  2  1  0  0  0  0
  6  9  1  0  0  0  0
  6 10  1  0  0  0  0
  7  2  1  0  0  0  0
  9 13  1  0  0  0  0
  9 12  1  0  0  0  0
 11  6  1  0  0  0  0
 14  9  1  0  0  0  0
M  END
$$$$
