14
butane_opt
C  -3.918241   0.249900   0.042736
C  -2.685209  -0.553183   0.051342
H  -4.957843  -0.494835  -0.344899
H  -3.715232   0.433182  -0.537067
H  -3.940797   1.172998   1.129232
C  -1.445289   0.196582  -0.066529
H  -2.883450  -1.394038  -0.921796
H  -2.627801  -1.248231   0.904425
C  -0.155143  -0.717923   0.059520
H  -1.442380   0.846590   0.722501
H  -1.564388   0.904951  -0.990017
H  -0.098312  -1.543701   1.068161
H   0.692418  -0.078075   0.056104
H  -0.046007  -1.186111  -0.630937
