14
butane_opt
C  -3.999032   0.303200   0.098306
C  -2.715810  -0.657610  -0.016086
H  -4.833677  -0.230256  -0.286922
H  -3.880572   0.564764  -0.608359
H  -4.201129   1.273019   1.252556
C  -1.369643   0.143515  -0.109044
H  -2.772220  -1.344517  -0.922437
H  -2.604195  -1.316923   0.936296
C  -0.110725  -0.667153   0.102327
H  -1.331348   0.752114   0.735267
H  -1.492231   0.937672  -1.073561
H  -0.351381  -1.349618   1.077371
H   0.842115  -0.029768   0.122527
H  -0.063741  -1.184757  -0.646301
