butane_opt
 OpenBabel08242015383D

 14 13  0  0  0  0  0  0  0  0999 V2000
   -3.8972    0.2456    0.0758 C   0  0  0  0  0  0  0  0  0  0  0  0
   -2.6856   -0.5992   -0.0197 C   0  0  0  0  0  0  0  0  0  0  0  0
   -4.8809   -0.4610    0.0294 H   0  0  0  0  0  0  0  0  0  0  0  0
   -4.0912    0.8281   -0.6691 H   0  0  0  0  0  0  0  0  0  0  0  0
   -3.8425    0.9554    1.0010 H   0  0  0  0  0  0  0  0  0  0  0  0
   -1.4368    0.2167   -0.0797 C   0  0  0  0  0  0  0  0  0  0  0  0
   -2.6400   -1.2771   -0.8682 H   0  0  0  0  0  0  0  0  0  0  0  0
   -2.5794   -1.2823    0.9399 H   0  0  0  0  0  0  0  0  0  0  0  0
   -0.1832   -0.7276    0.0959 C   0  0  0  0  0  0  0  0  0  0  0  0
   -1.5721    0.9037    0.7682 H   0  0  0  0  0  0  0  0  0  0  0  0
   -1.2824    0.8555   -1.0453 H   0  0  0  0  0  0  0  0  0  0  0  0
   -0.2801   -1.1844    0.9515 H   0  0  0  0  0  0  0  0  0  0  0  0
    0.6925   -0.1053    0.2092 H   0  0  0  0  0  0  0  0  0  0  0  0
   -0.0762   -1.3610   -0.7664 H   0  0  0  0  0  0  0  0  0  0  0  0
  1  5  1  0  0  0  0
  2  1  1  0  0  0  0
  2  8  1  0  0  0  0
  3  1  1  0  0  0  0
  4  1  1  0  0  0  0
  6  2  1  0  0  0  0
  6  9  1  0  0  0  0
  6 10  1  0  0  0  0
  7  2  1  0  0  0  0
  9 13  1  0  0  0  0
  9 12  1  0  0  0  0
 11  6  1  0  0  0  0
 14  9  1  0  0  0  0
M  END
$$$$
