butane_opt
 OpenBabel08242015383D

 14 12  0  0  0  0  0  0  0  0999 V2000
   -3.9650    0.2515    0.0412 C   0  0  0  0  0  0  0  0  0  0  0  0
   -2.7179   -0.5975    0.0082 C   0  0  0  0  0  0  0  0  0  0  0  0
   -4.9627   -0.4750   -0.0935 H   0  0  0  0  0  0  0  0  0  0  0  0
   -3.9682    0.8020   -0.8055 H   0  0  0  0  0  0  0  0  0  0  0  0
   -3.8821    1.0100    0.8816 H   0  0  0  0  0  0  0  0  0  0  0  0
   -1.3866    0.2245    0.0317 C   0  0  0  0  0  0  0  0  0  0  0  0
   -2.8439   -1.3875   -0.9716 H   0  0  0  0  0  0  0  0  0  0  0  0
   -2.7615   -1.0586    0.7795 H   0  0  0  0  0  0  0  0  0  0  0  0
   -0.1502   -0.7235    0.0327 C   0  0  0  0  0  0  0  0  0  0  0  0
   -1.3199    0.8658    0.9534 H   0  0  0  0  0  0  0  0  0  0  0  0
   -1.3941    0.9187   -0.9061 H   0  0  0  0  0  0  0  0  0  0  0  0
    0.0894   -1.7552    1.1838 H   0  0  0  0  0  0  0  0  0  0  0  0
    0.7577   -0.1796   -0.3292 H   0  0  0  0  0  0  0  0  0  0  0  0
   -0.1057   -1.0764   -0.5820 H   0  0  0  0  0  0  0  0  0  0  0  0
  1  5  1  0  0  0  0
  2  6  1  0  0  0  0
  2  1  1  0  0  0  0
  2  8  1  0  0  0  0
  3  1  1  0  0  0  0
  4  1  1  0  0  0  0
  6  9  1  0  0  0  0
  6 10  1  0  0  0  0
  7  2  1  0  0  0  0
 11  6  1  0  0  0  0
 13  9  1  0  0  0  0
 14  9  1  0  0  0  0
M  RAD  2   9   2  12   2
M  END
$$$$
