butane_opt
 OpenBabel08242015383D

 14 13  0  0  0  0  0  0  0  0999 V2000
   -4.0140    0.3089    0.0173 C   0  0  0  0  0  0  0  0  0  0  0  0
   -2.6817   -0.6690    0.0608 C   0  0  0  0  0  0  0  0  0  0  0  0
   -5.0148   -0.3288    0.1697 H   0  0  0  0  0  0  0  0  0  0  0  0
   -4.0224    1.0991   -0.9794 H   0  0  0  0  0  0  0  0  0  0  0  0
   -3.9712    0.8882    0.7953 H   0  0  0  0  0  0  0  0  0  0  0  0
   -1.3718    0.1514   -0.0251 C   0  0  0  0  0  0  0  0  0  0  0  0
   -2.7225   -1.3318   -0.7717 H   0  0  0  0  0  0  0  0  0  0  0  0
   -2.6367   -1.3687    0.9902 H   0  0  0  0  0  0  0  0  0  0  0  0
   -0.1476   -0.6562    0.0367 C   0  0  0  0  0  0  0  0  0  0  0  0
   -1.4512    0.9258    0.9643 H   0  0  0  0  0  0  0  0  0  0  0  0
   -1.3033    0.6392   -0.8741 H   0  0  0  0  0  0  0  0  0  0  0  0
   -0.2605   -1.1027    0.7332 H   0  0  0  0  0  0  0  0  0  0  0  0
    0.8013    0.0340    0.2290 H   0  0  0  0  0  0  0  0  0  0  0  0
    0.1056   -1.5289   -0.9479 H   0  0  0  0  0  0  0  0  0  0  0  0
  1  2  1  0  0  0  0
  1  3  1  0  0  0  0
  1  5  1  0  0  0  0
  2  8  1  0  0  0  0
  4  1  1  0  0  0  0
  6  9  1  0  0  0  0
  6  2  1  0  0  0  0
  6 10  1  0  0  0  0
  7  2  1  0  0  0  0
  9 13  1  0  0  0  0
  9 12  1  0  0  0  0
 11  6  1  0  0  0  0
 14  9  1  0  0  0  0
M  END
$$$$
