14
butane_opt
C  -3.919601   0.221551  -0.050496
C  -2.723512  -0.553350   0.084918
H  -4.764191  -0.301711   0.456246
H  -3.927191   1.338727  -1.231307
H  -3.794521   0.479624   0.517746
C  -1.416662   0.193719   0.075178
H  -2.721752  -1.211826  -0.813267
H  -2.712363  -1.349039   1.111687
C  -0.160877  -0.722469  -0.035599
H  -1.375270   1.131630   1.117993
H  -1.518498   0.533036  -0.567906
H  -0.064837  -1.093850   0.720946
H   0.743884  -0.110498   0.157256
H  -0.234342  -1.545693  -0.975133
