14
butane_opt
C  -3.975690   0.299963  -0.095399
C  -2.673962  -0.666453   0.166773
H  -4.879192  -0.311805  -0.010757
H  -3.923845   1.064466  -1.108498
H  -4.148098   0.769282   0.604825
C  -1.377635   0.179866   0.157455
H  -2.638569  -1.407831  -0.810142
H  -2.806950  -1.230715   1.027446
C  -0.173919  -0.674616  -0.091543
H  -1.312233   0.992498   1.125542
H  -1.417942   0.729479  -0.663510
H  -0.002675  -1.395624   0.888947
H   0.741419   0.041066  -0.367551
H  -0.238437  -1.379381  -0.915857
