14
butane_opt
C  -4.002581   0.261874   0.113234
C  -2.700594  -0.626334  -0.075129
H  -4.779961  -0.216980   0.170431
H  -4.123050   0.740488  -0.647068
H  -3.807830   1.072135   1.047710
C  -1.396314   0.186996  -0.107391
H  -2.847172  -1.248844  -0.919315
H  -2.547199  -1.208968   0.871227
C  -0.128571  -0.697623   0.128304
H  -1.436274   0.677579   0.596962
H  -1.294719   0.906339  -1.076719
H  -0.423260  -1.217080   1.035420
H   0.930129  -0.019418   0.332530
H   0.032436  -1.442424  -0.689941
