butane_opt
 OpenBabel08242015383D

 14 13  0  0  0  0  0  0  0  0999 V2000
   -4.0148    0.2403   -0.0478 C   0  0  0  0  0  0  0  0  0  0  0  0
   -2.6921   -0.6093    0.0904 C   0  0  0  0  0  0  0  0  0  0  0  0
   -4.9889   -0.4237    0.2333 H   0  0  0  0  0  0  0  0  0  0  0  0
   -3.9881    1.0466   -1.0677 H   0  0  0  0  0  0  0  0  0  0  0  0
   -3.8284    0.7335    0.6547 H   0  0  0  0  0  0  0  0  0  0  0  0
   -1.3934    0.2197    0.0746 C   0  0  0  0  0  0  0  0  0  0  0  0
   -2.6694   -1.1304   -0.6582 H   0  0  0  0  0  0  0  0  0  0  0  0
   -2.7918   -1.1878    0.9492 H   0  0  0  0  0  0  0  0  0  0  0  0
   -0.1197   -0.7154   -0.0302 C   0  0  0  0  0  0  0  0  0  0  0  0
   -1.2456    1.0929    0.9907 H   0  0  0  0  0  0  0  0  0  0  0  0
   -1.5632    0.7203   -0.6878 H   0  0  0  0  0  0  0  0  0  0  0  0
   -0.0090   -1.2945    0.8153 H   0  0  0  0  0  0  0  0  0  0  0  0
    0.7796   -0.1864    0.0740 H   0  0  0  0  0  0  0  0  0  0  0  0
   -0.0726   -1.4875   -0.9149 H   0  0  0  0  0  0  0  0  0  0  0  0
  1  2  1  0  0  0  0
  1  3  1  0  0  0  0
  1  5  1  0  0  0  0
  2  8  1  0  0  0  0
  4  1  1  0  0  0  0
  6  2  1  0  0  0  0
  6 10  1  0  0  0  0
  7  2  1  0  0  0  0
  9 13  1  0  0  0  0
  9  6  1  0  0  0  0
  9 12  1  0  0  0  0
 11  6  1  0  0  0  0
 14  9  1  0  0  0  0
M  END
$$$$
