butane_opt
 OpenBabel08242015383D

 14 13  0  0  0  0  0  0  0  0999 V2000
   -3.9077    0.2336   -0.0911 C   0  0  0  0  0  0  0  0  0  0  0  0
   -2.6809   -0.6027    0.2232 C   0  0  0  0  0  0  0  0  0  0  0  0
   -4.8770   -0.4004   -0.5039 H   0  0  0  0  0  0  0  0  0  0  0  0
   -3.5158    0.7628   -0.9651 H   0  0  0  0  0  0  0  0  0  0  0  0
   -4.2293    1.0877    0.8034 H   0  0  0  0  0  0  0  0  0  0  0  0
   -1.4256    0.2336    0.0969 C   0  0  0  0  0  0  0  0  0  0  0  0
   -2.5973   -1.2725   -0.5349 H   0  0  0  0  0  0  0  0  0  0  0  0
   -2.6983   -1.2439    1.1512 H   0  0  0  0  0  0  0  0  0  0  0  0
   -0.2126   -0.7192   -0.1009 C   0  0  0  0  0  0  0  0  0  0  0  0
   -1.4365    0.8901    0.9544 H   0  0  0  0  0  0  0  0  0  0  0  0
   -1.4961    0.7777   -0.7175 H   0  0  0  0  0  0  0  0  0  0  0  0
    0.0532   -1.2358    0.7680 H   0  0  0  0  0  0  0  0  0  0  0  0
    0.7370   -0.1392   -0.0439 H   0  0  0  0  0  0  0  0  0  0  0  0
   -0.2391   -1.4507   -1.0051 H   0  0  0  0  0  0  0  0  0  0  0  0
  1  2  1  0  0  0  0
  1  5  1  0  0  0  0
  2  8  1  0  0  0  0
  3  1  1  0  0  0  0
  4  1  1  0  0  0  0
  6  2  1  0  0  0  0
  6 10  1  0  0  0  0
  7  2  1  0  0  0  0
  9 13  1  0  0  0  0
  9  6  1  0  0  0  0
  9 12  1  0  0  0  0
 11  6  1  0  0  0  0
 14  9  1  0  0  0  0
M  END
$$$$
