butane_opt
 OpenBabel08242015383D

 14 13  0  0  0  0  0  0  0  0999 V2000
   -3.9429    0.2507   -0.0620 C   0  0  0  0  0  0  0  0  0  0  0  0
   -2.7168   -0.5846    0.1010 C   0  0  0  0  0  0  0  0  0  0  0  0
   -4.8547   -0.3633   -0.0544 H   0  0  0  0  0  0  0  0  0  0  0  0
   -3.8194    0.8310   -0.8990 H   0  0  0  0  0  0  0  0  0  0  0  0
   -3.7874    0.9343    0.8642 H   0  0  0  0  0  0  0  0  0  0  0  0
   -1.4224    0.1764    0.0851 C   0  0  0  0  0  0  0  0  0  0  0  0
   -2.4983   -1.1848   -0.6198 H   0  0  0  0  0  0  0  0  0  0  0  0
   -2.7291   -1.4009    1.1239 H   0  0  0  0  0  0  0  0  0  0  0  0
   -0.1696   -0.7056   -0.0389 C   0  0  0  0  0  0  0  0  0  0  0  0
   -1.4191    0.9179    1.0330 H   0  0  0  0  0  0  0  0  0  0  0  0
   -1.3908    0.8858   -0.8239 H   0  0  0  0  0  0  0  0  0  0  0  0
   -0.1568   -1.2100    0.8281 H   0  0  0  0  0  0  0  0  0  0  0  0
    0.7108   -0.1332   -0.0519 H   0  0  0  0  0  0  0  0  0  0  0  0
   -0.0744   -1.4003   -1.0076 H   0  0  0  0  0  0  0  0  0  0  0  0
  1  3  1  0  0  0  0
  1  2  1  0  0  0  0
  1  5  1  0  0  0  0
  2  8  1  0  0  0  0
  4  1  1  0  0  0  0
  6  2  1  0  0  0  0
  6 10  1  0  0  0  0
  7  2  1  0  0  0  0
  9  6  1  0  0  0  0
  9 12  1  0  0  0  0
 11  6  1  0  0  0  0
 13  9  1  0  0  0  0
 14  9  1  0  0  0  0
M  END
$$$$
