14
butane_opt
C  -3.928905   0.228863  -0.035304
C  -2.688062  -0.560493   0.145762
H  -5.009820  -0.409463  -0.481221
H  -3.597760   0.592816  -0.777890
H  -4.061704   1.166668   1.060091
C  -1.439652   0.183758   0.048056
H  -2.640567  -1.271995  -0.672652
H  -2.801066  -1.124413   1.024154
C  -0.157474  -0.698395  -0.041683
H  -1.439527   0.729357   0.750240
H  -1.459355   0.898852  -0.875460
H  -0.008106  -1.424080   0.912934
H   0.683019  -0.189466   0.008509
H  -0.114330  -1.314685  -0.869278
