14
butane_opt
C  -3.919834   0.260361  -0.000328
C  -2.717958  -0.586274   0.043741
H  -4.927838  -0.449856   0.437658
H  -4.123307   1.172357  -1.104376
H  -3.621143   0.599789   0.659630
C  -1.411169   0.172797   0.059215
H  -2.638213  -1.370842  -0.905271
H  -2.777000  -1.081122   0.756934
C  -0.155499  -0.694477   0.014928
H  -1.500926   0.921854   0.931808
H  -1.394108   0.872291  -0.840847
H  -0.153296  -1.326440   0.960299
H   0.777903  -0.168379   0.065337
H  -0.211713  -1.479501  -0.965890
