butane_opt
 OpenBabel08242015383D

 14 12  0  0  0  0  0  0  0  0999 V2000
   -3.9248    0.2930   -0.0338 C   0  0  0  0  0  0  0  0  0  0  0  0
   -2.6809   -0.6468    0.1074 C   0  0  0  0  0  0  0  0  0  0  0  0
   -4.8385   -0.2580   -0.0078 H   0  0  0  0  0  0  0  0  0  0  0  0
   -4.0248    1.0252   -0.9167 H   0  0  0  0  0  0  0  0  0  0  0  0
   -3.9001    0.7857    0.7271 H   0  0  0  0  0  0  0  0  0  0  0  0
   -1.3623    0.1849    0.0073 C   0  0  0  0  0  0  0  0  0  0  0  0
   -2.6332   -1.1829   -0.6444 H   0  0  0  0  0  0  0  0  0  0  0  0
   -2.7103   -1.5278    1.2082 H   0  0  0  0  0  0  0  0  0  0  0  0
   -0.2166   -0.6815    0.0011 C   0  0  0  0  0  0  0  0  0  0  0  0
   -1.3541    0.8868    0.9821 H   0  0  0  0  0  0  0  0  0  0  0  0
   -1.4536    0.7164   -0.7905 H   0  0  0  0  0  0  0  0  0  0  0  0
   -0.3349   -0.8834    0.6475 H   0  0  0  0  0  0  0  0  0  0  0  0
    0.6577   -0.1250    0.3556 H   0  0  0  0  0  0  0  0  0  0  0  0
   -0.2104   -1.7141   -1.1732 H   0  0  0  0  0  0  0  0  0  0  0  0
  1  3  1  0  0  0  0
  1  2  1  0  0  0  0
  1  5  1  0  0  0  0
  2  8  1  0  0  0  0
  4  1  1  0  0  0  0
  6  2  1  0  0  0  0
  6 10  1  0  0  0  0
  7  2  1  0  0  0  0
  9  6  1  0  0  0  0
  9 13  1  0  0  0  0
  9 12  1  0  0  0  0
 11  6  1  0  0  0  0
M  RAD  2   9   2  14   2
M  END
$$$$
