butane_opt
 OpenBabel08242015383D

 14 12  0  0  0  0  0  0  0  0999 V2000
   -3.9212    0.2328    0.0883 C   0  0  0  0  0  0  0  0  0  0  0  0
   -2.6904   -0.5757   -0.0728 C   0  0  0  0  0  0  0  0  0  0  0  0
   -4.9372   -0.4705   -0.1050 H   0  0  0  0  0  0  0  0  0  0  0  0
   -4.0216    0.6245   -0.5816 H   0  0  0  0  0  0  0  0  0  0  0  0
   -3.9576    1.1137    1.1503 H   0  0  0  0  0  0  0  0  0  0  0  0
   -1.3950    0.2402   -0.0276 C   0  0  0  0  0  0  0  0  0  0  0  0
   -2.8186   -1.3611   -1.0088 H   0  0  0  0  0  0  0  0  0  0  0  0
   -2.6408   -1.1763    0.8167 H   0  0  0  0  0  0  0  0  0  0  0  0
   -0.1727   -0.7197    0.0980 C   0  0  0  0  0  0  0  0  0  0  0  0
   -1.5819    0.8187    0.7237 H   0  0  0  0  0  0  0  0  0  0  0  0
   -1.3595    0.8133   -0.9837 H   0  0  0  0  0  0  0  0  0  0  0  0
   -0.0170   -1.8008    1.2973 H   0  0  0  0  0  0  0  0  0  0  0  0
    0.5792   -0.1615   -0.3877 H   0  0  0  0  0  0  0  0  0  0  0  0
   -0.0878   -1.0142   -0.4695 H   0  0  0  0  0  0  0  0  0  0  0  0
  1  5  1  0  0  0  0
  2  6  1  0  0  0  0
  2  1  1  0  0  0  0
  2  8  1  0  0  0  0
  3  1  1  0  0  0  0
  4  1  1  0  0  0  0
  6  9  1  0  0  0  0
  6 10  1  0  0  0  0
  7  2  1  0  0  0  0
 11  6  1  0  0  0  0
 13  9  1  0  0  0  0
 14  9  1  0  0  0  0
M  RAD  2   9   2  12   2
M  END
$$$$
