14
butane_opt
C  -4.002972   0.295448   0.037300
C  -2.689722  -0.645008   0.053701
H  -4.903505  -0.343651   0.066211
H  -4.007609   0.867995  -0.824202
H  -3.990903   1.025913   1.047192
C  -1.399820   0.168859  -0.060638
H  -2.711255  -1.520684  -0.933265
H  -2.699741  -1.194328   0.903956
C  -0.122711  -0.664884   0.066019
H  -1.401069   0.664494   0.773170
H  -1.315235   0.902001  -1.028451
H  -0.323657  -1.179517   0.903996
H   0.821584  -0.029611   0.253363
H   0.072018  -1.495446  -0.892060
