14
butane_opt
C  -3.937065   0.226149  -0.060216
C  -2.706155  -0.573424   0.112899
H  -4.943466  -0.448446   0.415428
H  -3.714244   1.264979  -1.276766
H  -3.846092   0.467381   0.452758
C  -1.452074   0.216868   0.123012
H  -2.625722  -1.260951  -0.686435
H  -2.685600  -1.061660   0.861318
C  -0.150345  -0.726758  -0.046334
H  -1.336094   1.093649   1.094116
H  -1.435315   0.650949  -0.677853
H   0.046965  -1.204150   0.751908
H   0.669567  -0.141620  -0.106152
H  -0.206210  -1.559837  -0.985808
