butane_opt
 OpenBabel08242015383D

 14 12  0  0  0  0  0  0  0  0999 V2000
   -3.9990    0.3032    0.0983 C   0  0  0  0  0  0  0  0  0  0  0  0
   -2.7158   -0.6576   -0.0161 C   0  0  0  0  0  0  0  0  0  0  0  0
   -4.8337   -0.2303   -0.2869 H   0  0  0  0  0  0  0  0  0  0  0  0
   -3.8806    0.5648   -0.6084 H   0  0  0  0  0  0  0  0  0  0  0  0
   -4.2011    1.2730    1.2526 H   0  0  0  0  0  0  0  0  0  0  0  0
   -1.3696    0.1435   -0.1090 C   0  0  0  0  0  0  0  0  0  0  0  0
   -2.7722   -1.3445   -0.9224 H   0  0  0  0  0  0  0  0  0  0  0  0
   -2.6042   -1.3169    0.9363 H   0  0  0  0  0  0  0  0  0  0  0  0
   -0.1107   -0.6672    0.1023 C   0  0  0  0  0  0  0  0  0  0  0  0
   -1.3313    0.7521    0.7353 H   0  0  0  0  0  0  0  0  0  0  0  0
   -1.4922    0.9377   -1.0736 H   0  0  0  0  0  0  0  0  0  0  0  0
   -0.3514   -1.3496    1.0774 H   0  0  0  0  0  0  0  0  0  0  0  0
    0.8421   -0.0298    0.1225 H   0  0  0  0  0  0  0  0  0  0  0  0
   -0.0637   -1.1848   -0.6463 H   0  0  0  0  0  0  0  0  0  0  0  0
  2  1  1  0  0  0  0
  2  8  1  0  0  0  0
  3  1  1  0  0  0  0
  4  1  1  0  0  0  0
  6  2  1  0  0  0  0
  6  9  1  0  0  0  0
  6 10  1  0  0  0  0
  7  2  1  0  0  0  0
  9 13  1  0  0  0  0
  9 12  1  0  0  0  0
 11  6  1  0  0  0  0
 14  9  1  0  0  0  0
M  RAD  2   1   2   5   2
M  END
$$$$
