14
butane_opt
C  -4.014810   0.240289  -0.047783
C  -2.692124  -0.609310   0.090383
H  -4.988919  -0.423694   0.233302
H  -3.988130   1.046627  -1.067700
H  -3.828379   0.733522   0.654686
C  -1.393352   0.219706   0.074602
H  -2.669367  -1.130388  -0.658190
H  -2.791778  -1.187758   0.949229
C  -0.119708  -0.715396  -0.030153
H  -1.245555   1.092925   0.990746
H  -1.563226   0.720263  -0.687800
H  -0.009001  -1.294508   0.815299
H   0.779617  -0.186405   0.073992
H  -0.072626  -1.487499  -0.914949
