butane_opt
 OpenBabel08242015383D

 14 13  0  0  0  0  0  0  0  0999 V2000
   -3.9597    0.2974    0.1311 C   0  0  0  0  0  0  0  0  0  0  0  0
   -2.7088   -0.6672   -0.0697 C   0  0  0  0  0  0  0  0  0  0  0  0
   -4.8014   -0.2206    0.0918 H   0  0  0  0  0  0  0  0  0  0  0  0
   -4.2373    0.7955   -0.6777 H   0  0  0  0  0  0  0  0  0  0  0  0
   -3.9840    1.0795    1.0398 H   0  0  0  0  0  0  0  0  0  0  0  0
   -1.3559    0.1518   -0.1161 C   0  0  0  0  0  0  0  0  0  0  0  0
   -2.6794   -1.2918   -0.9290 H   0  0  0  0  0  0  0  0  0  0  0  0
   -2.5516   -1.2210    0.7930 H   0  0  0  0  0  0  0  0  0  0  0  0
   -0.1928   -0.6668    0.1468 C   0  0  0  0  0  0  0  0  0  0  0  0
   -1.2805    0.5827    0.5961 H   0  0  0  0  0  0  0  0  0  0  0  0
   -1.2293    1.0435   -1.1676 H   0  0  0  0  0  0  0  0  0  0  0  0
   -0.2404   -1.1336    0.9241 H   0  0  0  0  0  0  0  0  0  0  0  0
    0.6356   -0.0312    0.4246 H   0  0  0  0  0  0  0  0  0  0  0  0
   -0.0397   -1.4772   -0.7514 H   0  0  0  0  0  0  0  0  0  0  0  0
  1  5  1  0  0  0  0
  2  1  1  0  0  0  0
  2  8  1  0  0  0  0
  3  1  1  0  0  0  0
  4  1  1  0  0  0  0
  6  2  1  0  0  0  0
  6  9  1  0  0  0  0
  6 10  1  0  0  0  0
  7  2  1  0  0  0  0
  9 13  1  0  0  0  0
  9 12  1  0  0  0  0
 11  6  1  0  0  0  0
 14  9  1  0  0  0  0
M  END
$$$$
