14
butane_opt
C  -4.000941   0.270755  -0.074322
C  -2.690252  -0.638151   0.092299
H  -4.823648  -0.296689  -0.034431
H  -3.964849   0.940324  -0.974810
H  -3.966273   0.976918   0.884156
C  -1.416036   0.181068   0.108395
H  -2.621763  -1.285412  -0.654524
H  -2.729912  -1.430704   1.082449
C  -0.137249  -0.677214  -0.034048
H  -1.333830   1.047048   1.053334
H  -1.240782   0.662025  -0.714754
H   0.102536  -1.317223   0.898237
H   0.725262  -0.184406  -0.393542
H  -0.245316  -1.198643  -0.828526
