butane_opt
 OpenBabel08242015383D

 14 13  0  0  0  0  0  0  0  0999 V2000
   -3.9571    0.2731    0.0005 C   0  0  0  0  0  0  0  0  0  0  0  0
   -2.7022   -0.6205    0.0529 C   0  0  0  0  0  0  0  0  0  0  0  0
   -4.8853   -0.3318    0.0914 H   0  0  0  0  0  0  0  0  0  0  0  0
   -3.9547    0.9888   -0.9607 H   0  0  0  0  0  0  0  0  0  0  0  0
   -3.9734    0.8162    0.7807 H   0  0  0  0  0  0  0  0  0  0  0  0
   -1.3984    0.1816    0.0352 C   0  0  0  0  0  0  0  0  0  0  0  0
   -2.6941   -1.2727   -0.7752 H   0  0  0  0  0  0  0  0  0  0  0  0
   -2.6879   -1.2810    0.9909 H   0  0  0  0  0  0  0  0  0  0  0  0
   -0.1598   -0.6903    0.0064 C   0  0  0  0  0  0  0  0  0  0  0  0
   -1.3409    0.8885    0.9057 H   0  0  0  0  0  0  0  0  0  0  0  0
   -1.4174    0.7326   -0.8054 H   0  0  0  0  0  0  0  0  0  0  0  0
   -0.1034   -1.2510    0.8376 H   0  0  0  0  0  0  0  0  0  0  0  0
    0.7660   -0.0828    0.0848 H   0  0  0  0  0  0  0  0  0  0  0  0
   -0.1272   -1.3992   -0.8621 H   0  0  0  0  0  0  0  0  0  0  0  0
  1  2  1  0  0  0  0
  1  3  1  0  0  0  0
  1  5  1  0  0  0  0
  2  8  1  0  0  0  0
  4  1  1  0  0  0  0
  6  2  1  0  0  0  0
  6 10  1  0  0  0  0
  7  2  1  0  0  0  0
  9  6  1  0  0  0  0
  9 13  1  0  0  0  0
  9 12  1  0  0  0  0
 11  6  1  0  0  0  0
 14  9  1  0  0  0  0
M  END
$$$$
