butane_opt
 OpenBabel08242015383D

 14 12  0  0  0  0  0  0  0  0999 V2000
   -3.9196    0.2216   -0.0505 C   0  0  0  0  0  0  0  0  0  0  0  0
   -2.7235   -0.5534    0.0849 C   0  0  0  0  0  0  0  0  0  0  0  0
   -4.7642   -0.3017    0.4562 H   0  0  0  0  0  0  0  0  0  0  0  0
   -3.9272    1.3387   -1.2313 H   0  0  0  0  0  0  0  0  0  0  0  0
   -3.7945    0.4796    0.5177 H   0  0  0  0  0  0  0  0  0  0  0  0
   -1.4167    0.1937    0.0752 C   0  0  0  0  0  0  0  0  0  0  0  0
   -2.7218   -1.2118   -0.8133 H   0  0  0  0  0  0  0  0  0  0  0  0
   -2.7124   -1.3490    1.1117 H   0  0  0  0  0  0  0  0  0  0  0  0
   -0.1609   -0.7225   -0.0356 C   0  0  0  0  0  0  0  0  0  0  0  0
   -1.3753    1.1316    1.1180 H   0  0  0  0  0  0  0  0  0  0  0  0
   -1.5185    0.5330   -0.5679 H   0  0  0  0  0  0  0  0  0  0  0  0
   -0.0648   -1.0938    0.7209 H   0  0  0  0  0  0  0  0  0  0  0  0
    0.7439   -0.1105    0.1573 H   0  0  0  0  0  0  0  0  0  0  0  0
   -0.2343   -1.5457   -0.9751 H   0  0  0  0  0  0  0  0  0  0  0  0
  1  2  1  0  0  0  0
  1  3  1  0  0  0  0
  1  5  1  0  0  0  0
  2  8  1  0  0  0  0
  6  2  1  0  0  0  0
  6 10  1  0  0  0  0
  7  2  1  0  0  0  0
  9  6  1  0  0  0  0
  9 13  1  0  0  0  0
  9 12  1  0  0  0  0
 11  6  1  0  0  0  0
 14  9  1  0  0  0  0
M  RAD  2   1   2   4   2
M  END
$$$$
