butane_opt
 OpenBabel08242015383D

 14 13  0  0  0  0  0  0  0  0999 V2000
   -3.9666    0.2255    0.1090 C   0  0  0  0  0  0  0  0  0  0  0  0
   -2.7257   -0.5851   -0.1318 C   0  0  0  0  0  0  0  0  0  0  0  0
   -4.9261   -0.5073    0.4865 H   0  0  0  0  0  0  0  0  0  0  0  0
   -4.1473    0.9308   -0.7292 H   0  0  0  0  0  0  0  0  0  0  0  0
   -3.6828    0.9444    1.0478 H   0  0  0  0  0  0  0  0  0  0  0  0
   -1.4327    0.2424   -0.0675 C   0  0  0  0  0  0  0  0  0  0  0  0
   -2.7128   -1.2385   -1.0057 H   0  0  0  0  0  0  0  0  0  0  0  0
   -2.7451   -1.2090    0.7552 H   0  0  0  0  0  0  0  0  0  0  0  0
   -0.0883   -0.7308    0.1335 C   0  0  0  0  0  0  0  0  0  0  0  0
   -1.4792    0.8284    0.7570 H   0  0  0  0  0  0  0  0  0  0  0  0
   -1.3133    0.8557   -0.9683 H   0  0  0  0  0  0  0  0  0  0  0  0
   -0.1242   -1.5052    1.1628 H   0  0  0  0  0  0  0  0  0  0  0  0
    0.6889   -0.2072    0.0596 H   0  0  0  0  0  0  0  0  0  0  0  0
    0.0058   -1.2038   -0.6154 H   0  0  0  0  0  0  0  0  0  0  0  0
  1  3  1  0  0  0  0
  1  5  1  0  0  0  0
  2  6  1  0  0  0  0
  2  1  1  0  0  0  0
  2  8  1  0  0  0  0
  4  1  1  0  0  0  0
  6  9  1  0  0  0  0
  6 10  1  0  0  0  0
  7  2  1  0  0  0  0
  9 12  1  0  0  0  0
 11  6  1  0  0  0  0
 13  9  1  0  0  0  0
 14  9  1  0  0  0  0
M  END
$$$$
