14
butane_opt
C  -3.919428   0.238521  -0.015517
C  -2.701897  -0.563868   0.064297
H  -4.918573  -0.482899   0.145441
H  -3.734364   0.878825  -1.073324
H  -3.910357   0.668266   0.704003
C  -1.428278   0.230739   0.090356
H  -2.653255  -1.136175  -0.792371
H  -2.727118  -1.131909   0.901183
C  -0.186948  -0.760194  -0.011165
H  -1.376169   0.970012   0.959776
H  -1.369817   0.804812  -0.785225
H   0.051798  -1.337492   0.834376
H   0.748560  -0.122719  -0.158751
H  -0.274673  -1.339274  -0.824715
