14
butane_opt
C  -3.966563   0.225465   0.109050
C  -2.725740  -0.585054  -0.131759
H  -4.926140  -0.507336   0.486494
H  -4.147323   0.930850  -0.729229
H  -3.682784   0.944360   1.047761
C  -1.432663   0.242398  -0.067519
H  -2.712754  -1.238467  -1.005682
H  -2.745106  -1.208958   0.755182
C  -0.088257  -0.730784   0.133502
H  -1.479232   0.828359   0.756956
H  -1.313327   0.855680  -0.968280
H  -0.124193  -1.505205   1.162787
H   0.688902  -0.207201   0.059566
H   0.005775  -1.203786  -0.615388
