butane_opt
 OpenBabel08242015383D

 14 13  0  0  0  0  0  0  0  0999 V2000
   -3.9328    0.2816   -0.0893 C   0  0  0  0  0  0  0  0  0  0  0  0
   -2.6667   -0.6561    0.1718 C   0  0  0  0  0  0  0  0  0  0  0  0
   -4.8794   -0.2376   -0.3360 H   0  0  0  0  0  0  0  0  0  0  0  0
   -3.8159    0.7657   -0.9529 H   0  0  0  0  0  0  0  0  0  0  0  0
   -3.9015    1.1088    0.9174 H   0  0  0  0  0  0  0  0  0  0  0  0
   -1.4373    0.1579    0.0766 C   0  0  0  0  0  0  0  0  0  0  0  0
   -2.5106   -1.1900   -0.5507 H   0  0  0  0  0  0  0  0  0  0  0  0
   -2.7606   -1.4025    1.1664 H   0  0  0  0  0  0  0  0  0  0  0  0
   -0.2080   -0.6676   -0.0673 C   0  0  0  0  0  0  0  0  0  0  0  0
   -1.2808    1.0325    1.0825 H   0  0  0  0  0  0  0  0  0  0  0  0
   -1.3116    0.7941   -0.7397 H   0  0  0  0  0  0  0  0  0  0  0  0
   -0.1050   -1.2716    0.8151 H   0  0  0  0  0  0  0  0  0  0  0  0
    0.7147   -0.0673   -0.1038 H   0  0  0  0  0  0  0  0  0  0  0  0
   -0.2536   -1.4058   -0.9694 H   0  0  0  0  0  0  0  0  0  0  0  0
  1  2  1  0  0  0  0
  1  5  1  0  0  0  0
  2  8  1  0  0  0  0
  3  1  1  0  0  0  0
  4  1  1  0  0  0  0
  6  2  1  0  0  0  0
  6 10  1  0  0  0  0
  7  2  1  0  0  0  0
  9  6  1  0  0  0  0
  9 12  1  0  0  0  0
 11  6  1  0  0  0  0
 13  9  1  0  0  0  0
 14  9  1  0  0  0  0
M  END
$$$$
