butane_opt
 OpenBabel08242015383D

 14 13  0  0  0  0  0  0  0  0999 V2000
   -4.0166    0.2839   -0.1054 C   0  0  0  0  0  0  0  0  0  0  0  0
   -2.6809   -0.6547    0.1715 C   0  0  0  0  0  0  0  0  0  0  0  0
   -4.8959   -0.2359   -0.3103 H   0  0  0  0  0  0  0  0  0  0  0  0
   -3.9809    0.8075   -0.9327 H   0  0  0  0  0  0  0  0  0  0  0  0
   -4.2364    1.1919    0.8085 H   0  0  0  0  0  0  0  0  0  0  0  0
   -1.3706    0.1447    0.1176 C   0  0  0  0  0  0  0  0  0  0  0  0
   -2.4005   -1.1597   -0.5834 H   0  0  0  0  0  0  0  0  0  0  0  0
   -2.8431   -1.5068    1.3097 H   0  0  0  0  0  0  0  0  0  0  0  0
   -0.1344   -0.6373   -0.0823 C   0  0  0  0  0  0  0  0  0  0  0  0
   -1.1580    0.9381    1.0204 H   0  0  0  0  0  0  0  0  0  0  0  0
   -1.4435    0.6302   -0.7122 H   0  0  0  0  0  0  0  0  0  0  0  0
    0.0476   -1.3037    0.8336 H   0  0  0  0  0  0  0  0  0  0  0  0
    0.7420   -0.0724   -0.1194 H   0  0  0  0  0  0  0  0  0  0  0  0
   -0.4140   -1.4143   -1.0510 H   0  0  0  0  0  0  0  0  0  0  0  0
  1  2  1  0  0  0  0
  1  5  1  0  0  0  0
  2  8  1  0  0  0  0
  3  1  1  0  0  0  0
  4  1  1  0  0  0  0
  6  2  1  0  0  0  0
  6 10  1  0  0  0  0
  7  2  1  0  0  0  0
  9  6  1  0  0  0  0
  9 12  1  0  0  0  0
 11  6  1  0  0  0  0
 13  9  1  0  0  0  0
 14  9  1  0  0  0  0
M  END
$$$$
