butane_opt
 OpenBabel08242015383D

 14 13  0  0  0  0  0  0  0  0999 V2000
   -3.9695    0.2936   -0.0256 C   0  0  0  0  0  0  0  0  0  0  0  0
   -2.6985   -0.6531    0.1051 C   0  0  0  0  0  0  0  0  0  0  0  0
   -4.9824   -0.3021   -0.3566 H   0  0  0  0  0  0  0  0  0  0  0  0
   -3.8806    0.6198   -0.7984 H   0  0  0  0  0  0  0  0  0  0  0  0
   -4.1935    1.1414    0.9464 H   0  0  0  0  0  0  0  0  0  0  0  0
   -1.3549    0.1903    0.0355 C   0  0  0  0  0  0  0  0  0  0  0  0
   -2.7834   -1.2723   -0.7018 H   0  0  0  0  0  0  0  0  0  0  0  0
   -2.6704   -1.2871    1.0858 H   0  0  0  0  0  0  0  0  0  0  0  0
   -0.1711   -0.6978    0.0141 C   0  0  0  0  0  0  0  0  0  0  0  0
   -1.3102    0.8291    0.9051 H   0  0  0  0  0  0  0  0  0  0  0  0
   -1.3143    0.9619   -0.9763 H   0  0  0  0  0  0  0  0  0  0  0  0
    0.0037   -1.2153    0.8411 H   0  0  0  0  0  0  0  0  0  0  0  0
    0.7294   -0.1275   -0.1895 H   0  0  0  0  0  0  0  0  0  0  0  0
   -0.2799   -1.4418   -0.8695 H   0  0  0  0  0  0  0  0  0  0  0  0
  1  2  1  0  0  0  0
  1  5  1  0  0  0  0
  2  8  1  0  0  0  0
  3  1  1  0  0  0  0
  4  1  1  0  0  0  0
  6  2  1  0  0  0  0
  6 10  1  0  0  0  0
  7  2  1  0  0  0  0
  9  6  1  0  0  0  0
  9 12  1  0  0  0  0
 11  6  1  0  0  0  0
 13  9  1  0  0  0  0
 14  9  1  0  0  0  0
M  END
$$$$
