14
butane_opt
C  -3.921538   0.249854  -0.027686
C  -2.691653  -0.565423   0.072215
H  -4.812703  -0.392089  -0.037034
H  -3.913550   0.813647  -0.897421
H  -3.885059   0.788079   0.830458
C  -1.435173   0.187921   0.026098
H  -2.692832  -1.118461  -0.678177
H  -2.709696  -1.349729   1.184257
C  -0.180435  -0.735877   0.020062
H  -1.363970   0.990919   0.986921
H  -1.411893   0.810850  -0.849185
H  -0.097900  -1.108525   0.759239
H   0.887102  -0.004728   0.037865
H  -0.273219  -1.541945  -1.021189
