14
butane_opt
C  -3.943246   0.276515  -0.000322
C  -2.697504  -0.627529   0.063472
H  -4.858224  -0.309742   0.069433
H  -3.973422   0.955508  -0.913493
H  -3.978015   0.935322   0.829080
C  -1.404075   0.168392   0.005413
H  -2.742288  -1.256650  -0.755161
H  -2.682754  -1.309511   1.028574
C  -0.169600  -0.683608   0.017255
H  -1.349403   0.857051   0.876691
H  -1.371852   0.742427  -0.842291
H  -0.187226  -1.160530   0.827203
H   0.787932  -0.038352   0.188720
H  -0.102877  -1.488857  -0.919636
