14
butane_opt
C  -3.927171   0.278397   0.012906
C  -2.697091  -0.628087   0.027544
H  -4.817876  -0.311718   0.017156
H  -4.011096   0.844062  -0.828115
H  -3.980493   0.995559   0.909710
C  -1.406726   0.170196   0.016130
H  -2.701361  -1.318646  -0.795415
H  -2.709614  -1.247177   0.916598
C  -0.173635  -0.685947   0.033465
H  -1.410228   0.868123   0.880758
H  -1.352308   0.757578  -0.851043
H  -0.095021  -1.378069   0.983726
H   0.770987  -0.084222  -0.112102
H  -0.262510  -1.201076  -0.747523
