butane_opt
 OpenBabel08242015383D

 14 13  0  0  0  0  0  0  0  0999 V2000
   -3.9066    0.2311   -0.0673 C   0  0  0  0  0  0  0  0  0  0  0  0
   -2.7176   -0.5666    0.1628 C   0  0  0  0  0  0  0  0  0  0  0  0
   -4.9408   -0.3974   -0.5173 H   0  0  0  0  0  0  0  0  0  0  0  0
   -3.6623    0.7380   -0.9153 H   0  0  0  0  0  0  0  0  0  0  0  0
   -4.1149    0.9932    0.8586 H   0  0  0  0  0  0  0  0  0  0  0  0
   -1.4086    0.2151    0.1127 C   0  0  0  0  0  0  0  0  0  0  0  0
   -2.5455   -1.1048   -0.4918 H   0  0  0  0  0  0  0  0  0  0  0  0
   -2.8484   -1.2468    1.1480 H   0  0  0  0  0  0  0  0  0  0  0  0
   -0.1624   -0.7319   -0.0612 C   0  0  0  0  0  0  0  0  0  0  0  0
   -1.4422    0.8010    0.9429 H   0  0  0  0  0  0  0  0  0  0  0  0
   -1.4359    0.8761   -0.8476 H   0  0  0  0  0  0  0  0  0  0  0  0
   -0.0545   -1.2886    0.7449 H   0  0  0  0  0  0  0  0  0  0  0  0
    0.7591   -0.0997   -0.1712 H   0  0  0  0  0  0  0  0  0  0  0  0
   -0.3720   -1.5427   -1.0883 H   0  0  0  0  0  0  0  0  0  0  0  0
  1  2  1  0  0  0  0
  1  5  1  0  0  0  0
  2  8  1  0  0  0  0
  3  1  1  0  0  0  0
  4  1  1  0  0  0  0
  6  2  1  0  0  0  0
  6 10  1  0  0  0  0
  7  2  1  0  0  0  0
  9  6  1  0  0  0  0
  9 12  1  0  0  0  0
 11  6  1  0  0  0  0
 13  9  1  0  0  0  0
 14  9  1  0  0  0  0
M  END
$$$$
