butane_opt
 OpenBabel08242015383D

 14 13  0  0  0  0  0  0  0  0999 V2000
   -3.9220    0.2693    0.1073 C   0  0  0  0  0  0  0  0  0  0  0  0
   -2.6488   -0.6136   -0.0315 C   0  0  0  0  0  0  0  0  0  0  0  0
   -4.8616   -0.3070   -0.0266 H   0  0  0  0  0  0  0  0  0  0  0  0
   -4.0452    0.8369   -0.8327 H   0  0  0  0  0  0  0  0  0  0  0  0
   -4.1240    1.1194    1.0467 H   0  0  0  0  0  0  0  0  0  0  0  0
   -1.4234    0.1253   -0.0587 C   0  0  0  0  0  0  0  0  0  0  0  0
   -2.7438   -1.5664   -1.0850 H   0  0  0  0  0  0  0  0  0  0  0  0
   -2.6376   -1.0212    0.7102 H   0  0  0  0  0  0  0  0  0  0  0  0
   -0.1871   -0.6652    0.1022 C   0  0  0  0  0  0  0  0  0  0  0  0
   -1.4591    0.8275    0.7525 H   0  0  0  0  0  0  0  0  0  0  0  0
   -1.3038    0.8369   -0.9780 H   0  0  0  0  0  0  0  0  0  0  0  0
   -0.1637   -1.5898    1.1915 H   0  0  0  0  0  0  0  0  0  0  0  0
    0.8790   -0.0064   -0.1983 H   0  0  0  0  0  0  0  0  0  0  0  0
   -0.3661   -0.9762   -0.5184 H   0  0  0  0  0  0  0  0  0  0  0  0
  1  5  1  0  0  0  0
  2  1  1  0  0  0  0
  2  8  1  0  0  0  0
  3  1  1  0  0  0  0
  4  1  1  0  0  0  0
  6  2  1  0  0  0  0
  6  9  1  0  0  0  0
  6 10  1  0  0  0  0
  7  2  1  0  0  0  0
  9 12  1  0  0  0  0
 11  6  1  0  0  0  0
 13  9  1  0  0  0  0
 14  9  1  0  0  0  0
M  END
$$$$
