butane_opt
 OpenBabel08242015383D

 14 13  0  0  0  0  0  0  0  0999 V2000
   -3.9557    0.2344    0.0444 C   0  0  0  0  0  0  0  0  0  0  0  0
   -2.7350   -0.5692    0.0109 C   0  0  0  0  0  0  0  0  0  0  0  0
   -4.9412   -0.3513    0.0565 H   0  0  0  0  0  0  0  0  0  0  0  0
   -3.8409    0.7691   -0.7913 H   0  0  0  0  0  0  0  0  0  0  0  0
   -3.7821    0.9121    0.9333 H   0  0  0  0  0  0  0  0  0  0  0  0
   -1.4186    0.2409   -0.0476 C   0  0  0  0  0  0  0  0  0  0  0  0
   -2.7685   -1.1077   -0.7603 H   0  0  0  0  0  0  0  0  0  0  0  0
   -2.8006   -1.3680    1.0375 H   0  0  0  0  0  0  0  0  0  0  0  0
   -0.1206   -0.7394    0.0459 C   0  0  0  0  0  0  0  0  0  0  0  0
   -1.5493    0.8010    0.8269 H   0  0  0  0  0  0  0  0  0  0  0  0
   -1.2470    0.7561   -0.8755 H   0  0  0  0  0  0  0  0  0  0  0  0
   -0.0787   -1.1767    0.8894 H   0  0  0  0  0  0  0  0  0  0  0  0
    0.7620   -0.2174    0.3227 H   0  0  0  0  0  0  0  0  0  0  0  0
   -0.0237   -1.4899   -0.8573 H   0  0  0  0  0  0  0  0  0  0  0  0
  1  3  1  0  0  0  0
  1  5  1  0  0  0  0
  2  1  1  0  0  0  0
  2  8  1  0  0  0  0
  4  1  1  0  0  0  0
  6  2  1  0  0  0  0
  6  9  1  0  0  0  0
  6 10  1  0  0  0  0
  7  2  1  0  0  0  0
  9 13  1  0  0  0  0
  9 12  1  0  0  0  0
 11  6  1  0  0  0  0
 14  9  1  0  0  0  0
M  END
$$$$
