14
butane_opt
C  -3.911091   0.253249   0.003871
C  -2.713627  -0.606772   0.000323
H  -4.810395  -0.377600   0.557206
H  -4.035638   1.159709  -1.143028
H  -3.627523   0.612584   0.741280
C  -1.409323   0.220590   0.051537
H  -2.888291  -1.323799  -0.888462
H  -2.700886  -1.156293   0.827673
C  -0.174750  -0.722573   0.041019
H  -1.505042   0.952445   0.954291
H  -1.459260   0.840411  -0.928122
H   0.007694  -1.258098   0.933472
H   0.750611  -0.117120   0.078643
H  -0.270080  -1.514438  -0.885861
