butane_opt
 OpenBabel08242015383D

 14 13  0  0  0  0  0  0  0  0999 V2000
   -3.9411    0.2506   -0.0937 C   0  0  0  0  0  0  0  0  0  0  0  0
   -2.7026   -0.5844    0.1922 C   0  0  0  0  0  0  0  0  0  0  0  0
   -4.9848   -0.4078   -0.4353 H   0  0  0  0  0  0  0  0  0  0  0  0
   -3.6135    0.7361   -0.9889 H   0  0  0  0  0  0  0  0  0  0  0  0
   -4.0648    1.1139    0.8612 H   0  0  0  0  0  0  0  0  0  0  0  0
   -1.4197    0.1942    0.1329 C   0  0  0  0  0  0  0  0  0  0  0  0
   -2.5135   -1.2451   -0.6816 H   0  0  0  0  0  0  0  0  0  0  0  0
   -2.6976   -1.4105    1.2696 H   0  0  0  0  0  0  0  0  0  0  0  0
   -0.1611   -0.6933   -0.0713 C   0  0  0  0  0  0  0  0  0  0  0  0
   -1.2527    0.7486    0.8748 H   0  0  0  0  0  0  0  0  0  0  0  0
   -1.5737    0.8735   -0.8411 H   0  0  0  0  0  0  0  0  0  0  0  0
   -0.1190   -1.1953    0.7267 H   0  0  0  0  0  0  0  0  0  0  0  0
    0.7403   -0.1130   -0.1607 H   0  0  0  0  0  0  0  0  0  0  0  0
   -0.2362   -1.5929   -1.1051 H   0  0  0  0  0  0  0  0  0  0  0  0
  1  2  1  0  0  0  0
  1  5  1  0  0  0  0
  2  8  1  0  0  0  0
  3  1  1  0  0  0  0
  4  1  1  0  0  0  0
  6  2  1  0  0  0  0
  6 10  1  0  0  0  0
  7  2  1  0  0  0  0
  9  6  1  0  0  0  0
  9 12  1  0  0  0  0
 11  6  1  0  0  0  0
 13  9  1  0  0  0  0
 14  9  1  0  0  0  0
M  END
$$$$
