butane_opt
 OpenBabel08242015383D

 14 13  0  0  0  0  0  0  0  0999 V2000
   -3.9198    0.2604   -0.0003 C   0  0  0  0  0  0  0  0  0  0  0  0
   -2.7180   -0.5863    0.0437 C   0  0  0  0  0  0  0  0  0  0  0  0
   -4.9278   -0.4499    0.4377 H   0  0  0  0  0  0  0  0  0  0  0  0
   -4.1233    1.1724   -1.1044 H   0  0  0  0  0  0  0  0  0  0  0  0
   -3.6211    0.5998    0.6596 H   0  0  0  0  0  0  0  0  0  0  0  0
   -1.4112    0.1728    0.0592 C   0  0  0  0  0  0  0  0  0  0  0  0
   -2.6382   -1.3708   -0.9053 H   0  0  0  0  0  0  0  0  0  0  0  0
   -2.7770   -1.0811    0.7569 H   0  0  0  0  0  0  0  0  0  0  0  0
   -0.1555   -0.6945    0.0149 C   0  0  0  0  0  0  0  0  0  0  0  0
   -1.5009    0.9219    0.9318 H   0  0  0  0  0  0  0  0  0  0  0  0
   -1.3941    0.8723   -0.8408 H   0  0  0  0  0  0  0  0  0  0  0  0
   -0.1533   -1.3264    0.9603 H   0  0  0  0  0  0  0  0  0  0  0  0
    0.7779   -0.1684    0.0653 H   0  0  0  0  0  0  0  0  0  0  0  0
   -0.2117   -1.4795   -0.9659 H   0  0  0  0  0  0  0  0  0  0  0  0
  1  2  1  0  0  0  0
  1  3  1  0  0  0  0
  1  5  1  0  0  0  0
  2  6  1  0  0  0  0
  2  8  1  0  0  0  0
  4  1  1  0  0  0  0
  6 10  1  0  0  0  0
  7  2  1  0  0  0  0
  9  6  1  0  0  0  0
  9 13  1  0  0  0  0
  9 12  1  0  0  0  0
 11  6  1  0  0  0  0
 14  9  1  0  0  0  0
M  END
$$$$
