butane_opt
 OpenBabel08242015383D

 14 13  0  0  0  0  0  0  0  0999 V2000
   -4.0009    0.2590   -0.1180 C   0  0  0  0  0  0  0  0  0  0  0  0
   -2.7071   -0.6113    0.2460 C   0  0  0  0  0  0  0  0  0  0  0  0
   -4.8857   -0.3620   -0.3896 H   0  0  0  0  0  0  0  0  0  0  0  0
   -3.6410    0.6360   -0.9238 H   0  0  0  0  0  0  0  0  0  0  0  0
   -4.3120    1.0977    0.7692 H   0  0  0  0  0  0  0  0  0  0  0  0
   -1.3965    0.1920    0.1071 C   0  0  0  0  0  0  0  0  0  0  0  0
   -2.6242   -1.3141   -0.6370 H   0  0  0  0  0  0  0  0  0  0  0  0
   -2.7389   -1.2403    1.1479 H   0  0  0  0  0  0  0  0  0  0  0  0
   -0.1302   -0.7169   -0.0941 C   0  0  0  0  0  0  0  0  0  0  0  0
   -1.2183    0.9603    1.0142 H   0  0  0  0  0  0  0  0  0  0  0  0
   -1.5056    0.9661   -0.7813 H   0  0  0  0  0  0  0  0  0  0  0  0
    0.0059   -1.2074    0.7109 H   0  0  0  0  0  0  0  0  0  0  0  0
    0.8216   -0.0627   -0.1077 H   0  0  0  0  0  0  0  0  0  0  0  0
   -0.1094   -1.4441   -1.0339 H   0  0  0  0  0  0  0  0  0  0  0  0
  1  2  1  0  0  0  0
  1  5  1  0  0  0  0
  2  8  1  0  0  0  0
  3  1  1  0  0  0  0
  4  1  1  0  0  0  0
  6  2  1  0  0  0  0
  6 10  1  0  0  0  0
  7  2  1  0  0  0  0
  9  6  1  0  0  0  0
  9 12  1  0  0  0  0
 11  6  1  0  0  0  0
 13  9  1  0  0  0  0
 14  9  1  0  0  0  0
M  END
$$$$
