14
butane_opt
C  -3.925843   0.294576   0.080463
C  -2.656053  -0.655513  -0.026889
H  -4.752666  -0.219273   0.451437
H  -4.213352   1.213551  -1.023780
H  -3.798771   0.624711   0.682910
C  -1.397801   0.167918  -0.001765
H  -2.635842  -1.605371  -1.093673
H  -2.742196  -1.199583   0.750710
C  -0.208630  -0.668396   0.066469
H  -1.512699   0.772061   0.841148
H  -1.484551   0.812492  -0.946390
H  -0.340817  -1.211859   0.917891
H   0.763868   0.041752   0.136893
H  -0.075565  -1.310411  -0.723472
