butane_opt
 OpenBabel08242015383D

 14 13  0  0  0  0  0  0  0  0999 V2000
   -3.9402    0.2661    0.0394 C   0  0  0  0  0  0  0  0  0  0  0  0
   -2.7107   -0.6062    0.0213 C   0  0  0  0  0  0  0  0  0  0  0  0
   -4.8557   -0.3551   -0.0201 H   0  0  0  0  0  0  0  0  0  0  0  0
   -3.9218    0.7744   -0.7886 H   0  0  0  0  0  0  0  0  0  0  0  0
   -3.9276    0.9811    0.9168 H   0  0  0  0  0  0  0  0  0  0  0  0
   -1.4047    0.1891   -0.0145 C   0  0  0  0  0  0  0  0  0  0  0  0
   -2.6809   -1.3132   -0.8517 H   0  0  0  0  0  0  0  0  0  0  0  0
   -2.7102   -1.2110    0.8877 H   0  0  0  0  0  0  0  0  0  0  0  0
   -0.1563   -0.7010    0.0470 C   0  0  0  0  0  0  0  0  0  0  0  0
   -1.3929    0.8787    0.8341 H   0  0  0  0  0  0  0  0  0  0  0  0
   -1.4088    0.7777   -0.8949 H   0  0  0  0  0  0  0  0  0  0  0  0
   -0.1496   -1.4281    1.0338 H   0  0  0  0  0  0  0  0  0  0  0  0
    0.7413   -0.1037   -0.0263 H   0  0  0  0  0  0  0  0  0  0  0  0
   -0.1743   -1.2507   -0.7435 H   0  0  0  0  0  0  0  0  0  0  0  0
  1  5  1  0  0  0  0
  2  1  1  0  0  0  0
  2  8  1  0  0  0  0
  3  1  1  0  0  0  0
  4  1  1  0  0  0  0
  6  2  1  0  0  0  0
  6  9  1  0  0  0  0
  6 10  1  0  0  0  0
  7  2  1  0  0  0  0
  9 12  1  0  0  0  0
 11  6  1  0  0  0  0
 13  9  1  0  0  0  0
 14  9  1  0  0  0  0
M  END
$$$$
