14
butane_opt
C  -4.008766   0.287286   0.109897
C  -2.682996  -0.630793  -0.017238
H  -4.857931  -0.320643  -0.118107
H  -3.983097   0.882842  -0.761307
H  -4.159221   1.048000   1.107691
C  -1.372463   0.140828  -0.087920
H  -2.835964  -1.439407  -0.980035
H  -2.531009  -1.202737   0.801318
C  -0.158269  -0.678003   0.109613
H  -1.346061   0.726016   0.659530
H  -1.233167   0.935305  -1.068194
H  -0.255274  -1.212945   0.928927
H   0.798953   0.007006   0.131889
H   0.051912  -1.313423  -0.645833
