butane_opt
 OpenBabel08242015383D

 14 13  0  0  0  0  0  0  0  0999 V2000
   -3.9251    0.2502   -0.0764 C   0  0  0  0  0  0  0  0  0  0  0  0
   -2.6839   -0.5956    0.1092 C   0  0  0  0  0  0  0  0  0  0  0  0
   -4.8819   -0.3352   -0.0172 H   0  0  0  0  0  0  0  0  0  0  0  0
   -3.8422    0.9206   -0.9629 H   0  0  0  0  0  0  0  0  0  0  0  0
   -3.9393    0.7582    0.6824 H   0  0  0  0  0  0  0  0  0  0  0  0
   -1.4098    0.2289    0.1425 C   0  0  0  0  0  0  0  0  0  0  0  0
   -2.7577   -1.3491   -0.8243 H   0  0  0  0  0  0  0  0  0  0  0  0
   -2.7275   -1.2465    0.9712 H   0  0  0  0  0  0  0  0  0  0  0  0
   -0.2071   -0.7282   -0.0347 C   0  0  0  0  0  0  0  0  0  0  0  0
   -1.3094    1.0090    1.0316 H   0  0  0  0  0  0  0  0  0  0  0  0
   -1.3250    0.8106   -0.6849 H   0  0  0  0  0  0  0  0  0  0  0  0
    0.1576   -1.4700    0.8977 H   0  0  0  0  0  0  0  0  0  0  0  0
    0.6745   -0.1150   -0.5713 H   0  0  0  0  0  0  0  0  0  0  0  0
   -0.3562   -1.3201   -0.7917 H   0  0  0  0  0  0  0  0  0  0  0  0
  1  3  1  0  0  0  0
  1  2  1  0  0  0  0
  1  5  1  0  0  0  0
  2  6  1  0  0  0  0
  2  8  1  0  0  0  0
  4  1  1  0  0  0  0
  6 10  1  0  0  0  0
  7  2  1  0  0  0  0
  9  6  1  0  0  0  0
  9 12  1  0  0  0  0
 11  6  1  0  0  0  0
 13  9  1  0  0  0  0
 14  9  1  0  0  0  0
M  END
$$$$
