butane_opt
 OpenBabel08242015383D

 14 12  0  0  0  0  0  0  0  0999 V2000
   -3.9517    0.2574    0.0732 C   0  0  0  0  0  0  0  0  0  0  0  0
   -2.7091   -0.6292   -0.0004 C   0  0  0  0  0  0  0  0  0  0  0  0
   -4.9323   -0.4404   -0.2919 H   0  0  0  0  0  0  0  0  0  0  0  0
   -3.9720    0.5350   -0.6032 H   0  0  0  0  0  0  0  0  0  0  0  0
   -4.0980    1.2912    1.1876 H   0  0  0  0  0  0  0  0  0  0  0  0
   -1.4094    0.2183   -0.0699 C   0  0  0  0  0  0  0  0  0  0  0  0
   -2.8065   -1.3340   -0.8859 H   0  0  0  0  0  0  0  0  0  0  0  0
   -2.7309   -1.0747    0.8466 H   0  0  0  0  0  0  0  0  0  0  0  0
   -0.1331   -0.6968    0.0940 C   0  0  0  0  0  0  0  0  0  0  0  0
   -1.3901    0.8302    0.7063 H   0  0  0  0  0  0  0  0  0  0  0  0
   -1.2952    0.8417   -0.9458 H   0  0  0  0  0  0  0  0  0  0  0  0
   -0.0413   -1.6075    1.1626 H   0  0  0  0  0  0  0  0  0  0  0  0
    0.6247   -0.2953   -0.2522 H   0  0  0  0  0  0  0  0  0  0  0  0
    0.0835   -1.0496   -0.5986 H   0  0  0  0  0  0  0  0  0  0  0  0
  2  1  1  0  0  0  0
  2  8  1  0  0  0  0
  3  1  1  0  0  0  0
  4  1  1  0  0  0  0
  6  2  1  0  0  0  0
  6  9  1  0  0  0  0
  6 10  1  0  0  0  0
  7  2  1  0  0  0  0
  9 12  1  0  0  0  0
 11  6  1  0  0  0  0
 13  9  1  0  0  0  0
 14  9  1  0  0  0  0
M  RAD  2   1   2   5   2
M  END
$$$$
