butane_opt
 OpenBabel08242015383D

 14 12  0  0  0  0  0  0  0  0999 V2000
   -3.9734    0.2605    0.0646 C   0  0  0  0  0  0  0  0  0  0  0  0
   -2.7110   -0.5975    0.0078 C   0  0  0  0  0  0  0  0  0  0  0  0
   -4.9372   -0.4043   -0.2320 H   0  0  0  0  0  0  0  0  0  0  0  0
   -3.9647    0.4392   -0.5332 H   0  0  0  0  0  0  0  0  0  0  0  0
   -3.8362    1.3241    1.1270 H   0  0  0  0  0  0  0  0  0  0  0  0
   -1.3981    0.2100   -0.0883 C   0  0  0  0  0  0  0  0  0  0  0  0
   -2.7530   -1.2492   -0.8940 H   0  0  0  0  0  0  0  0  0  0  0  0
   -2.7213   -1.2600    0.9372 H   0  0  0  0  0  0  0  0  0  0  0  0
   -0.1381   -0.7137    0.0986 C   0  0  0  0  0  0  0  0  0  0  0  0
   -1.3144    0.7514    0.7141 H   0  0  0  0  0  0  0  0  0  0  0  0
   -1.2783    0.9869   -1.0564 H   0  0  0  0  0  0  0  0  0  0  0  0
   -0.1789   -1.5271    1.1209 H   0  0  0  0  0  0  0  0  0  0  0  0
    0.7836   -0.1109    0.1040 H   0  0  0  0  0  0  0  0  0  0  0  0
   -0.1652   -1.3648   -0.7845 H   0  0  0  0  0  0  0  0  0  0  0  0
  1  5  1  0  0  0  0
  2  1  1  0  0  0  0
  2  8  1  0  0  0  0
  3  1  1  0  0  0  0
  6  2  1  0  0  0  0
  6  9  1  0  0  0  0
  6 10  1  0  0  0  0
  7  2  1  0  0  0  0
  9 13  1  0  0  0  0
  9 12  1  0  0  0  0
 11  6  1  0  0  0  0
 14  9  1  0  0  0  0
M  RAD  2   1   2   4   2
M  END
$$$$
