14
butane_opt
C  -3.912404   0.280446   0.030795
C  -2.689713  -0.634811   0.012145
H  -4.726967  -0.220009   0.065829
H  -4.029131   0.769784  -0.831865
H  -4.088321   1.131486   1.080897
C  -1.395488   0.130277  -0.017098
H  -2.688749  -1.182131  -0.817776
H  -2.613257  -1.349254   0.966748
C  -0.197622  -0.667031   0.051347
H  -1.362789   0.769379   0.824149
H  -1.319347   0.949253  -1.047425
H  -0.391640  -1.217282   0.984357
H   0.784754   0.030921   0.173186
H  -0.234561  -1.464849  -0.871926
