butane_opt
 OpenBabel08242015383D

 14 13  0  0  0  0  0  0  0  0999 V2000
   -3.9289    0.3118   -0.0621 C   0  0  0  0  0  0  0  0  0  0  0  0
   -2.6848   -0.6543    0.1125 C   0  0  0  0  0  0  0  0  0  0  0  0
   -4.7827   -0.2664    0.2325 H   0  0  0  0  0  0  0  0  0  0  0  0
   -3.9490    1.1580   -1.1201 H   0  0  0  0  0  0  0  0  0  0  0  0
   -3.9644    0.6405    0.6530 H   0  0  0  0  0  0  0  0  0  0  0  0
   -1.4029    0.1645    0.0778 C   0  0  0  0  0  0  0  0  0  0  0  0
   -2.7400   -1.2781   -0.6313 H   0  0  0  0  0  0  0  0  0  0  0  0
   -2.8151   -1.5302    1.1867 H   0  0  0  0  0  0  0  0  0  0  0  0
   -0.1679   -0.6701   -0.0670 C   0  0  0  0  0  0  0  0  0  0  0  0
   -1.4376    0.9687    1.0905 H   0  0  0  0  0  0  0  0  0  0  0  0
   -1.3904    0.6492   -0.6946 H   0  0  0  0  0  0  0  0  0  0  0  0
   -0.3086   -0.9845    0.6827 H   0  0  0  0  0  0  0  0  0  0  0  0
    0.7326   -0.0831    0.3516 H   0  0  0  0  0  0  0  0  0  0  0  0
   -0.1763   -1.5411   -1.1066 H   0  0  0  0  0  0  0  0  0  0  0  0
  1  2  1  0  0  0  0
  1  3  1  0  0  0  0
  1  5  1  0  0  0  0
  2  8  1  0  0  0  0
  4  1  1  0  0  0  0
  6  2  1  0  0  0  0
  6 10  1  0  0  0  0
  7  2  1  0  0  0  0
  9  6  1  0  0  0  0
  9 13  1  0  0  0  0
  9 12  1  0  0  0  0
 11  6  1  0  0  0  0
 14  9  1  0  0  0  0
M  END
$$$$
