butane_opt
 OpenBabel08242015383D

 14 13  0  0  0  0  0  0  0  0999 V2000
   -3.9416    0.2184    0.0726 C   0  0  0  0  0  0  0  0  0  0  0  0
   -2.7041   -0.5989    0.0297 C   0  0  0  0  0  0  0  0  0  0  0  0
   -4.8853   -0.3502   -0.3252 H   0  0  0  0  0  0  0  0  0  0  0  0
   -3.7739    0.5394   -0.6332 H   0  0  0  0  0  0  0  0  0  0  0  0
   -4.0686    1.2080    1.0918 H   0  0  0  0  0  0  0  0  0  0  0  0
   -1.3978    0.2521   -0.1019 C   0  0  0  0  0  0  0  0  0  0  0  0
   -2.8940   -1.1627   -0.7587 H   0  0  0  0  0  0  0  0  0  0  0  0
   -2.6503   -1.2521    0.9149 H   0  0  0  0  0  0  0  0  0  0  0  0
   -0.1478   -0.7340    0.0883 C   0  0  0  0  0  0  0  0  0  0  0  0
   -1.4753    1.0047    0.6880 H   0  0  0  0  0  0  0  0  0  0  0  0
   -1.5130    0.8221   -0.9648 H   0  0  0  0  0  0  0  0  0  0  0  0
   -0.0914   -1.3439    1.0033 H   0  0  0  0  0  0  0  0  0  0  0  0
    0.6637   -0.3046    0.1284 H   0  0  0  0  0  0  0  0  0  0  0  0
   -0.0154   -1.3235   -0.7315 H   0  0  0  0  0  0  0  0  0  0  0  0
  1  5  1  0  0  0  0
  2  1  1  0  0  0  0
  2  8  1  0  0  0  0
  3  1  1  0  0  0  0
  4  1  1  0  0  0  0
  6  2  1  0  0  0  0
  6  9  1  0  0  0  0
  6 10  1  0  0  0  0
  7  2  1  0  0  0  0
  9 13  1  0  0  0  0
  9 12  1  0  0  0  0
 11  6  1  0  0  0  0
 14  9  1  0  0  0  0
M  END
$$$$
