butane_opt
 OpenBabel08242015383D

 14 13  0  0  0  0  0  0  0  0999 V2000
   -3.9133    0.2476    0.0820 C   0  0  0  0  0  0  0  0  0  0  0  0
   -2.6940   -0.5688    0.0085 C   0  0  0  0  0  0  0  0  0  0  0  0
   -4.9201   -0.3691   -0.2550 H   0  0  0  0  0  0  0  0  0  0  0  0
   -3.7307    0.4925   -0.6042 H   0  0  0  0  0  0  0  0  0  0  0  0
   -3.8558    1.1962    1.0932 H   0  0  0  0  0  0  0  0  0  0  0  0
   -1.4331    0.1912   -0.0493 C   0  0  0  0  0  0  0  0  0  0  0  0
   -2.7151   -1.3361   -1.0024 H   0  0  0  0  0  0  0  0  0  0  0  0
   -2.9239   -1.1726    0.9408 H   0  0  0  0  0  0  0  0  0  0  0  0
   -0.1618   -0.7192    0.0918 C   0  0  0  0  0  0  0  0  0  0  0  0
   -1.5165    0.6585    0.5989 H   0  0  0  0  0  0  0  0  0  0  0  0
   -1.4425    1.0330   -1.1429 H   0  0  0  0  0  0  0  0  0  0  0  0
   -0.2215   -1.3571    1.0406 H   0  0  0  0  0  0  0  0  0  0  0  0
    0.7907   -0.1241   -0.0416 H   0  0  0  0  0  0  0  0  0  0  0  0
   -0.0710   -1.3154   -0.7343 H   0  0  0  0  0  0  0  0  0  0  0  0
  1  5  1  0  0  0  0
  2  1  1  0  0  0  0
  2  8  1  0  0  0  0
  3  1  1  0  0  0  0
  4  1  1  0  0  0  0
  6  2  1  0  0  0  0
  6  9  1  0  0  0  0
  6 10  1  0  0  0  0
  7  2  1  0  0  0  0
  9 12  1  0  0  0  0
 11  6  1  0  0  0  0
 13  9  1  0  0  0  0
 14  9  1  0  0  0  0
M  END
$$$$
