butane_opt
 OpenBabel08242015383D

 14 12  0  0  0  0  0  0  0  0999 V2000
   -3.9198    0.2164   -0.0549 C   0  0  0  0  0  0  0  0  0  0  0  0
   -2.6955   -0.5719    0.0416 C   0  0  0  0  0  0  0  0  0  0  0  0
   -4.8659   -0.4080    0.5901 H   0  0  0  0  0  0  0  0  0  0  0  0
   -4.0391    1.3590   -1.2597 H   0  0  0  0  0  0  0  0  0  0  0  0
   -3.8287    0.4281    0.5656 H   0  0  0  0  0  0  0  0  0  0  0  0
   -1.4250    0.2294    0.1212 C   0  0  0  0  0  0  0  0  0  0  0  0
   -2.6795   -1.1037   -0.7003 H   0  0  0  0  0  0  0  0  0  0  0  0
   -2.8152   -1.2897    1.0642 H   0  0  0  0  0  0  0  0  0  0  0  0
   -0.1315   -0.7259   -0.0349 C   0  0  0  0  0  0  0  0  0  0  0  0
   -1.5784    0.9913    1.0872 H   0  0  0  0  0  0  0  0  0  0  0  0
   -1.4987    0.6611   -0.5594 H   0  0  0  0  0  0  0  0  0  0  0  0
   -0.0949   -1.1868    0.7100 H   0  0  0  0  0  0  0  0  0  0  0  0
    0.7169   -0.1024    0.0466 H   0  0  0  0  0  0  0  0  0  0  0  0
   -0.2490   -1.5980   -1.0524 H   0  0  0  0  0  0  0  0  0  0  0  0
  1  2  1  0  0  0  0
  1  5  1  0  0  0  0
  1  3  1  0  0  0  0
  2  6  1  0  0  0  0
  2  8  1  0  0  0  0
  6 10  1  0  0  0  0
  7  2  1  0  0  0  0
  9 13  1  0  0  0  0
  9  6  1  0  0  0  0
  9 12  1  0  0  0  0
 11  6  1  0  0  0  0
 14  9  1  0  0  0  0
M  RAD  2   1   2   4   2
M  END
$$$$
