butane_opt
 OpenBabel08242015383D

 14 13  0  0  0  0  0  0  0  0999 V2000
   -3.9519    0.2968    0.1316 C   0  0  0  0  0  0  0  0  0  0  0  0
   -2.6510   -0.6754   -0.1183 C   0  0  0  0  0  0  0  0  0  0  0  0
   -4.8190   -0.3136    0.3811 H   0  0  0  0  0  0  0  0  0  0  0  0
   -4.2458    0.9851   -0.8498 H   0  0  0  0  0  0  0  0  0  0  0  0
   -3.8211    0.9686    0.9737 H   0  0  0  0  0  0  0  0  0  0  0  0
   -1.4175    0.1362   -0.0541 C   0  0  0  0  0  0  0  0  0  0  0  0
   -2.7144   -1.4427   -1.1216 H   0  0  0  0  0  0  0  0  0  0  0  0
   -2.5856   -1.1056    0.6586 H   0  0  0  0  0  0  0  0  0  0  0  0
   -0.1863   -0.6331    0.1531 C   0  0  0  0  0  0  0  0  0  0  0  0
   -1.3412    0.6666    0.7339 H   0  0  0  0  0  0  0  0  0  0  0  0
   -1.2844    1.0384   -1.0968 H   0  0  0  0  0  0  0  0  0  0  0  0
   -0.2678   -1.4054    1.1560 H   0  0  0  0  0  0  0  0  0  0  0  0
    0.6856   -0.1320   -0.0502 H   0  0  0  0  0  0  0  0  0  0  0  0
   -0.1457   -1.2293   -0.6808 H   0  0  0  0  0  0  0  0  0  0  0  0
  1  3  1  0  0  0  0
  1  5  1  0  0  0  0
  2  6  1  0  0  0  0
  2  1  1  0  0  0  0
  2  8  1  0  0  0  0
  4  1  1  0  0  0  0
  6  9  1  0  0  0  0
  6 10  1  0  0  0  0
  7  2  1  0  0  0  0
  9 12  1  0  0  0  0
 11  6  1  0  0  0  0
 13  9  1  0  0  0  0
 14  9  1  0  0  0  0
M  END
$$$$
