14
butane_opt
C  -3.962130   0.292947   0.123834
C  -2.662998  -0.661683  -0.043048
H  -4.856578  -0.209624   0.112245
H  -4.317993   0.792169  -0.615092
H  -3.924830   1.061471   1.060553
C  -1.372218   0.158251  -0.138667
H  -2.641491  -1.463073  -0.972164
H  -2.612830  -1.242719   0.696484
C  -0.192256  -0.644280   0.168403
H  -1.411486   0.557417   0.513729
H  -1.357565   0.965217  -1.164553
H  -0.339392  -1.101501   0.910337
H   0.664833  -0.082680   0.385796
H   0.045568  -1.489114  -0.811220
