butane_opt
 OpenBabel08242015383D

 14 12  0  0  0  0  0  0  0  0999 V2000
   -3.9380    0.2255   -0.0505 C   0  0  0  0  0  0  0  0  0  0  0  0
   -2.7006   -0.5570    0.1219 C   0  0  0  0  0  0  0  0  0  0  0  0
   -4.9410   -0.4844    0.0321 H   0  0  0  0  0  0  0  0  0  0  0  0
   -3.8024    0.9527   -0.9953 H   0  0  0  0  0  0  0  0  0  0  0  0
   -3.7373    0.8537    0.8066 H   0  0  0  0  0  0  0  0  0  0  0  0
   -1.4355    0.2109    0.0431 C   0  0  0  0  0  0  0  0  0  0  0  0
   -2.5534   -1.0558   -0.6753 H   0  0  0  0  0  0  0  0  0  0  0  0
   -2.8738   -1.5015    1.2512 H   0  0  0  0  0  0  0  0  0  0  0  0
   -0.1454   -0.7127   -0.0200 C   0  0  0  0  0  0  0  0  0  0  0  0
   -1.4440    0.9267    0.9006 H   0  0  0  0  0  0  0  0  0  0  0  0
   -1.5770    0.7851   -0.7819 H   0  0  0  0  0  0  0  0  0  0  0  0
   -0.2474   -1.0196    0.6193 H   0  0  0  0  0  0  0  0  0  0  0  0
    0.6942   -0.1284    0.2906 H   0  0  0  0  0  0  0  0  0  0  0  0
    0.0936   -1.8213   -1.1873 H   0  0  0  0  0  0  0  0  0  0  0  0
  1  3  1  0  0  0  0
  1  2  1  0  0  0  0
  1  5  1  0  0  0  0
  2  8  1  0  0  0  0
  4  1  1  0  0  0  0
  6  2  1  0  0  0  0
  6 10  1  0  0  0  0
  7  2  1  0  0  0  0
  9  6  1  0  0  0  0
  9 13  1  0  0  0  0
  9 12  1  0  0  0  0
 11  6  1  0  0  0  0
M  RAD  2   9   2  14   2
M  END
$$$$
