butane_opt
 OpenBabel08242015383D

 14 13  0  0  0  0  0  0  0  0999 V2000
   -3.9828    0.2611   -0.0374 C   0  0  0  0  0  0  0  0  0  0  0  0
   -2.7117   -0.5825    0.0816 C   0  0  0  0  0  0  0  0  0  0  0  0
   -4.8286   -0.3333    0.1172 H   0  0  0  0  0  0  0  0  0  0  0  0
   -3.9986    1.1905   -1.2072 H   0  0  0  0  0  0  0  0  0  0  0  0
   -4.0675    0.5880    0.6143 H   0  0  0  0  0  0  0  0  0  0  0  0
   -1.3815    0.1587    0.1202 C   0  0  0  0  0  0  0  0  0  0  0  0
   -2.6349   -1.3832   -0.8001 H   0  0  0  0  0  0  0  0  0  0  0  0
   -2.6205   -1.2954    1.0606 H   0  0  0  0  0  0  0  0  0  0  0  0
   -0.1402   -0.6870   -0.0333 C   0  0  0  0  0  0  0  0  0  0  0  0
   -1.2243    0.9325    1.0196 H   0  0  0  0  0  0  0  0  0  0  0  0
   -1.4779    0.7545   -0.6624 H   0  0  0  0  0  0  0  0  0  0  0  0
   -0.0508   -1.1568    0.8151 H   0  0  0  0  0  0  0  0  0  0  0  0
    0.7490   -0.1446   -0.1947 H   0  0  0  0  0  0  0  0  0  0  0  0
   -0.2519   -1.4165   -0.9489 H   0  0  0  0  0  0  0  0  0  0  0  0
  1  2  1  0  0  0  0
  1  3  1  0  0  0  0
  1  5  1  0  0  0  0
  2  6  1  0  0  0  0
  2  8  1  0  0  0  0
  4  1  1  0  0  0  0
  6 10  1  0  0  0  0
  7  2  1  0  0  0  0
  9  6  1  0  0  0  0
  9 12  1  0  0  0  0
 11  6  1  0  0  0  0
 13  9  1  0  0  0  0
 14  9  1  0  0  0  0
M  END
$$$$
