14
butane_opt
C  -3.950498   0.263428  -0.008095
C  -2.708098  -0.619453   0.050383
H  -4.831381  -0.313351   0.002182
H  -3.947666   0.874229  -0.909411
H  -4.025588   0.945760   0.872879
C  -1.410620   0.185725   0.042901
H  -2.683187  -1.250637  -0.730053
H  -2.769839  -1.263475   0.966329
C  -0.138526  -0.691718   0.012435
H  -1.380545   0.910087   0.929939
H  -1.372671   0.757967  -0.807362
H  -0.036038  -1.368146   0.931339
H   0.758595  -0.110061  -0.142962
H  -0.242163  -1.305583  -0.836751
