14
butane_opt
C  -3.966688   0.246489   0.070464
C  -2.721064  -0.624477   0.030236
H  -4.782512  -0.208594  -0.458025
H  -3.682380   0.392244  -0.546204
H  -4.202022   1.222623   1.210507
C  -1.380258   0.243143  -0.088498
H  -2.871829  -1.265841  -0.870348
H  -2.678851  -1.170198   0.903459
C  -0.129383  -0.725093   0.096271
H  -1.488119   0.792656   0.707670
H  -1.484815   0.973693  -0.996594
H  -0.122877  -1.497617   1.064734
H   0.751045  -0.117055  -0.129176
H  -0.098582  -1.284368  -0.701574
