butane_opt
 OpenBabel08242015383D

 14 12  0  0  0  0  0  0  0  0999 V2000
   -3.9459    0.2733    0.0822 C   0  0  0  0  0  0  0  0  0  0  0  0
   -2.6690   -0.6114   -0.0643 C   0  0  0  0  0  0  0  0  0  0  0  0
   -4.7806   -0.3040    0.0131 H   0  0  0  0  0  0  0  0  0  0  0  0
   -3.9812    0.7694   -0.6881 H   0  0  0  0  0  0  0  0  0  0  0  0
   -3.9107    1.2701    1.1941 H   0  0  0  0  0  0  0  0  0  0  0  0
   -1.3768    0.1048   -0.0277 C   0  0  0  0  0  0  0  0  0  0  0  0
   -2.7819   -1.5094   -1.0685 H   0  0  0  0  0  0  0  0  0  0  0  0
   -2.5982   -1.0720    0.7250 H   0  0  0  0  0  0  0  0  0  0  0  0
   -0.1980   -0.6588    0.1055 C   0  0  0  0  0  0  0  0  0  0  0  0
   -1.4889    0.6778    0.7192 H   0  0  0  0  0  0  0  0  0  0  0  0
   -1.4383    1.0088   -1.0249 H   0  0  0  0  0  0  0  0  0  0  0  0
   -0.1496   -1.6743    1.2122 H   0  0  0  0  0  0  0  0  0  0  0  0
    0.7913   -0.0066   -0.2567 H   0  0  0  0  0  0  0  0  0  0  0  0
   -0.4129   -0.9027   -0.4617 H   0  0  0  0  0  0  0  0  0  0  0  0
  1  5  1  0  0  0  0
  2  1  1  0  0  0  0
  2  8  1  0  0  0  0
  3  1  1  0  0  0  0
  4  1  1  0  0  0  0
  6  9  1  0  0  0  0
  6 10  1  0  0  0  0
  7  2  1  0  0  0  0
  9 12  1  0  0  0  0
 11  6  1  0  0  0  0
 13  9  1  0  0  0  0
 14  9  1  0  0  0  0
M  RAD  2   2   2   6   2
M  END
$$$$
