butane_opt
 OpenBabel08242015383D

 14 12  0  0  0  0  0  0  0  0999 V2000
   -3.9701    0.2871   -0.0473 C   0  0  0  0  0  0  0  0  0  0  0  0
   -2.7089   -0.6628    0.1268 C   0  0  0  0  0  0  0  0  0  0  0  0
   -4.7192   -0.2664    0.1872 H   0  0  0  0  0  0  0  0  0  0  0  0
   -3.9557    1.1527   -1.0887 H   0  0  0  0  0  0  0  0  0  0  0  0
   -4.1508    0.7229    0.6479 H   0  0  0  0  0  0  0  0  0  0  0  0
   -1.3881    0.1824    0.0200 C   0  0  0  0  0  0  0  0  0  0  0  0
   -2.7560   -1.2348   -0.6265 H   0  0  0  0  0  0  0  0  0  0  0  0
   -2.6861   -1.4599    1.1441 H   0  0  0  0  0  0  0  0  0  0  0  0
   -0.1138   -0.6642   -0.0164 C   0  0  0  0  0  0  0  0  0  0  0  0
   -1.3429    1.0005    0.9590 H   0  0  0  0  0  0  0  0  0  0  0  0
   -1.6103    0.6398   -0.6324 H   0  0  0  0  0  0  0  0  0  0  0  0
   -0.3029   -0.8784    0.5855 H   0  0  0  0  0  0  0  0  0  0  0  0
    0.7377   -0.1269    0.3648 H   0  0  0  0  0  0  0  0  0  0  0  0
   -0.0675   -1.7206   -1.1586 H   0  0  0  0  0  0  0  0  0  0  0  0
  1  2  1  0  0  0  0
  1  3  1  0  0  0  0
  1  5  1  0  0  0  0
  2  8  1  0  0  0  0
  4  1  1  0  0  0  0
  6  2  1  0  0  0  0
  6 10  1  0  0  0  0
  7  2  1  0  0  0  0
  9  6  1  0  0  0  0
  9 13  1  0  0  0  0
  9 12  1  0  0  0  0
 11  6  1  0  0  0  0
M  RAD  2   9   2  14   2
M  END
$$$$
