14
butane_opt
C  -3.990116   0.288887  -0.047224
C  -2.700984  -0.655738   0.063907
H  -4.796668  -0.253064   0.404648
H  -4.239121   1.304963  -1.128288
H  -3.998137   0.612093   0.533060
C  -1.370387   0.172217   0.083662
H  -2.640178  -1.345113  -0.767310
H  -2.623177  -1.438460   1.079848
C  -0.146755  -0.667041  -0.011859
H  -1.204920   1.061634   1.107440
H  -1.433155   0.571235  -0.689590
H  -0.130220  -1.027050   0.788291
H   0.698641  -0.086438  -0.063032
H  -0.152905  -1.515435  -0.957061
