butane_opt
 OpenBabel08242015383D

 14 13  0  0  0  0  0  0  0  0999 V2000
   -3.9417    0.2349   -0.0344 C   0  0  0  0  0  0  0  0  0  0  0  0
   -2.7059   -0.5884    0.0802 C   0  0  0  0  0  0  0  0  0  0  0  0
   -4.8876   -0.4089    0.2872 H   0  0  0  0  0  0  0  0  0  0  0  0
   -3.9529    1.1399   -1.1162 H   0  0  0  0  0  0  0  0  0  0  0  0
   -3.8598    0.6068    0.6642 H   0  0  0  0  0  0  0  0  0  0  0  0
   -1.4046    0.2319    0.0776 C   0  0  0  0  0  0  0  0  0  0  0  0
   -2.6717   -1.2701   -0.8856 H   0  0  0  0  0  0  0  0  0  0  0  0
   -2.7321   -1.1502    0.9339 H   0  0  0  0  0  0  0  0  0  0  0  0
   -0.1436   -0.7321   -0.0184 C   0  0  0  0  0  0  0  0  0  0  0  0
   -1.3120    0.9529    0.9633 H   0  0  0  0  0  0  0  0  0  0  0  0
   -1.7261    0.6883   -0.6417 H   0  0  0  0  0  0  0  0  0  0  0  0
   -0.0803   -1.3149    0.8985 H   0  0  0  0  0  0  0  0  0  0  0  0
    0.7626   -0.1042    0.0226 H   0  0  0  0  0  0  0  0  0  0  0  0
   -0.1959   -1.3727   -0.9474 H   0  0  0  0  0  0  0  0  0  0  0  0
  1  2  1  0  0  0  0
  1  3  1  0  0  0  0
  1  5  1  0  0  0  0
  2  8  1  0  0  0  0
  4  1  1  0  0  0  0
  6  2  1  0  0  0  0
  6 10  1  0  0  0  0
  7  2  1  0  0  0  0
  9 13  1  0  0  0  0
  9  6  1  0  0  0  0
  9 12  1  0  0  0  0
 11  6  1  0  0  0  0
 14  9  1  0  0  0  0
M  END
$$$$
