14
butane_opt
C  -3.876597   0.247266  -0.027276
C  -2.731379  -0.577414   0.130274
H  -4.917661  -0.486248  -0.318364
H  -3.698870   0.729384  -0.867351
H  -4.134556   1.094459   0.927056
C  -1.432658   0.206647   0.044709
H  -2.848799  -1.333142  -0.828408
H  -2.654753  -1.192199   0.955075
C  -0.154812  -0.737688   0.004915
H  -1.400912   0.911517   0.932535
H  -1.493121   0.897148  -0.919536
H  -0.128834  -1.363120   0.874948
H   0.837688  -0.122519  -0.274013
H  -0.215028  -1.286518  -0.865368
