14
butane_opt
C  -3.947257   0.322349   0.088957
C  -2.682924  -0.696638   0.033640
H  -4.811450  -0.189799  -0.576160
H  -3.906349   0.441953  -0.526452
H  -4.277475   1.276058   1.120274
C  -1.399513   0.170169  -0.079520
H  -2.927666  -1.386695  -0.882624
H  -2.541716  -1.217636   0.817155
C  -0.159933  -0.654139   0.089954
H  -1.444947   0.622294   0.696365
H  -1.378829   0.924604  -1.092350
H  -0.221178  -1.458501   1.077846
H   0.851528  -0.017738  -0.047712
H  -0.125243  -1.151228  -0.709625
