butane_opt
 OpenBabel08242015383D

 14 13  0  0  0  0  0  0  0  0999 V2000
   -3.9062    0.2775    0.0342 C   0  0  0  0  0  0  0  0  0  0  0  0
   -2.6822   -0.6392    0.0610 C   0  0  0  0  0  0  0  0  0  0  0  0
   -4.7855   -0.2002    0.0094 H   0  0  0  0  0  0  0  0  0  0  0  0
   -3.9513    1.0549   -1.0555 H   0  0  0  0  0  0  0  0  0  0  0  0
   -3.9776    0.8084    0.7468 H   0  0  0  0  0  0  0  0  0  0  0  0
   -1.4353    0.1609   -0.0078 C   0  0  0  0  0  0  0  0  0  0  0  0
   -2.6119   -1.3234   -0.7820 H   0  0  0  0  0  0  0  0  0  0  0  0
   -2.6093   -1.4142    1.1379 H   0  0  0  0  0  0  0  0  0  0  0  0
   -0.1843   -0.6618    0.0198 C   0  0  0  0  0  0  0  0  0  0  0  0
   -1.4328    0.8667    0.8570 H   0  0  0  0  0  0  0  0  0  0  0  0
   -1.3864    0.7103   -0.8593 H   0  0  0  0  0  0  0  0  0  0  0  0
   -0.3935   -0.9684    0.7254 H   0  0  0  0  0  0  0  0  0  0  0  0
    0.7472   -0.0625    0.3285 H   0  0  0  0  0  0  0  0  0  0  0  0
   -0.1242   -1.5821   -1.0121 H   0  0  0  0  0  0  0  0  0  0  0  0
  1  2  1  0  0  0  0
  1  5  1  0  0  0  0
  2  8  1  0  0  0  0
  3  1  1  0  0  0  0
  4  1  1  0  0  0  0
  6  9  1  0  0  0  0
  6  2  1  0  0  0  0
  6 10  1  0  0  0  0
  7  2  1  0  0  0  0
  9 13  1  0  0  0  0
  9 12  1  0  0  0  0
 11  6  1  0  0  0  0
 14  9  1  0  0  0  0
M  END
$$$$
