butane_opt
 OpenBabel08242015383D

 14 13  0  0  0  0  0  0  0  0999 V2000
   -3.9748    0.3025   -0.0813 C   0  0  0  0  0  0  0  0  0  0  0  0
   -2.6791   -0.6606    0.1920 C   0  0  0  0  0  0  0  0  0  0  0  0
   -4.8870   -0.2856   -0.2801 H   0  0  0  0  0  0  0  0  0  0  0  0
   -3.9281    0.7106   -0.8723 H   0  0  0  0  0  0  0  0  0  0  0  0
   -4.2607    1.1306    0.8015 H   0  0  0  0  0  0  0  0  0  0  0  0
   -1.3865    0.1718    0.0677 C   0  0  0  0  0  0  0  0  0  0  0  0
   -2.5769   -1.2506   -0.5787 H   0  0  0  0  0  0  0  0  0  0  0  0
   -2.8697   -1.3203    1.0754 H   0  0  0  0  0  0  0  0  0  0  0  0
   -0.1459   -0.6678   -0.0592 C   0  0  0  0  0  0  0  0  0  0  0  0
   -1.3415    0.7260    0.9240 H   0  0  0  0  0  0  0  0  0  0  0  0
   -1.4436    0.7586   -0.7918 H   0  0  0  0  0  0  0  0  0  0  0  0
   -0.1322   -1.2188    0.6851 H   0  0  0  0  0  0  0  0  0  0  0  0
    0.9194    0.0644    0.0928 H   0  0  0  0  0  0  0  0  0  0  0  0
   -0.2835   -1.5176   -1.0245 H   0  0  0  0  0  0  0  0  0  0  0  0
  1  2  1  0  0  0  0
  1  5  1  0  0  0  0
  2  8  1  0  0  0  0
  3  1  1  0  0  0  0
  4  1  1  0  0  0  0
  6  2  1  0  0  0  0
  6 10  1  0  0  0  0
  7  2  1  0  0  0  0
  9  6  1  0  0  0  0
  9 13  1  0  0  0  0
  9 12  1  0  0  0  0
 11  6  1  0  0  0  0
 14  9  1  0  0  0  0
M  END
$$$$
