14
butane_opt
C  -3.940536   0.250901   0.069691
C  -2.713152  -0.581898  -0.003603
H  -4.779800  -0.354482  -0.325623
H  -3.835970   0.526939  -0.581590
H  -3.910919   1.207164   1.120749
C  -1.414910   0.168123  -0.059034
H  -2.954243  -1.254235  -0.847367
H  -2.696275  -1.130063   0.872212
C  -0.146099  -0.707235   0.067111
H  -1.377622   0.892484   0.883070
H  -1.438111   0.899283  -1.033373
H  -0.200797  -1.625171   1.161811
H   0.755924  -0.141225  -0.108687
H  -0.028466  -1.052890  -0.549597
