butane_opt
 OpenBabel08242015383D

 14 13  0  0  0  0  0  0  0  0999 V2000
   -3.9356    0.2773    0.0449 C   0  0  0  0  0  0  0  0  0  0  0  0
   -2.7214   -0.6036    0.0301 C   0  0  0  0  0  0  0  0  0  0  0  0
   -4.9390   -0.3457   -0.0319 H   0  0  0  0  0  0  0  0  0  0  0  0
   -3.8731    0.7856   -0.8360 H   0  0  0  0  0  0  0  0  0  0  0  0
   -3.6854    0.8785    0.9699 H   0  0  0  0  0  0  0  0  0  0  0  0
   -1.3920    0.1660   -0.0507 C   0  0  0  0  0  0  0  0  0  0  0  0
   -2.7950   -1.1497   -0.6819 H   0  0  0  0  0  0  0  0  0  0  0  0
   -2.6182   -1.2660    0.9764 H   0  0  0  0  0  0  0  0  0  0  0  0
   -0.1681   -0.7118    0.0406 C   0  0  0  0  0  0  0  0  0  0  0  0
   -1.4173    0.8477    0.7635 H   0  0  0  0  0  0  0  0  0  0  0  0
   -1.4921    0.9138   -0.9429 H   0  0  0  0  0  0  0  0  0  0  0  0
   -0.4323   -1.0981    0.8192 H   0  0  0  0  0  0  0  0  0  0  0  0
    0.7077   -0.0839    0.4936 H   0  0  0  0  0  0  0  0  0  0  0  0
    0.1120   -1.5149   -0.9040 H   0  0  0  0  0  0  0  0  0  0  0  0
  1  5  1  0  0  0  0
  2  1  1  0  0  0  0
  2  8  1  0  0  0  0
  3  1  1  0  0  0  0
  4  1  1  0  0  0  0
  6  2  1  0  0  0  0
  6  9  1  0  0  0  0
  6 10  1  0  0  0  0
  7  2  1  0  0  0  0
  9 13  1  0  0  0  0
  9 12  1  0  0  0  0
 11  6  1  0  0  0  0
 14  9  1  0  0  0  0
M  END
$$$$
