butane_opt
 OpenBabel08242015383D

 14 12  0  0  0  0  0  0  0  0999 V2000
   -3.9671    0.2855   -0.0238 C   0  0  0  0  0  0  0  0  0  0  0  0
   -2.6939   -0.6415    0.1428 C   0  0  0  0  0  0  0  0  0  0  0  0
   -4.7572   -0.1703    0.0069 H   0  0  0  0  0  0  0  0  0  0  0  0
   -4.0514    1.1724   -1.1001 H   0  0  0  0  0  0  0  0  0  0  0  0
   -4.1214    0.7033    0.6453 H   0  0  0  0  0  0  0  0  0  0  0  0
   -1.3692    0.1570    0.0324 C   0  0  0  0  0  0  0  0  0  0  0  0
   -2.8562   -1.4209   -0.7328 H   0  0  0  0  0  0  0  0  0  0  0  0
   -2.6043   -1.4025    1.0661 H   0  0  0  0  0  0  0  0  0  0  0  0
   -0.1451   -0.6564   -0.0264 C   0  0  0  0  0  0  0  0  0  0  0  0
   -1.3746    0.8361    0.8523 H   0  0  0  0  0  0  0  0  0  0  0  0
   -1.4284    0.7840   -0.8583 H   0  0  0  0  0  0  0  0  0  0  0  0
   -0.3364   -0.8102    0.6414 H   0  0  0  0  0  0  0  0  0  0  0  0
    0.6733   -0.0790    0.4491 H   0  0  0  0  0  0  0  0  0  0  0  0
   -0.0672   -1.8091   -1.1274 H   0  0  0  0  0  0  0  0  0  0  0  0
  1  3  1  0  0  0  0
  1  2  1  0  0  0  0
  1  5  1  0  0  0  0
  2  8  1  0  0  0  0
  4  1  1  0  0  0  0
  6  2  1  0  0  0  0
  6 10  1  0  0  0  0
  7  2  1  0  0  0  0
  9  6  1  0  0  0  0
  9 13  1  0  0  0  0
  9 12  1  0  0  0  0
 11  6  1  0  0  0  0
M  RAD  2   9   2  14   2
M  END
$$$$
