butane_opt
 OpenBabel08242015383D

 14 13  0  0  0  0  0  0  0  0999 V2000
   -3.9692    0.2513    0.0741 C   0  0  0  0  0  0  0  0  0  0  0  0
   -2.7321   -0.5930    0.0085 C   0  0  0  0  0  0  0  0  0  0  0  0
   -4.9203   -0.2993   -0.0964 H   0  0  0  0  0  0  0  0  0  0  0  0
   -3.9267    0.5889   -0.6379 H   0  0  0  0  0  0  0  0  0  0  0  0
   -4.0168    1.0260    0.9736 H   0  0  0  0  0  0  0  0  0  0  0  0
   -1.4060    0.1993   -0.0464 C   0  0  0  0  0  0  0  0  0  0  0  0
   -2.6781   -1.4420   -1.0188 H   0  0  0  0  0  0  0  0  0  0  0  0
   -2.6197   -1.0332    0.6985 H   0  0  0  0  0  0  0  0  0  0  0  0
   -0.1104   -0.6828    0.0878 C   0  0  0  0  0  0  0  0  0  0  0  0
   -1.4400    0.7595    0.7631 H   0  0  0  0  0  0  0  0  0  0  0  0
   -1.3562    0.8087   -0.9953 H   0  0  0  0  0  0  0  0  0  0  0  0
   -0.0816   -1.6456    1.1577 H   0  0  0  0  0  0  0  0  0  0  0  0
    0.6498   -0.2139   -0.2359 H   0  0  0  0  0  0  0  0  0  0  0  0
   -0.0230   -1.1287   -0.6098 H   0  0  0  0  0  0  0  0  0  0  0  0
  1  5  1  0  0  0  0
  2  1  1  0  0  0  0
  2  8  1  0  0  0  0
  3  1  1  0  0  0  0
  4  1  1  0  0  0  0
  6  2  1  0  0  0  0
  6  9  1  0  0  0  0
  6 10  1  0  0  0  0
  7  2  1  0  0  0  0
  9 12  1  0  0  0  0
 11  6  1  0  0  0  0
 13  9  1  0  0  0  0
 14  9  1  0  0  0  0
M  END
$$$$
