14
butane_opt
C  -3.981229   0.309277   0.064067
C  -2.671432  -0.679419  -0.038714
H  -4.852578  -0.269564   0.077173
H  -3.993221   0.799036  -0.700480
H  -3.981043   1.107028   0.967537
C  -1.402013   0.153202  -0.039262
H  -2.633200  -1.348888  -0.886631
H  -2.681204  -1.288126   0.793226
C  -0.183004  -0.658253   0.107142
H  -1.418486   0.863139   0.857160
H  -1.219793   0.700443  -0.860031
H   0.061836  -1.439503   1.009887
H   0.776709  -0.072542  -0.313678
H  -0.260439  -0.990997  -0.580316
