butane_opt
 OpenBabel08242015383D

 14 13  0  0  0  0  0  0  0  0999 V2000
   -3.9639    0.2526   -0.0706 C   0  0  0  0  0  0  0  0  0  0  0  0
   -2.6902   -0.6432    0.1571 C   0  0  0  0  0  0  0  0  0  0  0  0
   -4.9061   -0.3016    0.1554 H   0  0  0  0  0  0  0  0  0  0  0  0
   -3.9741    1.0979   -1.1207 H   0  0  0  0  0  0  0  0  0  0  0  0
   -4.0375    0.7277    0.6616 H   0  0  0  0  0  0  0  0  0  0  0  0
   -1.4164    0.1985    0.0731 C   0  0  0  0  0  0  0  0  0  0  0  0
   -2.7084   -1.1979   -0.6700 H   0  0  0  0  0  0  0  0  0  0  0  0
   -2.8493   -1.2213    1.1098 H   0  0  0  0  0  0  0  0  0  0  0  0
   -0.1503   -0.6874   -0.0718 C   0  0  0  0  0  0  0  0  0  0  0  0
   -1.3246    1.0718    1.0784 H   0  0  0  0  0  0  0  0  0  0  0  0
   -1.4269    0.7784   -0.7726 H   0  0  0  0  0  0  0  0  0  0  0  0
   -0.0624   -1.1432    0.6789 H   0  0  0  0  0  0  0  0  0  0  0  0
    0.7220   -0.1592    0.3470 H   0  0  0  0  0  0  0  0  0  0  0  0
    0.1793   -1.5950   -1.1172 H   0  0  0  0  0  0  0  0  0  0  0  0
  1  3  1  0  0  0  0
  1  2  1  0  0  0  0
  1  5  1  0  0  0  0
  2  8  1  0  0  0  0
  4  1  1  0  0  0  0
  6  2  1  0  0  0  0
  6 10  1  0  0  0  0
  7  2  1  0  0  0  0
  9  6  1  0  0  0  0
  9 13  1  0  0  0  0
  9 12  1  0  0  0  0
 11  6  1  0  0  0  0
 14  9  1  0  0  0  0
M  END
$$$$
