14
butane_opt
C  -3.927684   0.253433  -0.019045
C  -2.691930  -0.632797   0.037044
H  -4.851643  -0.351259  -0.032320
H  -4.037402   0.811552  -0.913321
H  -3.781757   0.978954   0.865130
C  -1.399268   0.231081   0.099791
H  -2.563969  -1.175156  -0.747437
H  -2.771746  -1.224663   0.927276
C  -0.192889  -0.715893  -0.022460
H  -1.423851   0.984712   0.958256
H  -1.369476   0.744082  -0.795919
H  -0.022929  -1.659102   1.072153
H   0.642395  -0.083985  -0.330943
H  -0.291376  -1.136210  -0.679621
