14
butane_opt
C  -3.954786   0.268832   0.030699
C  -2.689737  -0.627387   0.012510
H  -4.856896  -0.315406   0.195421
H  -4.027308   0.997131  -0.941958
H  -3.947360   0.858374   0.838500
C  -1.402796   0.193250   0.011277
H  -2.690655  -1.361300  -0.870765
H  -2.713570  -1.260153   0.908626
C  -0.158733  -0.689599   0.047228
H  -1.391660   0.825069   0.866686
H  -1.316276   0.825765  -0.887181
H  -0.146863  -1.273592   0.925840
H   0.729383  -0.090431   0.015951
H  -0.184139  -1.411773  -0.844753
