butane_opt
 OpenBabel08242015383D

 14 13  0  0  0  0  0  0  0  0999 V2000
   -3.9292    0.2086   -0.0041 C   0  0  0  0  0  0  0  0  0  0  0  0
   -2.6823   -0.5546    0.0733 C   0  0  0  0  0  0  0  0  0  0  0  0
   -4.9023   -0.4496   -0.0175 H   0  0  0  0  0  0  0  0  0  0  0  0
   -3.9173    0.9590   -0.9685 H   0  0  0  0  0  0  0  0  0  0  0  0
   -3.8193    0.8164    0.8778 H   0  0  0  0  0  0  0  0  0  0  0  0
   -1.4146    0.2192   -0.0004 C   0  0  0  0  0  0  0  0  0  0  0  0
   -2.6049   -1.1000   -0.6169 H   0  0  0  0  0  0  0  0  0  0  0  0
   -2.8168   -1.4262    1.2295 H   0  0  0  0  0  0  0  0  0  0  0  0
   -0.1728   -0.7225    0.0022 C   0  0  0  0  0  0  0  0  0  0  0  0
   -1.5283    0.9839    0.9122 H   0  0  0  0  0  0  0  0  0  0  0  0
   -1.4477    0.8464   -0.9013 H   0  0  0  0  0  0  0  0  0  0  0  0
   -0.1798   -0.9602    0.7149 H   0  0  0  0  0  0  0  0  0  0  0  0
    0.5535   -0.2702    0.4144 H   0  0  0  0  0  0  0  0  0  0  0  0
    0.0555   -1.7209   -1.1155 H   0  0  0  0  0  0  0  0  0  0  0  0
  1  2  1  0  0  0  0
  1  5  1  0  0  0  0
  2  8  1  0  0  0  0
  3  1  1  0  0  0  0
  4  1  1  0  0  0  0
  6  9  1  0  0  0  0
  6  2  1  0  0  0  0
  6 10  1  0  0  0  0
  7  2  1  0  0  0  0
  9 13  1  0  0  0  0
  9 12  1  0  0  0  0
 11  6  1  0  0  0  0
 14  9  1  0  0  0  0
M  END
$$$$
