14
butane_opt
C  -3.942188   0.299293  -0.080927
C  -2.669763  -0.626187   0.161347
H  -4.909229  -0.325753   0.037602
H  -3.920823   1.032947  -1.009213
H  -4.109045   0.711562   0.555562
C  -1.373990   0.127395   0.118293
H  -2.549148  -1.352942  -0.772063
H  -2.719159  -1.140673   0.944100
C  -0.210253  -0.665661  -0.078100
H  -1.326358   0.910737   1.018555
H  -1.474677   0.672096  -0.619009
H  -0.027719  -1.281354   0.828352
H   0.766765  -0.022010  -0.099843
H  -0.400396  -1.300007  -0.890407
