butane_opt
 OpenBabel08242015383D

 14 13  0  0  0  0  0  0  0  0999 V2000
   -3.9524    0.2498    0.0624 C   0  0  0  0  0  0  0  0  0  0  0  0
   -2.7134   -0.6313   -0.0621 C   0  0  0  0  0  0  0  0  0  0  0  0
   -4.8871   -0.3863    0.5043 H   0  0  0  0  0  0  0  0  0  0  0  0
   -4.1889    1.0173   -0.9330 H   0  0  0  0  0  0  0  0  0  0  0  0
   -3.8021    0.8753    0.8189 H   0  0  0  0  0  0  0  0  0  0  0  0
   -1.4195    0.2250    0.0168 C   0  0  0  0  0  0  0  0  0  0  0  0
   -2.8588   -1.4118   -0.9260 H   0  0  0  0  0  0  0  0  0  0  0  0
   -2.7633   -1.0542    0.6736 H   0  0  0  0  0  0  0  0  0  0  0  0
   -0.0981   -0.7099    0.0785 C   0  0  0  0  0  0  0  0  0  0  0  0
   -1.4624    0.7445    0.7466 H   0  0  0  0  0  0  0  0  0  0  0  0
   -1.4570    0.9509   -0.9612 H   0  0  0  0  0  0  0  0  0  0  0  0
   -0.0503   -1.4073    1.0396 H   0  0  0  0  0  0  0  0  0  0  0  0
    0.7133   -0.1515    0.0272 H   0  0  0  0  0  0  0  0  0  0  0  0
   -0.0632   -1.2505   -0.6803 H   0  0  0  0  0  0  0  0  0  0  0  0
  1  3  1  0  0  0  0
  1  5  1  0  0  0  0
  2  6  1  0  0  0  0
  2  1  1  0  0  0  0
  2  8  1  0  0  0  0
  4  1  1  0  0  0  0
  6  9  1  0  0  0  0
  6 10  1  0  0  0  0
  7  2  1  0  0  0  0
  9 12  1  0  0  0  0
 11  6  1  0  0  0  0
 13  9  1  0  0  0  0
 14  9  1  0  0  0  0
M  END
$$$$
