14
butane_opt
C  -3.928850   0.311793  -0.062138
C  -2.684774  -0.654277   0.112482
H  -4.782717  -0.266428   0.232468
H  -3.948983   1.157966  -1.120064
H  -3.964430   0.640515   0.653036
C  -1.402922   0.164547   0.077826
H  -2.740037  -1.278125  -0.631348
H  -2.815124  -1.530166   1.186703
C  -0.167940  -0.670074  -0.066978
H  -1.437622   0.968654   1.090501
H  -1.390371   0.649159  -0.694575
H  -0.308576  -0.984543   0.682713
H   0.732620  -0.083117   0.351580
H  -0.176276  -1.541050  -1.106618
