butane_opt
 OpenBabel08242015383D

 14 13  0  0  0  0  0  0  0  0999 V2000
   -3.9196    0.2869   -0.0988 C   0  0  0  0  0  0  0  0  0  0  0  0
   -2.6878   -0.6594    0.1358 C   0  0  0  0  0  0  0  0  0  0  0  0
   -4.8602   -0.3519   -0.1608 H   0  0  0  0  0  0  0  0  0  0  0  0
   -3.9169    0.7726   -0.9973 H   0  0  0  0  0  0  0  0  0  0  0  0
   -4.0118    1.0231    0.8368 H   0  0  0  0  0  0  0  0  0  0  0  0
   -1.4246    0.1804    0.1310 C   0  0  0  0  0  0  0  0  0  0  0  0
   -2.3558   -1.1720   -0.5567 H   0  0  0  0  0  0  0  0  0  0  0  0
   -2.8160   -1.2863    1.1333 H   0  0  0  0  0  0  0  0  0  0  0  0
   -0.1987   -0.6693   -0.0530 C   0  0  0  0  0  0  0  0  0  0  0  0
   -1.3093    0.9746    1.0714 H   0  0  0  0  0  0  0  0  0  0  0  0
   -1.5110    0.6733   -0.6823 H   0  0  0  0  0  0  0  0  0  0  0  0
    0.0319   -1.4068    0.8447 H   0  0  0  0  0  0  0  0  0  0  0  0
    0.7708   -0.0516   -0.4721 H   0  0  0  0  0  0  0  0  0  0  0  0
   -0.2896   -1.3047   -0.9400 H   0  0  0  0  0  0  0  0  0  0  0  0
  1  2  1  0  0  0  0
  1  5  1  0  0  0  0
  2  8  1  0  0  0  0
  3  1  1  0  0  0  0
  4  1  1  0  0  0  0
  6  2  1  0  0  0  0
  6 10  1  0  0  0  0
  7  2  1  0  0  0  0
  9  6  1  0  0  0  0
  9 12  1  0  0  0  0
 11  6  1  0  0  0  0
 13  9  1  0  0  0  0
 14  9  1  0  0  0  0
M  END
$$$$
