butane_opt
 OpenBabel08242015383D

 14 13  0  0  0  0  0  0  0  0999 V2000
   -3.8967    0.2163   -0.0483 C   0  0  0  0  0  0  0  0  0  0  0  0
   -2.7277   -0.5620    0.0721 C   0  0  0  0  0  0  0  0  0  0  0  0
   -4.7217   -0.3911    0.3834 H   0  0  0  0  0  0  0  0  0  0  0  0
   -3.9166    1.1541   -1.1470 H   0  0  0  0  0  0  0  0  0  0  0  0
   -3.9292    0.5632    0.5729 H   0  0  0  0  0  0  0  0  0  0  0  0
   -1.4517    0.2289    0.0861 C   0  0  0  0  0  0  0  0  0  0  0  0
   -2.8082   -1.1494   -0.6982 H   0  0  0  0  0  0  0  0  0  0  0  0
   -2.6276   -1.4040    1.1034 H   0  0  0  0  0  0  0  0  0  0  0  0
   -0.1486   -0.7289   -0.0477 C   0  0  0  0  0  0  0  0  0  0  0  0
   -1.4658    1.0553    1.0468 H   0  0  0  0  0  0  0  0  0  0  0  0
   -1.5098    0.6871   -0.5720 H   0  0  0  0  0  0  0  0  0  0  0  0
   -0.0693   -1.1127    0.7145 H   0  0  0  0  0  0  0  0  0  0  0  0
    0.7138   -0.1830    0.1764 H   0  0  0  0  0  0  0  0  0  0  0  0
    0.0153   -1.5334   -0.9488 H   0  0  0  0  0  0  0  0  0  0  0  0
  1  2  1  0  0  0  0
  1  3  1  0  0  0  0
  1  5  1  0  0  0  0
  2  6  1  0  0  0  0
  2  8  1  0  0  0  0
  4  1  1  0  0  0  0
  6 10  1  0  0  0  0
  7  2  1  0  0  0  0
  9  6  1  0  0  0  0
  9 13  1  0  0  0  0
  9 12  1  0  0  0  0
 11  6  1  0  0  0  0
 14  9  1  0  0  0  0
M  END
$$$$
