14
butane_opt
C  -3.938335   0.269252  -0.019043
C  -2.698857  -0.616817   0.068694
H  -4.874727  -0.343062  -0.000331
H  -3.908928   0.857634  -0.911361
H  -3.959912   0.968741   0.855561
C  -1.406503   0.184094   0.049221
H  -2.631148  -1.259782  -0.766914
H  -2.734644  -1.288265   0.991431
C  -0.172071  -0.691581   0.005353
H  -1.333438   0.864215   0.896893
H  -1.448672   0.759941  -0.808972
H  -0.082749  -1.326929   0.907426
H   0.774701  -0.091536  -0.093759
H  -0.236426  -1.347533  -0.866955
