butane_opt
 OpenBabel08242015383D

 14 13  0  0  0  0  0  0  0  0999 V2000
   -3.8766    0.2473   -0.0273 C   0  0  0  0  0  0  0  0  0  0  0  0
   -2.7314   -0.5774    0.1303 C   0  0  0  0  0  0  0  0  0  0  0  0
   -4.9177   -0.4862   -0.3184 H   0  0  0  0  0  0  0  0  0  0  0  0
   -3.6989    0.7294   -0.8674 H   0  0  0  0  0  0  0  0  0  0  0  0
   -4.1346    1.0945    0.9271 H   0  0  0  0  0  0  0  0  0  0  0  0
   -1.4327    0.2066    0.0447 C   0  0  0  0  0  0  0  0  0  0  0  0
   -2.8488   -1.3331   -0.8284 H   0  0  0  0  0  0  0  0  0  0  0  0
   -2.6548   -1.1922    0.9551 H   0  0  0  0  0  0  0  0  0  0  0  0
   -0.1548   -0.7377    0.0049 C   0  0  0  0  0  0  0  0  0  0  0  0
   -1.4009    0.9115    0.9325 H   0  0  0  0  0  0  0  0  0  0  0  0
   -1.4931    0.8971   -0.9195 H   0  0  0  0  0  0  0  0  0  0  0  0
   -0.1288   -1.3631    0.8749 H   0  0  0  0  0  0  0  0  0  0  0  0
    0.8377   -0.1225   -0.2740 H   0  0  0  0  0  0  0  0  0  0  0  0
   -0.2150   -1.2865   -0.8654 H   0  0  0  0  0  0  0  0  0  0  0  0
  1  2  1  0  0  0  0
  1  5  1  0  0  0  0
  2  8  1  0  0  0  0
  3  1  1  0  0  0  0
  4  1  1  0  0  0  0
  6  2  1  0  0  0  0
  6 10  1  0  0  0  0
  7  2  1  0  0  0  0
  9  6  1  0  0  0  0
  9 12  1  0  0  0  0
 11  6  1  0  0  0  0
 13  9  1  0  0  0  0
 14  9  1  0  0  0  0
M  END
$$$$
