butane_opt
 OpenBabel08242015383D

 14 13  0  0  0  0  0  0  0  0999 V2000
   -3.9351    0.2283   -0.0790 C   0  0  0  0  0  0  0  0  0  0  0  0
   -2.7154   -0.5849    0.1372 C   0  0  0  0  0  0  0  0  0  0  0  0
   -4.8903   -0.4241    0.0005 H   0  0  0  0  0  0  0  0  0  0  0  0
   -3.9975    1.0821   -1.1723 H   0  0  0  0  0  0  0  0  0  0  0  0
   -4.0252    0.6640    0.6273 H   0  0  0  0  0  0  0  0  0  0  0  0
   -1.4064    0.2402    0.1343 C   0  0  0  0  0  0  0  0  0  0  0  0
   -2.5046   -1.3436   -0.7473 H   0  0  0  0  0  0  0  0  0  0  0  0
   -2.8365   -1.2307    1.0827 H   0  0  0  0  0  0  0  0  0  0  0  0
   -0.1531   -0.7297   -0.0721 C   0  0  0  0  0  0  0  0  0  0  0  0
   -1.2798    1.1989    1.1967 H   0  0  0  0  0  0  0  0  0  0  0  0
   -1.5434    0.6752   -0.6074 H   0  0  0  0  0  0  0  0  0  0  0  0
    0.1125   -1.4587    0.8271 H   0  0  0  0  0  0  0  0  0  0  0  0
    0.7422   -0.2410   -0.3198 H   0  0  0  0  0  0  0  0  0  0  0  0
   -0.2428   -1.2450   -0.8970 H   0  0  0  0  0  0  0  0  0  0  0  0
  1  3  1  0  0  0  0
  1  2  1  0  0  0  0
  1  5  1  0  0  0  0
  2  8  1  0  0  0  0
  4  1  1  0  0  0  0
  6  2  1  0  0  0  0
  6 10  1  0  0  0  0
  7  2  1  0  0  0  0
  9  6  1  0  0  0  0
  9 12  1  0  0  0  0
 11  6  1  0  0  0  0
 13  9  1  0  0  0  0
 14  9  1  0  0  0  0
M  END
$$$$
