14
butane_opt
C  -3.887974   0.227143  -0.052657
C  -2.698196  -0.564142   0.136214
H  -4.840001  -0.383165  -0.308177
H  -3.696651   0.626741  -0.852110
H  -3.987636   1.020765   0.927440
C  -1.447831   0.228035   0.082490
H  -2.742143  -1.236204  -0.785126
H  -2.845853  -1.371769   1.152226
C  -0.149362  -0.722120  -0.026432
H  -1.428669   0.806754   0.841929
H  -1.642988   0.983675  -0.889929
H  -0.190291  -1.259044   0.759011
H   0.683360  -0.242208  -0.101189
H  -0.115383  -1.457433  -0.971289
