butane_opt
 OpenBabel08242015383D

 14 13  0  0  0  0  0  0  0  0999 V2000
   -3.9579    0.2958    0.0336 C   0  0  0  0  0  0  0  0  0  0  0  0
   -2.6488   -0.6604    0.0133 C   0  0  0  0  0  0  0  0  0  0  0  0
   -4.8163   -0.2440    0.1639 H   0  0  0  0  0  0  0  0  0  0  0  0
   -4.1280    0.9741   -0.9240 H   0  0  0  0  0  0  0  0  0  0  0  0
   -3.7033    0.8696    0.8346 H   0  0  0  0  0  0  0  0  0  0  0  0
   -1.3733    0.1641   -0.0072 C   0  0  0  0  0  0  0  0  0  0  0  0
   -2.5688   -1.2473   -0.8080 H   0  0  0  0  0  0  0  0  0  0  0  0
   -2.6649   -1.3717    1.0094 H   0  0  0  0  0  0  0  0  0  0  0  0
   -0.2229   -0.6645    0.0282 C   0  0  0  0  0  0  0  0  0  0  0  0
   -1.5242    0.7805    0.8361 H   0  0  0  0  0  0  0  0  0  0  0  0
   -1.3397    0.7464   -0.8008 H   0  0  0  0  0  0  0  0  0  0  0  0
   -0.3857   -1.1714    0.8541 H   0  0  0  0  0  0  0  0  0  0  0  0
    0.6419    0.0063    0.2718 H   0  0  0  0  0  0  0  0  0  0  0  0
   -0.1106   -1.4247   -0.8516 H   0  0  0  0  0  0  0  0  0  0  0  0
  1  3  1  0  0  0  0
  1  5  1  0  0  0  0
  2  1  1  0  0  0  0
  2  8  1  0  0  0  0
  4  1  1  0  0  0  0
  6  2  1  0  0  0  0
  6  9  1  0  0  0  0
  6 10  1  0  0  0  0
  7  2  1  0  0  0  0
  9 13  1  0  0  0  0
  9 12  1  0  0  0  0
 11  6  1  0  0  0  0
 14  9  1  0  0  0  0
M  END
$$$$
