14
butane_opt
C  -3.944076   0.243429  -0.087615
C  -2.723908  -0.572342   0.201251
H  -4.931882  -0.536154  -0.436054
H  -3.551753   0.590558  -0.797857
H  -4.137117   1.080406   0.861859
C  -1.417638   0.203889   0.079989
H  -2.619865  -1.168925  -0.560408
H  -2.735706  -1.247739   1.049892
C  -0.125323  -0.713674  -0.059412
H  -1.500619   0.863153   0.927460
H  -1.469437   0.949456  -0.847839
H   0.053252  -1.203344   0.755355
H   0.644776  -0.270506  -0.099906
H  -0.231218  -1.506032  -1.014979
