14
butane_opt
C  -3.924595   0.248005   0.017759
C  -2.725692  -0.579002   0.038072
H  -4.955166  -0.462801  -0.053964
H  -3.924756   0.637319  -0.764906
H  -4.017828   0.964110   0.884342
C  -1.408711   0.219135  -0.008607
H  -2.941914  -1.209001  -0.858324
H  -2.681626  -1.224613   0.900189
C  -0.146724  -0.719896   0.042692
H  -1.298933   1.081488   0.934182
H  -1.383705   0.820502  -0.820947
H  -0.006397  -1.527435   1.097715
H   0.674743  -0.338256  -0.219293
H   0.004187  -1.273096  -0.723126
