14
butane_opt
C  -3.957547   0.223083  -0.041003
C  -2.711824  -0.593823   0.117402
H  -4.747604  -0.252000  -0.163275
H  -3.716943   0.701356  -0.795201
H  -4.111982   0.963348   0.845548
C  -1.434155   0.239887   0.052226
H  -2.781920  -1.129732  -0.657476
H  -2.754225  -1.297190   1.029266
C  -0.124300  -0.737952  -0.038513
H  -1.318688   0.936082   0.868070
H  -1.488808   0.853491  -0.779684
H  -0.160624  -1.287089   0.829493
H   0.808339  -0.133466   0.069123
H  -0.019008  -1.408618  -0.874598
