14
butane_opt
C  -3.925512   0.229121  -0.022360
C  -2.719676  -0.598282   0.074861
H  -4.878913  -0.386599   0.336832
H  -4.024250   1.252414  -1.136120
H  -3.866230   0.544868   0.573703
C  -1.432652   0.229700   0.084701
H  -2.616161  -1.259228  -0.806430
H  -2.725873  -1.158311   0.959738
C  -0.147277  -0.690669  -0.025194
H  -1.186729   0.937090   0.899788
H  -1.526496   0.723636  -0.746637
H  -0.113023  -1.278612   0.833262
H   0.629608  -0.287767   0.231817
H   0.006764  -1.626132  -1.079152
