butane_opt
 OpenBabel08242015383D

 14 13  0  0  0  0  0  0  0  0999 V2000
   -3.9797    0.2576    0.0130 C   0  0  0  0  0  0  0  0  0  0  0  0
   -2.7069   -0.5948    0.0789 C   0  0  0  0  0  0  0  0  0  0  0  0
   -4.9486   -0.4125   -0.3513 H   0  0  0  0  0  0  0  0  0  0  0  0
   -3.6753    0.4464   -0.6277 H   0  0  0  0  0  0  0  0  0  0  0  0
   -4.0593    1.2396    1.0620 H   0  0  0  0  0  0  0  0  0  0  0  0
   -1.3936    0.2233   -0.0165 C   0  0  0  0  0  0  0  0  0  0  0  0
   -2.7348   -1.1918   -0.7539 H   0  0  0  0  0  0  0  0  0  0  0  0
   -2.8277   -1.1719    0.9668 H   0  0  0  0  0  0  0  0  0  0  0  0
   -0.1452   -0.7261    0.0583 C   0  0  0  0  0  0  0  0  0  0  0  0
   -1.3944    0.7457    0.6769 H   0  0  0  0  0  0  0  0  0  0  0  0
   -1.3234    0.8783   -1.0216 H   0  0  0  0  0  0  0  0  0  0  0  0
    0.0206   -1.4158    0.9884 H   0  0  0  0  0  0  0  0  0  0  0  0
    0.8095   -0.0964   -0.1210 H   0  0  0  0  0  0  0  0  0  0  0  0
   -0.1950   -1.4325   -0.9298 H   0  0  0  0  0  0  0  0  0  0  0  0
  1  2  1  0  0  0  0
  1  5  1  0  0  0  0
  2  8  1  0  0  0  0
  3  1  1  0  0  0  0
  4  1  1  0  0  0  0
  6  9  1  0  0  0  0
  6  2  1  0  0  0  0
  6 10  1  0  0  0  0
  7  2  1  0  0  0  0
  9 12  1  0  0  0  0
 11  6  1  0  0  0  0
 13  9  1  0  0  0  0
 14  9  1  0  0  0  0
M  END
$$$$
