butane_opt
 OpenBabel08242015383D

 14 13  0  0  0  0  0  0  0  0999 V2000
   -3.9460    0.2510   -0.0185 C   0  0  0  0  0  0  0  0  0  0  0  0
   -2.6924   -0.5957    0.0718 C   0  0  0  0  0  0  0  0  0  0  0  0
   -4.8758   -0.3585    0.0009 H   0  0  0  0  0  0  0  0  0  0  0  0
   -3.9042    0.9074   -0.9690 H   0  0  0  0  0  0  0  0  0  0  0  0
   -3.9807    0.9283    0.8142 H   0  0  0  0  0  0  0  0  0  0  0  0
   -1.4051    0.1855    0.0623 C   0  0  0  0  0  0  0  0  0  0  0  0
   -2.6652   -1.2927   -0.7810 H   0  0  0  0  0  0  0  0  0  0  0  0
   -2.7554   -1.2564    0.9924 H   0  0  0  0  0  0  0  0  0  0  0  0
   -0.1603   -0.6964   -0.0147 C   0  0  0  0  0  0  0  0  0  0  0  0
   -1.3754    0.9206    0.9723 H   0  0  0  0  0  0  0  0  0  0  0  0
   -1.4639    0.7516   -0.7850 H   0  0  0  0  0  0  0  0  0  0  0  0
   -0.0667   -1.4150    0.9351 H   0  0  0  0  0  0  0  0  0  0  0  0
    0.7245   -0.0962   -0.1091 H   0  0  0  0  0  0  0  0  0  0  0  0
   -0.2109   -1.2914   -0.8290 H   0  0  0  0  0  0  0  0  0  0  0  0
  1  3  1  0  0  0  0
  1  2  1  0  0  0  0
  1  5  1  0  0  0  0
  2  8  1  0  0  0  0
  4  1  1  0  0  0  0
  6  2  1  0  0  0  0
  6 10  1  0  0  0  0
  7  2  1  0  0  0  0
  9  6  1  0  0  0  0
  9 12  1  0  0  0  0
 11  6  1  0  0  0  0
 13  9  1  0  0  0  0
 14  9  1  0  0  0  0
M  END
$$$$
