butane_opt
 OpenBabel08242015383D

 14 13  0  0  0  0  0  0  0  0999 V2000
   -3.8829    0.2341   -0.0374 C   0  0  0  0  0  0  0  0  0  0  0  0
   -2.7091   -0.5874    0.0449 C   0  0  0  0  0  0  0  0  0  0  0  0
   -4.7901   -0.3629    0.0461 H   0  0  0  0  0  0  0  0  0  0  0  0
   -3.9207    0.9880   -1.0370 H   0  0  0  0  0  0  0  0  0  0  0  0
   -3.9445    0.7738    0.7359 H   0  0  0  0  0  0  0  0  0  0  0  0
   -1.4240    0.2145    0.1284 C   0  0  0  0  0  0  0  0  0  0  0  0
   -2.6332   -1.1290   -0.7832 H   0  0  0  0  0  0  0  0  0  0  0  0
   -2.8827   -1.3917    1.0809 H   0  0  0  0  0  0  0  0  0  0  0  0
   -0.1519   -0.7116   -0.0204 C   0  0  0  0  0  0  0  0  0  0  0  0
   -1.5576    1.0499    1.0684 H   0  0  0  0  0  0  0  0  0  0  0  0
   -1.5054    0.6581   -0.6320 H   0  0  0  0  0  0  0  0  0  0  0  0
    0.0267   -1.4647    0.8993 H   0  0  0  0  0  0  0  0  0  0  0  0
    0.5823   -0.1636   -0.5252 H   0  0  0  0  0  0  0  0  0  0  0  0
   -0.3598   -1.2301   -0.8117 H   0  0  0  0  0  0  0  0  0  0  0  0
  1  2  1  0  0  0  0
  1  3  1  0  0  0  0
  1  5  1  0  0  0  0
  2  6  1  0  0  0  0
  2  8  1  0  0  0  0
  4  1  1  0  0  0  0
  6 10  1  0  0  0  0
  7  2  1  0  0  0  0
  9  6  1  0  0  0  0
  9 12  1  0  0  0  0
 11  6  1  0  0  0  0
 13  9  1  0  0  0  0
 14  9  1  0  0  0  0
M  END
$$$$
