butane_opt
 OpenBabel08242015383D

 14 13  0  0  0  0  0  0  0  0999 V2000
   -3.9727    0.2371    0.0970 C   0  0  0  0  0  0  0  0  0  0  0  0
   -2.7291   -0.5569   -0.0652 C   0  0  0  0  0  0  0  0  0  0  0  0
   -4.9262   -0.4299    0.4244 H   0  0  0  0  0  0  0  0  0  0  0  0
   -4.2151    0.9271   -0.8781 H   0  0  0  0  0  0  0  0  0  0  0  0
   -3.6798    0.7429    0.8981 H   0  0  0  0  0  0  0  0  0  0  0  0
   -1.3685    0.2100   -0.0433 C   0  0  0  0  0  0  0  0  0  0  0  0
   -2.7111   -1.3434   -1.0211 H   0  0  0  0  0  0  0  0  0  0  0  0
   -2.7564   -1.1787    0.7157 H   0  0  0  0  0  0  0  0  0  0  0  0
   -0.1456   -0.7318    0.1081 C   0  0  0  0  0  0  0  0  0  0  0  0
   -1.4578    0.7995    0.7600 H   0  0  0  0  0  0  0  0  0  0  0  0
   -1.3263    1.0399   -1.1165 H   0  0  0  0  0  0  0  0  0  0  0  0
   -0.0894   -1.2962    0.9633 H   0  0  0  0  0  0  0  0  0  0  0  0
    0.7012   -0.2184    0.2903 H   0  0  0  0  0  0  0  0  0  0  0  0
    0.0421   -1.4210   -0.7520 H   0  0  0  0  0  0  0  0  0  0  0  0
  1  3  1  0  0  0  0
  1  5  1  0  0  0  0
  2  6  1  0  0  0  0
  2  1  1  0  0  0  0
  2  8  1  0  0  0  0
  4  1  1  0  0  0  0
  6  9  1  0  0  0  0
  6 10  1  0  0  0  0
  7  2  1  0  0  0  0
  9 13  1  0  0  0  0
  9 12  1  0  0  0  0
 11  6  1  0  0  0  0
 14  9  1  0  0  0  0
M  END
$$$$
