butane_opt
 OpenBabel08242015383D

 14 13  0  0  0  0  0  0  0  0999 V2000
   -3.9277    0.2534   -0.0190 C   0  0  0  0  0  0  0  0  0  0  0  0
   -2.6919   -0.6328    0.0370 C   0  0  0  0  0  0  0  0  0  0  0  0
   -4.8516   -0.3513   -0.0323 H   0  0  0  0  0  0  0  0  0  0  0  0
   -4.0374    0.8116   -0.9133 H   0  0  0  0  0  0  0  0  0  0  0  0
   -3.7818    0.9790    0.8651 H   0  0  0  0  0  0  0  0  0  0  0  0
   -1.3993    0.2311    0.0998 C   0  0  0  0  0  0  0  0  0  0  0  0
   -2.5640   -1.1752   -0.7474 H   0  0  0  0  0  0  0  0  0  0  0  0
   -2.7717   -1.2247    0.9273 H   0  0  0  0  0  0  0  0  0  0  0  0
   -0.1929   -0.7159   -0.0225 C   0  0  0  0  0  0  0  0  0  0  0  0
   -1.4239    0.9847    0.9583 H   0  0  0  0  0  0  0  0  0  0  0  0
   -1.3695    0.7441   -0.7959 H   0  0  0  0  0  0  0  0  0  0  0  0
   -0.0229   -1.6591    1.0722 H   0  0  0  0  0  0  0  0  0  0  0  0
    0.6424   -0.0840   -0.3309 H   0  0  0  0  0  0  0  0  0  0  0  0
   -0.2914   -1.1362   -0.6796 H   0  0  0  0  0  0  0  0  0  0  0  0
  1  2  1  0  0  0  0
  1  5  1  0  0  0  0
  2  6  1  0  0  0  0
  2  8  1  0  0  0  0
  3  1  1  0  0  0  0
  4  1  1  0  0  0  0
  6 10  1  0  0  0  0
  7  2  1  0  0  0  0
  9  6  1  0  0  0  0
  9 12  1  0  0  0  0
 11  6  1  0  0  0  0
 13  9  1  0  0  0  0
 14  9  1  0  0  0  0
M  END
$$$$
