butane_opt
 OpenBabel08242015383D

 14 13  0  0  0  0  0  0  0  0999 V2000
   -3.9316    0.2266    0.0441 C   0  0  0  0  0  0  0  0  0  0  0  0
   -2.7214   -0.5766   -0.0135 C   0  0  0  0  0  0  0  0  0  0  0  0
   -4.8535   -0.3696   -0.0603 H   0  0  0  0  0  0  0  0  0  0  0  0
   -3.8530    0.8282   -0.8804 H   0  0  0  0  0  0  0  0  0  0  0  0
   -3.7600    0.8513    0.9140 H   0  0  0  0  0  0  0  0  0  0  0  0
   -1.4474    0.2098    0.0190 C   0  0  0  0  0  0  0  0  0  0  0  0
   -2.7410   -1.1344   -0.8508 H   0  0  0  0  0  0  0  0  0  0  0  0
   -2.6794   -1.1371    0.8802 H   0  0  0  0  0  0  0  0  0  0  0  0
   -0.1251   -0.7436    0.0430 C   0  0  0  0  0  0  0  0  0  0  0  0
   -1.3589    0.9797    0.9706 H   0  0  0  0  0  0  0  0  0  0  0  0
   -1.5873    0.7741   -0.7803 H   0  0  0  0  0  0  0  0  0  0  0  0
   -0.0832   -1.5457    1.0775 H   0  0  0  0  0  0  0  0  0  0  0  0
    0.7717   -0.1113   -0.2521 H   0  0  0  0  0  0  0  0  0  0  0  0
   -0.1681   -1.0141   -0.6692 H   0  0  0  0  0  0  0  0  0  0  0  0
  1  5  1  0  0  0  0
  2  6  1  0  0  0  0
  2  1  1  0  0  0  0
  2  8  1  0  0  0  0
  3  1  1  0  0  0  0
  4  1  1  0  0  0  0
  6  9  1  0  0  0  0
  6 10  1  0  0  0  0
  7  2  1  0  0  0  0
  9 12  1  0  0  0  0
 11  6  1  0  0  0  0
 13  9  1  0  0  0  0
 14  9  1  0  0  0  0
M  END
$$$$
