14
butane_opt
C  -4.006488   0.302083   0.101417
C  -2.680933  -0.654777  -0.123502
H  -4.853655  -0.256725   0.461872
H  -4.103025   1.023999  -0.823456
H  -3.774741   0.936731   0.958430
C  -1.405383   0.117874  -0.053122
H  -2.708465  -1.372666  -0.983984
H  -2.603415  -1.332174   0.802026
C  -0.142844  -0.661009   0.121987
H  -1.342157   0.888856   0.869069
H  -1.257884   0.828370  -0.897050
H  -0.177770  -1.334898   1.110777
H   0.771958   0.006807  -0.050517
H  -0.168333  -1.091011  -0.557335
