butane_opt
 OpenBabel08242015383D

 14 12  0  0  0  0  0  0  0  0999 V2000
   -3.9374    0.2673    0.0881 C   0  0  0  0  0  0  0  0  0  0  0  0
   -2.6676   -0.5996   -0.0140 C   0  0  0  0  0  0  0  0  0  0  0  0
   -4.7830   -0.2646   -0.4648 H   0  0  0  0  0  0  0  0  0  0  0  0
   -3.9081    0.4560   -0.5345 H   0  0  0  0  0  0  0  0  0  0  0  0
   -3.9850    1.3338    1.1992 H   0  0  0  0  0  0  0  0  0  0  0  0
   -1.3967    0.1433   -0.0887 C   0  0  0  0  0  0  0  0  0  0  0  0
   -2.7959   -1.1688   -0.8532 H   0  0  0  0  0  0  0  0  0  0  0  0
   -2.6485   -1.3503    0.9585 H   0  0  0  0  0  0  0  0  0  0  0  0
   -0.1841   -0.6805    0.1049 C   0  0  0  0  0  0  0  0  0  0  0  0
   -1.4874    0.7131    0.6609 H   0  0  0  0  0  0  0  0  0  0  0  0
   -1.4691    0.7892   -0.9671 H   0  0  0  0  0  0  0  0  0  0  0  0
   -0.1798   -1.4014    1.0848 H   0  0  0  0  0  0  0  0  0  0  0  0
    0.7113    0.0311   -0.0930 H   0  0  0  0  0  0  0  0  0  0  0  0
   -0.2564   -1.1719   -0.5937 H   0  0  0  0  0  0  0  0  0  0  0  0
  2  1  1  0  0  0  0
  2  8  1  0  0  0  0
  3  1  1  0  0  0  0
  4  1  1  0  0  0  0
  6  2  1  0  0  0  0
  6  9  1  0  0  0  0
  6 10  1  0  0  0  0
  7  2  1  0  0  0  0
  9 12  1  0  0  0  0
 11  6  1  0  0  0  0
 13  9  1  0  0  0  0
 14  9  1  0  0  0  0
M  RAD  2   1   2   5   2
M  END
$$$$
