butane_opt
 OpenBabel08242015383D

 14 13  0  0  0  0  0  0  0  0999 V2000
   -3.9252    0.2540    0.0696 C   0  0  0  0  0  0  0  0  0  0  0  0
   -2.7103   -0.6301   -0.0334 C   0  0  0  0  0  0  0  0  0  0  0  0
   -4.8550   -0.2574   -0.2273 H   0  0  0  0  0  0  0  0  0  0  0  0
   -4.1633    0.6004   -0.5793 H   0  0  0  0  0  0  0  0  0  0  0  0
   -3.9779    1.1965    1.2011 H   0  0  0  0  0  0  0  0  0  0  0  0
   -1.4113    0.2284   -0.0457 C   0  0  0  0  0  0  0  0  0  0  0  0
   -2.7931   -1.5017   -1.0532 H   0  0  0  0  0  0  0  0  0  0  0  0
   -2.5796   -1.2506    0.8344 H   0  0  0  0  0  0  0  0  0  0  0  0
   -0.1474   -0.7110    0.1181 C   0  0  0  0  0  0  0  0  0  0  0  0
   -1.5154    0.7667    0.7059 H   0  0  0  0  0  0  0  0  0  0  0  0
   -1.3663    1.0227   -0.9864 H   0  0  0  0  0  0  0  0  0  0  0  0
    0.0557   -1.6057    1.1695 H   0  0  0  0  0  0  0  0  0  0  0  0
    0.8084   -0.0930   -0.3476 H   0  0  0  0  0  0  0  0  0  0  0  0
   -0.2874   -1.0381   -0.5426 H   0  0  0  0  0  0  0  0  0  0  0  0
  1  5  1  0  0  0  0
  2  1  1  0  0  0  0
  2  8  1  0  0  0  0
  3  1  1  0  0  0  0
  4  1  1  0  0  0  0
  6  2  1  0  0  0  0
  6  9  1  0  0  0  0
  6 10  1  0  0  0  0
  7  2  1  0  0  0  0
  9 12  1  0  0  0  0
 11  6  1  0  0  0  0
 13  9  1  0  0  0  0
 14  9  1  0  0  0  0
M  END
$$$$
