butane_opt
 OpenBabel08242015383D

 14 13  0  0  0  0  0  0  0  0999 V2000
   -3.9406    0.2564    0.0489 C   0  0  0  0  0  0  0  0  0  0  0  0
   -2.7038   -0.6077   -0.0052 C   0  0  0  0  0  0  0  0  0  0  0  0
   -4.8969   -0.3634    0.1509 H   0  0  0  0  0  0  0  0  0  0  0  0
   -4.0427    0.8866   -0.8493 H   0  0  0  0  0  0  0  0  0  0  0  0
   -3.8937    0.9133    0.9333 H   0  0  0  0  0  0  0  0  0  0  0  0
   -1.4088    0.1958   -0.0262 C   0  0  0  0  0  0  0  0  0  0  0  0
   -2.7390   -1.3430   -0.8674 H   0  0  0  0  0  0  0  0  0  0  0  0
   -2.7201   -1.1987    0.8532 H   0  0  0  0  0  0  0  0  0  0  0  0
   -0.1525   -0.6977    0.0646 C   0  0  0  0  0  0  0  0  0  0  0  0
   -1.4092    0.9196    0.8582 H   0  0  0  0  0  0  0  0  0  0  0  0
   -1.4017    0.8215   -0.9180 H   0  0  0  0  0  0  0  0  0  0  0  0
   -0.1501   -1.4008    1.0299 H   0  0  0  0  0  0  0  0  0  0  0  0
    0.7463   -0.1400    0.0167 H   0  0  0  0  0  0  0  0  0  0  0  0
   -0.0466   -1.3290   -0.7470 H   0  0  0  0  0  0  0  0  0  0  0  0
  1  3  1  0  0  0  0
  1  5  1  0  0  0  0
  2  1  1  0  0  0  0
  2  8  1  0  0  0  0
  4  1  1  0  0  0  0
  6  2  1  0  0  0  0
  6  9  1  0  0  0  0
  6 10  1  0  0  0  0
  7  2  1  0  0  0  0
  9 12  1  0  0  0  0
 11  6  1  0  0  0  0
 13  9  1  0  0  0  0
 14  9  1  0  0  0  0
M  END
$$$$
