butane_opt
 OpenBabel08242015383D

 14 13  0  0  0  0  0  0  0  0999 V2000
   -3.9249    0.3282    0.1166 C   0  0  0  0  0  0  0  0  0  0  0  0
   -2.6808   -0.6779   -0.1482 C   0  0  0  0  0  0  0  0  0  0  0  0
   -4.8608   -0.2096    0.5525 H   0  0  0  0  0  0  0  0  0  0  0  0
   -4.1858    0.9116   -0.7058 H   0  0  0  0  0  0  0  0  0  0  0  0
   -3.6512    0.8190    0.9187 H   0  0  0  0  0  0  0  0  0  0  0  0
   -1.3806    0.1405   -0.0634 C   0  0  0  0  0  0  0  0  0  0  0  0
   -2.7031   -1.3233   -1.0200 H   0  0  0  0  0  0  0  0  0  0  0  0
   -2.5798   -1.3011    0.7128 H   0  0  0  0  0  0  0  0  0  0  0  0
   -0.2139   -0.6440    0.1411 C   0  0  0  0  0  0  0  0  0  0  0  0
   -1.3900    0.8038    0.7240 H   0  0  0  0  0  0  0  0  0  0  0  0
   -1.3536    0.7969   -0.9277 H   0  0  0  0  0  0  0  0  0  0  0  0
   -0.3782   -1.4065    1.2412 H   0  0  0  0  0  0  0  0  0  0  0  0
    0.6782   -0.1087    0.0250 H   0  0  0  0  0  0  0  0  0  0  0  0
   -0.2158   -1.2142   -0.6205 H   0  0  0  0  0  0  0  0  0  0  0  0
  1  3  1  0  0  0  0
  1  5  1  0  0  0  0
  2  6  1  0  0  0  0
  2  1  1  0  0  0  0
  2  8  1  0  0  0  0
  4  1  1  0  0  0  0
  6  9  1  0  0  0  0
  6 10  1  0  0  0  0
  7  2  1  0  0  0  0
  9 12  1  0  0  0  0
 11  6  1  0  0  0  0
 13  9  1  0  0  0  0
 14  9  1  0  0  0  0
M  END
$$$$
