14
butane_opt
C  -3.979741   0.257642   0.013019
C  -2.706900  -0.594840   0.078853
H  -4.948642  -0.412542  -0.351331
H  -3.675294   0.446358  -0.627728
H  -4.059302   1.239569   1.061954
C  -1.393562   0.223264  -0.016491
H  -2.734818  -1.191756  -0.753933
H  -2.827718  -1.171937   0.966795
C  -0.145241  -0.726115   0.058291
H  -1.394351   0.745735   0.676937
H  -1.323421   0.878337  -1.021563
H   0.020551  -1.415768   0.988395
H   0.809486  -0.096447  -0.120997
H  -0.194995  -1.432481  -0.929830
