14
butane_opt
C  -3.945718   0.279747   0.044729
C  -2.693733  -0.629828  -0.001019
H  -4.848190  -0.313188   0.172544
H  -4.023527   0.969791  -0.917336
H  -3.891680   0.856862   0.836315
C  -1.403380   0.166024   0.001405
H  -2.724438  -1.334014  -0.873451
H  -2.662806  -1.224293   0.858209
C  -0.171782  -0.681326   0.057376
H  -1.354420   0.865922   0.861211
H  -1.342719   0.830340  -0.896145
H  -0.193391  -1.294336   0.957947
H   0.745729  -0.115334  -0.002406
H  -0.154749  -1.326702  -0.797585
