14
butane_opt
C  -3.913188   0.218114   0.112637
C  -2.698694  -0.573343  -0.088575
H  -4.847093  -0.385720   0.016969
H  -3.853605   0.764302  -0.679093
H  -3.744959   1.079730   1.079295
C  -1.470077   0.225190  -0.080975
H  -2.861918  -1.273859  -1.021108
H  -2.595480  -1.188351   0.767843
C  -0.141313  -0.723207   0.120143
H  -1.482918   0.886559   0.741667
H  -1.483952   0.741910  -0.821588
H  -0.028492  -1.703921   1.285594
H   0.822639  -0.082898  -0.169944
H  -0.268617  -1.059954  -0.466415
