14
butane_opt
C  -3.972535   0.258780  -0.047161
C  -2.740264  -0.591918   0.087646
H  -4.990053  -0.384108  -0.221033
H  -3.675329   0.605713  -0.811746
H  -3.993334   1.096676   0.891910
C  -1.379156   0.208003   0.076037
H  -2.769219  -1.128403  -0.732943
H  -2.681446  -1.369321   1.162144
C  -0.124154  -0.711778  -0.017816
H  -1.453293   0.847505   0.925610
H  -1.443375   0.802168  -0.736476
H   0.097919  -1.384243   0.938089
H   0.714399  -0.253195  -0.285568
H  -0.234288  -1.282882  -0.858383
