14
butane_opt
C  -3.906168   0.277497   0.034197
C  -2.682211  -0.639230   0.060976
H  -4.785492  -0.200174   0.009391
H  -3.951292   1.054878  -1.055511
H  -3.977626   0.808398   0.746829
C  -1.435308   0.160904  -0.007839
H  -2.611858  -1.323426  -0.781971
H  -2.609305  -1.414197   1.137888
C  -0.184346  -0.661838   0.019797
H  -1.432759   0.866734   0.857041
H  -1.386431   0.710291  -0.859276
H  -0.393477  -0.968432   0.725438
H   0.747164  -0.062538   0.328547
H  -0.124194  -1.582085  -1.012138
