14
butane_opt
C  -3.912955   0.241260   0.069952
C  -2.725659  -0.591562  -0.060830
H  -4.817767  -0.361554   0.383482
H  -3.977374   0.955519  -0.761859
H  -3.543988   0.763188   0.861296
C  -1.411751   0.236558  -0.036349
H  -2.650333  -1.434960  -1.023094
H  -2.818805  -1.155690   0.824685
C  -0.183557  -0.720287   0.094740
H  -1.478025   0.921206   0.877294
H  -1.418942   0.910108  -0.936072
H  -0.037383  -1.533564   1.102396
H   0.646292  -0.225627   0.026200
H  -0.138846  -1.299389  -0.704826
