14
butane_opt
C  -3.942933   0.220635  -0.054042
C  -2.714869  -0.576807   0.051674
H  -4.798581  -0.331181   0.059527
H  -3.833058   0.861094  -1.072415
H  -4.012978   0.872199   0.866991
C  -1.409750   0.217014   0.142899
H  -2.705170  -1.171420  -0.780279
H  -2.831019  -1.353117   1.061913
C  -0.129737  -0.717600  -0.028412
H  -1.435681   1.075492   1.061332
H  -1.589126   0.787958  -0.748344
H   0.208876  -1.543265   0.938528
H   0.686725  -0.220124  -0.473913
H  -0.336862  -1.156964  -0.781142
