14
butane_opt
C  -3.973378   0.260528   0.064557
C  -2.710962  -0.597492   0.007799
H  -4.937179  -0.404277  -0.231958
H  -3.964671   0.439202  -0.533160
H  -3.836221   1.324051   1.126979
C  -1.398129   0.210015  -0.088265
H  -2.752989  -1.249161  -0.893995
H  -2.721346  -1.260028   0.937227
C  -0.138119  -0.713656   0.098594
H  -1.314351   0.751382   0.714124
H  -1.278316   0.986872  -1.056438
H  -0.178860  -1.527110   1.120868
H   0.783590  -0.110912   0.104043
H  -0.165248  -1.364831  -0.784542
