14
butane_opt
C  -3.969205   0.251270   0.074116
C  -2.732132  -0.592992   0.008538
H  -4.920282  -0.299272  -0.096445
H  -3.926720   0.588910  -0.637870
H  -4.016783   1.025962   0.973586
C  -1.405954   0.199307  -0.046396
H  -2.678092  -1.441962  -1.018811
H  -2.619650  -1.033160   0.698451
C  -0.110441  -0.682784   0.087829
H  -1.439966   0.759537   0.763059
H  -1.356212   0.808745  -0.995340
H  -0.081596  -1.645608   1.157691
H   0.649795  -0.213886  -0.235864
H  -0.023011  -1.128707  -0.609811
