butane_opt
 OpenBabel08242015383D

 14 12  0  0  0  0  0  0  0  0999 V2000
   -3.9454    0.2557   -0.0379 C   0  0  0  0  0  0  0  0  0  0  0  0
   -2.6928   -0.6081    0.1425 C   0  0  0  0  0  0  0  0  0  0  0  0
   -4.8045   -0.3867    0.0803 H   0  0  0  0  0  0  0  0  0  0  0  0
   -3.8086    1.0331   -1.0648 H   0  0  0  0  0  0  0  0  0  0  0  0
   -3.9235    0.7134    0.6916 H   0  0  0  0  0  0  0  0  0  0  0  0
   -1.4445    0.1943    0.0048 C   0  0  0  0  0  0  0  0  0  0  0  0
   -2.8405   -1.0338   -0.6219 H   0  0  0  0  0  0  0  0  0  0  0  0
   -2.6916   -1.3775    1.1230 H   0  0  0  0  0  0  0  0  0  0  0  0
   -0.1359   -0.6956   -0.0346 C   0  0  0  0  0  0  0  0  0  0  0  0
   -1.4574    1.0219    0.9639 H   0  0  0  0  0  0  0  0  0  0  0  0
   -1.5103    0.6656   -0.7297 H   0  0  0  0  0  0  0  0  0  0  0  0
   -0.2565   -0.9955    0.6519 H   0  0  0  0  0  0  0  0  0  0  0  0
    0.8492   -0.0414    0.5880 H   0  0  0  0  0  0  0  0  0  0  0  0
    0.0153   -1.8262   -1.2005 H   0  0  0  0  0  0  0  0  0  0  0  0
  1  3  1  0  0  0  0
  1  2  1  0  0  0  0
  1  5  1  0  0  0  0
  2  8  1  0  0  0  0
  4  1  1  0  0  0  0
  6  2  1  0  0  0  0
  6 10  1  0  0  0  0
  7  2  1  0  0  0  0
  9  6  1  0  0  0  0
  9 13  1  0  0  0  0
  9 12  1  0  0  0  0
 11  6  1  0  0  0  0
M  RAD  2   9   2  14   2
M  END
$$$$
