14
butane_opt
C  -3.915394   0.267995  -0.098861
C  -2.678851  -0.613284   0.170578
H  -4.828834  -0.296220  -0.278173
H  -3.709192   0.777302  -0.967244
H  -4.233357   1.091403   0.849799
C  -1.406627   0.152716   0.115891
H  -2.628315  -1.061219  -0.454091
H  -2.846798  -1.427821   1.180732
C  -0.181304  -0.684711  -0.083835
H  -1.364838   1.019776   1.059824
H  -1.346399   0.650455  -0.762665
H  -0.141198  -1.280784   0.774854
H   0.674587  -0.060779  -0.115790
H  -0.402360  -1.374592  -1.076935
