14
butane_opt
C  -3.924883   0.328178   0.116621
C  -2.680812  -0.677907  -0.148202
H  -4.860764  -0.209614   0.552518
H  -4.185771   0.911594  -0.705839
H  -3.651153   0.818965   0.918657
C  -1.380620   0.140542  -0.063361
H  -2.703111  -1.323255  -1.020049
H  -2.579847  -1.301073   0.712845
C  -0.213883  -0.643991   0.141064
H  -1.389966   0.803812   0.724004
H  -1.353628   0.796880  -0.927710
H  -0.378236  -1.406484   1.241248
H   0.678155  -0.108651   0.025015
H  -0.215769  -1.214222  -0.620514
