14
butane_opt
C  -3.942782   0.251087   0.044277
C  -2.710959  -0.610348   0.011226
H  -4.846715  -0.332358   0.082786
H  -3.950064   0.898576  -0.853151
H  -3.966375   0.977887   0.926480
C  -1.403268   0.194702  -0.019354
H  -2.772099  -1.293734  -0.829282
H  -2.720238  -1.243485   0.912229
C  -0.152790  -0.700874   0.062496
H  -1.421187   0.834790   0.798600
H  -1.382243   0.895109  -0.957494
H  -0.128987  -1.271355   0.912093
H   0.741408  -0.121440   0.114295
H  -0.060608  -1.434507  -0.851619
