butane_opt
 OpenBabel08242015383D

 14 13  0  0  0  0  0  0  0  0999 V2000
   -3.9771    0.3080    0.1050 C   0  0  0  0  0  0  0  0  0  0  0  0
   -2.6778   -0.7025   -0.0887 C   0  0  0  0  0  0  0  0  0  0  0  0
   -4.8538   -0.2948    0.5092 H   0  0  0  0  0  0  0  0  0  0  0  0
   -4.4824    1.0189   -0.8514 H   0  0  0  0  0  0  0  0  0  0  0  0
   -3.7888    0.8330    0.9781 H   0  0  0  0  0  0  0  0  0  0  0  0
   -1.3730    0.1748   -0.0652 C   0  0  0  0  0  0  0  0  0  0  0  0
   -2.6527   -1.4487   -1.0859 H   0  0  0  0  0  0  0  0  0  0  0  0
   -2.5734   -1.0280    0.5702 H   0  0  0  0  0  0  0  0  0  0  0  0
   -0.1653   -0.6599    0.1450 C   0  0  0  0  0  0  0  0  0  0  0  0
   -1.5122    0.7885    0.7353 H   0  0  0  0  0  0  0  0  0  0  0  0
   -1.2486    0.9030   -1.0330 H   0  0  0  0  0  0  0  0  0  0  0  0
   -0.2776   -1.4181    1.1211 H   0  0  0  0  0  0  0  0  0  0  0  0
    0.7790   -0.0195    0.0082 H   0  0  0  0  0  0  0  0  0  0  0  0
   -0.0900   -1.2468   -0.6741 H   0  0  0  0  0  0  0  0  0  0  0  0
  1  3  1  0  0  0  0
  1  5  1  0  0  0  0
  2  6  1  0  0  0  0
  2  1  1  0  0  0  0
  2  8  1  0  0  0  0
  4  1  1  0  0  0  0
  6  9  1  0  0  0  0
  6 10  1  0  0  0  0
  7  2  1  0  0  0  0
  9 12  1  0  0  0  0
 11  6  1  0  0  0  0
 13  9  1  0  0  0  0
 14  9  1  0  0  0  0
M  END
$$$$
