14
butane_opt
C  -3.917609   0.214230   0.075357
C  -2.670479  -0.583651  -0.023145
H  -4.788750  -0.434133  -0.270638
H  -3.882441   0.523378  -0.557888
H  -3.922817   1.397892   1.295391
C  -1.454081   0.217106  -0.077700
H  -2.744922  -1.218647  -0.811928
H  -2.727738  -1.261187   0.976629
C  -0.176012  -0.708318   0.108940
H  -1.401770   0.747994   0.681974
H  -1.378516   1.041798  -1.174719
H  -0.223268  -1.419613   1.060209
H   0.664031  -0.198929   0.007133
H   0.019055  -1.343030  -0.727206
