butane_opt
 OpenBabel08242015383D

 14 13  0  0  0  0  0  0  0  0999 V2000
   -3.9455    0.2375   -0.0719 C   0  0  0  0  0  0  0  0  0  0  0  0
   -2.7134   -0.6074    0.1581 C   0  0  0  0  0  0  0  0  0  0  0  0
   -4.8687   -0.3757   -0.3446 H   0  0  0  0  0  0  0  0  0  0  0  0
   -3.6729    0.7979   -0.9554 H   0  0  0  0  0  0  0  0  0  0  0  0
   -4.2403    1.0396    0.8675 H   0  0  0  0  0  0  0  0  0  0  0  0
   -1.3729    0.2223    0.0836 C   0  0  0  0  0  0  0  0  0  0  0  0
   -2.7964   -1.0383   -0.5521 H   0  0  0  0  0  0  0  0  0  0  0  0
   -2.6971   -1.3617    1.1864 H   0  0  0  0  0  0  0  0  0  0  0  0
   -0.1595   -0.7123   -0.0727 C   0  0  0  0  0  0  0  0  0  0  0  0
   -1.2701    1.0489    0.9772 H   0  0  0  0  0  0  0  0  0  0  0  0
   -1.5175    0.7020   -0.7257 H   0  0  0  0  0  0  0  0  0  0  0  0
   -0.0333   -1.3150    0.8195 H   0  0  0  0  0  0  0  0  0  0  0  0
    0.5509   -0.2759    0.0293 H   0  0  0  0  0  0  0  0  0  0  0  0
   -0.1493   -1.4208   -1.0181 H   0  0  0  0  0  0  0  0  0  0  0  0
  1  2  1  0  0  0  0
  1  5  1  0  0  0  0
  2  8  1  0  0  0  0
  3  1  1  0  0  0  0
  4  1  1  0  0  0  0
  6  2  1  0  0  0  0
  6 10  1  0  0  0  0
  7  2  1  0  0  0  0
  9 13  1  0  0  0  0
  9  6  1  0  0  0  0
  9 12  1  0  0  0  0
 11  6  1  0  0  0  0
 14  9  1  0  0  0  0
M  END
$$$$
