butane_opt
 OpenBabel08242015383D

 14 13  0  0  0  0  0  0  0  0999 V2000
   -3.8912    0.2358    0.0905 C   0  0  0  0  0  0  0  0  0  0  0  0
   -2.7153   -0.5743   -0.0249 C   0  0  0  0  0  0  0  0  0  0  0  0
   -4.7861   -0.4059    0.1639 H   0  0  0  0  0  0  0  0  0  0  0  0
   -3.8977    0.8445   -0.7827 H   0  0  0  0  0  0  0  0  0  0  0  0
   -3.8520    0.8878    0.9964 H   0  0  0  0  0  0  0  0  0  0  0  0
   -1.4026    0.2324   -0.1116 C   0  0  0  0  0  0  0  0  0  0  0  0
   -2.8902   -1.3072   -0.8663 H   0  0  0  0  0  0  0  0  0  0  0  0
   -2.7060   -1.3044    1.0115 H   0  0  0  0  0  0  0  0  0  0  0  0
   -0.1678   -0.7382    0.1220 C   0  0  0  0  0  0  0  0  0  0  0  0
   -1.5717    0.8817    0.6378 H   0  0  0  0  0  0  0  0  0  0  0  0
   -1.4379    0.9776   -1.0171 H   0  0  0  0  0  0  0  0  0  0  0  0
   -0.3672   -1.0581    0.8643 H   0  0  0  0  0  0  0  0  0  0  0  0
    0.6854   -0.2109    0.4630 H   0  0  0  0  0  0  0  0  0  0  0  0
   -0.0485   -1.6710   -0.9730 H   0  0  0  0  0  0  0  0  0  0  0  0
  1  3  1  0  0  0  0
  1  5  1  0  0  0  0
  2  1  1  0  0  0  0
  2  8  1  0  0  0  0
  4  1  1  0  0  0  0
  6  2  1  0  0  0  0
  6  9  1  0  0  0  0
  6 10  1  0  0  0  0
  7  2  1  0  0  0  0
  9 13  1  0  0  0  0
  9 12  1  0  0  0  0
 11  6  1  0  0  0  0
 14  9  1  0  0  0  0
M  END
$$$$
