14
butane_opt
C  -3.925186   0.254011   0.069552
C  -2.710328  -0.630129  -0.033436
H  -4.854957  -0.257395  -0.227289
H  -4.163305   0.600424  -0.579276
H  -3.977938   1.196489   1.201059
C  -1.411349   0.228394  -0.045708
H  -2.793125  -1.501677  -1.053166
H  -2.579640  -1.250636   0.834445
C  -0.147355  -0.710997   0.118079
H  -1.515380   0.766674   0.705897
H  -1.366332   1.022679  -0.986363
H   0.055658  -1.605669   1.169474
H   0.808402  -0.093036  -0.347555
H  -0.287404  -1.038064  -0.542609
