butane_opt
 OpenBabel08242015383D

 14 13  0  0  0  0  0  0  0  0999 V2000
   -3.9315    0.2555   -0.0168 C   0  0  0  0  0  0  0  0  0  0  0  0
   -2.7102   -0.5908    0.0627 C   0  0  0  0  0  0  0  0  0  0  0  0
   -4.8681   -0.3801    0.0983 H   0  0  0  0  0  0  0  0  0  0  0  0
   -3.9242    0.9074   -0.9662 H   0  0  0  0  0  0  0  0  0  0  0  0
   -3.9286    0.8683    0.8194 H   0  0  0  0  0  0  0  0  0  0  0  0
   -1.4103    0.1842    0.0546 C   0  0  0  0  0  0  0  0  0  0  0  0
   -2.6361   -1.2964   -0.7798 H   0  0  0  0  0  0  0  0  0  0  0  0
   -2.7580   -1.2228    0.9495 H   0  0  0  0  0  0  0  0  0  0  0  0
   -0.1615   -0.7022    0.0057 C   0  0  0  0  0  0  0  0  0  0  0  0
   -1.3719    0.9064    0.9535 H   0  0  0  0  0  0  0  0  0  0  0  0
   -1.4064    0.8135   -0.8350 H   0  0  0  0  0  0  0  0  0  0  0  0
   -0.0667   -1.3412    0.9002 H   0  0  0  0  0  0  0  0  0  0  0  0
    0.7276   -0.1338   -0.0964 H   0  0  0  0  0  0  0  0  0  0  0  0
   -0.2231   -1.3555   -0.8744 H   0  0  0  0  0  0  0  0  0  0  0  0
  1  2  1  0  0  0  0
  1  3  1  0  0  0  0
  1  5  1  0  0  0  0
  2  8  1  0  0  0  0
  4  1  1  0  0  0  0
  6  2  1  0  0  0  0
  6 10  1  0  0  0  0
  7  2  1  0  0  0  0
  9  6  1  0  0  0  0
  9 12  1  0  0  0  0
 11  6  1  0  0  0  0
 13  9  1  0  0  0  0
 14  9  1  0  0  0  0
M  END
$$$$
