14
butane_opt
C  -3.952361   0.249807   0.062416
C  -2.713441  -0.631282  -0.062140
H  -4.887144  -0.386258   0.504275
H  -4.188907   1.017317  -0.933005
H  -3.802095   0.875324   0.818870
C  -1.419539   0.225008   0.016813
H  -2.858830  -1.411767  -0.926006
H  -2.763278  -1.054214   0.673572
C  -0.098075  -0.709936   0.078520
H  -1.462377   0.744497   0.746572
H  -1.457044   0.950875  -0.961175
H  -0.050305  -1.407277   1.039577
H   0.713255  -0.151491   0.027223
H  -0.063212  -1.250524  -0.680313
