butane_opt
 OpenBabel08242015383D

 14 13  0  0  0  0  0  0  0  0999 V2000
   -3.9908    0.2835    0.1274 C   0  0  0  0  0  0  0  0  0  0  0  0
   -2.7116   -0.6235   -0.0412 C   0  0  0  0  0  0  0  0  0  0  0  0
   -4.8503   -0.3253    0.1470 H   0  0  0  0  0  0  0  0  0  0  0  0
   -4.0098    0.9008   -0.7926 H   0  0  0  0  0  0  0  0  0  0  0  0
   -3.9262    1.0316    1.0174 H   0  0  0  0  0  0  0  0  0  0  0  0
   -1.3854    0.1314   -0.1255 C   0  0  0  0  0  0  0  0  0  0  0  0
   -2.8725   -1.2706   -0.8893 H   0  0  0  0  0  0  0  0  0  0  0  0
   -2.4990   -1.2208    0.7907 H   0  0  0  0  0  0  0  0  0  0  0  0
   -0.1504   -0.6694    0.1207 C   0  0  0  0  0  0  0  0  0  0  0  0
   -1.3883    0.7470    0.5864 H   0  0  0  0  0  0  0  0  0  0  0  0
   -1.1652    0.8972   -1.1214 H   0  0  0  0  0  0  0  0  0  0  0  0
   -0.3199   -1.1205    0.9412 H   0  0  0  0  0  0  0  0  0  0  0  0
    0.7837   -0.0680    0.6162 H   0  0  0  0  0  0  0  0  0  0  0  0
    0.0726   -1.5160   -0.8422 H   0  0  0  0  0  0  0  0  0  0  0  0
  1  3  1  0  0  0  0
  1  5  1  0  0  0  0
  2  1  1  0  0  0  0
  2  8  1  0  0  0  0
  4  1  1  0  0  0  0
  6  2  1  0  0  0  0
  6  9  1  0  0  0  0
  6 10  1  0  0  0  0
  7  2  1  0  0  0  0
  9 13  1  0  0  0  0
  9 12  1  0  0  0  0
 11  6  1  0  0  0  0
 14  9  1  0  0  0  0
M  END
$$$$
