14
butane_opt
C  -3.966663   0.235819  -0.067999
C  -2.717475  -0.586912   0.107998
H  -5.006698  -0.490465  -0.020429
H  -3.818509   0.946682  -1.026102
H  -3.967078   0.873676   0.779124
C  -1.432783   0.236768   0.116236
H  -2.557501  -1.205310  -0.729543
H  -2.882928  -1.252817   0.966763
C  -0.123060  -0.726551  -0.047527
H  -1.214529   1.083560   1.134006
H  -1.498639   0.588468  -0.609326
H   0.150100  -1.558148   0.948806
H   0.776847  -0.226343  -0.480203
H  -0.117275  -1.138444  -0.798066
