butane_opt
 OpenBabel08242015383D

 14 13  0  0  0  0  0  0  0  0999 V2000
   -3.9374    0.3153   -0.0521 C   0  0  0  0  0  0  0  0  0  0  0  0
   -2.6867   -0.6732    0.1428 C   0  0  0  0  0  0  0  0  0  0  0  0
   -4.6958   -0.2197   -0.4451 H   0  0  0  0  0  0  0  0  0  0  0  0
   -3.7768    0.8023   -0.8655 H   0  0  0  0  0  0  0  0  0  0  0  0
   -4.1030    1.0674    0.9264 H   0  0  0  0  0  0  0  0  0  0  0  0
   -1.4103    0.1457    0.0528 C   0  0  0  0  0  0  0  0  0  0  0  0
   -2.7789   -1.1956   -0.5964 H   0  0  0  0  0  0  0  0  0  0  0  0
   -2.6685   -1.3733    1.0996 H   0  0  0  0  0  0  0  0  0  0  0  0
   -0.1918   -0.6654   -0.0349 C   0  0  0  0  0  0  0  0  0  0  0  0
   -1.2761    0.9573    0.9346 H   0  0  0  0  0  0  0  0  0  0  0  0
   -1.3781    0.6324   -0.7401 H   0  0  0  0  0  0  0  0  0  0  0  0
   -0.1889   -1.2981    0.9144 H   0  0  0  0  0  0  0  0  0  0  0  0
    0.8926    0.0600   -0.1331 H   0  0  0  0  0  0  0  0  0  0  0  0
   -0.3735   -1.3467   -0.9702 H   0  0  0  0  0  0  0  0  0  0  0  0
  1  2  1  0  0  0  0
  1  5  1  0  0  0  0
  2  8  1  0  0  0  0
  3  1  1  0  0  0  0
  4  1  1  0  0  0  0
  6  2  1  0  0  0  0
  6 10  1  0  0  0  0
  7  2  1  0  0  0  0
  9  6  1  0  0  0  0
  9 12  1  0  0  0  0
 11  6  1  0  0  0  0
 13  9  1  0  0  0  0
 14  9  1  0  0  0  0
M  END
$$$$
