14
butane_opt
C  -3.941613   0.218432   0.072634
C  -2.704148  -0.598893   0.029654
H  -4.885271  -0.350246  -0.325207
H  -3.773931   0.539418  -0.633215
H  -4.068608   1.207952   1.091761
C  -1.397804   0.252144  -0.101918
H  -2.893972  -1.162717  -0.758720
H  -2.650324  -1.252128   0.914876
C  -0.147813  -0.733981   0.088319
H  -1.475304   1.004736   0.688001
H  -1.512987   0.822080  -0.964834
H  -0.091381  -1.343916   1.003305
H   0.663705  -0.304634   0.128446
H  -0.015357  -1.323491  -0.731512
