butane_opt
 OpenBabel08242015383D

 14 13  0  0  0  0  0  0  0  0999 V2000
   -3.9553    0.2162    0.1326 C   0  0  0  0  0  0  0  0  0  0  0  0
   -2.7126   -0.5740   -0.1461 C   0  0  0  0  0  0  0  0  0  0  0  0
   -4.8949   -0.3788    0.5800 H   0  0  0  0  0  0  0  0  0  0  0  0
   -4.3435    1.0169   -0.8691 H   0  0  0  0  0  0  0  0  0  0  0  0
   -3.6146    0.8006    0.9554 H   0  0  0  0  0  0  0  0  0  0  0  0
   -1.4070    0.2544   -0.0728 C   0  0  0  0  0  0  0  0  0  0  0  0
   -2.6366   -1.3898   -1.0980 H   0  0  0  0  0  0  0  0  0  0  0  0
   -2.7335   -1.2559    0.7830 H   0  0  0  0  0  0  0  0  0  0  0  0
   -0.1370   -0.7190    0.1497 C   0  0  0  0  0  0  0  0  0  0  0  0
   -1.4636    0.8875    0.7555 H   0  0  0  0  0  0  0  0  0  0  0  0
   -1.2252    0.7998   -0.9877 H   0  0  0  0  0  0  0  0  0  0  0  0
   -0.1909   -1.5152    1.1645 H   0  0  0  0  0  0  0  0  0  0  0  0
    0.5994   -0.2224    0.0339 H   0  0  0  0  0  0  0  0  0  0  0  0
    0.0578   -1.3485   -0.6409 H   0  0  0  0  0  0  0  0  0  0  0  0
  1  3  1  0  0  0  0
  1  5  1  0  0  0  0
  2  6  1  0  0  0  0
  2  1  1  0  0  0  0
  2  8  1  0  0  0  0
  4  1  1  0  0  0  0
  6  9  1  0  0  0  0
  6 10  1  0  0  0  0
  7  2  1  0  0  0  0
  9 12  1  0  0  0  0
 11  6  1  0  0  0  0
 13  9  1  0  0  0  0
 14  9  1  0  0  0  0
M  END
$$$$
