14
butane_opt
C  -3.973278   0.289735   0.068380
C  -2.672185  -0.684200  -0.012222
H  -4.793317  -0.180122   0.263124
H  -4.085744   0.829326  -0.759689
H  -3.948836   1.059662   1.013879
C  -1.383833   0.185803  -0.052903
H  -2.646967  -1.413817  -0.887054
H  -2.717210  -1.223562   0.807288
C  -0.173817  -0.657189   0.089912
H  -1.553443   0.648945   0.523931
H  -1.335142   0.973257  -1.052403
H  -0.323393  -1.229192   0.906026
H   0.796903   0.012153   0.357907
H  -0.005415  -1.539101  -0.835030
