butane_opt
 OpenBabel08242015383D

 14 13  0  0  0  0  0  0  0  0999 V2000
   -3.9733    0.2897    0.0684 C   0  0  0  0  0  0  0  0  0  0  0  0
   -2.6722   -0.6842   -0.0122 C   0  0  0  0  0  0  0  0  0  0  0  0
   -4.7933   -0.1801    0.2631 H   0  0  0  0  0  0  0  0  0  0  0  0
   -4.0857    0.8293   -0.7597 H   0  0  0  0  0  0  0  0  0  0  0  0
   -3.9488    1.0597    1.0139 H   0  0  0  0  0  0  0  0  0  0  0  0
   -1.3838    0.1858   -0.0529 C   0  0  0  0  0  0  0  0  0  0  0  0
   -2.6470   -1.4138   -0.8871 H   0  0  0  0  0  0  0  0  0  0  0  0
   -2.7172   -1.2236    0.8073 H   0  0  0  0  0  0  0  0  0  0  0  0
   -0.1738   -0.6572    0.0899 C   0  0  0  0  0  0  0  0  0  0  0  0
   -1.5534    0.6489    0.5239 H   0  0  0  0  0  0  0  0  0  0  0  0
   -1.3351    0.9733   -1.0524 H   0  0  0  0  0  0  0  0  0  0  0  0
   -0.3234   -1.2292    0.9060 H   0  0  0  0  0  0  0  0  0  0  0  0
    0.7969    0.0122    0.3579 H   0  0  0  0  0  0  0  0  0  0  0  0
   -0.0054   -1.5391   -0.8350 H   0  0  0  0  0  0  0  0  0  0  0  0
  1  3  1  0  0  0  0
  1  5  1  0  0  0  0
  2  1  1  0  0  0  0
  2  8  1  0  0  0  0
  4  1  1  0  0  0  0
  6  2  1  0  0  0  0
  6  9  1  0  0  0  0
  6 10  1  0  0  0  0
  7  2  1  0  0  0  0
  9 13  1  0  0  0  0
  9 12  1  0  0  0  0
 11  6  1  0  0  0  0
 14  9  1  0  0  0  0
M  END
$$$$
