butane_opt
 OpenBabel08242015383D

 14 13  0  0  0  0  0  0  0  0999 V2000
   -3.9346    0.2764    0.0421 C   0  0  0  0  0  0  0  0  0  0  0  0
   -2.6966   -0.6277    0.0275 C   0  0  0  0  0  0  0  0  0  0  0  0
   -4.8144   -0.2960   -0.0468 H   0  0  0  0  0  0  0  0  0  0  0  0
   -3.9529    0.8090   -0.8045 H   0  0  0  0  0  0  0  0  0  0  0  0
   -4.0187    1.0374    0.9771 H   0  0  0  0  0  0  0  0  0  0  0  0
   -1.4013    0.1742   -0.0289 C   0  0  0  0  0  0  0  0  0  0  0  0
   -2.7775   -1.3134   -0.8302 H   0  0  0  0  0  0  0  0  0  0  0  0
   -2.6822   -1.2558    0.9147 H   0  0  0  0  0  0  0  0  0  0  0  0
   -0.1680   -0.6792    0.0565 C   0  0  0  0  0  0  0  0  0  0  0  0
   -1.4356    0.8063    0.7928 H   0  0  0  0  0  0  0  0  0  0  0  0
   -1.3451    0.7764   -0.9375 H   0  0  0  0  0  0  0  0  0  0  0  0
   -0.2225   -1.3196    0.9638 H   0  0  0  0  0  0  0  0  0  0  0  0
    0.7462   -0.0783    0.0522 H   0  0  0  0  0  0  0  0  0  0  0  0
   -0.1206   -1.3533   -0.8064 H   0  0  0  0  0  0  0  0  0  0  0  0
  1  5  1  0  0  0  0
  2  1  1  0  0  0  0
  2  8  1  0  0  0  0
  3  1  1  0  0  0  0
  4  1  1  0  0  0  0
  6  2  1  0  0  0  0
  6  9  1  0  0  0  0
  6 10  1  0  0  0  0
  7  2  1  0  0  0  0
  9 12  1  0  0  0  0
 11  6  1  0  0  0  0
 13  9  1  0  0  0  0
 14  9  1  0  0  0  0
M  END
$$$$
