14
butane_opt
C  -3.957686   0.234882   0.049530
C  -2.731243  -0.618056   0.048714
H  -4.908267  -0.423312  -0.365462
H  -3.792606   0.579936  -0.722450
H  -4.126516   1.322324   1.155437
C  -1.422313   0.245855  -0.070505
H  -2.844893  -1.279657  -0.795662
H  -2.496107  -1.309677   0.946954
C  -0.108654  -0.710831   0.065373
H  -1.389565   0.893327   0.836697
H  -1.339130   0.897002  -0.998220
H  -0.021460  -1.465540   1.043474
H   0.622482  -0.291323   0.073095
H  -0.060768  -1.250363  -0.812431
