butane_opt
 OpenBabel08242015383D

 14 13  0  0  0  0  0  0  0  0999 V2000
   -3.9154    0.2505    0.0994 C   0  0  0  0  0  0  0  0  0  0  0  0
   -2.7203   -0.5872    0.0023 C   0  0  0  0  0  0  0  0  0  0  0  0
   -5.0636   -0.5056   -0.2196 H   0  0  0  0  0  0  0  0  0  0  0  0
   -3.8124    0.6559   -0.6782 H   0  0  0  0  0  0  0  0  0  0  0  0
   -3.8195    1.1566    1.1748 H   0  0  0  0  0  0  0  0  0  0  0  0
   -1.4087    0.2124   -0.1016 C   0  0  0  0  0  0  0  0  0  0  0  0
   -2.8571   -1.2975   -0.9501 H   0  0  0  0  0  0  0  0  0  0  0  0
   -2.6277   -1.0660    0.7258 H   0  0  0  0  0  0  0  0  0  0  0  0
   -0.1665   -0.7350    0.1118 C   0  0  0  0  0  0  0  0  0  0  0  0
   -1.5784    0.8015    0.6239 H   0  0  0  0  0  0  0  0  0  0  0  0
   -1.3421    0.8895   -1.0150 H   0  0  0  0  0  0  0  0  0  0  0  0
   -0.1446   -1.4765    1.0431 H   0  0  0  0  0  0  0  0  0  0  0  0
    0.7392   -0.1051    0.0427 H   0  0  0  0  0  0  0  0  0  0  0  0
    0.0235   -1.2398   -0.6309 H   0  0  0  0  0  0  0  0  0  0  0  0
  1  5  1  0  0  0  0
  2  1  1  0  0  0  0
  2  8  1  0  0  0  0
  3  1  1  0  0  0  0
  4  1  1  0  0  0  0
  6  2  1  0  0  0  0
  6  9  1  0  0  0  0
  6 10  1  0  0  0  0
  7  2  1  0  0  0  0
  9 12  1  0  0  0  0
 11  6  1  0  0  0  0
 13  9  1  0  0  0  0
 14  9  1  0  0  0  0
M  END
$$$$
