14
butane_opt
C  -3.928732   0.222011   0.100807
C  -2.650789  -0.572934  -0.092540
H  -4.888654  -0.366942   0.334384
H  -3.971516   0.912783  -0.755107
H  -3.613993   0.782768   0.957025
C  -1.431544   0.237437  -0.045373
H  -2.831988  -1.428327  -1.126591
H  -2.688436  -1.139217   0.747226
C  -0.198666  -0.722372   0.152491
H  -1.510307   0.767242   0.741270
H  -1.397958   0.974229  -1.075696
H  -0.090734  -1.368269   1.093008
H   0.624560  -0.257619  -0.167457
H  -0.134899  -1.318411  -0.701733
