14
butane_opt
C  -3.937556   0.278090  -0.055044
C  -2.664712  -0.631819   0.096128
H  -4.738546  -0.187282  -0.055226
H  -3.887541   0.957482  -0.990431
H  -4.077842   0.987463   0.781490
C  -1.428596   0.122959   0.135667
H  -2.673120  -1.348987  -0.857706
H  -2.679447  -1.281121   0.957871
C  -0.178481  -0.638222  -0.046620
H  -1.334528   0.778524   1.014309
H  -1.489325   0.706755  -0.749080
H  -0.100389  -1.462844   0.998167
H   0.822037   0.029193  -0.439531
H  -0.383167  -1.179118  -0.768914
