14
butane_opt
C  -3.946658   0.261853   0.038289
C  -2.688855  -0.616250   0.034138
H  -4.851025  -0.350862  -0.072869
H  -3.946414   0.806202  -0.834058
H  -3.954774   1.023377   0.953560
C  -1.405942   0.186411  -0.016119
H  -2.735094  -1.337089  -0.850400
H  -2.706753  -1.191847   0.892464
C  -0.168531  -0.690121   0.049140
H  -1.360222   0.848468   0.842692
H  -1.406057   0.858540  -0.954582
H  -0.153933  -1.376776   1.009600
H   0.725119  -0.132865   0.001332
H  -0.115505  -1.325228  -0.800314
