14
butane_opt
C  -3.939802   0.282175  -0.055690
C  -2.683587  -0.626071   0.122301
H  -4.707617  -0.266144   0.353996
H  -4.037941   1.315028  -1.238354
H  -3.826897   0.405033   0.482635
C  -1.378801   0.166641   0.098415
H  -2.535326  -1.421735  -0.787832
H  -2.748332  -1.150506   0.976712
C  -0.230909  -0.674256  -0.042334
H  -1.252674   0.920220   1.063112
H  -1.519662   0.711140  -0.689271
H  -0.157181  -1.038032   0.713272
H   0.682217  -0.118816   0.131538
H  -0.146398  -1.585323  -1.104759
