14
butane_opt
C  -3.958898   0.254678   0.074528
C  -2.697988  -0.591422  -0.017453
H  -4.953915  -0.401726   0.098618
H  -4.227805   0.744708  -0.700329
H  -3.757964   0.922749   1.032170
C  -1.412001   0.204557  -0.093396
H  -2.747389  -1.250940  -0.841513
H  -2.863237  -1.276123   0.841498
C  -0.110932  -0.732145   0.096175
H  -1.497925   0.942921   0.800942
H  -1.342681   0.937969  -1.036974
H  -0.283518  -1.212250   1.002304
H   0.801602  -0.090013   0.263817
H   0.022319  -1.437941  -0.750866
