butane_opt
 OpenBabel08242015383D

 14 13  0  0  0  0  0  0  0  0999 V2000
   -3.9845    0.2144   -0.0520 C   0  0  0  0  0  0  0  0  0  0  0  0
   -2.7192   -0.5750    0.1144 C   0  0  0  0  0  0  0  0  0  0  0  0
   -4.9528   -0.4777   -0.0379 H   0  0  0  0  0  0  0  0  0  0  0  0
   -3.8290    1.1110   -1.1315 H   0  0  0  0  0  0  0  0  0  0  0  0
   -3.8993    0.6943    0.6665 H   0  0  0  0  0  0  0  0  0  0  0  0
   -1.4167    0.2403    0.1245 C   0  0  0  0  0  0  0  0  0  0  0  0
   -2.6434   -1.1919   -0.6745 H   0  0  0  0  0  0  0  0  0  0  0  0
   -2.6810   -1.1381    0.9900 H   0  0  0  0  0  0  0  0  0  0  0  0
   -0.1120   -0.7483   -0.0676 C   0  0  0  0  0  0  0  0  0  0  0  0
   -1.4229    0.9857    1.0409 H   0  0  0  0  0  0  0  0  0  0  0  0
   -1.3668    0.8291   -0.6591 H   0  0  0  0  0  0  0  0  0  0  0  0
    0.0346   -1.3316    0.8429 H   0  0  0  0  0  0  0  0  0  0  0  0
    0.7258   -0.1436   -0.1419 H   0  0  0  0  0  0  0  0  0  0  0  0
   -0.1709   -1.4164   -0.9394 H   0  0  0  0  0  0  0  0  0  0  0  0
  1  3  1  0  0  0  0
  1  2  1  0  0  0  0
  1  5  1  0  0  0  0
  2  6  1  0  0  0  0
  2  8  1  0  0  0  0
  4  1  1  0  0  0  0
  6 10  1  0  0  0  0
  7  2  1  0  0  0  0
  9  6  1  0  0  0  0
  9 12  1  0  0  0  0
 11  6  1  0  0  0  0
 13  9  1  0  0  0  0
 14  9  1  0  0  0  0
M  END
$$$$
