butane_opt
 OpenBabel08242015393D

 14 13  0  0  0  0  0  0  0  0999 V2000
   -3.9748    0.2513   -0.0764 C   0  0  0  0  0  0  0  0  0  0  0  0
   -2.7360   -0.5716    0.1046 C   0  0  0  0  0  0  0  0  0  0  0  0
   -4.9167   -0.4552   -0.0471 H   0  0  0  0  0  0  0  0  0  0  0  0
   -3.8508    0.7820   -0.9614 H   0  0  0  0  0  0  0  0  0  0  0  0
   -3.9315    0.7393    0.7072 H   0  0  0  0  0  0  0  0  0  0  0  0
   -1.3732    0.2393    0.1580 C   0  0  0  0  0  0  0  0  0  0  0  0
   -2.6224   -1.2709   -0.7468 H   0  0  0  0  0  0  0  0  0  0  0  0
   -2.8823   -1.1802    0.9431 H   0  0  0  0  0  0  0  0  0  0  0  0
   -0.1167   -0.7296   -0.0429 C   0  0  0  0  0  0  0  0  0  0  0  0
   -1.2691    0.9452    0.9451 H   0  0  0  0  0  0  0  0  0  0  0  0
   -1.5746    0.8093   -0.6997 H   0  0  0  0  0  0  0  0  0  0  0  0
    0.2759   -1.6187    0.9046 H   0  0  0  0  0  0  0  0  0  0  0  0
    0.6416   -0.2505   -0.4298 H   0  0  0  0  0  0  0  0  0  0  0  0
   -0.4679   -1.2541   -0.8463 H   0  0  0  0  0  0  0  0  0  0  0  0
  1  3  1  0  0  0  0
  1  2  1  0  0  0  0
  1  5  1  0  0  0  0
  2  6  1  0  0  0  0
  2  8  1  0  0  0  0
  4  1  1  0  0  0  0
  6 10  1  0  0  0  0
  7  2  1  0  0  0  0
  9  6  1  0  0  0  0
  9 12  1  0  0  0  0
 11  6  1  0  0  0  0
 13  9  1  0  0  0  0
 14  9  1  0  0  0  0
M  END
$$$$
