14
butane_opt
C  -3.990747   0.306059  -0.052773
C  -2.681399  -0.687719   0.082546
H  -4.842817  -0.218663   0.290091
H  -4.274614   1.241857  -1.140894
H  -3.904212   0.716005   0.664302
C  -1.368389   0.193976   0.108763
H  -2.709719  -1.386469  -0.795643
H  -2.653112  -1.353001   0.921489
C  -0.155377  -0.666068  -0.011878
H  -1.249628   0.786617   0.901043
H  -1.260481   0.701185  -0.691203
H  -0.122106  -1.171592   0.786507
H   0.686695  -0.038389  -0.041005
H  -0.333296  -1.485955  -1.031345
