butane_opt
 OpenBabel08242015393D

 14 13  0  0  0  0  0  0  0  0999 V2000
   -3.9487    0.3012   -0.0615 C   0  0  0  0  0  0  0  0  0  0  0  0
   -2.7077   -0.6418    0.1931 C   0  0  0  0  0  0  0  0  0  0  0  0
   -4.7931   -0.3300   -0.5684 H   0  0  0  0  0  0  0  0  0  0  0  0
   -3.6128    0.7472   -0.9055 H   0  0  0  0  0  0  0  0  0  0  0  0
   -4.4033    1.0079    0.7700 H   0  0  0  0  0  0  0  0  0  0  0  0
   -1.3617    0.1619    0.0875 C   0  0  0  0  0  0  0  0  0  0  0  0
   -2.6801   -1.2465   -0.5112 H   0  0  0  0  0  0  0  0  0  0  0  0
   -2.7848   -1.3350    1.1561 H   0  0  0  0  0  0  0  0  0  0  0  0
   -0.1691   -0.6902   -0.0785 C   0  0  0  0  0  0  0  0  0  0  0  0
   -1.3380    0.9469    0.9987 H   0  0  0  0  0  0  0  0  0  0  0  0
   -1.5078    0.8253   -0.8363 H   0  0  0  0  0  0  0  0  0  0  0  0
   -0.1131   -1.2033    0.7112 H   0  0  0  0  0  0  0  0  0  0  0  0
    0.7784   -0.0669   -0.0014 H   0  0  0  0  0  0  0  0  0  0  0  0
   -0.3315   -1.3953   -1.0512 H   0  0  0  0  0  0  0  0  0  0  0  0
  1  2  1  0  0  0  0
  1  5  1  0  0  0  0
  2  8  1  0  0  0  0
  3  1  1  0  0  0  0
  4  1  1  0  0  0  0
  6  2  1  0  0  0  0
  6 10  1  0  0  0  0
  7  2  1  0  0  0  0
  9 13  1  0  0  0  0
  9  6  1  0  0  0  0
  9 12  1  0  0  0  0
 11  6  1  0  0  0  0
 14  9  1  0  0  0  0
M  END
$$$$
