butane_opt
 OpenBabel08242015383D

 14 13  0  0  0  0  0  0  0  0999 V2000
   -3.9239    0.3086   -0.0178 C   0  0  0  0  0  0  0  0  0  0  0  0
   -2.6861   -0.6408    0.0612 C   0  0  0  0  0  0  0  0  0  0  0  0
   -4.8645   -0.3943    0.0175 H   0  0  0  0  0  0  0  0  0  0  0  0
   -3.8678    0.9112   -0.9564 H   0  0  0  0  0  0  0  0  0  0  0  0
   -3.9611    0.8874    0.7948 H   0  0  0  0  0  0  0  0  0  0  0  0
   -1.4187    0.1512    0.0966 C   0  0  0  0  0  0  0  0  0  0  0  0
   -2.6665   -1.3959   -0.8259 H   0  0  0  0  0  0  0  0  0  0  0  0
   -2.8430   -1.0712    0.8539 H   0  0  0  0  0  0  0  0  0  0  0  0
   -0.1877   -0.6863   -0.0295 C   0  0  0  0  0  0  0  0  0  0  0  0
   -1.3365    0.8566    0.9146 H   0  0  0  0  0  0  0  0  0  0  0  0
   -1.4436    0.7626   -0.7378 H   0  0  0  0  0  0  0  0  0  0  0  0
   -0.0196   -1.5755    1.1084 H   0  0  0  0  0  0  0  0  0  0  0  0
    0.9066    0.0646   -0.2850 H   0  0  0  0  0  0  0  0  0  0  0  0
   -0.3626   -1.0870   -0.7295 H   0  0  0  0  0  0  0  0  0  0  0  0
  1  3  1  0  0  0  0
  1  2  1  0  0  0  0
  1  5  1  0  0  0  0
  2  6  1  0  0  0  0
  2  8  1  0  0  0  0
  4  1  1  0  0  0  0
  6 10  1  0  0  0  0
  7  2  1  0  0  0  0
  9  6  1  0  0  0  0
  9 12  1  0  0  0  0
 11  6  1  0  0  0  0
 13  9  1  0  0  0  0
 14  9  1  0  0  0  0
M  END
$$$$
