butane_opt
 OpenBabel08242015393D

 14 13  0  0  0  0  0  0  0  0999 V2000
   -3.9583    0.2903   -0.0633 C   0  0  0  0  0  0  0  0  0  0  0  0
   -2.6583   -0.6271    0.0725 C   0  0  0  0  0  0  0  0  0  0  0  0
   -5.0329   -0.3477    0.2715 H   0  0  0  0  0  0  0  0  0  0  0  0
   -4.0908    1.1204   -1.0372 H   0  0  0  0  0  0  0  0  0  0  0  0
   -3.9473    0.6545    0.6654 H   0  0  0  0  0  0  0  0  0  0  0  0
   -1.4013    0.1573    0.1149 C   0  0  0  0  0  0  0  0  0  0  0  0
   -2.5510   -1.2291   -0.6758 H   0  0  0  0  0  0  0  0  0  0  0  0
   -2.7567   -1.4178    1.0961 H   0  0  0  0  0  0  0  0  0  0  0  0
   -0.1795   -0.6701   -0.0358 C   0  0  0  0  0  0  0  0  0  0  0  0
   -1.2106    0.9459    1.0265 H   0  0  0  0  0  0  0  0  0  0  0  0
   -1.5146    0.7353   -0.7685 H   0  0  0  0  0  0  0  0  0  0  0  0
   -0.1858   -1.1696    0.7951 H   0  0  0  0  0  0  0  0  0  0  0  0
    0.8108    0.0039    0.0117 H   0  0  0  0  0  0  0  0  0  0  0  0
   -0.1768   -1.5754   -1.0386 H   0  0  0  0  0  0  0  0  0  0  0  0
  1  2  1  0  0  0  0
  1  3  1  0  0  0  0
  1  5  1  0  0  0  0
  2  6  1  0  0  0  0
  2  8  1  0  0  0  0
  4  1  1  0  0  0  0
  6 10  1  0  0  0  0
  7  2  1  0  0  0  0
  9 13  1  0  0  0  0
  9  6  1  0  0  0  0
  9 12  1  0  0  0  0
 11  6  1  0  0  0  0
 14  9  1  0  0  0  0
M  END
$$$$
