butane_opt
 OpenBabel08242015383D

 14 13  0  0  0  0  0  0  0  0999 V2000
   -3.9339    0.2736    0.0020 C   0  0  0  0  0  0  0  0  0  0  0  0
   -2.6605   -0.6347    0.0723 C   0  0  0  0  0  0  0  0  0  0  0  0
   -4.7219   -0.1359   -0.1051 H   0  0  0  0  0  0  0  0  0  0  0  0
   -3.9332    0.7937   -0.7618 H   0  0  0  0  0  0  0  0  0  0  0  0
   -4.0019    0.9889    0.9121 H   0  0  0  0  0  0  0  0  0  0  0  0
   -1.4029    0.1525   -0.0400 C   0  0  0  0  0  0  0  0  0  0  0  0
   -2.7129   -1.1695   -0.6842 H   0  0  0  0  0  0  0  0  0  0  0  0
   -2.8290   -1.4210    1.1551 H   0  0  0  0  0  0  0  0  0  0  0  0
   -0.2051   -0.6716    0.0382 C   0  0  0  0  0  0  0  0  0  0  0  0
   -1.4355    0.9290    0.9380 H   0  0  0  0  0  0  0  0  0  0  0  0
   -1.3105    0.8029   -0.9216 H   0  0  0  0  0  0  0  0  0  0  0  0
   -0.1863   -1.0939    0.7436 H   0  0  0  0  0  0  0  0  0  0  0  0
    0.7319    0.0019    0.2509 H   0  0  0  0  0  0  0  0  0  0  0  0
   -0.2228   -1.6007   -0.9779 H   0  0  0  0  0  0  0  0  0  0  0  0
  1  2  1  0  0  0  0
  1  5  1  0  0  0  0
  2  8  1  0  0  0  0
  3  1  1  0  0  0  0
  4  1  1  0  0  0  0
  6  9  1  0  0  0  0
  6  2  1  0  0  0  0
  6 10  1  0  0  0  0
  7  2  1  0  0  0  0
  9 13  1  0  0  0  0
  9 12  1  0  0  0  0
 11  6  1  0  0  0  0
 14  9  1  0  0  0  0
M  END
$$$$
