butane_opt
 OpenBabel08242015393D

 14 13  0  0  0  0  0  0  0  0999 V2000
   -3.9685    0.2326    0.0529 C   0  0  0  0  0  0  0  0  0  0  0  0
   -2.7436   -0.5819    0.0404 C   0  0  0  0  0  0  0  0  0  0  0  0
   -4.8688   -0.3960   -0.4294 H   0  0  0  0  0  0  0  0  0  0  0  0
   -3.7431    0.4561   -0.6198 H   0  0  0  0  0  0  0  0  0  0  0  0
   -4.1279    1.1817    1.1098 H   0  0  0  0  0  0  0  0  0  0  0  0
   -1.3936    0.2395   -0.0419 C   0  0  0  0  0  0  0  0  0  0  0  0
   -2.8264   -1.1470   -0.7366 H   0  0  0  0  0  0  0  0  0  0  0  0
   -2.6844   -1.1711    0.8852 H   0  0  0  0  0  0  0  0  0  0  0  0
   -0.1194   -0.7667    0.0385 C   0  0  0  0  0  0  0  0  0  0  0  0
   -1.4979    0.9962    0.7702 H   0  0  0  0  0  0  0  0  0  0  0  0
   -1.3393    0.8760   -0.9276 H   0  0  0  0  0  0  0  0  0  0  0  0
   -0.1577   -1.4744    1.0991 H   0  0  0  0  0  0  0  0  0  0  0  0
    0.8731   -0.1446   -0.1753 H   0  0  0  0  0  0  0  0  0  0  0  0
    0.0650   -1.1516   -0.5890 H   0  0  0  0  0  0  0  0  0  0  0  0
  1  5  1  0  0  0  0
  2  1  1  0  0  0  0
  2  8  1  0  0  0  0
  3  1  1  0  0  0  0
  4  1  1  0  0  0  0
  6  9  1  0  0  0  0
  6  2  1  0  0  0  0
  6 10  1  0  0  0  0
  7  2  1  0  0  0  0
  9 12  1  0  0  0  0
 11  6  1  0  0  0  0
 13  9  1  0  0  0  0
 14  9  1  0  0  0  0
M  END
$$$$
