butane_opt
 OpenBabel08242015393D

 14 13  0  0  0  0  0  0  0  0999 V2000
   -3.9456    0.2638   -0.0353 C   0  0  0  0  0  0  0  0  0  0  0  0
   -2.6856   -0.5750    0.1196 C   0  0  0  0  0  0  0  0  0  0  0  0
   -4.8722   -0.3923    0.2717 H   0  0  0  0  0  0  0  0  0  0  0  0
   -3.9663    1.0619   -1.1234 H   0  0  0  0  0  0  0  0  0  0  0  0
   -3.8458    0.6648    0.6463 H   0  0  0  0  0  0  0  0  0  0  0  0
   -1.4032    0.1771    0.0243 C   0  0  0  0  0  0  0  0  0  0  0  0
   -2.6000   -1.2932   -0.7795 H   0  0  0  0  0  0  0  0  0  0  0  0
   -2.7831   -1.2958    1.0946 H   0  0  0  0  0  0  0  0  0  0  0  0
   -0.1818   -0.7082   -0.0319 C   0  0  0  0  0  0  0  0  0  0  0  0
   -1.1839    0.9838    1.0216 H   0  0  0  0  0  0  0  0  0  0  0  0
   -1.4053    0.6590   -0.7263 H   0  0  0  0  0  0  0  0  0  0  0  0
   -0.3374   -1.0622    0.7216 H   0  0  0  0  0  0  0  0  0  0  0  0
    0.7070   -0.1472    0.4258 H   0  0  0  0  0  0  0  0  0  0  0  0
   -0.1158   -1.5525   -1.0569 H   0  0  0  0  0  0  0  0  0  0  0  0
  1  2  1  0  0  0  0
  1  3  1  0  0  0  0
  1  5  1  0  0  0  0
  2  8  1  0  0  0  0
  4  1  1  0  0  0  0
  6  2  1  0  0  0  0
  6 10  1  0  0  0  0
  7  2  1  0  0  0  0
  9  6  1  0  0  0  0
  9 13  1  0  0  0  0
  9 12  1  0  0  0  0
 11  6  1  0  0  0  0
 14  9  1  0  0  0  0
M  END
$$$$
