14
butane_opt
C  -3.932177   0.264761  -0.055082
C  -2.722481  -0.589595   0.111956
H  -4.762946  -0.371531   0.086316
H  -3.795238   0.998174  -1.042493
H  -3.883227   0.662931   0.616567
C  -1.437932   0.201163   0.100930
H  -2.779634  -1.179298  -0.564892
H  -2.757545  -1.313042   1.094250
C  -0.137599  -0.725527  -0.047851
H  -1.410600   0.803627   0.893508
H  -1.397596   0.850347  -0.805572
H  -0.085981  -1.012719   0.616164
H   0.851458  -0.046235   0.302673
H  -0.262567  -1.655999  -1.124002
