14
butane_opt
C  -3.964709   0.235127   0.051123
C  -2.714764  -0.614452   0.033608
H  -4.801380  -0.354408  -0.408128
H  -3.871998   0.441395  -0.552122
H  -3.915352   1.352249   1.207055
C  -1.439489   0.242770  -0.069640
H  -2.753543  -1.235382  -0.778696
H  -2.904342  -1.316046   0.907751
C  -0.098531  -0.720471   0.084201
H  -1.445276   0.881341   0.745960
H  -1.420494   1.033740  -1.073027
H  -0.053043  -1.472724   1.097954
H   0.787211  -0.176453  -0.073401
H  -0.052447  -1.350651  -0.772765
