14
butane_opt
C  -3.940325   0.280811  -0.078274
C  -2.682234  -0.627103   0.130109
H  -4.930703  -0.279307  -0.058365
H  -3.935733   1.080146  -1.168907
H  -4.185649   0.870713   0.601297
C  -1.376186   0.158769   0.180871
H  -2.469689  -1.451090  -0.765273
H  -2.793278  -1.291441   1.092480
C  -0.204024  -0.661321  -0.091178
H  -1.158764   0.908622   1.158043
H  -1.496181   0.631206  -0.668963
H  -0.017504  -1.487618   0.917712
H   0.708567  -0.046923  -0.482349
H  -0.307450  -1.201527  -0.873372
