butane_opt
 OpenBabel08242015383D

 14 13  0  0  0  0  0  0  0  0999 V2000
   -3.9568    0.2969    0.1090 C   0  0  0  0  0  0  0  0  0  0  0  0
   -2.6568   -0.6521   -0.0711 C   0  0  0  0  0  0  0  0  0  0  0  0
   -4.7348   -0.1415    0.5692 H   0  0  0  0  0  0  0  0  0  0  0  0
   -4.0485    1.1372   -0.9630 H   0  0  0  0  0  0  0  0  0  0  0  0
   -3.8578    0.6851    0.7168 H   0  0  0  0  0  0  0  0  0  0  0  0
   -1.3756    0.1319   -0.0474 C   0  0  0  0  0  0  0  0  0  0  0  0
   -2.7670   -1.4983   -1.0151 H   0  0  0  0  0  0  0  0  0  0  0  0
   -2.6154   -1.0485    0.6299 H   0  0  0  0  0  0  0  0  0  0  0  0
   -0.2310   -0.6617    0.1069 C   0  0  0  0  0  0  0  0  0  0  0  0
   -1.4213    0.8691    0.7927 H   0  0  0  0  0  0  0  0  0  0  0  0
   -1.2271    0.7023   -0.9352 H   0  0  0  0  0  0  0  0  0  0  0  0
   -0.2784   -1.2864    1.0967 H   0  0  0  0  0  0  0  0  0  0  0  0
    0.7106   -0.0356    0.0985 H   0  0  0  0  0  0  0  0  0  0  0  0
   -0.1735   -1.2100   -0.7257 H   0  0  0  0  0  0  0  0  0  0  0  0
  1  3  1  0  0  0  0
  1  5  1  0  0  0  0
  2  6  1  0  0  0  0
  2  1  1  0  0  0  0
  2  8  1  0  0  0  0
  4  1  1  0  0  0  0
  6  9  1  0  0  0  0
  6 10  1  0  0  0  0
  7  2  1  0  0  0  0
  9 12  1  0  0  0  0
 11  6  1  0  0  0  0
 13  9  1  0  0  0  0
 14  9  1  0  0  0  0
M  END
$$$$
