14
butane_opt
C  -3.933611   0.295599   0.082868
C  -2.665980  -0.637249   0.009116
H  -4.768665  -0.334194  -0.261380
H  -3.694034   0.534607  -0.655608
H  -4.068496   1.291234   1.109031
C  -1.393801   0.172517  -0.067706
H  -2.769243  -1.433911  -0.954078
H  -2.649716  -1.210305   0.845278
C  -0.223801  -0.679272   0.089400
H  -1.278768   0.639309   0.626865
H  -1.436293   0.921115  -0.961514
H  -0.233200  -1.441498   1.088361
H   0.680384  -0.103910  -0.034110
H  -0.207040  -1.142791  -0.652482
