butane_opt
 OpenBabel08242015393D

 14 13  0  0  0  0  0  0  0  0999 V2000
   -3.9473    0.2442    0.0780 C   0  0  0  0  0  0  0  0  0  0  0  0
   -2.7422   -0.6027    0.0225 C   0  0  0  0  0  0  0  0  0  0  0  0
   -4.8449   -0.3702   -0.2664 H   0  0  0  0  0  0  0  0  0  0  0  0
   -3.9100    0.6217   -0.6725 H   0  0  0  0  0  0  0  0  0  0  0  0
   -3.9354    1.0281    1.1488 H   0  0  0  0  0  0  0  0  0  0  0  0
   -1.4197    0.2455   -0.0884 C   0  0  0  0  0  0  0  0  0  0  0  0
   -2.9037   -1.2688   -0.7960 H   0  0  0  0  0  0  0  0  0  0  0  0
   -2.6288   -1.1410    0.7616 H   0  0  0  0  0  0  0  0  0  0  0  0
   -0.1416   -0.7327    0.1107 C   0  0  0  0  0  0  0  0  0  0  0  0
   -1.3763    0.7143    0.6252 H   0  0  0  0  0  0  0  0  0  0  0  0
   -1.2268    1.0390   -1.1337 H   0  0  0  0  0  0  0  0  0  0  0  0
    0.0415   -1.2041    0.8902 H   0  0  0  0  0  0  0  0  0  0  0  0
    0.6597   -0.2603    0.1911 H   0  0  0  0  0  0  0  0  0  0  0  0
    0.1053   -1.4935   -0.7913 H   0  0  0  0  0  0  0  0  0  0  0  0
  1  5  1  0  0  0  0
  2  1  1  0  0  0  0
  2  8  1  0  0  0  0
  3  1  1  0  0  0  0
  4  1  1  0  0  0  0
  6  2  1  0  0  0  0
  6  9  1  0  0  0  0
  6 10  1  0  0  0  0
  7  2  1  0  0  0  0
  9 13  1  0  0  0  0
  9 12  1  0  0  0  0
 11  6  1  0  0  0  0
 14  9  1  0  0  0  0
M  END
$$$$
