14
butane_opt
C  -3.923261   0.311666   0.011447
C  -2.669961  -0.656996   0.073728
H  -4.908853  -0.292483  -0.172114
H  -3.845296   0.579178  -0.675591
H  -3.915158   1.227189   1.101873
C  -1.407478   0.143437  -0.034583
H  -2.716779  -1.355183  -0.773545
H  -2.714695  -1.240167   0.879799
C  -0.225866  -0.674702   0.058664
H  -1.302590   0.658627   0.755039
H  -1.351965   1.033227  -1.132519
H  -0.156313  -1.186998   0.872485
H   0.705279  -0.005348   0.185813
H  -0.136376  -1.374376  -0.874639
