butane_opt
 OpenBabel08242015393D

 14 13  0  0  0  0  0  0  0  0999 V2000
   -3.9287    0.2220    0.1008 C   0  0  0  0  0  0  0  0  0  0  0  0
   -2.6508   -0.5729   -0.0925 C   0  0  0  0  0  0  0  0  0  0  0  0
   -4.8887   -0.3669    0.3344 H   0  0  0  0  0  0  0  0  0  0  0  0
   -3.9715    0.9128   -0.7551 H   0  0  0  0  0  0  0  0  0  0  0  0
   -3.6140    0.7828    0.9570 H   0  0  0  0  0  0  0  0  0  0  0  0
   -1.4315    0.2374   -0.0454 C   0  0  0  0  0  0  0  0  0  0  0  0
   -2.8320   -1.4283   -1.1266 H   0  0  0  0  0  0  0  0  0  0  0  0
   -2.6884   -1.1392    0.7472 H   0  0  0  0  0  0  0  0  0  0  0  0
   -0.1987   -0.7224    0.1525 C   0  0  0  0  0  0  0  0  0  0  0  0
   -1.5103    0.7672    0.7413 H   0  0  0  0  0  0  0  0  0  0  0  0
   -1.3980    0.9742   -1.0757 H   0  0  0  0  0  0  0  0  0  0  0  0
   -0.0907   -1.3683    1.0930 H   0  0  0  0  0  0  0  0  0  0  0  0
    0.6246   -0.2576   -0.1675 H   0  0  0  0  0  0  0  0  0  0  0  0
   -0.1349   -1.3184   -0.7017 H   0  0  0  0  0  0  0  0  0  0  0  0
  1  3  1  0  0  0  0
  1  5  1  0  0  0  0
  2  6  1  0  0  0  0
  2  1  1  0  0  0  0
  2  8  1  0  0  0  0
  4  1  1  0  0  0  0
  6  9  1  0  0  0  0
  6 10  1  0  0  0  0
  7  2  1  0  0  0  0
  9 12  1  0  0  0  0
 11  6  1  0  0  0  0
 13  9  1  0  0  0  0
 14  9  1  0  0  0  0
M  END
$$$$
