14
butane_opt
C  -3.935985   0.247535   0.087985
C  -2.733030  -0.615984  -0.034771
H  -4.878523  -0.363464  -0.019122
H  -3.979427   0.883670  -0.793600
H  -3.937155   0.913408   0.981846
C  -1.404556   0.263854  -0.032933
H  -2.919409  -1.409575  -0.992202
H  -2.878613  -1.109880   0.705993
C  -0.126058  -0.729462   0.100493
H  -1.493142   0.815167   0.775338
H  -1.401274   0.824538  -0.884159
H   0.130155  -1.605096   1.093285
H   0.796873  -0.172973  -0.281285
H  -0.082797  -1.208586  -0.577937
