butane_opt
 OpenBabel08242015393D

 14 13  0  0  0  0  0  0  0  0999 V2000
   -3.9675    0.2651    0.0997 C   0  0  0  0  0  0  0  0  0  0  0  0
   -2.6671   -0.6105   -0.0540 C   0  0  0  0  0  0  0  0  0  0  0  0
   -4.7904   -0.2961    0.2682 H   0  0  0  0  0  0  0  0  0  0  0  0
   -4.0999    0.8644   -0.7090 H   0  0  0  0  0  0  0  0  0  0  0  0
   -3.7250    0.9706    1.0073 H   0  0  0  0  0  0  0  0  0  0  0  0
   -1.4019    0.1296   -0.0954 C   0  0  0  0  0  0  0  0  0  0  0  0
   -2.6116   -1.4041   -0.9924 H   0  0  0  0  0  0  0  0  0  0  0  0
   -2.5039   -1.1441    0.7655 H   0  0  0  0  0  0  0  0  0  0  0  0
   -0.2037   -0.6792    0.1456 C   0  0  0  0  0  0  0  0  0  0  0  0
   -1.3133    0.8064    0.6392 H   0  0  0  0  0  0  0  0  0  0  0  0
   -1.3741    1.0379   -1.1717 H   0  0  0  0  0  0  0  0  0  0  0  0
   -0.2957   -1.1807    0.9669 H   0  0  0  0  0  0  0  0  0  0  0  0
    0.7063   -0.0166    0.3144 H   0  0  0  0  0  0  0  0  0  0  0  0
   -0.1326   -1.3869   -0.7837 H   0  0  0  0  0  0  0  0  0  0  0  0
  1  3  1  0  0  0  0
  1  5  1  0  0  0  0
  2  1  1  0  0  0  0
  2  8  1  0  0  0  0
  4  1  1  0  0  0  0
  6  2  1  0  0  0  0
  6  9  1  0  0  0  0
  6 10  1  0  0  0  0
  7  2  1  0  0  0  0
  9 13  1  0  0  0  0
  9 12  1  0  0  0  0
 11  6  1  0  0  0  0
 14  9  1  0  0  0  0
M  END
$$$$
