butane_opt
 OpenBabel08242015393D

 14 13  0  0  0  0  0  0  0  0999 V2000
   -3.9284    0.2430    0.0389 C   0  0  0  0  0  0  0  0  0  0  0  0
   -2.6914   -0.5520    0.0613 C   0  0  0  0  0  0  0  0  0  0  0  0
   -4.9202   -0.5195    0.0384 H   0  0  0  0  0  0  0  0  0  0  0  0
   -3.9133    0.8132   -0.7567 H   0  0  0  0  0  0  0  0  0  0  0  0
   -3.9162    0.7998    0.8906 H   0  0  0  0  0  0  0  0  0  0  0  0
   -1.4011    0.1809   -0.0897 C   0  0  0  0  0  0  0  0  0  0  0  0
   -2.7764   -1.1413   -0.7106 H   0  0  0  0  0  0  0  0  0  0  0  0
   -2.6025   -1.2251    0.9097 H   0  0  0  0  0  0  0  0  0  0  0  0
   -0.1774   -0.7117    0.0584 C   0  0  0  0  0  0  0  0  0  0  0  0
   -1.5667    0.9649    0.8589 H   0  0  0  0  0  0  0  0  0  0  0  0
   -1.4078    0.7838   -0.9466 H   0  0  0  0  0  0  0  0  0  0  0  0
   -0.3866   -1.0738    0.7786 H   0  0  0  0  0  0  0  0  0  0  0  0
    0.6747   -0.1602    0.4192 H   0  0  0  0  0  0  0  0  0  0  0  0
    0.1832   -1.6659   -0.9262 H   0  0  0  0  0  0  0  0  0  0  0  0
  1  2  1  0  0  0  0
  1  5  1  0  0  0  0
  2  8  1  0  0  0  0
  3  1  1  0  0  0  0
  4  1  1  0  0  0  0
  6  9  1  0  0  0  0
  6  2  1  0  0  0  0
  6 10  1  0  0  0  0
  7  2  1  0  0  0  0
  9 13  1  0  0  0  0
  9 12  1  0  0  0  0
 11  6  1  0  0  0  0
 14  9  1  0  0  0  0
M  END
$$$$
