14
butane_opt
C  -3.945862   0.257826   0.017780
C  -2.715307  -0.603419   0.012185
H  -4.852425  -0.350254   0.233898
H  -4.061381   0.925025  -0.902705
H  -3.854996   0.848325   0.849272
C  -1.404878   0.189336   0.014350
H  -2.764282  -1.270542  -0.834369
H  -2.746070  -1.227278   0.902944
C  -0.137595  -0.702616   0.041020
H  -1.402636   0.912502   0.872915
H  -1.388536   0.833283  -0.874488
H  -0.130117  -1.334515   0.935820
H   0.737537  -0.135404   0.050761
H  -0.113000  -1.370986  -0.822039
