14
butane_opt
C  -3.906818   0.222830   0.113949
C  -2.696272  -0.552600  -0.007534
H  -4.881153  -0.414860  -0.430651
H  -3.591512   0.466429  -0.558553
H  -4.070450   1.223843   1.219911
C  -1.469755   0.184044  -0.099106
H  -2.772772  -1.337880  -0.930749
H  -2.689662  -1.033710   0.857916
C  -0.160716  -0.721843   0.117637
H  -1.488122   0.741129   0.679251
H  -1.418870   1.080384  -1.190894
H  -0.164318  -1.443459   1.079711
H   0.844283  -0.120072  -0.104602
H   0.006015  -1.238227  -0.636833
