14
butane_opt
C  -3.936203   0.238445  -0.105779
C  -2.720258  -0.580592   0.143174
H  -4.849299  -0.387086  -0.162725
H  -3.943974   0.923350  -0.987937
H  -4.033237   0.779409   0.731449
C  -1.431645   0.224793   0.157321
H  -2.640496  -1.221888  -0.686137
H  -3.057883  -1.360283   1.109794
C  -0.105566  -0.710343  -0.082841
H  -1.317438   1.064635   1.117502
H  -1.531273   0.676551  -0.564498
H   0.283312  -1.508435   0.824494
H   0.713118  -0.231269  -0.446607
H  -0.314786  -1.262680  -0.824039
