butane_opt
 OpenBabel08242015383D

 14 11  0  0  0  0  0  0  0  0999 V2000
   -3.9356    0.2966   -0.0330 C   0  0  0  0  0  0  0  0  0  0  0  0
   -2.6857   -0.6497    0.1223 C   0  0  0  0  0  0  0  0  0  0  0  0
   -4.7757   -0.2252   -0.0033 H   0  0  0  0  0  0  0  0  0  0  0  0
   -3.9250    1.0228   -1.0404 H   0  0  0  0  0  0  0  0  0  0  0  0
   -3.8621    0.7481    0.6928 H   0  0  0  0  0  0  0  0  0  0  0  0
   -1.4103    0.1271    0.0168 C   0  0  0  0  0  0  0  0  0  0  0  0
   -2.6316   -1.0991   -0.5875 H   0  0  0  0  0  0  0  0  0  0  0  0
   -2.6728   -1.4488    1.1908 H   0  0  0  0  0  0  0  0  0  0  0  0
   -0.1838   -0.6732   -0.0080 C   0  0  0  0  0  0  0  0  0  0  0  0
   -1.4348    0.9618    1.0171 H   0  0  0  0  0  0  0  0  0  0  0  0
   -1.5613    0.7747   -0.8438 H   0  0  0  0  0  0  0  0  0  0  0  0
   -0.3216   -0.7815    0.5621 H   0  0  0  0  0  0  0  0  0  0  0  0
    0.8191    0.0742    0.4275 H   0  0  0  0  0  0  0  0  0  0  0  0
   -0.1144   -1.7074   -1.2262 H   0  0  0  0  0  0  0  0  0  0  0  0
  1  3  1  0  0  0  0
  1  2  1  0  0  0  0
  1  5  1  0  0  0  0
  2  8  1  0  0  0  0
  4  1  1  0  0  0  0
  6  2  1  0  0  0  0
  6 10  1  0  0  0  0
  7  2  1  0  0  0  0
  9  6  1  0  0  0  0
  9 13  1  0  0  0  0
 11  6  1  0  0  0  0
M  RAD  3   9   3  12   2  14   2
M  END
$$$$
