butane_opt
 OpenBabel08242015393D

 14 11  0  0  0  0  0  0  0  0999 V2000
   -3.8872    0.2324    0.0710 C   0  0  0  0  0  0  0  0  0  0  0  0
   -2.7115   -0.5773   -0.0213 C   0  0  0  0  0  0  0  0  0  0  0  0
   -4.8087   -0.4909   -0.2810 H   0  0  0  0  0  0  0  0  0  0  0  0
   -3.9522    0.4504   -0.4850 H   0  0  0  0  0  0  0  0  0  0  0  0
   -3.9066    1.3450    1.2710 H   0  0  0  0  0  0  0  0  0  0  0  0
   -1.4027    0.2194   -0.0782 C   0  0  0  0  0  0  0  0  0  0  0  0
   -2.7400   -1.1658   -0.8129 H   0  0  0  0  0  0  0  0  0  0  0  0
   -2.8127   -1.1314    0.8236 H   0  0  0  0  0  0  0  0  0  0  0  0
   -0.1951   -0.7351    0.0947 C   0  0  0  0  0  0  0  0  0  0  0  0
   -1.5822    0.8078    0.7525 H   0  0  0  0  0  0  0  0  0  0  0  0
   -1.3701    0.9181   -1.0061 H   0  0  0  0  0  0  0  0  0  0  0  0
   -0.1573   -1.6346    1.1779 H   0  0  0  0  0  0  0  0  0  0  0  0
    0.7044   -0.1382   -0.2061 H   0  0  0  0  0  0  0  0  0  0  0  0
   -0.0261   -1.1206   -0.5365 H   0  0  0  0  0  0  0  0  0  0  0  0
  2  1  1  0  0  0  0
  2  8  1  0  0  0  0
  3  1  1  0  0  0  0
  6  2  1  0  0  0  0
  6  9  1  0  0  0  0
  6 10  1  0  0  0  0
  7  2  1  0  0  0  0
  9 12  1  0  0  0  0
 11  6  1  0  0  0  0
 13  9  1  0  0  0  0
 14  9  1  0  0  0  0
M  RAD  3   1   3   4   2   5   2
M  END
$$$$
