butane_opt
 OpenBabel08242015393D

 14 13  0  0  0  0  0  0  0  0999 V2000
   -3.9360    0.2475    0.0880 C   0  0  0  0  0  0  0  0  0  0  0  0
   -2.7330   -0.6160   -0.0348 C   0  0  0  0  0  0  0  0  0  0  0  0
   -4.8785   -0.3635   -0.0191 H   0  0  0  0  0  0  0  0  0  0  0  0
   -3.9794    0.8837   -0.7936 H   0  0  0  0  0  0  0  0  0  0  0  0
   -3.9372    0.9134    0.9818 H   0  0  0  0  0  0  0  0  0  0  0  0
   -1.4046    0.2639   -0.0329 C   0  0  0  0  0  0  0  0  0  0  0  0
   -2.9194   -1.4096   -0.9922 H   0  0  0  0  0  0  0  0  0  0  0  0
   -2.8786   -1.1099    0.7060 H   0  0  0  0  0  0  0  0  0  0  0  0
   -0.1261   -0.7295    0.1005 C   0  0  0  0  0  0  0  0  0  0  0  0
   -1.4931    0.8152    0.7753 H   0  0  0  0  0  0  0  0  0  0  0  0
   -1.4013    0.8245   -0.8842 H   0  0  0  0  0  0  0  0  0  0  0  0
    0.1302   -1.6051    1.0933 H   0  0  0  0  0  0  0  0  0  0  0  0
    0.7969   -0.1730   -0.2813 H   0  0  0  0  0  0  0  0  0  0  0  0
   -0.0828   -1.2086   -0.5779 H   0  0  0  0  0  0  0  0  0  0  0  0
  1  5  1  0  0  0  0
  2  6  1  0  0  0  0
  2  1  1  0  0  0  0
  2  8  1  0  0  0  0
  3  1  1  0  0  0  0
  4  1  1  0  0  0  0
  6  9  1  0  0  0  0
  6 10  1  0  0  0  0
  7  2  1  0  0  0  0
  9 12  1  0  0  0  0
 11  6  1  0  0  0  0
 13  9  1  0  0  0  0
 14  9  1  0  0  0  0
M  END
$$$$
