14
butane_opt
C  -3.965285   0.288465   0.025904
C  -2.656329  -0.633916   0.035959
H  -4.771372  -0.223901   0.056344
H  -4.003073   0.813891  -0.817368
H  -3.922662   1.180407   0.935253
C  -1.382209   0.107680  -0.012417
H  -2.792450  -1.290939  -0.791267
H  -2.707426  -1.288659   1.000390
C  -0.193116  -0.655423   0.039408
H  -1.363841   0.644146   0.787612
H  -1.384504   0.932228  -1.097683
H  -0.386843  -1.070093   0.829759
H   0.804756  -0.032365   0.356706
H  -0.153638  -1.401844  -0.877057
