14
butane_opt
C  -3.951035   0.222078  -0.053493
C  -2.731197  -0.605656   0.115852
H  -4.768181  -0.306083  -0.400056
H  -3.856702   0.794560  -0.919161
H  -4.042754   1.092226   0.909191
C  -1.398253   0.237085   0.088182
H  -2.681795  -0.969773  -0.510339
H  -2.773073  -1.413933   1.098474
C  -0.145185  -0.726545  -0.045625
H  -1.271391   0.917701   1.012902
H  -1.442553   0.811535  -0.787289
H   0.069698  -1.318464   0.843616
H   0.664638  -0.139838  -0.139041
H  -0.206045  -1.476045  -0.933380
