14
butane_opt
C  -3.968467   0.232565   0.052929
C  -2.743634  -0.581904   0.040355
H  -4.868845  -0.395983  -0.429444
H  -3.743122   0.456090  -0.619819
H  -4.127872   1.181724   1.109829
C  -1.393630   0.239547  -0.041928
H  -2.826388  -1.147013  -0.736617
H  -2.684398  -1.171093   0.885230
C  -0.119444  -0.766696   0.038549
H  -1.497929   0.996153   0.770236
H  -1.339319   0.876019  -0.927641
H  -0.157717  -1.474399   1.099101
H   0.873089  -0.144583  -0.175271
H   0.065004  -1.151648  -0.588997
