butane_opt
 OpenBabel08242015383D

 14 13  0  0  0  0  0  0  0  0999 V2000
   -3.9965    0.2934   -0.0715 C   0  0  0  0  0  0  0  0  0  0  0  0
   -2.7125   -0.6443    0.0924 C   0  0  0  0  0  0  0  0  0  0  0  0
   -4.9076   -0.3329   -0.1030 H   0  0  0  0  0  0  0  0  0  0  0  0
   -3.8429    0.9028   -0.9445 H   0  0  0  0  0  0  0  0  0  0  0  0
   -3.9752    1.0474    0.8805 H   0  0  0  0  0  0  0  0  0  0  0  0
   -1.3658    0.1773    0.1245 C   0  0  0  0  0  0  0  0  0  0  0  0
   -2.6576   -1.3520   -0.8045 H   0  0  0  0  0  0  0  0  0  0  0  0
   -2.8278   -1.3426    1.0964 H   0  0  0  0  0  0  0  0  0  0  0  0
   -0.1458   -0.6825   -0.0231 C   0  0  0  0  0  0  0  0  0  0  0  0
   -1.1989    0.9239    0.9613 H   0  0  0  0  0  0  0  0  0  0  0  0
   -1.5011    0.7415   -0.7227 H   0  0  0  0  0  0  0  0  0  0  0  0
    0.1585   -1.4847    0.9977 H   0  0  0  0  0  0  0  0  0  0  0  0
    0.7719   -0.0771   -0.4864 H   0  0  0  0  0  0  0  0  0  0  0  0
   -0.4124   -1.2109   -0.8661 H   0  0  0  0  0  0  0  0  0  0  0  0
  1  2  1  0  0  0  0
  1  5  1  0  0  0  0
  2  6  1  0  0  0  0
  2  8  1  0  0  0  0
  3  1  1  0  0  0  0
  4  1  1  0  0  0  0
  6 10  1  0  0  0  0
  7  2  1  0  0  0  0
  9  6  1  0  0  0  0
  9 12  1  0  0  0  0
 11  6  1  0  0  0  0
 13  9  1  0  0  0  0
 14  9  1  0  0  0  0
M  END
$$$$
