14
butane_opt
C  -3.913583   0.260576   0.008471
C  -2.656370  -0.616072   0.058043
H  -4.731380  -0.272666  -0.325519
H  -3.829827   0.482108  -0.652181
H  -4.155716   1.324941   1.225828
C  -1.424532   0.155777  -0.017314
H  -2.678721  -1.333866  -0.812713
H  -2.840399  -1.201526   1.035927
C  -0.199996  -0.685703   0.056619
H  -1.358747   0.685549   0.754544
H  -1.540372   1.041398  -1.070089
H  -0.055919  -1.296957   0.916244
H   0.747504  -0.050773  -0.099111
H  -0.250421  -1.217683  -0.731138
