butane_opt
 OpenBabel08242015393D

 14 13  0  0  0  0  0  0  0  0999 V2000
   -3.9190    0.2429   -0.0660 C   0  0  0  0  0  0  0  0  0  0  0  0
   -2.7278   -0.6090    0.2154 C   0  0  0  0  0  0  0  0  0  0  0  0
   -4.8739   -0.3523   -0.5709 H   0  0  0  0  0  0  0  0  0  0  0  0
   -3.8112    0.7240   -0.8208 H   0  0  0  0  0  0  0  0  0  0  0  0
   -4.2421    1.1582    0.8607 H   0  0  0  0  0  0  0  0  0  0  0  0
   -1.4057    0.2068    0.0668 C   0  0  0  0  0  0  0  0  0  0  0  0
   -2.6994   -1.3305   -0.7010 H   0  0  0  0  0  0  0  0  0  0  0  0
   -2.8776   -1.2064    1.0405 H   0  0  0  0  0  0  0  0  0  0  0  0
   -0.1276   -0.6999   -0.0625 C   0  0  0  0  0  0  0  0  0  0  0  0
   -1.4359    0.8337    0.8204 H   0  0  0  0  0  0  0  0  0  0  0  0
   -1.5604    0.8508   -0.7630 H   0  0  0  0  0  0  0  0  0  0  0  0
   -0.0028   -1.3313    0.7665 H   0  0  0  0  0  0  0  0  0  0  0  0
    0.7053   -0.1685   -0.0667 H   0  0  0  0  0  0  0  0  0  0  0  0
   -0.0534   -1.3626   -0.9552 H   0  0  0  0  0  0  0  0  0  0  0  0
  1  2  1  0  0  0  0
  1  5  1  0  0  0  0
  2  8  1  0  0  0  0
  3  1  1  0  0  0  0
  4  1  1  0  0  0  0
  6  2  1  0  0  0  0
  6 10  1  0  0  0  0
  7  2  1  0  0  0  0
  9  6  1  0  0  0  0
  9 12  1  0  0  0  0
 11  6  1  0  0  0  0
 13  9  1  0  0  0  0
 14  9  1  0  0  0  0
M  END
$$$$
