butane_opt
 OpenBabel08242015393D

 14 13  0  0  0  0  0  0  0  0999 V2000
   -3.9309    0.2592   -0.0080 C   0  0  0  0  0  0  0  0  0  0  0  0
   -2.7061   -0.6026    0.0596 C   0  0  0  0  0  0  0  0  0  0  0  0
   -4.8832   -0.3986    0.1363 H   0  0  0  0  0  0  0  0  0  0  0  0
   -3.9662    0.9883   -0.9973 H   0  0  0  0  0  0  0  0  0  0  0  0
   -3.8769    0.8156    0.7730 H   0  0  0  0  0  0  0  0  0  0  0  0
   -1.4088    0.1852    0.0383 C   0  0  0  0  0  0  0  0  0  0  0  0
   -2.7086   -1.2455   -0.7935 H   0  0  0  0  0  0  0  0  0  0  0  0
   -2.7269   -1.2406    0.9571 H   0  0  0  0  0  0  0  0  0  0  0  0
   -0.1580   -0.6983    0.0055 C   0  0  0  0  0  0  0  0  0  0  0  0
   -1.3460    0.9725    0.9744 H   0  0  0  0  0  0  0  0  0  0  0  0
   -1.4838    0.7747   -0.8121 H   0  0  0  0  0  0  0  0  0  0  0  0
   -0.1427   -1.3172    0.8939 H   0  0  0  0  0  0  0  0  0  0  0  0
    0.7299   -0.1240    0.0368 H   0  0  0  0  0  0  0  0  0  0  0  0
   -0.1667   -1.4281   -0.8841 H   0  0  0  0  0  0  0  0  0  0  0  0
  1  2  1  0  0  0  0
  1  3  1  0  0  0  0
  1  5  1  0  0  0  0
  2  8  1  0  0  0  0
  4  1  1  0  0  0  0
  6  2  1  0  0  0  0
  6 10  1  0  0  0  0
  7  2  1  0  0  0  0
  9 13  1  0  0  0  0
  9  6  1  0  0  0  0
  9 12  1  0  0  0  0
 11  6  1  0  0  0  0
 14  9  1  0  0  0  0
M  END
$$$$
