butane_opt
 OpenBabel08242015393D

 14 13  0  0  0  0  0  0  0  0999 V2000
   -3.9336    0.2956    0.0829 C   0  0  0  0  0  0  0  0  0  0  0  0
   -2.6660   -0.6372    0.0091 C   0  0  0  0  0  0  0  0  0  0  0  0
   -4.7687   -0.3342   -0.2614 H   0  0  0  0  0  0  0  0  0  0  0  0
   -3.6940    0.5346   -0.6556 H   0  0  0  0  0  0  0  0  0  0  0  0
   -4.0685    1.2912    1.1090 H   0  0  0  0  0  0  0  0  0  0  0  0
   -1.3938    0.1725   -0.0677 C   0  0  0  0  0  0  0  0  0  0  0  0
   -2.7692   -1.4339   -0.9541 H   0  0  0  0  0  0  0  0  0  0  0  0
   -2.6497   -1.2103    0.8453 H   0  0  0  0  0  0  0  0  0  0  0  0
   -0.2238   -0.6793    0.0894 C   0  0  0  0  0  0  0  0  0  0  0  0
   -1.2788    0.6393    0.6269 H   0  0  0  0  0  0  0  0  0  0  0  0
   -1.4363    0.9211   -0.9615 H   0  0  0  0  0  0  0  0  0  0  0  0
   -0.2332   -1.4415    1.0884 H   0  0  0  0  0  0  0  0  0  0  0  0
    0.6804   -0.1039   -0.0341 H   0  0  0  0  0  0  0  0  0  0  0  0
   -0.2070   -1.1428   -0.6525 H   0  0  0  0  0  0  0  0  0  0  0  0
  1  5  1  0  0  0  0
  2  1  1  0  0  0  0
  2  8  1  0  0  0  0
  3  1  1  0  0  0  0
  4  1  1  0  0  0  0
  6  2  1  0  0  0  0
  6  9  1  0  0  0  0
  6 10  1  0  0  0  0
  7  2  1  0  0  0  0
  9 12  1  0  0  0  0
 11  6  1  0  0  0  0
 13  9  1  0  0  0  0
 14  9  1  0  0  0  0
M  END
$$$$
