butane_opt
 OpenBabel08242015393D

 14 13  0  0  0  0  0  0  0  0999 V2000
   -3.9233    0.3117    0.0114 C   0  0  0  0  0  0  0  0  0  0  0  0
   -2.6700   -0.6570    0.0737 C   0  0  0  0  0  0  0  0  0  0  0  0
   -4.9089   -0.2925   -0.1721 H   0  0  0  0  0  0  0  0  0  0  0  0
   -3.8453    0.5792   -0.6756 H   0  0  0  0  0  0  0  0  0  0  0  0
   -3.9152    1.2272    1.1019 H   0  0  0  0  0  0  0  0  0  0  0  0
   -1.4075    0.1434   -0.0346 C   0  0  0  0  0  0  0  0  0  0  0  0
   -2.7168   -1.3552   -0.7735 H   0  0  0  0  0  0  0  0  0  0  0  0
   -2.7147   -1.2402    0.8798 H   0  0  0  0  0  0  0  0  0  0  0  0
   -0.2259   -0.6747    0.0587 C   0  0  0  0  0  0  0  0  0  0  0  0
   -1.3026    0.6586    0.7550 H   0  0  0  0  0  0  0  0  0  0  0  0
   -1.3520    1.0332   -1.1325 H   0  0  0  0  0  0  0  0  0  0  0  0
   -0.1563   -1.1870    0.8725 H   0  0  0  0  0  0  0  0  0  0  0  0
    0.7053   -0.0053    0.1858 H   0  0  0  0  0  0  0  0  0  0  0  0
   -0.1364   -1.3744   -0.8746 H   0  0  0  0  0  0  0  0  0  0  0  0
  1  2  1  0  0  0  0
  1  5  1  0  0  0  0
  2  8  1  0  0  0  0
  3  1  1  0  0  0  0
  4  1  1  0  0  0  0
  6  9  1  0  0  0  0
  6  2  1  0  0  0  0
  6 10  1  0  0  0  0
  7  2  1  0  0  0  0
  9 13  1  0  0  0  0
  9 12  1  0  0  0  0
 11  6  1  0  0  0  0
 14  9  1  0  0  0  0
M  END
$$$$
