14
butane_opt
C  -3.942244   0.253412   0.037559
C  -2.719709  -0.602227   0.021431
H  -4.857471  -0.347399  -0.069104
H  -3.955613   0.720655  -0.747797
H  -3.979013   1.061957   0.996021
C  -1.411546   0.202224  -0.025774
H  -2.727201  -1.259431  -0.816764
H  -2.763423  -1.219934   0.917063
C  -0.141429  -0.704215   0.053541
H  -1.387850   0.844198   0.805462
H  -1.372554   0.815307  -0.928792
H  -0.078472  -1.430501   1.010253
H   0.780215  -0.112369   0.002528
H  -0.104163  -1.334655  -0.742499
