butane_opt
 OpenBabel08242015393D

 14 13  0  0  0  0  0  0  0  0999 V2000
   -3.9519    0.2755    0.0384 C   0  0  0  0  0  0  0  0  0  0  0  0
   -2.7073   -0.6320    0.0365 C   0  0  0  0  0  0  0  0  0  0  0  0
   -4.8612   -0.3127   -0.0536 H   0  0  0  0  0  0  0  0  0  0  0  0
   -3.9360    0.8123   -0.8110 H   0  0  0  0  0  0  0  0  0  0  0  0
   -4.0253    1.0366    0.9568 H   0  0  0  0  0  0  0  0  0  0  0  0
   -1.3893    0.1829   -0.0271 C   0  0  0  0  0  0  0  0  0  0  0  0
   -2.7680   -1.3246   -0.8377 H   0  0  0  0  0  0  0  0  0  0  0  0
   -2.6783   -1.2248    0.8982 H   0  0  0  0  0  0  0  0  0  0  0  0
   -0.1636   -0.6857    0.0580 C   0  0  0  0  0  0  0  0  0  0  0  0
   -1.4149    0.8098    0.8089 H   0  0  0  0  0  0  0  0  0  0  0  0
   -1.3507    0.8245   -0.9319 H   0  0  0  0  0  0  0  0  0  0  0  0
   -0.1470   -1.3153    0.9200 H   0  0  0  0  0  0  0  0  0  0  0  0
    0.7521   -0.0976    0.0226 H   0  0  0  0  0  0  0  0  0  0  0  0
   -0.0578   -1.3625   -0.8012 H   0  0  0  0  0  0  0  0  0  0  0  0
  1  5  1  0  0  0  0
  2  1  1  0  0  0  0
  2  8  1  0  0  0  0
  3  1  1  0  0  0  0
  4  1  1  0  0  0  0
  6  2  1  0  0  0  0
  6  9  1  0  0  0  0
  6 10  1  0  0  0  0
  7  2  1  0  0  0  0
  9 12  1  0  0  0  0
 11  6  1  0  0  0  0
 13  9  1  0  0  0  0
 14  9  1  0  0  0  0
M  END
$$$$
