14
butane_opt
C  -3.991237   0.308814   0.049374
C  -2.713239  -0.676577   0.000037
H  -4.811224  -0.200302   0.211847
H  -4.187561   0.974751  -0.926391
H  -3.835677   0.939771   0.993035
C  -1.387753   0.147613  -0.015913
H  -2.679296  -1.345643  -0.839263
H  -2.601192  -1.318838   0.894133
C  -0.136331  -0.667911   0.065444
H  -1.400065   0.646178   0.639120
H  -1.333692   0.946098  -1.063713
H  -0.336916  -0.989823   0.766059
H   0.883432   0.024798   0.434575
H  -0.001800  -1.460534  -0.880874
