butane_opt
 OpenBabel08242015383D

 14 13  0  0  0  0  0  0  0  0999 V2000
   -3.9653    0.2885    0.0259 C   0  0  0  0  0  0  0  0  0  0  0  0
   -2.6563   -0.6339    0.0360 C   0  0  0  0  0  0  0  0  0  0  0  0
   -4.7714   -0.2239    0.0563 H   0  0  0  0  0  0  0  0  0  0  0  0
   -4.0031    0.8139   -0.8174 H   0  0  0  0  0  0  0  0  0  0  0  0
   -3.9227    1.1804    0.9353 H   0  0  0  0  0  0  0  0  0  0  0  0
   -1.3822    0.1077   -0.0124 C   0  0  0  0  0  0  0  0  0  0  0  0
   -2.7925   -1.2909   -0.7913 H   0  0  0  0  0  0  0  0  0  0  0  0
   -2.7074   -1.2887    1.0004 H   0  0  0  0  0  0  0  0  0  0  0  0
   -0.1931   -0.6554    0.0394 C   0  0  0  0  0  0  0  0  0  0  0  0
   -1.3638    0.6441    0.7876 H   0  0  0  0  0  0  0  0  0  0  0  0
   -1.3845    0.9322   -1.0977 H   0  0  0  0  0  0  0  0  0  0  0  0
   -0.3868   -1.0701    0.8298 H   0  0  0  0  0  0  0  0  0  0  0  0
    0.8048   -0.0324    0.3567 H   0  0  0  0  0  0  0  0  0  0  0  0
   -0.1536   -1.4018   -0.8771 H   0  0  0  0  0  0  0  0  0  0  0  0
  1  2  1  0  0  0  0
  1  3  1  0  0  0  0
  1  5  1  0  0  0  0
  2  8  1  0  0  0  0
  4  1  1  0  0  0  0
  6  2  1  0  0  0  0
  6  9  1  0  0  0  0
  6 10  1  0  0  0  0
  7  2  1  0  0  0  0
  9 13  1  0  0  0  0
  9 12  1  0  0  0  0
 11  6  1  0  0  0  0
 14  9  1  0  0  0  0
M  END
$$$$
