14
butane_opt
C  -3.961731   0.314072  -0.024496
C  -2.664564  -0.639377   0.119074
H  -4.918197  -0.356173  -0.305932
H  -3.680316   0.589462  -0.766781
H  -4.135895   1.196078   0.882105
C  -1.404621   0.128024   0.032511
H  -2.590285  -1.284883  -0.716276
H  -2.844020  -1.359399   1.062434
C  -0.189952  -0.675711  -0.024237
H  -1.309928   0.877732   0.998490
H  -1.463732   0.766085  -0.871334
H  -0.145127  -1.300993   0.937623
H   0.799792   0.043424  -0.134818
H  -0.127609  -1.160516  -0.828179
