butane_opt
 OpenBabel08242015383D

 14 13  0  0  0  0  0  0  0  0999 V2000
   -3.9289    0.2814   -0.0593 C   0  0  0  0  0  0  0  0  0  0  0  0
   -2.6590   -0.6624    0.1196 C   0  0  0  0  0  0  0  0  0  0  0  0
   -4.9063   -0.3252    0.1222 H   0  0  0  0  0  0  0  0  0  0  0  0
   -4.0268    0.9360   -0.9320 H   0  0  0  0  0  0  0  0  0  0  0  0
   -3.9712    0.9753    0.8352 H   0  0  0  0  0  0  0  0  0  0  0  0
   -1.4188    0.1674    0.0638 C   0  0  0  0  0  0  0  0  0  0  0  0
   -2.6016   -1.1956   -0.6938 H   0  0  0  0  0  0  0  0  0  0  0  0
   -2.7459   -1.2510    0.9525 H   0  0  0  0  0  0  0  0  0  0  0  0
   -0.2004   -0.6530   -0.0082 C   0  0  0  0  0  0  0  0  0  0  0  0
   -1.3366    0.7354    0.8764 H   0  0  0  0  0  0  0  0  0  0  0  0
   -1.4187    0.8168   -0.9186 H   0  0  0  0  0  0  0  0  0  0  0  0
   -0.1184   -1.1066    0.7358 H   0  0  0  0  0  0  0  0  0  0  0  0
    0.6590   -0.1101    0.1480 H   0  0  0  0  0  0  0  0  0  0  0  0
   -0.0845   -1.5618   -1.0831 H   0  0  0  0  0  0  0  0  0  0  0  0
  1  2  1  0  0  0  0
  1  3  1  0  0  0  0
  1  5  1  0  0  0  0
  2  8  1  0  0  0  0
  4  1  1  0  0  0  0
  6  2  1  0  0  0  0
  6 10  1  0  0  0  0
  7  2  1  0  0  0  0
  9  6  1  0  0  0  0
  9 13  1  0  0  0  0
  9 12  1  0  0  0  0
 11  6  1  0  0  0  0
 14  9  1  0  0  0  0
M  END
$$$$
