butane_opt
 OpenBabel08242015393D

 14 13  0  0  0  0  0  0  0  0999 V2000
   -3.9369    0.2682    0.0367 C   0  0  0  0  0  0  0  0  0  0  0  0
   -2.6945   -0.6249    0.0046 C   0  0  0  0  0  0  0  0  0  0  0  0
   -4.8338   -0.2851    0.0690 H   0  0  0  0  0  0  0  0  0  0  0  0
   -3.9604    0.8355   -0.8276 H   0  0  0  0  0  0  0  0  0  0  0  0
   -3.9415    1.0146    0.9847 H   0  0  0  0  0  0  0  0  0  0  0  0
   -1.4043    0.1691   -0.0152 C   0  0  0  0  0  0  0  0  0  0  0  0
   -2.7438   -1.2966   -0.8427 H   0  0  0  0  0  0  0  0  0  0  0  0
   -2.7008   -1.2287    0.8761 H   0  0  0  0  0  0  0  0  0  0  0  0
   -0.1729   -0.6818    0.0584 C   0  0  0  0  0  0  0  0  0  0  0  0
   -1.4425    0.8797    0.8581 H   0  0  0  0  0  0  0  0  0  0  0  0
   -1.3557    0.8228   -0.8955 H   0  0  0  0  0  0  0  0  0  0  0  0
   -0.1349   -1.4145    1.0244 H   0  0  0  0  0  0  0  0  0  0  0  0
    0.7591   -0.0844   -0.0591 H   0  0  0  0  0  0  0  0  0  0  0  0
   -0.1764   -1.2770   -0.7483 H   0  0  0  0  0  0  0  0  0  0  0  0
  1  3  1  0  0  0  0
  1  5  1  0  0  0  0
  2  1  1  0  0  0  0
  2  8  1  0  0  0  0
  4  1  1  0  0  0  0
  6  2  1  0  0  0  0
  6  9  1  0  0  0  0
  6 10  1  0  0  0  0
  7  2  1  0  0  0  0
  9 12  1  0  0  0  0
 11  6  1  0  0  0  0
 13  9  1  0  0  0  0
 14  9  1  0  0  0  0
M  END
$$$$
