14
butane_opt
C  -3.943577   0.255531  -0.016190
C  -2.708620  -0.612566   0.052897
H  -4.881012  -0.379015   0.142384
H  -4.002301   0.997258  -0.975356
H  -3.914967   0.841932   0.794662
C  -1.408335   0.203739   0.047201
H  -2.686840  -1.261205  -0.761101
H  -2.705246  -1.288592   0.999994
C  -0.149513  -0.699233   0.012324
H  -1.368178   0.930849   0.951504
H  -1.424074   0.774476  -0.808270
H  -0.082679  -1.260306   0.866201
H   0.722756  -0.155902  -0.040052
H  -0.150764  -1.445416  -0.907300
