14
butane_opt
C  -3.924217   0.257911   0.102346
C  -2.669862  -0.601799  -0.087998
H  -4.875883  -0.386498  -0.060324
H  -3.906423   0.766457  -0.685850
H  -3.704966   0.985119   1.066328
C  -1.403551   0.213198  -0.018895
H  -2.856536  -1.434414  -0.943678
H  -2.658209  -1.106191   0.713449
C  -0.203403  -0.719571   0.108518
H  -1.583537   0.795496   0.730758
H  -1.248990   0.907473  -0.972841
H  -0.029762  -1.660778   1.177581
H   0.580434  -0.174414  -0.369785
H  -0.322488  -0.955173  -0.446733
