butane_opt
 OpenBabel08242015383D

 14 13  0  0  0  0  0  0  0  0999 V2000
   -3.9553    0.2696   -0.0260 C   0  0  0  0  0  0  0  0  0  0  0  0
   -2.6610   -0.6316    0.1242 C   0  0  0  0  0  0  0  0  0  0  0  0
   -4.7307   -0.1428   -0.4092 H   0  0  0  0  0  0  0  0  0  0  0  0
   -3.8497    0.8194   -0.8678 H   0  0  0  0  0  0  0  0  0  0  0  0
   -4.1371    1.1068    0.8093 H   0  0  0  0  0  0  0  0  0  0  0  0
   -1.4113    0.1113    0.0778 C   0  0  0  0  0  0  0  0  0  0  0  0
   -2.5943   -1.2572   -0.6756 H   0  0  0  0  0  0  0  0  0  0  0  0
   -2.7053   -1.1862    1.0168 H   0  0  0  0  0  0  0  0  0  0  0  0
   -0.1886   -0.6609   -0.0373 C   0  0  0  0  0  0  0  0  0  0  0  0
   -1.2196    0.7119    0.9293 H   0  0  0  0  0  0  0  0  0  0  0  0
   -1.5480    0.8444   -0.9085 H   0  0  0  0  0  0  0  0  0  0  0  0
   -0.2112   -1.2225    0.8447 H   0  0  0  0  0  0  0  0  0  0  0  0
    0.8531    0.0649   -0.0941 H   0  0  0  0  0  0  0  0  0  0  0  0
   -0.3097   -1.2576   -0.8553 H   0  0  0  0  0  0  0  0  0  0  0  0
  1  2  1  0  0  0  0
  1  5  1  0  0  0  0
  2  8  1  0  0  0  0
  3  1  1  0  0  0  0
  4  1  1  0  0  0  0
  6  2  1  0  0  0  0
  6 10  1  0  0  0  0
  7  2  1  0  0  0  0
  9  6  1  0  0  0  0
  9 12  1  0  0  0  0
 11  6  1  0  0  0  0
 13  9  1  0  0  0  0
 14  9  1  0  0  0  0
M  END
$$$$
