14
butane_opt
C  -3.890929   0.228073   0.153632
C  -2.717859  -0.577839  -0.102715
H  -4.844423  -0.362085   0.317943
H  -4.113008   0.935179  -0.814008
H  -3.717528   0.866070   0.959240
C  -1.398347   0.204479  -0.143615
H  -2.874535  -1.294167  -1.034560
H  -2.719929  -1.150585   0.791381
C  -0.190309  -0.734061   0.163607
H  -1.635458   0.998570   0.792947
H  -1.378089   0.842632  -1.030494
H  -0.247398  -1.253862   1.039204
H   0.720613  -0.185012   0.183788
H   0.161419  -1.326566  -0.642637
