butane_opt
 OpenBabel08242015383D

 14 13  0  0  0  0  0  0  0  0999 V2000
   -3.9147    0.2450   -0.0555 C   0  0  0  0  0  0  0  0  0  0  0  0
   -2.7191   -0.6109    0.0981 C   0  0  0  0  0  0  0  0  0  0  0  0
   -4.9024   -0.3430   -0.0260 H   0  0  0  0  0  0  0  0  0  0  0  0
   -3.6985    0.9717   -1.0423 H   0  0  0  0  0  0  0  0  0  0  0  0
   -4.1077    0.8205    0.6861 H   0  0  0  0  0  0  0  0  0  0  0  0
   -1.4150    0.2289    0.1327 C   0  0  0  0  0  0  0  0  0  0  0  0
   -2.7880   -1.2093   -0.7777 H   0  0  0  0  0  0  0  0  0  0  0  0
   -2.8783   -1.3045    1.0835 H   0  0  0  0  0  0  0  0  0  0  0  0
   -0.1547   -0.7350   -0.0660 C   0  0  0  0  0  0  0  0  0  0  0  0
   -1.4006    1.1819    1.1279 H   0  0  0  0  0  0  0  0  0  0  0  0
   -1.4309    0.6681   -0.6347 H   0  0  0  0  0  0  0  0  0  0  0  0
    0.1326   -1.4989    0.9025 H   0  0  0  0  0  0  0  0  0  0  0  0
    0.7155   -0.2266   -0.3911 H   0  0  0  0  0  0  0  0  0  0  0  0
   -0.2144   -1.0799   -0.7842 H   0  0  0  0  0  0  0  0  0  0  0  0
  1  3  1  0  0  0  0
  1  2  1  0  0  0  0
  1  5  1  0  0  0  0
  2  6  1  0  0  0  0
  2  8  1  0  0  0  0
  4  1  1  0  0  0  0
  6 10  1  0  0  0  0
  7  2  1  0  0  0  0
  9  6  1  0  0  0  0
  9 12  1  0  0  0  0
 11  6  1  0  0  0  0
 13  9  1  0  0  0  0
 14  9  1  0  0  0  0
M  END
$$$$
