butane_opt
 OpenBabel08242015383D

 14 13  0  0  0  0  0  0  0  0999 V2000
   -3.9912    0.3088    0.0494 C   0  0  0  0  0  0  0  0  0  0  0  0
   -2.7132   -0.6766    0.0000 C   0  0  0  0  0  0  0  0  0  0  0  0
   -4.8112   -0.2003    0.2118 H   0  0  0  0  0  0  0  0  0  0  0  0
   -4.1876    0.9748   -0.9264 H   0  0  0  0  0  0  0  0  0  0  0  0
   -3.8357    0.9398    0.9930 H   0  0  0  0  0  0  0  0  0  0  0  0
   -1.3878    0.1476   -0.0159 C   0  0  0  0  0  0  0  0  0  0  0  0
   -2.6793   -1.3456   -0.8393 H   0  0  0  0  0  0  0  0  0  0  0  0
   -2.6012   -1.3188    0.8941 H   0  0  0  0  0  0  0  0  0  0  0  0
   -0.1363   -0.6679    0.0654 C   0  0  0  0  0  0  0  0  0  0  0  0
   -1.4001    0.6462    0.6391 H   0  0  0  0  0  0  0  0  0  0  0  0
   -1.3337    0.9461   -1.0637 H   0  0  0  0  0  0  0  0  0  0  0  0
   -0.3369   -0.9898    0.7661 H   0  0  0  0  0  0  0  0  0  0  0  0
    0.8834    0.0248    0.4346 H   0  0  0  0  0  0  0  0  0  0  0  0
   -0.0018   -1.4605   -0.8809 H   0  0  0  0  0  0  0  0  0  0  0  0
  1  3  1  0  0  0  0
  1  5  1  0  0  0  0
  2  1  1  0  0  0  0
  2  8  1  0  0  0  0
  4  1  1  0  0  0  0
  6  2  1  0  0  0  0
  6  9  1  0  0  0  0
  6 10  1  0  0  0  0
  7  2  1  0  0  0  0
  9 13  1  0  0  0  0
  9 12  1  0  0  0  0
 11  6  1  0  0  0  0
 14  9  1  0  0  0  0
M  END
$$$$
