butane_opt
 OpenBabel08242015393D

 14 12  0  0  0  0  0  0  0  0999 V2000
   -3.9647    0.2351    0.0511 C   0  0  0  0  0  0  0  0  0  0  0  0
   -2.7148   -0.6145    0.0336 C   0  0  0  0  0  0  0  0  0  0  0  0
   -4.8014   -0.3544   -0.4081 H   0  0  0  0  0  0  0  0  0  0  0  0
   -3.8720    0.4414   -0.5521 H   0  0  0  0  0  0  0  0  0  0  0  0
   -3.9154    1.3522    1.2071 H   0  0  0  0  0  0  0  0  0  0  0  0
   -1.4395    0.2428   -0.0696 C   0  0  0  0  0  0  0  0  0  0  0  0
   -2.7535   -1.2354   -0.7787 H   0  0  0  0  0  0  0  0  0  0  0  0
   -2.9043   -1.3160    0.9078 H   0  0  0  0  0  0  0  0  0  0  0  0
   -0.0985   -0.7205    0.0842 C   0  0  0  0  0  0  0  0  0  0  0  0
   -1.4453    0.8813    0.7460 H   0  0  0  0  0  0  0  0  0  0  0  0
   -1.4205    1.0337   -1.0730 H   0  0  0  0  0  0  0  0  0  0  0  0
   -0.0530   -1.4727    1.0980 H   0  0  0  0  0  0  0  0  0  0  0  0
    0.7872   -0.1765   -0.0734 H   0  0  0  0  0  0  0  0  0  0  0  0
   -0.0524   -1.3507   -0.7728 H   0  0  0  0  0  0  0  0  0  0  0  0
  2  1  1  0  0  0  0
  2  8  1  0  0  0  0
  3  1  1  0  0  0  0
  4  1  1  0  0  0  0
  6  2  1  0  0  0  0
  6  9  1  0  0  0  0
  6 10  1  0  0  0  0
  7  2  1  0  0  0  0
  9 12  1  0  0  0  0
 11  6  1  0  0  0  0
 13  9  1  0  0  0  0
 14  9  1  0  0  0  0
M  RAD  2   1   2   5   2
M  END
$$$$
