butane_opt
 OpenBabel08242015383D

 14 13  0  0  0  0  0  0  0  0999 V2000
   -3.9579    0.2737    0.0392 C   0  0  0  0  0  0  0  0  0  0  0  0
   -2.6976   -0.6319    0.0257 C   0  0  0  0  0  0  0  0  0  0  0  0
   -4.8626   -0.3008   -0.0517 H   0  0  0  0  0  0  0  0  0  0  0  0
   -4.0113    0.8279   -0.7985 H   0  0  0  0  0  0  0  0  0  0  0  0
   -4.0162    1.0131    0.9357 H   0  0  0  0  0  0  0  0  0  0  0  0
   -1.4005    0.1766   -0.0069 C   0  0  0  0  0  0  0  0  0  0  0  0
   -2.6771   -1.3267   -0.8360 H   0  0  0  0  0  0  0  0  0  0  0  0
   -2.7183   -1.2390    0.8998 H   0  0  0  0  0  0  0  0  0  0  0  0
   -0.1529   -0.6896    0.0505 C   0  0  0  0  0  0  0  0  0  0  0  0
   -1.3863    0.8208    0.8242 H   0  0  0  0  0  0  0  0  0  0  0  0
   -1.3401    0.8814   -0.9947 H   0  0  0  0  0  0  0  0  0  0  0  0
   -0.1495   -1.3199    0.9380 H   0  0  0  0  0  0  0  0  0  0  0  0
    0.7960   -0.0492    0.0202 H   0  0  0  0  0  0  0  0  0  0  0  0
   -0.1529   -1.3247   -0.7882 H   0  0  0  0  0  0  0  0  0  0  0  0
  1  5  1  0  0  0  0
  2  1  1  0  0  0  0
  2  8  1  0  0  0  0
  3  1  1  0  0  0  0
  4  1  1  0  0  0  0
  6  2  1  0  0  0  0
  6  9  1  0  0  0  0
  6 10  1  0  0  0  0
  7  2  1  0  0  0  0
  9 12  1  0  0  0  0
 11  6  1  0  0  0  0
 13  9  1  0  0  0  0
 14  9  1  0  0  0  0
M  END
$$$$
