14
butane_opt
C  -4.004921   0.267650  -0.029848
C  -2.705737  -0.633121   0.098070
H  -4.795450  -0.165771   0.229466
H  -4.143130   1.212196  -1.184571
H  -4.046957   0.725218   0.710585
C  -1.375206   0.165550   0.028345
H  -2.744661  -1.237609  -0.673865
H  -2.582643  -1.349147   1.038352
C  -0.118582  -0.673476  -0.014353
H  -1.345541   0.856136   0.994548
H  -1.428233   0.567863  -0.671738
H  -0.304647  -0.978925   0.742210
H   0.852822   0.062185   0.280546
H  -0.042076  -1.651494  -1.094560
