14
butane_opt
C  -3.934749   0.295072  -0.064769
C  -2.664844  -0.653795   0.072392
H  -4.809704  -0.322609   0.464102
H  -4.277818   1.291421  -1.184033
H  -3.905592   0.535476   0.586802
C  -1.390263   0.157781   0.095024
H  -2.582200  -1.280617  -0.708539
H  -2.646446  -1.348118   1.039587
C  -0.219784  -0.653183  -0.035235
H  -1.216491   1.040457   1.146563
H  -1.517329   0.645190  -0.594040
H  -0.238356  -1.183169   0.853580
H   0.756252  -0.032893   0.031006
H  -0.076761  -1.555227  -1.073300
