butane_opt
 OpenBabel08242015393D

 14 13  0  0  0  0  0  0  0  0999 V2000
   -3.9257    0.2422   -0.0142 C   0  0  0  0  0  0  0  0  0  0  0  0
   -2.7662   -0.6103    0.0515 C   0  0  0  0  0  0  0  0  0  0  0  0
   -4.7984   -0.3746    0.2258 H   0  0  0  0  0  0  0  0  0  0  0  0
   -4.0030    1.0660   -1.0903 H   0  0  0  0  0  0  0  0  0  0  0  0
   -3.9724    0.5993    0.6296 H   0  0  0  0  0  0  0  0  0  0  0  0
   -1.4154    0.2704    0.0612 C   0  0  0  0  0  0  0  0  0  0  0  0
   -2.8337   -1.2823   -0.7389 H   0  0  0  0  0  0  0  0  0  0  0  0
   -2.7194   -1.2050    0.9210 H   0  0  0  0  0  0  0  0  0  0  0  0
   -0.1033   -0.7465    0.0047 C   0  0  0  0  0  0  0  0  0  0  0  0
   -1.3278    1.0255    1.0602 H   0  0  0  0  0  0  0  0  0  0  0  0
   -1.5123    0.7758   -0.7122 H   0  0  0  0  0  0  0  0  0  0  0  0
    0.0373   -1.2573    0.8333 H   0  0  0  0  0  0  0  0  0  0  0  0
    0.7358   -0.2075   -0.1311 H   0  0  0  0  0  0  0  0  0  0  0  0
   -0.0937   -1.4738   -0.8414 H   0  0  0  0  0  0  0  0  0  0  0  0
  1  2  1  0  0  0  0
  1  3  1  0  0  0  0
  1  5  1  0  0  0  0
  2  6  1  0  0  0  0
  2  8  1  0  0  0  0
  4  1  1  0  0  0  0
  6 10  1  0  0  0  0
  7  2  1  0  0  0  0
  9  6  1  0  0  0  0
  9 12  1  0  0  0  0
 11  6  1  0  0  0  0
 13  9  1  0  0  0  0
 14  9  1  0  0  0  0
M  END
$$$$
