14
butane_opt
C  -3.947789   0.292930  -0.067136
C  -2.673086  -0.627355   0.100730
H  -4.968513  -0.400908   0.253749
H  -3.897523   1.152419  -1.102808
H  -4.004090   0.763884   0.695519
C  -1.428121   0.157341   0.109616
H  -2.557511  -1.343617  -0.756565
H  -2.717892  -1.391721   1.118967
C  -0.173258  -0.677962  -0.066749
H  -1.288865   0.902971   1.044028
H  -1.362413   0.680556  -0.620238
H  -0.210289  -1.218607   0.858115
H   0.804714   0.009704   0.035285
H  -0.153121  -1.362263  -1.027369
