butane_opt
 OpenBabel08242015393D

 14 13  0  0  0  0  0  0  0  0999 V2000
   -3.9018    0.2368   -0.0991 C   0  0  0  0  0  0  0  0  0  0  0  0
   -2.6939   -0.5923    0.1463 C   0  0  0  0  0  0  0  0  0  0  0  0
   -4.8359   -0.4166   -0.1724 H   0  0  0  0  0  0  0  0  0  0  0  0
   -3.7445    0.7939   -1.0649 H   0  0  0  0  0  0  0  0  0  0  0  0
   -4.0046    0.8340    0.7185 H   0  0  0  0  0  0  0  0  0  0  0  0
   -1.4549    0.2409    0.1800 C   0  0  0  0  0  0  0  0  0  0  0  0
   -2.7406   -1.1364   -0.6243 H   0  0  0  0  0  0  0  0  0  0  0  0
   -2.8298   -1.3049    0.9942 H   0  0  0  0  0  0  0  0  0  0  0  0
   -0.1322   -0.7303   -0.0846 C   0  0  0  0  0  0  0  0  0  0  0  0
   -1.4476    0.9134    1.0396 H   0  0  0  0  0  0  0  0  0  0  0  0
   -1.5656    0.8571   -0.7023 H   0  0  0  0  0  0  0  0  0  0  0  0
    0.2079   -1.3810    0.7975 H   0  0  0  0  0  0  0  0  0  0  0  0
    0.6771   -0.2479   -0.3152 H   0  0  0  0  0  0  0  0  0  0  0  0
   -0.5303   -1.2489   -0.9194 H   0  0  0  0  0  0  0  0  0  0  0  0
  1  2  1  0  0  0  0
  1  5  1  0  0  0  0
  2  6  1  0  0  0  0
  2  8  1  0  0  0  0
  3  1  1  0  0  0  0
  4  1  1  0  0  0  0
  6 10  1  0  0  0  0
  7  2  1  0  0  0  0
  9  6  1  0  0  0  0
  9 12  1  0  0  0  0
 11  6  1  0  0  0  0
 13  9  1  0  0  0  0
 14  9  1  0  0  0  0
M  END
$$$$
