butane_opt
 OpenBabel08242015383D

 14 13  0  0  0  0  0  0  0  0999 V2000
   -3.9797    0.2464   -0.0951 C   0  0  0  0  0  0  0  0  0  0  0  0
   -2.7194   -0.5889    0.1289 C   0  0  0  0  0  0  0  0  0  0  0  0
   -4.8773   -0.4025    0.0877 H   0  0  0  0  0  0  0  0  0  0  0  0
   -3.9424    0.9910   -1.0634 H   0  0  0  0  0  0  0  0  0  0  0  0
   -3.9784    0.7199    0.5984 H   0  0  0  0  0  0  0  0  0  0  0  0
   -1.4323    0.1879    0.1701 C   0  0  0  0  0  0  0  0  0  0  0  0
   -2.6581   -1.2532   -0.7827 H   0  0  0  0  0  0  0  0  0  0  0  0
   -2.7769   -1.1702    1.0390 H   0  0  0  0  0  0  0  0  0  0  0  0
   -0.1049   -0.7112   -0.0473 C   0  0  0  0  0  0  0  0  0  0  0  0
   -1.4028    1.0340    1.0772 H   0  0  0  0  0  0  0  0  0  0  0  0
   -1.2919    0.7676   -0.7558 H   0  0  0  0  0  0  0  0  0  0  0  0
    0.2508   -1.3410    0.7744 H   0  0  0  0  0  0  0  0  0  0  0  0
    0.7594   -0.1139   -0.4997 H   0  0  0  0  0  0  0  0  0  0  0  0
   -0.2710   -1.3228   -0.9412 H   0  0  0  0  0  0  0  0  0  0  0  0
  1  3  1  0  0  0  0
  1  2  1  0  0  0  0
  1  5  1  0  0  0  0
  2  6  1  0  0  0  0
  2  8  1  0  0  0  0
  4  1  1  0  0  0  0
  6 10  1  0  0  0  0
  7  2  1  0  0  0  0
  9  6  1  0  0  0  0
  9 12  1  0  0  0  0
 11  6  1  0  0  0  0
 13  9  1  0  0  0  0
 14  9  1  0  0  0  0
M  END
$$$$
