butane_opt
 OpenBabel08242015393D

 14 13  0  0  0  0  0  0  0  0999 V2000
   -3.9524    0.2897    0.1612 C   0  0  0  0  0  0  0  0  0  0  0  0
   -2.6951   -0.6222   -0.0735 C   0  0  0  0  0  0  0  0  0  0  0  0
   -4.8154   -0.3523    0.0715 H   0  0  0  0  0  0  0  0  0  0  0  0
   -4.0214    0.9004   -0.7090 H   0  0  0  0  0  0  0  0  0  0  0  0
   -3.8347    0.8879    0.9457 H   0  0  0  0  0  0  0  0  0  0  0  0
   -1.4081    0.1406   -0.1571 C   0  0  0  0  0  0  0  0  0  0  0  0
   -2.7711   -1.2569   -0.8940 H   0  0  0  0  0  0  0  0  0  0  0  0
   -2.5562   -1.1954    0.7749 H   0  0  0  0  0  0  0  0  0  0  0  0
   -0.1721   -0.6695    0.1320 C   0  0  0  0  0  0  0  0  0  0  0  0
   -1.4189    0.8082    0.7678 H   0  0  0  0  0  0  0  0  0  0  0  0
   -1.1155    0.8123   -1.0683 H   0  0  0  0  0  0  0  0  0  0  0  0
   -0.4963   -1.1745    1.0357 H   0  0  0  0  0  0  0  0  0  0  0  0
    0.6918   -0.1524    0.4401 H   0  0  0  0  0  0  0  0  0  0  0  0
    0.0470   -1.4274   -0.7151 H   0  0  0  0  0  0  0  0  0  0  0  0
  1  5  1  0  0  0  0
  2  1  1  0  0  0  0
  2  8  1  0  0  0  0
  3  1  1  0  0  0  0
  4  1  1  0  0  0  0
  6  2  1  0  0  0  0
  6  9  1  0  0  0  0
  6 10  1  0  0  0  0
  7  2  1  0  0  0  0
  9 13  1  0  0  0  0
  9 12  1  0  0  0  0
 11  6  1  0  0  0  0
 14  9  1  0  0  0  0
M  END
$$$$
