14
butane_opt
C  -3.948650   0.301159  -0.061478
C  -2.707661  -0.641810   0.193064
H  -4.793121  -0.330039  -0.568379
H  -3.612794   0.747177  -0.905476
H  -4.403260   1.007873   0.770029
C  -1.361679   0.161873   0.087455
H  -2.680139  -1.246471  -0.511156
H  -2.784836  -1.334969   1.156138
C  -0.169131  -0.690189  -0.078466
H  -1.338009   0.946935   0.998690
H  -1.507838   0.825333  -0.836319
H  -0.113122  -1.203331   0.711220
H   0.778423  -0.066922  -0.001372
H  -0.331527  -1.395347  -1.051222
