14
butane_opt
C  -3.989674   0.325509  -0.115961
C  -2.698819  -0.663564   0.179892
H  -4.937227  -0.225110  -0.178117
H  -3.998945   0.676489  -0.839087
H  -4.135635   0.992685   0.767095
C  -1.361816   0.145075   0.087115
H  -2.693840  -1.111625  -0.497023
H  -2.769245  -1.488974   1.214393
C  -0.154375  -0.654553  -0.061038
H  -1.224321   0.805317   1.048835
H  -1.402258   0.718985  -0.759888
H  -0.057126  -1.076475   0.643961
H   0.737172  -0.053851   0.080724
H  -0.118981  -1.540465  -1.138176
