butane_opt
 OpenBabel08242015393D

 14 13  0  0  0  0  0  0  0  0999 V2000
   -3.9102    0.2854    0.0674 C   0  0  0  0  0  0  0  0  0  0  0  0
   -2.6524   -0.6596   -0.0140 C   0  0  0  0  0  0  0  0  0  0  0  0
   -4.8288   -0.2429    0.3006 H   0  0  0  0  0  0  0  0  0  0  0  0
   -4.0667    0.8785   -0.7612 H   0  0  0  0  0  0  0  0  0  0  0  0
   -3.8884    0.9996    0.9602 H   0  0  0  0  0  0  0  0  0  0  0  0
   -1.4165    0.1757   -0.0757 C   0  0  0  0  0  0  0  0  0  0  0  0
   -2.8281   -1.4427   -0.9484 H   0  0  0  0  0  0  0  0  0  0  0  0
   -2.6245   -1.1414    0.8467 H   0  0  0  0  0  0  0  0  0  0  0  0
   -0.1924   -0.6601    0.0944 C   0  0  0  0  0  0  0  0  0  0  0  0
   -1.4656    0.6831    0.6628 H   0  0  0  0  0  0  0  0  0  0  0  0
   -1.3974    0.8740   -1.0235 H   0  0  0  0  0  0  0  0  0  0  0  0
   -0.4871   -1.2298    1.0102 H   0  0  0  0  0  0  0  0  0  0  0  0
    0.7277   -0.0258    0.3308 H   0  0  0  0  0  0  0  0  0  0  0  0
   -0.1080   -1.5230   -0.8098 H   0  0  0  0  0  0  0  0  0  0  0  0
  1  3  1  0  0  0  0
  1  5  1  0  0  0  0
  2  1  1  0  0  0  0
  2  8  1  0  0  0  0
  4  1  1  0  0  0  0
  6  2  1  0  0  0  0
  6  9  1  0  0  0  0
  6 10  1  0  0  0  0
  7  2  1  0  0  0  0
  9 13  1  0  0  0  0
  9 12  1  0  0  0  0
 11  6  1  0  0  0  0
 14  9  1  0  0  0  0
M  END
$$$$
