14
butane_opt
C  -3.927901   0.242433   0.040833
C  -2.696132  -0.605620   0.018937
H  -4.896899  -0.484720   0.113417
H  -3.917088   1.041594  -1.000307
H  -3.902461   0.844441   0.790615
C  -1.417692   0.226230   0.033523
H  -2.750217  -1.508376  -1.012162
H  -2.696474  -1.095776   0.796781
C  -0.172660  -0.712070   0.054876
H  -1.515740   1.015263   0.911980
H  -1.419268   0.813158  -0.916313
H   0.092805  -1.484320   1.044500
H   0.685460  -0.187030  -0.381050
H  -0.129372  -1.232001  -0.691112
