14
butane_opt
C  -3.977169   0.284627  -0.084331
C  -2.708658  -0.669534   0.124867
H  -4.788863  -0.151539  -0.028073
H  -3.860969   1.034657  -1.084027
H  -4.234278   0.996836   0.777928
C  -1.345924   0.190442   0.136585
H  -2.586749  -1.318899  -0.696872
H  -2.954113  -1.443430   1.132109
C  -0.158989  -0.681495  -0.086290
H  -1.260504   1.050124   1.101265
H  -1.531235   0.623622  -0.520600
H  -0.085240  -1.507335   0.942929
H   0.866758  -0.042814  -0.316798
H  -0.311045  -1.168819  -0.921610
