butane_opt
 OpenBabel08242015383D

 14 12  0  0  0  0  0  0  0  0999 V2000
   -3.9136    0.2364    0.0049 C   0  0  0  0  0  0  0  0  0  0  0  0
   -2.7038   -0.5674    0.0403 C   0  0  0  0  0  0  0  0  0  0  0  0
   -4.9415   -0.5304    0.4113 H   0  0  0  0  0  0  0  0  0  0  0  0
   -3.9609    1.2759   -1.1423 H   0  0  0  0  0  0  0  0  0  0  0  0
   -3.7946    0.5688    0.5877 H   0  0  0  0  0  0  0  0  0  0  0  0
   -1.4423    0.1728    0.0301 C   0  0  0  0  0  0  0  0  0  0  0  0
   -2.5420   -1.1679   -0.7973 H   0  0  0  0  0  0  0  0  0  0  0  0
   -2.6480   -1.1873    0.9692 H   0  0  0  0  0  0  0  0  0  0  0  0
   -0.1821   -0.7057    0.0054 C   0  0  0  0  0  0  0  0  0  0  0  0
   -1.4063    1.0331    1.0698 H   0  0  0  0  0  0  0  0  0  0  0  0
   -1.4262    0.6422   -0.6916 H   0  0  0  0  0  0  0  0  0  0  0  0
   -0.0230   -1.2259    0.7817 H   0  0  0  0  0  0  0  0  0  0  0  0
    0.6975   -0.0600    0.2288 H   0  0  0  0  0  0  0  0  0  0  0  0
   -0.0685   -1.4752   -0.9832 H   0  0  0  0  0  0  0  0  0  0  0  0
  1  2  1  0  0  0  0
  1  3  1  0  0  0  0
  1  5  1  0  0  0  0
  2  8  1  0  0  0  0
  6  2  1  0  0  0  0
  6 10  1  0  0  0  0
  7  2  1  0  0  0  0
  9  6  1  0  0  0  0
  9 13  1  0  0  0  0
  9 12  1  0  0  0  0
 11  6  1  0  0  0  0
 14  9  1  0  0  0  0
M  RAD  2   1   2   4   2
M  END
$$$$
