14
butane_opt
C  -3.952703   0.288544  -0.034517
C  -2.681929  -0.606438   0.073791
H  -4.927332  -0.421380  -0.078547
H  -3.824110   1.013183  -1.037409
H  -4.124468   0.870909   0.776247
C  -1.388400   0.166548   0.140686
H  -2.541819  -1.346657  -0.896461
H  -2.790563  -1.297383   0.975899
C  -0.188894  -0.689579  -0.029735
H  -1.275010   0.846664   0.973409
H  -1.271964   0.708506  -0.696114
H   0.136467  -1.593573   0.938126
H   0.806544  -0.004064  -0.479546
H  -0.646128  -1.137606  -0.797784
