butane_opt
 OpenBabel08242015383D

 14 13  0  0  0  0  0  0  0  0999 V2000
   -3.9322    0.2784    0.1219 C   0  0  0  0  0  0  0  0  0  0  0  0
   -2.6480   -0.6368   -0.1145 C   0  0  0  0  0  0  0  0  0  0  0  0
   -4.7664   -0.2465    0.4297 H   0  0  0  0  0  0  0  0  0  0  0  0
   -4.2817    0.9753   -0.8186 H   0  0  0  0  0  0  0  0  0  0  0  0
   -3.7339    0.9450    0.9669 H   0  0  0  0  0  0  0  0  0  0  0  0
   -1.4189    0.1640   -0.0800 C   0  0  0  0  0  0  0  0  0  0  0  0
   -2.6183   -1.4372   -1.0122 H   0  0  0  0  0  0  0  0  0  0  0  0
   -2.6125   -1.3219    0.8310 H   0  0  0  0  0  0  0  0  0  0  0  0
   -0.2038   -0.6551    0.1371 C   0  0  0  0  0  0  0  0  0  0  0  0
   -1.4527    0.7355    0.7607 H   0  0  0  0  0  0  0  0  0  0  0  0
   -1.1638    0.7718   -1.0226 H   0  0  0  0  0  0  0  0  0  0  0  0
   -0.4554   -1.3195    1.1044 H   0  0  0  0  0  0  0  0  0  0  0  0
    0.6199   -0.0329    0.0986 H   0  0  0  0  0  0  0  0  0  0  0  0
   -0.1157   -1.3288   -0.6899 H   0  0  0  0  0  0  0  0  0  0  0  0
  1  3  1  0  0  0  0
  1  5  1  0  0  0  0
  2  6  1  0  0  0  0
  2  1  1  0  0  0  0
  2  8  1  0  0  0  0
  4  1  1  0  0  0  0
  6  9  1  0  0  0  0
  6 10  1  0  0  0  0
  7  2  1  0  0  0  0
  9 12  1  0  0  0  0
 11  6  1  0  0  0  0
 13  9  1  0  0  0  0
 14  9  1  0  0  0  0
M  END
$$$$
