butane_opt
 OpenBabel08242015393D

 14 13  0  0  0  0  0  0  0  0999 V2000
   -3.8909    0.2281    0.1536 C   0  0  0  0  0  0  0  0  0  0  0  0
   -2.7179   -0.5778   -0.1027 C   0  0  0  0  0  0  0  0  0  0  0  0
   -4.8444   -0.3621    0.3179 H   0  0  0  0  0  0  0  0  0  0  0  0
   -4.1130    0.9352   -0.8140 H   0  0  0  0  0  0  0  0  0  0  0  0
   -3.7175    0.8661    0.9592 H   0  0  0  0  0  0  0  0  0  0  0  0
   -1.3983    0.2045   -0.1436 C   0  0  0  0  0  0  0  0  0  0  0  0
   -2.8745   -1.2942   -1.0346 H   0  0  0  0  0  0  0  0  0  0  0  0
   -2.7199   -1.1506    0.7914 H   0  0  0  0  0  0  0  0  0  0  0  0
   -0.1903   -0.7341    0.1636 C   0  0  0  0  0  0  0  0  0  0  0  0
   -1.6355    0.9986    0.7929 H   0  0  0  0  0  0  0  0  0  0  0  0
   -1.3781    0.8426   -1.0305 H   0  0  0  0  0  0  0  0  0  0  0  0
   -0.2474   -1.2539    1.0392 H   0  0  0  0  0  0  0  0  0  0  0  0
    0.7206   -0.1850    0.1838 H   0  0  0  0  0  0  0  0  0  0  0  0
    0.1614   -1.3266   -0.6426 H   0  0  0  0  0  0  0  0  0  0  0  0
  1  3  1  0  0  0  0
  1  5  1  0  0  0  0
  2  1  1  0  0  0  0
  2  8  1  0  0  0  0
  4  1  1  0  0  0  0
  6  2  1  0  0  0  0
  6  9  1  0  0  0  0
  6 10  1  0  0  0  0
  7  2  1  0  0  0  0
  9 13  1  0  0  0  0
  9 12  1  0  0  0  0
 11  6  1  0  0  0  0
 14  9  1  0  0  0  0
M  END
$$$$
