butane_opt
 OpenBabel08242015383D

 14 12  0  0  0  0  0  0  0  0999 V2000
   -3.9545    0.3034   -0.0457 C   0  0  0  0  0  0  0  0  0  0  0  0
   -2.6865   -0.6608    0.1074 C   0  0  0  0  0  0  0  0  0  0  0  0
   -4.8599   -0.3037    0.3106 H   0  0  0  0  0  0  0  0  0  0  0  0
   -4.1551    1.3151   -1.2021 H   0  0  0  0  0  0  0  0  0  0  0  0
   -4.0962    0.6312    0.6110 H   0  0  0  0  0  0  0  0  0  0  0  0
   -1.4012    0.1370    0.1002 C   0  0  0  0  0  0  0  0  0  0  0  0
   -2.5478   -1.3467   -0.8289 H   0  0  0  0  0  0  0  0  0  0  0  0
   -2.7701   -1.3585    1.0465 H   0  0  0  0  0  0  0  0  0  0  0  0
   -0.1534   -0.6530   -0.0412 C   0  0  0  0  0  0  0  0  0  0  0  0
   -1.2819    0.9073    1.0122 H   0  0  0  0  0  0  0  0  0  0  0  0
   -1.4528    0.7118   -0.7469 H   0  0  0  0  0  0  0  0  0  0  0  0
   -0.2766   -1.0458    0.7051 H   0  0  0  0  0  0  0  0  0  0  0  0
    0.8133    0.0353    0.1535 H   0  0  0  0  0  0  0  0  0  0  0  0
   -0.0506   -1.5263   -1.1172 H   0  0  0  0  0  0  0  0  0  0  0  0
  1  2  1  0  0  0  0
  1  3  1  0  0  0  0
  1  5  1  0  0  0  0
  2  8  1  0  0  0  0
  6  2  1  0  0  0  0
  6 10  1  0  0  0  0
  7  2  1  0  0  0  0
  9  6  1  0  0  0  0
  9 13  1  0  0  0  0
  9 12  1  0  0  0  0
 11  6  1  0  0  0  0
 14  9  1  0  0  0  0
M  RAD  2   1   2   4   2
M  END
$$$$
