butane_opt
 OpenBabel08242015383D

 14 13  0  0  0  0  0  0  0  0999 V2000
   -3.9500    0.2746    0.0479 C   0  0  0  0  0  0  0  0  0  0  0  0
   -2.7053   -0.6280    0.0271 C   0  0  0  0  0  0  0  0  0  0  0  0
   -4.8546   -0.3310    0.0281 H   0  0  0  0  0  0  0  0  0  0  0  0
   -3.9827    0.9114   -0.8677 H   0  0  0  0  0  0  0  0  0  0  0  0
   -4.0343    0.9536    0.9122 H   0  0  0  0  0  0  0  0  0  0  0  0
   -1.4003    0.1727   -0.0244 C   0  0  0  0  0  0  0  0  0  0  0  0
   -2.7653   -1.3267   -0.8654 H   0  0  0  0  0  0  0  0  0  0  0  0
   -2.7128   -1.2222    0.9143 H   0  0  0  0  0  0  0  0  0  0  0  0
   -0.1483   -0.6891    0.0529 C   0  0  0  0  0  0  0  0  0  0  0  0
   -1.3979    0.8409    0.8056 H   0  0  0  0  0  0  0  0  0  0  0  0
   -1.3480    0.8490   -0.9676 H   0  0  0  0  0  0  0  0  0  0  0  0
   -0.1722   -1.2487    0.9183 H   0  0  0  0  0  0  0  0  0  0  0  0
    0.7810   -0.0757    0.1664 H   0  0  0  0  0  0  0  0  0  0  0  0
   -0.0897   -1.3881   -0.8467 H   0  0  0  0  0  0  0  0  0  0  0  0
  1  5  1  0  0  0  0
  2  1  1  0  0  0  0
  2  8  1  0  0  0  0
  3  1  1  0  0  0  0
  4  1  1  0  0  0  0
  6  2  1  0  0  0  0
  6  9  1  0  0  0  0
  6 10  1  0  0  0  0
  7  2  1  0  0  0  0
  9 13  1  0  0  0  0
  9 12  1  0  0  0  0
 11  6  1  0  0  0  0
 14  9  1  0  0  0  0
M  END
$$$$
