14
butane_opt
C  -3.961504   0.240937   0.066959
C  -2.716817  -0.587225  -0.007512
H  -4.951591  -0.318524  -0.302496
H  -3.897218   0.426130  -0.519405
H  -4.175901   1.251499   1.179863
C  -1.406865   0.194946  -0.054627
H  -2.768949  -1.278479  -0.817815
H  -2.548107  -1.239184   0.934971
C  -0.119113  -0.723650   0.093864
H  -1.452007   0.734715   0.666675
H  -1.339265   1.165065  -1.143067
H  -0.138770  -1.378195   1.019249
H   0.836228  -0.074959  -0.012217
H  -0.109143  -1.297531  -0.714119
