butane_opt
 OpenBabel08242015393D

 14 13  0  0  0  0  0  0  0  0999 V2000
   -3.9068    0.2228    0.1139 C   0  0  0  0  0  0  0  0  0  0  0  0
   -2.6963   -0.5526   -0.0075 C   0  0  0  0  0  0  0  0  0  0  0  0
   -4.8812   -0.4149   -0.4307 H   0  0  0  0  0  0  0  0  0  0  0  0
   -3.5915    0.4664   -0.5586 H   0  0  0  0  0  0  0  0  0  0  0  0
   -4.0705    1.2238    1.2199 H   0  0  0  0  0  0  0  0  0  0  0  0
   -1.4698    0.1840   -0.0991 C   0  0  0  0  0  0  0  0  0  0  0  0
   -2.7728   -1.3379   -0.9307 H   0  0  0  0  0  0  0  0  0  0  0  0
   -2.6897   -1.0337    0.8579 H   0  0  0  0  0  0  0  0  0  0  0  0
   -0.1607   -0.7218    0.1176 C   0  0  0  0  0  0  0  0  0  0  0  0
   -1.4881    0.7411    0.6793 H   0  0  0  0  0  0  0  0  0  0  0  0
   -1.4189    1.0804   -1.1909 H   0  0  0  0  0  0  0  0  0  0  0  0
   -0.1643   -1.4435    1.0797 H   0  0  0  0  0  0  0  0  0  0  0  0
    0.8443   -0.1201   -0.1046 H   0  0  0  0  0  0  0  0  0  0  0  0
    0.0060   -1.2382   -0.6368 H   0  0  0  0  0  0  0  0  0  0  0  0
  1  5  1  0  0  0  0
  2  1  1  0  0  0  0
  2  8  1  0  0  0  0
  3  1  1  0  0  0  0
  4  1  1  0  0  0  0
  6  2  1  0  0  0  0
  6  9  1  0  0  0  0
  6 10  1  0  0  0  0
  7  2  1  0  0  0  0
  9 12  1  0  0  0  0
 11  6  1  0  0  0  0
 13  9  1  0  0  0  0
 14  9  1  0  0  0  0
M  END
$$$$
