butane_opt
 OpenBabel08242015393D

 14 13  0  0  0  0  0  0  0  0999 V2000
   -3.9021    0.2590   -0.0780 C   0  0  0  0  0  0  0  0  0  0  0  0
   -2.6877   -0.6044    0.1484 C   0  0  0  0  0  0  0  0  0  0  0  0
   -4.8375   -0.3218   -0.0112 H   0  0  0  0  0  0  0  0  0  0  0  0
   -3.8215    0.8600   -1.0329 H   0  0  0  0  0  0  0  0  0  0  0  0
   -4.0109    0.7773    0.6693 H   0  0  0  0  0  0  0  0  0  0  0  0
   -1.4452    0.2064    0.1000 C   0  0  0  0  0  0  0  0  0  0  0  0
   -2.7202   -1.2257   -0.7664 H   0  0  0  0  0  0  0  0  0  0  0  0
   -2.8061   -1.3323    1.0903 H   0  0  0  0  0  0  0  0  0  0  0  0
   -0.1730   -0.7154   -0.0633 C   0  0  0  0  0  0  0  0  0  0  0  0
   -1.4600    1.1156    1.1198 H   0  0  0  0  0  0  0  0  0  0  0  0
   -1.4643    0.6058   -0.6188 H   0  0  0  0  0  0  0  0  0  0  0  0
   -0.0574   -1.3275    0.8305 H   0  0  0  0  0  0  0  0  0  0  0  0
    0.7729   -0.0434   -0.2772 H   0  0  0  0  0  0  0  0  0  0  0  0
   -0.1365   -1.3166   -0.8687 H   0  0  0  0  0  0  0  0  0  0  0  0
  1  3  1  0  0  0  0
  1  2  1  0  0  0  0
  1  5  1  0  0  0  0
  2  8  1  0  0  0  0
  4  1  1  0  0  0  0
  6  2  1  0  0  0  0
  6 10  1  0  0  0  0
  7  2  1  0  0  0  0
  9  6  1  0  0  0  0
  9 12  1  0  0  0  0
 11  6  1  0  0  0  0
 13  9  1  0  0  0  0
 14  9  1  0  0  0  0
M  END
$$$$
