14
butane_opt
C  -3.949198   0.288766  -0.044339
C  -2.664570  -0.661463   0.098745
H  -4.857208  -0.280228  -0.138010
H  -3.971774   0.993779  -1.050233
H  -4.213581   0.914754   0.761197
C  -1.393367   0.185491   0.135287
H  -2.458805  -1.399951  -0.819982
H  -2.675905  -1.387885   1.102533
C  -0.199616  -0.668371  -0.044430
H  -1.285797   0.876497   0.952548
H  -1.381858   0.718153  -0.765688
H  -0.004689  -1.363838   0.905632
H   0.707988  -0.001201  -0.359916
H  -0.382951  -1.264792  -0.885778
