butane_opt
 OpenBabel08242015393D

 14 12  0  0  0  0  0  0  0  0999 V2000
   -3.9874    0.2821   -0.0513 C   0  0  0  0  0  0  0  0  0  0  0  0
   -2.6800   -0.6661    0.1531 C   0  0  0  0  0  0  0  0  0  0  0  0
   -4.8735   -0.2527   -0.0750 H   0  0  0  0  0  0  0  0  0  0  0  0
   -4.0901    1.0469   -1.0611 H   0  0  0  0  0  0  0  0  0  0  0  0
   -4.1381    0.7465    0.6830 H   0  0  0  0  0  0  0  0  0  0  0  0
   -1.3875    0.1900    0.0291 C   0  0  0  0  0  0  0  0  0  0  0  0
   -2.6840   -1.1521   -0.5048 H   0  0  0  0  0  0  0  0  0  0  0  0
   -2.5425   -1.4416    1.1271 H   0  0  0  0  0  0  0  0  0  0  0  0
   -0.1616   -0.6882   -0.0354 C   0  0  0  0  0  0  0  0  0  0  0  0
   -1.1588    1.0833    1.0074 H   0  0  0  0  0  0  0  0  0  0  0  0
   -1.4009    0.6640   -0.7823 H   0  0  0  0  0  0  0  0  0  0  0  0
   -0.2403   -0.8569    0.5637 H   0  0  0  0  0  0  0  0  0  0  0  0
    0.6776   -0.0799    0.3952 H   0  0  0  0  0  0  0  0  0  0  0  0
    0.0401   -1.6666   -1.1336 H   0  0  0  0  0  0  0  0  0  0  0  0
  1  2  1  0  0  0  0
  1  5  1  0  0  0  0
  2  8  1  0  0  0  0
  3  1  1  0  0  0  0
  4  1  1  0  0  0  0
  6  2  1  0  0  0  0
  6 10  1  0  0  0  0
  7  2  1  0  0  0  0
  9  6  1  0  0  0  0
  9 13  1  0  0  0  0
 11  6  1  0  0  0  0
 14  9  1  0  0  0  0
M  RAD  2   9   2  12   2
M  END
$$$$
