butane_opt
 OpenBabel08242015393D

 14 13  0  0  0  0  0  0  0  0999 V2000
   -3.9670    0.2740   -0.0621 C   0  0  0  0  0  0  0  0  0  0  0  0
   -2.6960   -0.6463    0.1272 C   0  0  0  0  0  0  0  0  0  0  0  0
   -4.7632   -0.1477   -0.2001 H   0  0  0  0  0  0  0  0  0  0  0  0
   -4.1306    0.8865   -0.9685 H   0  0  0  0  0  0  0  0  0  0  0  0
   -4.1507    1.0576    0.8962 H   0  0  0  0  0  0  0  0  0  0  0  0
   -1.3787    0.1683    0.0799 C   0  0  0  0  0  0  0  0  0  0  0  0
   -2.6423   -1.2624   -0.6121 H   0  0  0  0  0  0  0  0  0  0  0  0
   -2.7209   -1.5100    1.2141 H   0  0  0  0  0  0  0  0  0  0  0  0
   -0.1733   -0.6684   -0.0493 C   0  0  0  0  0  0  0  0  0  0  0  0
   -1.2604    0.8260    0.9002 H   0  0  0  0  0  0  0  0  0  0  0  0
   -1.4634    0.8307   -0.7875 H   0  0  0  0  0  0  0  0  0  0  0  0
   -0.1898   -1.1704    0.7087 H   0  0  0  0  0  0  0  0  0  0  0  0
    0.9111    0.0069    0.1560 H   0  0  0  0  0  0  0  0  0  0  0  0
   -0.0438   -1.4888   -1.0348 H   0  0  0  0  0  0  0  0  0  0  0  0
  1  2  1  0  0  0  0
  1  5  1  0  0  0  0
  2  8  1  0  0  0  0
  3  1  1  0  0  0  0
  4  1  1  0  0  0  0
  6  2  1  0  0  0  0
  6 10  1  0  0  0  0
  7  2  1  0  0  0  0
  9  6  1  0  0  0  0
  9 13  1  0  0  0  0
  9 12  1  0  0  0  0
 11  6  1  0  0  0  0
 14  9  1  0  0  0  0
M  END
$$$$
