butane_opt
 OpenBabel08242015393D

 14 13  0  0  0  0  0  0  0  0999 V2000
   -3.9189    0.2919    0.1149 C   0  0  0  0  0  0  0  0  0  0  0  0
   -2.6857   -0.6253   -0.0969 C   0  0  0  0  0  0  0  0  0  0  0  0
   -4.7793   -0.2747    0.3587 H   0  0  0  0  0  0  0  0  0  0  0  0
   -4.1427    1.0896   -0.8338 H   0  0  0  0  0  0  0  0  0  0  0  0
   -3.8323    0.9127    0.9244 H   0  0  0  0  0  0  0  0  0  0  0  0
   -1.4035    0.1151   -0.0778 C   0  0  0  0  0  0  0  0  0  0  0  0
   -2.9387   -1.4407   -1.0401 H   0  0  0  0  0  0  0  0  0  0  0  0
   -2.4369   -1.3261    0.7418 H   0  0  0  0  0  0  0  0  0  0  0  0
   -0.1724   -0.6466    0.1240 C   0  0  0  0  0  0  0  0  0  0  0  0
   -1.5374    0.8640    0.8132 H   0  0  0  0  0  0  0  0  0  0  0  0
   -1.3769    0.6676   -0.8954 H   0  0  0  0  0  0  0  0  0  0  0  0
   -0.4575   -1.3641    1.2397 H   0  0  0  0  0  0  0  0  0  0  0  0
    0.7569    0.0362   -0.0114 H   0  0  0  0  0  0  0  0  0  0  0  0
   -0.1297   -1.2304   -0.6644 H   0  0  0  0  0  0  0  0  0  0  0  0
  1  3  1  0  0  0  0
  1  5  1  0  0  0  0
  2  6  1  0  0  0  0
  2  1  1  0  0  0  0
  2  8  1  0  0  0  0
  4  1  1  0  0  0  0
  6  9  1  0  0  0  0
  6 10  1  0  0  0  0
  7  2  1  0  0  0  0
  9 12  1  0  0  0  0
 11  6  1  0  0  0  0
 13  9  1  0  0  0  0
 14  9  1  0  0  0  0
M  END
$$$$
