14
butane_opt
C  -3.954047   0.273715   0.008880
C  -2.703944  -0.628015   0.058030
H  -4.840169  -0.321872   0.033871
H  -3.992387   0.936922  -0.939543
H  -4.034179   0.941181   0.855112
C  -1.400252   0.165866   0.020747
H  -2.703240  -1.273721  -0.775896
H  -2.693657  -1.259539   0.944445
C  -0.149915  -0.681211   0.018628
H  -1.344156   0.830566   0.837547
H  -1.437863   0.802768  -0.870261
H  -0.198174  -1.198224   0.869728
H   0.790163  -0.065035   0.087798
H  -0.074406  -1.425675  -0.888041
