butane_opt
 OpenBabel08242015393D

 14 13  0  0  0  0  0  0  0  0999 V2000
   -3.9068    0.2324   -0.0245 C   0  0  0  0  0  0  0  0  0  0  0  0
   -2.6911   -0.5601    0.1228 C   0  0  0  0  0  0  0  0  0  0  0  0
   -4.8178   -0.3440   -0.0597 H   0  0  0  0  0  0  0  0  0  0  0  0
   -3.7836    1.0122   -1.0707 H   0  0  0  0  0  0  0  0  0  0  0  0
   -4.0302    0.6672    0.6217 H   0  0  0  0  0  0  0  0  0  0  0  0
   -1.4237    0.2199    0.0678 C   0  0  0  0  0  0  0  0  0  0  0  0
   -2.7371   -1.2007   -0.6714 H   0  0  0  0  0  0  0  0  0  0  0  0
   -2.7022   -1.3057    1.0567 H   0  0  0  0  0  0  0  0  0  0  0  0
   -0.1821   -0.7191   -0.0302 C   0  0  0  0  0  0  0  0  0  0  0  0
   -1.2068    0.7564    0.8837 H   0  0  0  0  0  0  0  0  0  0  0  0
   -1.4536    0.7713   -0.7830 H   0  0  0  0  0  0  0  0  0  0  0  0
   -0.1882   -1.0639    0.6134 H   0  0  0  0  0  0  0  0  0  0  0  0
    0.5817   -0.1893    0.3022 H   0  0  0  0  0  0  0  0  0  0  0  0
   -0.2099   -1.6664   -1.1212 H   0  0  0  0  0  0  0  0  0  0  0  0
  1  2  1  0  0  0  0
  1  5  1  0  0  0  0
  2  8  1  0  0  0  0
  3  1  1  0  0  0  0
  4  1  1  0  0  0  0
  6  2  1  0  0  0  0
  6 10  1  0  0  0  0
  7  2  1  0  0  0  0
  9  6  1  0  0  0  0
  9 13  1  0  0  0  0
  9 12  1  0  0  0  0
 11  6  1  0  0  0  0
 14  9  1  0  0  0  0
M  END
$$$$
