14
butane_opt
C  -3.971359   0.235842   0.102344
C  -2.728833  -0.587095  -0.090504
H  -4.961477  -0.375635   0.390000
H  -4.179299   1.137147  -0.875937
H  -3.651210   0.612232   0.818483
C  -1.403238   0.233185  -0.025336
H  -2.751281  -1.468256  -1.040222
H  -2.768591  -1.175450   0.760962
C  -0.114379  -0.728189   0.115062
H  -1.563674   0.841184   0.808093
H  -1.331601   1.002647  -0.966532
H   0.040826  -1.327960   1.022097
H   0.750803  -0.233288   0.022019
H   0.002264  -1.328539  -0.755988
