butane_opt
 OpenBabel08242015383D

 14 13  0  0  0  0  0  0  0  0999 V2000
   -3.9322    0.2648   -0.0551 C   0  0  0  0  0  0  0  0  0  0  0  0
   -2.7225   -0.5896    0.1120 C   0  0  0  0  0  0  0  0  0  0  0  0
   -4.7629   -0.3715    0.0863 H   0  0  0  0  0  0  0  0  0  0  0  0
   -3.7952    0.9982   -1.0425 H   0  0  0  0  0  0  0  0  0  0  0  0
   -3.8832    0.6629    0.6166 H   0  0  0  0  0  0  0  0  0  0  0  0
   -1.4379    0.2012    0.1009 C   0  0  0  0  0  0  0  0  0  0  0  0
   -2.7796   -1.1793   -0.5649 H   0  0  0  0  0  0  0  0  0  0  0  0
   -2.7575   -1.3130    1.0942 H   0  0  0  0  0  0  0  0  0  0  0  0
   -0.1376   -0.7255   -0.0479 C   0  0  0  0  0  0  0  0  0  0  0  0
   -1.4106    0.8036    0.8935 H   0  0  0  0  0  0  0  0  0  0  0  0
   -1.3976    0.8503   -0.8056 H   0  0  0  0  0  0  0  0  0  0  0  0
   -0.0860   -1.0127    0.6162 H   0  0  0  0  0  0  0  0  0  0  0  0
    0.8515   -0.0462    0.3027 H   0  0  0  0  0  0  0  0  0  0  0  0
   -0.2626   -1.6560   -1.1240 H   0  0  0  0  0  0  0  0  0  0  0  0
  1  3  1  0  0  0  0
  1  2  1  0  0  0  0
  1  5  1  0  0  0  0
  2  8  1  0  0  0  0
  4  1  1  0  0  0  0
  6  2  1  0  0  0  0
  6 10  1  0  0  0  0
  7  2  1  0  0  0  0
  9  6  1  0  0  0  0
  9 13  1  0  0  0  0
  9 12  1  0  0  0  0
 11  6  1  0  0  0  0
 14  9  1  0  0  0  0
M  END
$$$$
