14
butane_opt
C  -3.880557   0.228881   0.058045
C  -2.706135  -0.558094   0.023494
H  -4.791524  -0.316023  -0.381993
H  -3.691750   0.349017  -0.477655
H  -4.155012   1.289650   1.142168
C  -1.419122   0.201956  -0.042026
H  -2.833914  -1.214209  -0.883217
H  -2.691589  -1.283712   0.923320
C  -0.183158  -0.722052   0.079970
H  -1.528391   0.734570   0.617852
H  -1.325419   1.086067  -1.094229
H  -0.142015  -1.495528   1.082369
H   0.692822  -0.182471  -0.048716
H  -0.265940  -1.286866  -0.807587
