butane_opt
 OpenBabel08242015393D

 14 13  0  0  0  0  0  0  0  0999 V2000
   -3.9512    0.2588   -0.1028 C   0  0  0  0  0  0  0  0  0  0  0  0
   -2.7049   -0.6392    0.1351 C   0  0  0  0  0  0  0  0  0  0  0  0
   -4.7791   -0.2909   -0.1178 H   0  0  0  0  0  0  0  0  0  0  0  0
   -3.8666    0.9823   -1.0791 H   0  0  0  0  0  0  0  0  0  0  0  0
   -4.0507    0.8833    0.7737 H   0  0  0  0  0  0  0  0  0  0  0  0
   -1.4387    0.2031    0.1595 C   0  0  0  0  0  0  0  0  0  0  0  0
   -2.7467   -1.2227   -0.6422 H   0  0  0  0  0  0  0  0  0  0  0  0
   -2.7207   -1.2928    1.0604 H   0  0  0  0  0  0  0  0  0  0  0  0
   -0.1220   -0.6997   -0.0626 C   0  0  0  0  0  0  0  0  0  0  0  0
   -1.3386    0.9227    1.0406 H   0  0  0  0  0  0  0  0  0  0  0  0
   -1.4231    0.7489   -0.5815 H   0  0  0  0  0  0  0  0  0  0  0  0
    0.1134   -1.2694    0.7788 H   0  0  0  0  0  0  0  0  0  0  0  0
    0.7658   -0.1814   -0.4732 H   0  0  0  0  0  0  0  0  0  0  0  0
   -0.3682   -1.2161   -0.8971 H   0  0  0  0  0  0  0  0  0  0  0  0
  1  2  1  0  0  0  0
  1  5  1  0  0  0  0
  2  6  1  0  0  0  0
  2  8  1  0  0  0  0
  3  1  1  0  0  0  0
  4  1  1  0  0  0  0
  6 10  1  0  0  0  0
  7  2  1  0  0  0  0
  9  6  1  0  0  0  0
  9 12  1  0  0  0  0
 11  6  1  0  0  0  0
 13  9  1  0  0  0  0
 14  9  1  0  0  0  0
M  END
$$$$
