butane_opt
 OpenBabel08242015393D

 14 13  0  0  0  0  0  0  0  0999 V2000
   -3.9756    0.2742   -0.0474 C   0  0  0  0  0  0  0  0  0  0  0  0
   -2.7149   -0.6482    0.0847 C   0  0  0  0  0  0  0  0  0  0  0  0
   -4.7071   -0.2234    0.0148 H   0  0  0  0  0  0  0  0  0  0  0  0
   -4.0040    0.9896   -1.0123 H   0  0  0  0  0  0  0  0  0  0  0  0
   -4.1630    0.8462    0.6789 H   0  0  0  0  0  0  0  0  0  0  0  0
   -1.3820    0.1916    0.1156 C   0  0  0  0  0  0  0  0  0  0  0  0
   -2.6005   -1.3311   -0.7513 H   0  0  0  0  0  0  0  0  0  0  0  0
   -2.8412   -1.1918    0.9248 H   0  0  0  0  0  0  0  0  0  0  0  0
   -0.1407   -0.6904   -0.0201 C   0  0  0  0  0  0  0  0  0  0  0  0
   -1.2654    0.9141    1.1192 H   0  0  0  0  0  0  0  0  0  0  0  0
   -1.2907    0.7681   -0.7132 H   0  0  0  0  0  0  0  0  0  0  0  0
    0.1165   -1.3937    0.9473 H   0  0  0  0  0  0  0  0  0  0  0  0
    0.7571   -0.1220   -0.5243 H   0  0  0  0  0  0  0  0  0  0  0  0
   -0.4655   -1.2380   -0.8360 H   0  0  0  0  0  0  0  0  0  0  0  0
  1  3  1  0  0  0  0
  1  2  1  0  0  0  0
  1  5  1  0  0  0  0
  2  6  1  0  0  0  0
  2  8  1  0  0  0  0
  4  1  1  0  0  0  0
  6 10  1  0  0  0  0
  7  2  1  0  0  0  0
  9  6  1  0  0  0  0
  9 12  1  0  0  0  0
 11  6  1  0  0  0  0
 13  9  1  0  0  0  0
 14  9  1  0  0  0  0
M  END
$$$$
