14
butane_opt
C  -3.976266   0.300716  -0.052849
C  -2.686900  -0.655759   0.149846
H  -4.772719  -0.193808  -0.116989
H  -3.996619   0.886622  -0.937610
H  -4.146306   0.849165   0.723966
C  -1.407657   0.163873   0.033607
H  -2.796373  -1.267050  -0.646182
H  -2.602170  -1.486351   1.147518
C  -0.149446  -0.673816  -0.031619
H  -1.262383   1.001395   0.943489
H  -1.352266   0.747912  -0.818339
H  -0.223490  -0.974110   0.661764
H   0.883830   0.031476   0.251975
H  -0.130677  -1.669022  -1.011706
