butane_opt
 OpenBabel08242015393D

 14 13  0  0  0  0  0  0  0  0999 V2000
   -3.9575    0.2763   -0.0794 C   0  0  0  0  0  0  0  0  0  0  0  0
   -2.6661   -0.6360    0.1315 C   0  0  0  0  0  0  0  0  0  0  0  0
   -4.7629   -0.2241   -0.1579 H   0  0  0  0  0  0  0  0  0  0  0  0
   -3.7971    0.9168   -1.0531 H   0  0  0  0  0  0  0  0  0  0  0  0
   -4.0055    0.8731    0.6770 H   0  0  0  0  0  0  0  0  0  0  0  0
   -1.4112    0.1527    0.1396 C   0  0  0  0  0  0  0  0  0  0  0  0
   -2.6466   -1.1521   -0.7017 H   0  0  0  0  0  0  0  0  0  0  0  0
   -2.8506   -1.3335    1.0850 H   0  0  0  0  0  0  0  0  0  0  0  0
   -0.1718   -0.6959   -0.0916 C   0  0  0  0  0  0  0  0  0  0  0  0
   -1.1819    1.1049    1.2310 H   0  0  0  0  0  0  0  0  0  0  0  0
   -1.6545    0.6849   -0.6306 H   0  0  0  0  0  0  0  0  0  0  0  0
   -0.0567   -1.4319    0.9571 H   0  0  0  0  0  0  0  0  0  0  0  0
    0.8210    0.0271   -0.2936 H   0  0  0  0  0  0  0  0  0  0  0  0
   -0.4324   -1.0931   -0.8427 H   0  0  0  0  0  0  0  0  0  0  0  0
  1  2  1  0  0  0  0
  1  5  1  0  0  0  0
  2  6  1  0  0  0  0
  2  8  1  0  0  0  0
  3  1  1  0  0  0  0
  4  1  1  0  0  0  0
  6 10  1  0  0  0  0
  7  2  1  0  0  0  0
  9  6  1  0  0  0  0
  9 12  1  0  0  0  0
 11  6  1  0  0  0  0
 13  9  1  0  0  0  0
 14  9  1  0  0  0  0
M  END
$$$$
