14
butane_opt
C  -3.968041   0.299173   0.060025
C  -2.691528  -0.678773  -0.040475
H  -4.834150  -0.165335   0.017592
H  -4.117480   0.546228  -0.568895
H  -4.099354   1.263380   1.088389
C  -1.400308   0.162219  -0.031374
H  -2.779925  -1.441265  -0.987242
H  -2.638232  -1.121738   0.712819
C  -0.139796  -0.681622   0.119848
H  -1.347687   0.711677   0.710687
H  -1.295306   1.014507  -0.998286
H  -0.030157  -1.544608   1.157024
H   0.888775  -0.033819  -0.352393
H  -0.374304  -0.911372  -0.556205
