14
butane_opt
C  -3.951670   0.271920   0.044428
C  -2.706365  -0.631584  -0.001391
H  -4.872091  -0.345170   0.187044
H  -4.041461   0.942351  -0.881673
H  -3.917957   0.929888   0.879781
C  -1.397097   0.187645  -0.015470
H  -2.747051  -1.334319  -0.900645
H  -2.683006  -1.205057   0.855985
C  -0.152416  -0.694326   0.059870
H  -1.393712   0.867591   0.846980
H  -1.417059   0.785771  -0.862669
H  -0.128730  -1.356180   1.006053
H   0.764909  -0.068626   0.017560
H  -0.099997  -1.288442  -0.750892
