butane_opt
 OpenBabel08242015393D

 14 13  0  0  0  0  0  0  0  0999 V2000
   -3.9429    0.2973   -0.0357 C   0  0  0  0  0  0  0  0  0  0  0  0
   -2.6773   -0.6270    0.0478 C   0  0  0  0  0  0  0  0  0  0  0  0
   -4.7776   -0.2019    0.4897 H   0  0  0  0  0  0  0  0  0  0  0  0
   -4.1401    1.2593   -1.1055 H   0  0  0  0  0  0  0  0  0  0  0  0
   -3.9488    0.5572    0.5849 H   0  0  0  0  0  0  0  0  0  0  0  0
   -1.3727    0.1255    0.1002 C   0  0  0  0  0  0  0  0  0  0  0  0
   -2.7568   -1.3092   -0.8383 H   0  0  0  0  0  0  0  0  0  0  0  0
   -2.6856   -1.2737    0.9062 H   0  0  0  0  0  0  0  0  0  0  0  0
   -0.1867   -0.6609   -0.0347 C   0  0  0  0  0  0  0  0  0  0  0  0
   -1.2757    0.8789    1.0182 H   0  0  0  0  0  0  0  0  0  0  0  0
   -1.4748    0.6018   -0.6517 H   0  0  0  0  0  0  0  0  0  0  0  0
   -0.3617   -1.2073    0.8757 H   0  0  0  0  0  0  0  0  0  0  0  0
    0.8286   -0.0801    0.0790 H   0  0  0  0  0  0  0  0  0  0  0  0
   -0.2774   -1.2843   -0.8814 H   0  0  0  0  0  0  0  0  0  0  0  0
  1  2  1  0  0  0  0
  1  3  1  0  0  0  0
  1  5  1  0  0  0  0
  2  6  1  0  0  0  0
  2  8  1  0  0  0  0
  4  1  1  0  0  0  0
  6 10  1  0  0  0  0
  7  2  1  0  0  0  0
  9 13  1  0  0  0  0
  9  6  1  0  0  0  0
  9 12  1  0  0  0  0
 11  6  1  0  0  0  0
 14  9  1  0  0  0  0
M  END
$$$$
