butane_opt
 OpenBabel08242015393D

 14 13  0  0  0  0  0  0  0  0999 V2000
   -3.9340    0.3003    0.1276 C   0  0  0  0  0  0  0  0  0  0  0  0
   -2.6648   -0.6794   -0.0785 C   0  0  0  0  0  0  0  0  0  0  0  0
   -4.7126   -0.1458    0.1709 H   0  0  0  0  0  0  0  0  0  0  0  0
   -3.9235    0.8075   -0.6544 H   0  0  0  0  0  0  0  0  0  0  0  0
   -3.9036    1.0985    1.0846 H   0  0  0  0  0  0  0  0  0  0  0  0
   -1.4394    0.1513   -0.1219 C   0  0  0  0  0  0  0  0  0  0  0  0
   -2.7076   -1.3515   -0.9013 H   0  0  0  0  0  0  0  0  0  0  0  0
   -2.6330   -1.2521    0.7263 H   0  0  0  0  0  0  0  0  0  0  0  0
   -0.1975   -0.6534    0.1291 C   0  0  0  0  0  0  0  0  0  0  0  0
   -1.4001    0.7308    0.6803 H   0  0  0  0  0  0  0  0  0  0  0  0
   -1.3347    0.7733   -0.9671 H   0  0  0  0  0  0  0  0  0  0  0  0
   -0.4737   -1.4077    1.1797 H   0  0  0  0  0  0  0  0  0  0  0  0
    0.8426    0.0912    0.2248 H   0  0  0  0  0  0  0  0  0  0  0  0
   -0.0027   -1.2105   -0.7457 H   0  0  0  0  0  0  0  0  0  0  0  0
  1  3  1  0  0  0  0
  1  5  1  0  0  0  0
  2  1  1  0  0  0  0
  2  8  1  0  0  0  0
  4  1  1  0  0  0  0
  6  2  1  0  0  0  0
  6  9  1  0  0  0  0
  6 10  1  0  0  0  0
  7  2  1  0  0  0  0
  9 13  1  0  0  0  0
  9 12  1  0  0  0  0
 11  6  1  0  0  0  0
 14  9  1  0  0  0  0
M  END
$$$$
