14
butane_opt
C  -3.949146   0.263158   0.065204
C  -2.705492  -0.586505   0.031550
H  -4.911502  -0.387759  -0.210158
H  -3.649936   0.583018  -0.684181
H  -4.028211   1.207555   1.067569
C  -1.399135   0.172682  -0.059392
H  -2.761439  -1.305585  -0.917778
H  -2.784899  -1.220984   0.847205
C  -0.173123  -0.682952   0.092174
H  -1.426222   0.756805   0.771063
H  -1.322819   0.923305  -1.103006
H  -0.007816  -1.453918   1.026554
H   0.704653  -0.116255  -0.085585
H  -0.142662  -1.453516  -0.775795
