14
butane_opt
C  -3.922195   0.290272  -0.044514
C  -2.681303  -0.633119   0.093326
H  -4.850797  -0.356553   0.210928
H  -4.119260   1.280266  -1.225107
H  -3.864299   0.686978   0.654597
C  -1.415826   0.127063   0.091586
H  -2.574478  -1.234572  -0.695305
H  -2.713241  -1.251236   1.040732
C  -0.181088  -0.665670  -0.070180
H  -1.344330   0.929109   1.080920
H  -1.501664   0.545544  -0.573793
H  -0.340170  -1.152486   0.836057
H   0.862782   0.003445   0.123775
H  -0.170733  -1.324081  -0.908692
