butane_opt
 OpenBabel08242015393D

 14 13  0  0  0  0  0  0  0  0999 V2000
   -3.9451    0.2479   -0.0096 C   0  0  0  0  0  0  0  0  0  0  0  0
   -2.7028   -0.5895    0.0658 C   0  0  0  0  0  0  0  0  0  0  0  0
   -4.8844   -0.3810    0.0207 H   0  0  0  0  0  0  0  0  0  0  0  0
   -3.9216    0.9232   -0.9645 H   0  0  0  0  0  0  0  0  0  0  0  0
   -3.9993    0.8552    0.8052 H   0  0  0  0  0  0  0  0  0  0  0  0
   -1.4083    0.1952    0.0415 C   0  0  0  0  0  0  0  0  0  0  0  0
   -2.6683   -1.2670   -0.7747 H   0  0  0  0  0  0  0  0  0  0  0  0
   -2.7165   -1.2556    1.0213 H   0  0  0  0  0  0  0  0  0  0  0  0
   -0.1531   -0.7055   -0.0024 C   0  0  0  0  0  0  0  0  0  0  0  0
   -1.3822    0.9598    0.9629 H   0  0  0  0  0  0  0  0  0  0  0  0
   -1.4157    0.7376   -0.7845 H   0  0  0  0  0  0  0  0  0  0  0  0
   -0.0648   -1.3337    0.9216 H   0  0  0  0  0  0  0  0  0  0  0  0
    0.7369   -0.1293   -0.0482 H   0  0  0  0  0  0  0  0  0  0  0  0
   -0.1828   -1.3649   -0.8688 H   0  0  0  0  0  0  0  0  0  0  0  0
  1  3  1  0  0  0  0
  1  2  1  0  0  0  0
  1  5  1  0  0  0  0
  2  8  1  0  0  0  0
  4  1  1  0  0  0  0
  6  2  1  0  0  0  0
  6 10  1  0  0  0  0
  7  2  1  0  0  0  0
  9  6  1  0  0  0  0
  9 12  1  0  0  0  0
 11  6  1  0  0  0  0
 13  9  1  0  0  0  0
 14  9  1  0  0  0  0
M  END
$$$$
