butane_opt
 OpenBabel08242015393D

 14 12  0  0  0  0  0  0  0  0999 V2000
   -3.9827    0.2318    0.0885 C   0  0  0  0  0  0  0  0  0  0  0  0
   -2.7160   -0.6137    0.0223 C   0  0  0  0  0  0  0  0  0  0  0  0
   -4.8466   -0.3177   -0.3806 H   0  0  0  0  0  0  0  0  0  0  0  0
   -3.7718    0.4292   -0.5858 H   0  0  0  0  0  0  0  0  0  0  0  0
   -4.0866    1.2454    1.2434 H   0  0  0  0  0  0  0  0  0  0  0  0
   -1.3776    0.2436   -0.0853 C   0  0  0  0  0  0  0  0  0  0  0  0
   -2.7977   -1.3416   -0.8483 H   0  0  0  0  0  0  0  0  0  0  0  0
   -2.7254   -1.0405    0.7684 H   0  0  0  0  0  0  0  0  0  0  0  0
   -0.1290   -0.7260    0.0763 C   0  0  0  0  0  0  0  0  0  0  0  0
   -1.4939    0.8042    0.6128 H   0  0  0  0  0  0  0  0  0  0  0  0
   -1.4297    1.1193   -1.1715 H   0  0  0  0  0  0  0  0  0  0  0  0
   -0.0914   -1.5131    1.1300 H   0  0  0  0  0  0  0  0  0  0  0  0
    0.6497   -0.2259    0.1299 H   0  0  0  0  0  0  0  0  0  0  0  0
    0.0377   -1.2902   -0.6147 H   0  0  0  0  0  0  0  0  0  0  0  0
  2  1  1  0  0  0  0
  2  8  1  0  0  0  0
  3  1  1  0  0  0  0
  4  1  1  0  0  0  0
  6  2  1  0  0  0  0
  6  9  1  0  0  0  0
  6 10  1  0  0  0  0
  7  2  1  0  0  0  0
  9 13  1  0  0  0  0
  9 12  1  0  0  0  0
 11  6  1  0  0  0  0
 14  9  1  0  0  0  0
M  RAD  2   1   2   5   2
M  END
$$$$
