14
butane_opt
C  -3.961158   0.279038   0.038352
C  -2.695514  -0.629446  -0.006951
H  -4.876434  -0.326054   0.176476
H  -4.043340   0.952392  -0.902054
H  -3.886838   0.923824   0.892976
C  -1.391720   0.170088   0.001217
H  -2.785512  -1.297380  -0.867492
H  -2.677044  -1.270087   0.891209
C  -0.159167  -0.683902   0.055177
H  -1.405698   0.852410   0.861546
H  -1.327301   0.806308  -0.870859
H  -0.156869  -1.322444   0.986620
H   0.772058  -0.097205  -0.012961
H  -0.149987  -1.315298  -0.779091
