14
butane_opt
C  -3.921871   0.302262   0.087055
C  -2.678880  -0.663652  -0.025947
H  -4.683774  -0.152131  -0.082031
H  -4.007207   0.765189  -0.672309
H  -3.878008   1.155950   1.107986
C  -1.407659   0.114743  -0.116651
H  -2.864614  -1.233029  -0.773674
H  -2.641108  -1.383646   0.992774
C  -0.204313  -0.639799   0.123904
H  -1.393711   0.806060   0.779448
H  -1.268860   0.874072  -1.124934
H  -0.327196  -1.105983   0.840916
H   0.712887  -0.070922   0.325922
H  -0.153086  -1.473182  -0.789012
