butane_opt
 OpenBabel08242015393D

 14 13  0  0  0  0  0  0  0  0999 V2000
   -3.8864    0.2810    0.0724 C   0  0  0  0  0  0  0  0  0  0  0  0
   -2.7165   -0.6418   -0.0244 C   0  0  0  0  0  0  0  0  0  0  0  0
   -4.7799   -0.2841    0.1434 H   0  0  0  0  0  0  0  0  0  0  0  0
   -4.0176    0.7911   -0.7543 H   0  0  0  0  0  0  0  0  0  0  0  0
   -3.9784    1.1139    1.0260 H   0  0  0  0  0  0  0  0  0  0  0  0
   -1.4168    0.1543   -0.0505 C   0  0  0  0  0  0  0  0  0  0  0  0
   -2.7700   -1.3128   -0.9034 H   0  0  0  0  0  0  0  0  0  0  0  0
   -2.6021   -1.2103    0.8957 H   0  0  0  0  0  0  0  0  0  0  0  0
   -0.1993   -0.6736    0.0919 C   0  0  0  0  0  0  0  0  0  0  0  0
   -1.3488    0.7339    0.7133 H   0  0  0  0  0  0  0  0  0  0  0  0
   -1.3387    1.0175   -1.1308 H   0  0  0  0  0  0  0  0  0  0  0  0
   -0.3406   -1.2799    0.9658 H   0  0  0  0  0  0  0  0  0  0  0  0
    0.8122   -0.1035    0.2777 H   0  0  0  0  0  0  0  0  0  0  0  0
   -0.0349   -1.3846   -0.8440 H   0  0  0  0  0  0  0  0  0  0  0  0
  1  3  1  0  0  0  0
  1  5  1  0  0  0  0
  2  1  1  0  0  0  0
  2  8  1  0  0  0  0
  4  1  1  0  0  0  0
  6  2  1  0  0  0  0
  6  9  1  0  0  0  0
  6 10  1  0  0  0  0
  7  2  1  0  0  0  0
  9 13  1  0  0  0  0
  9 12  1  0  0  0  0
 11  6  1  0  0  0  0
 14  9  1  0  0  0  0
M  END
$$$$
