butane_opt
 OpenBabel08242015393D

 14 13  0  0  0  0  0  0  0  0999 V2000
   -3.9517    0.2927   -0.0715 C   0  0  0  0  0  0  0  0  0  0  0  0
   -2.6797   -0.6443    0.1339 C   0  0  0  0  0  0  0  0  0  0  0  0
   -4.7472   -0.3131   -0.0558 H   0  0  0  0  0  0  0  0  0  0  0  0
   -4.1803    1.0139   -0.9908 H   0  0  0  0  0  0  0  0  0  0  0  0
   -4.0521    0.9774    0.7508 H   0  0  0  0  0  0  0  0  0  0  0  0
   -1.3823    0.1685    0.0811 C   0  0  0  0  0  0  0  0  0  0  0  0
   -2.6870   -1.1086   -0.5202 H   0  0  0  0  0  0  0  0  0  0  0  0
   -2.8112   -1.5025    1.2399 H   0  0  0  0  0  0  0  0  0  0  0  0
   -0.1810   -0.6721   -0.0674 C   0  0  0  0  0  0  0  0  0  0  0  0
   -1.2296    0.6816    0.8931 H   0  0  0  0  0  0  0  0  0  0  0  0
   -1.3620    0.6775   -0.7678 H   0  0  0  0  0  0  0  0  0  0  0  0
   -0.3074   -0.9246    0.6558 H   0  0  0  0  0  0  0  0  0  0  0  0
    0.7995    0.0092    0.3967 H   0  0  0  0  0  0  0  0  0  0  0  0
   -0.1069   -1.6992   -1.1272 H   0  0  0  0  0  0  0  0  0  0  0  0
  1  3  1  0  0  0  0
  1  2  1  0  0  0  0
  1  5  1  0  0  0  0
  2  8  1  0  0  0  0
  4  1  1  0  0  0  0
  6  2  1  0  0  0  0
  6 10  1  0  0  0  0
  7  2  1  0  0  0  0
  9  6  1  0  0  0  0
  9 13  1  0  0  0  0
  9 12  1  0  0  0  0
 11  6  1  0  0  0  0
 14  9  1  0  0  0  0
M  END
$$$$
