14
butane_opt
C  -3.885172   0.239132  -0.068859
C  -2.686142  -0.590149   0.161078
H  -4.921942  -0.410413   0.027203
H  -3.839143   1.009066  -1.060032
H  -3.888563   0.767580   0.687068
C  -1.439606   0.197061   0.073784
H  -2.829644  -1.113883  -0.622632
H  -2.787525  -1.288985   1.123750
C  -0.201678  -0.714335  -0.042700
H  -1.373990   0.885003   0.866731
H  -1.465838   0.994623  -0.907011
H  -0.037205  -0.870218   0.596685
H   0.709069  -0.163203   0.453260
H  -0.041896  -1.904634  -1.265512
