14
butane_opt
C  -3.912084   0.252275   0.113703
C  -2.680072  -0.598569  -0.066170
H  -4.896734  -0.360581   0.453265
H  -4.222201   1.248179  -1.004753
H  -3.869805   0.620602   0.734759
C  -1.419253   0.149083  -0.043232
H  -2.770543  -1.452150  -1.070258
H  -2.485808  -1.017089   0.655820
C  -0.183170  -0.686769   0.094141
H  -1.592135   0.865002   0.939841
H  -1.271341   0.869979  -1.002439
H  -0.257025  -1.317524   1.096737
H   0.809663  -0.013583   0.141332
H  -0.121711  -1.311510  -0.738256
