butane_opt
 OpenBabel08242015393D

 14 12  0  0  0  0  0  0  0  0999 V2000
   -3.9957    0.3170    0.1055 C   0  0  0  0  0  0  0  0  0  0  0  0
   -2.6717   -0.6754   -0.0200 C   0  0  0  0  0  0  0  0  0  0  0  0
   -4.8597   -0.2251   -0.4805 H   0  0  0  0  0  0  0  0  0  0  0  0
   -4.0102    0.4815   -0.5023 H   0  0  0  0  0  0  0  0  0  0  0  0
   -4.1550    1.3397    1.1981 H   0  0  0  0  0  0  0  0  0  0  0  0
   -1.3787    0.1487   -0.0878 C   0  0  0  0  0  0  0  0  0  0  0  0
   -2.7818   -1.3769   -0.9368 H   0  0  0  0  0  0  0  0  0  0  0  0
   -2.6848   -1.3917    0.9961 H   0  0  0  0  0  0  0  0  0  0  0  0
   -0.1710   -0.6436    0.1051 C   0  0  0  0  0  0  0  0  0  0  0  0
   -1.5237    0.6420    0.6555 H   0  0  0  0  0  0  0  0  0  0  0  0
   -1.1136    0.9605   -1.0808 H   0  0  0  0  0  0  0  0  0  0  0  0
   -0.0483   -1.3788    1.0804 H   0  0  0  0  0  0  0  0  0  0  0  0
    0.7985   -0.1074   -0.0590 H   0  0  0  0  0  0  0  0  0  0  0  0
   -0.0669   -1.1601   -0.6416 H   0  0  0  0  0  0  0  0  0  0  0  0
  1  5  1  0  0  0  0
  2  1  1  0  0  0  0
  2  8  1  0  0  0  0
  3  1  1  0  0  0  0
  6  2  1  0  0  0  0
  6  9  1  0  0  0  0
  6 10  1  0  0  0  0
  7  2  1  0  0  0  0
  9 12  1  0  0  0  0
 11  6  1  0  0  0  0
 13  9  1  0  0  0  0
 14  9  1  0  0  0  0
M  RAD  2   1   2   4   2
M  END
$$$$
