14
butane_opt
C  -3.964351   0.244781  -0.073282
C  -2.709007  -0.609965   0.140574
H  -4.923263  -0.381049   0.033728
H  -3.880433   1.092770  -1.159909
H  -3.923155   0.833955   0.730420
C  -1.430289   0.206694   0.119855
H  -2.621807  -1.416118  -0.782045
H  -2.779759  -1.083780   0.926128
C  -0.129718  -0.698219  -0.078402
H  -1.296385   0.931683   1.071590
H  -1.437572   0.716929  -0.607751
H   0.102822  -1.471678   0.886656
H   0.774231  -0.156955  -0.210147
H  -0.234720  -1.240796  -0.751347
