butane_opt
 OpenBabel08242015393D

 14 13  0  0  0  0  0  0  0  0999 V2000
   -3.9773    0.2831   -0.0127 C   0  0  0  0  0  0  0  0  0  0  0  0
   -2.7325   -0.6322    0.0481 C   0  0  0  0  0  0  0  0  0  0  0  0
   -4.9843   -0.3379    0.2336 H   0  0  0  0  0  0  0  0  0  0  0  0
   -4.0609    1.0070   -0.9873 H   0  0  0  0  0  0  0  0  0  0  0  0
   -3.9178    0.8810    0.8055 H   0  0  0  0  0  0  0  0  0  0  0  0
   -1.3651    0.1843    0.0282 C   0  0  0  0  0  0  0  0  0  0  0  0
   -2.7229   -1.2719   -0.7163 H   0  0  0  0  0  0  0  0  0  0  0  0
   -2.6552   -1.3687    0.9617 H   0  0  0  0  0  0  0  0  0  0  0  0
   -0.1516   -0.7087   -0.0061 C   0  0  0  0  0  0  0  0  0  0  0  0
   -1.2239    0.9496    1.0240 H   0  0  0  0  0  0  0  0  0  0  0  0
   -1.4097    0.8426   -0.8023 H   0  0  0  0  0  0  0  0  0  0  0  0
   -0.2160   -1.2064    0.8939 H   0  0  0  0  0  0  0  0  0  0  0  0
    0.8177   -0.0514    0.1800 H   0  0  0  0  0  0  0  0  0  0  0  0
    0.0619   -1.4362   -0.8671 H   0  0  0  0  0  0  0  0  0  0  0  0
  1  2  1  0  0  0  0
  1  3  1  0  0  0  0
  1  5  1  0  0  0  0
  2  8  1  0  0  0  0
  4  1  1  0  0  0  0
  6  2  1  0  0  0  0
  6 10  1  0  0  0  0
  7  2  1  0  0  0  0
  9  6  1  0  0  0  0
  9 13  1  0  0  0  0
  9 12  1  0  0  0  0
 11  6  1  0  0  0  0
 14  9  1  0  0  0  0
M  END
$$$$
