butane_opt
 OpenBabel08242015393D

 14 13  0  0  0  0  0  0  0  0999 V2000
   -3.9941    0.2735    0.1211 C   0  0  0  0  0  0  0  0  0  0  0  0
   -2.6800   -0.6199   -0.0609 C   0  0  0  0  0  0  0  0  0  0  0  0
   -4.7809   -0.2232    0.1588 H   0  0  0  0  0  0  0  0  0  0  0  0
   -4.3006    0.9133   -0.7846 H   0  0  0  0  0  0  0  0  0  0  0  0
   -3.8600    1.0656    1.1505 H   0  0  0  0  0  0  0  0  0  0  0  0
   -1.3886    0.1294   -0.1362 C   0  0  0  0  0  0  0  0  0  0  0  0
   -2.7432   -1.3354   -0.9195 H   0  0  0  0  0  0  0  0  0  0  0  0
   -2.5303   -1.3714    0.7877 H   0  0  0  0  0  0  0  0  0  0  0  0
   -0.1570   -0.6577    0.1441 C   0  0  0  0  0  0  0  0  0  0  0  0
   -1.5824    0.8324    0.7082 H   0  0  0  0  0  0  0  0  0  0  0  0
   -1.1164    0.7538   -1.0679 H   0  0  0  0  0  0  0  0  0  0  0  0
   -0.3613   -1.2547    1.0195 H   0  0  0  0  0  0  0  0  0  0  0  0
    0.8950    0.0609    0.3431 H   0  0  0  0  0  0  0  0  0  0  0  0
   -0.0237   -1.3780   -0.7976 H   0  0  0  0  0  0  0  0  0  0  0  0
  1  3  1  0  0  0  0
  1  5  1  0  0  0  0
  2  1  1  0  0  0  0
  2  8  1  0  0  0  0
  4  1  1  0  0  0  0
  6  2  1  0  0  0  0
  6  9  1  0  0  0  0
  6 10  1  0  0  0  0
  7  2  1  0  0  0  0
  9 13  1  0  0  0  0
  9 12  1  0  0  0  0
 11  6  1  0  0  0  0
 14  9  1  0  0  0  0
M  END
$$$$
