14
butane_opt
C  -3.963428   0.316118  -0.047095
C  -2.673833  -0.647597   0.122901
H  -4.879857  -0.339120   0.153396
H  -4.066766   0.894602  -0.938069
H  -3.983886   0.826355   0.694660
C  -1.404207   0.152403   0.034586
H  -2.552625  -1.121264  -0.608209
H  -2.702588  -1.508195   1.124988
C  -0.184494  -0.669587  -0.041671
H  -1.264363   0.826711   0.912589
H  -1.332050   0.723181  -0.844138
H  -0.376446  -0.914278   0.667527
H   0.865272   0.011059   0.585666
H  -0.033221  -1.682862  -1.160680
