butane_opt
 OpenBabel08242015393D

 14 13  0  0  0  0  0  0  0  0999 V2000
   -3.9750    0.2977    0.1183 C   0  0  0  0  0  0  0  0  0  0  0  0
   -2.7085   -0.6891   -0.0329 C   0  0  0  0  0  0  0  0  0  0  0  0
   -4.7946   -0.1555    0.1382 H   0  0  0  0  0  0  0  0  0  0  0  0
   -4.0428    0.7093   -0.6012 H   0  0  0  0  0  0  0  0  0  0  0  0
   -4.0539    1.0831    1.0537 H   0  0  0  0  0  0  0  0  0  0  0  0
   -1.3788    0.1905   -0.1442 C   0  0  0  0  0  0  0  0  0  0  0  0
   -2.7996   -1.3689   -1.0099 H   0  0  0  0  0  0  0  0  0  0  0  0
   -2.7121   -1.2083    0.7879 H   0  0  0  0  0  0  0  0  0  0  0  0
   -0.1471   -0.6825    0.1633 C   0  0  0  0  0  0  0  0  0  0  0  0
   -1.5316    0.6718    0.5337 H   0  0  0  0  0  0  0  0  0  0  0  0
   -1.3267    0.9853   -1.1345 H   0  0  0  0  0  0  0  0  0  0  0  0
   -0.2141   -1.0739    0.9302 H   0  0  0  0  0  0  0  0  0  0  0  0
    0.8498   -0.0251    0.3427 H   0  0  0  0  0  0  0  0  0  0  0  0
    0.0795   -1.4856   -0.8397 H   0  0  0  0  0  0  0  0  0  0  0  0
  1  3  1  0  0  0  0
  1  5  1  0  0  0  0
  2  1  1  0  0  0  0
  2  8  1  0  0  0  0
  4  1  1  0  0  0  0
  6  2  1  0  0  0  0
  6  9  1  0  0  0  0
  6 10  1  0  0  0  0
  7  2  1  0  0  0  0
  9 13  1  0  0  0  0
  9 12  1  0  0  0  0
 11  6  1  0  0  0  0
 14  9  1  0  0  0  0
M  END
$$$$
