butane_opt
 OpenBabel08242015393D

 14 13  0  0  0  0  0  0  0  0999 V2000
   -4.0102    0.2896    0.0872 C   0  0  0  0  0  0  0  0  0  0  0  0
   -2.6742   -0.6737   -0.0646 C   0  0  0  0  0  0  0  0  0  0  0  0
   -4.8344   -0.2710    0.3949 H   0  0  0  0  0  0  0  0  0  0  0  0
   -4.1835    1.1766   -1.0208 H   0  0  0  0  0  0  0  0  0  0  0  0
   -3.9746    0.7705    0.8580 H   0  0  0  0  0  0  0  0  0  0  0  0
   -1.3894    0.1529   -0.0147 C   0  0  0  0  0  0  0  0  0  0  0  0
   -2.8326   -1.3499   -0.9508 H   0  0  0  0  0  0  0  0  0  0  0  0
   -2.4605   -1.1187    0.6970 H   0  0  0  0  0  0  0  0  0  0  0  0
   -0.1512   -0.6518    0.0950 C   0  0  0  0  0  0  0  0  0  0  0  0
   -1.3157    0.8429    0.8255 H   0  0  0  0  0  0  0  0  0  0  0  0
   -1.1880    0.8068   -0.8757 H   0  0  0  0  0  0  0  0  0  0  0  0
   -0.2376   -1.3708    1.0528 H   0  0  0  0  0  0  0  0  0  0  0  0
    0.7516   -0.1122   -0.0007 H   0  0  0  0  0  0  0  0  0  0  0  0
   -0.0451   -1.2481   -0.8085 H   0  0  0  0  0  0  0  0  0  0  0  0
  1  3  1  0  0  0  0
  1  5  1  0  0  0  0
  2  6  1  0  0  0  0
  2  1  1  0  0  0  0
  2  8  1  0  0  0  0
  4  1  1  0  0  0  0
  6  9  1  0  0  0  0
  6 10  1  0  0  0  0
  7  2  1  0  0  0  0
  9 12  1  0  0  0  0
 11  6  1  0  0  0  0
 13  9  1  0  0  0  0
 14  9  1  0  0  0  0
M  END
$$$$
