butane_opt
 OpenBabel08242015393D

 14 13  0  0  0  0  0  0  0  0999 V2000
   -3.9496    0.2419    0.1016 C   0  0  0  0  0  0  0  0  0  0  0  0
   -2.7453   -0.5814   -0.0488 C   0  0  0  0  0  0  0  0  0  0  0  0
   -4.9036   -0.3430    0.0459 H   0  0  0  0  0  0  0  0  0  0  0  0
   -4.1681    0.7299   -0.6025 H   0  0  0  0  0  0  0  0  0  0  0  0
   -3.8138    0.9196    0.9405 H   0  0  0  0  0  0  0  0  0  0  0  0
   -1.3689    0.2246   -0.0755 C   0  0  0  0  0  0  0  0  0  0  0  0
   -2.7259   -1.2162   -0.8523 H   0  0  0  0  0  0  0  0  0  0  0  0
   -2.8876   -1.1561    0.8245 H   0  0  0  0  0  0  0  0  0  0  0  0
   -0.1197   -0.7368    0.0999 C   0  0  0  0  0  0  0  0  0  0  0  0
   -1.5383    0.8009    0.6708 H   0  0  0  0  0  0  0  0  0  0  0  0
   -1.3970    0.9022   -1.0685 H   0  0  0  0  0  0  0  0  0  0  0  0
   -0.2314   -1.3171    1.0707 H   0  0  0  0  0  0  0  0  0  0  0  0
    0.7977   -0.1479    0.1899 H   0  0  0  0  0  0  0  0  0  0  0  0
    0.0536   -1.4435   -0.7043 H   0  0  0  0  0  0  0  0  0  0  0  0
  1  5  1  0  0  0  0
  2  1  1  0  0  0  0
  2  8  1  0  0  0  0
  3  1  1  0  0  0  0
  4  1  1  0  0  0  0
  6  2  1  0  0  0  0
  6  9  1  0  0  0  0
  6 10  1  0  0  0  0
  7  2  1  0  0  0  0
  9 13  1  0  0  0  0
  9 12  1  0  0  0  0
 11  6  1  0  0  0  0
 14  9  1  0  0  0  0
M  END
$$$$
