14
butane_opt
C  -3.960382   0.291795   0.123132
C  -2.670439  -0.642038  -0.031769
H  -4.868408  -0.260067  -0.030392
H  -3.935528   0.852965  -0.724086
H  -3.847825   1.133913   1.017693
C  -1.377210   0.134947  -0.092131
H  -2.668247  -1.434103  -0.979423
H  -2.499271  -1.201512   0.777781
C  -0.219822  -0.674573   0.118023
H  -1.485667   0.627684   0.654353
H  -1.148092   0.979956  -1.174941
H  -0.417236  -1.177769   0.936834
H   0.755191  -0.018698   0.265739
H  -0.176788  -1.293246  -0.714083
