butane_opt
 OpenBabel08242015393D

 14 13  0  0  0  0  0  0  0  0999 V2000
   -3.9764    0.2591   -0.0555 C   0  0  0  0  0  0  0  0  0  0  0  0
   -2.7245   -0.6040    0.1647 C   0  0  0  0  0  0  0  0  0  0  0  0
   -4.9021   -0.3352   -0.4099 H   0  0  0  0  0  0  0  0  0  0  0  0
   -3.7618    0.7533   -0.9636 H   0  0  0  0  0  0  0  0  0  0  0  0
   -4.1346    0.9451    0.7469 H   0  0  0  0  0  0  0  0  0  0  0  0
   -1.3838    0.1992    0.0741 C   0  0  0  0  0  0  0  0  0  0  0  0
   -2.7550   -1.0788   -0.5054 H   0  0  0  0  0  0  0  0  0  0  0  0
   -2.8640   -1.2672    1.1571 H   0  0  0  0  0  0  0  0  0  0  0  0
   -0.1018   -0.7296   -0.0742 C   0  0  0  0  0  0  0  0  0  0  0  0
   -1.1741    0.9608    0.9731 H   0  0  0  0  0  0  0  0  0  0  0  0
   -1.5477    0.7894   -0.7243 H   0  0  0  0  0  0  0  0  0  0  0  0
   -0.1872   -1.1743    0.7165 H   0  0  0  0  0  0  0  0  0  0  0  0
    0.7218   -0.1328    0.0888 H   0  0  0  0  0  0  0  0  0  0  0  0
   -0.1559   -1.4661   -0.9544 H   0  0  0  0  0  0  0  0  0  0  0  0
  1  2  1  0  0  0  0
  1  5  1  0  0  0  0
  2  8  1  0  0  0  0
  3  1  1  0  0  0  0
  4  1  1  0  0  0  0
  6  2  1  0  0  0  0
  6 10  1  0  0  0  0
  7  2  1  0  0  0  0
  9  6  1  0  0  0  0
  9 13  1  0  0  0  0
  9 12  1  0  0  0  0
 11  6  1  0  0  0  0
 14  9  1  0  0  0  0
M  END
$$$$
