14
butane_opt
C  -3.975609   0.274211  -0.047408
C  -2.714851  -0.648170   0.084662
H  -4.707086  -0.223425   0.014785
H  -4.004007   0.989620  -1.012319
H  -4.163034   0.846178   0.678916
C  -1.381952   0.191588   0.115555
H  -2.600486  -1.331145  -0.751303
H  -2.841220  -1.191772   0.924824
C  -0.140741  -0.690374  -0.020149
H  -1.265374   0.914051   1.119213
H  -1.290672   0.768050  -0.713223
H   0.116487  -1.393655   0.947254
H   0.757056  -0.121960  -0.524295
H  -0.465510  -1.238045  -0.836015
