butane_opt
 OpenBabel08242015393D

 14 13  0  0  0  0  0  0  0  0999 V2000
   -3.9691    0.3196   -0.0603 C   0  0  0  0  0  0  0  0  0  0  0  0
   -2.6734   -0.6950    0.1557 C   0  0  0  0  0  0  0  0  0  0  0  0
   -4.8520   -0.2329   -0.3566 H   0  0  0  0  0  0  0  0  0  0  0  0
   -3.8063    0.7499   -0.8679 H   0  0  0  0  0  0  0  0  0  0  0  0
   -4.1914    1.1242    0.8481 H   0  0  0  0  0  0  0  0  0  0  0  0
   -1.3729    0.1628    0.0890 C   0  0  0  0  0  0  0  0  0  0  0  0
   -2.5339   -1.2919   -0.6942 H   0  0  0  0  0  0  0  0  0  0  0  0
   -2.8614   -1.3576    1.1109 H   0  0  0  0  0  0  0  0  0  0  0  0
   -0.1816   -0.6477   -0.0527 C   0  0  0  0  0  0  0  0  0  0  0  0
   -1.2591    0.8475    0.9250 H   0  0  0  0  0  0  0  0  0  0  0  0
   -1.3085    0.8290   -0.8713 H   0  0  0  0  0  0  0  0  0  0  0  0
   -0.0327   -1.3526    0.8941 H   0  0  0  0  0  0  0  0  0  0  0  0
    0.6499   -0.0236   -0.1091 H   0  0  0  0  0  0  0  0  0  0  0  0
   -0.4732   -1.4568   -0.9849 H   0  0  0  0  0  0  0  0  0  0  0  0
  1  2  1  0  0  0  0
  1  5  1  0  0  0  0
  2  8  1  0  0  0  0
  3  1  1  0  0  0  0
  4  1  1  0  0  0  0
  6  2  1  0  0  0  0
  6 10  1  0  0  0  0
  7  2  1  0  0  0  0
  9  6  1  0  0  0  0
  9 12  1  0  0  0  0
 11  6  1  0  0  0  0
 13  9  1  0  0  0  0
 14  9  1  0  0  0  0
M  END
$$$$
