14
butane_opt
C  -3.927242   0.206455   0.006671
C  -2.704896  -0.557818   0.002629
H  -4.807092  -0.306172   0.387032
H  -4.117742   1.185804  -1.086936
H  -3.625215   0.506688   0.570996
C  -1.436178   0.207525   0.067461
H  -2.684182  -1.123887  -0.820185
H  -2.661157  -1.204200   0.941126
C  -0.147614  -0.730721   0.005562
H  -1.392487   1.016808   1.044408
H  -1.593709   0.758667  -0.675560
H  -0.215265  -1.334266   0.860731
H   0.801899  -0.090815   0.054903
H  -0.126129  -1.392223  -0.873938
