14
butane_opt
C  -3.975349   0.233019  -0.045343
C  -2.716364  -0.582488   0.067364
H  -4.969200  -0.459403   0.298344
H  -4.071529   1.138726  -1.195675
H  -3.639569   0.566037   0.575188
C  -1.399899   0.221885   0.122435
H  -2.619536  -1.139205  -0.668780
H  -2.800616  -1.270246   0.997831
C  -0.120849  -0.727857  -0.042659
H  -1.369255   1.085587   1.011621
H  -1.584989   0.780747  -0.690090
H  -0.010676  -1.237169   0.763834
H   0.631696  -0.182395   0.018860
H  -0.030080  -1.512990  -0.938755
