14
butane_opt
C  -3.957474   0.276302  -0.079350
C  -2.666142  -0.635950   0.131507
H  -4.762927  -0.224117  -0.157929
H  -3.797071   0.916821  -1.053106
H  -4.005547   0.873066   0.677026
C  -1.411230   0.152676   0.139634
H  -2.646632  -1.152088  -0.701692
H  -2.850556  -1.333495   1.085000
C  -0.171824  -0.695936  -0.091583
H  -1.181869   1.104935   1.231010
H  -1.654509   0.684852  -0.630614
H  -0.056692  -1.431882   0.957059
H   0.821037   0.027118  -0.293588
H  -0.432382  -1.093077  -0.842681
