14
butane_opt
C  -3.915250   0.219901   0.064022
C  -2.694834  -0.547380  -0.018917
H  -4.953065  -0.569994  -0.039119
H  -3.765790   0.708199  -0.784312
H  -3.991514   1.016374   1.029081
C  -1.430394   0.235544  -0.015855
H  -2.687793  -1.263012  -0.893282
H  -2.539617  -1.178470   0.777636
C  -0.167108  -0.731593   0.051147
H  -1.543569   0.886621   0.829810
H  -1.387234   0.767640  -0.816739
H  -0.089387  -1.660142   1.254053
H   0.688957  -0.227098  -0.219700
H  -0.220101  -1.088144  -0.618710
