butane_opt
 OpenBabel08242015393D

 14 13  0  0  0  0  0  0  0  0999 V2000
   -3.9380    0.2430   -0.0178 C   0  0  0  0  0  0  0  0  0  0  0  0
   -2.7228   -0.5875    0.0787 C   0  0  0  0  0  0  0  0  0  0  0  0
   -4.7995   -0.3043   -0.1901 H   0  0  0  0  0  0  0  0  0  0  0  0
   -3.9344    0.9289   -1.0975 H   0  0  0  0  0  0  0  0  0  0  0  0
   -4.0937    0.8820    0.8031 H   0  0  0  0  0  0  0  0  0  0  0  0
   -1.3861    0.2102    0.0912 C   0  0  0  0  0  0  0  0  0  0  0  0
   -2.8181   -1.2978   -0.8119 H   0  0  0  0  0  0  0  0  0  0  0  0
   -2.8650   -1.3372    1.0431 H   0  0  0  0  0  0  0  0  0  0  0  0
   -0.1246   -0.7056   -0.0297 C   0  0  0  0  0  0  0  0  0  0  0  0
   -1.3906    1.0299    1.0398 H   0  0  0  0  0  0  0  0  0  0  0  0
   -1.4640    0.7017   -0.6145 H   0  0  0  0  0  0  0  0  0  0  0  0
    0.0222   -1.5777    1.0198 H   0  0  0  0  0  0  0  0  0  0  0  0
    0.7019   -0.1695   -0.4055 H   0  0  0  0  0  0  0  0  0  0  0  0
   -0.3051   -1.2381   -0.8195 H   0  0  0  0  0  0  0  0  0  0  0  0
  1  2  1  0  0  0  0
  1  5  1  0  0  0  0
  2  6  1  0  0  0  0
  2  8  1  0  0  0  0
  3  1  1  0  0  0  0
  4  1  1  0  0  0  0
  6 10  1  0  0  0  0
  7  2  1  0  0  0  0
  9  6  1  0  0  0  0
  9 12  1  0  0  0  0
 11  6  1  0  0  0  0
 13  9  1  0  0  0  0
 14  9  1  0  0  0  0
M  END
$$$$
