butane_opt
 OpenBabel08242015393D

 14 13  0  0  0  0  0  0  0  0999 V2000
   -3.9851    0.2500    0.1386 C   0  0  0  0  0  0  0  0  0  0  0  0
   -2.7025   -0.6115   -0.0835 C   0  0  0  0  0  0  0  0  0  0  0  0
   -4.9230   -0.3441    0.3943 H   0  0  0  0  0  0  0  0  0  0  0  0
   -4.1540    1.1030   -0.9268 H   0  0  0  0  0  0  0  0  0  0  0  0
   -3.8014    0.7668    0.8089 H   0  0  0  0  0  0  0  0  0  0  0  0
   -1.3684    0.1935   -0.0842 C   0  0  0  0  0  0  0  0  0  0  0  0
   -2.9049   -1.4245   -1.0512 H   0  0  0  0  0  0  0  0  0  0  0  0
   -2.6554   -0.8867    0.5690 H   0  0  0  0  0  0  0  0  0  0  0  0
   -0.1348   -0.6959    0.1411 C   0  0  0  0  0  0  0  0  0  0  0  0
   -1.5055    0.8660    0.8030 H   0  0  0  0  0  0  0  0  0  0  0  0
   -1.1993    0.7710   -0.9843 H   0  0  0  0  0  0  0  0  0  0  0  0
   -0.2014   -1.4918    1.1448 H   0  0  0  0  0  0  0  0  0  0  0  0
    0.6608   -0.1565   -0.0293 H   0  0  0  0  0  0  0  0  0  0  0  0
   -0.0400   -1.3211   -0.6614 H   0  0  0  0  0  0  0  0  0  0  0  0
  1  3  1  0  0  0  0
  1  5  1  0  0  0  0
  2  1  1  0  0  0  0
  2  8  1  0  0  0  0
  4  1  1  0  0  0  0
  6  2  1  0  0  0  0
  6  9  1  0  0  0  0
  6 10  1  0  0  0  0
  7  2  1  0  0  0  0
  9 12  1  0  0  0  0
 11  6  1  0  0  0  0
 13  9  1  0  0  0  0
 14  9  1  0  0  0  0
M  END
$$$$
