14
butane_opt
C  -3.966946   0.236915  -0.017920
C  -2.712813  -0.578508   0.079192
H  -4.995648  -0.390690   0.062078
H  -4.069059   1.088903  -0.984616
H  -3.920534   0.683000   0.728435
C  -1.387969   0.218998   0.045402
H  -2.752139  -1.272933  -0.779858
H  -2.744763  -1.373255   1.013723
C  -0.120992  -0.733307   0.013573
H  -1.477411   0.929552   0.911468
H  -1.529613   0.897934  -0.829303
H   0.001292  -1.039059   0.732374
H   0.864292  -0.111819   0.112119
H  -0.123480  -1.619002  -1.029677
