14
butane_opt
C  -3.949617   0.256290  -0.036768
C  -2.703977  -0.579669   0.069417
H  -4.756768  -0.370554  -0.031968
H  -3.819289   0.786535  -0.876426
H  -3.847387   0.902365   0.790884
C  -1.406934   0.196216   0.072281
H  -2.733653  -1.329132  -0.821763
H  -2.887527  -1.188710   0.970452
C  -0.152956  -0.729010  -0.019343
H  -1.264343   1.016083   1.128136
H  -1.596396   0.784683  -0.746054
H   0.035801  -1.602062   1.067446
H   0.837436  -0.064709  -0.326537
H  -0.448786  -1.106288  -0.689694
