14
butane_opt
C  -3.883316   0.251779  -0.100410
C  -2.729154  -0.572015   0.177580
H  -4.799492  -0.399413  -0.381324
H  -3.805504   0.614290  -0.873615
H  -4.084694   0.941589   0.783833
C  -1.410871   0.206479   0.145862
H  -2.696108  -1.161933  -0.572901
H  -2.858332  -1.235063   1.124738
C  -0.167799  -0.718609  -0.088199
H  -1.430206   0.747768   0.922339
H  -1.603449   0.897342  -0.854881
H   0.079022  -1.268840   0.780679
H   0.730912  -0.135349  -0.142225
H  -0.269105  -1.484375  -0.959107
