butane_opt
 OpenBabel08242015393D

 14 13  0  0  0  0  0  0  0  0999 V2000
   -3.9808    0.2737   -0.0185 C   0  0  0  0  0  0  0  0  0  0  0  0
   -2.7227   -0.6273    0.0482 C   0  0  0  0  0  0  0  0  0  0  0  0
   -4.9065   -0.3774   -0.0995 H   0  0  0  0  0  0  0  0  0  0  0  0
   -3.9066    0.9523   -0.9517 H   0  0  0  0  0  0  0  0  0  0  0  0
   -4.0621    1.0003    0.8037 H   0  0  0  0  0  0  0  0  0  0  0  0
   -1.3655    0.1885    0.0855 C   0  0  0  0  0  0  0  0  0  0  0  0
   -2.7595   -1.2908   -0.7496 H   0  0  0  0  0  0  0  0  0  0  0  0
   -2.5691   -1.3584    1.0372 H   0  0  0  0  0  0  0  0  0  0  0  0
   -0.1355   -0.6931   -0.0160 C   0  0  0  0  0  0  0  0  0  0  0  0
   -1.3073    0.9764    1.0784 H   0  0  0  0  0  0  0  0  0  0  0  0
   -1.3488    0.7492   -0.7689 H   0  0  0  0  0  0  0  0  0  0  0  0
   -0.0991   -1.4659    1.0602 H   0  0  0  0  0  0  0  0  0  0  0  0
    0.7020   -0.1504   -0.3741 H   0  0  0  0  0  0  0  0  0  0  0  0
   -0.2940   -1.2188   -0.8033 H   0  0  0  0  0  0  0  0  0  0  0  0
  1  2  1  0  0  0  0
  1  5  1  0  0  0  0
  2  6  1  0  0  0  0
  2  8  1  0  0  0  0
  3  1  1  0  0  0  0
  4  1  1  0  0  0  0
  6 10  1  0  0  0  0
  7  2  1  0  0  0  0
  9  6  1  0  0  0  0
  9 12  1  0  0  0  0
 11  6  1  0  0  0  0
 13  9  1  0  0  0  0
 14  9  1  0  0  0  0
M  END
$$$$
