butane_opt
 OpenBabel08242015393D

 14 13  0  0  0  0  0  0  0  0999 V2000
   -3.9249    0.2900    0.0555 C   0  0  0  0  0  0  0  0  0  0  0  0
   -2.6453   -0.6497    0.0211 C   0  0  0  0  0  0  0  0  0  0  0  0
   -4.9133   -0.3545   -0.0698 H   0  0  0  0  0  0  0  0  0  0  0  0
   -3.9301    0.6327   -0.7350 H   0  0  0  0  0  0  0  0  0  0  0  0
   -4.0926    1.0861    0.9656 H   0  0  0  0  0  0  0  0  0  0  0  0
   -1.4255    0.1875   -0.0269 C   0  0  0  0  0  0  0  0  0  0  0  0
   -2.7884   -1.4535   -0.9721 H   0  0  0  0  0  0  0  0  0  0  0  0
   -2.5290   -1.0754    0.6866 H   0  0  0  0  0  0  0  0  0  0  0  0
   -0.2025   -0.6723    0.0724 C   0  0  0  0  0  0  0  0  0  0  0  0
   -1.3183    0.7805    0.7127 H   0  0  0  0  0  0  0  0  0  0  0  0
   -1.4193    0.8510   -0.9163 H   0  0  0  0  0  0  0  0  0  0  0  0
   -0.1357   -1.5951    1.1738 H   0  0  0  0  0  0  0  0  0  0  0  0
    0.7618   -0.0640   -0.1768 H   0  0  0  0  0  0  0  0  0  0  0  0
   -0.2734   -1.1497   -0.6349 H   0  0  0  0  0  0  0  0  0  0  0  0
  1  5  1  0  0  0  0
  2  1  1  0  0  0  0
  2  8  1  0  0  0  0
  3  1  1  0  0  0  0
  4  1  1  0  0  0  0
  6  2  1  0  0  0  0
  6  9  1  0  0  0  0
  6 10  1  0  0  0  0
  7  2  1  0  0  0  0
  9 12  1  0  0  0  0
 11  6  1  0  0  0  0
 13  9  1  0  0  0  0
 14  9  1  0  0  0  0
M  END
$$$$
