14
butane_opt
C  -3.961688   0.307721   0.100130
C  -2.682394  -0.680877  -0.035001
H  -4.808234  -0.290746   0.174241
H  -4.280257   0.896759  -0.744882
H  -3.895865   0.925376   0.885788
C  -1.365349   0.161980  -0.085218
H  -2.800245  -1.464799  -0.938770
H  -2.601161  -1.085117   0.735030
C  -0.171200  -0.673552   0.130353
H  -1.352117   0.791664   0.641256
H  -1.421531   0.993686  -1.064301
H  -0.341523  -1.220342   0.976203
H   0.733733  -0.029608   0.247984
H  -0.085835  -1.390761  -0.804678
