butane_opt
 OpenBabel08242015393D

 14 13  0  0  0  0  0  0  0  0999 V2000
   -3.9456    0.2583   -0.0104 C   0  0  0  0  0  0  0  0  0  0  0  0
   -2.7021   -0.6168    0.0560 C   0  0  0  0  0  0  0  0  0  0  0  0
   -4.8464   -0.3209    0.2075 H   0  0  0  0  0  0  0  0  0  0  0  0
   -4.0220    0.9960   -1.0023 H   0  0  0  0  0  0  0  0  0  0  0  0
   -3.9331    0.8041    0.7526 H   0  0  0  0  0  0  0  0  0  0  0  0
   -1.4035    0.1933    0.0489 C   0  0  0  0  0  0  0  0  0  0  0  0
   -2.6421   -1.2969   -0.7980 H   0  0  0  0  0  0  0  0  0  0  0  0
   -2.7615   -1.2317    0.9482 H   0  0  0  0  0  0  0  0  0  0  0  0
   -0.1629   -0.6945    0.0095 C   0  0  0  0  0  0  0  0  0  0  0  0
   -1.3677    0.8771    0.9249 H   0  0  0  0  0  0  0  0  0  0  0  0
   -1.4312    0.8177   -0.8223 H   0  0  0  0  0  0  0  0  0  0  0  0
   -0.0561   -1.2340    0.8173 H   0  0  0  0  0  0  0  0  0  0  0  0
    0.7306   -0.1299    0.0311 H   0  0  0  0  0  0  0  0  0  0  0  0
   -0.1258   -1.4333   -0.8766 H   0  0  0  0  0  0  0  0  0  0  0  0
  1  2  1  0  0  0  0
  1  3  1  0  0  0  0
  1  5  1  0  0  0  0
  2  8  1  0  0  0  0
  4  1  1  0  0  0  0
  6  2  1  0  0  0  0
  6 10  1  0  0  0  0
  7  2  1  0  0  0  0
  9 13  1  0  0  0  0
  9  6  1  0  0  0  0
  9 12  1  0  0  0  0
 11  6  1  0  0  0  0
 14  9  1  0  0  0  0
M  END
$$$$
