14
butane_opt
C  -3.924084   0.273514   0.090091
C  -2.662939  -0.631410  -0.008735
H  -4.875847  -0.296565  -0.366622
H  -3.902205   0.499662  -0.625735
H  -4.048092   1.340107   1.208118
C  -1.432666   0.157195  -0.072447
H  -2.568571  -1.196049  -0.799564
H  -2.756620  -1.175352   0.889984
C  -0.193811  -0.687606   0.085453
H  -1.396010   0.734688   0.714328
H  -1.344261   0.836676  -1.061935
H  -0.288413  -1.462860   1.084312
H   0.894396   0.051855  -0.076553
H  -0.176725  -1.142117  -0.595667
