14
butane_opt
C  -3.985142   0.249969   0.138588
C  -2.702514  -0.611529  -0.083532
H  -4.922977  -0.344061   0.394295
H  -4.153963   1.103019  -0.926832
H  -3.801388   0.766780   0.808893
C  -1.368383   0.193529  -0.084235
H  -2.904912  -1.424509  -1.051168
H  -2.655351  -0.886712   0.568995
C  -0.134847  -0.695930   0.141147
H  -1.505522   0.866023   0.802951
H  -1.199321   0.771021  -0.984255
H  -0.201374  -1.491841   1.144823
H   0.660829  -0.156461  -0.029339
H  -0.039964  -1.321118  -0.661428
