14
butane_opt
C  -3.959927   0.266471  -0.077115
C  -2.710820  -0.636171   0.130534
H  -4.935695  -0.417205  -0.028794
H  -3.782031   0.905601  -1.004177
H  -4.046957   0.995913   0.823025
C  -1.417324   0.208682   0.103138
H  -2.685035  -1.250005  -0.722361
H  -2.742564  -1.221810   0.954703
C  -0.127036  -0.701998  -0.060977
H  -1.237923   1.053180   1.072130
H  -1.389206   0.668353  -0.635412
H  -0.025262  -1.504747   0.972222
H   0.645949  -0.148778  -0.347785
H  -0.225807  -1.216552  -0.770786
