butane_opt
 OpenBabel08242015393D

 14 13  0  0  0  0  0  0  0  0999 V2000
   -3.9432    0.2569    0.0258 C   0  0  0  0  0  0  0  0  0  0  0  0
   -2.7114   -0.6081    0.0242 C   0  0  0  0  0  0  0  0  0  0  0  0
   -4.8555   -0.3429    0.1294 H   0  0  0  0  0  0  0  0  0  0  0  0
   -3.9852    0.9479   -0.9025 H   0  0  0  0  0  0  0  0  0  0  0  0
   -3.8933    0.8446    0.8190 H   0  0  0  0  0  0  0  0  0  0  0  0
   -1.4061    0.2056    0.0062 C   0  0  0  0  0  0  0  0  0  0  0  0
   -2.8287   -1.3054   -0.8447 H   0  0  0  0  0  0  0  0  0  0  0  0
   -2.6995   -1.2282    0.9062 H   0  0  0  0  0  0  0  0  0  0  0  0
   -0.1482   -0.7059    0.0360 C   0  0  0  0  0  0  0  0  0  0  0  0
   -1.3953    0.9044    0.8705 H   0  0  0  0  0  0  0  0  0  0  0  0
   -1.3889    0.7762   -0.8638 H   0  0  0  0  0  0  0  0  0  0  0  0
   -0.0980   -1.3175    0.9536 H   0  0  0  0  0  0  0  0  0  0  0  0
    0.7320   -0.1511    0.0553 H   0  0  0  0  0  0  0  0  0  0  0  0
   -0.1070   -1.3793   -0.8018 H   0  0  0  0  0  0  0  0  0  0  0  0
  1  3  1  0  0  0  0
  1  5  1  0  0  0  0
  2  1  1  0  0  0  0
  2  8  1  0  0  0  0
  4  1  1  0  0  0  0
  6  2  1  0  0  0  0
  6  9  1  0  0  0  0
  6 10  1  0  0  0  0
  7  2  1  0  0  0  0
  9 13  1  0  0  0  0
  9 12  1  0  0  0  0
 11  6  1  0  0  0  0
 14  9  1  0  0  0  0
M  END
$$$$
