14
butane_opt
C  -3.985455   0.303964  -0.094711
C  -2.737030  -0.666415   0.159814
H  -4.910297  -0.238432  -0.215928
H  -3.981299   1.056762  -1.135777
H  -4.065393   1.036353   0.726638
C  -1.360421   0.140090   0.158602
H  -2.475488  -1.389665  -0.690656
H  -2.865761  -1.305666   1.123965
C  -0.118681  -0.660549  -0.076804
H  -1.199391   0.868723   1.075779
H  -1.450682   0.729256  -0.678799
H   0.033596  -1.332922   0.795687
H   0.803189  -0.003701  -0.397473
H  -0.493313  -1.284298  -0.922321
