14
butane_opt
C  -3.902845   0.240960  -0.092890
C  -2.711727  -0.584845   0.197507
H  -4.921502  -0.412050  -0.509312
H  -3.650015   0.653778  -0.870008
H  -4.125955   1.140863   0.806736
C  -1.388762   0.213119   0.101400
H  -2.599239  -1.007194  -0.453966
H  -2.926168  -1.467548   1.209465
C  -0.199250  -0.725102  -0.090757
H  -1.409389   0.964762   0.964462
H  -1.502204   0.755282  -0.712046
H   0.108254  -1.195681   0.664940
H   0.618726  -0.221347  -0.040327
H  -0.176312  -1.441607  -0.984510
