butane_opt
 OpenBabel08242015393D

 14 13  0  0  0  0  0  0  0  0999 V2000
   -3.9358    0.2728    0.1021 C   0  0  0  0  0  0  0  0  0  0  0  0
   -2.6552   -0.6369   -0.0368 C   0  0  0  0  0  0  0  0  0  0  0  0
   -4.8395   -0.2108    0.1713 H   0  0  0  0  0  0  0  0  0  0  0  0
   -4.1812    0.7236   -0.6308 H   0  0  0  0  0  0  0  0  0  0  0  0
   -3.8810    1.1540    1.1293 H   0  0  0  0  0  0  0  0  0  0  0  0
   -1.3914    0.1450   -0.1412 C   0  0  0  0  0  0  0  0  0  0  0  0
   -2.6060   -1.3569   -0.8439 H   0  0  0  0  0  0  0  0  0  0  0  0
   -2.5231   -1.2046    0.8304 H   0  0  0  0  0  0  0  0  0  0  0  0
   -0.2322   -0.6610    0.1422 C   0  0  0  0  0  0  0  0  0  0  0  0
   -1.5596    0.6763    0.6115 H   0  0  0  0  0  0  0  0  0  0  0  0
   -1.2402    0.8323   -1.1590 H   0  0  0  0  0  0  0  0  0  0  0  0
   -0.4704   -1.0817    0.8934 H   0  0  0  0  0  0  0  0  0  0  0  0
    0.7200   -0.0443    0.4048 H   0  0  0  0  0  0  0  0  0  0  0  0
    0.1279   -1.3944   -0.7709 H   0  0  0  0  0  0  0  0  0  0  0  0
  1  3  1  0  0  0  0
  1  5  1  0  0  0  0
  2  1  1  0  0  0  0
  2  8  1  0  0  0  0
  4  1  1  0  0  0  0
  6  2  1  0  0  0  0
  6  9  1  0  0  0  0
  6 10  1  0  0  0  0
  7  2  1  0  0  0  0
  9 13  1  0  0  0  0
  9 12  1  0  0  0  0
 11  6  1  0  0  0  0
 14  9  1  0  0  0  0
M  END
$$$$
