butane_opt
 OpenBabel08242015393D

 14 12  0  0  0  0  0  0  0  0999 V2000
   -3.9477    0.2359   -0.0381 C   0  0  0  0  0  0  0  0  0  0  0  0
   -2.7234   -0.5909    0.1721 C   0  0  0  0  0  0  0  0  0  0  0  0
   -4.9015   -0.3771    0.0837 H   0  0  0  0  0  0  0  0  0  0  0  0
   -3.7325    0.9648   -1.0877 H   0  0  0  0  0  0  0  0  0  0  0  0
   -4.1462    0.7268    0.6590 H   0  0  0  0  0  0  0  0  0  0  0  0
   -1.4334    0.2381    0.0216 C   0  0  0  0  0  0  0  0  0  0  0  0
   -2.6473   -1.2753   -0.7187 H   0  0  0  0  0  0  0  0  0  0  0  0
   -2.7558   -1.2679    1.0587 H   0  0  0  0  0  0  0  0  0  0  0  0
   -0.1207   -0.7028   -0.0261 C   0  0  0  0  0  0  0  0  0  0  0  0
   -1.3130    0.9269    0.9232 H   0  0  0  0  0  0  0  0  0  0  0  0
   -1.3936    0.7737   -0.8908 H   0  0  0  0  0  0  0  0  0  0  0  0
   -0.1330   -1.0195    0.6607 H   0  0  0  0  0  0  0  0  0  0  0  0
    0.6248   -0.1889    0.4132 H   0  0  0  0  0  0  0  0  0  0  0  0
    0.0817   -1.9256   -1.2491 H   0  0  0  0  0  0  0  0  0  0  0  0
  1  3  1  0  0  0  0
  1  2  1  0  0  0  0
  1  5  1  0  0  0  0
  2  8  1  0  0  0  0
  4  1  1  0  0  0  0
  6  2  1  0  0  0  0
  6 10  1  0  0  0  0
  7  2  1  0  0  0  0
  9  6  1  0  0  0  0
  9 13  1  0  0  0  0
  9 12  1  0  0  0  0
 11  6  1  0  0  0  0
M  RAD  2   9   2  14   2
M  END
$$$$
