14
butane_opt
C  -3.974996   0.297738   0.118279
C  -2.708515  -0.689082  -0.032890
H  -4.794579  -0.155459   0.138243
H  -4.042850   0.709344  -0.601154
H  -4.053871   1.083144   1.053683
C  -1.378769   0.190519  -0.144198
H  -2.799637  -1.368940  -1.009928
H  -2.712130  -1.208297   0.787851
C  -0.147084  -0.682516   0.163293
H  -1.531561   0.671760   0.533653
H  -1.326656   0.985284  -1.134528
H  -0.214140  -1.073863   0.930163
H   0.849812  -0.025088   0.342684
H   0.079450  -1.485608  -0.839672
