butane_opt
 OpenBabel08242015393D

 14 12  0  0  0  0  0  0  0  0999 V2000
   -3.9222    0.2903   -0.0445 C   0  0  0  0  0  0  0  0  0  0  0  0
   -2.6813   -0.6331    0.0933 C   0  0  0  0  0  0  0  0  0  0  0  0
   -4.8508   -0.3566    0.2109 H   0  0  0  0  0  0  0  0  0  0  0  0
   -4.1193    1.2803   -1.2251 H   0  0  0  0  0  0  0  0  0  0  0  0
   -3.8643    0.6870    0.6546 H   0  0  0  0  0  0  0  0  0  0  0  0
   -1.4158    0.1271    0.0916 C   0  0  0  0  0  0  0  0  0  0  0  0
   -2.5745   -1.2346   -0.6953 H   0  0  0  0  0  0  0  0  0  0  0  0
   -2.7132   -1.2512    1.0407 H   0  0  0  0  0  0  0  0  0  0  0  0
   -0.1811   -0.6657   -0.0702 C   0  0  0  0  0  0  0  0  0  0  0  0
   -1.3443    0.9291    1.0809 H   0  0  0  0  0  0  0  0  0  0  0  0
   -1.5017    0.5455   -0.5738 H   0  0  0  0  0  0  0  0  0  0  0  0
   -0.3402   -1.1525    0.8361 H   0  0  0  0  0  0  0  0  0  0  0  0
    0.8628    0.0034    0.1238 H   0  0  0  0  0  0  0  0  0  0  0  0
   -0.1707   -1.3241   -0.9087 H   0  0  0  0  0  0  0  0  0  0  0  0
  1  2  1  0  0  0  0
  1  3  1  0  0  0  0
  1  5  1  0  0  0  0
  2  8  1  0  0  0  0
  6  2  1  0  0  0  0
  6 10  1  0  0  0  0
  7  2  1  0  0  0  0
  9  6  1  0  0  0  0
  9 13  1  0  0  0  0
  9 12  1  0  0  0  0
 11  6  1  0  0  0  0
 14  9  1  0  0  0  0
M  RAD  2   1   2   4   2
M  END
$$$$
