14
butane_opt
C  -3.914890   0.284959  -0.076944
C  -2.704166  -0.626074   0.161223
H  -4.785211  -0.318068  -0.348237
H  -3.817498   0.643861  -0.792253
H  -4.051010   1.213010   0.887609
C  -1.391891   0.163344   0.061396
H  -2.682601  -1.098686  -0.621127
H  -2.783627  -1.420502   1.206674
C  -0.168205  -0.679280  -0.035885
H  -1.360625   0.796659   0.825435
H  -1.565813   0.703063  -0.791348
H  -0.193362  -1.150715   0.725994
H   0.784107  -0.099929   0.026384
H  -0.411201  -1.457268  -0.973325
