butane_opt
 OpenBabel08242015393D

 14 13  0  0  0  0  0  0  0  0999 V2000
   -3.9644    0.2448   -0.0733 C   0  0  0  0  0  0  0  0  0  0  0  0
   -2.7090   -0.6100    0.1406 C   0  0  0  0  0  0  0  0  0  0  0  0
   -4.9233   -0.3810    0.0337 H   0  0  0  0  0  0  0  0  0  0  0  0
   -3.8804    1.0928   -1.1599 H   0  0  0  0  0  0  0  0  0  0  0  0
   -3.9232    0.8340    0.7304 H   0  0  0  0  0  0  0  0  0  0  0  0
   -1.4303    0.2067    0.1199 C   0  0  0  0  0  0  0  0  0  0  0  0
   -2.6218   -1.4161   -0.7820 H   0  0  0  0  0  0  0  0  0  0  0  0
   -2.7798   -1.0838    0.9261 H   0  0  0  0  0  0  0  0  0  0  0  0
   -0.1297   -0.6982   -0.0784 C   0  0  0  0  0  0  0  0  0  0  0  0
   -1.2964    0.9317    1.0716 H   0  0  0  0  0  0  0  0  0  0  0  0
   -1.4376    0.7169   -0.6078 H   0  0  0  0  0  0  0  0  0  0  0  0
    0.1028   -1.4717    0.8867 H   0  0  0  0  0  0  0  0  0  0  0  0
    0.7742   -0.1570   -0.2101 H   0  0  0  0  0  0  0  0  0  0  0  0
   -0.2347   -1.2408   -0.7513 H   0  0  0  0  0  0  0  0  0  0  0  0
  1  3  1  0  0  0  0
  1  2  1  0  0  0  0
  1  5  1  0  0  0  0
  2  8  1  0  0  0  0
  4  1  1  0  0  0  0
  6  2  1  0  0  0  0
  6 10  1  0  0  0  0
  7  2  1  0  0  0  0
  9  6  1  0  0  0  0
  9 12  1  0  0  0  0
 11  6  1  0  0  0  0
 13  9  1  0  0  0  0
 14  9  1  0  0  0  0
M  END
$$$$
