butane_opt
 OpenBabel08242015393D

 14 12  0  0  0  0  0  0  0  0999 V2000
   -3.8994    0.3017   -0.0570 C   0  0  0  0  0  0  0  0  0  0  0  0
   -2.6827   -0.6583    0.1323 C   0  0  0  0  0  0  0  0  0  0  0  0
   -4.7597   -0.2607    0.1787 H   0  0  0  0  0  0  0  0  0  0  0  0
   -3.8807    1.0989   -1.0296 H   0  0  0  0  0  0  0  0  0  0  0  0
   -3.9867    0.7649    0.6236 H   0  0  0  0  0  0  0  0  0  0  0  0
   -1.4236    0.1596    0.0949 C   0  0  0  0  0  0  0  0  0  0  0  0
   -2.5628   -1.2541   -0.6799 H   0  0  0  0  0  0  0  0  0  0  0  0
   -2.9644   -1.3949    1.1540 H   0  0  0  0  0  0  0  0  0  0  0  0
   -0.1927   -0.6567   -0.0418 C   0  0  0  0  0  0  0  0  0  0  0  0
   -1.3313    0.8018    0.8858 H   0  0  0  0  0  0  0  0  0  0  0  0
   -1.4097    0.8602   -0.9542 H   0  0  0  0  0  0  0  0  0  0  0  0
   -0.3568   -0.9651    0.5859 H   0  0  0  0  0  0  0  0  0  0  0  0
    0.7942   -0.0332    0.3735 H   0  0  0  0  0  0  0  0  0  0  0  0
   -0.2114   -1.8371   -1.2691 H   0  0  0  0  0  0  0  0  0  0  0  0
  1  2  1  0  0  0  0
  1  3  1  0  0  0  0
  1  5  1  0  0  0  0
  2  8  1  0  0  0  0
  4  1  1  0  0  0  0
  6  2  1  0  0  0  0
  6 10  1  0  0  0  0
  7  2  1  0  0  0  0
  9  6  1  0  0  0  0
  9 13  1  0  0  0  0
  9 12  1  0  0  0  0
 11  6  1  0  0  0  0
M  RAD  2   9   2  14   2
M  END
$$$$
