butane_opt
 OpenBabel08242015393D

 14 12  0  0  0  0  0  0  0  0999 V2000
   -3.9083    0.2380    0.0957 C   0  0  0  0  0  0  0  0  0  0  0  0
   -2.6877   -0.5674    0.0032 C   0  0  0  0  0  0  0  0  0  0  0  0
   -4.9028   -0.4842   -0.3989 H   0  0  0  0  0  0  0  0  0  0  0  0
   -3.6960    0.4496   -0.5612 H   0  0  0  0  0  0  0  0  0  0  0  0
   -3.9971    1.2898    1.2571 H   0  0  0  0  0  0  0  0  0  0  0  0
   -1.4189    0.2122   -0.1152 C   0  0  0  0  0  0  0  0  0  0  0  0
   -2.8306   -1.3027   -0.8904 H   0  0  0  0  0  0  0  0  0  0  0  0
   -2.8185   -1.1322    0.8406 H   0  0  0  0  0  0  0  0  0  0  0  0
   -0.1717   -0.7425    0.1167 C   0  0  0  0  0  0  0  0  0  0  0  0
   -1.5545    0.8742    0.7052 H   0  0  0  0  0  0  0  0  0  0  0  0
   -1.3476    1.0274   -1.0554 H   0  0  0  0  0  0  0  0  0  0  0  0
   -0.1124   -1.5414    1.1676 H   0  0  0  0  0  0  0  0  0  0  0  0
    0.7863   -0.1465   -0.0737 H   0  0  0  0  0  0  0  0  0  0  0  0
   -0.2902   -1.2195   -0.6933 H   0  0  0  0  0  0  0  0  0  0  0  0
  2  1  1  0  0  0  0
  2  8  1  0  0  0  0
  3  1  1  0  0  0  0
  4  1  1  0  0  0  0
  6  2  1  0  0  0  0
  6  9  1  0  0  0  0
  6 10  1  0  0  0  0
  7  2  1  0  0  0  0
  9 12  1  0  0  0  0
 11  6  1  0  0  0  0
 13  9  1  0  0  0  0
 14  9  1  0  0  0  0
M  RAD  2   1   2   5   2
M  END
$$$$
