butane_opt
 OpenBabel08242015393D

 14 11  0  0  0  0  0  0  0  0999 V2000
   -3.9358    0.3152    0.0709 C   0  0  0  0  0  0  0  0  0  0  0  0
   -2.6653   -0.6673   -0.0136 C   0  0  0  0  0  0  0  0  0  0  0  0
   -4.7968   -0.2555   -0.2175 H   0  0  0  0  0  0  0  0  0  0  0  0
   -3.9423    0.4932   -0.4656 H   0  0  0  0  0  0  0  0  0  0  0  0
   -4.1562    1.3681    1.2235 H   0  0  0  0  0  0  0  0  0  0  0  0
   -1.3859    0.1438   -0.0883 C   0  0  0  0  0  0  0  0  0  0  0  0
   -2.8453   -1.3356   -0.9260 H   0  0  0  0  0  0  0  0  0  0  0  0
   -2.5912   -1.3025    0.8400 H   0  0  0  0  0  0  0  0  0  0  0  0
   -0.2094   -0.6485    0.1128 C   0  0  0  0  0  0  0  0  0  0  0  0
   -1.4087    0.6314    0.6805 H   0  0  0  0  0  0  0  0  0  0  0  0
   -1.2675    0.8001   -1.0424 H   0  0  0  0  0  0  0  0  0  0  0  0
   -0.1639   -1.4311    1.0899 H   0  0  0  0  0  0  0  0  0  0  0  0
    0.6733   -0.0451   -0.0977 H   0  0  0  0  0  0  0  0  0  0  0  0
   -0.1858   -1.0962   -0.5676 H   0  0  0  0  0  0  0  0  0  0  0  0
  2  1  1  0  0  0  0
  2  8  1  0  0  0  0
  3  1  1  0  0  0  0
  6  2  1  0  0  0  0
  6  9  1  0  0  0  0
  6 10  1  0  0  0  0
  7  2  1  0  0  0  0
  9 12  1  0  0  0  0
 11  6  1  0  0  0  0
 13  9  1  0  0  0  0
 14  9  1  0  0  0  0
M  RAD  3   1   3   4   2   5   2
M  END
$$$$
