14
butane_opt
C  -3.967929   0.243001   0.010796
C  -2.739119  -0.592546   0.045847
H  -4.882985  -0.363103  -0.388896
H  -3.839739   0.327422  -0.549716
H  -3.966275   1.295107   1.228941
C  -1.440991   0.222544  -0.044044
H  -2.700779  -1.158476  -0.669834
H  -2.787517  -1.230882   1.032376
C  -0.071784  -0.736215   0.067916
H  -1.295961   0.837483   0.814703
H  -1.461400   0.944587  -1.038352
H  -0.117856  -1.375354   0.999808
H   0.771472  -0.163599  -0.155470
H  -0.094038  -1.252799  -0.749721
