butane_opt
 OpenBabel08242015393D

 14 13  0  0  0  0  0  0  0  0999 V2000
   -3.9682    0.3312    0.0500 C   0  0  0  0  0  0  0  0  0  0  0  0
   -2.7012   -0.6859   -0.0092 C   0  0  0  0  0  0  0  0  0  0  0  0
   -4.9789   -0.2929   -0.1420 H   0  0  0  0  0  0  0  0  0  0  0  0
   -4.0377    0.6147   -0.6804 H   0  0  0  0  0  0  0  0  0  0  0  0
   -4.0539    1.1720    0.9892 H   0  0  0  0  0  0  0  0  0  0  0  0
   -1.3607    0.1433   -0.0223 C   0  0  0  0  0  0  0  0  0  0  0  0
   -2.7938   -1.1318   -0.7548 H   0  0  0  0  0  0  0  0  0  0  0  0
   -2.6310   -1.3255    0.9200 H   0  0  0  0  0  0  0  0  0  0  0  0
   -0.1607   -0.6651    0.0740 C   0  0  0  0  0  0  0  0  0  0  0  0
   -1.3745    0.7913    0.8424 H   0  0  0  0  0  0  0  0  0  0  0  0
   -1.2702    0.8330   -0.9576 H   0  0  0  0  0  0  0  0  0  0  0  0
   -0.2279   -1.3503    1.0148 H   0  0  0  0  0  0  0  0  0  0  0  0
    0.7800   -0.0380   -0.1609 H   0  0  0  0  0  0  0  0  0  0  0  0
   -0.1539   -1.2464   -0.7333 H   0  0  0  0  0  0  0  0  0  0  0  0
  1  5  1  0  0  0  0
  2  1  1  0  0  0  0
  2  8  1  0  0  0  0
  3  1  1  0  0  0  0
  4  1  1  0  0  0  0
  6  2  1  0  0  0  0
  6  9  1  0  0  0  0
  6 10  1  0  0  0  0
  7  2  1  0  0  0  0
  9 12  1  0  0  0  0
 11  6  1  0  0  0  0
 13  9  1  0  0  0  0
 14  9  1  0  0  0  0
M  END
$$$$
