butane_opt
 OpenBabel08242015393D

 14 13  0  0  0  0  0  0  0  0999 V2000
   -3.9134    0.2605    0.0251 C   0  0  0  0  0  0  0  0  0  0  0  0
   -2.6643   -0.5995    0.0534 C   0  0  0  0  0  0  0  0  0  0  0  0
   -4.8647   -0.3998    0.2148 H   0  0  0  0  0  0  0  0  0  0  0  0
   -3.7705    1.0101   -1.0049 H   0  0  0  0  0  0  0  0  0  0  0  0
   -3.9980    0.7309    0.6595 H   0  0  0  0  0  0  0  0  0  0  0  0
   -1.4121    0.2191    0.0040 C   0  0  0  0  0  0  0  0  0  0  0  0
   -2.8364   -1.3151   -0.7723 H   0  0  0  0  0  0  0  0  0  0  0  0
   -2.6720   -1.2755    0.9644 H   0  0  0  0  0  0  0  0  0  0  0  0
   -0.2227   -0.7132    0.0353 C   0  0  0  0  0  0  0  0  0  0  0  0
   -1.3371    0.7598    0.7893 H   0  0  0  0  0  0  0  0  0  0  0  0
   -1.4604    0.8434   -0.8609 H   0  0  0  0  0  0  0  0  0  0  0  0
   -0.1949   -0.9932    0.6429 H   0  0  0  0  0  0  0  0  0  0  0  0
    0.7168   -0.1589    0.3382 H   0  0  0  0  0  0  0  0  0  0  0  0
   -0.0559   -1.6653   -0.9770 H   0  0  0  0  0  0  0  0  0  0  0  0
  1  2  1  0  0  0  0
  1  3  1  0  0  0  0
  1  5  1  0  0  0  0
  2  8  1  0  0  0  0
  4  1  1  0  0  0  0
  6  9  1  0  0  0  0
  6  2  1  0  0  0  0
  6 10  1  0  0  0  0
  7  2  1  0  0  0  0
  9 13  1  0  0  0  0
  9 12  1  0  0  0  0
 11  6  1  0  0  0  0
 14  9  1  0  0  0  0
M  END
$$$$
