14
butane_opt
C  -3.867348   0.234920  -0.044713
C  -2.698382  -0.571279   0.100082
H  -4.876899  -0.381895   0.342831
H  -4.006280   1.194840  -1.160906
H  -3.899540   0.413127   0.496060
C  -1.432999   0.206841   0.089485
H  -2.791059  -1.189571  -0.781780
H  -2.772869  -1.085733   0.984383
C  -0.186438  -0.730561  -0.026506
H  -1.334236   1.023294   1.033696
H  -1.482194   0.714938  -0.740403
H  -0.163244  -1.039400   0.751019
H   0.686802  -0.185412   0.035109
H  -0.131668  -1.648541  -1.018906
