butane_opt
 OpenBabel08242015393D

 14 13  0  0  0  0  0  0  0  0999 V2000
   -3.9324    0.2584   -0.0184 C   0  0  0  0  0  0  0  0  0  0  0  0
   -2.6959   -0.6055    0.0715 C   0  0  0  0  0  0  0  0  0  0  0  0
   -4.8246   -0.3205    0.0065 H   0  0  0  0  0  0  0  0  0  0  0  0
   -3.9260    0.9003   -0.9466 H   0  0  0  0  0  0  0  0  0  0  0  0
   -3.9944    0.8846    0.8213 H   0  0  0  0  0  0  0  0  0  0  0  0
   -1.4208    0.1889    0.0568 C   0  0  0  0  0  0  0  0  0  0  0  0
   -2.6935   -1.3075   -0.7864 H   0  0  0  0  0  0  0  0  0  0  0  0
   -2.7438   -1.2765    0.9948 H   0  0  0  0  0  0  0  0  0  0  0  0
   -0.1579   -0.6918    0.0013 C   0  0  0  0  0  0  0  0  0  0  0  0
   -1.3954    0.8859    0.9362 H   0  0  0  0  0  0  0  0  0  0  0  0
   -1.3858    0.7653   -0.8271 H   0  0  0  0  0  0  0  0  0  0  0  0
   -0.0670   -1.2943    0.8963 H   0  0  0  0  0  0  0  0  0  0  0  0
    0.7251   -0.1355   -0.1384 H   0  0  0  0  0  0  0  0  0  0  0  0
   -0.2305   -1.3652   -0.8599 H   0  0  0  0  0  0  0  0  0  0  0  0
  1  3  1  0  0  0  0
  1  2  1  0  0  0  0
  1  5  1  0  0  0  0
  2  8  1  0  0  0  0
  4  1  1  0  0  0  0
  6  2  1  0  0  0  0
  6 10  1  0  0  0  0
  7  2  1  0  0  0  0
  9  6  1  0  0  0  0
  9 12  1  0  0  0  0
 11  6  1  0  0  0  0
 13  9  1  0  0  0  0
 14  9  1  0  0  0  0
M  END
$$$$
