14
butane_opt
C  -3.994081   0.273473   0.121138
C  -2.679978  -0.619870  -0.060886
H  -4.780907  -0.223222   0.158835
H  -4.300575   0.913303  -0.784596
H  -3.860030   1.065592   1.150497
C  -1.388555   0.129425  -0.136210
H  -2.743185  -1.335354  -0.919478
H  -2.530345  -1.371399   0.787664
C  -0.156964  -0.657727   0.144097
H  -1.582429   0.832446   0.708244
H  -1.116446   0.753847  -1.067939
H  -0.361287  -1.254676   1.019550
H   0.894966   0.060856   0.343117
H  -0.023712  -1.378046  -0.797604
