butane_opt
 OpenBabel08242015393D

 14 13  0  0  0  0  0  0  0  0999 V2000
   -3.9222    0.2568    0.0044 C   0  0  0  0  0  0  0  0  0  0  0  0
   -2.7049   -0.6028    0.0589 C   0  0  0  0  0  0  0  0  0  0  0  0
   -4.8489   -0.3513    0.0625 H   0  0  0  0  0  0  0  0  0  0  0  0
   -3.9309    0.8869   -0.9122 H   0  0  0  0  0  0  0  0  0  0  0  0
   -3.9716    0.8934    0.8221 H   0  0  0  0  0  0  0  0  0  0  0  0
   -1.4115    0.1988    0.0224 C   0  0  0  0  0  0  0  0  0  0  0  0
   -2.7330   -1.2672   -0.7881 H   0  0  0  0  0  0  0  0  0  0  0  0
   -2.7909   -1.2686    0.9517 H   0  0  0  0  0  0  0  0  0  0  0  0
   -0.1646   -0.7031    0.0233 C   0  0  0  0  0  0  0  0  0  0  0  0
   -1.4293    0.8498    0.8528 H   0  0  0  0  0  0  0  0  0  0  0  0
   -1.3997    0.8185   -0.8610 H   0  0  0  0  0  0  0  0  0  0  0  0
   -0.0992   -1.2217    0.8537 H   0  0  0  0  0  0  0  0  0  0  0  0
    0.7404   -0.1568    0.0429 H   0  0  0  0  0  0  0  0  0  0  0  0
   -0.1218   -1.4506   -0.9017 H   0  0  0  0  0  0  0  0  0  0  0  0
  1  2  1  0  0  0  0
  1  3  1  0  0  0  0
  1  5  1  0  0  0  0
  2  8  1  0  0  0  0
  4  1  1  0  0  0  0
  6  9  1  0  0  0  0
  6  2  1  0  0  0  0
  6 10  1  0  0  0  0
  7  2  1  0  0  0  0
  9 13  1  0  0  0  0
  9 12  1  0  0  0  0
 11  6  1  0  0  0  0
 14  9  1  0  0  0  0
M  END
$$$$
