14
butane_opt
C  -3.958072   0.279093   0.052876
C  -2.704057  -0.630736   0.003905
H  -4.875249  -0.299732   0.086386
H  -4.018964   0.900240  -0.838103
H  -3.969907   0.926682   0.934811
C  -1.395448   0.167040  -0.025948
H  -2.691575  -1.358174  -0.905578
H  -2.651964  -1.192909   0.845638
C  -0.160826  -0.680529   0.067638
H  -1.382562   0.829828   0.827572
H  -1.333896   0.805137  -0.933377
H  -0.154289  -1.319364   0.972529
H   0.765500  -0.090771   0.004216
H  -0.093841  -1.284864  -0.733470
