14
butane_opt
C  -3.931019   0.254003   0.046149
C  -2.699985  -0.603330  -0.000857
H  -4.872435  -0.360345   0.032430
H  -3.940679   0.778729  -0.801063
H  -3.906464   0.976941   0.951164
C  -1.412487   0.206149  -0.012753
H  -2.749043  -1.254259  -0.851858
H  -2.669722  -1.234006   0.862371
C  -0.164393  -0.712673   0.061688
H  -1.400121   0.851133   0.834202
H  -1.344062   0.851287  -0.938433
H  -0.148942  -1.389731   1.010686
H   0.692157  -0.144699  -0.041086
H  -0.175516  -1.287599  -0.735998
