butane_opt
 OpenBabel08242015393D

 14 12  0  0  0  0  0  0  0  0999 V2000
   -3.9586    0.3069   -0.0669 C   0  0  0  0  0  0  0  0  0  0  0  0
   -2.6836   -0.6602    0.1325 C   0  0  0  0  0  0  0  0  0  0  0  0
   -4.7523   -0.2158    0.0518 H   0  0  0  0  0  0  0  0  0  0  0  0
   -3.7957    0.9245   -0.9844 H   0  0  0  0  0  0  0  0  0  0  0  0
   -4.0589    0.9261    0.6868 H   0  0  0  0  0  0  0  0  0  0  0  0
   -1.3647    0.1276    0.0877 C   0  0  0  0  0  0  0  0  0  0  0  0
   -2.6505   -1.1090   -0.5730 H   0  0  0  0  0  0  0  0  0  0  0  0
   -2.6776   -1.4690    1.1439 H   0  0  0  0  0  0  0  0  0  0  0  0
   -0.2192   -0.6471   -0.0437 C   0  0  0  0  0  0  0  0  0  0  0  0
   -1.2900    0.8015    0.8785 H   0  0  0  0  0  0  0  0  0  0  0  0
   -1.3995    0.8385   -0.8386 H   0  0  0  0  0  0  0  0  0  0  0  0
   -0.2000   -0.9364    0.6359 H   0  0  0  0  0  0  0  0  0  0  0  0
    0.6418   -0.0323    0.2835 H   0  0  0  0  0  0  0  0  0  0  0  0
   -0.1636   -1.7329   -1.1881 H   0  0  0  0  0  0  0  0  0  0  0  0
  1  3  1  0  0  0  0
  1  2  1  0  0  0  0
  1  5  1  0  0  0  0
  2  8  1  0  0  0  0
  4  1  1  0  0  0  0
  6  2  1  0  0  0  0
  6 10  1  0  0  0  0
  7  2  1  0  0  0  0
  9  6  1  0  0  0  0
  9 13  1  0  0  0  0
  9 12  1  0  0  0  0
 11  6  1  0  0  0  0
M  RAD  2   9   2  14   2
M  END
$$$$
