14
butane_opt
C  -3.983195   0.270942  -0.074099
C  -2.668929  -0.645045   0.181097
H  -4.795294  -0.293784  -0.465710
H  -3.684582   0.830909  -1.012954
H  -4.405849   1.083382   0.855261
C  -1.400427   0.154972   0.115067
H  -2.611992  -1.099565  -0.529373
H  -2.872018  -1.267092   1.121216
C  -0.129359  -0.669202  -0.068515
H  -1.341707   0.781165   0.954104
H  -1.460381   0.824508  -0.778102
H   0.025461  -1.227205   0.652881
H   0.769943  -0.020409  -0.101401
H  -0.458611  -1.429959  -1.076203
