butane_opt
 OpenBabel08242015393D

 14 13  0  0  0  0  0  0  0  0999 V2000
   -3.9497    0.2344    0.1085 C   0  0  0  0  0  0  0  0  0  0  0  0
   -2.7190   -0.5634   -0.0669 C   0  0  0  0  0  0  0  0  0  0  0  0
   -4.9805   -0.5070    0.4398 H   0  0  0  0  0  0  0  0  0  0  0  0
   -4.2178    1.0720   -0.8223 H   0  0  0  0  0  0  0  0  0  0  0  0
   -3.6785    0.7320    0.8816 H   0  0  0  0  0  0  0  0  0  0  0  0
   -1.3852    0.2355   -0.0782 C   0  0  0  0  0  0  0  0  0  0  0  0
   -2.8883   -1.5803   -1.1559 H   0  0  0  0  0  0  0  0  0  0  0  0
   -2.7051   -1.0136    0.6696 H   0  0  0  0  0  0  0  0  0  0  0  0
   -0.1312   -0.7288    0.1162 C   0  0  0  0  0  0  0  0  0  0  0  0
   -1.5525    0.9179    0.7460 H   0  0  0  0  0  0  0  0  0  0  0  0
   -1.3223    0.8996   -0.9297 H   0  0  0  0  0  0  0  0  0  0  0  0
   -0.2547   -1.5886    1.1649 H   0  0  0  0  0  0  0  0  0  0  0  0
    0.7834   -0.2004    0.1157 H   0  0  0  0  0  0  0  0  0  0  0  0
    0.0425   -1.3423   -0.6447 H   0  0  0  0  0  0  0  0  0  0  0  0
  1  3  1  0  0  0  0
  1  5  1  0  0  0  0
  2  1  1  0  0  0  0
  2  8  1  0  0  0  0
  4  1  1  0  0  0  0
  6  2  1  0  0  0  0
  6  9  1  0  0  0  0
  6 10  1  0  0  0  0
  7  2  1  0  0  0  0
  9 12  1  0  0  0  0
 11  6  1  0  0  0  0
 13  9  1  0  0  0  0
 14  9  1  0  0  0  0
M  END
$$$$
