butane_opt
 OpenBabel08242015393D

 14 13  0  0  0  0  0  0  0  0999 V2000
   -3.9832    0.2709   -0.0741 C   0  0  0  0  0  0  0  0  0  0  0  0
   -2.6689   -0.6450    0.1811 C   0  0  0  0  0  0  0  0  0  0  0  0
   -4.7953   -0.2938   -0.4657 H   0  0  0  0  0  0  0  0  0  0  0  0
   -3.6846    0.8309   -1.0130 H   0  0  0  0  0  0  0  0  0  0  0  0
   -4.4058    1.0834    0.8553 H   0  0  0  0  0  0  0  0  0  0  0  0
   -1.4004    0.1550    0.1151 C   0  0  0  0  0  0  0  0  0  0  0  0
   -2.6120   -1.0996   -0.5294 H   0  0  0  0  0  0  0  0  0  0  0  0
   -2.8720   -1.2671    1.1212 H   0  0  0  0  0  0  0  0  0  0  0  0
   -0.1294   -0.6692   -0.0685 C   0  0  0  0  0  0  0  0  0  0  0  0
   -1.3417    0.7812    0.9541 H   0  0  0  0  0  0  0  0  0  0  0  0
   -1.4604    0.8245   -0.7781 H   0  0  0  0  0  0  0  0  0  0  0  0
    0.0255   -1.2272    0.6529 H   0  0  0  0  0  0  0  0  0  0  0  0
    0.7699   -0.0204   -0.1014 H   0  0  0  0  0  0  0  0  0  0  0  0
   -0.4586   -1.4300   -1.0762 H   0  0  0  0  0  0  0  0  0  0  0  0
  1  2  1  0  0  0  0
  1  5  1  0  0  0  0
  2  8  1  0  0  0  0
  3  1  1  0  0  0  0
  4  1  1  0  0  0  0
  6  2  1  0  0  0  0
  6 10  1  0  0  0  0
  7  2  1  0  0  0  0
  9  6  1  0  0  0  0
  9 12  1  0  0  0  0
 11  6  1  0  0  0  0
 13  9  1  0  0  0  0
 14  9  1  0  0  0  0
M  END
$$$$
