14
butane_opt
C  -3.957118   0.242458   0.005333
C  -2.711465  -0.594308   0.100577
H  -4.971474  -0.325871   0.033461
H  -3.968495   1.021350  -1.047040
H  -3.917815   0.730226   0.720579
C  -1.428710   0.222635   0.016082
H  -2.728756  -1.308598  -0.687319
H  -2.695521  -1.232152   0.983990
C  -0.131742  -0.713021   0.003211
H  -1.279461   0.717359   0.749055
H  -1.508866   0.867149  -0.888176
H  -0.214498  -0.992481   0.638023
H   0.817365  -0.079049   0.495532
H   0.182941  -1.762847  -1.114648
