butane_opt
 OpenBabel08242015393D

 14 12  0  0  0  0  0  0  0  0999 V2000
   -3.9121    0.2523    0.1137 C   0  0  0  0  0  0  0  0  0  0  0  0
   -2.6801   -0.5986   -0.0662 C   0  0  0  0  0  0  0  0  0  0  0  0
   -4.8967   -0.3606    0.4533 H   0  0  0  0  0  0  0  0  0  0  0  0
   -4.2222    1.2482   -1.0048 H   0  0  0  0  0  0  0  0  0  0  0  0
   -3.8698    0.6206    0.7348 H   0  0  0  0  0  0  0  0  0  0  0  0
   -1.4193    0.1491   -0.0432 C   0  0  0  0  0  0  0  0  0  0  0  0
   -2.7705   -1.4522   -1.0703 H   0  0  0  0  0  0  0  0  0  0  0  0
   -2.4858   -1.0171    0.6558 H   0  0  0  0  0  0  0  0  0  0  0  0
   -0.1832   -0.6868    0.0941 C   0  0  0  0  0  0  0  0  0  0  0  0
   -1.5921    0.8650    0.9398 H   0  0  0  0  0  0  0  0  0  0  0  0
   -1.2713    0.8700   -1.0024 H   0  0  0  0  0  0  0  0  0  0  0  0
   -0.2570   -1.3175    1.0967 H   0  0  0  0  0  0  0  0  0  0  0  0
    0.8097   -0.0136    0.1413 H   0  0  0  0  0  0  0  0  0  0  0  0
   -0.1217   -1.3115   -0.7383 H   0  0  0  0  0  0  0  0  0  0  0  0
  1  3  1  0  0  0  0
  1  5  1  0  0  0  0
  2  6  1  0  0  0  0
  2  1  1  0  0  0  0
  2  8  1  0  0  0  0
  6  9  1  0  0  0  0
  6 10  1  0  0  0  0
  7  2  1  0  0  0  0
  9 13  1  0  0  0  0
  9 12  1  0  0  0  0
 11  6  1  0  0  0  0
 14  9  1  0  0  0  0
M  RAD  2   1   2   4   2
M  END
$$$$
