14
butane_opt
C  -3.899428   0.301730  -0.057038
C  -2.682662  -0.658316   0.132343
H  -4.759701  -0.260740   0.178739
H  -3.880683   1.098891  -1.029558
H  -3.986714   0.764896   0.623571
C  -1.423620   0.159600   0.094887
H  -2.562751  -1.254148  -0.679934
H  -2.964371  -1.394894   1.154005
C  -0.192710  -0.656750  -0.041762
H  -1.331276   0.801793   0.885846
H  -1.409733   0.860227  -0.954165
H  -0.356753  -0.965119   0.585937
H   0.794205  -0.033226   0.373500
H  -0.211409  -1.837050  -1.269086
