14
butane_opt
C  -3.981953   0.290129   0.024079
C  -2.716167  -0.667029   0.008092
H  -4.790825  -0.204092   0.260005
H  -4.207626   1.046113  -0.898525
H  -3.952393   1.048790   0.968363
C  -1.349620   0.135037  -0.000257
H  -2.731389  -1.369308  -0.877170
H  -2.803793  -1.117674   0.816456
C  -0.133636  -0.650088   0.057442
H  -1.460944   0.708886   0.820110
H  -1.327967   0.811133  -0.884064
H  -0.257334  -1.291049   0.965942
H   0.821082  -0.125700  -0.012797
H  -0.142728  -1.254890  -0.793766
