14
butane_opt
C  -3.955551   0.246373  -0.022749
C  -2.741759  -0.570504   0.051194
H  -4.901551  -0.418309  -0.019853
H  -4.053580   0.671832  -0.832228
H  -3.954900   0.992739   0.866333
C  -1.402365   0.243614   0.069001
H  -2.714548  -1.311619  -0.905290
H  -2.879845  -1.303996   0.981554
C  -0.095719  -0.752333  -0.004354
H  -1.372829   0.978081   1.001143
H  -1.375156   0.736810  -0.795840
H   0.138227  -1.662410   1.037099
H   0.805147  -0.091315  -0.336397
H  -0.344483  -1.056732  -0.612889
