14
butane_opt
C  -3.911294   0.239434  -0.049849
C  -2.759118  -0.565691   0.084766
H  -4.902947  -0.521100  -0.156627
H  -3.852109   1.068041  -1.052330
H  -3.961171   0.783175   0.729057
C  -1.416042   0.235398   0.157756
H  -2.763318  -1.314937  -0.743904
H  -2.824445  -1.255982   0.991776
C  -0.109651  -0.742520  -0.037946
H  -1.379940   0.899685   0.942122
H  -1.539375   0.821042  -0.717291
H   0.193899  -1.477387   0.911088
H   0.820539  -0.138147  -0.446336
H  -0.443383  -1.326600  -0.886114
