14
butane_opt
C  -3.949733   0.234370   0.108513
C  -2.718979  -0.563391  -0.066943
H  -4.980512  -0.507033   0.439828
H  -4.217761   1.071993  -0.822320
H  -3.678515   0.731955   0.881594
C  -1.385177   0.235536  -0.078154
H  -2.888318  -1.580268  -1.155921
H  -2.705073  -1.013633   0.669629
C  -0.131203  -0.728818   0.116199
H  -1.552503   0.917871   0.745954
H  -1.322331   0.899583  -0.929744
H  -0.254675  -1.588559   1.164944
H   0.783446  -0.200387   0.115717
H   0.042497  -1.342300  -0.644681
