14
butane_opt
C  -3.979831   0.247892  -0.042443
C  -2.695500  -0.589417   0.127282
H  -4.909036  -0.443014  -0.429271
H  -3.678862   0.658414  -0.912471
H  -4.038069   1.169664   0.999585
C  -1.387632   0.220344   0.054750
H  -2.778431  -1.187466  -0.658280
H  -2.874766  -1.330372   1.167363
C  -0.145165  -0.726515  -0.029601
H  -1.233166   0.881803   0.981936
H  -1.560646   0.864049  -0.854529
H  -0.064134  -1.320191   0.912322
H   0.757553  -0.173616  -0.166408
H  -0.143749  -1.421517  -0.903748
