14
butane_opt
C  -3.963023   0.269967   0.145111
C  -2.715395  -0.631304  -0.126681
H  -4.872668  -0.258870   0.377274
H  -4.345371   1.003939  -0.872820
H  -3.857283   0.862911   0.971762
C  -1.389434   0.195865  -0.083817
H  -2.836255  -1.342899  -1.104920
H  -2.649373  -1.175722   0.658018
C  -0.134758  -0.701792   0.135582
H  -1.244850   0.845791   0.761991
H  -1.367445   0.755462  -0.914464
H  -0.318999  -1.556785   1.206671
H   0.908531  -0.015773   0.059051
H   0.004840  -1.160342  -0.526035
