butane_opt
 OpenBabel08242015393D

 14 13  0  0  0  0  0  0  0  0999 V2000
   -3.9669    0.2827    0.1057 C   0  0  0  0  0  0  0  0  0  0  0  0
   -2.7019   -0.6750   -0.0528 C   0  0  0  0  0  0  0  0  0  0  0  0
   -4.7781   -0.1888    0.2634 H   0  0  0  0  0  0  0  0  0  0  0  0
   -4.2317    0.9251   -0.8098 H   0  0  0  0  0  0  0  0  0  0  0  0
   -3.9797    1.1290    1.0848 H   0  0  0  0  0  0  0  0  0  0  0  0
   -1.4131    0.1605   -0.1033 C   0  0  0  0  0  0  0  0  0  0  0  0
   -2.6479   -1.3286   -0.8588 H   0  0  0  0  0  0  0  0  0  0  0  0
   -2.8061   -1.3684    0.9029 H   0  0  0  0  0  0  0  0  0  0  0  0
   -0.1440   -0.6636    0.1132 C   0  0  0  0  0  0  0  0  0  0  0  0
   -1.3992    0.7491    0.6455 H   0  0  0  0  0  0  0  0  0  0  0  0
   -1.2296    0.9616   -1.0972 H   0  0  0  0  0  0  0  0  0  0  0  0
   -0.3221   -1.0746    0.8033 H   0  0  0  0  0  0  0  0  0  0  0  0
    0.8745   -0.0075    0.5052 H   0  0  0  0  0  0  0  0  0  0  0  0
    0.1895   -1.4981   -0.7474 H   0  0  0  0  0  0  0  0  0  0  0  0
  1  3  1  0  0  0  0
  1  5  1  0  0  0  0
  2  1  1  0  0  0  0
  2  8  1  0  0  0  0
  4  1  1  0  0  0  0
  6  2  1  0  0  0  0
  6  9  1  0  0  0  0
  6 10  1  0  0  0  0
  7  2  1  0  0  0  0
  9 13  1  0  0  0  0
  9 12  1  0  0  0  0
 11  6  1  0  0  0  0
 14  9  1  0  0  0  0
M  END
$$$$
