14
butane_opt
C  -3.906106   0.245651   0.086384
C  -2.741710  -0.552422  -0.004136
H  -4.928135  -0.456791  -0.321511
H  -3.656844   0.328919  -0.485479
H  -3.817214   1.215808   1.170204
C  -1.429557   0.211157  -0.097198
H  -2.758067  -1.256967  -0.864432
H  -2.526425  -1.125958   0.881733
C  -0.158855  -0.730992   0.120998
H  -1.544513   0.669212   0.611318
H  -1.269250   1.006571  -1.154025
H  -0.076905  -1.487474   1.022683
H   0.644649  -0.168430   0.086268
H  -0.247235  -1.312832  -0.729085
