14
butane_opt
C  -3.976964   0.302202   0.063633
C  -2.687285  -0.670051   0.024578
H  -4.764501  -0.218321  -0.136118
H  -4.143177   0.812503  -0.768708
H  -3.995254   1.097494   1.015618
C  -1.371787   0.155665  -0.053095
H  -2.685790  -1.346541  -0.888074
H  -2.656665  -1.242167   0.899386
C  -0.197196  -0.670071   0.090153
H  -1.186825   0.653522   0.656028
H  -1.303278   0.883401  -1.092478
H  -0.178549  -1.047444   0.859109
H   0.763759  -0.089134   0.200078
H  -0.080277  -1.375542  -0.803657
