14
butane_opt
C  -3.948864   0.215732   0.106730
C  -2.730447  -0.592245  -0.061666
H  -4.954023  -0.400769  -0.183421
H  -3.966692   0.520129  -0.525545
H  -4.034449   1.217001   1.224283
C  -1.395174   0.265106  -0.110661
H  -2.797163  -1.136826  -0.826115
H  -2.559895  -1.278159   0.842124
C  -0.129558  -0.741236   0.142789
H  -1.467361   0.804961   0.657694
H  -1.319481   1.022646  -1.040448
H  -0.078424  -1.418284   1.014119
H   0.628986  -0.287757  -0.011120
H   0.025072  -1.330062  -0.614150
