14
butane_opt
C  -3.903974   0.267615   0.078919
C  -2.706944  -0.592687  -0.004304
H  -4.919043  -0.333837   0.131860
H  -3.966190   0.794530  -0.771339
H  -4.008720   1.086599   1.044502
C  -1.402172   0.160993  -0.109217
H  -2.782957  -1.366024  -0.944822
H  -2.561603  -1.272058   1.010425
C  -0.179860  -0.698258   0.099007
H  -1.573047   0.797379   0.715398
H  -1.260036   0.799148  -1.004975
H  -0.426117  -1.160255   0.972219
H   0.869216   0.032535   0.313991
H  -0.061718  -1.506174  -0.817721
