butane_opt
 OpenBabel08242015393D

 14 13  0  0  0  0  0  0  0  0999 V2000
   -4.0024    0.2793    0.0898 C   0  0  0  0  0  0  0  0  0  0  0  0
   -2.6644   -0.6738    0.0067 C   0  0  0  0  0  0  0  0  0  0  0  0
   -4.8253   -0.2119   -0.0715 H   0  0  0  0  0  0  0  0  0  0  0  0
   -3.9857    0.8937   -0.7534 H   0  0  0  0  0  0  0  0  0  0  0  0
   -4.1261    1.1303    1.1239 H   0  0  0  0  0  0  0  0  0  0  0  0
   -1.3888    0.1851   -0.1219 C   0  0  0  0  0  0  0  0  0  0  0  0
   -2.8010   -1.3969   -0.8990 H   0  0  0  0  0  0  0  0  0  0  0  0
   -2.7293   -1.3154    0.8790 H   0  0  0  0  0  0  0  0  0  0  0  0
   -0.1417   -0.6859    0.1032 C   0  0  0  0  0  0  0  0  0  0  0  0
   -1.4307    0.9227    0.7635 H   0  0  0  0  0  0  0  0  0  0  0  0
   -1.3014    0.7904   -0.9952 H   0  0  0  0  0  0  0  0  0  0  0  0
   -0.2471   -1.2067    1.0386 H   0  0  0  0  0  0  0  0  0  0  0  0
    0.8436    0.0109    0.2440 H   0  0  0  0  0  0  0  0  0  0  0  0
   -0.0649   -1.3346   -0.8139 H   0  0  0  0  0  0  0  0  0  0  0  0
  1  5  1  0  0  0  0
  2  1  1  0  0  0  0
  2  8  1  0  0  0  0
  3  1  1  0  0  0  0
  4  1  1  0  0  0  0
  6  2  1  0  0  0  0
  6  9  1  0  0  0  0
  6 10  1  0  0  0  0
  7  2  1  0  0  0  0
  9 13  1  0  0  0  0
  9 12  1  0  0  0  0
 11  6  1  0  0  0  0
 14  9  1  0  0  0  0
M  END
$$$$
