14
butane_opt
C  -3.901799   0.267470  -0.063809
C  -2.716593  -0.593706   0.159761
H  -4.856943  -0.360489  -0.048915
H  -3.928613   0.929417  -1.033117
H  -3.950498   0.744991   0.747562
C  -1.440751   0.156839   0.057363
H  -2.718298  -0.960094  -0.574523
H  -2.761634  -1.342863   1.136770
C  -0.143208  -0.701838  -0.063569
H  -1.276566   0.920655   0.990421
H  -1.491112   0.731571  -0.817836
H  -0.411813  -0.945346   0.556854
H   0.816943  -0.103550   0.478169
H  -0.005465  -1.651522  -1.120093
