butane_opt
 OpenBabel08242015393D

 14 12  0  0  0  0  0  0  0  0999 V2000
   -3.9578    0.2432    0.0972 C   0  0  0  0  0  0  0  0  0  0  0  0
   -2.7250   -0.6173    0.0137 C   0  0  0  0  0  0  0  0  0  0  0  0
   -4.9088   -0.3634   -0.3769 H   0  0  0  0  0  0  0  0  0  0  0  0
   -3.8629    0.3803   -0.5841 H   0  0  0  0  0  0  0  0  0  0  0  0
   -4.1365    1.2776    1.2031 H   0  0  0  0  0  0  0  0  0  0  0  0
   -1.4034    0.2640   -0.0964 C   0  0  0  0  0  0  0  0  0  0  0  0
   -2.8143   -1.3832   -1.0023 H   0  0  0  0  0  0  0  0  0  0  0  0
   -2.5282   -1.0665    0.7410 H   0  0  0  0  0  0  0  0  0  0  0  0
   -0.1307   -0.7208    0.1075 C   0  0  0  0  0  0  0  0  0  0  0  0
   -1.3636    0.7573    0.5987 H   0  0  0  0  0  0  0  0  0  0  0  0
   -1.3020    0.9969   -1.0887 H   0  0  0  0  0  0  0  0  0  0  0  0
   -0.0154   -1.6614    1.1901 H   0  0  0  0  0  0  0  0  0  0  0  0
    0.7124   -0.2563   -0.0334 H   0  0  0  0  0  0  0  0  0  0  0  0
   -0.1647   -1.2127   -0.5924 H   0  0  0  0  0  0  0  0  0  0  0  0
  2  1  1  0  0  0  0
  2  8  1  0  0  0  0
  3  1  1  0  0  0  0
  4  1  1  0  0  0  0
  6  2  1  0  0  0  0
  6  9  1  0  0  0  0
  6 10  1  0  0  0  0
  7  2  1  0  0  0  0
  9 12  1  0  0  0  0
 11  6  1  0  0  0  0
 13  9  1  0  0  0  0
 14  9  1  0  0  0  0
M  RAD  2   1   2   5   2
M  END
$$$$
