14
butane_opt
C  -3.963578   0.240804   0.021581
C  -2.704364  -0.626370  -0.009050
H  -4.864829  -0.330877   0.435741
H  -4.210392   1.299866  -1.109590
H  -3.844538   0.555585   0.565874
C  -1.387312   0.233041   0.074252
H  -2.808146  -1.374498  -0.881176
H  -2.657119  -1.226100   0.907540
C  -0.116495  -0.709647   0.023143
H  -1.517231   0.906318   0.963824
H  -1.412562   0.918972  -0.847638
H  -0.066590  -1.177827   0.846896
H   0.665787  -0.244467   0.055905
H  -0.217103  -1.464324  -0.885149
