butane_opt
 OpenBabel08242015393D

 14 12  0  0  0  0  0  0  0  0999 V2000
   -3.9899    0.2942    0.0353 C   0  0  0  0  0  0  0  0  0  0  0  0
   -2.6537   -0.6570    0.0263 C   0  0  0  0  0  0  0  0  0  0  0  0
   -4.8580   -0.3384   -0.3559 H   0  0  0  0  0  0  0  0  0  0  0  0
   -3.9631    0.5129   -0.6119 H   0  0  0  0  0  0  0  0  0  0  0  0
   -4.0973    1.4449    1.2613 H   0  0  0  0  0  0  0  0  0  0  0  0
   -1.3974    0.1508   -0.0617 C   0  0  0  0  0  0  0  0  0  0  0  0
   -2.8266   -1.1763   -0.7594 H   0  0  0  0  0  0  0  0  0  0  0  0
   -2.6101   -1.3742    0.9351 H   0  0  0  0  0  0  0  0  0  0  0  0
   -0.1322   -0.6659    0.0835 C   0  0  0  0  0  0  0  0  0  0  0  0
   -1.4646    0.7567    0.7831 H   0  0  0  0  0  0  0  0  0  0  0  0
   -1.3373    0.7935   -0.9825 H   0  0  0  0  0  0  0  0  0  0  0  0
   -0.2697   -1.3405    1.0278 H   0  0  0  0  0  0  0  0  0  0  0  0
    0.7966    0.0077   -0.1837 H   0  0  0  0  0  0  0  0  0  0  0  0
   -0.3058   -1.2139   -0.6469 H   0  0  0  0  0  0  0  0  0  0  0  0
  2  1  1  0  0  0  0
  2  8  1  0  0  0  0
  3  1  1  0  0  0  0
  4  1  1  0  0  0  0
  6  2  1  0  0  0  0
  6  9  1  0  0  0  0
  6 10  1  0  0  0  0
  7  2  1  0  0  0  0
  9 12  1  0  0  0  0
 11  6  1  0  0  0  0
 13  9  1  0  0  0  0
 14  9  1  0  0  0  0
M  RAD  2   1   2   5   2
M  END
$$$$
