butane_opt
 OpenBabel08242015393D

 14 13  0  0  0  0  0  0  0  0999 V2000
   -3.9747    0.2766   -0.0576 C   0  0  0  0  0  0  0  0  0  0  0  0
   -2.6942   -0.6142    0.1421 C   0  0  0  0  0  0  0  0  0  0  0  0
   -4.7635   -0.2514   -0.0471 H   0  0  0  0  0  0  0  0  0  0  0  0
   -3.8855    0.9591   -1.0726 H   0  0  0  0  0  0  0  0  0  0  0  0
   -4.3348    0.7700    0.6119 H   0  0  0  0  0  0  0  0  0  0  0  0
   -1.4071    0.1588    0.1054 C   0  0  0  0  0  0  0  0  0  0  0  0
   -2.6413   -1.3760   -0.7503 H   0  0  0  0  0  0  0  0  0  0  0  0
   -2.7562   -1.2663    1.0283 H   0  0  0  0  0  0  0  0  0  0  0  0
   -0.1421   -0.6874   -0.0503 C   0  0  0  0  0  0  0  0  0  0  0  0
   -1.2664    0.9697    1.0739 H   0  0  0  0  0  0  0  0  0  0  0  0
   -1.3836    0.7216   -0.6980 H   0  0  0  0  0  0  0  0  0  0  0  0
    0.0288   -1.2633    0.8212 H   0  0  0  0  0  0  0  0  0  0  0  0
    0.8965    0.0152   -0.2231 H   0  0  0  0  0  0  0  0  0  0  0  0
   -0.3081   -1.3329   -0.9825 H   0  0  0  0  0  0  0  0  0  0  0  0
  1  3  1  0  0  0  0
  1  2  1  0  0  0  0
  1  5  1  0  0  0  0
  2  8  1  0  0  0  0
  4  1  1  0  0  0  0
  6  2  1  0  0  0  0
  6 10  1  0  0  0  0
  7  2  1  0  0  0  0
  9  6  1  0  0  0  0
  9 12  1  0  0  0  0
 11  6  1  0  0  0  0
 13  9  1  0  0  0  0
 14  9  1  0  0  0  0
M  END
$$$$
