14
butane_opt
C  -3.943295   0.251022  -0.064655
C  -2.715556  -0.595655   0.152063
H  -4.994414  -0.410894  -0.367775
H  -3.596037   0.854419  -1.028872
H  -3.982779   1.014658   0.774404
C  -1.415155   0.205402   0.136442
H  -2.632669  -1.123773  -0.632947
H  -2.788498  -1.292143   1.121970
C  -0.151416  -0.723102  -0.055563
H  -1.223335   0.782782   0.874891
H  -1.462872   0.836269  -0.822735
H  -0.008952  -1.164345   0.665506
H   0.696341  -0.145356  -0.225532
H  -0.307228  -1.498453  -0.945524
