14
butane_opt
C  -3.895172   0.242221  -0.102176
C  -2.686758  -0.593924   0.175101
H  -4.997350  -0.467932  -0.394036
H  -3.654890   0.603386  -0.799887
H  -4.010463   1.083005   0.895329
C  -1.439034   0.230538   0.104730
H  -2.538617  -1.067035  -0.544277
H  -2.849730  -1.441580   1.291834
C  -0.200064  -0.711435  -0.083227
H  -1.463520   0.914478   1.014078
H  -1.523585   0.926723  -0.778025
H  -0.048132  -1.328429   0.797742
H   0.720911  -0.141551  -0.094828
H  -0.014008  -1.597416  -1.086785
