14
butane_opt
C  -3.930161   0.265649   0.074679
C  -2.689959  -0.631836  -0.021797
H  -4.763415  -0.184745  -0.066062
H  -3.975075   0.699980  -0.640170
H  -3.885081   1.197923   1.164213
C  -1.401398   0.166604  -0.099538
H  -2.716889  -1.305953  -0.861490
H  -2.573701  -1.322815   0.931128
C  -0.203580  -0.684279   0.106136
H  -1.568404   0.857788   0.743908
H  -1.173860   0.914602  -0.973819
H  -0.226736  -1.399046   1.073838
H   0.828683   0.006023   0.141758
H  -0.277143  -1.327075  -0.775610
