butane_opt
 OpenBabel08242015393D

 14 12  0  0  0  0  0  0  0  0999 V2000
   -3.9401    0.3052    0.1011 C   0  0  0  0  0  0  0  0  0  0  0  0
   -2.6855   -0.6439   -0.0288 C   0  0  0  0  0  0  0  0  0  0  0  0
   -4.8556   -0.3414   -0.0925 H   0  0  0  0  0  0  0  0  0  0  0  0
   -3.8412    0.8370   -0.6815 H   0  0  0  0  0  0  0  0  0  0  0  0
   -4.0367    0.9905    1.0082 H   0  0  0  0  0  0  0  0  0  0  0  0
   -1.4139    0.1502   -0.0534 C   0  0  0  0  0  0  0  0  0  0  0  0
   -2.6090   -1.5102   -1.0604 H   0  0  0  0  0  0  0  0  0  0  0  0
   -2.4861   -1.0485    0.6434 H   0  0  0  0  0  0  0  0  0  0  0  0
   -0.1939   -0.6543    0.1016 C   0  0  0  0  0  0  0  0  0  0  0  0
   -1.4262    0.7144    0.7822 H   0  0  0  0  0  0  0  0  0  0  0  0
   -1.2706    0.7226   -0.9681 H   0  0  0  0  0  0  0  0  0  0  0  0
   -0.1467   -1.6552    1.2856 H   0  0  0  0  0  0  0  0  0  0  0  0
    0.8530   -0.0124   -0.2562 H   0  0  0  0  0  0  0  0  0  0  0  0
   -0.4217   -1.0296   -0.6194 H   0  0  0  0  0  0  0  0  0  0  0  0
  1  5  1  0  0  0  0
  2  1  1  0  0  0  0
  2  8  1  0  0  0  0
  3  1  1  0  0  0  0
  4  1  1  0  0  0  0
  6  2  1  0  0  0  0
  6  9  1  0  0  0  0
  6 10  1  0  0  0  0
  7  2  1  0  0  0  0
 11  6  1  0  0  0  0
 13  9  1  0  0  0  0
 14  9  1  0  0  0  0
M  RAD  2   9   2  12   2
M  END
$$$$
