14
butane_opt
C  -3.963969   0.308876   0.125889
C  -2.687211  -0.702800  -0.015394
H  -4.696909  -0.204882  -0.518912
H  -3.885926   0.602304  -0.515710
H  -4.262561   1.285363   1.229707
C  -1.426463   0.172733  -0.110434
H  -2.806261  -1.422104  -0.945448
H  -2.551227  -1.213732   0.827790
C  -0.137918  -0.643852   0.125785
H  -1.322043   0.657901   0.577041
H  -1.322400   0.912759  -1.148044
H  -0.263017  -1.435203   1.167978
H   0.805790  -0.017456  -0.028118
H  -0.153075  -1.244537  -0.679968
