butane_opt
 OpenBabel08242015393D

 14 13  0  0  0  0  0  0  0  0999 V2000
   -3.9578    0.2608   -0.0580 C   0  0  0  0  0  0  0  0  0  0  0  0
   -2.6838   -0.6295    0.1255 C   0  0  0  0  0  0  0  0  0  0  0  0
   -4.7744   -0.1151   -0.3009 H   0  0  0  0  0  0  0  0  0  0  0  0
   -3.9892    0.8361   -0.9358 H   0  0  0  0  0  0  0  0  0  0  0  0
   -4.0960    1.1694    0.9747 H   0  0  0  0  0  0  0  0  0  0  0  0
   -1.3907    0.1645    0.0842 C   0  0  0  0  0  0  0  0  0  0  0  0
   -2.6408   -1.1879   -0.6307 H   0  0  0  0  0  0  0  0  0  0  0  0
   -2.9034   -1.5063    1.2102 H   0  0  0  0  0  0  0  0  0  0  0  0
   -0.1742   -0.6760   -0.0467 C   0  0  0  0  0  0  0  0  0  0  0  0
   -1.3178    0.8844    0.8783 H   0  0  0  0  0  0  0  0  0  0  0  0
   -1.2919    0.7220   -0.7931 H   0  0  0  0  0  0  0  0  0  0  0  0
   -0.1316   -1.2941    0.7878 H   0  0  0  0  0  0  0  0  0  0  0  0
    0.8195    0.0005   -0.0348 H   0  0  0  0  0  0  0  0  0  0  0  0
   -0.2253   -1.3950   -0.9720 H   0  0  0  0  0  0  0  0  0  0  0  0
  1  2  1  0  0  0  0
  1  5  1  0  0  0  0
  2  8  1  0  0  0  0
  3  1  1  0  0  0  0
  4  1  1  0  0  0  0
  6  2  1  0  0  0  0
  6 10  1  0  0  0  0
  7  2  1  0  0  0  0
  9 13  1  0  0  0  0
  9  6  1  0  0  0  0
  9 12  1  0  0  0  0
 11  6  1  0  0  0  0
 14  9  1  0  0  0  0
M  END
$$$$
