butane_opt
 OpenBabel08242015393D

 14 13  0  0  0  0  0  0  0  0999 V2000
   -3.9433    0.2837    0.0447 C   0  0  0  0  0  0  0  0  0  0  0  0
   -2.6987   -0.6329    0.0237 C   0  0  0  0  0  0  0  0  0  0  0  0
   -4.8933   -0.3444    0.0469 H   0  0  0  0  0  0  0  0  0  0  0  0
   -4.0261    0.8894   -0.8256 H   0  0  0  0  0  0  0  0  0  0  0  0
   -3.9209    0.9718    0.9133 H   0  0  0  0  0  0  0  0  0  0  0  0
   -1.3922    0.1683   -0.0327 C   0  0  0  0  0  0  0  0  0  0  0  0
   -2.7248   -1.3087   -0.8312 H   0  0  0  0  0  0  0  0  0  0  0  0
   -2.6828   -1.2262    0.8903 H   0  0  0  0  0  0  0  0  0  0  0  0
   -0.1677   -0.6851    0.0526 C   0  0  0  0  0  0  0  0  0  0  0  0
   -1.4137    0.8394    0.8034 H   0  0  0  0  0  0  0  0  0  0  0  0
   -1.3687    0.7853   -0.9344 H   0  0  0  0  0  0  0  0  0  0  0  0
   -0.2576   -1.2489    0.9596 H   0  0  0  0  0  0  0  0  0  0  0  0
    0.7609   -0.0668    0.1573 H   0  0  0  0  0  0  0  0  0  0  0  0
   -0.0770   -1.3745   -0.8060 H   0  0  0  0  0  0  0  0  0  0  0  0
  1  3  1  0  0  0  0
  1  5  1  0  0  0  0
  2  1  1  0  0  0  0
  2  8  1  0  0  0  0
  4  1  1  0  0  0  0
  6  2  1  0  0  0  0
  6  9  1  0  0  0  0
  6 10  1  0  0  0  0
  7  2  1  0  0  0  0
  9 13  1  0  0  0  0
  9 12  1  0  0  0  0
 11  6  1  0  0  0  0
 14  9  1  0  0  0  0
M  END
$$$$
