14
butane_opt
C  -3.926963   0.264007   0.001293
C  -2.711353  -0.602471   0.044181
H  -4.863327  -0.368108  -0.007265
H  -3.948886   0.890721  -0.930809
H  -3.954166   0.913720   0.859018
C  -1.410416   0.187883   0.042978
H  -2.678168  -1.287732  -0.778905
H  -2.737869  -1.265260   0.952269
C  -0.157519  -0.700425   0.017150
H  -1.415958   0.877518   0.910977
H  -1.404198   0.751638  -0.802158
H  -0.054584  -1.366387   0.949951
H   0.769171  -0.090560  -0.171527
H  -0.257502  -1.305494  -0.809785
