butane_opt
 OpenBabel08242015393D

 14 12  0  0  0  0  0  0  0  0999 V2000
   -3.9431    0.3034   -0.0509 C   0  0  0  0  0  0  0  0  0  0  0  0
   -2.6677   -0.6194    0.0696 C   0  0  0  0  0  0  0  0  0  0  0  0
   -4.8832   -0.3608    0.4710 H   0  0  0  0  0  0  0  0  0  0  0  0
   -4.0912    1.2268   -1.2647 H   0  0  0  0  0  0  0  0  0  0  0  0
   -3.9810    0.6356    0.5854 H   0  0  0  0  0  0  0  0  0  0  0  0
   -1.3947    0.1068    0.1061 C   0  0  0  0  0  0  0  0  0  0  0  0
   -2.6791   -1.2185   -0.7166 H   0  0  0  0  0  0  0  0  0  0  0  0
   -2.5576   -1.3360    0.9510 H   0  0  0  0  0  0  0  0  0  0  0  0
   -0.2212   -0.6664   -0.0414 C   0  0  0  0  0  0  0  0  0  0  0  0
   -1.1747    1.0124    1.1664 H   0  0  0  0  0  0  0  0  0  0  0  0
   -1.2942    0.6582   -0.6747 H   0  0  0  0  0  0  0  0  0  0  0  0
   -0.2249   -1.2095    0.8129 H   0  0  0  0  0  0  0  0  0  0  0  0
    0.8378    0.0693    0.0558 H   0  0  0  0  0  0  0  0  0  0  0  0
   -0.2557   -1.4279   -0.9888 H   0  0  0  0  0  0  0  0  0  0  0  0
  1  2  1  0  0  0  0
  1  3  1  0  0  0  0
  1  5  1  0  0  0  0
  2  6  1  0  0  0  0
  2  8  1  0  0  0  0
  6 10  1  0  0  0  0
  7  2  1  0  0  0  0
  9 13  1  0  0  0  0
  9  6  1  0  0  0  0
  9 12  1  0  0  0  0
 11  6  1  0  0  0  0
 14  9  1  0  0  0  0
M  RAD  2   1   2   4   2
M  END
$$$$
