14
butane_opt
C  -3.963245   0.291046  -0.092492
C  -2.713608  -0.685360   0.148879
H  -4.929638  -0.298933  -0.087833
H  -3.934099   1.036659  -1.110235
H  -4.254018   0.897638   0.621646
C  -1.393833   0.177855   0.186442
H  -2.494727  -1.334618  -0.688243
H  -2.674044  -1.195906   0.917145
C  -0.150984  -0.660538  -0.101278
H  -1.209385   0.979014   1.122995
H  -1.418151   0.756123  -0.577858
H   0.066865  -1.565742   0.901458
H   0.719692  -0.081837  -0.521543
H  -0.231065  -1.152365  -0.825898
