14
butane_opt
C  -3.965138   0.264904   0.003275
C  -2.745143  -0.616800   0.063504
H  -4.929710  -0.302705  -0.201723
H  -3.932308   0.708593  -0.760139
H  -3.896674   0.999598   0.914602
C  -1.391958   0.194604   0.001192
H  -2.815391  -1.061797  -0.701038
H  -2.872440  -1.342955   1.093492
C  -0.085676  -0.717347   0.010892
H  -1.314660   0.954423   0.899530
H  -1.531849   0.896912  -0.953901
H  -0.198735  -1.183703   0.931546
H   0.810823  -0.185994   0.161699
H  -0.088315  -1.495292  -0.892416
