butane_opt
 OpenBabel08242015393D

 14 12  0  0  0  0  0  0  0  0999 V2000
   -3.9529    0.2978   -0.0701 C   0  0  0  0  0  0  0  0  0  0  0  0
   -2.7065   -0.6549    0.0855 C   0  0  0  0  0  0  0  0  0  0  0  0
   -4.9131   -0.2571    0.3699 H   0  0  0  0  0  0  0  0  0  0  0  0
   -4.0561    1.3184   -1.2405 H   0  0  0  0  0  0  0  0  0  0  0  0
   -3.7189    0.5994    0.5731 H   0  0  0  0  0  0  0  0  0  0  0  0
   -1.3753    0.1449    0.1489 C   0  0  0  0  0  0  0  0  0  0  0  0
   -2.5230   -1.2306   -0.6560 H   0  0  0  0  0  0  0  0  0  0  0  0
   -2.8205   -1.2873    0.9920 H   0  0  0  0  0  0  0  0  0  0  0  0
   -0.1836   -0.6642   -0.0598 C   0  0  0  0  0  0  0  0  0  0  0  0
   -1.4044    0.9305    1.0669 H   0  0  0  0  0  0  0  0  0  0  0  0
   -1.3811    0.7060   -0.6086 H   0  0  0  0  0  0  0  0  0  0  0  0
   -0.1354   -1.2279    0.7386 H   0  0  0  0  0  0  0  0  0  0  0  0
    0.7659   -0.0464   -0.0309 H   0  0  0  0  0  0  0  0  0  0  0  0
   -0.2442   -1.4492   -1.0737 H   0  0  0  0  0  0  0  0  0  0  0  0
  1  2  1  0  0  0  0
  1  3  1  0  0  0  0
  1  5  1  0  0  0  0
  2  6  1  0  0  0  0
  2  8  1  0  0  0  0
  6 10  1  0  0  0  0
  7  2  1  0  0  0  0
  9 13  1  0  0  0  0
  9  6  1  0  0  0  0
  9 12  1  0  0  0  0
 11  6  1  0  0  0  0
 14  9  1  0  0  0  0
M  RAD  2   1   2   4   2
M  END
$$$$
