14
butane_opt
C  -3.921092   0.296006  -0.021945
C  -2.689515  -0.639345   0.140524
H  -4.798862  -0.371018  -0.479428
H  -3.630112   0.936015  -0.901236
H  -4.187643   1.067194   0.909667
C  -1.404298   0.156964   0.051761
H  -2.669879  -1.357873  -0.667978
H  -2.616421  -1.411135   1.089356
C  -0.232727  -0.669348  -0.029447
H  -1.226357   0.826462   0.859212
H  -1.420290   0.813708  -0.899723
H  -0.150662  -1.179403   0.785495
H   0.766051   0.001359   0.012621
H  -0.145558  -1.506776  -0.976307
