14
butane_opt
C  -3.976326   0.264933   0.070689
C  -2.687485  -0.618838  -0.054206
H  -4.900776  -0.305142  -0.025930
H  -4.250206   0.729723  -0.711589
H  -4.026659   1.015478   1.053860
C  -1.394150   0.180654  -0.033173
H  -2.751818  -1.289311  -0.859584
H  -2.820833  -1.134666   0.795239
C  -0.117276  -0.686480   0.108434
H  -1.512444   0.882062   0.905830
H  -1.248236   0.752952  -0.936960
H   0.048534  -1.623637   1.160752
H   0.835206  -0.101571  -0.415494
H  -0.286304  -1.069738  -0.604153
