butane_opt
 OpenBabel08242015393D

 14 13  0  0  0  0  0  0  0  0999 V2000
   -3.9218    0.2516   -0.0804 C   0  0  0  0  0  0  0  0  0  0  0  0
   -2.6970   -0.6195    0.1123 C   0  0  0  0  0  0  0  0  0  0  0  0
   -4.8853   -0.3246    0.0017 H   0  0  0  0  0  0  0  0  0  0  0  0
   -3.8164    0.9959   -1.1010 H   0  0  0  0  0  0  0  0  0  0  0  0
   -4.0509    0.7585    0.7354 H   0  0  0  0  0  0  0  0  0  0  0  0
   -1.4087    0.2145    0.1234 C   0  0  0  0  0  0  0  0  0  0  0  0
   -2.5247   -1.2499   -0.6606 H   0  0  0  0  0  0  0  0  0  0  0  0
   -2.7123   -1.2421    1.0834 H   0  0  0  0  0  0  0  0  0  0  0  0
   -0.1694   -0.7156   -0.0711 C   0  0  0  0  0  0  0  0  0  0  0  0
   -1.3406    1.1705    1.1920 H   0  0  0  0  0  0  0  0  0  0  0  0
   -1.4379    0.5655   -0.5302 H   0  0  0  0  0  0  0  0  0  0  0  0
    0.0312   -1.4625    0.9018 H   0  0  0  0  0  0  0  0  0  0  0  0
    0.5850   -0.1948   -0.3927 H   0  0  0  0  0  0  0  0  0  0  0  0
   -0.4668   -1.0806   -0.7939 H   0  0  0  0  0  0  0  0  0  0  0  0
  1  3  1  0  0  0  0
  1  2  1  0  0  0  0
  1  5  1  0  0  0  0
  2  6  1  0  0  0  0
  2  8  1  0  0  0  0
  4  1  1  0  0  0  0
  6 10  1  0  0  0  0
  7  2  1  0  0  0  0
  9  6  1  0  0  0  0
  9 12  1  0  0  0  0
 11  6  1  0  0  0  0
 13  9  1  0  0  0  0
 14  9  1  0  0  0  0
M  END
$$$$
