14
butane_opt
C  -3.938904   0.227038   0.059879
C  -2.707236  -0.592058   0.020181
H  -4.950077  -0.415920  -0.252854
H  -4.018733   0.594930  -0.748272
H  -3.981328   1.042385   1.033881
C  -1.422257   0.266648  -0.032997
H  -2.688003  -1.368225  -0.951351
H  -2.769212  -1.116834   0.876994
C  -0.139749  -0.737265   0.056140
H  -1.259903   1.058567   0.845295
H  -1.394899   0.846712  -0.937458
H  -0.013993  -1.735836   1.259052
H   0.647421  -0.206757  -0.244274
H  -0.057061  -1.185258  -0.627753
