butane_opt
 OpenBabel08242015393D

 14 13  0  0  0  0  0  0  0  0999 V2000
   -3.9006    0.2392    0.1167 C   0  0  0  0  0  0  0  0  0  0  0  0
   -2.7117   -0.5488   -0.0779 C   0  0  0  0  0  0  0  0  0  0  0  0
   -4.9338   -0.5381    0.1708 H   0  0  0  0  0  0  0  0  0  0  0  0
   -4.1211    0.7031   -0.6354 H   0  0  0  0  0  0  0  0  0  0  0  0
   -3.7457    1.0145    1.1378 H   0  0  0  0  0  0  0  0  0  0  0  0
   -1.4482    0.2115   -0.1311 C   0  0  0  0  0  0  0  0  0  0  0  0
   -2.7776   -1.3323   -0.9311 H   0  0  0  0  0  0  0  0  0  0  0  0
   -2.6707   -1.2648    0.8815 H   0  0  0  0  0  0  0  0  0  0  0  0
   -0.1573   -0.7180    0.1385 C   0  0  0  0  0  0  0  0  0  0  0  0
   -1.4653    0.8015    0.6749 H   0  0  0  0  0  0  0  0  0  0  0  0
   -1.2833    0.8978   -1.0491 H   0  0  0  0  0  0  0  0  0  0  0  0
   -0.3740   -1.3591    1.1007 H   0  0  0  0  0  0  0  0  0  0  0  0
    0.7374   -0.2006    0.2706 H   0  0  0  0  0  0  0  0  0  0  0  0
    0.2480   -1.4137   -0.7450 H   0  0  0  0  0  0  0  0  0  0  0  0
  1  3  1  0  0  0  0
  1  5  1  0  0  0  0
  2  1  1  0  0  0  0
  2  8  1  0  0  0  0
  4  1  1  0  0  0  0
  6  2  1  0  0  0  0
  6  9  1  0  0  0  0
  6 10  1  0  0  0  0
  7  2  1  0  0  0  0
  9 13  1  0  0  0  0
  9 12  1  0  0  0  0
 11  6  1  0  0  0  0
 14  9  1  0  0  0  0
M  END
$$$$
