butane_opt
 OpenBabel08242015393D

 14 13  0  0  0  0  0  0  0  0999 V2000
   -3.9729    0.2376    0.0912 C   0  0  0  0  0  0  0  0  0  0  0  0
   -2.7147   -0.6126   -0.0338 C   0  0  0  0  0  0  0  0  0  0  0  0
   -4.8789   -0.3715    0.1917 H   0  0  0  0  0  0  0  0  0  0  0  0
   -4.1383    0.7291   -0.7007 H   0  0  0  0  0  0  0  0  0  0  0  0
   -3.8089    1.1440    1.0509 H   0  0  0  0  0  0  0  0  0  0  0  0
   -1.4328    0.2348   -0.1199 C   0  0  0  0  0  0  0  0  0  0  0  0
   -2.8695   -1.1969   -0.8565 H   0  0  0  0  0  0  0  0  0  0  0  0
   -2.6949   -1.2687    0.8965 H   0  0  0  0  0  0  0  0  0  0  0  0
   -0.0729   -0.7150    0.1299 C   0  0  0  0  0  0  0  0  0  0  0  0
   -1.4613    0.7600    0.5396 H   0  0  0  0  0  0  0  0  0  0  0  0
   -1.3691    0.8710   -1.0154 H   0  0  0  0  0  0  0  0  0  0  0  0
   -0.4082   -1.1422    0.9505 H   0  0  0  0  0  0  0  0  0  0  0  0
    0.8245   -0.1457    0.4063 H   0  0  0  0  0  0  0  0  0  0  0  0
    0.1240   -1.6095   -0.8406 H   0  0  0  0  0  0  0  0  0  0  0  0
  1  3  1  0  0  0  0
  1  5  1  0  0  0  0
  2  1  1  0  0  0  0
  2  8  1  0  0  0  0
  4  1  1  0  0  0  0
  6  2  1  0  0  0  0
  6  9  1  0  0  0  0
  6 10  1  0  0  0  0
  7  2  1  0  0  0  0
  9 13  1  0  0  0  0
  9 12  1  0  0  0  0
 11  6  1  0  0  0  0
 14  9  1  0  0  0  0
M  END
$$$$
