14
butane_opt
C  -3.925914   0.236204  -0.016965
C  -2.730535  -0.580080   0.077819
H  -4.864476  -0.423922   0.133969
H  -3.929891   0.872349  -0.829185
H  -3.811498   0.828671   0.813971
C  -1.410425   0.232457  -0.013276
H  -2.703210  -1.196079  -0.690948
H  -2.639327  -1.306507   1.052589
C  -0.155190  -0.728856   0.011944
H  -1.271979   0.991504   0.927168
H  -1.427155   0.896069  -0.839923
H  -0.440152  -1.151911   0.777482
H   0.672119  -0.274755   0.325758
H   0.091263  -1.664714  -0.989608
