butane_opt
 OpenBabel08242015393D

 14 13  0  0  0  0  0  0  0  0999 V2000
   -4.0033    0.2852   -0.0719 C   0  0  0  0  0  0  0  0  0  0  0  0
   -2.6515   -0.6612    0.0969 C   0  0  0  0  0  0  0  0  0  0  0  0
   -4.8472   -0.2532   -0.0960 H   0  0  0  0  0  0  0  0  0  0  0  0
   -3.9502    0.9553   -0.9853 H   0  0  0  0  0  0  0  0  0  0  0  0
   -4.1753    0.9543    0.7801 H   0  0  0  0  0  0  0  0  0  0  0  0
   -1.3748    0.1706    0.1273 C   0  0  0  0  0  0  0  0  0  0  0  0
   -2.5603   -1.1625   -0.6812 H   0  0  0  0  0  0  0  0  0  0  0  0
   -2.8632   -1.4043    1.1374 H   0  0  0  0  0  0  0  0  0  0  0  0
   -0.1684   -0.6402   -0.0611 C   0  0  0  0  0  0  0  0  0  0  0  0
   -1.3279    0.9068    1.0795 H   0  0  0  0  0  0  0  0  0  0  0  0
   -1.3363    0.5850   -0.5629 H   0  0  0  0  0  0  0  0  0  0  0  0
    0.1455   -1.4887    0.9300 H   0  0  0  0  0  0  0  0  0  0  0  0
    0.7167   -0.1570   -0.3619 H   0  0  0  0  0  0  0  0  0  0  0  0
   -0.4504   -1.2443   -0.8749 H   0  0  0  0  0  0  0  0  0  0  0  0
  1  2  1  0  0  0  0
  1  5  1  0  0  0  0
  2  6  1  0  0  0  0
  2  8  1  0  0  0  0
  3  1  1  0  0  0  0
  4  1  1  0  0  0  0
  6 10  1  0  0  0  0
  7  2  1  0  0  0  0
  9  6  1  0  0  0  0
  9 12  1  0  0  0  0
 11  6  1  0  0  0  0
 13  9  1  0  0  0  0
 14  9  1  0  0  0  0
M  END
$$$$
