14
butane_opt
C  -3.947988   0.275377  -0.013527
C  -2.695712  -0.628012   0.065117
H  -4.844385  -0.274244   0.055316
H  -4.005816   0.952905  -0.945562
H  -4.024182   0.858648   0.777241
C  -1.395536   0.175679   0.059871
H  -2.680636  -1.317587  -0.785736
H  -2.731325  -1.282228   0.979792
C  -0.170278  -0.684234  -0.003984
H  -1.331665   0.880140   0.911413
H  -1.328920   0.807849  -0.837630
H  -0.079272  -1.280776   0.897617
H   0.745744  -0.092008  -0.026006
H  -0.227889  -1.389710  -0.885001
