butane_opt
 OpenBabel08242015393D

 14 12  0  0  0  0  0  0  0  0999 V2000
   -3.9389    0.2270    0.0599 C   0  0  0  0  0  0  0  0  0  0  0  0
   -2.7072   -0.5921    0.0202 C   0  0  0  0  0  0  0  0  0  0  0  0
   -4.9501   -0.4159   -0.2529 H   0  0  0  0  0  0  0  0  0  0  0  0
   -4.0187    0.5949   -0.7483 H   0  0  0  0  0  0  0  0  0  0  0  0
   -3.9813    1.0424    1.0339 H   0  0  0  0  0  0  0  0  0  0  0  0
   -1.4223    0.2666   -0.0330 C   0  0  0  0  0  0  0  0  0  0  0  0
   -2.6880   -1.3682   -0.9514 H   0  0  0  0  0  0  0  0  0  0  0  0
   -2.7692   -1.1168    0.8770 H   0  0  0  0  0  0  0  0  0  0  0  0
   -0.1397   -0.7373    0.0561 C   0  0  0  0  0  0  0  0  0  0  0  0
   -1.2599    1.0586    0.8453 H   0  0  0  0  0  0  0  0  0  0  0  0
   -1.3949    0.8467   -0.9375 H   0  0  0  0  0  0  0  0  0  0  0  0
   -0.0140   -1.7358    1.2591 H   0  0  0  0  0  0  0  0  0  0  0  0
    0.6474   -0.2068   -0.2443 H   0  0  0  0  0  0  0  0  0  0  0  0
   -0.0571   -1.1853   -0.6278 H   0  0  0  0  0  0  0  0  0  0  0  0
  1  5  1  0  0  0  0
  2  1  1  0  0  0  0
  2  8  1  0  0  0  0
  3  1  1  0  0  0  0
  4  1  1  0  0  0  0
  6  2  1  0  0  0  0
  6  9  1  0  0  0  0
  6 10  1  0  0  0  0
  7  2  1  0  0  0  0
 11  6  1  0  0  0  0
 13  9  1  0  0  0  0
 14  9  1  0  0  0  0
M  RAD  2   9   2  12   2
M  END
$$$$
