butane_opt
 OpenBabel08242015393D

 14 13  0  0  0  0  0  0  0  0999 V2000
   -3.9735    0.3145   -0.0813 C   0  0  0  0  0  0  0  0  0  0  0  0
   -2.6725   -0.6954    0.1280 C   0  0  0  0  0  0  0  0  0  0  0  0
   -4.8671   -0.2867   -0.2093 H   0  0  0  0  0  0  0  0  0  0  0  0
   -4.0544    0.9637   -1.0154 H   0  0  0  0  0  0  0  0  0  0  0  0
   -4.1254    0.9119    0.6279 H   0  0  0  0  0  0  0  0  0  0  0  0
   -1.3586    0.1681    0.1633 C   0  0  0  0  0  0  0  0  0  0  0  0
   -2.6732   -1.2158   -0.6682 H   0  0  0  0  0  0  0  0  0  0  0  0
   -2.7545   -1.3192    1.0520 H   0  0  0  0  0  0  0  0  0  0  0  0
   -0.1920   -0.6695   -0.0716 C   0  0  0  0  0  0  0  0  0  0  0  0
   -1.2490    0.9638    1.1283 H   0  0  0  0  0  0  0  0  0  0  0  0
   -1.3571    0.7838   -0.6778 H   0  0  0  0  0  0  0  0  0  0  0  0
    0.0984   -1.4066    0.8290 H   0  0  0  0  0  0  0  0  0  0  0  0
    0.7656   -0.0749   -0.4240 H   0  0  0  0  0  0  0  0  0  0  0  0
   -0.4485   -1.2069   -0.8729 H   0  0  0  0  0  0  0  0  0  0  0  0
  1  2  1  0  0  0  0
  1  5  1  0  0  0  0
  2  6  1  0  0  0  0
  2  8  1  0  0  0  0
  3  1  1  0  0  0  0
  4  1  1  0  0  0  0
  6 10  1  0  0  0  0
  7  2  1  0  0  0  0
  9  6  1  0  0  0  0
  9 12  1  0  0  0  0
 11  6  1  0  0  0  0
 13  9  1  0  0  0  0
 14  9  1  0  0  0  0
M  END
$$$$
