14
butane_opt
C  -3.891692   0.223600   0.090404
C  -2.703704  -0.581643   0.005249
H  -4.950721  -0.454745  -0.181421
H  -3.718950   0.578624  -0.688890
H  -4.057327   1.241181   1.149372
C  -1.422172   0.250617  -0.119774
H  -2.779743  -1.275193  -0.888737
H  -2.726156  -1.221618   0.910925
C  -0.185354  -0.755576   0.107083
H  -1.388892   0.959381   0.770974
H  -1.332316   0.953701  -0.979478
H  -0.195333  -1.401814   1.051885
H   0.680833  -0.224309   0.062714
H  -0.070080  -1.319896  -0.716843
