14
butane_opt
C  -3.957987   0.273844   0.099116
C  -2.711339  -0.613631  -0.028767
H  -4.797815  -0.224981   0.220594
H  -4.184634   0.962879  -0.864322
H  -3.793089   0.773128   0.805509
C  -1.382285   0.152703  -0.054035
H  -2.702602  -1.479135  -1.037078
H  -2.579816  -0.971730   0.653710
C  -0.174278  -0.687471   0.096487
H  -1.503833   0.793639   0.799246
H  -1.320408   0.806982  -0.952097
H  -0.230541  -1.425759   1.016224
H   0.880399   0.035415   0.038101
H  -0.102683  -1.216701  -0.606748
