butane_opt
 OpenBabel08242015393D

 14 13  0  0  0  0  0  0  0  0999 V2000
   -3.9375    0.3033   -0.0755 C   0  0  0  0  0  0  0  0  0  0  0  0
   -2.6514   -0.6538    0.1568 C   0  0  0  0  0  0  0  0  0  0  0  0
   -4.9341   -0.3490   -0.3776 H   0  0  0  0  0  0  0  0  0  0  0  0
   -3.7505    0.7850   -0.9197 H   0  0  0  0  0  0  0  0  0  0  0  0
   -4.1257    1.1984    0.9678 H   0  0  0  0  0  0  0  0  0  0  0  0
   -1.4195    0.1312    0.0586 C   0  0  0  0  0  0  0  0  0  0  0  0
   -2.7238   -1.1821   -0.5846 H   0  0  0  0  0  0  0  0  0  0  0  0
   -2.6612   -1.5056    1.1775 H   0  0  0  0  0  0  0  0  0  0  0  0
   -0.1883   -0.6443   -0.0290 C   0  0  0  0  0  0  0  0  0  0  0  0
   -1.3693    0.8869    1.0523 H   0  0  0  0  0  0  0  0  0  0  0  0
   -1.4554    0.7077   -0.7849 H   0  0  0  0  0  0  0  0  0  0  0  0
   -0.1475   -1.1779    0.7330 H   0  0  0  0  0  0  0  0  0  0  0  0
    0.8044   -0.0584   -0.1562 H   0  0  0  0  0  0  0  0  0  0  0  0
   -0.3176   -1.3988   -1.0114 H   0  0  0  0  0  0  0  0  0  0  0  0
  1  2  1  0  0  0  0
  1  5  1  0  0  0  0
  2  8  1  0  0  0  0
  3  1  1  0  0  0  0
  4  1  1  0  0  0  0
  6  2  1  0  0  0  0
  6 10  1  0  0  0  0
  7  2  1  0  0  0  0
  9  6  1  0  0  0  0
  9 12  1  0  0  0  0
 11  6  1  0  0  0  0
 13  9  1  0  0  0  0
 14  9  1  0  0  0  0
M  END
$$$$
