14
butane_opt
C  -3.948396   0.316740  -0.052167
C  -2.674222  -0.654116   0.072653
H  -4.957182  -0.315866   0.277249
H  -4.141416   0.969508  -1.032043
H  -3.884129   0.790528   0.661327
C  -1.406040   0.139307   0.081374
H  -2.533910  -1.258515  -0.685304
H  -2.606380  -1.378168   0.994285
C  -0.184494  -0.646673  -0.024777
H  -1.288188   0.904464   1.064020
H  -1.461789   0.644439  -0.676608
H  -0.249418  -1.291650   0.879931
H   0.867261   0.026634  -0.037454
H  -0.228941  -1.407779  -0.950354
