14
butane_opt
C  -3.924802   0.242063   0.107381
C  -2.666712  -0.597085  -0.081755
H  -4.666087  -0.247316   0.380706
H  -4.231776   1.020134  -0.836355
H  -3.692790   0.837399   1.027869
C  -1.431645   0.176209  -0.084884
H  -2.807120  -1.357180  -1.015184
H  -2.555274  -1.275536   0.761498
C  -0.194685  -0.688371   0.099038
H  -1.431840   0.827665   0.716653
H  -1.388916   0.821808  -0.936827
H  -0.421290  -1.334406   1.041496
H   0.741796  -0.035048   0.407173
H   0.043926  -1.288333  -0.594366
