butane_opt
 OpenBabel08242015393D

 14 13  0  0  0  0  0  0  0  0999 V2000
   -3.9369    0.2361   -0.0609 C   0  0  0  0  0  0  0  0  0  0  0  0
   -2.7320   -0.5617    0.1357 C   0  0  0  0  0  0  0  0  0  0  0  0
   -4.8388   -0.3987    0.0217 H   0  0  0  0  0  0  0  0  0  0  0  0
   -3.9246    0.7818   -0.8630 H   0  0  0  0  0  0  0  0  0  0  0  0
   -3.9480    0.9141    0.7685 H   0  0  0  0  0  0  0  0  0  0  0  0
   -1.4232    0.2203    0.0368 C   0  0  0  0  0  0  0  0  0  0  0  0
   -2.7864   -1.1354   -0.6155 H   0  0  0  0  0  0  0  0  0  0  0  0
   -2.9556   -1.3401    1.1934 H   0  0  0  0  0  0  0  0  0  0  0  0
   -0.1185   -0.7268   -0.0243 C   0  0  0  0  0  0  0  0  0  0  0  0
   -1.4102    0.8406    0.8668 H   0  0  0  0  0  0  0  0  0  0  0  0
   -1.4793    0.7263   -0.8210 H   0  0  0  0  0  0  0  0  0  0  0  0
   -0.1636   -1.0246    0.5739 H   0  0  0  0  0  0  0  0  0  0  0  0
    0.8144   -0.1958    0.2779 H   0  0  0  0  0  0  0  0  0  0  0  0
    0.1856   -1.6440   -1.0392 H   0  0  0  0  0  0  0  0  0  0  0  0
  1  3  1  0  0  0  0
  1  2  1  0  0  0  0
  1  5  1  0  0  0  0
  2  8  1  0  0  0  0
  4  1  1  0  0  0  0
  6  2  1  0  0  0  0
  6 10  1  0  0  0  0
  7  2  1  0  0  0  0
  9  6  1  0  0  0  0
  9 13  1  0  0  0  0
  9 12  1  0  0  0  0
 11  6  1  0  0  0  0
 14  9  1  0  0  0  0
M  END
$$$$
