butane_opt
 OpenBabel08242015393D

 14 13  0  0  0  0  0  0  0  0999 V2000
   -3.9381    0.2957    0.0405 C   0  0  0  0  0  0  0  0  0  0  0  0
   -2.6608   -0.6727    0.0082 C   0  0  0  0  0  0  0  0  0  0  0  0
   -4.8328   -0.3192   -0.1173 H   0  0  0  0  0  0  0  0  0  0  0  0
   -3.9282    0.8816   -0.7479 H   0  0  0  0  0  0  0  0  0  0  0  0
   -4.0059    1.2234    1.0700 H   0  0  0  0  0  0  0  0  0  0  0  0
   -1.3736    0.1366    0.0154 C   0  0  0  0  0  0  0  0  0  0  0  0
   -2.4973   -1.3961   -0.9437 H   0  0  0  0  0  0  0  0  0  0  0  0
   -2.7692   -1.2283    0.9022 H   0  0  0  0  0  0  0  0  0  0  0  0
   -0.2170   -0.6548    0.0574 C   0  0  0  0  0  0  0  0  0  0  0  0
   -1.4098    0.7600    0.7822 H   0  0  0  0  0  0  0  0  0  0  0  0
   -1.3794    0.9431   -1.0028 H   0  0  0  0  0  0  0  0  0  0  0  0
   -0.2543   -1.4218    1.0750 H   0  0  0  0  0  0  0  0  0  0  0  0
    0.6557   -0.0271   -0.2723 H   0  0  0  0  0  0  0  0  0  0  0  0
   -0.3184   -1.1594   -0.7237 H   0  0  0  0  0  0  0  0  0  0  0  0
  1  5  1  0  0  0  0
  2  6  1  0  0  0  0
  2  1  1  0  0  0  0
  2  8  1  0  0  0  0
  3  1  1  0  0  0  0
  4  1  1  0  0  0  0
  6  9  1  0  0  0  0
  6 10  1  0  0  0  0
  7  2  1  0  0  0  0
  9 12  1  0  0  0  0
 11  6  1  0  0  0  0
 13  9  1  0  0  0  0
 14  9  1  0  0  0  0
M  END
$$$$
