14
butane_opt
C  -3.996328   0.246477   0.101559
C  -2.695090  -0.589404  -0.028550
H  -4.924622  -0.361535  -0.311648
H  -3.711155   0.306672  -0.460536
H  -4.066015   1.311302   1.215259
C  -1.390060   0.220754  -0.106368
H  -2.847514  -1.232396  -0.868673
H  -2.710151  -1.237927   0.864839
C  -0.129842  -0.731047   0.140897
H  -1.479908   0.725695   0.659803
H  -1.308390   1.095078  -1.170309
H  -0.035729  -1.453440   1.087663
H   0.710994  -0.160841  -0.041027
H  -0.117187  -1.256180  -0.758273
