butane_opt
 OpenBabel08242015393D

 14 13  0  0  0  0  0  0  0  0999 V2000
   -4.0035    0.2760    0.1111 C   0  0  0  0  0  0  0  0  0  0  0  0
   -2.7076   -0.6380   -0.0900 C   0  0  0  0  0  0  0  0  0  0  0  0
   -4.7088   -0.2006    0.0624 H   0  0  0  0  0  0  0  0  0  0  0  0
   -4.1222    0.8165   -0.7477 H   0  0  0  0  0  0  0  0  0  0  0  0
   -3.9393    1.0309    1.0362 H   0  0  0  0  0  0  0  0  0  0  0  0
   -1.3470    0.1808   -0.0649 C   0  0  0  0  0  0  0  0  0  0  0  0
   -2.7768   -1.4072   -1.0440 H   0  0  0  0  0  0  0  0  0  0  0  0
   -2.5628   -1.2581    0.7478 H   0  0  0  0  0  0  0  0  0  0  0  0
   -0.1730   -0.6726    0.1322 C   0  0  0  0  0  0  0  0  0  0  0  0
   -1.3334    0.8871    0.8788 H   0  0  0  0  0  0  0  0  0  0  0  0
   -1.3139    0.7112   -0.9092 H   0  0  0  0  0  0  0  0  0  0  0  0
   -0.0021   -1.6640    1.2607 H   0  0  0  0  0  0  0  0  0  0  0  0
    0.6950   -0.1625   -0.3024 H   0  0  0  0  0  0  0  0  0  0  0  0
   -0.2024   -0.9436   -0.5613 H   0  0  0  0  0  0  0  0  0  0  0  0
  1  5  1  0  0  0  0
  2  6  1  0  0  0  0
  2  1  1  0  0  0  0
  2  8  1  0  0  0  0
  3  1  1  0  0  0  0
  4  1  1  0  0  0  0
  6  9  1  0  0  0  0
  6 10  1  0  0  0  0
  7  2  1  0  0  0  0
  9 12  1  0  0  0  0
 11  6  1  0  0  0  0
 13  9  1  0  0  0  0
 14  9  1  0  0  0  0
M  END
$$$$
