14
butane_opt
C  -3.957634   0.278001   0.024160
C  -2.704342  -0.631170   0.020772
H  -4.863866  -0.304422   0.025690
H  -4.007961   0.802994  -0.788910
H  -3.998951   1.040067   0.969188
C  -1.400404   0.176095   0.000388
H  -2.672780  -1.358831  -0.884454
H  -2.709316  -1.260839   0.911439
C  -0.148070  -0.684420   0.046361
H  -1.397589   0.846182   0.837079
H  -1.362768   0.809792  -0.893893
H  -0.114979  -1.408431   1.015729
H   0.807984  -0.077104  -0.098949
H  -0.179982  -1.213415  -0.726862
