butane_opt
 OpenBabel08242015393D

 14 12  0  0  0  0  0  0  0  0999 V2000
   -3.9109    0.2300   -0.0521 C   0  0  0  0  0  0  0  0  0  0  0  0
   -2.7060   -0.5877    0.0608 C   0  0  0  0  0  0  0  0  0  0  0  0
   -4.8395   -0.4613    0.5147 H   0  0  0  0  0  0  0  0  0  0  0  0
   -4.1440    1.2906   -1.2541 H   0  0  0  0  0  0  0  0  0  0  0  0
   -3.8289    0.4428    0.5491 H   0  0  0  0  0  0  0  0  0  0  0  0
   -1.4215    0.2305    0.1368 C   0  0  0  0  0  0  0  0  0  0  0  0
   -2.8518   -1.1751   -0.7994 H   0  0  0  0  0  0  0  0  0  0  0  0
   -2.8045   -1.1474    0.9590 H   0  0  0  0  0  0  0  0  0  0  0  0
   -0.1557   -0.7261   -0.0360 C   0  0  0  0  0  0  0  0  0  0  0  0
   -1.4063    0.9599    1.0513 H   0  0  0  0  0  0  0  0  0  0  0  0
   -1.3333    0.9320   -0.7841 H   0  0  0  0  0  0  0  0  0  0  0  0
    0.0744   -1.1749    0.8021 H   0  0  0  0  0  0  0  0  0  0  0  0
    0.6728   -0.2565    0.0853 H   0  0  0  0  0  0  0  0  0  0  0  0
   -0.2046   -1.6678   -1.0691 H   0  0  0  0  0  0  0  0  0  0  0  0
  1  2  1  0  0  0  0
  1  3  1  0  0  0  0
  1  5  1  0  0  0  0
  2  6  1  0  0  0  0
  2  8  1  0  0  0  0
  6 10  1  0  0  0  0
  7  2  1  0  0  0  0
  9 13  1  0  0  0  0
  9  6  1  0  0  0  0
  9 12  1  0  0  0  0
 11  6  1  0  0  0  0
 14  9  1  0  0  0  0
M  RAD  2   1   2   4   2
M  END
$$$$
