14
butane_opt
C  -3.921753   0.251571  -0.080370
C  -2.696986  -0.619531   0.112309
H  -4.885305  -0.324570   0.001723
H  -3.816380   0.995885  -1.101032
H  -4.050918   0.758488   0.735361
C  -1.408662   0.214461   0.123424
H  -2.524713  -1.249900  -0.660616
H  -2.712296  -1.242102   1.083351
C  -0.169359  -0.715613  -0.071121
H  -1.340615   1.170505   1.192042
H  -1.437863   0.565527  -0.530230
H   0.031163  -1.462533   0.901833
H   0.584987  -0.194792  -0.392691
H  -0.466801  -1.080630  -0.793908
