14
butane_opt
C  -3.950092   0.262025  -0.031073
C  -2.697031  -0.612970   0.103452
H  -4.933063  -0.378969  -0.050760
H  -3.969276   0.920225  -0.888197
H  -3.948152   0.767450   0.764768
C  -1.386994   0.229541   0.032623
H  -2.821527  -1.045559  -0.643628
H  -2.741154  -1.471259   1.137808
C  -0.164167  -0.713252  -0.007332
H  -1.398920   0.885316   0.921582
H  -1.334593   0.866212  -0.904516
H  -0.161091  -1.004224   0.707080
H   0.729699  -0.197856   0.353327
H  -0.059722  -1.825589  -1.197457
