14
butane_opt
C  -3.911038   0.212861   0.053173
C  -2.684947  -0.548566   0.026829
H  -4.767275  -0.378387  -0.228885
H  -3.686246   0.461544  -0.652775
H  -4.005308   1.272550   1.152087
C  -1.449009   0.214966  -0.082051
H  -2.681468  -1.188996  -0.805132
H  -2.772349  -1.367111   1.010975
C  -0.171838  -0.729103   0.091584
H  -1.533710   0.881344   0.828721
H  -1.328687   0.883646  -1.032686
H  -0.133012  -1.329195   0.908881
H   0.682990  -0.153775  -0.034143
H  -0.182137  -1.356042  -0.736036
