butane_opt
 OpenBabel08242015393D

 14 13  0  0  0  0  0  0  0  0999 V2000
   -3.9163    0.2766   -0.0743 C   0  0  0  0  0  0  0  0  0  0  0  0
   -2.6974   -0.6289    0.0884 C   0  0  0  0  0  0  0  0  0  0  0  0
   -4.7248   -0.2474    0.4228 H   0  0  0  0  0  0  0  0  0  0  0  0
   -4.0603    1.1620   -1.1512 H   0  0  0  0  0  0  0  0  0  0  0  0
   -3.7006    0.5246    0.6198 H   0  0  0  0  0  0  0  0  0  0  0  0
   -1.3880    0.2011    0.1128 C   0  0  0  0  0  0  0  0  0  0  0  0
   -2.6144   -1.1422   -0.6663 H   0  0  0  0  0  0  0  0  0  0  0  0
   -2.6998   -1.3820    1.0516 H   0  0  0  0  0  0  0  0  0  0  0  0
   -0.2211   -0.7001   -0.0592 C   0  0  0  0  0  0  0  0  0  0  0  0
   -1.3642    0.9138    1.0564 H   0  0  0  0  0  0  0  0  0  0  0  0
   -1.4881    0.6698   -0.6874 H   0  0  0  0  0  0  0  0  0  0  0  0
   -0.2166   -1.1162    0.7115 H   0  0  0  0  0  0  0  0  0  0  0  0
    0.7039   -0.0686    0.2990 H   0  0  0  0  0  0  0  0  0  0  0  0
   -0.2052   -1.5426   -1.0762 H   0  0  0  0  0  0  0  0  0  0  0  0
  1  2  1  0  0  0  0
  1  3  1  0  0  0  0
  1  5  1  0  0  0  0
  2  6  1  0  0  0  0
  2  8  1  0  0  0  0
  4  1  1  0  0  0  0
  6 10  1  0  0  0  0
  7  2  1  0  0  0  0
  9  6  1  0  0  0  0
  9 13  1  0  0  0  0
  9 12  1  0  0  0  0
 11  6  1  0  0  0  0
 14  9  1  0  0  0  0
M  END
$$$$
