butane_opt
 OpenBabel08242015393D

 14 13  0  0  0  0  0  0  0  0999 V2000
   -3.9226    0.2319    0.1237 C   0  0  0  0  0  0  0  0  0  0  0  0
   -2.7142   -0.5752   -0.0258 C   0  0  0  0  0  0  0  0  0  0  0  0
   -4.9116   -0.4655    0.1137 H   0  0  0  0  0  0  0  0  0  0  0  0
   -3.9510    0.7710   -0.7646 H   0  0  0  0  0  0  0  0  0  0  0  0
   -3.8511    0.9862    1.1238 H   0  0  0  0  0  0  0  0  0  0  0  0
   -1.4551    0.2162   -0.1298 C   0  0  0  0  0  0  0  0  0  0  0  0
   -2.8397   -1.3639   -0.9168 H   0  0  0  0  0  0  0  0  0  0  0  0
   -2.5929   -1.0610    0.6876 H   0  0  0  0  0  0  0  0  0  0  0  0
   -0.1103   -0.7284    0.1098 C   0  0  0  0  0  0  0  0  0  0  0  0
   -1.4552    0.6815    0.5548 H   0  0  0  0  0  0  0  0  0  0  0  0
   -1.4574    1.0893   -1.1939 H   0  0  0  0  0  0  0  0  0  0  0  0
   -0.4324   -1.1923    1.0057 H   0  0  0  0  0  0  0  0  0  0  0  0
    0.8212   -0.1205    0.6597 H   0  0  0  0  0  0  0  0  0  0  0  0
    0.0954   -1.5486   -0.7523 H   0  0  0  0  0  0  0  0  0  0  0  0
  1  5  1  0  0  0  0
  2  1  1  0  0  0  0
  2  8  1  0  0  0  0
  3  1  1  0  0  0  0
  4  1  1  0  0  0  0
  6  2  1  0  0  0  0
  6  9  1  0  0  0  0
  6 10  1  0  0  0  0
  7  2  1  0  0  0  0
  9 13  1  0  0  0  0
  9 12  1  0  0  0  0
 11  6  1  0  0  0  0
 14  9  1  0  0  0  0
M  END
$$$$
