butane_opt
 OpenBabel08242015393D

 14 13  0  0  0  0  0  0  0  0999 V2000
   -4.0210    0.2932   -0.0797 C   0  0  0  0  0  0  0  0  0  0  0  0
   -2.6668   -0.6302    0.1337 C   0  0  0  0  0  0  0  0  0  0  0  0
   -4.9500   -0.1843   -0.1622 H   0  0  0  0  0  0  0  0  0  0  0  0
   -3.9384    0.8246   -1.0112 H   0  0  0  0  0  0  0  0  0  0  0  0
   -4.2810    0.9156    0.6560 H   0  0  0  0  0  0  0  0  0  0  0  0
   -1.3733    0.1413    0.1389 C   0  0  0  0  0  0  0  0  0  0  0  0
   -2.5896   -1.2611   -0.6238 H   0  0  0  0  0  0  0  0  0  0  0  0
   -2.7429   -1.4019    1.0957 H   0  0  0  0  0  0  0  0  0  0  0  0
   -0.1522   -0.6616   -0.0834 C   0  0  0  0  0  0  0  0  0  0  0  0
   -1.2963    0.9482    1.1110 H   0  0  0  0  0  0  0  0  0  0  0  0
   -1.2778    0.5487   -0.5607 H   0  0  0  0  0  0  0  0  0  0  0  0
    0.0984   -1.4114    0.8757 H   0  0  0  0  0  0  0  0  0  0  0  0
    0.8139   -0.0195   -0.3975 H   0  0  0  0  0  0  0  0  0  0  0  0
   -0.3123   -1.1213   -0.8491 H   0  0  0  0  0  0  0  0  0  0  0  0
  1  2  1  0  0  0  0
  1  5  1  0  0  0  0
  2  6  1  0  0  0  0
  2  8  1  0  0  0  0
  3  1  1  0  0  0  0
  4  1  1  0  0  0  0
  6 10  1  0  0  0  0
  7  2  1  0  0  0  0
  9  6  1  0  0  0  0
  9 12  1  0  0  0  0
 11  6  1  0  0  0  0
 13  9  1  0  0  0  0
 14  9  1  0  0  0  0
M  END
$$$$
