14
butane_opt
C  -3.943077   0.303437  -0.050863
C  -2.667740  -0.619364   0.069603
H  -4.883204  -0.360754   0.471040
H  -4.091152   1.226776  -1.264660
H  -3.980983   0.635613   0.585425
C  -1.394692   0.106790   0.106108
H  -2.679134  -1.218462  -0.716595
H  -2.557626  -1.335976   0.950968
C  -0.221164  -0.666356  -0.041368
H  -1.174707   1.012356   1.166370
H  -1.294248   0.658223  -0.674668
H  -0.224932  -1.209472   0.812906
H   0.837815   0.069336   0.055761
H  -0.255700  -1.427932  -0.988793
