14
butane_opt
C  -3.960224   0.313436  -0.046545
C  -2.669807  -0.635902   0.144639
H  -4.791100  -0.285596   0.229040
H  -3.871385   1.044786  -1.125596
H  -3.966058   0.791410   0.638390
C  -1.382738   0.139467   0.049121
H  -2.590957  -1.399021  -0.695202
H  -2.695704  -1.239301   1.038144
C  -0.214947  -0.669380  -0.046079
H  -1.226602   0.734870   0.902396
H  -1.386694   0.616924  -0.802678
H  -0.429281  -0.936404   0.609687
H   0.770941   0.042814   0.416656
H  -0.124657  -1.572664  -1.011366
