14
butane_opt
C  -3.904493   0.305432   0.093061
C  -2.707912  -0.645583  -0.081484
H  -4.759216  -0.180932  -0.032788
H  -4.022022   0.708734  -0.639121
H  -3.991522   1.057649   1.093152
C  -1.402619   0.143527  -0.033788
H  -2.706189  -1.426131  -0.979043
H  -2.547186  -1.279525   0.741545
C  -0.198323  -0.652551   0.115613
H  -1.330466   0.771598   0.790194
H  -1.327806   0.747250  -0.934608
H  -0.183741  -1.649614   1.289441
H   0.673184  -0.048466  -0.428832
H  -0.285401  -0.957577  -0.537999
