butane_opt
 OpenBabel08242015393D

 14 13  0  0  0  0  0  0  0  0999 V2000
   -3.9693    0.2487    0.1395 C   0  0  0  0  0  0  0  0  0  0  0  0
   -2.7126   -0.5849   -0.0392 C   0  0  0  0  0  0  0  0  0  0  0  0
   -5.0283   -0.4913   -0.0975 H   0  0  0  0  0  0  0  0  0  0  0  0
   -3.9662    0.6987   -0.6610 H   0  0  0  0  0  0  0  0  0  0  0  0
   -3.8384    1.0312    1.0955 H   0  0  0  0  0  0  0  0  0  0  0  0
   -1.4203    0.2170   -0.1773 C   0  0  0  0  0  0  0  0  0  0  0  0
   -2.8794   -1.2843   -0.8905 H   0  0  0  0  0  0  0  0  0  0  0  0
   -2.6471   -1.2740    0.8499 H   0  0  0  0  0  0  0  0  0  0  0  0
   -0.1119   -0.7313    0.1566 C   0  0  0  0  0  0  0  0  0  0  0  0
   -1.5111    0.8930    0.6893 H   0  0  0  0  0  0  0  0  0  0  0  0
   -1.3449    0.9042   -1.0514 H   0  0  0  0  0  0  0  0  0  0  0  0
   -0.1722   -1.1980    0.9472 H   0  0  0  0  0  0  0  0  0  0  0  0
    0.7175   -0.1632    0.3797 H   0  0  0  0  0  0  0  0  0  0  0  0
    0.2193   -1.4112   -0.7890 H   0  0  0  0  0  0  0  0  0  0  0  0
  1  5  1  0  0  0  0
  2  1  1  0  0  0  0
  2  8  1  0  0  0  0
  3  1  1  0  0  0  0
  4  1  1  0  0  0  0
  6  2  1  0  0  0  0
  6  9  1  0  0  0  0
  6 10  1  0  0  0  0
  7  2  1  0  0  0  0
  9 13  1  0  0  0  0
  9 12  1  0  0  0  0
 11  6  1  0  0  0  0
 14  9  1  0  0  0  0
M  END
$$$$
