14
butane_opt
C  -3.946017   0.253034  -0.034042
C  -2.737192  -0.619893   0.062423
H  -4.886162  -0.347917   0.398573
H  -4.016807   1.322573  -1.214967
H  -3.848557   0.624155   0.633211
C  -1.397589   0.220496   0.115245
H  -2.642519  -1.292489  -0.777268
H  -2.729767  -1.375782   0.953524
C  -0.139662  -0.712276  -0.027257
H  -1.425874   0.947457   0.972079
H  -1.242951   0.821095  -0.771426
H  -0.024528  -1.132589   0.755740
H   0.701026  -0.245102   0.121496
H  -0.241452  -1.493287  -1.075614
