14
butane_opt
C  -3.968145   0.297665  -0.013216
C  -2.694219  -0.680607   0.101842
H  -4.726096  -0.138271   0.089679
H  -4.062795   1.045701  -1.034914
H  -4.153530   0.805074   0.766155
C  -1.379751   0.159438   0.022048
H  -2.711424  -1.233316  -0.675424
H  -2.701876  -1.400309   1.063181
C  -0.172233  -0.645558   0.008132
H  -1.411608   0.700877   0.834042
H  -1.446388   0.868483  -0.964231
H  -0.091991  -0.891991   0.596049
H   0.825799   0.051354   0.539394
H  -0.025021  -1.818786  -1.243518
