14
butane_opt
C  -3.916320   0.276579  -0.074292
C  -2.697351  -0.628928   0.088405
H  -4.724823  -0.247384   0.422812
H  -4.060314   1.161952  -1.151179
H  -3.700558   0.524623   0.619785
C  -1.387976   0.201126   0.112847
H  -2.614426  -1.142170  -0.666258
H  -2.699821  -1.381975   1.051625
C  -0.221111  -0.700127  -0.059216
H  -1.364205   0.913802   1.056426
H  -1.488118   0.669789  -0.687406
H  -0.216554  -1.116235   0.711462
H   0.703872  -0.068586   0.298953
H  -0.205222  -1.542598  -1.076197
