butane_opt
 OpenBabel08242015393D

 14 13  0  0  0  0  0  0  0  0999 V2000
   -3.9648    0.3076   -0.0762 C   0  0  0  0  0  0  0  0  0  0  0  0
   -2.6459   -0.6276    0.1858 C   0  0  0  0  0  0  0  0  0  0  0  0
   -4.8551   -0.2740   -0.2569 H   0  0  0  0  0  0  0  0  0  0  0  0
   -3.7689    0.8734   -1.0323 H   0  0  0  0  0  0  0  0  0  0  0  0
   -4.2764    0.7857    0.6999 H   0  0  0  0  0  0  0  0  0  0  0  0
   -1.3948    0.1255    0.1028 C   0  0  0  0  0  0  0  0  0  0  0  0
   -2.6941   -1.2953   -0.6298 H   0  0  0  0  0  0  0  0  0  0  0  0
   -2.6510   -1.3939    1.1274 H   0  0  0  0  0  0  0  0  0  0  0  0
   -0.1995   -0.6513   -0.0850 C   0  0  0  0  0  0  0  0  0  0  0  0
   -1.2502    0.8578    1.0273 H   0  0  0  0  0  0  0  0  0  0  0  0
   -1.4462    0.7878   -0.7714 H   0  0  0  0  0  0  0  0  0  0  0  0
   -0.1528   -1.1525    0.6911 H   0  0  0  0  0  0  0  0  0  0  0  0
    0.7731   -0.0028    0.1605 H   0  0  0  0  0  0  0  0  0  0  0  0
   -0.2610   -1.4967   -1.1225 H   0  0  0  0  0  0  0  0  0  0  0  0
  1  2  1  0  0  0  0
  1  5  1  0  0  0  0
  2  8  1  0  0  0  0
  3  1  1  0  0  0  0
  4  1  1  0  0  0  0
  6  2  1  0  0  0  0
  6 10  1  0  0  0  0
  7  2  1  0  0  0  0
  9  6  1  0  0  0  0
  9 13  1  0  0  0  0
  9 12  1  0  0  0  0
 11  6  1  0  0  0  0
 14  9  1  0  0  0  0
M  END
$$$$
