butane_opt
 OpenBabel08242015393D

 14 13  0  0  0  0  0  0  0  0999 V2000
   -3.9470    0.2602   -0.0224 C   0  0  0  0  0  0  0  0  0  0  0  0
   -2.7158   -0.6071    0.0783 C   0  0  0  0  0  0  0  0  0  0  0  0
   -4.8624   -0.3679    0.0473 H   0  0  0  0  0  0  0  0  0  0  0  0
   -3.9376    0.9071   -0.9538 H   0  0  0  0  0  0  0  0  0  0  0  0
   -3.9672    0.8560    0.7917 H   0  0  0  0  0  0  0  0  0  0  0  0
   -1.4086    0.1986    0.0575 C   0  0  0  0  0  0  0  0  0  0  0  0
   -2.7399   -1.2917   -0.7859 H   0  0  0  0  0  0  0  0  0  0  0  0
   -2.7637   -1.1864    0.9288 H   0  0  0  0  0  0  0  0  0  0  0  0
   -0.1409   -0.7140   -0.0103 C   0  0  0  0  0  0  0  0  0  0  0  0
   -1.3407    0.9303    0.9433 H   0  0  0  0  0  0  0  0  0  0  0  0
   -1.4417    0.7977   -0.7876 H   0  0  0  0  0  0  0  0  0  0  0  0
   -0.0280   -1.3481    0.9057 H   0  0  0  0  0  0  0  0  0  0  0  0
    0.7845   -0.1104   -0.0719 H   0  0  0  0  0  0  0  0  0  0  0  0
   -0.1775   -1.3105   -0.8106 H   0  0  0  0  0  0  0  0  0  0  0  0
  1  3  1  0  0  0  0
  1  2  1  0  0  0  0
  1  5  1  0  0  0  0
  2  8  1  0  0  0  0
  4  1  1  0  0  0  0
  6  2  1  0  0  0  0
  6 10  1  0  0  0  0
  7  2  1  0  0  0  0
  9  6  1  0  0  0  0
  9 12  1  0  0  0  0
 11  6  1  0  0  0  0
 13  9  1  0  0  0  0
 14  9  1  0  0  0  0
M  END
$$$$
