14
butane_opt
C  -3.937795   0.267026   0.052490
C  -2.684174  -0.621869   0.021384
H  -4.855294  -0.308028  -0.253701
H  -3.854854   0.681262  -0.648814
H  -4.105843   1.343601   1.109082
C  -1.405864   0.141643  -0.034758
H  -2.829497  -1.386258  -0.952089
H  -2.614716  -1.231042   0.888847
C  -0.149700  -0.658751   0.090599
H  -1.588808   0.664433   0.755334
H  -1.411704   0.924245  -1.050368
H  -0.191721  -1.443996   1.066376
H   0.812302  -0.041174  -0.224714
H  -0.262776  -1.206493  -0.777990
