14
butane_opt
C  -3.974248   0.291457  -0.074712
C  -2.720577  -0.675181   0.178469
H  -4.733633  -0.151761  -0.331358
H  -3.765747   0.678757  -0.870236
H  -4.218200   1.254431   0.925347
C  -1.392229   0.170754   0.044246
H  -2.545572  -1.152284  -0.608304
H  -2.910522  -1.454378   1.173864
C  -0.133971  -0.686084  -0.045815
H  -1.233583   0.916462   0.958594
H  -1.462379   0.687471  -0.739633
H  -0.134642  -1.079822   0.743975
H   0.801348  -0.049397  -0.043745
H  -0.186077  -1.324060  -0.957638
