butane_opt
 OpenBabel08242015393D

 14 11  0  0  0  0  0  0  0  0999 V2000
   -3.9963    0.2465    0.1016 C   0  0  0  0  0  0  0  0  0  0  0  0
   -2.6951   -0.5894   -0.0285 C   0  0  0  0  0  0  0  0  0  0  0  0
   -4.9246   -0.3615   -0.3116 H   0  0  0  0  0  0  0  0  0  0  0  0
   -3.7112    0.3067   -0.4605 H   0  0  0  0  0  0  0  0  0  0  0  0
   -4.0660    1.3113    1.2153 H   0  0  0  0  0  0  0  0  0  0  0  0
   -1.3901    0.2208   -0.1064 C   0  0  0  0  0  0  0  0  0  0  0  0
   -2.8475   -1.2324   -0.8687 H   0  0  0  0  0  0  0  0  0  0  0  0
   -2.7102   -1.2379    0.8648 H   0  0  0  0  0  0  0  0  0  0  0  0
   -0.1298   -0.7310    0.1409 C   0  0  0  0  0  0  0  0  0  0  0  0
   -1.4799    0.7257    0.6598 H   0  0  0  0  0  0  0  0  0  0  0  0
   -1.3084    1.0951   -1.1703 H   0  0  0  0  0  0  0  0  0  0  0  0
   -0.0357   -1.4534    1.0877 H   0  0  0  0  0  0  0  0  0  0  0  0
    0.7110   -0.1608   -0.0410 H   0  0  0  0  0  0  0  0  0  0  0  0
   -0.1172   -1.2562   -0.7583 H   0  0  0  0  0  0  0  0  0  0  0  0
  2  8  1  0  0  0  0
  3  1  1  0  0  0  0
  4  1  1  0  0  0  0
  6  2  1  0  0  0  0
  6  9  1  0  0  0  0
  6 10  1  0  0  0  0
  7  2  1  0  0  0  0
  9 12  1  0  0  0  0
 11  6  1  0  0  0  0
 13  9  1  0  0  0  0
 14  9  1  0  0  0  0
M  RAD  3   1   3   2   2   5   2
M  END
$$$$
