butane_opt
 OpenBabel08242015393D

 14 13  0  0  0  0  0  0  0  0999 V2000
   -3.9277    0.2429   -0.0798 C   0  0  0  0  0  0  0  0  0  0  0  0
   -2.6700   -0.5851    0.1153 C   0  0  0  0  0  0  0  0  0  0  0  0
   -4.7503   -0.3145    0.0686 H   0  0  0  0  0  0  0  0  0  0  0  0
   -3.8703    0.9668   -1.0104 H   0  0  0  0  0  0  0  0  0  0  0  0
   -4.1174    0.8684    0.6611 H   0  0  0  0  0  0  0  0  0  0  0  0
   -1.4368    0.1439    0.1438 C   0  0  0  0  0  0  0  0  0  0  0  0
   -2.6559   -1.2741   -0.7361 H   0  0  0  0  0  0  0  0  0  0  0  0
   -2.6837   -1.1929    1.0002 H   0  0  0  0  0  0  0  0  0  0  0  0
   -0.1569   -0.6948   -0.0833 C   0  0  0  0  0  0  0  0  0  0  0  0
   -1.2649    0.9120    1.1803 H   0  0  0  0  0  0  0  0  0  0  0  0
   -1.5289    0.8248   -0.7523 H   0  0  0  0  0  0  0  0  0  0  0  0
   -0.1761   -1.3569    0.9453 H   0  0  0  0  0  0  0  0  0  0  0  0
    0.7364   -0.0295   -0.2176 H   0  0  0  0  0  0  0  0  0  0  0  0
   -0.3975   -1.1683   -0.8389 H   0  0  0  0  0  0  0  0  0  0  0  0
  1  3  1  0  0  0  0
  1  2  1  0  0  0  0
  1  5  1  0  0  0  0
  2  6  1  0  0  0  0
  2  8  1  0  0  0  0
  4  1  1  0  0  0  0
  6 10  1  0  0  0  0
  7  2  1  0  0  0  0
  9  6  1  0  0  0  0
  9 12  1  0  0  0  0
 11  6  1  0  0  0  0
 13  9  1  0  0  0  0
 14  9  1  0  0  0  0
M  END
$$$$
