butane_opt
 OpenBabel08242015393D

 14 13  0  0  0  0  0  0  0  0999 V2000
   -3.8975    0.2525   -0.0580 C   0  0  0  0  0  0  0  0  0  0  0  0
   -2.6960   -0.5781    0.0882 C   0  0  0  0  0  0  0  0  0  0  0  0
   -4.9020   -0.3768   -0.0517 H   0  0  0  0  0  0  0  0  0  0  0  0
   -3.9175    1.0344   -0.9919 H   0  0  0  0  0  0  0  0  0  0  0  0
   -3.9650    0.6434    0.6540 H   0  0  0  0  0  0  0  0  0  0  0  0
   -1.3935    0.1971    0.1445 C   0  0  0  0  0  0  0  0  0  0  0  0
   -2.6321   -1.2022   -0.7271 H   0  0  0  0  0  0  0  0  0  0  0  0
   -2.7420   -1.3516    1.0207 H   0  0  0  0  0  0  0  0  0  0  0  0
   -0.2174   -0.7077   -0.0380 C   0  0  0  0  0  0  0  0  0  0  0  0
   -1.3240    0.8743    0.9873 H   0  0  0  0  0  0  0  0  0  0  0  0
   -1.5058    0.7845   -0.6781 H   0  0  0  0  0  0  0  0  0  0  0  0
    0.1196   -1.2743    0.8111 H   0  0  0  0  0  0  0  0  0  0  0  0
    0.6250   -0.1971   -0.3098 H   0  0  0  0  0  0  0  0  0  0  0  0
   -0.3142   -1.3821   -0.9458 H   0  0  0  0  0  0  0  0  0  0  0  0
  1  3  1  0  0  0  0
  1  2  1  0  0  0  0
  1  5  1  0  0  0  0
  2  6  1  0  0  0  0
  2  8  1  0  0  0  0
  4  1  1  0  0  0  0
  6 10  1  0  0  0  0
  7  2  1  0  0  0  0
  9  6  1  0  0  0  0
  9 12  1  0  0  0  0
 11  6  1  0  0  0  0
 13  9  1  0  0  0  0
 14  9  1  0  0  0  0
M  END
$$$$
