butane_opt
 OpenBabel08242015393D

 14 13  0  0  0  0  0  0  0  0999 V2000
   -3.9375    0.2684   -0.0099 C   0  0  0  0  0  0  0  0  0  0  0  0
   -2.7004   -0.6171    0.0499 C   0  0  0  0  0  0  0  0  0  0  0  0
   -4.8258   -0.3080    0.2040 H   0  0  0  0  0  0  0  0  0  0  0  0
   -4.0512    1.0573   -0.9988 H   0  0  0  0  0  0  0  0  0  0  0  0
   -3.9249    0.8126    0.7859 H   0  0  0  0  0  0  0  0  0  0  0  0
   -1.4016    0.1656    0.0421 C   0  0  0  0  0  0  0  0  0  0  0  0
   -2.6864   -1.2823   -0.7828 H   0  0  0  0  0  0  0  0  0  0  0  0
   -2.6943   -1.2651    0.9546 H   0  0  0  0  0  0  0  0  0  0  0  0
   -0.1638   -0.6865    0.0102 C   0  0  0  0  0  0  0  0  0  0  0  0
   -1.4058    0.9126    0.9546 H   0  0  0  0  0  0  0  0  0  0  0  0
   -1.3700    0.7332   -0.8285 H   0  0  0  0  0  0  0  0  0  0  0  0
   -0.1440   -1.2398    0.8618 H   0  0  0  0  0  0  0  0  0  0  0  0
    0.7550   -0.0470    0.0492 H   0  0  0  0  0  0  0  0  0  0  0  0
   -0.2362   -1.4014   -0.8893 H   0  0  0  0  0  0  0  0  0  0  0  0
  1  2  1  0  0  0  0
  1  3  1  0  0  0  0
  1  5  1  0  0  0  0
  2  8  1  0  0  0  0
  4  1  1  0  0  0  0
  6  2  1  0  0  0  0
  6 10  1  0  0  0  0
  7  2  1  0  0  0  0
  9  6  1  0  0  0  0
  9 13  1  0  0  0  0
  9 12  1  0  0  0  0
 11  6  1  0  0  0  0
 14  9  1  0  0  0  0
M  END
$$$$
