butane_opt
 OpenBabel08242015393D

 14 13  0  0  0  0  0  0  0  0999 V2000
   -3.9974    0.2815    0.0220 C   0  0  0  0  0  0  0  0  0  0  0  0
   -2.6896   -0.6368   -0.0009 C   0  0  0  0  0  0  0  0  0  0  0  0
   -4.7891   -0.2011   -0.1005 H   0  0  0  0  0  0  0  0  0  0  0  0
   -4.0453    0.7593   -0.6919 H   0  0  0  0  0  0  0  0  0  0  0  0
   -4.0584    1.0826    0.9711 H   0  0  0  0  0  0  0  0  0  0  0  0
   -1.4063    0.1552    0.0430 C   0  0  0  0  0  0  0  0  0  0  0  0
   -2.6306   -1.4626   -0.9523 H   0  0  0  0  0  0  0  0  0  0  0  0
   -2.7373   -1.2468    0.8823 H   0  0  0  0  0  0  0  0  0  0  0  0
   -0.1246   -0.6685    0.0591 C   0  0  0  0  0  0  0  0  0  0  0  0
   -1.2775    0.7653    0.8247 H   0  0  0  0  0  0  0  0  0  0  0  0
   -1.3009    0.9586   -0.8883 H   0  0  0  0  0  0  0  0  0  0  0  0
   -0.0595   -1.5528    1.1120 H   0  0  0  0  0  0  0  0  0  0  0  0
    0.8703   -0.0335   -0.5081 H   0  0  0  0  0  0  0  0  0  0  0  0
   -0.3844   -1.1004   -0.6531 H   0  0  0  0  0  0  0  0  0  0  0  0
  1  5  1  0  0  0  0
  2  1  1  0  0  0  0
  2  6  1  0  0  0  0
  2  8  1  0  0  0  0
  3  1  1  0  0  0  0
  4  1  1  0  0  0  0
  6  9  1  0  0  0  0
  6 10  1  0  0  0  0
  7  2  1  0  0  0  0
  9 12  1  0  0  0  0
 11  6  1  0  0  0  0
 13  9  1  0  0  0  0
 14  9  1  0  0  0  0
M  END
$$$$
