14
butane_opt
C  -3.964800   0.307592  -0.076190
C  -2.645910  -0.627643   0.185822
H  -4.855121  -0.274046  -0.256931
H  -3.768941   0.873423  -1.032341
H  -4.276432   0.785677   0.699910
C  -1.394840   0.125530   0.102760
H  -2.694075  -1.295349  -0.629775
H  -2.650977  -1.393872   1.127421
C  -0.199531  -0.651273  -0.084953
H  -1.250232   0.857751   1.027349
H  -1.446236   0.787809  -0.771356
H  -0.152847  -1.152548   0.691050
H   0.773122  -0.002816   0.160502
H  -0.261010  -1.496725  -1.122488
