butane_opt
 OpenBabel08242015393D

 14 12  0  0  0  0  0  0  0  0999 V2000
   -3.9681    0.2977   -0.0132 C   0  0  0  0  0  0  0  0  0  0  0  0
   -2.6942   -0.6806    0.1018 C   0  0  0  0  0  0  0  0  0  0  0  0
   -4.7261   -0.1383    0.0897 H   0  0  0  0  0  0  0  0  0  0  0  0
   -4.0628    1.0457   -1.0349 H   0  0  0  0  0  0  0  0  0  0  0  0
   -4.1535    0.8051    0.7662 H   0  0  0  0  0  0  0  0  0  0  0  0
   -1.3798    0.1594    0.0220 C   0  0  0  0  0  0  0  0  0  0  0  0
   -2.7114   -1.2333   -0.6754 H   0  0  0  0  0  0  0  0  0  0  0  0
   -2.7019   -1.4003    1.0632 H   0  0  0  0  0  0  0  0  0  0  0  0
   -0.1722   -0.6456    0.0081 C   0  0  0  0  0  0  0  0  0  0  0  0
   -1.4116    0.7009    0.8340 H   0  0  0  0  0  0  0  0  0  0  0  0
   -1.4464    0.8685   -0.9642 H   0  0  0  0  0  0  0  0  0  0  0  0
   -0.0920   -0.8920    0.5960 H   0  0  0  0  0  0  0  0  0  0  0  0
    0.8258    0.0514    0.5394 H   0  0  0  0  0  0  0  0  0  0  0  0
   -0.0250   -1.8188   -1.2435 H   0  0  0  0  0  0  0  0  0  0  0  0
  1  3  1  0  0  0  0
  1  2  1  0  0  0  0
  1  5  1  0  0  0  0
  2  8  1  0  0  0  0
  4  1  1  0  0  0  0
  6  2  1  0  0  0  0
  6 10  1  0  0  0  0
  7  2  1  0  0  0  0
  9  6  1  0  0  0  0
  9 13  1  0  0  0  0
  9 12  1  0  0  0  0
 11  6  1  0  0  0  0
M  RAD  2   9   2  14   2
M  END
$$$$
