butane_opt
 OpenBabel08242015393D

 14 11  0  0  0  0  0  0  0  0999 V2000
   -3.9645    0.2691   -0.0559 C   0  0  0  0  0  0  0  0  0  0  0  0
   -2.6963   -0.6655    0.1487 C   0  0  0  0  0  0  0  0  0  0  0  0
   -4.7400   -0.2426    0.0926 H   0  0  0  0  0  0  0  0  0  0  0  0
   -4.0035    0.9120   -1.0003 H   0  0  0  0  0  0  0  0  0  0  0  0
   -4.0010    0.8482    0.7669 H   0  0  0  0  0  0  0  0  0  0  0  0
   -1.3922    0.2040    0.0413 C   0  0  0  0  0  0  0  0  0  0  0  0
   -2.5207   -1.2145   -0.6011 H   0  0  0  0  0  0  0  0  0  0  0  0
   -2.8085   -1.2316    1.0325 H   0  0  0  0  0  0  0  0  0  0  0  0
   -0.1555   -0.6887   -0.0090 C   0  0  0  0  0  0  0  0  0  0  0  0
   -1.4071    0.8062    0.8609 H   0  0  0  0  0  0  0  0  0  0  0  0
   -1.4949    0.9758   -0.9247 H   0  0  0  0  0  0  0  0  0  0  0  0
   -0.2777   -0.8690    0.5025 H   0  0  0  0  0  0  0  0  0  0  0  0
    0.7213   -0.0909    0.3254 H   0  0  0  0  0  0  0  0  0  0  0  0
    0.0032   -1.7984   -1.1589 H   0  0  0  0  0  0  0  0  0  0  0  0
  1  3  1  0  0  0  0
  1  2  1  0  0  0  0
  1  5  1  0  0  0  0
  2  8  1  0  0  0  0
  4  1  1  0  0  0  0
  6  2  1  0  0  0  0
  6 10  1  0  0  0  0
  7  2  1  0  0  0  0
  9  6  1  0  0  0  0
  9 13  1  0  0  0  0
 11  6  1  0  0  0  0
M  RAD  3   9   3  12   2  14   2
M  END
$$$$
