14
butane_opt
C  -3.974724   0.276576  -0.057623
C  -2.694236  -0.614216   0.142144
H  -4.763531  -0.251437  -0.047092
H  -3.885512   0.959108  -1.072600
H  -4.334763   0.769954   0.611914
C  -1.407127   0.158843   0.105363
H  -2.641265  -1.375994  -0.750296
H  -2.756232  -1.266335   1.028283
C  -0.142130  -0.687383  -0.050264
H  -1.266443   0.969720   1.073869
H  -1.383588   0.721613  -0.697995
H   0.028772  -1.263321   0.821187
H   0.896481   0.015172  -0.223130
H  -0.308119  -1.332895  -0.982540
