butane_opt
 OpenBabel08242015393D

 14 13  0  0  0  0  0  0  0  0999 V2000
   -3.9651    0.2649    0.0033 C   0  0  0  0  0  0  0  0  0  0  0  0
   -2.7451   -0.6168    0.0635 C   0  0  0  0  0  0  0  0  0  0  0  0
   -4.9297   -0.3027   -0.2017 H   0  0  0  0  0  0  0  0  0  0  0  0
   -3.9323    0.7086   -0.7601 H   0  0  0  0  0  0  0  0  0  0  0  0
   -3.8967    0.9996    0.9146 H   0  0  0  0  0  0  0  0  0  0  0  0
   -1.3920    0.1946    0.0012 C   0  0  0  0  0  0  0  0  0  0  0  0
   -2.8154   -1.0618   -0.7010 H   0  0  0  0  0  0  0  0  0  0  0  0
   -2.8724   -1.3430    1.0935 H   0  0  0  0  0  0  0  0  0  0  0  0
   -0.0857   -0.7173    0.0109 C   0  0  0  0  0  0  0  0  0  0  0  0
   -1.3147    0.9544    0.8995 H   0  0  0  0  0  0  0  0  0  0  0  0
   -1.5318    0.8969   -0.9539 H   0  0  0  0  0  0  0  0  0  0  0  0
   -0.1987   -1.1837    0.9315 H   0  0  0  0  0  0  0  0  0  0  0  0
    0.8108   -0.1860    0.1617 H   0  0  0  0  0  0  0  0  0  0  0  0
   -0.0883   -1.4953   -0.8924 H   0  0  0  0  0  0  0  0  0  0  0  0
  1  2  1  0  0  0  0
  1  5  1  0  0  0  0
  2  8  1  0  0  0  0
  3  1  1  0  0  0  0
  4  1  1  0  0  0  0
  6  9  1  0  0  0  0
  6  2  1  0  0  0  0
  6 10  1  0  0  0  0
  7  2  1  0  0  0  0
  9 13  1  0  0  0  0
  9 12  1  0  0  0  0
 11  6  1  0  0  0  0
 14  9  1  0  0  0  0
M  END
$$$$
