14
butane_opt
C  -3.982196   0.293321  -0.097198
C  -2.705201  -0.666913   0.119607
H  -4.838880  -0.246963  -0.027834
H  -4.085497   1.084851  -1.119582
H  -4.045678   0.902715   0.699142
C  -1.416566   0.176741   0.172697
H  -2.695188  -1.274622  -0.728376
H  -2.717966  -1.438449   1.050812
C  -0.101765  -0.659228  -0.064189
H  -1.297927   0.922332   1.031923
H  -1.320505   0.603151  -0.534234
H   0.088468  -1.399613   0.883171
H   0.885674  -0.086284  -0.491458
H  -0.524355  -1.233544  -0.914225
