butane_opt
 OpenBabel08242015393D

 14 13  0  0  0  0  0  0  0  0999 V2000
   -3.9459    0.2519    0.0446 C   0  0  0  0  0  0  0  0  0  0  0  0
   -2.7096   -0.6185    0.0115 C   0  0  0  0  0  0  0  0  0  0  0  0
   -4.8529   -0.3366    0.0965 H   0  0  0  0  0  0  0  0  0  0  0  0
   -3.9945    0.8749   -0.8444 H   0  0  0  0  0  0  0  0  0  0  0  0
   -3.9446    0.9393    0.9263 H   0  0  0  0  0  0  0  0  0  0  0  0
   -1.4164    0.2093   -0.0193 C   0  0  0  0  0  0  0  0  0  0  0  0
   -2.7543   -1.2829   -0.8262 H   0  0  0  0  0  0  0  0  0  0  0  0
   -2.6990   -1.2049    0.8723 H   0  0  0  0  0  0  0  0  0  0  0  0
   -0.1348   -0.7036    0.0578 C   0  0  0  0  0  0  0  0  0  0  0  0
   -1.4512    0.8236    0.8023 H   0  0  0  0  0  0  0  0  0  0  0  0
   -1.3452    0.8981   -0.9655 H   0  0  0  0  0  0  0  0  0  0  0  0
   -0.1749   -1.2935    0.9371 H   0  0  0  0  0  0  0  0  0  0  0  0
    0.7563   -0.1286    0.1292 H   0  0  0  0  0  0  0  0  0  0  0  0
   -0.0771   -1.4371   -0.8295 H   0  0  0  0  0  0  0  0  0  0  0  0
  1  3  1  0  0  0  0
  1  5  1  0  0  0  0
  2  1  1  0  0  0  0
  2  8  1  0  0  0  0
  4  1  1  0  0  0  0
  6  2  1  0  0  0  0
  6  9  1  0  0  0  0
  6 10  1  0  0  0  0
  7  2  1  0  0  0  0
  9 13  1  0  0  0  0
  9 12  1  0  0  0  0
 11  6  1  0  0  0  0
 14  9  1  0  0  0  0
M  END
$$$$
