butane_opt
 OpenBabel08242015393D

 14 13  0  0  0  0  0  0  0  0999 V2000
   -3.9295    0.2316   -0.0705 C   0  0  0  0  0  0  0  0  0  0  0  0
   -2.7353   -0.5736    0.1537 C   0  0  0  0  0  0  0  0  0  0  0  0
   -4.8505   -0.3806   -0.1343 H   0  0  0  0  0  0  0  0  0  0  0  0
   -4.0793    0.7844   -0.9743 H   0  0  0  0  0  0  0  0  0  0  0  0
   -4.0099    0.8644    0.7861 H   0  0  0  0  0  0  0  0  0  0  0  0
   -1.4117    0.2045    0.0802 C   0  0  0  0  0  0  0  0  0  0  0  0
   -2.6529   -0.9758   -0.5924 H   0  0  0  0  0  0  0  0  0  0  0  0
   -2.7833   -1.3261    1.1101 H   0  0  0  0  0  0  0  0  0  0  0  0
   -0.1233   -0.7321   -0.0574 C   0  0  0  0  0  0  0  0  0  0  0  0
   -1.3327    0.8797    0.9647 H   0  0  0  0  0  0  0  0  0  0  0  0
   -1.4874    0.8959   -0.8696 H   0  0  0  0  0  0  0  0  0  0  0  0
   -0.1412   -1.0436    0.6210 H   0  0  0  0  0  0  0  0  0  0  0  0
    0.7788   -0.1375    0.2712 H   0  0  0  0  0  0  0  0  0  0  0  0
   -0.0355   -1.6271   -1.0425 H   0  0  0  0  0  0  0  0  0  0  0  0
  1  2  1  0  0  0  0
  1  5  1  0  0  0  0
  2  8  1  0  0  0  0
  3  1  1  0  0  0  0
  4  1  1  0  0  0  0
  6  2  1  0  0  0  0
  6 10  1  0  0  0  0
  7  2  1  0  0  0  0
  9  6  1  0  0  0  0
  9 13  1  0  0  0  0
  9 12  1  0  0  0  0
 11  6  1  0  0  0  0
 14  9  1  0  0  0  0
M  END
$$$$
