14
butane_opt
C  -3.904168   0.257710  -0.045614
C  -2.712891  -0.571812   0.089991
H  -4.845934  -0.369071   0.452979
H  -3.855091   1.094093  -1.096982
H  -3.789908   0.567308   0.608228
C  -1.441464   0.206042   0.090605
H  -2.695622  -1.401003  -0.903471
H  -2.784436  -1.098486   0.856295
C  -0.159023  -0.729175  -0.019177
H  -1.411344   0.893350   0.999176
H  -1.408110   0.615714  -0.744339
H  -0.185607  -1.304850   0.774909
H   0.826687  -0.070452  -0.063282
H  -0.268029  -1.314879  -0.843329
