14
butane_opt
C  -3.930725   0.260124  -0.040970
C  -2.755074  -0.619951   0.088098
H  -4.971593  -0.505457  -0.102958
H  -3.978513   0.942175  -0.920180
H  -3.945937   0.845950   0.720534
C  -1.385662   0.244633   0.114511
H  -2.753057  -1.301192  -0.788506
H  -2.774473  -1.177088   0.941174
C  -0.126403  -0.730026  -0.006432
H  -1.402332   0.973394   0.962922
H  -1.421370   0.875646  -0.886569
H   0.266462  -1.473046   0.920359
H   0.634740  -0.206114  -0.354931
H  -0.289490  -1.338220  -0.918766
