butane_opt
 OpenBabel08242015393D

 14 13  0  0  0  0  0  0  0  0999 V2000
   -3.9643    0.3208   -0.0370 C   0  0  0  0  0  0  0  0  0  0  0  0
   -2.7013   -0.6759    0.0532 C   0  0  0  0  0  0  0  0  0  0  0  0
   -4.8792   -0.2805    0.5487 H   0  0  0  0  0  0  0  0  0  0  0  0
   -4.2168    1.2295   -1.1145 H   0  0  0  0  0  0  0  0  0  0  0  0
   -3.9149    0.6820    0.6289 H   0  0  0  0  0  0  0  0  0  0  0  0
   -1.3880    0.1794    0.0777 C   0  0  0  0  0  0  0  0  0  0  0  0
   -2.7263   -1.4774   -0.8732 H   0  0  0  0  0  0  0  0  0  0  0  0
   -2.6443   -1.4390    0.9334 H   0  0  0  0  0  0  0  0  0  0  0  0
   -0.1692   -0.6747    0.0080 C   0  0  0  0  0  0  0  0  0  0  0  0
   -1.2803    0.8283    0.9324 H   0  0  0  0  0  0  0  0  0  0  0  0
   -1.1913    0.7852   -0.7890 H   0  0  0  0  0  0  0  0  0  0  0  0
   -0.0519   -0.9865    0.8010 H   0  0  0  0  0  0  0  0  0  0  0  0
    0.7615   -0.0706    0.1038 H   0  0  0  0  0  0  0  0  0  0  0  0
   -0.2149   -1.5111   -1.0071 H   0  0  0  0  0  0  0  0  0  0  0  0
  1  2  1  0  0  0  0
  1  3  1  0  0  0  0
  1  5  1  0  0  0  0
  2  6  1  0  0  0  0
  2  8  1  0  0  0  0
  4  1  1  0  0  0  0
  6 10  1  0  0  0  0
  7  2  1  0  0  0  0
  9  6  1  0  0  0  0
  9 13  1  0  0  0  0
  9 12  1  0  0  0  0
 11  6  1  0  0  0  0
 14  9  1  0  0  0  0
M  END
$$$$
