butane_opt
 OpenBabel08242015393D

 14 12  0  0  0  0  0  0  0  0999 V2000
   -3.9995    0.2988    0.1031 C   0  0  0  0  0  0  0  0  0  0  0  0
   -2.6909   -0.6431    0.0006 C   0  0  0  0  0  0  0  0  0  0  0  0
   -4.8053   -0.2593   -0.4889 H   0  0  0  0  0  0  0  0  0  0  0  0
   -3.7278    0.4792   -0.5458 H   0  0  0  0  0  0  0  0  0  0  0  0
   -4.1939    1.3842    1.2681 H   0  0  0  0  0  0  0  0  0  0  0  0
   -1.3639    0.1448   -0.1064 C   0  0  0  0  0  0  0  0  0  0  0  0
   -2.8470   -1.2435   -0.8839 H   0  0  0  0  0  0  0  0  0  0  0  0
   -2.6775   -1.3033    0.8807 H   0  0  0  0  0  0  0  0  0  0  0  0
   -0.1655   -0.6644    0.1118 C   0  0  0  0  0  0  0  0  0  0  0  0
   -1.3263    0.7119    0.6846 H   0  0  0  0  0  0  0  0  0  0  0  0
   -1.3176    0.7647   -1.0701 H   0  0  0  0  0  0  0  0  0  0  0  0
   -0.2304   -1.3920    1.1037 H   0  0  0  0  0  0  0  0  0  0  0  0
    0.7178   -0.1444   -0.0990 H   0  0  0  0  0  0  0  0  0  0  0  0
   -0.0020   -1.0902   -0.6616 H   0  0  0  0  0  0  0  0  0  0  0  0
  2  1  1  0  0  0  0
  2  8  1  0  0  0  0
  3  1  1  0  0  0  0
  4  1  1  0  0  0  0
  6  2  1  0  0  0  0
  6  9  1  0  0  0  0
  6 10  1  0  0  0  0
  7  2  1  0  0  0  0
  9 12  1  0  0  0  0
 11  6  1  0  0  0  0
 13  9  1  0  0  0  0
 14  9  1  0  0  0  0
M  RAD  2   1   2   5   2
M  END
$$$$
