14
butane_opt
C  -3.921721   0.228081  -0.084666
C  -2.695648  -0.547382   0.152757
H  -4.923918  -0.472786  -0.078529
H  -3.769270   0.819293  -0.910945
H  -3.912142   0.794073   0.719785
C  -1.444517   0.182789   0.082790
H  -2.742889  -0.996737  -0.523824
H  -2.805129  -1.298010   1.151467
C  -0.135586  -0.706019  -0.085371
H  -1.290073   0.960402   1.010361
H  -1.575738   0.867899  -0.714707
H  -0.193845  -1.192311   0.686329
H   0.653807  -0.289302   0.342164
H  -0.072277  -1.604904  -1.044027
