14
butane_opt
C  -3.961133   0.305558  -0.055764
C  -2.688360  -0.681624   0.118177
H  -4.771217  -0.188007   0.114427
H  -4.140890   1.068800  -0.992611
H  -4.084820   0.784870   0.714701
C  -1.408101   0.168410   0.036899
H  -2.699649  -1.152518  -0.589054
H  -2.717243  -1.533573   1.208102
C  -0.142116  -0.656030  -0.004828
H  -1.331981   0.871874   0.897808
H  -1.343242   0.647260  -0.804552
H  -0.276001  -0.728930   0.489142
H   0.814948  -0.036182   0.293183
H  -0.085764  -1.819492  -1.112823
