butane_opt
 OpenBabel08242015393D

 14 12  0  0  0  0  0  0  0  0999 V2000
   -3.9305    0.3029   -0.0647 C   0  0  0  0  0  0  0  0  0  0  0  0
   -2.6846   -0.6306    0.1752 C   0  0  0  0  0  0  0  0  0  0  0  0
   -4.8919   -0.2940   -0.0398 H   0  0  0  0  0  0  0  0  0  0  0  0
   -3.9487    0.8673   -0.8843 H   0  0  0  0  0  0  0  0  0  0  0  0
   -4.1054    0.8716    0.6987 H   0  0  0  0  0  0  0  0  0  0  0  0
   -1.4005    0.1199    0.0463 C   0  0  0  0  0  0  0  0  0  0  0  0
   -2.6388   -1.3034   -0.6557 H   0  0  0  0  0  0  0  0  0  0  0  0
   -2.6311   -1.2446    1.0117 H   0  0  0  0  0  0  0  0  0  0  0  0
   -0.1846   -0.6414   -0.0295 C   0  0  0  0  0  0  0  0  0  0  0  0
   -1.3446    0.6816    0.8538 H   0  0  0  0  0  0  0  0  0  0  0  0
   -1.5336    0.7982   -0.8632 H   0  0  0  0  0  0  0  0  0  0  0  0
   -0.3759   -0.9630    0.6645 H   0  0  0  0  0  0  0  0  0  0  0  0
    0.7938   -0.0208    0.2803 H   0  0  0  0  0  0  0  0  0  0  0  0
    0.0272   -1.6790   -1.1980 H   0  0  0  0  0  0  0  0  0  0  0  0
  1  3  1  0  0  0  0
  1  2  1  0  0  0  0
  1  5  1  0  0  0  0
  2  8  1  0  0  0  0
  4  1  1  0  0  0  0
  6  2  1  0  0  0  0
  6 10  1  0  0  0  0
  7  2  1  0  0  0  0
  9  6  1  0  0  0  0
  9 13  1  0  0  0  0
  9 12  1  0  0  0  0
 11  6  1  0  0  0  0
M  RAD  2   9   2  14   2
M  END
$$$$
