14
butane_opt
C  -3.935455   0.247370   0.042171
C  -2.692789  -0.594112  -0.007257
H  -4.870111  -0.352474   0.184008
H  -4.011687   0.926788  -0.878896
H  -3.836467   0.877761   0.914851
C  -1.416731   0.199310  -0.014405
H  -2.758742  -1.311140  -0.884539
H  -2.712579  -1.238574   0.884639
C  -0.157121  -0.708235   0.069400
H  -1.453738   0.877922   0.839893
H  -1.407635   0.821027  -0.890096
H  -0.146067  -1.337171   0.980814
H   0.759862  -0.088837  -0.002575
H  -0.157101  -1.374885  -0.794178
