butane_opt
 OpenBabel08242015393D

 14 13  0  0  0  0  0  0  0  0999 V2000
   -3.9429    0.2711    0.0319 C   0  0  0  0  0  0  0  0  0  0  0  0
   -2.6924   -0.6230    0.0221 C   0  0  0  0  0  0  0  0  0  0  0  0
   -4.8307   -0.3191   -0.0076 H   0  0  0  0  0  0  0  0  0  0  0  0
   -3.9544    0.8531   -0.8602 H   0  0  0  0  0  0  0  0  0  0  0  0
   -3.9658    1.0265    0.9473 H   0  0  0  0  0  0  0  0  0  0  0  0
   -1.4062    0.1629    0.0054 C   0  0  0  0  0  0  0  0  0  0  0  0
   -2.7034   -1.2993   -0.8558 H   0  0  0  0  0  0  0  0  0  0  0  0
   -2.6770   -1.2440    0.8852 H   0  0  0  0  0  0  0  0  0  0  0  0
   -0.1664   -0.6821    0.0402 C   0  0  0  0  0  0  0  0  0  0  0  0
   -1.4659    0.8417    0.8484 H   0  0  0  0  0  0  0  0  0  0  0  0
   -1.3795    0.7959   -0.8914 H   0  0  0  0  0  0  0  0  0  0  0  0
   -0.1137   -1.3876    0.9930 H   0  0  0  0  0  0  0  0  0  0  0  0
    0.7828   -0.0489   -0.0608 H   0  0  0  0  0  0  0  0  0  0  0  0
   -0.2290   -1.2241   -0.7353 H   0  0  0  0  0  0  0  0  0  0  0  0
  1  5  1  0  0  0  0
  2  1  1  0  0  0  0
  2  8  1  0  0  0  0
  3  1  1  0  0  0  0
  4  1  1  0  0  0  0
  6  2  1  0  0  0  0
  6  9  1  0  0  0  0
  6 10  1  0  0  0  0
  7  2  1  0  0  0  0
  9 12  1  0  0  0  0
 11  6  1  0  0  0  0
 13  9  1  0  0  0  0
 14  9  1  0  0  0  0
M  END
$$$$
