14
butane_opt
C  -3.974626   0.236748  -0.053302
C  -2.734859  -0.582743   0.123081
H  -4.934691  -0.454591   0.080030
H  -3.836076   1.224806  -1.276987
H  -3.991054   0.567829   0.559827
C  -1.414006   0.219321   0.146008
H  -2.674691  -1.236115  -0.791233
H  -2.905184  -1.167209   0.966175
C  -0.112793  -0.732773  -0.076520
H  -1.249779   1.124323   1.190057
H  -1.383697   0.749001  -0.683571
H   0.226161  -1.435066   0.812186
H   0.749773  -0.113632  -0.204037
H  -0.186845  -1.422674  -0.903114
