14
butane_opt
C  -3.969952   0.256042  -0.059685
C  -2.714097  -0.595802   0.094157
H  -4.943639  -0.327842   0.276954
H  -4.154025   1.127454  -1.136839
H  -3.776238   0.581873   0.598472
C  -1.412910   0.188103   0.116351
H  -2.705300  -1.297026  -0.669510
H  -2.899355  -1.278008   1.071313
C  -0.117659  -0.704102  -0.053670
H  -1.414238   0.916585   1.043497
H  -1.423255   0.883752  -0.832796
H  -0.005883  -1.055608   0.714115
H   0.812333  -0.128937   0.159221
H   0.036668  -1.615235  -1.021433
