butane_opt
 OpenBabel08242015393D

 14 13  0  0  0  0  0  0  0  0999 V2000
   -3.9187    0.2978    0.0385 C   0  0  0  0  0  0  0  0  0  0  0  0
   -2.7152   -0.6403   -0.0105 C   0  0  0  0  0  0  0  0  0  0  0  0
   -4.8390   -0.3458   -0.1323 H   0  0  0  0  0  0  0  0  0  0  0  0
   -3.9469    0.8040   -0.8085 H   0  0  0  0  0  0  0  0  0  0  0  0
   -4.0084    1.1991    1.1115 H   0  0  0  0  0  0  0  0  0  0  0  0
   -1.3990    0.1445    0.0431 C   0  0  0  0  0  0  0  0  0  0  0  0
   -2.6437   -1.3617   -0.8895 H   0  0  0  0  0  0  0  0  0  0  0  0
   -2.7420   -1.1652    0.8080 H   0  0  0  0  0  0  0  0  0  0  0  0
   -0.1803   -0.6842    0.0666 C   0  0  0  0  0  0  0  0  0  0  0  0
   -1.3204    0.6258    0.7558 H   0  0  0  0  0  0  0  0  0  0  0  0
   -1.4917    0.8349   -1.0081 H   0  0  0  0  0  0  0  0  0  0  0  0
   -0.0960   -1.4773    1.0463 H   0  0  0  0  0  0  0  0  0  0  0  0
    0.9019    0.0669   -0.4318 H   0  0  0  0  0  0  0  0  0  0  0  0
   -0.2976   -1.0237   -0.6090 H   0  0  0  0  0  0  0  0  0  0  0  0
  1  5  1  0  0  0  0
  2  1  1  0  0  0  0
  2  6  1  0  0  0  0
  2  8  1  0  0  0  0
  3  1  1  0  0  0  0
  4  1  1  0  0  0  0
  6  9  1  0  0  0  0
  6 10  1  0  0  0  0
  7  2  1  0  0  0  0
  9 12  1  0  0  0  0
 11  6  1  0  0  0  0
 13  9  1  0  0  0  0
 14  9  1  0  0  0  0
M  END
$$$$
