14
butane_opt
C  -4.005838   0.298083  -0.076645
C  -2.677736  -0.699199   0.184434
H  -4.844312  -0.201734  -0.433566
H  -3.747200   0.729977  -0.966123
H  -4.282029   1.160327   0.906296
C  -1.349946   0.179298   0.085402
H  -2.501607  -1.206189  -0.557115
H  -2.787292  -1.262148   1.101852
C  -0.188340  -0.655871  -0.056943
H  -1.335240   0.804167   0.955383
H  -1.380643   0.846485  -0.819020
H   0.139179  -1.231161   0.757886
H   0.763546  -0.087957  -0.110365
H  -0.406431  -1.487838  -1.005374
