14
butane_opt
C  -3.964340   0.320819  -0.037000
C  -2.701296  -0.675928   0.053202
H  -4.879157  -0.280494   0.548694
H  -4.216763   1.229509  -1.114476
H  -3.914865   0.682020   0.628944
C  -1.387992   0.179385   0.077734
H  -2.726346  -1.477430  -0.873186
H  -2.644273  -1.438998   0.933425
C  -0.169211  -0.674717   0.008050
H  -1.280275   0.828257   0.932406
H  -1.191299   0.785228  -0.788969
H  -0.051894  -0.986541   0.801009
H   0.761546  -0.070591   0.103812
H  -0.214850  -1.511115  -1.007115
