butane_opt
 OpenBabel08242015393D

 14 13  0  0  0  0  0  0  0  0999 V2000
   -3.9314    0.2412    0.1099 C   0  0  0  0  0  0  0  0  0  0  0  0
   -2.7355   -0.6079   -0.1125 C   0  0  0  0  0  0  0  0  0  0  0  0
   -4.9203   -0.3567    0.3313 H   0  0  0  0  0  0  0  0  0  0  0  0
   -4.0713    0.7840   -0.6690 H   0  0  0  0  0  0  0  0  0  0  0  0
   -3.8356    0.8940    0.9518 H   0  0  0  0  0  0  0  0  0  0  0  0
   -1.4200    0.2327   -0.0437 C   0  0  0  0  0  0  0  0  0  0  0  0
   -2.8634   -1.4240   -1.0434 H   0  0  0  0  0  0  0  0  0  0  0  0
   -2.6957   -1.0871    0.6552 H   0  0  0  0  0  0  0  0  0  0  0  0
   -0.1120   -0.7246    0.1339 C   0  0  0  0  0  0  0  0  0  0  0  0
   -1.4976    0.8964    0.7526 H   0  0  0  0  0  0  0  0  0  0  0  0
   -1.4567    1.0533   -1.0894 H   0  0  0  0  0  0  0  0  0  0  0  0
    0.0211   -1.5466    1.2702 H   0  0  0  0  0  0  0  0  0  0  0  0
    0.7383   -0.2441   -0.1734 H   0  0  0  0  0  0  0  0  0  0  0  0
   -0.0569   -1.1568   -0.5595 H   0  0  0  0  0  0  0  0  0  0  0  0
  1  3  1  0  0  0  0
  1  5  1  0  0  0  0
  2  6  1  0  0  0  0
  2  1  1  0  0  0  0
  2  8  1  0  0  0  0
  4  1  1  0  0  0  0
  6  9  1  0  0  0  0
  6 10  1  0  0  0  0
  7  2  1  0  0  0  0
  9 12  1  0  0  0  0
 11  6  1  0  0  0  0
 13  9  1  0  0  0  0
 14  9  1  0  0  0  0
M  END
$$$$
