14
butane_opt
C  -3.951230   0.223257   0.087902
C  -2.730888  -0.559028  -0.048583
H  -4.918791  -0.461493  -0.160851
H  -4.009251   0.466328  -0.623857
H  -4.004289   1.187366   1.142336
C  -1.411741   0.244928  -0.031945
H  -2.772314  -1.340651  -0.971263
H  -2.693360  -1.121370   0.769593
C  -0.093685  -0.751587   0.100598
H  -1.597203   0.736734   0.679459
H  -1.338789   1.024103  -0.971201
H  -0.067111  -1.656836   1.161841
H   0.812005  -0.166411  -0.383936
H  -0.138531  -1.038213  -0.450075
