butane_opt
 OpenBabel08242015393D

 14 13  0  0  0  0  0  0  0  0999 V2000
   -3.9753    0.2487   -0.0203 C   0  0  0  0  0  0  0  0  0  0  0  0
   -2.7411   -0.6335    0.0992 C   0  0  0  0  0  0  0  0  0  0  0  0
   -4.9120   -0.3191   -0.0554 H   0  0  0  0  0  0  0  0  0  0  0  0
   -3.8324    0.8579   -1.0495 H   0  0  0  0  0  0  0  0  0  0  0  0
   -3.9929    0.9997    0.8884 H   0  0  0  0  0  0  0  0  0  0  0  0
   -1.3756    0.2458    0.0311 C   0  0  0  0  0  0  0  0  0  0  0  0
   -2.6519   -1.0638   -0.5578 H   0  0  0  0  0  0  0  0  0  0  0  0
   -2.7222   -1.3623    1.1317 H   0  0  0  0  0  0  0  0  0  0  0  0
   -0.1434   -0.7176   -0.0304 C   0  0  0  0  0  0  0  0  0  0  0  0
   -1.3844    0.9316    0.8887 H   0  0  0  0  0  0  0  0  0  0  0  0
   -1.2805    0.7808   -0.8306 H   0  0  0  0  0  0  0  0  0  0  0  0
   -0.1316   -1.1757    0.7173 H   0  0  0  0  0  0  0  0  0  0  0  0
    0.7353   -0.2325    0.3410 H   0  0  0  0  0  0  0  0  0  0  0  0
   -0.0121   -1.6250   -1.0059 H   0  0  0  0  0  0  0  0  0  0  0  0
  1  2  1  0  0  0  0
  1  5  1  0  0  0  0
  2  8  1  0  0  0  0
  3  1  1  0  0  0  0
  4  1  1  0  0  0  0
  6  2  1  0  0  0  0
  6 10  1  0  0  0  0
  7  2  1  0  0  0  0
  9  6  1  0  0  0  0
  9 13  1  0  0  0  0
  9 12  1  0  0  0  0
 11  6  1  0  0  0  0
 14  9  1  0  0  0  0
M  END
$$$$
