14
butane_opt
C  -3.927532   0.312354   0.063725
C  -2.699153  -0.683063  -0.089103
H  -4.670422  -0.209194   0.219808
H  -4.051882   0.844870  -0.748631
H  -3.895490   0.999055   0.997442
C  -1.408778   0.157584   0.004818
H  -2.690844  -1.297527  -0.873846
H  -2.738881  -1.195420   0.806671
C  -0.195277  -0.677458   0.085788
H  -1.294873   0.813601   0.865753
H  -1.366675   0.786842  -0.881859
H  -0.105718  -1.567804   1.132389
H   0.824291   0.079624  -0.307889
H  -0.301681  -0.995825  -0.503802
