butane_opt
 OpenBabel08242015393D

 14 13  0  0  0  0  0  0  0  0999 V2000
   -3.9801    0.2753   -0.1107 C   0  0  0  0  0  0  0  0  0  0  0  0
   -2.6910   -0.6283    0.1735 C   0  0  0  0  0  0  0  0  0  0  0  0
   -4.7855   -0.2503   -0.1860 H   0  0  0  0  0  0  0  0  0  0  0  0
   -3.9428    1.0291   -1.0876 H   0  0  0  0  0  0  0  0  0  0  0  0
   -4.1775    0.9511    0.7502 H   0  0  0  0  0  0  0  0  0  0  0  0
   -1.3602    0.1557    0.1785 C   0  0  0  0  0  0  0  0  0  0  0  0
   -2.7184   -1.3849   -0.7426 H   0  0  0  0  0  0  0  0  0  0  0  0
   -2.8051   -1.1659    1.0136 H   0  0  0  0  0  0  0  0  0  0  0  0
   -0.1458   -0.6708   -0.0850 C   0  0  0  0  0  0  0  0  0  0  0  0
   -1.2202    0.8155    0.9972 H   0  0  0  0  0  0  0  0  0  0  0  0
   -1.6177    0.6172   -0.6656 H   0  0  0  0  0  0  0  0  0  0  0  0
   -0.0515   -1.4163    0.9492 H   0  0  0  0  0  0  0  0  0  0  0  0
    0.7975   -0.0336   -0.4792 H   0  0  0  0  0  0  0  0  0  0  0  0
   -0.3836   -1.1897   -0.9783 H   0  0  0  0  0  0  0  0  0  0  0  0
  1  2  1  0  0  0  0
  1  5  1  0  0  0  0
  2  6  1  0  0  0  0
  2  8  1  0  0  0  0
  3  1  1  0  0  0  0
  4  1  1  0  0  0  0
  6 10  1  0  0  0  0
  7  2  1  0  0  0  0
  9  6  1  0  0  0  0
  9 12  1  0  0  0  0
 11  6  1  0  0  0  0
 13  9  1  0  0  0  0
 14  9  1  0  0  0  0
M  END
$$$$
