butane_opt
 OpenBabel08242015393D

 14 13  0  0  0  0  0  0  0  0999 V2000
   -3.9503    0.2528    0.0210 C   0  0  0  0  0  0  0  0  0  0  0  0
   -2.7080   -0.6147    0.0324 C   0  0  0  0  0  0  0  0  0  0  0  0
   -4.8997   -0.3455    0.0339 H   0  0  0  0  0  0  0  0  0  0  0  0
   -3.9655    0.8470   -0.8786 H   0  0  0  0  0  0  0  0  0  0  0  0
   -3.9310    0.9582    0.9007 H   0  0  0  0  0  0  0  0  0  0  0  0
   -1.4136    0.2115    0.0152 C   0  0  0  0  0  0  0  0  0  0  0  0
   -2.7416   -1.3439   -0.8683 H   0  0  0  0  0  0  0  0  0  0  0  0
   -2.6797   -1.1743    0.8668 H   0  0  0  0  0  0  0  0  0  0  0  0
   -0.1408   -0.7038    0.0378 C   0  0  0  0  0  0  0  0  0  0  0  0
   -1.3564    0.8772    0.8721 H   0  0  0  0  0  0  0  0  0  0  0  0
   -1.4023    0.8229   -0.8907 H   0  0  0  0  0  0  0  0  0  0  0  0
   -0.0892   -1.4383    1.0154 H   0  0  0  0  0  0  0  0  0  0  0  0
    0.7241   -0.1528   -0.1156 H   0  0  0  0  0  0  0  0  0  0  0  0
   -0.1223   -1.2778   -0.7612 H   0  0  0  0  0  0  0  0  0  0  0  0
  1  2  1  0  0  0  0
  1  3  1  0  0  0  0
  1  5  1  0  0  0  0
  2  8  1  0  0  0  0
  4  1  1  0  0  0  0
  6  2  1  0  0  0  0
  6  9  1  0  0  0  0
  6 10  1  0  0  0  0
  7  2  1  0  0  0  0
  9 12  1  0  0  0  0
 11  6  1  0  0  0  0
 13  9  1  0  0  0  0
 14  9  1  0  0  0  0
M  END
$$$$
