14
butane_opt
C  -3.984441   0.299166   0.088577
C  -2.689734  -0.635203  -0.102295
H  -4.861490  -0.213674   0.569303
H  -4.334201   0.941468  -0.757800
H  -3.724806   0.933347   0.928312
C  -1.401445   0.132670  -0.071252
H  -2.789603  -1.460615  -0.983542
H  -2.553260  -1.223014   0.781442
C  -0.152033  -0.653493   0.134687
H  -1.352872   0.625726   0.711486
H  -1.225294   0.737482  -1.001232
H  -0.209450  -1.238772   1.007478
H   0.777831   0.016753   0.191788
H  -0.045436  -1.266281  -0.607354
