butane_opt
 OpenBabel08242015393D

 14 13  0  0  0  0  0  0  0  0999 V2000
   -3.9854    0.2836   -0.0807 C   0  0  0  0  0  0  0  0  0  0  0  0
   -2.6727   -0.6497    0.1713 C   0  0  0  0  0  0  0  0  0  0  0  0
   -4.8678   -0.2307   -0.3340 H   0  0  0  0  0  0  0  0  0  0  0  0
   -3.9886    0.7481   -0.8510 H   0  0  0  0  0  0  0  0  0  0  0  0
   -4.3522    1.2748    0.8635 H   0  0  0  0  0  0  0  0  0  0  0  0
   -1.3812    0.1473    0.0646 C   0  0  0  0  0  0  0  0  0  0  0  0
   -2.7030   -1.1824   -0.5433 H   0  0  0  0  0  0  0  0  0  0  0  0
   -2.8373   -1.4749    1.1541 H   0  0  0  0  0  0  0  0  0  0  0  0
   -0.1340   -0.6607   -0.0428 C   0  0  0  0  0  0  0  0  0  0  0  0
   -1.4413    0.8080    0.9376 H   0  0  0  0  0  0  0  0  0  0  0  0
   -1.3373    0.6823   -0.7080 H   0  0  0  0  0  0  0  0  0  0  0  0
   -0.1024   -1.1384    0.7422 H   0  0  0  0  0  0  0  0  0  0  0  0
    0.8731    0.0228   -0.1344 H   0  0  0  0  0  0  0  0  0  0  0  0
   -0.1938   -1.4156   -1.0455 H   0  0  0  0  0  0  0  0  0  0  0  0
  1  2  1  0  0  0  0
  1  5  1  0  0  0  0
  2  8  1  0  0  0  0
  3  1  1  0  0  0  0
  4  1  1  0  0  0  0
  6  2  1  0  0  0  0
  6 10  1  0  0  0  0
  7  2  1  0  0  0  0
  9  6  1  0  0  0  0
  9 12  1  0  0  0  0
 11  6  1  0  0  0  0
 13  9  1  0  0  0  0
 14  9  1  0  0  0  0
M  END
$$$$
