butane_opt
 OpenBabel08242015393D

 14 12  0  0  0  0  0  0  0  0999 V2000
   -3.9852    0.2975   -0.0640 C   0  0  0  0  0  0  0  0  0  0  0  0
   -2.7021   -0.6441    0.1247 C   0  0  0  0  0  0  0  0  0  0  0  0
   -4.8403   -0.2114    0.2931 H   0  0  0  0  0  0  0  0  0  0  0  0
   -4.1874    1.3520   -1.2170 H   0  0  0  0  0  0  0  0  0  0  0  0
   -3.9797    0.5523    0.5899 H   0  0  0  0  0  0  0  0  0  0  0  0
   -1.3824    0.1332    0.1081 C   0  0  0  0  0  0  0  0  0  0  0  0
   -2.6682   -1.4534   -0.8176 H   0  0  0  0  0  0  0  0  0  0  0  0
   -2.6020   -1.2854    0.9967 H   0  0  0  0  0  0  0  0  0  0  0  0
   -0.1536   -0.6512   -0.0494 C   0  0  0  0  0  0  0  0  0  0  0  0
   -1.3088    0.8561    1.0360 H   0  0  0  0  0  0  0  0  0  0  0  0
   -1.4743    0.6306   -0.7772 H   0  0  0  0  0  0  0  0  0  0  0  0
   -0.0990   -1.0031    0.6621 H   0  0  0  0  0  0  0  0  0  0  0  0
    0.8844    0.0168    0.1652 H   0  0  0  0  0  0  0  0  0  0  0  0
   -0.1014   -1.4944   -0.9935 H   0  0  0  0  0  0  0  0  0  0  0  0
  1  2  1  0  0  0  0
  1  3  1  0  0  0  0
  1  5  1  0  0  0  0
  2  8  1  0  0  0  0
  6  2  1  0  0  0  0
  6 10  1  0  0  0  0
  7  2  1  0  0  0  0
  9  6  1  0  0  0  0
  9 13  1  0  0  0  0
  9 12  1  0  0  0  0
 11  6  1  0  0  0  0
 14  9  1  0  0  0  0
M  RAD  2   1   2   4   2
M  END
$$$$
