butane_opt
 OpenBabel08242015393D

 14 13  0  0  0  0  0  0  0  0999 V2000
   -3.9144    0.2685    0.0316 C   0  0  0  0  0  0  0  0  0  0  0  0
   -2.7099   -0.6001   -0.0311 C   0  0  0  0  0  0  0  0  0  0  0  0
   -5.0295   -0.4796    0.5612 H   0  0  0  0  0  0  0  0  0  0  0  0
   -4.0856    1.1039   -0.9332 H   0  0  0  0  0  0  0  0  0  0  0  0
   -3.5465    0.7260    0.8429 H   0  0  0  0  0  0  0  0  0  0  0  0
   -1.4074    0.1728   -0.0119 C   0  0  0  0  0  0  0  0  0  0  0  0
   -2.8230   -1.2871   -0.9375 H   0  0  0  0  0  0  0  0  0  0  0  0
   -2.5919   -1.1026    0.7339 H   0  0  0  0  0  0  0  0  0  0  0  0
   -0.1716   -0.7054    0.0715 C   0  0  0  0  0  0  0  0  0  0  0  0
   -1.3718    1.0166    0.8864 H   0  0  0  0  0  0  0  0  0  0  0  0
   -1.4606    0.7589   -0.8151 H   0  0  0  0  0  0  0  0  0  0  0  0
   -0.3453   -1.3934    1.1031 H   0  0  0  0  0  0  0  0  0  0  0  0
    0.7132   -0.1529    0.0367 H   0  0  0  0  0  0  0  0  0  0  0  0
   -0.0323   -1.3243   -0.7843 H   0  0  0  0  0  0  0  0  0  0  0  0
  1  3  1  0  0  0  0
  1  5  1  0  0  0  0
  2  6  1  0  0  0  0
  2  1  1  0  0  0  0
  2  8  1  0  0  0  0
  4  1  1  0  0  0  0
  6  9  1  0  0  0  0
  6 10  1  0  0  0  0
  7  2  1  0  0  0  0
  9 12  1  0  0  0  0
 11  6  1  0  0  0  0
 13  9  1  0  0  0  0
 14  9  1  0  0  0  0
M  END
$$$$
