butane_opt
 OpenBabel08242015393D

 14 13  0  0  0  0  0  0  0  0999 V2000
   -3.9742    0.3133   -0.0495 C   0  0  0  0  0  0  0  0  0  0  0  0
   -2.7197   -0.6566    0.1078 C   0  0  0  0  0  0  0  0  0  0  0  0
   -4.9274   -0.3048    0.2936 H   0  0  0  0  0  0  0  0  0  0  0  0
   -3.9975    1.1528   -1.1376 H   0  0  0  0  0  0  0  0  0  0  0  0
   -3.8903    0.6049    0.5906 H   0  0  0  0  0  0  0  0  0  0  0  0
   -1.3745    0.1520    0.0923 C   0  0  0  0  0  0  0  0  0  0  0  0
   -2.6454   -1.3347   -0.7246 H   0  0  0  0  0  0  0  0  0  0  0  0
   -2.7601   -1.1631    0.8988 H   0  0  0  0  0  0  0  0  0  0  0  0
   -0.1547   -0.6908   -0.0206 C   0  0  0  0  0  0  0  0  0  0  0  0
   -1.2680    0.8904    0.9757 H   0  0  0  0  0  0  0  0  0  0  0  0
   -1.4733    0.7875   -0.7413 H   0  0  0  0  0  0  0  0  0  0  0  0
   -0.1526   -1.0602    0.6886 H   0  0  0  0  0  0  0  0  0  0  0  0
    0.7987    0.0178    0.0355 H   0  0  0  0  0  0  0  0  0  0  0  0
   -0.0604   -1.4726   -1.0464 H   0  0  0  0  0  0  0  0  0  0  0  0
  1  2  1  0  0  0  0
  1  3  1  0  0  0  0
  1  5  1  0  0  0  0
  2  8  1  0  0  0  0
  4  1  1  0  0  0  0
  6  2  1  0  0  0  0
  6 10  1  0  0  0  0
  7  2  1  0  0  0  0
  9 13  1  0  0  0  0
  9  6  1  0  0  0  0
  9 12  1  0  0  0  0
 11  6  1  0  0  0  0
 14  9  1  0  0  0  0
M  END
$$$$
