butane_opt
 OpenBabel08242015393D

 14 12  0  0  0  0  0  0  0  0999 V2000
   -3.9212    0.2215   -0.0593 C   0  0  0  0  0  0  0  0  0  0  0  0
   -2.7147   -0.5565    0.0928 C   0  0  0  0  0  0  0  0  0  0  0  0
   -4.9764   -0.5031    0.4126 H   0  0  0  0  0  0  0  0  0  0  0  0
   -3.8884    1.2293   -1.2295 H   0  0  0  0  0  0  0  0  0  0  0  0
   -3.7915    0.6370    0.5591 H   0  0  0  0  0  0  0  0  0  0  0  0
   -1.3982    0.2129    0.1247 C   0  0  0  0  0  0  0  0  0  0  0  0
   -2.7001   -1.2164   -0.7709 H   0  0  0  0  0  0  0  0  0  0  0  0
   -2.6949   -1.1531    0.9429 H   0  0  0  0  0  0  0  0  0  0  0  0
   -0.1571   -0.7335   -0.0469 C   0  0  0  0  0  0  0  0  0  0  0  0
   -1.4085    0.9456    1.0246 H   0  0  0  0  0  0  0  0  0  0  0  0
   -1.5160    0.7853   -0.6446 H   0  0  0  0  0  0  0  0  0  0  0  0
   -0.1881   -1.2373    0.7313 H   0  0  0  0  0  0  0  0  0  0  0  0
    0.6919   -0.2170   -0.0083 H   0  0  0  0  0  0  0  0  0  0  0  0
   -0.2115   -1.5015   -0.9573 H   0  0  0  0  0  0  0  0  0  0  0  0
  1  2  1  0  0  0  0
  1  3  1  0  0  0  0
  1  5  1  0  0  0  0
  2  6  1  0  0  0  0
  2  8  1  0  0  0  0
  6 10  1  0  0  0  0
  7  2  1  0  0  0  0
  9 13  1  0  0  0  0
  9  6  1  0  0  0  0
  9 12  1  0  0  0  0
 11  6  1  0  0  0  0
 14  9  1  0  0  0  0
M  RAD  2   1   2   4   2
M  END
$$$$
