14
butane_opt
C  -3.945637   0.298170   0.073239
C  -2.660282  -0.644243  -0.009278
H  -4.834208  -0.246518  -0.164312
H  -4.020046   0.476510  -0.514824
H  -4.102172   1.225596   1.187791
C  -1.410445   0.152808  -0.089086
H  -2.726207  -1.462681  -0.954075
H  -2.497585  -1.211349   0.856431
C  -0.192231  -0.663195   0.118128
H  -1.376602   0.629110   0.715717
H  -1.234452   0.988601  -1.142262
H  -0.278869  -1.363052   1.102481
H   0.704999  -0.029569  -0.039437
H  -0.153724  -1.205474  -0.692406
