14
butane_opt
C  -4.005130   0.294727   0.066257
C  -2.680967  -0.678512  -0.044536
H  -4.829412  -0.228335   0.509361
H  -4.306598   1.164288  -0.890179
H  -3.785993   0.837133   0.909642
C  -1.359557   0.149011  -0.055535
H  -2.768820  -1.487944  -0.976292
H  -2.530629  -1.149109   0.666386
C  -0.169243  -0.649409   0.087008
H  -1.355527   0.866641   0.826451
H  -1.361199   0.749448  -0.900315
H  -0.196530  -1.314274   1.063518
H   0.664006  -0.100810   0.266043
H   0.007099  -1.181394  -0.676609
