butane_opt
 OpenBabel08242015393D

 14 13  0  0  0  0  0  0  0  0999 V2000
   -3.8941    0.2569   -0.0504 C   0  0  0  0  0  0  0  0  0  0  0  0
   -2.6853   -0.6083    0.0801 C   0  0  0  0  0  0  0  0  0  0  0  0
   -4.8718   -0.3834   -0.1195 H   0  0  0  0  0  0  0  0  0  0  0  0
   -3.9433    0.8392   -0.8810 H   0  0  0  0  0  0  0  0  0  0  0  0
   -4.0622    0.8901    0.7992 H   0  0  0  0  0  0  0  0  0  0  0  0
   -1.4126    0.1725    0.1182 C   0  0  0  0  0  0  0  0  0  0  0  0
   -2.6874   -1.2727   -0.7952 H   0  0  0  0  0  0  0  0  0  0  0  0
   -2.6096   -1.1788    0.9654 H   0  0  0  0  0  0  0  0  0  0  0  0
   -0.2014   -0.6859   -0.0283 C   0  0  0  0  0  0  0  0  0  0  0  0
   -1.4287    0.9987    1.0434 H   0  0  0  0  0  0  0  0  0  0  0  0
   -1.4524    0.8664   -0.8306 H   0  0  0  0  0  0  0  0  0  0  0  0
    0.1763   -1.5687    0.9569 H   0  0  0  0  0  0  0  0  0  0  0  0
    0.6694   -0.1490   -0.3969 H   0  0  0  0  0  0  0  0  0  0  0  0
   -0.4745   -1.1568   -0.7161 H   0  0  0  0  0  0  0  0  0  0  0  0
  1  2  1  0  0  0  0
  1  5  1  0  0  0  0
  2  6  1  0  0  0  0
  2  8  1  0  0  0  0
  3  1  1  0  0  0  0
  4  1  1  0  0  0  0
  6 10  1  0  0  0  0
  7  2  1  0  0  0  0
  9  6  1  0  0  0  0
  9 12  1  0  0  0  0
 11  6  1  0  0  0  0
 13  9  1  0  0  0  0
 14  9  1  0  0  0  0
M  END
$$$$
