14
butane_opt
C  -3.993351   0.302535   0.132407
C  -2.699239  -0.648085  -0.122883
H  -4.906685  -0.357024   0.434866
H  -4.409377   1.186624  -0.950194
H  -3.814445   0.685748   0.850887
C  -1.367687   0.137828  -0.056929
H  -2.699476  -1.333919  -1.033592
H  -2.514522  -1.269802   0.725328
C  -0.146886  -0.658775   0.137879
H  -1.446716   0.839897   0.815036
H  -1.246152   0.757822  -0.939881
H  -0.153851  -1.276707   0.960955
H   0.732169  -0.061810   0.092881
H  -0.069226  -1.229239  -0.639412
