14
butane_opt
C  -3.901850   0.237662  -0.070551
C  -2.713162  -0.551691   0.103001
H  -4.863761  -0.407832  -0.111232
H  -3.859223   0.975299  -1.008676
H  -3.957734   0.776246   0.700566
C  -1.407442   0.181738   0.148488
H  -2.737701  -1.176661  -0.645761
H  -2.690932  -1.221772   0.984769
C  -0.172956  -0.710122  -0.053600
H  -1.465791   0.839871   1.038835
H  -1.463390   0.789623  -0.652992
H   0.002966  -1.450286   0.934255
H   0.833163  -0.114499  -0.369841
H  -0.467845  -1.370873  -0.991784
