butane_opt
 OpenBabel08242015393D

 14 13  0  0  0  0  0  0  0  0999 V2000
   -3.9201    0.2623    0.0776 C   0  0  0  0  0  0  0  0  0  0  0  0
   -2.7461   -0.5881   -0.0816 C   0  0  0  0  0  0  0  0  0  0  0  0
   -4.9094   -0.3731    0.2809 H   0  0  0  0  0  0  0  0  0  0  0  0
   -4.2217    0.8819   -0.8435 H   0  0  0  0  0  0  0  0  0  0  0  0
   -3.7425    0.7433    0.8559 H   0  0  0  0  0  0  0  0  0  0  0  0
   -1.4353    0.2185   -0.0091 C   0  0  0  0  0  0  0  0  0  0  0  0
   -2.7862   -1.3274   -0.8780 H   0  0  0  0  0  0  0  0  0  0  0  0
   -2.7815   -1.2786    0.8602 H   0  0  0  0  0  0  0  0  0  0  0  0
   -0.1057   -0.7316    0.0960 C   0  0  0  0  0  0  0  0  0  0  0  0
   -1.3552    0.9211    0.8751 H   0  0  0  0  0  0  0  0  0  0  0  0
   -1.3563    0.8706   -0.9618 H   0  0  0  0  0  0  0  0  0  0  0  0
   -0.1422   -1.4263    0.9896 H   0  0  0  0  0  0  0  0  0  0  0  0
    0.8711   -0.1503   -0.0642 H   0  0  0  0  0  0  0  0  0  0  0  0
   -0.1036   -1.2514   -0.6759 H   0  0  0  0  0  0  0  0  0  0  0  0
  1  3  1  0  0  0  0
  1  5  1  0  0  0  0
  2  6  1  0  0  0  0
  2  1  1  0  0  0  0
  2  8  1  0  0  0  0
  4  1  1  0  0  0  0
  6  9  1  0  0  0  0
  6 10  1  0  0  0  0
  7  2  1  0  0  0  0
  9 12  1  0  0  0  0
 11  6  1  0  0  0  0
 13  9  1  0  0  0  0
 14  9  1  0  0  0  0
M  END
$$$$
