14
butane_opt
C  -3.892603   0.245138   0.060375
C  -2.706501  -0.585975   0.053310
H  -4.935051  -0.420973  -0.357922
H  -3.860845   0.644471  -0.753637
H  -4.053109   1.152197   1.083299
C  -1.442962   0.165806  -0.038252
H  -2.675783  -1.267777  -0.812403
H  -2.563894  -1.037596   0.887684
C  -0.169092  -0.692588   0.048584
H  -1.405406   0.685114   0.688852
H  -1.471975   0.957808  -1.069283
H  -0.313356  -1.386857   0.933697
H   0.809461  -0.088180   0.157919
H   0.001465  -1.326442  -0.785369
