butane_opt
 OpenBabel08242015393D

 14 13  0  0  0  0  0  0  0  0999 V2000
   -3.9612    0.2787   -0.0487 C   0  0  0  0  0  0  0  0  0  0  0  0
   -2.6859   -0.6588    0.1428 C   0  0  0  0  0  0  0  0  0  0  0  0
   -4.8233   -0.1827   -0.0331 H   0  0  0  0  0  0  0  0  0  0  0  0
   -3.8651    0.9349   -0.8897 H   0  0  0  0  0  0  0  0  0  0  0  0
   -4.2589    0.8982    0.7801 H   0  0  0  0  0  0  0  0  0  0  0  0
   -1.3684    0.1760    0.0478 C   0  0  0  0  0  0  0  0  0  0  0  0
   -2.6834   -1.1857   -0.6380 H   0  0  0  0  0  0  0  0  0  0  0  0
   -2.9049   -1.2271    1.0008 H   0  0  0  0  0  0  0  0  0  0  0  0
   -0.1610   -0.6756   -0.0430 C   0  0  0  0  0  0  0  0  0  0  0  0
   -1.2480    0.8441    0.9552 H   0  0  0  0  0  0  0  0  0  0  0  0
   -1.4065    0.7766   -0.8661 H   0  0  0  0  0  0  0  0  0  0  0  0
   -0.2630   -1.1097    0.7023 H   0  0  0  0  0  0  0  0  0  0  0  0
    0.6509   -0.1327    0.2285 H   0  0  0  0  0  0  0  0  0  0  0  0
   -0.1002   -1.5509   -0.9865 H   0  0  0  0  0  0  0  0  0  0  0  0
  1  3  1  0  0  0  0
  1  2  1  0  0  0  0
  1  5  1  0  0  0  0
  2  8  1  0  0  0  0
  4  1  1  0  0  0  0
  6  2  1  0  0  0  0
  6 10  1  0  0  0  0
  7  2  1  0  0  0  0
  9  6  1  0  0  0  0
  9 13  1  0  0  0  0
  9 12  1  0  0  0  0
 11  6  1  0  0  0  0
 14  9  1  0  0  0  0
M  END
$$$$
