butane_opt
 OpenBabel08242015393D

 14 12  0  0  0  0  0  0  0  0999 V2000
   -3.9381    0.2695   -0.0414 C   0  0  0  0  0  0  0  0  0  0  0  0
   -2.7083   -0.5841    0.0697 C   0  0  0  0  0  0  0  0  0  0  0  0
   -4.9217   -0.4105    0.4047 H   0  0  0  0  0  0  0  0  0  0  0  0
   -3.9807    1.1854   -1.1616 H   0  0  0  0  0  0  0  0  0  0  0  0
   -3.7711    0.4800    0.4922 H   0  0  0  0  0  0  0  0  0  0  0  0
   -1.4100    0.1661    0.1047 C   0  0  0  0  0  0  0  0  0  0  0  0
   -2.6287   -1.3083   -0.7135 H   0  0  0  0  0  0  0  0  0  0  0  0
   -2.7534   -1.2844    1.0205 H   0  0  0  0  0  0  0  0  0  0  0  0
   -0.1638   -0.7004   -0.0632 C   0  0  0  0  0  0  0  0  0  0  0  0
   -1.4188    1.1087    1.1539 H   0  0  0  0  0  0  0  0  0  0  0  0
   -1.5212    0.6841   -0.6790 H   0  0  0  0  0  0  0  0  0  0  0  0
   -0.1306   -1.2673    0.8410 H   0  0  0  0  0  0  0  0  0  0  0  0
    0.7260   -0.0132    0.0959 H   0  0  0  0  0  0  0  0  0  0  0  0
   -0.0085   -1.4512   -0.9018 H   0  0  0  0  0  0  0  0  0  0  0  0
  1  2  1  0  0  0  0
  1  3  1  0  0  0  0
  2  6  1  0  0  0  0
  2  8  1  0  0  0  0
  4  1  1  0  0  0  0
  6 10  1  0  0  0  0
  7  2  1  0  0  0  0
  9 13  1  0  0  0  0
  9  6  1  0  0  0  0
  9 12  1  0  0  0  0
 11  6  1  0  0  0  0
 14  9  1  0  0  0  0
M  RAD  2   1   2   5   2
M  END
$$$$
