14
butane_opt
C  -3.971838   0.274571   0.111391
C  -2.699661  -0.667291  -0.100592
H  -4.675420  -0.167463   0.415013
H  -4.314296   1.106692  -0.878744
H  -3.857593   0.931927   1.072224
C  -1.386333   0.157897  -0.071232
H  -2.674915  -1.360221  -0.977981
H  -2.659750  -1.177486   0.728173
C  -0.160437  -0.662943   0.112134
H  -1.375583   0.853067   0.759752
H  -1.313857   0.734001  -0.969556
H  -0.354753  -1.403370   1.082608
H   0.781911   0.003384   0.160584
H   0.031343  -1.180706  -0.564868
