14
butane_opt
C  -3.949074   0.258660  -0.050725
C  -2.730259  -0.634756   0.133689
H  -4.866027  -0.308860   0.011551
H  -4.102174   0.907712  -1.028038
H  -4.000022   0.871475   0.732858
C  -1.396416   0.241518   0.036185
H  -2.649654  -1.117869  -0.571253
H  -2.810280  -1.406459   1.161819
C  -0.131881  -0.720018  -0.026266
H  -1.171549   0.899816   0.863633
H  -1.510276   0.804726  -0.791954
H  -0.153864  -0.979202   0.692230
H   0.779190  -0.100608   0.443753
H  -0.031459  -1.812323  -1.217067
