14
butane_opt
C  -3.950912   0.217113  -0.086115
C  -2.726612  -0.589602   0.158245
H  -4.868451  -0.359925  -0.225754
H  -3.915175   0.939331  -1.054335
H  -4.076490   0.950190   0.813105
C  -1.400705   0.240649   0.125914
H  -2.697185  -1.314231  -0.765704
H  -2.875461  -1.120367   1.080022
C  -0.131399  -0.726041  -0.084897
H  -1.172693   1.028237   1.133329
H  -1.378573   0.802482  -0.655687
H   0.039423  -1.565051   0.979013
H   0.690002  -0.312547  -0.368826
H  -0.206783  -1.252761  -0.850595
