14
butane_opt
C  -3.927267   0.258736  -0.021196
C  -2.708866  -0.603170   0.084924
H  -4.868451  -0.373710  -0.015505
H  -3.870150   0.829887  -0.863683
H  -3.961855   0.954536   0.853362
C  -1.411103   0.196239   0.040600
H  -2.683123  -1.264429  -0.762984
H  -2.790082  -1.225334   0.971733
C  -0.155572  -0.704304   0.003403
H  -1.412024   0.838147   0.879139
H  -1.440548   0.834656  -0.872339
H  -0.112710  -1.305069   0.893907
H   0.747177  -0.100051  -0.009261
H  -0.199322  -1.438121  -0.920452
