butane_opt
 OpenBabel08242015393D

 14 13  0  0  0  0  0  0  0  0999 V2000
   -3.9488    0.2266    0.0902 C   0  0  0  0  0  0  0  0  0  0  0  0
   -2.7115   -0.5617    0.0011 C   0  0  0  0  0  0  0  0  0  0  0  0
   -4.9877   -0.4847   -0.0987 H   0  0  0  0  0  0  0  0  0  0  0  0
   -3.8800    0.6924   -0.7569 H   0  0  0  0  0  0  0  0  0  0  0  0
   -3.7577    1.0449    1.0810 H   0  0  0  0  0  0  0  0  0  0  0  0
   -1.3850    0.2218   -0.0810 C   0  0  0  0  0  0  0  0  0  0  0  0
   -2.8617   -1.2831   -0.9149 H   0  0  0  0  0  0  0  0  0  0  0  0
   -2.5819   -1.0607    0.8111 H   0  0  0  0  0  0  0  0  0  0  0  0
   -0.1611   -0.7480    0.0838 C   0  0  0  0  0  0  0  0  0  0  0  0
   -1.4766    0.6857    0.6214 H   0  0  0  0  0  0  0  0  0  0  0  0
   -1.4604    1.0849   -1.0357 H   0  0  0  0  0  0  0  0  0  0  0  0
   -0.2536   -1.2816    0.9746 H   0  0  0  0  0  0  0  0  0  0  0  0
    0.6346   -0.1655    0.3391 H   0  0  0  0  0  0  0  0  0  0  0  0
    0.1066   -1.4120   -0.7115 H   0  0  0  0  0  0  0  0  0  0  0  0
  1  5  1  0  0  0  0
  2  1  1  0  0  0  0
  2  8  1  0  0  0  0
  3  1  1  0  0  0  0
  4  1  1  0  0  0  0
  6  2  1  0  0  0  0
  6  9  1  0  0  0  0
  6 10  1  0  0  0  0
  7  2  1  0  0  0  0
  9 13  1  0  0  0  0
  9 12  1  0  0  0  0
 11  6  1  0  0  0  0
 14  9  1  0  0  0  0
M  END
$$$$
