14
butane_opt
C  -3.940293   0.306242  -0.031567
C  -2.698384  -0.664532   0.162122
H  -4.726745  -0.140300  -0.338300
H  -3.711877   0.769911  -0.879627
H  -4.190673   1.030918   0.882534
C  -1.417426   0.162667   0.030571
H  -2.750152  -1.442702  -0.737028
H  -2.738482  -1.314866   0.964201
C  -0.165849  -0.673598  -0.030655
H  -1.376193   0.852458   0.897444
H  -1.274301   0.818754  -0.892566
H  -0.121477  -1.222245   0.881278
H   0.812544   0.055625   0.037387
H  -0.326898  -1.419900  -0.937487
