butane_opt
 OpenBabel08242015393D

 14 13  0  0  0  0  0  0  0  0999 V2000
   -3.9454    0.2589    0.0428 C   0  0  0  0  0  0  0  0  0  0  0  0
   -2.7124   -0.6061    0.0240 C   0  0  0  0  0  0  0  0  0  0  0  0
   -4.8329   -0.3399    0.0544 H   0  0  0  0  0  0  0  0  0  0  0  0
   -3.9793    0.8407   -0.8265 H   0  0  0  0  0  0  0  0  0  0  0  0
   -3.9786    0.9373    0.9236 H   0  0  0  0  0  0  0  0  0  0  0  0
   -1.4006    0.2038   -0.0369 C   0  0  0  0  0  0  0  0  0  0  0  0
   -2.7866   -1.3007   -0.8254 H   0  0  0  0  0  0  0  0  0  0  0  0
   -2.6931   -1.2775    0.9299 H   0  0  0  0  0  0  0  0  0  0  0  0
   -0.1468   -0.7105    0.0562 C   0  0  0  0  0  0  0  0  0  0  0  0
   -1.4271    0.8993    0.8124 H   0  0  0  0  0  0  0  0  0  0  0  0
   -1.3419    0.8132   -0.9278 H   0  0  0  0  0  0  0  0  0  0  0  0
   -0.2377   -1.2410    0.9382 H   0  0  0  0  0  0  0  0  0  0  0  0
    0.7661   -0.1287    0.1435 H   0  0  0  0  0  0  0  0  0  0  0  0
   -0.0424   -1.4281   -0.8279 H   0  0  0  0  0  0  0  0  0  0  0  0
  1  3  1  0  0  0  0
  1  5  1  0  0  0  0
  2  1  1  0  0  0  0
  2  8  1  0  0  0  0
  4  1  1  0  0  0  0
  6  2  1  0  0  0  0
  6  9  1  0  0  0  0
  6 10  1  0  0  0  0
  7  2  1  0  0  0  0
  9 13  1  0  0  0  0
  9 12  1  0  0  0  0
 11  6  1  0  0  0  0
 14  9  1  0  0  0  0
M  END
$$$$
