butane_opt
 OpenBabel08242015393D

 14 13  0  0  0  0  0  0  0  0999 V2000
   -3.9341    0.2350    0.1231 C   0  0  0  0  0  0  0  0  0  0  0  0
   -2.7095   -0.5679   -0.0413 C   0  0  0  0  0  0  0  0  0  0  0  0
   -4.9792   -0.4910    0.0946 H   0  0  0  0  0  0  0  0  0  0  0  0
   -3.9857    0.8393   -0.7683 H   0  0  0  0  0  0  0  0  0  0  0  0
   -3.6749    0.9204    1.0110 H   0  0  0  0  0  0  0  0  0  0  0  0
   -1.4240    0.2343   -0.1251 C   0  0  0  0  0  0  0  0  0  0  0  0
   -2.7931   -1.2516   -0.9232 H   0  0  0  0  0  0  0  0  0  0  0  0
   -2.6773   -1.1541    0.9166 H   0  0  0  0  0  0  0  0  0  0  0  0
   -0.1638   -0.7522    0.0927 C   0  0  0  0  0  0  0  0  0  0  0  0
   -1.4500    0.8225    0.6571 H   0  0  0  0  0  0  0  0  0  0  0  0
   -1.3349    0.8331   -1.0005 H   0  0  0  0  0  0  0  0  0  0  0  0
   -0.4135   -1.2350    1.0418 H   0  0  0  0  0  0  0  0  0  0  0  0
    0.8044   -0.0896    0.5327 H   0  0  0  0  0  0  0  0  0  0  0  0
    0.2735   -1.4781   -0.7372 H   0  0  0  0  0  0  0  0  0  0  0  0
  1  5  1  0  0  0  0
  2  1  1  0  0  0  0
  2  8  1  0  0  0  0
  3  1  1  0  0  0  0
  4  1  1  0  0  0  0
  6  2  1  0  0  0  0
  6  9  1  0  0  0  0
  6 10  1  0  0  0  0
  7  2  1  0  0  0  0
  9 13  1  0  0  0  0
  9 12  1  0  0  0  0
 11  6  1  0  0  0  0
 14  9  1  0  0  0  0
M  END
$$$$
