14
butane_opt
C  -3.909855   0.240861  -0.001466
C  -2.695534  -0.556496   0.048363
H  -4.826581  -0.378247   0.035006
H  -3.875073   0.872397  -0.937983
H  -3.920365   0.797248   0.793620
C  -1.419734   0.169698   0.023482
H  -2.838110  -1.170854  -0.850940
H  -2.775021  -1.203870   0.976075
C  -0.180016  -0.725058   0.015919
H  -1.356231   1.108681   1.110145
H  -1.548390   0.710883  -0.786048
H   0.000557  -1.423264   0.977377
H   0.873404  -0.083205  -0.165867
H  -0.300829  -1.241652  -0.734649
