14
butane_opt
C  -3.989721   0.302446  -0.007855
C  -2.702852  -0.665424   0.102027
H  -4.837523  -0.224783   0.044539
H  -3.980604   1.128936  -1.069177
H  -4.159925   0.827704   0.716094
C  -1.331230   0.141099   0.010217
H  -2.838118  -1.144374  -0.660258
H  -2.669506  -1.346844   1.068012
C  -0.165803  -0.685777  -0.007611
H  -1.330892   0.871272   0.910014
H  -1.498034   0.718022  -0.773326
H  -0.235180  -0.911071   0.598338
H   0.873916   0.062264   0.490742
H  -0.087708  -1.554023  -1.088025
