butane_opt
 OpenBabel08242015393D

 14 13  0  0  0  0  0  0  0  0999 V2000
   -3.9019    0.2377   -0.0706 C   0  0  0  0  0  0  0  0  0  0  0  0
   -2.7132   -0.5517    0.1030 C   0  0  0  0  0  0  0  0  0  0  0  0
   -4.8638   -0.4078   -0.1112 H   0  0  0  0  0  0  0  0  0  0  0  0
   -3.8592    0.9753   -1.0087 H   0  0  0  0  0  0  0  0  0  0  0  0
   -3.9577    0.7762    0.7006 H   0  0  0  0  0  0  0  0  0  0  0  0
   -1.4074    0.1817    0.1485 C   0  0  0  0  0  0  0  0  0  0  0  0
   -2.7377   -1.1767   -0.6458 H   0  0  0  0  0  0  0  0  0  0  0  0
   -2.6909   -1.2218    0.9848 H   0  0  0  0  0  0  0  0  0  0  0  0
   -0.1730   -0.7101   -0.0536 C   0  0  0  0  0  0  0  0  0  0  0  0
   -1.4658    0.8399    1.0388 H   0  0  0  0  0  0  0  0  0  0  0  0
   -1.4634    0.7896   -0.6530 H   0  0  0  0  0  0  0  0  0  0  0  0
    0.0030   -1.4503    0.9343 H   0  0  0  0  0  0  0  0  0  0  0  0
    0.8332   -0.1145   -0.3698 H   0  0  0  0  0  0  0  0  0  0  0  0
   -0.4678   -1.3709   -0.9918 H   0  0  0  0  0  0  0  0  0  0  0  0
  1  2  1  0  0  0  0
  1  5  1  0  0  0  0
  2  6  1  0  0  0  0
  2  8  1  0  0  0  0
  3  1  1  0  0  0  0
  4  1  1  0  0  0  0
  6 10  1  0  0  0  0
  7  2  1  0  0  0  0
  9  6  1  0  0  0  0
  9 12  1  0  0  0  0
 11  6  1  0  0  0  0
 13  9  1  0  0  0  0
 14  9  1  0  0  0  0
M  END
$$$$
