butane_opt
 OpenBabel08242015393D

 14 12  0  0  0  0  0  0  0  0999 V2000
   -3.9746    0.2367   -0.0533 C   0  0  0  0  0  0  0  0  0  0  0  0
   -2.7349   -0.5827    0.1231 C   0  0  0  0  0  0  0  0  0  0  0  0
   -4.9347   -0.4546    0.0800 H   0  0  0  0  0  0  0  0  0  0  0  0
   -3.8361    1.2248   -1.2770 H   0  0  0  0  0  0  0  0  0  0  0  0
   -3.9911    0.5678    0.5598 H   0  0  0  0  0  0  0  0  0  0  0  0
   -1.4140    0.2193    0.1460 C   0  0  0  0  0  0  0  0  0  0  0  0
   -2.6747   -1.2361   -0.7912 H   0  0  0  0  0  0  0  0  0  0  0  0
   -2.9052   -1.1672    0.9662 H   0  0  0  0  0  0  0  0  0  0  0  0
   -0.1128   -0.7328   -0.0765 C   0  0  0  0  0  0  0  0  0  0  0  0
   -1.2498    1.1243    1.1901 H   0  0  0  0  0  0  0  0  0  0  0  0
   -1.3837    0.7490   -0.6836 H   0  0  0  0  0  0  0  0  0  0  0  0
    0.2262   -1.4351    0.8122 H   0  0  0  0  0  0  0  0  0  0  0  0
    0.7498   -0.1136   -0.2040 H   0  0  0  0  0  0  0  0  0  0  0  0
   -0.1868   -1.4227   -0.9031 H   0  0  0  0  0  0  0  0  0  0  0  0
  1  3  1  0  0  0  0
  1  2  1  0  0  0  0
  1  5  1  0  0  0  0
  2  6  1  0  0  0  0
  2  8  1  0  0  0  0
  6 10  1  0  0  0  0
  7  2  1  0  0  0  0
  9  6  1  0  0  0  0
  9 12  1  0  0  0  0
 11  6  1  0  0  0  0
 13  9  1  0  0  0  0
 14  9  1  0  0  0  0
M  RAD  2   1   2   4   2
M  END
$$$$
