14
butane_opt
C  -3.954718   0.268463  -0.000123
C  -2.709834  -0.617303   0.035722
H  -4.834697  -0.282296   0.219321
H  -4.052199   0.993665  -0.983778
H  -3.937433   0.788310   0.781188
C  -1.387024   0.178271   0.037987
H  -2.702029  -1.278437  -0.809812
H  -2.760102  -1.274703   0.967320
C  -0.148962  -0.690847   0.015252
H  -1.358565   0.909536   0.945740
H  -1.415168   0.795394  -0.818827
H  -0.136336  -1.261643   0.905102
H   0.736410  -0.100030   0.035935
H  -0.157254  -1.422676  -0.882957
