14
butane_opt
C  -3.966837   0.269764  -0.078760
C  -2.700758  -0.653303   0.152067
H  -4.804191  -0.241696  -0.073887
H  -3.929788   0.779788  -0.872753
H  -4.170389   1.081444   0.870550
C  -1.383551   0.211638   0.051887
H  -2.617220  -1.211158  -0.640249
H  -2.846956  -1.484167   1.149492
C  -0.136215  -0.686140  -0.050679
H  -1.359910   0.990055   1.005827
H  -1.465046   0.763350  -0.795337
H  -0.192676  -1.211275   0.911997
H   0.757360  -0.100984   0.094982
H  -0.149822  -1.549496  -1.094087
