butane_opt
 OpenBabel08242015393D

 14 13  0  0  0  0  0  0  0  0999 V2000
   -3.9283    0.3202   -0.0746 C   0  0  0  0  0  0  0  0  0  0  0  0
   -2.6850   -0.6571    0.1415 C   0  0  0  0  0  0  0  0  0  0  0  0
   -4.8089   -0.3235    0.0899 H   0  0  0  0  0  0  0  0  0  0  0  0
   -4.1360    1.0639   -1.1332 H   0  0  0  0  0  0  0  0  0  0  0  0
   -3.9169    0.8000    0.6401 H   0  0  0  0  0  0  0  0  0  0  0  0
   -1.3804    0.1314    0.0869 C   0  0  0  0  0  0  0  0  0  0  0  0
   -2.6489   -1.2727   -0.6104 H   0  0  0  0  0  0  0  0  0  0  0  0
   -2.7977   -1.3798    1.1454 H   0  0  0  0  0  0  0  0  0  0  0  0
   -0.1907   -0.6621   -0.0456 C   0  0  0  0  0  0  0  0  0  0  0  0
   -1.2467    0.9354    0.9997 H   0  0  0  0  0  0  0  0  0  0  0  0
   -1.5835    0.7677   -0.7654 H   0  0  0  0  0  0  0  0  0  0  0  0
   -0.3021   -1.0582    0.6440 H   0  0  0  0  0  0  0  0  0  0  0  0
    0.8665    0.1346    0.2207 H   0  0  0  0  0  0  0  0  0  0  0  0
   -0.2582   -1.7093   -1.1350 H   0  0  0  0  0  0  0  0  0  0  0  0
  1  3  1  0  0  0  0
  1  2  1  0  0  0  0
  1  5  1  0  0  0  0
  2  8  1  0  0  0  0
  4  1  1  0  0  0  0
  6  2  1  0  0  0  0
  6 10  1  0  0  0  0
  7  2  1  0  0  0  0
  9  6  1  0  0  0  0
  9 13  1  0  0  0  0
  9 12  1  0  0  0  0
 11  6  1  0  0  0  0
 14  9  1  0  0  0  0
M  END
$$$$
