butane_opt
 OpenBabel08242015393D

 14 13  0  0  0  0  0  0  0  0999 V2000
   -3.9380    0.2314    0.0410 C   0  0  0  0  0  0  0  0  0  0  0  0
   -2.6905   -0.5686    0.0112 C   0  0  0  0  0  0  0  0  0  0  0  0
   -4.8782   -0.3662   -0.1661 H   0  0  0  0  0  0  0  0  0  0  0  0
   -4.0238    0.7924   -0.7392 H   0  0  0  0  0  0  0  0  0  0  0  0
   -4.0614    0.9611    0.8641 H   0  0  0  0  0  0  0  0  0  0  0  0
   -1.4073    0.2004    0.0229 C   0  0  0  0  0  0  0  0  0  0  0  0
   -2.8325   -1.3112   -0.9853 H   0  0  0  0  0  0  0  0  0  0  0  0
   -2.7993   -1.2565    0.9541 H   0  0  0  0  0  0  0  0  0  0  0  0
   -0.1337   -0.7149    0.0131 C   0  0  0  0  0  0  0  0  0  0  0  0
   -1.5332    1.0017    0.9232 H   0  0  0  0  0  0  0  0  0  0  0  0
   -1.3869    0.7437   -0.7686 H   0  0  0  0  0  0  0  0  0  0  0  0
   -0.0178   -1.6671    1.1663 H   0  0  0  0  0  0  0  0  0  0  0  0
    0.7503   -0.1451   -0.2986 H   0  0  0  0  0  0  0  0  0  0  0  0
   -0.1804   -1.0145   -0.5449 H   0  0  0  0  0  0  0  0  0  0  0  0
  1  5  1  0  0  0  0
  2  6  1  0  0  0  0
  2  1  1  0  0  0  0
  2  8  1  0  0  0  0
  3  1  1  0  0  0  0
  4  1  1  0  0  0  0
  6 10  1  0  0  0  0
  7  2  1  0  0  0  0
  9  6  1  0  0  0  0
  9 12  1  0  0  0  0
 11  6  1  0  0  0  0
 13  9  1  0  0  0  0
 14  9  1  0  0  0  0
M  END
$$$$
