14
butane_opt
C  -3.914496   0.238355  -0.075530
C  -2.691803  -0.567350   0.135397
H  -4.942981  -0.374326  -0.090309
H  -3.794659   1.003520  -1.080298
H  -3.994483   0.615727   0.640180
C  -1.437044   0.196452   0.137301
H  -2.632979  -1.328172  -0.787278
H  -2.618870  -1.133103   0.981000
C  -0.161126  -0.713851  -0.061021
H  -1.379944   1.054141   1.132861
H  -1.468107   0.700289  -0.584840
H   0.020794  -1.497447   0.918165
H   0.737229  -0.122087  -0.474171
H  -0.467155  -1.251237  -0.877078
