butane_opt
 OpenBabel08242015393D

 14 12  0  0  0  0  0  0  0  0999 V2000
   -3.8967    0.2281    0.0860 C   0  0  0  0  0  0  0  0  0  0  0  0
   -2.6989   -0.5761   -0.0445 C   0  0  0  0  0  0  0  0  0  0  0  0
   -4.8265   -0.3697    0.0098 H   0  0  0  0  0  0  0  0  0  0  0  0
   -3.8811    0.6954   -0.7657 H   0  0  0  0  0  0  0  0  0  0  0  0
   -3.8704    0.9924    0.9869 H   0  0  0  0  0  0  0  0  0  0  0  0
   -1.4153    0.2168   -0.0060 C   0  0  0  0  0  0  0  0  0  0  0  0
   -2.9040   -1.3951   -1.0415 H   0  0  0  0  0  0  0  0  0  0  0  0
   -2.6144   -0.8979    0.5998 H   0  0  0  0  0  0  0  0  0  0  0  0
   -0.1754   -0.7328    0.0975 C   0  0  0  0  0  0  0  0  0  0  0  0
   -1.4888    0.8605    0.7822 H   0  0  0  0  0  0  0  0  0  0  0  0
   -1.3842    0.8618   -1.0095 H   0  0  0  0  0  0  0  0  0  0  0  0
   -0.0794   -1.7268    1.2971 H   0  0  0  0  0  0  0  0  0  0  0  0
    0.5840   -0.2019   -0.4830 H   0  0  0  0  0  0  0  0  0  0  0  0
   -0.2981   -0.9423   -0.4879 H   0  0  0  0  0  0  0  0  0  0  0  0
  1  5  1  0  0  0  0
  2  6  1  0  0  0  0
  2  1  1  0  0  0  0
  2  8  1  0  0  0  0
  3  1  1  0  0  0  0
  4  1  1  0  0  0  0
  6  9  1  0  0  0  0
  6 10  1  0  0  0  0
  7  2  1  0  0  0  0
 11  6  1  0  0  0  0
 13  9  1  0  0  0  0
 14  9  1  0  0  0  0
M  RAD  2   9   2  12   2
M  END
$$$$
