14
butane_opt
C  -3.937381   0.243308   0.089100
C  -2.730267  -0.599268  -0.041027
H  -4.829333  -0.326273  -0.145418
H  -3.960256   0.714925  -0.699973
H  -4.118838   1.046621   1.026494
C  -1.380047   0.200475  -0.012591
H  -2.817645  -1.374313  -0.968842
H  -2.815927  -1.086388   0.800366
C  -0.128316  -0.709322   0.083510
H  -1.552290   0.917719   0.796354
H  -1.300358   1.004858  -1.058420
H   0.087449  -1.699677   1.131703
H   0.728585  -0.208714  -0.288748
H  -0.311752  -1.095744  -0.527870
