butane_opt
 OpenBabel08242015393D

 14 13  0  0  0  0  0  0  0  0999 V2000
   -3.9071    0.2093    0.1047 C   0  0  0  0  0  0  0  0  0  0  0  0
   -2.6663   -0.5619   -0.0409 C   0  0  0  0  0  0  0  0  0  0  0  0
   -4.8507   -0.4299   -0.1924 H   0  0  0  0  0  0  0  0  0  0  0  0
   -3.8672    0.5567   -0.6399 H   0  0  0  0  0  0  0  0  0  0  0  0
   -3.9521    1.2062    1.1146 H   0  0  0  0  0  0  0  0  0  0  0  0
   -1.4417    0.2281   -0.0832 C   0  0  0  0  0  0  0  0  0  0  0  0
   -2.7485   -1.1073   -0.8846 H   0  0  0  0  0  0  0  0  0  0  0  0
   -2.7947   -1.2580    0.9491 H   0  0  0  0  0  0  0  0  0  0  0  0
   -0.1626   -0.7075    0.1175 C   0  0  0  0  0  0  0  0  0  0  0  0
   -1.6281    0.7940    0.6453 H   0  0  0  0  0  0  0  0  0  0  0  0
   -1.3545    0.8050   -0.9683 H   0  0  0  0  0  0  0  0  0  0  0  0
   -0.2128   -1.4706    1.0700 H   0  0  0  0  0  0  0  0  0  0  0  0
    0.6584   -0.2450   -0.1088 H   0  0  0  0  0  0  0  0  0  0  0  0
   -0.1049   -1.3628   -0.6954 H   0  0  0  0  0  0  0  0  0  0  0  0
  1  5  1  0  0  0  0
  2  1  1  0  0  0  0
  2  8  1  0  0  0  0
  3  1  1  0  0  0  0
  4  1  1  0  0  0  0
  6  2  1  0  0  0  0
  6  9  1  0  0  0  0
  6 10  1  0  0  0  0
  7  2  1  0  0  0  0
  9 12  1  0  0  0  0
 11  6  1  0  0  0  0
 13  9  1  0  0  0  0
 14  9  1  0  0  0  0
M  END
$$$$
