butane_opt
 OpenBabel08242015393D

 14 13  0  0  0  0  0  0  0  0999 V2000
   -3.9374    0.2433    0.0891 C   0  0  0  0  0  0  0  0  0  0  0  0
   -2.7303   -0.5993   -0.0410 C   0  0  0  0  0  0  0  0  0  0  0  0
   -4.8293   -0.3263   -0.1454 H   0  0  0  0  0  0  0  0  0  0  0  0
   -3.9603    0.7149   -0.7000 H   0  0  0  0  0  0  0  0  0  0  0  0
   -4.1188    1.0466    1.0265 H   0  0  0  0  0  0  0  0  0  0  0  0
   -1.3800    0.2005   -0.0126 C   0  0  0  0  0  0  0  0  0  0  0  0
   -2.8176   -1.3743   -0.9688 H   0  0  0  0  0  0  0  0  0  0  0  0
   -2.8159   -1.0864    0.8004 H   0  0  0  0  0  0  0  0  0  0  0  0
   -0.1283   -0.7093    0.0835 C   0  0  0  0  0  0  0  0  0  0  0  0
   -1.5523    0.9177    0.7964 H   0  0  0  0  0  0  0  0  0  0  0  0
   -1.3004    1.0049   -1.0584 H   0  0  0  0  0  0  0  0  0  0  0  0
    0.0874   -1.6997    1.1317 H   0  0  0  0  0  0  0  0  0  0  0  0
    0.7286   -0.2087   -0.2887 H   0  0  0  0  0  0  0  0  0  0  0  0
   -0.3118   -1.0957   -0.5279 H   0  0  0  0  0  0  0  0  0  0  0  0
  1  5  1  0  0  0  0
  2  6  1  0  0  0  0
  2  1  1  0  0  0  0
  2  8  1  0  0  0  0
  3  1  1  0  0  0  0
  4  1  1  0  0  0  0
  6  9  1  0  0  0  0
  6 10  1  0  0  0  0
  7  2  1  0  0  0  0
  9 12  1  0  0  0  0
 11  6  1  0  0  0  0
 13  9  1  0  0  0  0
 14  9  1  0  0  0  0
M  END
$$$$
