butane_opt
 OpenBabel08242015393D

 14 13  0  0  0  0  0  0  0  0999 V2000
   -3.9828    0.2781    0.1086 C   0  0  0  0  0  0  0  0  0  0  0  0
   -2.6983   -0.6587   -0.0884 C   0  0  0  0  0  0  0  0  0  0  0  0
   -4.7949   -0.2498    0.5518 H   0  0  0  0  0  0  0  0  0  0  0  0
   -4.2796    1.1042   -0.9738 H   0  0  0  0  0  0  0  0  0  0  0  0
   -3.7378    0.7691    0.9518 H   0  0  0  0  0  0  0  0  0  0  0  0
   -1.3856    0.1655   -0.0628 C   0  0  0  0  0  0  0  0  0  0  0  0
   -2.5415   -1.4727   -1.0264 H   0  0  0  0  0  0  0  0  0  0  0  0
   -2.6146   -0.9743    0.6459 H   0  0  0  0  0  0  0  0  0  0  0  0
   -0.1686   -0.6630    0.1327 C   0  0  0  0  0  0  0  0  0  0  0  0
   -1.3920    0.7949    0.7423 H   0  0  0  0  0  0  0  0  0  0  0  0
   -1.2764    0.8616   -1.0241 H   0  0  0  0  0  0  0  0  0  0  0  0
   -0.1574   -1.3887    1.0598 H   0  0  0  0  0  0  0  0  0  0  0  0
    0.7288   -0.0868    0.1740 H   0  0  0  0  0  0  0  0  0  0  0  0
   -0.1385   -1.2786   -0.7291 H   0  0  0  0  0  0  0  0  0  0  0  0
  1  3  1  0  0  0  0
  1  5  1  0  0  0  0
  2  6  1  0  0  0  0
  2  1  1  0  0  0  0
  2  8  1  0  0  0  0
  4  1  1  0  0  0  0
  6  9  1  0  0  0  0
  6 10  1  0  0  0  0
  7  2  1  0  0  0  0
  9 13  1  0  0  0  0
  9 12  1  0  0  0  0
 11  6  1  0  0  0  0
 14  9  1  0  0  0  0
M  END
$$$$
