butane_opt
 OpenBabel08242015393D

 14 13  0  0  0  0  0  0  0  0999 V2000
   -3.9145    0.2384   -0.0755 C   0  0  0  0  0  0  0  0  0  0  0  0
   -2.6918   -0.5674    0.1354 C   0  0  0  0  0  0  0  0  0  0  0  0
   -4.9430   -0.3743   -0.0903 H   0  0  0  0  0  0  0  0  0  0  0  0
   -3.7947    1.0035   -1.0803 H   0  0  0  0  0  0  0  0  0  0  0  0
   -3.9945    0.6157    0.6402 H   0  0  0  0  0  0  0  0  0  0  0  0
   -1.4370    0.1965    0.1373 C   0  0  0  0  0  0  0  0  0  0  0  0
   -2.6330   -1.3282   -0.7873 H   0  0  0  0  0  0  0  0  0  0  0  0
   -2.6189   -1.1331    0.9810 H   0  0  0  0  0  0  0  0  0  0  0  0
   -0.1611   -0.7139   -0.0610 C   0  0  0  0  0  0  0  0  0  0  0  0
   -1.3799    1.0541    1.1329 H   0  0  0  0  0  0  0  0  0  0  0  0
   -1.4681    0.7003   -0.5848 H   0  0  0  0  0  0  0  0  0  0  0  0
    0.0208   -1.4974    0.9182 H   0  0  0  0  0  0  0  0  0  0  0  0
    0.7372   -0.1221   -0.4742 H   0  0  0  0  0  0  0  0  0  0  0  0
   -0.4672   -1.2512   -0.8771 H   0  0  0  0  0  0  0  0  0  0  0  0
  1  2  1  0  0  0  0
  1  5  1  0  0  0  0
  2  6  1  0  0  0  0
  2  8  1  0  0  0  0
  3  1  1  0  0  0  0
  4  1  1  0  0  0  0
  6 10  1  0  0  0  0
  7  2  1  0  0  0  0
  9  6  1  0  0  0  0
  9 12  1  0  0  0  0
 11  6  1  0  0  0  0
 13  9  1  0  0  0  0
 14  9  1  0  0  0  0
M  END
$$$$
