butane_opt
 OpenBabel08242015393D

 14 13  0  0  0  0  0  0  0  0999 V2000
   -4.0104    0.3027    0.1148 C   0  0  0  0  0  0  0  0  0  0  0  0
   -2.6732   -0.6685   -0.0114 C   0  0  0  0  0  0  0  0  0  0  0  0
   -4.9320   -0.3043   -0.2726 H   0  0  0  0  0  0  0  0  0  0  0  0
   -3.9676    0.7205   -0.6660 H   0  0  0  0  0  0  0  0  0  0  0  0
   -4.1716    1.1982    1.1171 H   0  0  0  0  0  0  0  0  0  0  0  0
   -1.3774    0.1262   -0.0828 C   0  0  0  0  0  0  0  0  0  0  0  0
   -2.7239   -1.4233   -0.8955 H   0  0  0  0  0  0  0  0  0  0  0  0
   -2.6959   -1.0130    0.7334 H   0  0  0  0  0  0  0  0  0  0  0  0
   -0.1591   -0.6438    0.0946 C   0  0  0  0  0  0  0  0  0  0  0  0
   -1.3694    0.6788    0.6375 H   0  0  0  0  0  0  0  0  0  0  0  0
   -1.2978    0.9254   -1.0567 H   0  0  0  0  0  0  0  0  0  0  0  0
   -0.1497   -1.4715    1.1124 H   0  0  0  0  0  0  0  0  0  0  0  0
    0.8207   -0.0603    0.0501 H   0  0  0  0  0  0  0  0  0  0  0  0
    0.0783   -1.1264   -0.6595 H   0  0  0  0  0  0  0  0  0  0  0  0
  1  5  1  0  0  0  0
  2  1  1  0  0  0  0
  2  8  1  0  0  0  0
  3  1  1  0  0  0  0
  4  1  1  0  0  0  0
  6  2  1  0  0  0  0
  6  9  1  0  0  0  0
  6 10  1  0  0  0  0
  7  2  1  0  0  0  0
  9 12  1  0  0  0  0
 11  6  1  0  0  0  0
 13  9  1  0  0  0  0
 14  9  1  0  0  0  0
M  END
$$$$
