butane_opt
 OpenBabel08242015393D

 14 13  0  0  0  0  0  0  0  0999 V2000
   -3.9055    0.2172   -0.0771 C   0  0  0  0  0  0  0  0  0  0  0  0
   -2.7190   -0.5761    0.1732 C   0  0  0  0  0  0  0  0  0  0  0  0
   -4.8167   -0.3329   -0.2638 H   0  0  0  0  0  0  0  0  0  0  0  0
   -3.7664    0.6717   -0.9079 H   0  0  0  0  0  0  0  0  0  0  0  0
   -4.2724    0.9877    0.8880 H   0  0  0  0  0  0  0  0  0  0  0  0
   -1.4359    0.2505    0.0592 C   0  0  0  0  0  0  0  0  0  0  0  0
   -2.6481   -1.0545   -0.5132 H   0  0  0  0  0  0  0  0  0  0  0  0
   -2.9338   -1.3294    1.1619 H   0  0  0  0  0  0  0  0  0  0  0  0
   -0.1420   -0.7288   -0.0772 C   0  0  0  0  0  0  0  0  0  0  0  0
   -1.2652    0.9684    0.9633 H   0  0  0  0  0  0  0  0  0  0  0  0
   -1.4666    0.7735   -0.6703 H   0  0  0  0  0  0  0  0  0  0  0  0
   -0.1789   -1.3280    0.7695 H   0  0  0  0  0  0  0  0  0  0  0  0
    0.7763   -0.1963    0.1089 H   0  0  0  0  0  0  0  0  0  0  0  0
    0.0048   -1.6068   -1.0228 H   0  0  0  0  0  0  0  0  0  0  0  0
  1  2  1  0  0  0  0
  1  5  1  0  0  0  0
  2  8  1  0  0  0  0
  3  1  1  0  0  0  0
  4  1  1  0  0  0  0
  6  2  1  0  0  0  0
  6 10  1  0  0  0  0
  7  2  1  0  0  0  0
  9  6  1  0  0  0  0
  9 13  1  0  0  0  0
  9 12  1  0  0  0  0
 11  6  1  0  0  0  0
 14  9  1  0  0  0  0
M  END
$$$$
