butane_opt
 OpenBabel08242015393D

 14 12  0  0  0  0  0  0  0  0999 V2000
   -3.9237    0.2848    0.0097 C   0  0  0  0  0  0  0  0  0  0  0  0
   -2.6868   -0.6272    0.0677 C   0  0  0  0  0  0  0  0  0  0  0  0
   -4.7480   -0.2782    0.1827 H   0  0  0  0  0  0  0  0  0  0  0  0
   -4.0745    0.9496   -0.9936 H   0  0  0  0  0  0  0  0  0  0  0  0
   -3.8736    0.8581    0.7910 H   0  0  0  0  0  0  0  0  0  0  0  0
   -1.3756    0.1431   -0.0320 C   0  0  0  0  0  0  0  0  0  0  0  0
   -2.6211   -1.2020   -0.6376 H   0  0  0  0  0  0  0  0  0  0  0  0
   -2.7415   -1.4238    1.0098 H   0  0  0  0  0  0  0  0  0  0  0  0
   -0.2081   -0.6623    0.0387 C   0  0  0  0  0  0  0  0  0  0  0  0
   -1.4497    0.9548    0.9492 H   0  0  0  0  0  0  0  0  0  0  0  0
   -1.3070    0.8085   -0.9023 H   0  0  0  0  0  0  0  0  0  0  0  0
   -0.4122   -0.9353    0.6792 H   0  0  0  0  0  0  0  0  0  0  0  0
    0.5904   -0.1445    0.3528 H   0  0  0  0  0  0  0  0  0  0  0  0
   -0.0571   -1.7266   -1.0609 H   0  0  0  0  0  0  0  0  0  0  0  0
  1  2  1  0  0  0  0
  1  3  1  0  0  0  0
  1  5  1  0  0  0  0
  2  8  1  0  0  0  0
  4  1  1  0  0  0  0
  6  9  1  0  0  0  0
  6  2  1  0  0  0  0
  6 10  1  0  0  0  0
  7  2  1  0  0  0  0
  9 13  1  0  0  0  0
  9 12  1  0  0  0  0
 11  6  1  0  0  0  0
M  RAD  2   9   2  14   2
M  END
$$$$
