14
butane_opt
C  -3.954578   0.260266  -0.052303
C  -2.692401  -0.610418   0.100135
H  -4.800863  -0.307815   0.185736
H  -3.952051   1.170976  -1.159938
H  -3.960779   0.511865   0.507473
C  -1.425249   0.192560   0.103290
H  -2.723380  -1.189309  -0.652752
H  -2.822286  -1.312084   1.053835
C  -0.128372  -0.679495  -0.057805
H  -1.358517   1.016288   1.129986
H  -1.442798   0.599930  -0.550215
H  -0.026294  -1.224678   0.814459
H   0.637025  -0.172797  -0.017494
H  -0.177863  -1.518149  -1.050319
