butane_opt
 OpenBabel08242015393D

 14 12  0  0  0  0  0  0  0  0999 V2000
   -3.9124    0.2315    0.1121 C   0  0  0  0  0  0  0  0  0  0  0  0
   -2.7086   -0.5638   -0.0915 C   0  0  0  0  0  0  0  0  0  0  0  0
   -4.8762   -0.3795   -0.0454 H   0  0  0  0  0  0  0  0  0  0  0  0
   -4.0251    0.6502   -0.7288 H   0  0  0  0  0  0  0  0  0  0  0  0
   -3.7298    1.0232    1.0499 H   0  0  0  0  0  0  0  0  0  0  0  0
   -1.4186    0.2462   -0.0102 C   0  0  0  0  0  0  0  0  0  0  0  0
   -2.7002   -1.4949   -1.0970 H   0  0  0  0  0  0  0  0  0  0  0  0
   -2.7514   -1.1104    0.7401 H   0  0  0  0  0  0  0  0  0  0  0  0
   -0.1642   -0.7442    0.1166 C   0  0  0  0  0  0  0  0  0  0  0  0
   -1.3866    0.7333    0.7431 H   0  0  0  0  0  0  0  0  0  0  0  0
   -1.2959    0.9919   -1.0531 H   0  0  0  0  0  0  0  0  0  0  0  0
   -0.0246   -1.7553    1.3002 H   0  0  0  0  0  0  0  0  0  0  0  0
    0.6108   -0.2071   -0.4281 H   0  0  0  0  0  0  0  0  0  0  0  0
   -0.3629   -0.9673   -0.5071 H   0  0  0  0  0  0  0  0  0  0  0  0
  1  5  1  0  0  0  0
  2  6  1  0  0  0  0
  2  1  1  0  0  0  0
  2  8  1  0  0  0  0
  3  1  1  0  0  0  0
  4  1  1  0  0  0  0
  6  9  1  0  0  0  0
  6 10  1  0  0  0  0
  7  2  1  0  0  0  0
 11  6  1  0  0  0  0
 13  9  1  0  0  0  0
 14  9  1  0  0  0  0
M  RAD  2   9   2  12   2
M  END
$$$$
