butane_opt
 OpenBabel08242015393D

 14 13  0  0  0  0  0  0  0  0999 V2000
   -3.9436    0.2736   -0.0128 C   0  0  0  0  0  0  0  0  0  0  0  0
   -2.6856   -0.6162    0.0808 C   0  0  0  0  0  0  0  0  0  0  0  0
   -4.8660   -0.3370   -0.0526 H   0  0  0  0  0  0  0  0  0  0  0  0
   -3.8757    0.8721   -0.9114 H   0  0  0  0  0  0  0  0  0  0  0  0
   -4.0164    0.9200    0.8203 H   0  0  0  0  0  0  0  0  0  0  0  0
   -1.4084    0.1689    0.0410 C   0  0  0  0  0  0  0  0  0  0  0  0
   -2.6801   -1.2994   -0.7617 H   0  0  0  0  0  0  0  0  0  0  0  0
   -2.7419   -1.2614    0.9899 H   0  0  0  0  0  0  0  0  0  0  0  0
   -0.1720   -0.6872    0.0047 C   0  0  0  0  0  0  0  0  0  0  0  0
   -1.3821    0.8687    0.9339 H   0  0  0  0  0  0  0  0  0  0  0  0
   -1.4079    0.8115   -0.8661 H   0  0  0  0  0  0  0  0  0  0  0  0
   -0.0611   -1.2736    0.8481 H   0  0  0  0  0  0  0  0  0  0  0  0
    0.7482   -0.0562   -0.0338 H   0  0  0  0  0  0  0  0  0  0  0  0
   -0.2348   -1.3825   -0.8890 H   0  0  0  0  0  0  0  0  0  0  0  0
  1  2  1  0  0  0  0
  1  5  1  0  0  0  0
  2  8  1  0  0  0  0
  3  1  1  0  0  0  0
  4  1  1  0  0  0  0
  6  2  1  0  0  0  0
  6 10  1  0  0  0  0
  7  2  1  0  0  0  0
  9  6  1  0  0  0  0
  9 12  1  0  0  0  0
 11  6  1  0  0  0  0
 13  9  1  0  0  0  0
 14  9  1  0  0  0  0
M  END
$$$$
