14
butane_opt
C  -3.961222   0.278727  -0.048709
C  -2.685888  -0.658757   0.142752
H  -4.823252  -0.182708  -0.033142
H  -3.865081   0.934907  -0.889738
H  -4.258949   0.898233   0.780084
C  -1.368429   0.175997   0.047814
H  -2.683398  -1.185695  -0.638037
H  -2.904870  -1.227132   1.000750
C  -0.160982  -0.675587  -0.043010
H  -1.248008   0.844055   0.955181
H  -1.406475   0.776560  -0.866137
H  -0.263049  -1.109719   0.702310
H   0.650881  -0.132721   0.228475
H  -0.100201  -1.550879  -0.986525
