butane_opt
 OpenBabel08242015393D

 14 13  0  0  0  0  0  0  0  0999 V2000
   -3.9616    0.2895    0.0579 C   0  0  0  0  0  0  0  0  0  0  0  0
   -2.7037   -0.6399    0.0306 C   0  0  0  0  0  0  0  0  0  0  0  0
   -4.6768   -0.1055    0.0167 H   0  0  0  0  0  0  0  0  0  0  0  0
   -4.0683    0.8508   -0.8214 H   0  0  0  0  0  0  0  0  0  0  0  0
   -4.0885    1.0451    0.9848 H   0  0  0  0  0  0  0  0  0  0  0  0
   -1.3580    0.1432   -0.0978 C   0  0  0  0  0  0  0  0  0  0  0  0
   -2.8221   -1.4070   -0.8221 H   0  0  0  0  0  0  0  0  0  0  0  0
   -2.6092   -1.3780    1.0352 H   0  0  0  0  0  0  0  0  0  0  0  0
   -0.1873   -0.6645    0.0592 C   0  0  0  0  0  0  0  0  0  0  0  0
   -1.4240    0.9037    0.7827 H   0  0  0  0  0  0  0  0  0  0  0  0
   -1.2940    0.6786   -0.8824 H   0  0  0  0  0  0  0  0  0  0  0  0
   -0.3286   -1.1488    0.8726 H   0  0  0  0  0  0  0  0  0  0  0  0
    0.8228   -0.0024    0.4221 H   0  0  0  0  0  0  0  0  0  0  0  0
   -0.0269   -1.4063   -0.7591 H   0  0  0  0  0  0  0  0  0  0  0  0
  1  5  1  0  0  0  0
  2  1  1  0  0  0  0
  2  8  1  0  0  0  0
  3  1  1  0  0  0  0
  4  1  1  0  0  0  0
  6  2  1  0  0  0  0
  6  9  1  0  0  0  0
  6 10  1  0  0  0  0
  7  2  1  0  0  0  0
  9 13  1  0  0  0  0
  9 12  1  0  0  0  0
 11  6  1  0  0  0  0
 14  9  1  0  0  0  0
M  END
$$$$
