butane_opt
 OpenBabel08242015393D

 14 13  0  0  0  0  0  0  0  0999 V2000
   -3.9952    0.2940   -0.0274 C   0  0  0  0  0  0  0  0  0  0  0  0
   -2.6864   -0.6508    0.1177 C   0  0  0  0  0  0  0  0  0  0  0  0
   -4.9456   -0.3141   -0.0501 H   0  0  0  0  0  0  0  0  0  0  0  0
   -3.9825    0.9821   -0.9095 H   0  0  0  0  0  0  0  0  0  0  0  0
   -4.1214    1.0319    0.7975 H   0  0  0  0  0  0  0  0  0  0  0  0
   -1.3522    0.1514    0.0186 C   0  0  0  0  0  0  0  0  0  0  0  0
   -2.6930   -1.3534   -0.7131 H   0  0  0  0  0  0  0  0  0  0  0  0
   -2.5223   -1.3930    1.0184 H   0  0  0  0  0  0  0  0  0  0  0  0
   -0.1812   -0.6794    0.0112 C   0  0  0  0  0  0  0  0  0  0  0  0
   -1.3636    0.8111    0.8848 H   0  0  0  0  0  0  0  0  0  0  0  0
   -1.3104    0.8750   -0.9052 H   0  0  0  0  0  0  0  0  0  0  0  0
   -0.1031   -0.9917    0.6417 H   0  0  0  0  0  0  0  0  0  0  0  0
    0.8060   -0.0177    0.2530 H   0  0  0  0  0  0  0  0  0  0  0  0
   -0.2051   -1.4868   -1.0469 H   0  0  0  0  0  0  0  0  0  0  0  0
  1  2  1  0  0  0  0
  1  5  1  0  0  0  0
  2  8  1  0  0  0  0
  3  1  1  0  0  0  0
  4  1  1  0  0  0  0
  6  2  1  0  0  0  0
  6 10  1  0  0  0  0
  7  2  1  0  0  0  0
  9  6  1  0  0  0  0
  9 13  1  0  0  0  0
  9 12  1  0  0  0  0
 11  6  1  0  0  0  0
 14  9  1  0  0  0  0
M  END
$$$$
