butane_opt
 OpenBabel08242015393D

 14 13  0  0  0  0  0  0  0  0999 V2000
   -3.8926    0.2169    0.1112 C   0  0  0  0  0  0  0  0  0  0  0  0
   -2.7033   -0.5442    0.0072 C   0  0  0  0  0  0  0  0  0  0  0  0
   -4.9400   -0.4491   -0.3690 H   0  0  0  0  0  0  0  0  0  0  0  0
   -3.7235    0.5968   -0.6311 H   0  0  0  0  0  0  0  0  0  0  0  0
   -3.9975    1.2048    1.1373 H   0  0  0  0  0  0  0  0  0  0  0  0
   -1.4510    0.2067   -0.1074 C   0  0  0  0  0  0  0  0  0  0  0  0
   -2.8331   -1.3462   -0.9980 H   0  0  0  0  0  0  0  0  0  0  0  0
   -2.7385   -1.0939    0.8034 H   0  0  0  0  0  0  0  0  0  0  0  0
   -0.1524   -0.7193    0.1164 C   0  0  0  0  0  0  0  0  0  0  0  0
   -1.6285    0.7831    0.6679 H   0  0  0  0  0  0  0  0  0  0  0  0
   -1.4847    0.7615   -1.0238 H   0  0  0  0  0  0  0  0  0  0  0  0
   -0.0574   -1.5477    1.1428 H   0  0  0  0  0  0  0  0  0  0  0  0
    0.8158   -0.1173   -0.1117 H   0  0  0  0  0  0  0  0  0  0  0  0
   -0.0519   -1.1845   -0.6607 H   0  0  0  0  0  0  0  0  0  0  0  0
  1  5  1  0  0  0  0
  2  1  1  0  0  0  0
  2  8  1  0  0  0  0
  3  1  1  0  0  0  0
  4  1  1  0  0  0  0
  6  2  1  0  0  0  0
  6  9  1  0  0  0  0
  6 10  1  0  0  0  0
  7  2  1  0  0  0  0
  9 12  1  0  0  0  0
 11  6  1  0  0  0  0
 13  9  1  0  0  0  0
 14  9  1  0  0  0  0
M  END
$$$$
