butane_opt
 OpenBabel08242015393D

 14 13  0  0  0  0  0  0  0  0999 V2000
   -3.9225    0.3021   -0.0701 C   0  0  0  0  0  0  0  0  0  0  0  0
   -2.6946   -0.6143    0.0914 C   0  0  0  0  0  0  0  0  0  0  0  0
   -4.9188   -0.3085    0.3154 H   0  0  0  0  0  0  0  0  0  0  0  0
   -4.0301    1.1253   -1.1023 H   0  0  0  0  0  0  0  0  0  0  0  0
   -3.9546    0.6655    0.5666 H   0  0  0  0  0  0  0  0  0  0  0  0
   -1.4070    0.1376    0.1595 C   0  0  0  0  0  0  0  0  0  0  0  0
   -2.5684   -1.3507   -0.7659 H   0  0  0  0  0  0  0  0  0  0  0  0
   -2.7579   -1.2283    0.9719 H   0  0  0  0  0  0  0  0  0  0  0  0
   -0.1887   -0.6764   -0.0656 C   0  0  0  0  0  0  0  0  0  0  0  0
   -1.2147    0.7552    0.9952 H   0  0  0  0  0  0  0  0  0  0  0  0
   -1.3313    0.6032   -0.7307 H   0  0  0  0  0  0  0  0  0  0  0  0
   -0.1081   -1.2495    0.7879 H   0  0  0  0  0  0  0  0  0  0  0  0
    0.7412   -0.0248   -0.0838 H   0  0  0  0  0  0  0  0  0  0  0  0
   -0.3277   -1.2261   -0.9003 H   0  0  0  0  0  0  0  0  0  0  0  0
  1  2  1  0  0  0  0
  1  3  1  0  0  0  0
  1  5  1  0  0  0  0
  2  6  1  0  0  0  0
  2  8  1  0  0  0  0
  4  1  1  0  0  0  0
  6 10  1  0  0  0  0
  7  2  1  0  0  0  0
  9  6  1  0  0  0  0
  9 12  1  0  0  0  0
 11  6  1  0  0  0  0
 13  9  1  0  0  0  0
 14  9  1  0  0  0  0
M  END
$$$$
