14
butane_opt
C  -3.978683   0.291176   0.086626
C  -2.687816  -0.697424  -0.067665
H  -4.812928  -0.220613   0.564036
H  -4.336527   1.193961  -0.986375
H  -3.828761   0.815888   0.800496
C  -1.409585   0.186190  -0.043747
H  -2.710528  -1.381592  -0.901428
H  -2.595586  -1.215853   0.662784
C  -0.158217  -0.661252   0.114741
H  -1.488671   0.918717   0.822450
H  -1.127795   0.685849  -0.927704
H  -0.163499  -1.253211   0.956885
H   0.848450  -0.009895   0.035809
H  -0.022609  -1.389386  -0.707564
