butane_opt
 OpenBabel08242015393D

 14 13  0  0  0  0  0  0  0  0999 V2000
   -3.9354    0.2690    0.0294 C   0  0  0  0  0  0  0  0  0  0  0  0
   -2.6978   -0.6162    0.0272 C   0  0  0  0  0  0  0  0  0  0  0  0
   -4.8572   -0.3573   -0.0562 H   0  0  0  0  0  0  0  0  0  0  0  0
   -3.9997    0.7712   -0.7954 H   0  0  0  0  0  0  0  0  0  0  0  0
   -3.9390    1.0358    0.9713 H   0  0  0  0  0  0  0  0  0  0  0  0
   -1.4129    0.1757   -0.0107 C   0  0  0  0  0  0  0  0  0  0  0  0
   -2.7080   -1.2754   -0.8078 H   0  0  0  0  0  0  0  0  0  0  0  0
   -2.6730   -1.2697    0.9488 H   0  0  0  0  0  0  0  0  0  0  0  0
   -0.1616   -0.6878    0.0479 C   0  0  0  0  0  0  0  0  0  0  0  0
   -1.4053    0.8331    0.8321 H   0  0  0  0  0  0  0  0  0  0  0  0
   -1.4013    0.8728   -0.9544 H   0  0  0  0  0  0  0  0  0  0  0  0
   -0.1855   -1.3492    0.9492 H   0  0  0  0  0  0  0  0  0  0  0  0
    0.7660   -0.0690    0.0481 H   0  0  0  0  0  0  0  0  0  0  0  0
   -0.1285   -1.3546   -0.8137 H   0  0  0  0  0  0  0  0  0  0  0  0
  1  5  1  0  0  0  0
  2  1  1  0  0  0  0
  2  8  1  0  0  0  0
  3  1  1  0  0  0  0
  4  1  1  0  0  0  0
  6  2  1  0  0  0  0
  6  9  1  0  0  0  0
  6 10  1  0  0  0  0
  7  2  1  0  0  0  0
  9 13  1  0  0  0  0
  9 12  1  0  0  0  0
 11  6  1  0  0  0  0
 14  9  1  0  0  0  0
M  END
$$$$
