butane_opt
 OpenBabel08242015393D

 14 13  0  0  0  0  0  0  0  0999 V2000
   -4.0058    0.2981   -0.0766 C   0  0  0  0  0  0  0  0  0  0  0  0
   -2.6777   -0.6992    0.1844 C   0  0  0  0  0  0  0  0  0  0  0  0
   -4.8443   -0.2017   -0.4336 H   0  0  0  0  0  0  0  0  0  0  0  0
   -3.7472    0.7300   -0.9661 H   0  0  0  0  0  0  0  0  0  0  0  0
   -4.2820    1.1603    0.9063 H   0  0  0  0  0  0  0  0  0  0  0  0
   -1.3499    0.1793    0.0854 C   0  0  0  0  0  0  0  0  0  0  0  0
   -2.5016   -1.2062   -0.5571 H   0  0  0  0  0  0  0  0  0  0  0  0
   -2.7873   -1.2621    1.1019 H   0  0  0  0  0  0  0  0  0  0  0  0
   -0.1883   -0.6559   -0.0569 C   0  0  0  0  0  0  0  0  0  0  0  0
   -1.3352    0.8042    0.9554 H   0  0  0  0  0  0  0  0  0  0  0  0
   -1.3806    0.8465   -0.8190 H   0  0  0  0  0  0  0  0  0  0  0  0
    0.1392   -1.2312    0.7579 H   0  0  0  0  0  0  0  0  0  0  0  0
    0.7635   -0.0880   -0.1104 H   0  0  0  0  0  0  0  0  0  0  0  0
   -0.4064   -1.4878   -1.0054 H   0  0  0  0  0  0  0  0  0  0  0  0
  1  2  1  0  0  0  0
  1  5  1  0  0  0  0
  2  8  1  0  0  0  0
  3  1  1  0  0  0  0
  4  1  1  0  0  0  0
  6  2  1  0  0  0  0
  6 10  1  0  0  0  0
  7  2  1  0  0  0  0
  9  6  1  0  0  0  0
  9 12  1  0  0  0  0
 11  6  1  0  0  0  0
 13  9  1  0  0  0  0
 14  9  1  0  0  0  0
M  END
$$$$
