14
butane_opt
C  -3.985216   0.297451  -0.064032
C  -2.702081  -0.644138   0.124651
H  -4.840260  -0.211382   0.293116
H  -4.187427   1.352033  -1.217001
H  -3.979749   0.552290   0.589880
C  -1.382368   0.133191   0.108128
H  -2.668153  -1.453411  -0.817579
H  -2.601995  -1.285405   0.996710
C  -0.153607  -0.651222  -0.049384
H  -1.308800   0.856087   1.036009
H  -1.474333   0.630574  -0.777199
H  -0.098965  -1.003124   0.662079
H   0.884417   0.016777   0.165155
H  -0.101389  -1.494433  -0.993495
