butane_opt
 OpenBabel08242015393D

 14 13  0  0  0  0  0  0  0  0999 V2000
   -3.9509    0.2171   -0.0861 C   0  0  0  0  0  0  0  0  0  0  0  0
   -2.7266   -0.5896    0.1582 C   0  0  0  0  0  0  0  0  0  0  0  0
   -4.8685   -0.3599   -0.2258 H   0  0  0  0  0  0  0  0  0  0  0  0
   -3.9152    0.9393   -1.0543 H   0  0  0  0  0  0  0  0  0  0  0  0
   -4.0765    0.9502    0.8131 H   0  0  0  0  0  0  0  0  0  0  0  0
   -1.4007    0.2406    0.1259 C   0  0  0  0  0  0  0  0  0  0  0  0
   -2.6972   -1.3142   -0.7657 H   0  0  0  0  0  0  0  0  0  0  0  0
   -2.8755   -1.1204    1.0800 H   0  0  0  0  0  0  0  0  0  0  0  0
   -0.1314   -0.7260   -0.0849 C   0  0  0  0  0  0  0  0  0  0  0  0
   -1.1727    1.0282    1.1333 H   0  0  0  0  0  0  0  0  0  0  0  0
   -1.3786    0.8025   -0.6557 H   0  0  0  0  0  0  0  0  0  0  0  0
    0.0394   -1.5651    0.9790 H   0  0  0  0  0  0  0  0  0  0  0  0
    0.6900   -0.3125   -0.3688 H   0  0  0  0  0  0  0  0  0  0  0  0
   -0.2068   -1.2528   -0.8506 H   0  0  0  0  0  0  0  0  0  0  0  0
  1  2  1  0  0  0  0
  1  5  1  0  0  0  0
  2  8  1  0  0  0  0
  3  1  1  0  0  0  0
  4  1  1  0  0  0  0
  6  2  1  0  0  0  0
  6 10  1  0  0  0  0
  7  2  1  0  0  0  0
  9  6  1  0  0  0  0
  9 12  1  0  0  0  0
 11  6  1  0  0  0  0
 13  9  1  0  0  0  0
 14  9  1  0  0  0  0
M  END
$$$$
