butane_opt
 OpenBabel08242015393D

 14 13  0  0  0  0  0  0  0  0999 V2000
   -3.8727    0.2415    0.0124 C   0  0  0  0  0  0  0  0  0  0  0  0
   -2.7099   -0.5896    0.0384 C   0  0  0  0  0  0  0  0  0  0  0  0
   -4.8475   -0.3554   -0.0499 H   0  0  0  0  0  0  0  0  0  0  0  0
   -3.8299    0.4846   -0.6650 H   0  0  0  0  0  0  0  0  0  0  0  0
   -3.8202    1.1479    0.9870 H   0  0  0  0  0  0  0  0  0  0  0  0
   -1.4544    0.2287   -0.0284 C   0  0  0  0  0  0  0  0  0  0  0  0
   -2.8353   -1.1311   -0.7561 H   0  0  0  0  0  0  0  0  0  0  0  0
   -2.7510   -1.2890    0.9684 H   0  0  0  0  0  0  0  0  0  0  0  0
   -0.1604   -0.7225    0.0474 C   0  0  0  0  0  0  0  0  0  0  0  0
   -1.4543    0.8458    0.8294 H   0  0  0  0  0  0  0  0  0  0  0  0
   -1.4748    0.8856   -0.9304 H   0  0  0  0  0  0  0  0  0  0  0  0
   -0.2258   -1.3968    1.0158 H   0  0  0  0  0  0  0  0  0  0  0  0
    0.7244   -0.2251    0.0781 H   0  0  0  0  0  0  0  0  0  0  0  0
   -0.1392   -1.3587   -0.8391 H   0  0  0  0  0  0  0  0  0  0  0  0
  1  2  1  0  0  0  0
  1  5  1  0  0  0  0
  2  8  1  0  0  0  0
  3  1  1  0  0  0  0
  4  1  1  0  0  0  0
  6  2  1  0  0  0  0
  6  9  1  0  0  0  0
  6 10  1  0  0  0  0
  7  2  1  0  0  0  0
  9 13  1  0  0  0  0
  9 12  1  0  0  0  0
 11  6  1  0  0  0  0
 14  9  1  0  0  0  0
M  END
$$$$
