14
butane_opt
C  -3.892469   0.256610  -0.015141
C  -2.728858  -0.593884   0.061430
H  -4.830891  -0.469699   0.440897
H  -3.990945   1.183892  -1.105947
H  -3.706453   0.521979   0.554888
C  -1.416132   0.212273   0.053492
H  -2.707013  -1.403631  -0.827557
H  -2.749965  -1.095510   0.926409
C  -0.168242  -0.716929  -0.002725
H  -1.312343   0.962344   1.022910
H  -1.545512   0.892209  -0.895873
H  -0.124137  -1.122875   0.836620
H   0.605924  -0.259716   0.266368
H  -0.184289  -1.598037  -0.980757
