butane_opt
 OpenBabel08242015393D

 14 12  0  0  0  0  0  0  0  0999 V2000
   -3.9491    0.2587   -0.0507 C   0  0  0  0  0  0  0  0  0  0  0  0
   -2.7303   -0.6348    0.1337 C   0  0  0  0  0  0  0  0  0  0  0  0
   -4.8660   -0.3089    0.0116 H   0  0  0  0  0  0  0  0  0  0  0  0
   -4.1022    0.9077   -1.0280 H   0  0  0  0  0  0  0  0  0  0  0  0
   -4.0000    0.8715    0.7329 H   0  0  0  0  0  0  0  0  0  0  0  0
   -1.3964    0.2415    0.0362 C   0  0  0  0  0  0  0  0  0  0  0  0
   -2.6497   -1.1179   -0.5713 H   0  0  0  0  0  0  0  0  0  0  0  0
   -2.8103   -1.4065    1.1618 H   0  0  0  0  0  0  0  0  0  0  0  0
   -0.1319   -0.7200   -0.0263 C   0  0  0  0  0  0  0  0  0  0  0  0
   -1.1715    0.8998    0.8636 H   0  0  0  0  0  0  0  0  0  0  0  0
   -1.5103    0.8047   -0.7920 H   0  0  0  0  0  0  0  0  0  0  0  0
   -0.1539   -0.9792    0.6922 H   0  0  0  0  0  0  0  0  0  0  0  0
    0.7792   -0.1006    0.4438 H   0  0  0  0  0  0  0  0  0  0  0  0
   -0.0315   -1.8123   -1.2171 H   0  0  0  0  0  0  0  0  0  0  0  0
  1  3  1  0  0  0  0
  1  2  1  0  0  0  0
  1  5  1  0  0  0  0
  2  8  1  0  0  0  0
  4  1  1  0  0  0  0
  6  2  1  0  0  0  0
  6 10  1  0  0  0  0
  7  2  1  0  0  0  0
  9  6  1  0  0  0  0
  9 13  1  0  0  0  0
  9 12  1  0  0  0  0
 11  6  1  0  0  0  0
M  RAD  2   9   2  14   2
M  END
$$$$
