14
butane_opt
C  -3.975340   0.248721  -0.020293
C  -2.741099  -0.633455   0.099242
H  -4.912026  -0.319080  -0.055395
H  -3.832416   0.857884  -1.049473
H  -3.992883   0.999704   0.888407
C  -1.375575   0.245830   0.031097
H  -2.651877  -1.063768  -0.557787
H  -2.722244  -1.362329   1.131686
C  -0.143362  -0.717569  -0.030412
H  -1.384352   0.931608   0.888676
H  -1.280504   0.780815  -0.830586
H  -0.131650  -1.175727   0.717281
H   0.735251  -0.232508   0.340953
H  -0.012076  -1.625032  -1.005944
