butane_opt
 OpenBabel08242015393D

 14 13  0  0  0  0  0  0  0  0999 V2000
   -3.9403    0.3062   -0.0316 C   0  0  0  0  0  0  0  0  0  0  0  0
   -2.6984   -0.6645    0.1621 C   0  0  0  0  0  0  0  0  0  0  0  0
   -4.7267   -0.1403   -0.3383 H   0  0  0  0  0  0  0  0  0  0  0  0
   -3.7119    0.7699   -0.8796 H   0  0  0  0  0  0  0  0  0  0  0  0
   -4.1907    1.0309    0.8825 H   0  0  0  0  0  0  0  0  0  0  0  0
   -1.4174    0.1627    0.0306 C   0  0  0  0  0  0  0  0  0  0  0  0
   -2.7502   -1.4427   -0.7370 H   0  0  0  0  0  0  0  0  0  0  0  0
   -2.7385   -1.3149    0.9642 H   0  0  0  0  0  0  0  0  0  0  0  0
   -0.1658   -0.6736   -0.0307 C   0  0  0  0  0  0  0  0  0  0  0  0
   -1.3762    0.8525    0.8974 H   0  0  0  0  0  0  0  0  0  0  0  0
   -1.2743    0.8188   -0.8926 H   0  0  0  0  0  0  0  0  0  0  0  0
   -0.1215   -1.2222    0.8813 H   0  0  0  0  0  0  0  0  0  0  0  0
    0.8125    0.0556    0.0374 H   0  0  0  0  0  0  0  0  0  0  0  0
   -0.3269   -1.4199   -0.9375 H   0  0  0  0  0  0  0  0  0  0  0  0
  1  2  1  0  0  0  0
  1  5  1  0  0  0  0
  2  8  1  0  0  0  0
  3  1  1  0  0  0  0
  4  1  1  0  0  0  0
  6  2  1  0  0  0  0
  6 10  1  0  0  0  0
  7  2  1  0  0  0  0
  9  6  1  0  0  0  0
  9 13  1  0  0  0  0
  9 12  1  0  0  0  0
 11  6  1  0  0  0  0
 14  9  1  0  0  0  0
M  END
$$$$
