14
butane_opt
C  -3.934630   0.273752  -0.088779
C  -2.672158  -0.586763   0.123058
H  -4.761226  -0.273442  -0.012550
H  -3.778722   0.934058  -1.071438
H  -4.057310   0.831227   0.731503
C  -1.400009   0.135993   0.158125
H  -2.660276  -1.329083  -0.758937
H  -2.858965  -1.244369   1.069342
C  -0.194995  -0.681073  -0.050602
H  -1.412481   0.961564   1.107907
H  -1.378435   0.644795  -0.757150
H   0.104949  -1.455224   0.898270
H   0.797772   0.014423  -0.511250
H  -0.620082  -1.221354  -0.941849
