butane_opt
 OpenBabel08242015393D

 14 13  0  0  0  0  0  0  0  0999 V2000
   -3.9363    0.2498    0.0032 C   0  0  0  0  0  0  0  0  0  0  0  0
   -2.6934   -0.6091    0.0556 C   0  0  0  0  0  0  0  0  0  0  0  0
   -4.8087   -0.3343    0.0667 H   0  0  0  0  0  0  0  0  0  0  0  0
   -3.9682    0.8932   -0.9055 H   0  0  0  0  0  0  0  0  0  0  0  0
   -3.9195    0.8872    0.8369 H   0  0  0  0  0  0  0  0  0  0  0  0
   -1.4152    0.1956    0.0237 C   0  0  0  0  0  0  0  0  0  0  0  0
   -2.7168   -1.2716   -0.7845 H   0  0  0  0  0  0  0  0  0  0  0  0
   -2.7596   -1.1830    0.9430 H   0  0  0  0  0  0  0  0  0  0  0  0
   -0.1624   -0.7010    0.0193 C   0  0  0  0  0  0  0  0  0  0  0  0
   -1.4441    0.8706    0.8636 H   0  0  0  0  0  0  0  0  0  0  0  0
   -1.4073    0.8592   -0.8919 H   0  0  0  0  0  0  0  0  0  0  0  0
   -0.0992   -1.2593    0.8790 H   0  0  0  0  0  0  0  0  0  0  0  0
    0.7334   -0.1316    0.0640 H   0  0  0  0  0  0  0  0  0  0  0  0
   -0.1472   -1.4309   -0.8620 H   0  0  0  0  0  0  0  0  0  0  0  0
  1  2  1  0  0  0  0
  1  3  1  0  0  0  0
  1  5  1  0  0  0  0
  2  8  1  0  0  0  0
  4  1  1  0  0  0  0
  6  2  1  0  0  0  0
  6 10  1  0  0  0  0
  7  2  1  0  0  0  0
  9  6  1  0  0  0  0
  9 13  1  0  0  0  0
  9 12  1  0  0  0  0
 11  6  1  0  0  0  0
 14  9  1  0  0  0  0
M  END
$$$$
