14
butane_opt
C  -3.983597   0.299269   0.119098
C  -2.689580  -0.662721  -0.031914
H  -4.645883  -0.093931   0.081352
H  -4.114658   0.737390  -0.637032
H  -3.971862   1.053782   1.075310
C  -1.363267   0.154598  -0.118844
H  -2.924533  -1.386950  -0.937688
H  -2.666351  -1.201099   0.680471
C  -0.172178  -0.668107   0.115322
H  -1.362538   0.609159   0.538559
H  -1.342826   0.964838  -1.157951
H  -0.421884  -1.242287   1.028617
H   0.816383   0.007669   0.587059
H   0.067851  -1.364965  -0.793343
