butane_opt
 OpenBabel08242015393D

 14 13  0  0  0  0  0  0  0  0999 V2000
   -3.8991    0.2295    0.1192 C   0  0  0  0  0  0  0  0  0  0  0  0
   -2.7279   -0.5421   -0.1242 C   0  0  0  0  0  0  0  0  0  0  0  0
   -4.8444   -0.3420    0.5334 H   0  0  0  0  0  0  0  0  0  0  0  0
   -4.2600    0.9915   -0.7765 H   0  0  0  0  0  0  0  0  0  0  0  0
   -3.6534    0.7937    0.8991 H   0  0  0  0  0  0  0  0  0  0  0  0
   -1.4059    0.1811   -0.0596 C   0  0  0  0  0  0  0  0  0  0  0  0
   -2.7377   -1.3435   -1.0215 H   0  0  0  0  0  0  0  0  0  0  0  0
   -2.6488   -1.1602    0.7161 H   0  0  0  0  0  0  0  0  0  0  0  0
   -0.1554   -0.7231    0.1209 C   0  0  0  0  0  0  0  0  0  0  0  0
   -1.6402    0.7780    0.7012 H   0  0  0  0  0  0  0  0  0  0  0  0
   -1.2525    0.7726   -0.9597 H   0  0  0  0  0  0  0  0  0  0  0  0
   -0.4090   -1.3443    1.1532 H   0  0  0  0  0  0  0  0  0  0  0  0
    0.7834   -0.1518    0.0953 H   0  0  0  0  0  0  0  0  0  0  0  0
   -0.0692   -1.2050   -0.5973 H   0  0  0  0  0  0  0  0  0  0  0  0
  1  3  1  0  0  0  0
  1  5  1  0  0  0  0
  2  6  1  0  0  0  0
  2  1  1  0  0  0  0
  2  8  1  0  0  0  0
  4  1  1  0  0  0  0
  6  9  1  0  0  0  0
  6 10  1  0  0  0  0
  7  2  1  0  0  0  0
  9 12  1  0  0  0  0
 11  6  1  0  0  0  0
 13  9  1  0  0  0  0
 14  9  1  0  0  0  0
M  END
$$$$
