14
butane_opt
C  -3.947851   0.314263   0.073945
C  -2.683523  -0.681869   0.004819
H  -4.892351  -0.209190  -0.305550
H  -3.828949   0.540260  -0.635084
H  -4.170679   1.266575   1.057860
C  -1.396181   0.152753  -0.079526
H  -2.704235  -1.262967  -0.750659
H  -2.566487  -1.286242   0.925164
C  -0.205847  -0.671791   0.077785
H  -1.181077   0.882822   0.811063
H  -1.290565   0.779307  -0.946465
H  -0.145100  -1.405851   1.041379
H   0.752357  -0.011913  -0.017980
H  -0.206026  -1.136468  -0.605687
