14
butane_opt
C  -3.897610   0.227775  -0.071749
C  -2.696045  -0.560034   0.075996
H  -4.803345  -0.424786   0.156053
H  -4.021042   0.919129  -0.986437
H  -3.905823   0.665372   0.606799
C  -1.435120   0.222092   0.135824
H  -2.524562  -1.193097  -0.710525
H  -2.801584  -1.334745   1.095714
C  -0.187022  -0.718537  -0.051214
H  -1.233449   1.023999   1.102968
H  -1.534359   0.836100  -0.606850
H  -0.021338  -1.402947   0.894564
H   0.650619  -0.217403  -0.302989
H  -0.207415  -1.419087  -0.890409
