14
butane_opt
C  -3.914623   0.251165   0.117385
C  -2.700122  -0.587068  -0.107787
H  -4.837246  -0.429850   0.523746
H  -4.073506   0.987069  -0.870045
H  -3.709127   0.789126   0.913166
C  -1.398867   0.211812  -0.074529
H  -2.794207  -1.363312  -1.044641
H  -2.538994  -1.161010   0.714863
C  -0.224098  -0.721466   0.119172
H  -1.400238   0.877609   0.753893
H  -1.358974   0.855706  -0.863030
H  -0.255794  -1.532795   1.119220
H   0.750424  -0.075923   0.209474
H   0.051326  -1.263196  -0.656689
