butane_opt
 OpenBabel08242015393D

 14 13  0  0  0  0  0  0  0  0999 V2000
   -3.9479    0.3143    0.0739 C   0  0  0  0  0  0  0  0  0  0  0  0
   -2.6835   -0.6819    0.0048 C   0  0  0  0  0  0  0  0  0  0  0  0
   -4.8924   -0.2092   -0.3055 H   0  0  0  0  0  0  0  0  0  0  0  0
   -3.8289    0.5403   -0.6351 H   0  0  0  0  0  0  0  0  0  0  0  0
   -4.1707    1.2666    1.0579 H   0  0  0  0  0  0  0  0  0  0  0  0
   -1.3962    0.1528   -0.0795 C   0  0  0  0  0  0  0  0  0  0  0  0
   -2.7042   -1.2630   -0.7507 H   0  0  0  0  0  0  0  0  0  0  0  0
   -2.5665   -1.2862    0.9252 H   0  0  0  0  0  0  0  0  0  0  0  0
   -0.2058   -0.6718    0.0778 C   0  0  0  0  0  0  0  0  0  0  0  0
   -1.1811    0.8828    0.8111 H   0  0  0  0  0  0  0  0  0  0  0  0
   -1.2906    0.7793   -0.9465 H   0  0  0  0  0  0  0  0  0  0  0  0
   -0.1451   -1.4059    1.0414 H   0  0  0  0  0  0  0  0  0  0  0  0
    0.7524   -0.0119   -0.0180 H   0  0  0  0  0  0  0  0  0  0  0  0
   -0.2060   -1.1365   -0.6057 H   0  0  0  0  0  0  0  0  0  0  0  0
  1  5  1  0  0  0  0
  2  1  1  0  0  0  0
  2  8  1  0  0  0  0
  3  1  1  0  0  0  0
  4  1  1  0  0  0  0
  6  2  1  0  0  0  0
  6  9  1  0  0  0  0
  6 10  1  0  0  0  0
  7  2  1  0  0  0  0
  9 12  1  0  0  0  0
 11  6  1  0  0  0  0
 13  9  1  0  0  0  0
 14  9  1  0  0  0  0
M  END
$$$$
