butane_opt
 OpenBabel08242015393D

 14 13  0  0  0  0  0  0  0  0999 V2000
   -3.9738    0.3104    0.0813 C   0  0  0  0  0  0  0  0  0  0  0  0
   -2.7150   -0.6847   -0.0110 C   0  0  0  0  0  0  0  0  0  0  0  0
   -4.8238   -0.2807    0.1499 H   0  0  0  0  0  0  0  0  0  0  0  0
   -4.0900    0.9876   -0.7600 H   0  0  0  0  0  0  0  0  0  0  0  0
   -3.9604    1.0738    1.0720 H   0  0  0  0  0  0  0  0  0  0  0  0
   -1.3593    0.1526   -0.0830 C   0  0  0  0  0  0  0  0  0  0  0  0
   -2.7753   -1.3654   -0.9341 H   0  0  0  0  0  0  0  0  0  0  0  0
   -2.7080   -1.3068    0.8783 H   0  0  0  0  0  0  0  0  0  0  0  0
   -0.1323   -0.6575    0.0905 C   0  0  0  0  0  0  0  0  0  0  0  0
   -1.5874    0.6887    0.6566 H   0  0  0  0  0  0  0  0  0  0  0  0
   -1.2352    0.9491   -1.1014 H   0  0  0  0  0  0  0  0  0  0  0  0
   -0.3602   -1.1158    0.9102 H   0  0  0  0  0  0  0  0  0  0  0  0
    0.7821   -0.0543    0.4982 H   0  0  0  0  0  0  0  0  0  0  0  0
   -0.1078   -1.4937   -0.8726 H   0  0  0  0  0  0  0  0  0  0  0  0
  1  3  1  0  0  0  0
  1  5  1  0  0  0  0
  2  1  1  0  0  0  0
  2  8  1  0  0  0  0
  4  1  1  0  0  0  0
  6  2  1  0  0  0  0
  6  9  1  0  0  0  0
  6 10  1  0  0  0  0
  7  2  1  0  0  0  0
  9 13  1  0  0  0  0
  9 12  1  0  0  0  0
 11  6  1  0  0  0  0
 14  9  1  0  0  0  0
M  END
$$$$
