14
butane_opt
C  -3.970484   0.281294  -0.063727
C  -2.691139  -0.664384   0.128441
H  -4.697696  -0.200165  -0.150820
H  -3.814825   0.948855  -1.051595
H  -4.222581   0.970726   0.704631
C  -1.398227   0.140958   0.142861
H  -2.677854  -1.356272  -0.758903
H  -2.790634  -1.260352   1.015035
C  -0.140787  -0.652238  -0.064752
H  -1.459306   0.993435   1.116763
H  -1.427749   0.827505  -0.712358
H   0.050879  -1.429124   0.891114
H   0.709066  -0.079300  -0.483431
H  -0.312509  -1.140297  -0.840897
