butane_opt
 OpenBabel08242015393D

 14 13  0  0  0  0  0  0  0  0999 V2000
   -3.9497    0.2612    0.1394 C   0  0  0  0  0  0  0  0  0  0  0  0
   -2.7381   -0.5999   -0.0313 C   0  0  0  0  0  0  0  0  0  0  0  0
   -5.0360   -0.3959   -0.0362 H   0  0  0  0  0  0  0  0  0  0  0  0
   -3.9158    0.7011   -0.7050 H   0  0  0  0  0  0  0  0  0  0  0  0
   -4.0296    1.0208    1.0734 H   0  0  0  0  0  0  0  0  0  0  0  0
   -1.3821    0.1830   -0.1312 C   0  0  0  0  0  0  0  0  0  0  0  0
   -2.9481   -1.3011   -0.9770 H   0  0  0  0  0  0  0  0  0  0  0  0
   -2.5557   -1.0493    0.7397 H   0  0  0  0  0  0  0  0  0  0  0  0
   -0.1242   -0.6946    0.1295 C   0  0  0  0  0  0  0  0  0  0  0  0
   -1.5578    0.6905    0.6150 H   0  0  0  0  0  0  0  0  0  0  0  0
   -1.2535    1.0426   -1.1680 H   0  0  0  0  0  0  0  0  0  0  0  0
   -0.3371   -1.2722    1.0548 H   0  0  0  0  0  0  0  0  0  0  0  0
    0.7021   -0.1924    0.3116 H   0  0  0  0  0  0  0  0  0  0  0  0
    0.2472   -1.5595   -0.7692 H   0  0  0  0  0  0  0  0  0  0  0  0
  1  5  1  0  0  0  0
  2  1  1  0  0  0  0
  2  8  1  0  0  0  0
  3  1  1  0  0  0  0
  4  1  1  0  0  0  0
  6  2  1  0  0  0  0
  6  9  1  0  0  0  0
  6 10  1  0  0  0  0
  7  2  1  0  0  0  0
  9 13  1  0  0  0  0
  9 12  1  0  0  0  0
 11  6  1  0  0  0  0
 14  9  1  0  0  0  0
M  END
$$$$
