butane_opt
 OpenBabel08242015393D

 14 13  0  0  0  0  0  0  0  0999 V2000
   -3.8997    0.2346    0.0494 C   0  0  0  0  0  0  0  0  0  0  0  0
   -2.7055   -0.5801    0.0201 C   0  0  0  0  0  0  0  0  0  0  0  0
   -4.8602   -0.4455   -0.2708 H   0  0  0  0  0  0  0  0  0  0  0  0
   -3.6511    0.5023   -0.6520 H   0  0  0  0  0  0  0  0  0  0  0  0
   -4.0149    1.0918    1.0449 H   0  0  0  0  0  0  0  0  0  0  0  0
   -1.4624    0.2450   -0.0432 C   0  0  0  0  0  0  0  0  0  0  0  0
   -2.7050   -1.2331   -0.7499 H   0  0  0  0  0  0  0  0  0  0  0  0
   -2.6004   -1.2406    0.9743 H   0  0  0  0  0  0  0  0  0  0  0  0
   -0.1573   -0.7282    0.0629 C   0  0  0  0  0  0  0  0  0  0  0  0
   -1.3283    0.8421    0.7134 H   0  0  0  0  0  0  0  0  0  0  0  0
   -1.4604    0.9044   -0.8969 H   0  0  0  0  0  0  0  0  0  0  0  0
   -0.1275   -1.4219    1.0658 H   0  0  0  0  0  0  0  0  0  0  0  0
    0.6227   -0.2643   -0.0104 H   0  0  0  0  0  0  0  0  0  0  0  0
   -0.1698   -1.3053   -0.8042 H   0  0  0  0  0  0  0  0  0  0  0  0
  1  5  1  0  0  0  0
  2  1  1  0  0  0  0
  2  8  1  0  0  0  0
  3  1  1  0  0  0  0
  4  1  1  0  0  0  0
  6  2  1  0  0  0  0
  6  9  1  0  0  0  0
  6 10  1  0  0  0  0
  7  2  1  0  0  0  0
  9 12  1  0  0  0  0
 11  6  1  0  0  0  0
 13  9  1  0  0  0  0
 14  9  1  0  0  0  0
M  END
$$$$
