14
butane_opt
C  -3.903488   0.294480   0.037301
C  -2.678668  -0.663419   0.047672
H  -4.707142  -0.222669  -0.392156
H  -3.817874   0.684952  -0.654317
H  -4.192595   1.291731   1.074257
C  -1.402627   0.131493  -0.029744
H  -2.839553  -1.245955  -0.779156
H  -2.716172  -1.230477   0.954015
C  -0.195711  -0.652526   0.042457
H  -1.412245   0.801124   0.816478
H  -1.347863   0.734440  -0.864647
H  -0.325512  -1.403527   0.970261
H   0.707339  -0.131770  -0.189122
H  -0.206672  -1.067108  -0.643686
