14
butane_opt
C  -3.944109   0.259167   0.044845
C  -2.702647  -0.602484   0.017667
H  -4.855698  -0.337389  -0.086383
H  -3.929237   0.744559  -0.765986
H  -3.994868   1.062223   0.989405
C  -1.397143   0.178623  -0.021486
H  -2.770369  -1.289002  -0.832234
H  -2.698735  -1.229816   0.897569
C  -0.154435  -0.695914   0.066153
H  -1.421862   0.817604   0.793652
H  -1.385624   0.892417  -1.005017
H  -0.130851  -1.360756   0.961976
H   0.742705  -0.112588   0.000574
H  -0.194955  -1.336395  -0.780431
