14
butane_opt
C  -3.878925   0.245926  -0.023805
C  -2.693946  -0.613990   0.093260
H  -4.830770  -0.371191   0.138973
H  -3.912856   0.858115  -0.911918
H  -3.864079   0.731660   0.810207
C  -1.461147   0.234281  -0.014124
H  -2.689590  -0.987462  -0.573444
H  -2.867659  -1.365383   1.067207
C  -0.143530  -0.723203   0.010896
H  -1.560430   0.992624   0.927523
H  -1.464107   0.787741  -0.866462
H  -0.201229  -0.917236   0.661810
H   0.653591  -0.177389   0.456876
H  -0.145542  -1.772968  -1.105345
