14
butane_opt
C  -3.881475   0.216105  -0.077143
C  -2.728821  -0.554271   0.179816
H  -4.725025  -0.448402  -0.387891
H  -3.671205   0.690530  -0.925424
H  -4.169744   1.048666   0.794170
C  -1.456588   0.211722   0.124005
H  -2.580558  -1.178717  -0.644133
H  -2.814131  -1.320087   1.143955
C  -0.146339  -0.721514  -0.080992
H  -1.489388   0.902741   0.987141
H  -1.447532   0.923084  -0.925214
H   0.063620  -1.298561   0.757365
H   0.692686  -0.193742  -0.085314
H  -0.306501  -1.435784  -0.999798
