14
butane_opt
C  -3.921182   0.243956  -0.005894
C  -2.686052  -0.569636   0.121357
H  -4.902768  -0.387462  -0.078371
H  -3.695891   0.932912  -0.989141
H  -3.889293   0.867267   0.844265
C  -1.423071   0.175531  -0.025842
H  -2.728969  -1.086738  -0.662981
H  -2.787513  -1.329265   1.067638
C  -0.183744  -0.700033   0.013855
H  -1.392891   0.952134   0.832175
H  -1.430146   0.610825  -0.733039
H  -0.306025  -1.025278   0.661118
H   0.627687  -0.121306   0.278564
H   0.051344  -1.702168  -1.068641
