butane_opt
 OpenBabel08242015393D

 14 13  0  0  0  0  0  0  0  0999 V2000
   -3.9344    0.2473    0.1319 C   0  0  0  0  0  0  0  0  0  0  0  0
   -2.6741   -0.5885   -0.1121 C   0  0  0  0  0  0  0  0  0  0  0  0
   -4.8558   -0.2861    0.5474 H   0  0  0  0  0  0  0  0  0  0  0  0
   -4.1800    0.9232   -0.8459 H   0  0  0  0  0  0  0  0  0  0  0  0
   -3.6287    0.6963    0.9281 H   0  0  0  0  0  0  0  0  0  0  0  0
   -1.4061    0.2022   -0.0754 C   0  0  0  0  0  0  0  0  0  0  0  0
   -2.7172   -1.4285   -1.0872 H   0  0  0  0  0  0  0  0  0  0  0  0
   -2.8343   -0.9845    0.6348 H   0  0  0  0  0  0  0  0  0  0  0  0
   -0.1839   -0.6997    0.1372 C   0  0  0  0  0  0  0  0  0  0  0  0
   -1.4906    0.6743    0.6022 H   0  0  0  0  0  0  0  0  0  0  0  0
   -1.2920    0.9715   -0.9994 H   0  0  0  0  0  0  0  0  0  0  0  0
   -0.1951   -1.4103    1.1267 H   0  0  0  0  0  0  0  0  0  0  0  0
    0.6484   -0.1879    0.2444 H   0  0  0  0  0  0  0  0  0  0  0  0
   -0.0894   -1.3777   -0.6756 H   0  0  0  0  0  0  0  0  0  0  0  0
  1  3  1  0  0  0  0
  1  5  1  0  0  0  0
  2  6  1  0  0  0  0
  2  1  1  0  0  0  0
  2  8  1  0  0  0  0
  4  1  1  0  0  0  0
  6  9  1  0  0  0  0
  6 10  1  0  0  0  0
  7  2  1  0  0  0  0
  9 13  1  0  0  0  0
  9 12  1  0  0  0  0
 11  6  1  0  0  0  0
 14  9  1  0  0  0  0
M  END
$$$$
