butane_opt
 OpenBabel08242015393D

 14 12  0  0  0  0  0  0  0  0999 V2000
   -3.9261    0.2642    0.0680 C   0  0  0  0  0  0  0  0  0  0  0  0
   -2.6724   -0.6311   -0.0351 C   0  0  0  0  0  0  0  0  0  0  0  0
   -4.7401   -0.3167    0.0321 H   0  0  0  0  0  0  0  0  0  0  0  0
   -4.1058    0.7607   -0.7543 H   0  0  0  0  0  0  0  0  0  0  0  0
   -3.9066    1.1916    1.0845 H   0  0  0  0  0  0  0  0  0  0  0  0
   -1.4096    0.1626   -0.0135 C   0  0  0  0  0  0  0  0  0  0  0  0
   -2.6723   -1.4263   -0.9540 H   0  0  0  0  0  0  0  0  0  0  0  0
   -2.6134   -1.0289    0.6455 H   0  0  0  0  0  0  0  0  0  0  0  0
   -0.2047   -0.6703    0.0910 C   0  0  0  0  0  0  0  0  0  0  0  0
   -1.2618    0.7746    0.7078 H   0  0  0  0  0  0  0  0  0  0  0  0
   -1.2822    0.9112   -1.0320 H   0  0  0  0  0  0  0  0  0  0  0  0
   -0.0878   -1.6869    1.2389 H   0  0  0  0  0  0  0  0  0  0  0  0
    0.6648   -0.1077   -0.2088 H   0  0  0  0  0  0  0  0  0  0  0  0
   -0.4421   -1.0509   -0.5679 H   0  0  0  0  0  0  0  0  0  0  0  0
  1  5  1  0  0  0  0
  2  6  1  0  0  0  0
  2  1  1  0  0  0  0
  2  8  1  0  0  0  0
  3  1  1  0  0  0  0
  4  1  1  0  0  0  0
  6  9  1  0  0  0  0
  6 10  1  0  0  0  0
  7  2  1  0  0  0  0
 11  6  1  0  0  0  0
 13  9  1  0  0  0  0
 14  9  1  0  0  0  0
M  RAD  2   9   2  12   2
M  END
$$$$
