14
butane_opt
C  -3.979081   0.307227   0.135299
C  -2.681103  -0.646001  -0.064625
H  -4.962908  -0.262990   0.084366
H  -4.232167   0.876566  -0.666677
H  -3.905105   1.004828   1.081286
C  -1.365838   0.153198  -0.135227
H  -2.810752  -1.466993  -0.959080
H  -2.470293  -1.280735   0.857193
C  -0.182052  -0.677870   0.131388
H  -1.310838   0.595744   0.628577
H  -1.192097   0.922211  -1.196862
H  -0.545745  -1.091904   0.952199
H   0.778624   0.011224   0.561220
H   0.132192  -1.414962  -0.736730
