14
butane_opt
C  -3.936359   0.226154   0.094470
C  -2.694604  -0.561412  -0.004187
H  -4.905516  -0.339140  -0.164249
H  -3.870641   0.543579  -0.690348
H  -3.889633   1.137447   1.128615
C  -1.424236   0.175848  -0.081658
H  -2.613380  -1.416688  -1.006995
H  -2.633752  -0.930753   0.722015
C  -0.164513  -0.709466   0.103966
H  -1.438646   0.779877   0.737647
H  -1.423803   0.954315  -1.062373
H  -0.142451  -1.580770   1.143335
H   0.721028  -0.151527  -0.096239
H  -0.170666  -1.061919  -0.554117
