14
butane_opt
C  -3.934439   0.247256   0.131917
C  -2.674062  -0.588548  -0.112148
H  -4.855769  -0.286114   0.547355
H  -4.179982   0.923228  -0.845910
H  -3.628704   0.696282   0.928088
C  -1.406144   0.202195  -0.075384
H  -2.717158  -1.428544  -1.087209
H  -2.834306  -0.984452   0.634796
C  -0.183935  -0.699679   0.137238
H  -1.490617   0.674284   0.602212
H  -1.292021   0.971534  -0.999378
H  -0.195068  -1.410313   1.126669
H   0.648375  -0.187869   0.244401
H  -0.089415  -1.377747  -0.675558
