14
butane_opt
C  -3.952218   0.273044   0.051413
C  -2.698512  -0.629674  -0.004119
H  -4.836977  -0.305163   0.099588
H  -4.022240   0.917363  -0.854149
H  -3.992111   0.987585   0.915737
C  -1.405175   0.167764  -0.012676
H  -2.744934  -1.362924  -0.891400
H  -2.683334  -1.225643   0.850369
C  -0.151078  -0.678928   0.057794
H  -1.418219   0.860373   0.848599
H  -1.328035   0.794526  -0.888974
H  -0.155738  -1.409167   1.025750
H   0.789775  -0.077887  -0.046721
H  -0.151192  -1.225741  -0.717181
