butane_opt
 OpenBabel08242015393D

 14 13  0  0  0  0  0  0  0  0999 V2000
   -3.9641    0.2881    0.1461 C   0  0  0  0  0  0  0  0  0  0  0  0
   -2.7110   -0.6525   -0.0607 C   0  0  0  0  0  0  0  0  0  0  0  0
   -4.8081   -0.1486   -0.0152 H   0  0  0  0  0  0  0  0  0  0  0  0
   -4.1271    0.7881   -0.6320 H   0  0  0  0  0  0  0  0  0  0  0  0
   -3.9460    0.9606    1.0312 H   0  0  0  0  0  0  0  0  0  0  0  0
   -1.3919    0.1670   -0.1380 C   0  0  0  0  0  0  0  0  0  0  0  0
   -2.6838   -1.3795   -0.9235 H   0  0  0  0  0  0  0  0  0  0  0  0
   -2.6074   -1.2645    0.7482 H   0  0  0  0  0  0  0  0  0  0  0  0
   -0.1746   -0.6589    0.1525 C   0  0  0  0  0  0  0  0  0  0  0  0
   -1.5231    0.6563    0.5831 H   0  0  0  0  0  0  0  0  0  0  0  0
   -1.1786    0.8983   -1.1089 H   0  0  0  0  0  0  0  0  0  0  0  0
   -0.1416   -1.1444    0.9913 H   0  0  0  0  0  0  0  0  0  0  0  0
    0.7449   -0.0817    0.2966 H   0  0  0  0  0  0  0  0  0  0  0  0
    0.1066   -1.4632   -0.7505 H   0  0  0  0  0  0  0  0  0  0  0  0
  1  5  1  0  0  0  0
  2  1  1  0  0  0  0
  2  8  1  0  0  0  0
  3  1  1  0  0  0  0
  4  1  1  0  0  0  0
  6  2  1  0  0  0  0
  6  9  1  0  0  0  0
  6 10  1  0  0  0  0
  7  2  1  0  0  0  0
  9 13  1  0  0  0  0
  9 12  1  0  0  0  0
 11  6  1  0  0  0  0
 14  9  1  0  0  0  0
M  END
$$$$
