butane_opt
 OpenBabel08242015393D

 14 13  0  0  0  0  0  0  0  0999 V2000
   -3.9918    0.2695    0.1166 C   0  0  0  0  0  0  0  0  0  0  0  0
   -2.7210   -0.6095   -0.0354 C   0  0  0  0  0  0  0  0  0  0  0  0
   -4.8030   -0.1409    0.0832 H   0  0  0  0  0  0  0  0  0  0  0  0
   -4.1119    0.9031   -0.7270 H   0  0  0  0  0  0  0  0  0  0  0  0
   -3.9274    0.8688    1.0140 H   0  0  0  0  0  0  0  0  0  0  0  0
   -1.3741    0.1527   -0.1195 C   0  0  0  0  0  0  0  0  0  0  0  0
   -2.9797   -1.3278   -0.9726 H   0  0  0  0  0  0  0  0  0  0  0  0
   -2.5081   -1.2299    0.8161 H   0  0  0  0  0  0  0  0  0  0  0  0
   -0.1400   -0.6915    0.1186 C   0  0  0  0  0  0  0  0  0  0  0  0
   -1.4023    0.7830    0.6299 H   0  0  0  0  0  0  0  0  0  0  0  0
   -1.2193    0.8899   -1.0488 H   0  0  0  0  0  0  0  0  0  0  0  0
   -0.3935   -1.1554    0.9940 H   0  0  0  0  0  0  0  0  0  0  0  0
    0.8994   -0.0077    0.4524 H   0  0  0  0  0  0  0  0  0  0  0  0
    0.1269   -1.5015   -0.8112 H   0  0  0  0  0  0  0  0  0  0  0  0
  1  5  1  0  0  0  0
  2  1  1  0  0  0  0
  2  8  1  0  0  0  0
  3  1  1  0  0  0  0
  4  1  1  0  0  0  0
  6  2  1  0  0  0  0
  6  9  1  0  0  0  0
  6 10  1  0  0  0  0
  7  2  1  0  0  0  0
  9 13  1  0  0  0  0
  9 12  1  0  0  0  0
 11  6  1  0  0  0  0
 14  9  1  0  0  0  0
M  END
$$$$
