14
butane_opt
C  -3.898474   0.236307   0.044915
C  -2.706797  -0.556167  -0.039511
H  -4.973825  -0.486665   0.121874
H  -3.853179   0.884814  -0.882159
H  -3.715537   0.915807   0.955708
C  -1.435166   0.204830   0.012288
H  -2.875555  -1.274230  -0.934949
H  -2.819528  -1.150757   0.946566
C  -0.163739  -0.737220   0.069333
H  -1.586104   0.995444   0.944674
H  -1.341220   0.743686  -0.830675
H   0.006765  -1.601634   1.077748
H   0.808081  -0.102415  -0.422513
H  -0.221630  -1.161177  -0.584299
