butane_opt
 OpenBabel08242015393D

 14 13  0  0  0  0  0  0  0  0999 V2000
   -3.9269    0.2526    0.0385 C   0  0  0  0  0  0  0  0  0  0  0  0
   -2.7026   -0.6064    0.0043 C   0  0  0  0  0  0  0  0  0  0  0  0
   -4.8411   -0.3630    0.1405 H   0  0  0  0  0  0  0  0  0  0  0  0
   -4.0003    0.9359   -0.8943 H   0  0  0  0  0  0  0  0  0  0  0  0
   -3.8838    0.8857    0.9090 H   0  0  0  0  0  0  0  0  0  0  0  0
   -1.4202    0.1926   -0.0113 C   0  0  0  0  0  0  0  0  0  0  0  0
   -2.7655   -1.2896   -0.8679 H   0  0  0  0  0  0  0  0  0  0  0  0
   -2.6219   -1.2082    0.8601 H   0  0  0  0  0  0  0  0  0  0  0  0
   -0.1598   -0.6983    0.0535 C   0  0  0  0  0  0  0  0  0  0  0  0
   -1.4267    0.9091    0.8613 H   0  0  0  0  0  0  0  0  0  0  0  0
   -1.3981    0.7762   -0.8477 H   0  0  0  0  0  0  0  0  0  0  0  0
   -0.1409   -1.3725    0.9964 H   0  0  0  0  0  0  0  0  0  0  0  0
    0.7229   -0.1390    0.0147 H   0  0  0  0  0  0  0  0  0  0  0  0
   -0.1446   -1.2938   -0.7558 H   0  0  0  0  0  0  0  0  0  0  0  0
  1  3  1  0  0  0  0
  1  5  1  0  0  0  0
  2  1  1  0  0  0  0
  2  8  1  0  0  0  0
  4  1  1  0  0  0  0
  6  2  1  0  0  0  0
  6  9  1  0  0  0  0
  6 10  1  0  0  0  0
  7  2  1  0  0  0  0
  9 12  1  0  0  0  0
 11  6  1  0  0  0  0
 13  9  1  0  0  0  0
 14  9  1  0  0  0  0
M  END
$$$$
