14
butane_opt
C  -3.949164   0.288684  -0.014884
C  -2.713380  -0.652316   0.109723
H  -4.723243  -0.136882  -0.002270
H  -4.078384   0.843307  -0.875724
H  -4.129511   0.905688   0.749601
C  -1.374915   0.175893  -0.000633
H  -2.606743  -1.225311  -0.604425
H  -2.699120  -1.407752   1.032293
C  -0.179459  -0.680056  -0.027115
H  -1.352227   0.851318   0.903799
H  -1.354651   0.721700  -0.789171
H  -0.335682  -1.082919   0.737931
H   0.784210   0.020886   0.450378
H   0.053925  -1.532746  -0.989189
