14
butane_opt
C  -3.935201   0.295253   0.027062
C  -2.696905  -0.626284   0.098904
H  -4.774711  -0.165227  -0.307765
H  -3.661237   0.735670  -0.830617
H  -4.074786   0.954774   0.877023
C  -1.396556   0.124278  -0.004067
H  -2.649041  -1.319969  -0.756270
H  -2.797378  -1.129620   0.993001
C  -0.185778  -0.661286  -0.000726
H  -1.392179   0.696755   0.763154
H  -1.516020   0.810150  -0.946977
H  -0.282878  -1.187535   0.883537
H   0.814075   0.013543   0.198655
H  -0.164230  -1.447634  -0.875097
