butane_opt
 OpenBabel08242015393D

 14 12  0  0  0  0  0  0  0  0999 V2000
   -3.9295    0.2902   -0.0332 C   0  0  0  0  0  0  0  0  0  0  0  0
   -2.6903   -0.6173    0.0985 C   0  0  0  0  0  0  0  0  0  0  0  0
   -4.7833   -0.2799    0.2378 H   0  0  0  0  0  0  0  0  0  0  0  0
   -3.9283    1.1909   -1.1578 H   0  0  0  0  0  0  0  0  0  0  0  0
   -4.0162    0.7189    0.6696 H   0  0  0  0  0  0  0  0  0  0  0  0
   -1.3935    0.1215    0.0714 C   0  0  0  0  0  0  0  0  0  0  0  0
   -2.5907   -1.2680   -0.6781 H   0  0  0  0  0  0  0  0  0  0  0  0
   -2.7287   -1.2247    1.0051 H   0  0  0  0  0  0  0  0  0  0  0  0
   -0.2070   -0.6858   -0.0017 C   0  0  0  0  0  0  0  0  0  0  0  0
   -1.3639    0.7558    0.9288 H   0  0  0  0  0  0  0  0  0  0  0  0
   -1.3495    0.6767   -0.8485 H   0  0  0  0  0  0  0  0  0  0  0  0
   -0.2121   -0.8570    0.4998 H   0  0  0  0  0  0  0  0  0  0  0  0
    0.8345    0.0783    0.1357 H   0  0  0  0  0  0  0  0  0  0  0  0
   -0.2538   -1.5294   -1.0247 H   0  0  0  0  0  0  0  0  0  0  0  0
  1  2  1  0  0  0  0
  1  3  1  0  0  0  0
  1  5  1  0  0  0  0
  2  8  1  0  0  0  0
  4  1  1  0  0  0  0
  6  2  1  0  0  0  0
  6 10  1  0  0  0  0
  7  2  1  0  0  0  0
  9  6  1  0  0  0  0
  9 13  1  0  0  0  0
 11  6  1  0  0  0  0
 14  9  1  0  0  0  0
M  RAD  2   9   2  12   2
M  END
$$$$
