butane_opt
 OpenBabel08242015393D

 14 11  0  0  0  0  0  0  0  0999 V2000
   -3.9328    0.2891    0.0854 C   0  0  0  0  0  0  0  0  0  0  0  0
   -2.6561   -0.6584    0.0041 C   0  0  0  0  0  0  0  0  0  0  0  0
   -4.9107   -0.2642   -0.4465 H   0  0  0  0  0  0  0  0  0  0  0  0
   -3.9193    0.4383   -0.5042 H   0  0  0  0  0  0  0  0  0  0  0  0
   -4.0660    1.3726    1.2587 H   0  0  0  0  0  0  0  0  0  0  0  0
   -1.3905    0.1756   -0.0974 C   0  0  0  0  0  0  0  0  0  0  0  0
   -2.7412   -1.3202   -0.8478 H   0  0  0  0  0  0  0  0  0  0  0  0
   -2.5878   -1.2358    0.8805 H   0  0  0  0  0  0  0  0  0  0  0  0
   -0.1981   -0.6662    0.1131 C   0  0  0  0  0  0  0  0  0  0  0  0
   -1.5513    0.7736    0.5934 H   0  0  0  0  0  0  0  0  0  0  0  0
   -1.2903    0.8436   -1.0650 H   0  0  0  0  0  0  0  0  0  0  0  0
   -0.2586   -1.5356    1.1621 H   0  0  0  0  0  0  0  0  0  0  0  0
    0.7152   -0.0456   -0.0895 H   0  0  0  0  0  0  0  0  0  0  0  0
   -0.2759   -1.2022   -0.7176 H   0  0  0  0  0  0  0  0  0  0  0  0
  2  1  1  0  0  0  0
  2  8  1  0  0  0  0
  3  1  1  0  0  0  0
  6  2  1  0  0  0  0
  6  9  1  0  0  0  0
  6 10  1  0  0  0  0
  7  2  1  0  0  0  0
  9 12  1  0  0  0  0
 11  6  1  0  0  0  0
 13  9  1  0  0  0  0
 14  9  1  0  0  0  0
M  RAD  3   1   3   4   2   5   2
M  END
$$$$
