14
butane_opt
C  -3.915638   0.265748  -0.028215
C  -2.659863  -0.616192   0.103552
H  -4.829308  -0.423021  -0.204002
H  -3.663187   0.661618  -0.808142
H  -4.090518   1.039555   0.937427
C  -1.450794   0.197065   0.033004
H  -2.800018  -1.256264  -0.685080
H  -2.631201  -1.339741   1.106856
C  -0.179528  -0.674006  -0.005873
H  -1.390195   0.840948   0.824079
H  -1.434407   0.983105  -0.926484
H  -0.151125  -1.302748   0.858533
H   0.634024  -0.145447   0.114625
H  -0.199031  -1.624016  -1.005229
