butane_opt
 OpenBabel08242015393D

 14 13  0  0  0  0  0  0  0  0999 V2000
   -3.9337    0.2941    0.0883 C   0  0  0  0  0  0  0  0  0  0  0  0
   -2.6945   -0.6598   -0.0876 C   0  0  0  0  0  0  0  0  0  0  0  0
   -4.7858   -0.1967    0.4305 H   0  0  0  0  0  0  0  0  0  0  0  0
   -4.1223    0.9115   -0.7080 H   0  0  0  0  0  0  0  0  0  0  0  0
   -3.7728    1.0738    0.9901 H   0  0  0  0  0  0  0  0  0  0  0  0
   -1.3874    0.1427   -0.0779 C   0  0  0  0  0  0  0  0  0  0  0  0
   -2.7379   -1.4484   -1.0218 H   0  0  0  0  0  0  0  0  0  0  0  0
   -2.4827   -1.2085    0.7340 H   0  0  0  0  0  0  0  0  0  0  0  0
   -0.2310   -0.6499    0.1175 C   0  0  0  0  0  0  0  0  0  0  0  0
   -1.3027    0.8777    0.8402 H   0  0  0  0  0  0  0  0  0  0  0  0
   -1.3549    0.7194   -0.9996 H   0  0  0  0  0  0  0  0  0  0  0  0
   -0.2570   -1.5502    1.2785 H   0  0  0  0  0  0  0  0  0  0  0  0
    0.7716    0.0274    0.0216 H   0  0  0  0  0  0  0  0  0  0  0  0
   -0.0639   -1.1739   -0.5727 H   0  0  0  0  0  0  0  0  0  0  0  0
  1  3  1  0  0  0  0
  1  5  1  0  0  0  0
  2  6  1  0  0  0  0
  2  1  1  0  0  0  0
  2  8  1  0  0  0  0
  4  1  1  0  0  0  0
  6  9  1  0  0  0  0
  6 10  1  0  0  0  0
  7  2  1  0  0  0  0
  9 12  1  0  0  0  0
 11  6  1  0  0  0  0
 13  9  1  0  0  0  0
 14  9  1  0  0  0  0
M  END
$$$$
