14
butane_opt
C  -3.949184   0.250302   0.132271
C  -2.719468  -0.628002  -0.051213
H  -4.883981  -0.302889   0.170619
H  -3.987027   0.855403  -0.848535
H  -4.011026   1.015542   1.037713
C  -1.393955   0.234004  -0.135084
H  -2.800592  -1.219907  -0.863333
H  -2.727699  -1.261978   0.844106
C  -0.150752  -0.739277   0.118337
H  -1.421358   0.883094   0.649601
H  -1.263842   0.823086  -0.950860
H  -0.320960  -1.172098   0.939278
H   0.780885  -0.061523   0.444210
H   0.190496  -1.447910  -0.752419
