butane_opt
 OpenBabel08242015393D

 14 10  0  0  0  0  0  0  0  0999 V2000
   -3.9464    0.2993   -0.0416 C   0  0  0  0  0  0  0  0  0  0  0  0
   -2.7148   -0.6416    0.1136 C   0  0  0  0  0  0  0  0  0  0  0  0
   -4.8072   -0.2420    0.1869 H   0  0  0  0  0  0  0  0  0  0  0  0
   -3.8512    1.1180   -1.0580 H   0  0  0  0  0  0  0  0  0  0  0  0
   -3.9429    0.6832    0.6945 H   0  0  0  0  0  0  0  0  0  0  0  0
   -1.3834    0.1292    0.0585 C   0  0  0  0  0  0  0  0  0  0  0  0
   -2.5884   -1.0721   -0.6260 H   0  0  0  0  0  0  0  0  0  0  0  0
   -2.8703   -1.3762    1.1049 H   0  0  0  0  0  0  0  0  0  0  0  0
   -0.1657   -0.6737   -0.0287 C   0  0  0  0  0  0  0  0  0  0  0  0
   -1.4726    0.8323    0.9111 H   0  0  0  0  0  0  0  0  0  0  0  0
   -1.4319    0.8199   -0.8386 H   0  0  0  0  0  0  0  0  0  0  0  0
   -0.2875   -0.7849    0.5237 H   0  0  0  0  0  0  0  0  0  0  0  0
    0.8650   -0.0381    0.4271 H   0  0  0  0  0  0  0  0  0  0  0  0
   -0.1451   -1.7615   -1.1651 H   0  0  0  0  0  0  0  0  0  0  0  0
  1  2  1  0  0  0  0
  1  3  1  0  0  0  0
  1  5  1  0  0  0  0
  2  8  1  0  0  0  0
  4  1  1  0  0  0  0
  6 10  1  0  0  0  0
  7  2  1  0  0  0  0
  9  6  1  0  0  0  0
  9 13  1  0  0  0  0
 11  6  1  0  0  0  0
M  RAD  5   2   2   6   2   9   3  12   2  14   2
M  END
$$$$
