14
butane_opt
C  -3.939388   0.298733  -0.082559
C  -2.698060  -0.671106   0.191662
H  -4.701602  -0.176771  -0.425517
H  -3.685644   0.787857  -0.922365
H  -4.244846   1.121528   0.798929
C  -1.398178   0.186705   0.083915
H  -2.661638  -1.280284  -0.571720
H  -2.808038  -1.409973   1.172064
C  -0.175088  -0.683083  -0.055670
H  -1.246829   0.690640   0.912675
H  -1.446643   0.752478  -0.744794
H   0.003769  -1.031937   0.653425
H   0.721030   0.006183  -0.037960
H  -0.447215  -1.481136  -1.037638
