butane_opt
 OpenBabel08242015393D

 14 12  0  0  0  0  0  0  0  0999 V2000
   -3.9362    0.2365    0.0879 C   0  0  0  0  0  0  0  0  0  0  0  0
   -2.7407   -0.6072   -0.0538 C   0  0  0  0  0  0  0  0  0  0  0  0
   -4.7914   -0.3517   -0.0808 H   0  0  0  0  0  0  0  0  0  0  0  0
   -4.0596    0.6324   -0.6310 H   0  0  0  0  0  0  0  0  0  0  0  0
   -3.9745    1.1578    1.1137 H   0  0  0  0  0  0  0  0  0  0  0  0
   -1.4145    0.2325   -0.0234 C   0  0  0  0  0  0  0  0  0  0  0  0
   -2.8749   -1.3927   -0.9701 H   0  0  0  0  0  0  0  0  0  0  0  0
   -2.6777   -1.1108    0.6485 H   0  0  0  0  0  0  0  0  0  0  0  0
   -0.1025   -0.7004    0.1042 C   0  0  0  0  0  0  0  0  0  0  0  0
   -1.5414    0.6914    0.6572 H   0  0  0  0  0  0  0  0  0  0  0  0
   -1.4277    1.0386   -1.0609 H   0  0  0  0  0  0  0  0  0  0  0  0
    0.1072   -1.7737    1.2481 H   0  0  0  0  0  0  0  0  0  0  0  0
    0.7154   -0.1636   -0.1944 H   0  0  0  0  0  0  0  0  0  0  0  0
   -0.1796   -1.1312   -0.6033 H   0  0  0  0  0  0  0  0  0  0  0  0
  1  5  1  0  0  0  0
  2  6  1  0  0  0  0
  2  1  1  0  0  0  0
  2  8  1  0  0  0  0
  3  1  1  0  0  0  0
  4  1  1  0  0  0  0
  6  9  1  0  0  0  0
  6 10  1  0  0  0  0
  7  2  1  0  0  0  0
 11  6  1  0  0  0  0
 13  9  1  0  0  0  0
 14  9  1  0  0  0  0
M  RAD  2   9   2  12   2
M  END
$$$$
