14
butane_opt
C  -3.956953   0.243673   0.109472
C  -2.715622  -0.582295  -0.057518
H  -4.961553  -0.405614  -0.124530
H  -3.998096   0.593144  -0.700172
H  -4.019433   0.997386   1.020242
C  -1.390200   0.225492  -0.026019
H  -2.897543  -1.398538  -1.138488
H  -2.574088  -1.122308   0.738956
C  -0.115707  -0.720936   0.109578
H  -1.607206   0.845584   0.759941
H  -1.393392   1.017063  -1.053367
H  -0.024799  -1.723349   1.254400
H   0.810355  -0.191491  -0.389354
H  -0.191255  -1.086279  -0.520836
