butane_opt
 OpenBabel08242015393D

 14 13  0  0  0  0  0  0  0  0999 V2000
   -3.9035    0.2945    0.0373 C   0  0  0  0  0  0  0  0  0  0  0  0
   -2.6787   -0.6634    0.0477 C   0  0  0  0  0  0  0  0  0  0  0  0
   -4.7071   -0.2227   -0.3922 H   0  0  0  0  0  0  0  0  0  0  0  0
   -3.8179    0.6850   -0.6543 H   0  0  0  0  0  0  0  0  0  0  0  0
   -4.1926    1.2917    1.0743 H   0  0  0  0  0  0  0  0  0  0  0  0
   -1.4026    0.1315   -0.0297 C   0  0  0  0  0  0  0  0  0  0  0  0
   -2.8396   -1.2460   -0.7792 H   0  0  0  0  0  0  0  0  0  0  0  0
   -2.7162   -1.2305    0.9540 H   0  0  0  0  0  0  0  0  0  0  0  0
   -0.1957   -0.6525    0.0425 C   0  0  0  0  0  0  0  0  0  0  0  0
   -1.4122    0.8011    0.8165 H   0  0  0  0  0  0  0  0  0  0  0  0
   -1.3479    0.7344   -0.8646 H   0  0  0  0  0  0  0  0  0  0  0  0
   -0.3255   -1.4035    0.9703 H   0  0  0  0  0  0  0  0  0  0  0  0
    0.7073   -0.1318   -0.1891 H   0  0  0  0  0  0  0  0  0  0  0  0
   -0.2067   -1.0671   -0.6437 H   0  0  0  0  0  0  0  0  0  0  0  0
  1  2  1  0  0  0  0
  1  5  1  0  0  0  0
  2  8  1  0  0  0  0
  3  1  1  0  0  0  0
  4  1  1  0  0  0  0
  6  9  1  0  0  0  0
  6  2  1  0  0  0  0
  6 10  1  0  0  0  0
  7  2  1  0  0  0  0
  9 12  1  0  0  0  0
 11  6  1  0  0  0  0
 13  9  1  0  0  0  0
 14  9  1  0  0  0  0
M  END
$$$$
