14
butane_opt
C  -3.935908   0.250718  -0.078843
C  -2.749363  -0.608650   0.076839
H  -4.875638  -0.302788   0.417281
H  -3.945772   1.209356  -1.180007
H  -3.923033   0.507394   0.527570
C  -1.404556   0.238927   0.142114
H  -2.866189  -1.246559  -0.746959
H  -2.839888  -1.352635   1.197309
C  -0.095009  -0.724500  -0.069392
H  -1.312839   1.145052   1.159246
H  -1.486996   0.677004  -0.586361
H  -0.084780  -1.278904   0.809947
H   0.692416  -0.288739  -0.053710
H  -0.143870  -1.432431  -1.002220
