butane_opt
 OpenBabel08242015393D

 14 13  0  0  0  0  0  0  0  0999 V2000
   -4.0015    0.2993   -0.0006 C   0  0  0  0  0  0  0  0  0  0  0  0
   -2.6548   -0.6565    0.1105 C   0  0  0  0  0  0  0  0  0  0  0  0
   -5.0331   -0.2937   -0.2302 H   0  0  0  0  0  0  0  0  0  0  0  0
   -3.9357    0.8958   -0.9405 H   0  0  0  0  0  0  0  0  0  0  0  0
   -4.1250    1.0079    0.8278 H   0  0  0  0  0  0  0  0  0  0  0  0
   -1.3721    0.1536    0.0397 C   0  0  0  0  0  0  0  0  0  0  0  0
   -2.6387   -1.3569   -0.7299 H   0  0  0  0  0  0  0  0  0  0  0  0
   -2.7220   -1.2429    0.9101 H   0  0  0  0  0  0  0  0  0  0  0  0
   -0.1673   -0.6728   -0.0168 C   0  0  0  0  0  0  0  0  0  0  0  0
   -1.3741    0.7389    0.8738 H   0  0  0  0  0  0  0  0  0  0  0  0
   -1.3377    0.8157   -0.8438 H   0  0  0  0  0  0  0  0  0  0  0  0
   -0.2233   -1.1960    0.8294 H   0  0  0  0  0  0  0  0  0  0  0  0
    0.8206   -0.0194    0.0215 H   0  0  0  0  0  0  0  0  0  0  0  0
   -0.1097   -1.3037   -0.8867 H   0  0  0  0  0  0  0  0  0  0  0  0
  1  2  1  0  0  0  0
  1  5  1  0  0  0  0
  2  8  1  0  0  0  0
  3  1  1  0  0  0  0
  4  1  1  0  0  0  0
  6  2  1  0  0  0  0
  6 10  1  0  0  0  0
  7  2  1  0  0  0  0
  9 13  1  0  0  0  0
  9  6  1  0  0  0  0
  9 12  1  0  0  0  0
 11  6  1  0  0  0  0
 14  9  1  0  0  0  0
M  END
$$$$
