14
butane_opt
C  -3.915681   0.286774   0.103061
C  -2.663452  -0.656734  -0.069062
H  -4.925741  -0.370166   0.092085
H  -3.964417   0.924912  -0.729877
H  -4.066601   1.093371   0.979253
C  -1.375611   0.176943  -0.024998
H  -2.700765  -1.482721  -1.012793
H  -2.594120  -1.154995   0.636322
C  -0.227156  -0.676271   0.108811
H  -1.475827   0.806598   0.761495
H  -1.287916   0.855563  -0.974744
H  -0.144601  -1.627105   1.194557
H   0.672277  -0.093500  -0.316518
H  -0.334498  -0.996849  -0.555919
