butane_opt
 OpenBabel08242015393D

 14 13  0  0  0  0  0  0  0  0999 V2000
   -3.9692    0.2763    0.1153 C   0  0  0  0  0  0  0  0  0  0  0  0
   -2.7131   -0.6244   -0.0485 C   0  0  0  0  0  0  0  0  0  0  0  0
   -4.7554   -0.2863    0.1608 H   0  0  0  0  0  0  0  0  0  0  0  0
   -4.1001    0.8665   -0.7145 H   0  0  0  0  0  0  0  0  0  0  0  0
   -4.0082    1.0172    1.0393 H   0  0  0  0  0  0  0  0  0  0  0  0
   -1.3836    0.1604   -0.1146 C   0  0  0  0  0  0  0  0  0  0  0  0
   -2.8623   -1.2400   -0.9439 H   0  0  0  0  0  0  0  0  0  0  0  0
   -2.6631   -1.2480    0.8492 H   0  0  0  0  0  0  0  0  0  0  0  0
   -0.1549   -0.7014    0.1479 C   0  0  0  0  0  0  0  0  0  0  0  0
   -1.3962    0.6002    0.5539 H   0  0  0  0  0  0  0  0  0  0  0  0
   -1.2146    0.9959   -1.1484 H   0  0  0  0  0  0  0  0  0  0  0  0
   -0.2721   -0.8769    0.8031 H   0  0  0  0  0  0  0  0  0  0  0  0
    0.8182   -0.0289    0.3976 H   0  0  0  0  0  0  0  0  0  0  0  0
    0.0803   -1.5961   -0.7884 H   0  0  0  0  0  0  0  0  0  0  0  0
  1  3  1  0  0  0  0
  1  5  1  0  0  0  0
  2  1  1  0  0  0  0
  2  8  1  0  0  0  0
  4  1  1  0  0  0  0
  6  2  1  0  0  0  0
  6  9  1  0  0  0  0
  6 10  1  0  0  0  0
  7  2  1  0  0  0  0
  9 13  1  0  0  0  0
  9 12  1  0  0  0  0
 11  6  1  0  0  0  0
 14  9  1  0  0  0  0
M  END
$$$$
