14
butane_opt
C  -3.935817   0.218596   0.092342
C  -2.735699  -0.581932  -0.014473
H  -4.776903  -0.272331   0.127109
H  -3.973862   0.709336  -0.707927
H  -4.017102   0.891413   1.007866
C  -1.391158   0.254178  -0.100507
H  -2.916758  -1.326843  -0.820144
H  -2.761446  -1.121749   0.817693
C  -0.106662  -0.735228   0.102127
H  -1.449212   0.749910   0.616770
H  -1.537599   1.061419  -1.091907
H  -0.380726  -1.199251   0.964950
H   0.626583  -0.246107   0.481313
H   0.211705  -1.615066  -0.911380
