butane_opt
 OpenBabel08242015393D

 14 13  0  0  0  0  0  0  0  0999 V2000
   -3.9991    0.2842    0.1361 C   0  0  0  0  0  0  0  0  0  0  0  0
   -2.7345   -0.6302   -0.0911 C   0  0  0  0  0  0  0  0  0  0  0  0
   -4.9111   -0.2947    0.2673 H   0  0  0  0  0  0  0  0  0  0  0  0
   -4.1652    0.8576   -0.7631 H   0  0  0  0  0  0  0  0  0  0  0  0
   -3.7559    0.9304    1.0680 H   0  0  0  0  0  0  0  0  0  0  0  0
   -1.3579    0.1816   -0.1074 C   0  0  0  0  0  0  0  0  0  0  0  0
   -2.7066   -1.3378   -0.9841 H   0  0  0  0  0  0  0  0  0  0  0  0
   -2.6369   -1.2442    0.7282 H   0  0  0  0  0  0  0  0  0  0  0  0
   -0.1305   -0.7000    0.1575 C   0  0  0  0  0  0  0  0  0  0  0  0
   -1.3818    0.6399    0.5407 H   0  0  0  0  0  0  0  0  0  0  0  0
   -1.3207    1.0256   -1.1009 H   0  0  0  0  0  0  0  0  0  0  0  0
   -0.3515   -1.0951    0.9354 H   0  0  0  0  0  0  0  0  0  0  0  0
    0.7455   -0.1373    0.3273 H   0  0  0  0  0  0  0  0  0  0  0  0
    0.1288   -1.4460   -0.7314 H   0  0  0  0  0  0  0  0  0  0  0  0
  1  3  1  0  0  0  0
  1  5  1  0  0  0  0
  2  1  1  0  0  0  0
  2  8  1  0  0  0  0
  4  1  1  0  0  0  0
  6  2  1  0  0  0  0
  6  9  1  0  0  0  0
  6 10  1  0  0  0  0
  7  2  1  0  0  0  0
  9 13  1  0  0  0  0
  9 12  1  0  0  0  0
 11  6  1  0  0  0  0
 14  9  1  0  0  0  0
M  END
$$$$
