14
butane_opt
C  -3.951731   0.254591  -0.037987
C  -2.676703  -0.590323   0.112306
H  -4.904182  -0.464117  -0.309600
H  -3.827447   0.514662  -0.775619
H  -4.001283   1.278020   1.064992
C  -1.408994   0.201377   0.024311
H  -2.713966  -1.195376  -0.719793
H  -2.795446  -1.408398   1.136581
C  -0.138156  -0.702532  -0.011847
H  -1.397395   0.907156   0.809592
H  -1.529709   0.837690  -0.866610
H  -0.130707  -1.411336   0.933585
H   0.707113  -0.126708   0.017985
H  -0.296423  -1.378126  -0.837283
