butane_opt
 OpenBabel08242015393D

 14 13  0  0  0  0  0  0  0  0999 V2000
   -3.9449    0.2596    0.0080 C   0  0  0  0  0  0  0  0  0  0  0  0
   -2.6988   -0.6072    0.0541 C   0  0  0  0  0  0  0  0  0  0  0  0
   -4.9211   -0.3843    0.0687 H   0  0  0  0  0  0  0  0  0  0  0  0
   -3.9611    0.9284   -0.9208 H   0  0  0  0  0  0  0  0  0  0  0  0
   -3.9677    0.8759    0.8270 H   0  0  0  0  0  0  0  0  0  0  0  0
   -1.4130    0.1862    0.0120 C   0  0  0  0  0  0  0  0  0  0  0  0
   -2.7645   -1.2260   -0.7680 H   0  0  0  0  0  0  0  0  0  0  0  0
   -2.6790   -1.2844    0.9702 H   0  0  0  0  0  0  0  0  0  0  0  0
   -0.1486   -0.6948    0.0177 C   0  0  0  0  0  0  0  0  0  0  0  0
   -1.3776    0.9156    0.9171 H   0  0  0  0  0  0  0  0  0  0  0  0
   -1.3974    0.8108   -0.8807 H   0  0  0  0  0  0  0  0  0  0  0  0
   -0.1890   -1.2347    0.8696 H   0  0  0  0  0  0  0  0  0  0  0  0
    0.7326   -0.1119    0.1238 H   0  0  0  0  0  0  0  0  0  0  0  0
   -0.0311   -1.4989   -0.8937 H   0  0  0  0  0  0  0  0  0  0  0  0
  1  2  1  0  0  0  0
  1  3  1  0  0  0  0
  1  5  1  0  0  0  0
  2  8  1  0  0  0  0
  4  1  1  0  0  0  0
  6  9  1  0  0  0  0
  6  2  1  0  0  0  0
  6 10  1  0  0  0  0
  7  2  1  0  0  0  0
  9 13  1  0  0  0  0
  9 12  1  0  0  0  0
 11  6  1  0  0  0  0
 14  9  1  0  0  0  0
M  END
$$$$
