14
butane_opt
C  -3.965836   0.282980   0.103321
C  -2.646999  -0.622254  -0.063995
H  -4.901282  -0.260135   0.274062
H  -4.203729   1.071682  -0.902170
H  -3.820142   0.894558   0.854847
C  -1.369904   0.106232  -0.050194
H  -2.782442  -1.545548  -0.997145
H  -2.470442  -1.142907   0.706152
C  -0.216852  -0.652055   0.113512
H  -1.488848   0.828495   0.817091
H  -1.333541   0.809495  -0.989747
H  -0.197199  -1.329059   1.014447
H   0.729426   0.015610  -0.010474
H  -0.172709  -1.168058  -0.580107
