14
butane_opt
C  -3.938623   0.288427  -0.052054
C  -2.672375  -0.655722   0.173640
H  -4.814015  -0.297655  -0.067635
H  -3.834310   1.181929  -1.139228
H  -4.164339   0.849149   0.678812
C  -1.363761   0.138089   0.070623
H  -2.686224  -1.272681  -0.675132
H  -2.678821  -1.283064   1.118888
C  -0.214110  -0.644598  -0.061767
H  -1.417730   0.857945   0.959001
H  -1.313816   0.814862  -0.823912
H  -0.352180  -0.941379   0.606753
H   0.671468  -0.134370   0.279988
H  -0.157334  -1.774821  -1.140997
