14
butane_opt
C  -3.970927   0.317243  -0.028701
C  -2.705865  -0.685986   0.119676
H  -4.899318  -0.263260   0.003777
H  -3.978544   1.133530  -1.069644
H  -4.101568   0.831001   0.731568
C  -1.364958   0.169648   0.045476
H  -2.631059  -1.240794  -0.584982
H  -2.859371  -1.530405   1.092786
C  -0.170668  -0.671599  -0.020627
H  -1.339646   0.828709   0.940995
H  -1.268604   0.855845  -0.869177
H  -0.174083  -0.754495   0.508085
H   0.785355  -0.093655   0.315449
H  -0.027859  -1.771965  -1.092211
