butane_opt
 OpenBabel08242015393D

 14 13  0  0  0  0  0  0  0  0999 V2000
   -3.9358    0.2186    0.0923 C   0  0  0  0  0  0  0  0  0  0  0  0
   -2.7357   -0.5819   -0.0145 C   0  0  0  0  0  0  0  0  0  0  0  0
   -4.7769   -0.2723    0.1271 H   0  0  0  0  0  0  0  0  0  0  0  0
   -3.9739    0.7093   -0.7079 H   0  0  0  0  0  0  0  0  0  0  0  0
   -4.0171    0.8914    1.0079 H   0  0  0  0  0  0  0  0  0  0  0  0
   -1.3912    0.2542   -0.1005 C   0  0  0  0  0  0  0  0  0  0  0  0
   -2.9168   -1.3268   -0.8201 H   0  0  0  0  0  0  0  0  0  0  0  0
   -2.7614   -1.1217    0.8177 H   0  0  0  0  0  0  0  0  0  0  0  0
   -0.1067   -0.7352    0.1021 C   0  0  0  0  0  0  0  0  0  0  0  0
   -1.4492    0.7499    0.6168 H   0  0  0  0  0  0  0  0  0  0  0  0
   -1.5376    1.0614   -1.0919 H   0  0  0  0  0  0  0  0  0  0  0  0
   -0.3807   -1.1993    0.9649 H   0  0  0  0  0  0  0  0  0  0  0  0
    0.6266   -0.2461    0.4813 H   0  0  0  0  0  0  0  0  0  0  0  0
    0.2117   -1.6151   -0.9114 H   0  0  0  0  0  0  0  0  0  0  0  0
  1  3  1  0  0  0  0
  1  5  1  0  0  0  0
  2  1  1  0  0  0  0
  2  8  1  0  0  0  0
  4  1  1  0  0  0  0
  6  2  1  0  0  0  0
  6  9  1  0  0  0  0
  6 10  1  0  0  0  0
  7  2  1  0  0  0  0
  9 13  1  0  0  0  0
  9 12  1  0  0  0  0
 11  6  1  0  0  0  0
 14  9  1  0  0  0  0
M  END
$$$$
