butane_opt
 OpenBabel08242015393D

 14 13  0  0  0  0  0  0  0  0999 V2000
   -3.9519    0.2640   -0.0535 C   0  0  0  0  0  0  0  0  0  0  0  0
   -2.7266   -0.6236    0.1676 C   0  0  0  0  0  0  0  0  0  0  0  0
   -4.7670   -0.2418   -0.5398 H   0  0  0  0  0  0  0  0  0  0  0  0
   -3.7264    0.7985   -0.9080 H   0  0  0  0  0  0  0  0  0  0  0  0
   -4.2386    0.9826    0.8413 H   0  0  0  0  0  0  0  0  0  0  0  0
   -1.3904    0.2117    0.0917 C   0  0  0  0  0  0  0  0  0  0  0  0
   -2.8210   -1.2835   -0.6634 H   0  0  0  0  0  0  0  0  0  0  0  0
   -2.8154   -1.2927    1.1093 H   0  0  0  0  0  0  0  0  0  0  0  0
   -0.1376   -0.6947   -0.0686 C   0  0  0  0  0  0  0  0  0  0  0  0
   -1.4245    0.7973    0.9387 H   0  0  0  0  0  0  0  0  0  0  0  0
   -1.3908    0.7279   -0.7184 H   0  0  0  0  0  0  0  0  0  0  0  0
    0.0507   -1.3001    0.8228 H   0  0  0  0  0  0  0  0  0  0  0  0
    0.7385   -0.2431   -0.1874 H   0  0  0  0  0  0  0  0  0  0  0  0
   -0.1668   -1.2855   -0.9189 H   0  0  0  0  0  0  0  0  0  0  0  0
  1  2  1  0  0  0  0
  1  5  1  0  0  0  0
  2  8  1  0  0  0  0
  3  1  1  0  0  0  0
  4  1  1  0  0  0  0
  6  2  1  0  0  0  0
  6 10  1  0  0  0  0
  7  2  1  0  0  0  0
  9  6  1  0  0  0  0
  9 12  1  0  0  0  0
 11  6  1  0  0  0  0
 13  9  1  0  0  0  0
 14  9  1  0  0  0  0
M  END
$$$$
