butane_opt
 OpenBabel08242015393D

 14 13  0  0  0  0  0  0  0  0999 V2000
   -3.9364    0.2262    0.0945 C   0  0  0  0  0  0  0  0  0  0  0  0
   -2.6946   -0.5614   -0.0042 C   0  0  0  0  0  0  0  0  0  0  0  0
   -4.9055   -0.3391   -0.1642 H   0  0  0  0  0  0  0  0  0  0  0  0
   -3.8706    0.5436   -0.6903 H   0  0  0  0  0  0  0  0  0  0  0  0
   -3.8896    1.1374    1.1286 H   0  0  0  0  0  0  0  0  0  0  0  0
   -1.4242    0.1758   -0.0817 C   0  0  0  0  0  0  0  0  0  0  0  0
   -2.6134   -1.4167   -1.0070 H   0  0  0  0  0  0  0  0  0  0  0  0
   -2.6338   -0.9308    0.7220 H   0  0  0  0  0  0  0  0  0  0  0  0
   -0.1645   -0.7095    0.1040 C   0  0  0  0  0  0  0  0  0  0  0  0
   -1.4386    0.7799    0.7376 H   0  0  0  0  0  0  0  0  0  0  0  0
   -1.4238    0.9543   -1.0624 H   0  0  0  0  0  0  0  0  0  0  0  0
   -0.1425   -1.5808    1.1433 H   0  0  0  0  0  0  0  0  0  0  0  0
    0.7210   -0.1515   -0.0962 H   0  0  0  0  0  0  0  0  0  0  0  0
   -0.1707   -1.0619   -0.5541 H   0  0  0  0  0  0  0  0  0  0  0  0
  1  5  1  0  0  0  0
  2  1  1  0  0  0  0
  2  8  1  0  0  0  0
  3  1  1  0  0  0  0
  4  1  1  0  0  0  0
  6  2  1  0  0  0  0
  6  9  1  0  0  0  0
  6 10  1  0  0  0  0
  7  2  1  0  0  0  0
  9 12  1  0  0  0  0
 11  6  1  0  0  0  0
 13  9  1  0  0  0  0
 14  9  1  0  0  0  0
M  END
$$$$
