14
butane_opt
C  -3.964123   0.288051   0.146074
C  -2.711043  -0.652453  -0.060677
H  -4.808147  -0.148569  -0.015170
H  -4.127130   0.788131  -0.632005
H  -3.946033   0.960553   1.031215
C  -1.391880   0.166962  -0.137990
H  -2.683778  -1.379508  -0.923464
H  -2.607363  -1.264485   0.748221
C  -0.174565  -0.658925   0.152524
H  -1.523127   0.656301   0.583143
H  -1.178567   0.898343  -1.108941
H  -0.141604  -1.144426   0.991283
H   0.744854  -0.081731   0.296559
H   0.106600  -1.463222  -0.750494
