14
butane_opt
C  -3.957171   0.261404  -0.057509
C  -2.662239  -0.634610   0.185556
H  -4.762453  -0.229487   0.062594
H  -3.860749   1.217366  -1.187327
H  -4.113977   0.791578   0.673242
C  -1.398537   0.170782   0.039992
H  -2.636625  -1.419715  -0.669080
H  -2.624557  -1.349195   1.177330
C  -0.202421  -0.649292  -0.044963
H  -1.410570   0.846888   0.947225
H  -1.362250   0.735072  -0.864000
H  -0.351810  -0.777299   0.518439
H   0.722938  -0.099333   0.423987
H   0.009307  -1.941475  -1.217877
