butane_opt
 OpenBabel08242015393D

 14 13  0  0  0  0  0  0  0  0999 V2000
   -3.9778    0.2865    0.1294 C   0  0  0  0  0  0  0  0  0  0  0  0
   -2.6843   -0.6708   -0.1237 C   0  0  0  0  0  0  0  0  0  0  0  0
   -4.8340   -0.3367    0.4227 H   0  0  0  0  0  0  0  0  0  0  0  0
   -4.4015    1.1036   -0.8289 H   0  0  0  0  0  0  0  0  0  0  0  0
   -3.6270    0.9660    1.0130 H   0  0  0  0  0  0  0  0  0  0  0  0
   -1.3897    0.1740   -0.0956 C   0  0  0  0  0  0  0  0  0  0  0  0
   -2.7963   -1.3729   -1.0057 H   0  0  0  0  0  0  0  0  0  0  0  0
   -2.7324   -1.2689    0.7686 H   0  0  0  0  0  0  0  0  0  0  0  0
   -0.1664   -0.6617    0.1343 C   0  0  0  0  0  0  0  0  0  0  0  0
   -1.5453    0.8254    0.8177 H   0  0  0  0  0  0  0  0  0  0  0  0
   -1.1600    0.8421   -1.0039 H   0  0  0  0  0  0  0  0  0  0  0  0
   -0.1829   -1.3591    1.1262 H   0  0  0  0  0  0  0  0  0  0  0  0
    0.7215   -0.1099    0.1946 H   0  0  0  0  0  0  0  0  0  0  0  0
    0.1271   -1.2733   -0.6283 H   0  0  0  0  0  0  0  0  0  0  0  0
  1  3  1  0  0  0  0
  1  5  1  0  0  0  0
  2  6  1  0  0  0  0
  2  1  1  0  0  0  0
  2  8  1  0  0  0  0
  4  1  1  0  0  0  0
  6  9  1  0  0  0  0
  6 10  1  0  0  0  0
  7  2  1  0  0  0  0
  9 13  1  0  0  0  0
  9 12  1  0  0  0  0
 11  6  1  0  0  0  0
 14  9  1  0  0  0  0
M  END
$$$$
