butane_opt
 OpenBabel08242015393D

 14 11  0  0  0  0  0  0  0  0999 V2000
   -3.9333    0.2574   -0.0462 C   0  0  0  0  0  0  0  0  0  0  0  0
   -2.7431   -0.6150    0.1269 C   0  0  0  0  0  0  0  0  0  0  0  0
   -4.8267   -0.3104    0.2457 H   0  0  0  0  0  0  0  0  0  0  0  0
   -4.0919    1.3643   -1.3231 H   0  0  0  0  0  0  0  0  0  0  0  0
   -3.9027    0.5350    0.5089 H   0  0  0  0  0  0  0  0  0  0  0  0
   -1.3915    0.2345    0.1280 C   0  0  0  0  0  0  0  0  0  0  0  0
   -2.6859   -1.4840   -0.8180 H   0  0  0  0  0  0  0  0  0  0  0  0
   -2.8571   -1.2953    0.9930 H   0  0  0  0  0  0  0  0  0  0  0  0
   -0.1495   -0.7189   -0.0674 C   0  0  0  0  0  0  0  0  0  0  0  0
   -1.2519    0.9582    0.9821 H   0  0  0  0  0  0  0  0  0  0  0  0
   -1.5096    0.7367   -0.7338 H   0  0  0  0  0  0  0  0  0  0  0  0
   -0.0918   -1.1593    0.7009 H   0  0  0  0  0  0  0  0  0  0  0  0
    0.7835   -0.0604    0.1480 H   0  0  0  0  0  0  0  0  0  0  0  0
    0.0096   -1.6173   -1.0192 H   0  0  0  0  0  0  0  0  0  0  0  0
  1  2  1  0  0  0  0
  1  3  1  0  0  0  0
  2  6  1  0  0  0  0
  2  8  1  0  0  0  0
  6 10  1  0  0  0  0
  7  2  1  0  0  0  0
  9  6  1  0  0  0  0
  9 13  1  0  0  0  0
  9 12  1  0  0  0  0
 11  6  1  0  0  0  0
 14  9  1  0  0  0  0
M  RAD  3   1   3   4   2   5   2
M  END
$$$$
