butane_opt
 OpenBabel08242015393D

 14 13  0  0  0  0  0  0  0  0999 V2000
   -3.9067    0.2487    0.0785 C   0  0  0  0  0  0  0  0  0  0  0  0
   -2.7052   -0.5861   -0.0285 C   0  0  0  0  0  0  0  0  0  0  0  0
   -4.8250   -0.3856    0.2680 H   0  0  0  0  0  0  0  0  0  0  0  0
   -3.9472    0.7231   -0.6244 H   0  0  0  0  0  0  0  0  0  0  0  0
   -3.6502    0.9126    0.9863 H   0  0  0  0  0  0  0  0  0  0  0  0
   -1.4301    0.2215   -0.1212 C   0  0  0  0  0  0  0  0  0  0  0  0
   -2.9490   -1.3603   -0.9410 H   0  0  0  0  0  0  0  0  0  0  0  0
   -2.6298   -1.2001    0.9046 H   0  0  0  0  0  0  0  0  0  0  0  0
   -0.1743   -0.7101    0.1140 C   0  0  0  0  0  0  0  0  0  0  0  0
   -1.3947    0.9052    0.6896 H   0  0  0  0  0  0  0  0  0  0  0  0
   -1.3986    0.9331   -0.9958 H   0  0  0  0  0  0  0  0  0  0  0  0
   -0.4610   -1.2968    1.0016 H   0  0  0  0  0  0  0  0  0  0  0  0
    0.6140   -0.2798    0.4009 H   0  0  0  0  0  0  0  0  0  0  0  0
    0.2160   -1.5371   -0.7817 H   0  0  0  0  0  0  0  0  0  0  0  0
  1  3  1  0  0  0  0
  1  5  1  0  0  0  0
  2  1  1  0  0  0  0
  2  8  1  0  0  0  0
  4  1  1  0  0  0  0
  6  2  1  0  0  0  0
  6  9  1  0  0  0  0
  6 10  1  0  0  0  0
  7  2  1  0  0  0  0
  9 13  1  0  0  0  0
  9 12  1  0  0  0  0
 11  6  1  0  0  0  0
 14  9  1  0  0  0  0
M  END
$$$$
