butane_opt
 OpenBabel08242015393D

 14 13  0  0  0  0  0  0  0  0999 V2000
   -3.9373    0.2733   -0.0154 C   0  0  0  0  0  0  0  0  0  0  0  0
   -2.7005   -0.6186    0.0566 C   0  0  0  0  0  0  0  0  0  0  0  0
   -4.8463   -0.2986    0.0061 H   0  0  0  0  0  0  0  0  0  0  0  0
   -3.9502    0.9414   -0.9509 H   0  0  0  0  0  0  0  0  0  0  0  0
   -3.9936    0.9154    0.8434 H   0  0  0  0  0  0  0  0  0  0  0  0
   -1.4081    0.1635    0.0635 C   0  0  0  0  0  0  0  0  0  0  0  0
   -2.6734   -1.2733   -0.7814 H   0  0  0  0  0  0  0  0  0  0  0  0
   -2.7575   -1.2975    1.0029 H   0  0  0  0  0  0  0  0  0  0  0  0
   -0.1612   -0.6842    0.0022 C   0  0  0  0  0  0  0  0  0  0  0  0
   -1.3386    0.8994    0.9442 H   0  0  0  0  0  0  0  0  0  0  0  0
   -1.3839    0.7454   -0.8042 H   0  0  0  0  0  0  0  0  0  0  0  0
   -0.0942   -1.3383    0.9266 H   0  0  0  0  0  0  0  0  0  0  0  0
    0.7601   -0.0527   -0.1821 H   0  0  0  0  0  0  0  0  0  0  0  0
   -0.2617   -1.3146   -0.8499 H   0  0  0  0  0  0  0  0  0  0  0  0
  1  3  1  0  0  0  0
  1  2  1  0  0  0  0
  1  5  1  0  0  0  0
  2  6  1  0  0  0  0
  2  8  1  0  0  0  0
  4  1  1  0  0  0  0
  6 10  1  0  0  0  0
  7  2  1  0  0  0  0
  9  6  1  0  0  0  0
  9 12  1  0  0  0  0
 11  6  1  0  0  0  0
 13  9  1  0  0  0  0
 14  9  1  0  0  0  0
M  END
$$$$
