14
butane_opt
C  -3.984277   0.281667  -0.080694
C  -2.706665  -0.630936   0.165406
H  -4.877891  -0.332795   0.126769
H  -4.061580   1.083694  -1.110760
H  -3.998630   0.821305   0.620192
C  -1.353200   0.162467   0.092224
H  -2.706712  -1.291720  -0.653286
H  -2.699807  -1.352457   1.121784
C  -0.150980  -0.662182  -0.051926
H  -1.275877   0.876210   0.889864
H  -1.426842   0.886841  -0.856418
H  -0.207633  -0.977962   0.608763
H   0.732856  -0.163217   0.383532
H  -0.151291  -1.850424  -1.242786
