14
butane_opt
C  -3.954847   0.313469   0.079079
C  -2.674219  -0.623183   0.013242
H  -4.876950  -0.366986  -0.215607
H  -3.974110   0.536574  -0.501644
H  -4.068313   1.261051   1.180146
C  -1.386078   0.110308  -0.116483
H  -2.719080  -1.447620  -1.004583
H  -2.562688  -1.300393   0.895729
C  -0.185516  -0.647891   0.107299
H  -1.487694   0.754066   0.715494
H  -1.325953   0.801209  -1.071836
H  -0.367742  -1.357646   1.120082
H   0.771519  -0.015468   0.041846
H  -0.018369  -1.162608  -0.684803
