14
butane_opt
C  -4.002666   0.302388  -0.087609
C  -2.673696  -0.644571   0.151712
H  -4.895362  -0.295143   0.106957
H  -3.930685   1.020107  -1.113573
H  -4.179096   0.805768   0.599307
C  -1.358712   0.145864   0.142896
H  -2.589340  -1.430908  -0.779982
H  -2.845361  -1.087112   0.909973
C  -0.162281  -0.680580  -0.076865
H  -1.211891   0.897041   1.151555
H  -1.419836   0.632933  -0.661733
H   0.015798  -1.355401   0.847548
H   0.741751  -0.007974  -0.366736
H  -0.346831  -1.108787  -0.794336
