14
butane_opt
C  -3.970247   0.291241  -0.046278
C  -2.707316  -0.674953   0.076457
H  -4.850081  -0.251602   0.438223
H  -4.165515   1.449517  -1.295824
H  -3.944603   0.632521   0.571039
C  -1.351029   0.184254   0.084763
H  -2.858284  -1.331550  -0.690541
H  -2.700623  -1.355634   1.033408
C  -0.165365  -0.686277  -0.029805
H  -1.377427   1.111032   1.110886
H  -1.401421   0.567653  -0.643551
H  -0.122126  -1.101993   0.733090
H   0.860893  -0.062386   0.137752
H  -0.151689  -1.467683  -1.052288
