butane_opt
 OpenBabel08242015393D

 14 13  0  0  0  0  0  0  0  0999 V2000
   -3.9908    0.2767   -0.0308 C   0  0  0  0  0  0  0  0  0  0  0  0
   -2.6977   -0.6413    0.0773 C   0  0  0  0  0  0  0  0  0  0  0  0
   -4.8484   -0.2343    0.2199 H   0  0  0  0  0  0  0  0  0  0  0  0
   -4.0635    1.0656   -1.0126 H   0  0  0  0  0  0  0  0  0  0  0  0
   -4.1632    0.8351    0.8248 H   0  0  0  0  0  0  0  0  0  0  0  0
   -1.3848    0.1432    0.0433 C   0  0  0  0  0  0  0  0  0  0  0  0
   -2.6169   -1.1356   -0.5982 H   0  0  0  0  0  0  0  0  0  0  0  0
   -2.6580   -1.3617    0.9712 H   0  0  0  0  0  0  0  0  0  0  0  0
   -0.1228   -0.6611   -0.0243 C   0  0  0  0  0  0  0  0  0  0  0  0
   -1.4170    0.9535    0.9807 H   0  0  0  0  0  0  0  0  0  0  0  0
   -1.3123    0.6829   -0.7943 H   0  0  0  0  0  0  0  0  0  0  0  0
   -0.3317   -1.1466    0.7789 H   0  0  0  0  0  0  0  0  0  0  0  0
    0.8613   -0.0264    0.2451 H   0  0  0  0  0  0  0  0  0  0  0  0
   -0.1160   -1.5084   -0.9920 H   0  0  0  0  0  0  0  0  0  0  0  0
  1  2  1  0  0  0  0
  1  3  1  0  0  0  0
  1  5  1  0  0  0  0
  2  8  1  0  0  0  0
  4  1  1  0  0  0  0
  6  2  1  0  0  0  0
  6 10  1  0  0  0  0
  7  2  1  0  0  0  0
  9  6  1  0  0  0  0
  9 13  1  0  0  0  0
  9 12  1  0  0  0  0
 11  6  1  0  0  0  0
 14  9  1  0  0  0  0
M  END
$$$$
