butane_opt
 OpenBabel08242015393D

 14 13  0  0  0  0  0  0  0  0999 V2000
   -3.9212    0.2440   -0.0059 C   0  0  0  0  0  0  0  0  0  0  0  0
   -2.6861   -0.5696    0.1214 C   0  0  0  0  0  0  0  0  0  0  0  0
   -4.9028   -0.3875   -0.0784 H   0  0  0  0  0  0  0  0  0  0  0  0
   -3.6959    0.9329   -0.9891 H   0  0  0  0  0  0  0  0  0  0  0  0
   -3.8893    0.8673    0.8443 H   0  0  0  0  0  0  0  0  0  0  0  0
   -1.4231    0.1755   -0.0258 C   0  0  0  0  0  0  0  0  0  0  0  0
   -2.7290   -1.0867   -0.6630 H   0  0  0  0  0  0  0  0  0  0  0  0
   -2.7875   -1.3293    1.0676 H   0  0  0  0  0  0  0  0  0  0  0  0
   -0.1837   -0.7000    0.0139 C   0  0  0  0  0  0  0  0  0  0  0  0
   -1.3929    0.9521    0.8322 H   0  0  0  0  0  0  0  0  0  0  0  0
   -1.4301    0.6108   -0.7330 H   0  0  0  0  0  0  0  0  0  0  0  0
   -0.3060   -1.0253    0.6611 H   0  0  0  0  0  0  0  0  0  0  0  0
    0.6277   -0.1213    0.2786 H   0  0  0  0  0  0  0  0  0  0  0  0
    0.0513   -1.7022   -1.0686 H   0  0  0  0  0  0  0  0  0  0  0  0
  1  2  1  0  0  0  0
  1  5  1  0  0  0  0
  2  8  1  0  0  0  0
  3  1  1  0  0  0  0
  4  1  1  0  0  0  0
  6  9  1  0  0  0  0
  6  2  1  0  0  0  0
  6 10  1  0  0  0  0
  7  2  1  0  0  0  0
  9 13  1  0  0  0  0
  9 12  1  0  0  0  0
 11  6  1  0  0  0  0
 14  9  1  0  0  0  0
M  END
$$$$
