butane_opt
 OpenBabel08242015393D

 14 12  0  0  0  0  0  0  0  0999 V2000
   -3.9702    0.2912   -0.0463 C   0  0  0  0  0  0  0  0  0  0  0  0
   -2.7073   -0.6750    0.0765 C   0  0  0  0  0  0  0  0  0  0  0  0
   -4.8501   -0.2516    0.4382 H   0  0  0  0  0  0  0  0  0  0  0  0
   -4.1655    1.4495   -1.2958 H   0  0  0  0  0  0  0  0  0  0  0  0
   -3.9446    0.6325    0.5710 H   0  0  0  0  0  0  0  0  0  0  0  0
   -1.3510    0.1843    0.0848 C   0  0  0  0  0  0  0  0  0  0  0  0
   -2.8583   -1.3316   -0.6905 H   0  0  0  0  0  0  0  0  0  0  0  0
   -2.7006   -1.3556    1.0334 H   0  0  0  0  0  0  0  0  0  0  0  0
   -0.1654   -0.6863   -0.0298 C   0  0  0  0  0  0  0  0  0  0  0  0
   -1.3774    1.1110    1.1109 H   0  0  0  0  0  0  0  0  0  0  0  0
   -1.4014    0.5677   -0.6436 H   0  0  0  0  0  0  0  0  0  0  0  0
   -0.1221   -1.1020    0.7331 H   0  0  0  0  0  0  0  0  0  0  0  0
    0.8609   -0.0624    0.1378 H   0  0  0  0  0  0  0  0  0  0  0  0
   -0.1517   -1.4677   -1.0523 H   0  0  0  0  0  0  0  0  0  0  0  0
  1  2  1  0  0  0  0
  1  3  1  0  0  0  0
  1  5  1  0  0  0  0
  2  6  1  0  0  0  0
  2  8  1  0  0  0  0
  6 10  1  0  0  0  0
  7  2  1  0  0  0  0
  9  6  1  0  0  0  0
  9 13  1  0  0  0  0
  9 12  1  0  0  0  0
 11  6  1  0  0  0  0
 14  9  1  0  0  0  0
M  RAD  2   1   2   4   2
M  END
$$$$
