14
butane_opt
C  -3.947220   0.270249  -0.000324
C  -2.687521  -0.629282   0.054950
H  -4.803535  -0.268746   0.033122
H  -3.945540   0.937688  -0.943619
H  -4.000226   0.861402   0.788632
C  -1.402839   0.178720   0.048114
H  -2.730313  -1.302459  -0.782520
H  -2.693162  -1.229404   0.938181
C  -0.170760  -0.684969   0.008394
H  -1.377820   0.856329   0.918404
H  -1.410640   0.782311  -0.844351
H  -0.113820  -1.300178   0.902220
H   0.729060  -0.063727  -0.065988
H  -0.189324  -1.351861  -0.849463
