14
butane_opt
C  -3.967992   0.283964   0.091435
C  -2.708369  -0.626286  -0.076348
H  -5.029646  -0.480780   0.477428
H  -4.162494   1.166715  -1.014978
H  -3.774827   0.699296   0.771690
C  -1.392935   0.186648  -0.024235
H  -2.860813  -1.291961  -1.005694
H  -2.724951  -1.207863   0.796555
C  -0.121556  -0.703219   0.080176
H  -1.283093   0.963746   0.920126
H  -1.383787   0.784320  -0.857275
H  -0.162600  -1.437897   1.023707
H   0.705828  -0.088058   0.172780
H  -0.040727  -1.290339  -0.700097
