butane_opt
 OpenBabel08242015393D

 14 12  0  0  0  0  0  0  0  0999 V2000
   -3.9273    0.2329    0.0997 C   0  0  0  0  0  0  0  0  0  0  0  0
   -2.6543   -0.5868   -0.0375 C   0  0  0  0  0  0  0  0  0  0  0  0
   -4.9233   -0.3543    0.0187 H   0  0  0  0  0  0  0  0  0  0  0  0
   -3.8749    0.7967   -0.8058 H   0  0  0  0  0  0  0  0  0  0  0  0
   -3.7988    0.9378    1.0210 H   0  0  0  0  0  0  0  0  0  0  0  0
   -1.4466    0.2259   -0.0349 C   0  0  0  0  0  0  0  0  0  0  0  0
   -2.6497   -1.5789   -1.1555 H   0  0  0  0  0  0  0  0  0  0  0  0
   -2.7024   -0.9935    0.6430 H   0  0  0  0  0  0  0  0  0  0  0  0
   -0.1987   -0.7137    0.0982 C   0  0  0  0  0  0  0  0  0  0  0  0
   -1.4002    0.8430    0.7584 H   0  0  0  0  0  0  0  0  0  0  0  0
   -1.3697    0.8933   -0.9102 H   0  0  0  0  0  0  0  0  0  0  0  0
   -0.1034   -1.7232    1.2803 H   0  0  0  0  0  0  0  0  0  0  0  0
    0.7157   -0.1338   -0.4019 H   0  0  0  0  0  0  0  0  0  0  0  0
   -0.1846   -1.0522   -0.4701 H   0  0  0  0  0  0  0  0  0  0  0  0
  1  5  1  0  0  0  0
  2  6  1  0  0  0  0
  2  1  1  0  0  0  0
  2  8  1  0  0  0  0
  3  1  1  0  0  0  0
  4  1  1  0  0  0  0
  6  9  1  0  0  0  0
  6 10  1  0  0  0  0
  7  2  1  0  0  0  0
 11  6  1  0  0  0  0
 13  9  1  0  0  0  0
 14  9  1  0  0  0  0
M  RAD  2   9   2  12   2
M  END
$$$$
