14
butane_opt
C  -4.012736   0.301452  -0.088612
C  -2.675524  -0.687595   0.125912
H  -4.843858  -0.307661  -0.111799
H  -4.066922   1.083622  -1.056638
H  -4.090417   0.927973   0.703696
C  -1.365624   0.159339   0.153258
H  -2.513419  -1.212350  -0.583775
H  -2.714784  -1.505695   1.067184
C  -0.154472  -0.642643  -0.069316
H  -1.373813   1.089423   1.129881
H  -1.304989   0.685836  -0.677963
H   0.050542  -1.379279   0.865254
H   0.736431  -0.080492  -0.347342
H  -0.410319  -1.333921  -1.026327
