butane_opt
 OpenBabel08242015393D

 14 13  0  0  0  0  0  0  0  0999 V2000
   -3.9126    0.2639   -0.0982 C   0  0  0  0  0  0  0  0  0  0  0  0
   -2.6927   -0.6311    0.1427 C   0  0  0  0  0  0  0  0  0  0  0  0
   -4.7217   -0.1765   -0.1657 H   0  0  0  0  0  0  0  0  0  0  0  0
   -3.9220    1.0715   -1.0461 H   0  0  0  0  0  0  0  0  0  0  0  0
   -4.0147    0.8605    0.7362 H   0  0  0  0  0  0  0  0  0  0  0  0
   -1.3922    0.1534    0.1860 C   0  0  0  0  0  0  0  0  0  0  0  0
   -2.4135   -1.2975   -0.6718 H   0  0  0  0  0  0  0  0  0  0  0  0
   -2.9051   -1.2469    1.0847 H   0  0  0  0  0  0  0  0  0  0  0  0
   -0.2173   -0.6870   -0.0867 C   0  0  0  0  0  0  0  0  0  0  0  0
   -1.2578    0.9115    1.1016 H   0  0  0  0  0  0  0  0  0  0  0  0
   -1.4560    0.8281   -0.8274 H   0  0  0  0  0  0  0  0  0  0  0  0
   -0.0116   -1.2952    0.8450 H   0  0  0  0  0  0  0  0  0  0  0  0
    0.7674   -0.0601   -0.3649 H   0  0  0  0  0  0  0  0  0  0  0  0
   -0.5162   -1.2484   -0.9743 H   0  0  0  0  0  0  0  0  0  0  0  0
  1  2  1  0  0  0  0
  1  5  1  0  0  0  0
  2  6  1  0  0  0  0
  2  8  1  0  0  0  0
  3  1  1  0  0  0  0
  4  1  1  0  0  0  0
  6 10  1  0  0  0  0
  7  2  1  0  0  0  0
  9  6  1  0  0  0  0
  9 12  1  0  0  0  0
 11  6  1  0  0  0  0
 13  9  1  0  0  0  0
 14  9  1  0  0  0  0
M  END
$$$$
