butane_opt
 OpenBabel08242015393D

 14 12  0  0  0  0  0  0  0  0999 V2000
   -3.9368    0.2640   -0.0541 C   0  0  0  0  0  0  0  0  0  0  0  0
   -2.7013   -0.6350    0.1310 C   0  0  0  0  0  0  0  0  0  0  0  0
   -4.7565   -0.1737    0.2290 H   0  0  0  0  0  0  0  0  0  0  0  0
   -4.1239    1.3752   -1.2498 H   0  0  0  0  0  0  0  0  0  0  0  0
   -4.0396    0.6117    0.5732 H   0  0  0  0  0  0  0  0  0  0  0  0
   -1.3898    0.1816    0.1155 C   0  0  0  0  0  0  0  0  0  0  0  0
   -2.6505   -1.5017   -0.8603 H   0  0  0  0  0  0  0  0  0  0  0  0
   -2.8011   -1.2724    0.9692 H   0  0  0  0  0  0  0  0  0  0  0  0
   -0.1791   -0.6758   -0.0495 C   0  0  0  0  0  0  0  0  0  0  0  0
   -1.3230    0.8980    1.0346 H   0  0  0  0  0  0  0  0  0  0  0  0
   -1.4881    0.6738   -0.7170 H   0  0  0  0  0  0  0  0  0  0  0  0
   -0.0986   -1.1642    0.6945 H   0  0  0  0  0  0  0  0  0  0  0  0
    0.7974    0.0109    0.0014 H   0  0  0  0  0  0  0  0  0  0  0  0
   -0.0785   -1.4956   -1.0059 H   0  0  0  0  0  0  0  0  0  0  0  0
  1  2  1  0  0  0  0
  1  3  1  0  0  0  0
  1  5  1  0  0  0  0
  2  8  1  0  0  0  0
  6  2  1  0  0  0  0
  6 10  1  0  0  0  0
  7  2  1  0  0  0  0
  9 13  1  0  0  0  0
  9  6  1  0  0  0  0
  9 12  1  0  0  0  0
 11  6  1  0  0  0  0
 14  9  1  0  0  0  0
M  RAD  2   1   2   4   2
M  END
$$$$
