butane_opt
 OpenBabel08242015393D

 14 13  0  0  0  0  0  0  0  0999 V2000
   -4.0127    0.3015   -0.0886 C   0  0  0  0  0  0  0  0  0  0  0  0
   -2.6755   -0.6876    0.1259 C   0  0  0  0  0  0  0  0  0  0  0  0
   -4.8439   -0.3077   -0.1118 H   0  0  0  0  0  0  0  0  0  0  0  0
   -4.0669    1.0836   -1.0566 H   0  0  0  0  0  0  0  0  0  0  0  0
   -4.0904    0.9280    0.7037 H   0  0  0  0  0  0  0  0  0  0  0  0
   -1.3656    0.1593    0.1533 C   0  0  0  0  0  0  0  0  0  0  0  0
   -2.5134   -1.2124   -0.5838 H   0  0  0  0  0  0  0  0  0  0  0  0
   -2.7148   -1.5057    1.0672 H   0  0  0  0  0  0  0  0  0  0  0  0
   -0.1545   -0.6426   -0.0693 C   0  0  0  0  0  0  0  0  0  0  0  0
   -1.3738    1.0894    1.1299 H   0  0  0  0  0  0  0  0  0  0  0  0
   -1.3050    0.6858   -0.6780 H   0  0  0  0  0  0  0  0  0  0  0  0
    0.0505   -1.3793    0.8653 H   0  0  0  0  0  0  0  0  0  0  0  0
    0.7364   -0.0805   -0.3473 H   0  0  0  0  0  0  0  0  0  0  0  0
   -0.4103   -1.3339   -1.0263 H   0  0  0  0  0  0  0  0  0  0  0  0
  1  2  1  0  0  0  0
  1  5  1  0  0  0  0
  2  6  1  0  0  0  0
  2  8  1  0  0  0  0
  3  1  1  0  0  0  0
  4  1  1  0  0  0  0
  6 10  1  0  0  0  0
  7  2  1  0  0  0  0
  9  6  1  0  0  0  0
  9 12  1  0  0  0  0
 11  6  1  0  0  0  0
 13  9  1  0  0  0  0
 14  9  1  0  0  0  0
M  END
$$$$
