14
butane_opt
C  -3.950779   0.255276  -0.077498
C  -2.669236  -0.591978   0.058675
H  -4.842112  -0.377135   0.449620
H  -3.917777   1.160925  -1.167707
H  -3.777891   0.506547   0.596381
C  -1.435084   0.174501   0.138819
H  -2.729224  -1.047899  -0.613699
H  -2.701104  -1.290347   1.097788
C  -0.168829  -0.675457  -0.048650
H  -1.411928   0.982711   1.099159
H  -1.436504   0.597352  -0.630786
H  -0.028484  -1.256455   0.758393
H   0.682985  -0.104618  -0.044484
H  -0.196498  -1.578860  -1.020590
