butane_opt
 OpenBabel08242015393D

 14 12  0  0  0  0  0  0  0  0999 V2000
   -3.8864    0.2427    0.1054 C   0  0  0  0  0  0  0  0  0  0  0  0
   -2.7456   -0.5668   -0.0264 C   0  0  0  0  0  0  0  0  0  0  0  0
   -4.9030   -0.4900   -0.2195 H   0  0  0  0  0  0  0  0  0  0  0  0
   -3.6813    0.4219   -0.5823 H   0  0  0  0  0  0  0  0  0  0  0  0
   -4.0279    1.2819    1.1939 H   0  0  0  0  0  0  0  0  0  0  0  0
   -1.4351    0.2466   -0.1070 C   0  0  0  0  0  0  0  0  0  0  0  0
   -2.8865   -1.2220   -0.8421 H   0  0  0  0  0  0  0  0  0  0  0  0
   -2.5527   -1.2960    0.8266 H   0  0  0  0  0  0  0  0  0  0  0  0
   -0.1486   -0.7396    0.1117 C   0  0  0  0  0  0  0  0  0  0  0  0
   -1.4894    0.7393    0.5877 H   0  0  0  0  0  0  0  0  0  0  0  0
   -1.3832    0.8689   -1.0226 H   0  0  0  0  0  0  0  0  0  0  0  0
   -0.2516   -1.4985    1.1228 H   0  0  0  0  0  0  0  0  0  0  0  0
    0.7743   -0.1547    0.0938 H   0  0  0  0  0  0  0  0  0  0  0  0
   -0.0183   -1.3235   -0.6697 H   0  0  0  0  0  0  0  0  0  0  0  0
  1  5  1  0  0  0  0
  2  1  1  0  0  0  0
  2  8  1  0  0  0  0
  3  1  1  0  0  0  0
  4  1  1  0  0  0  0
  6  9  1  0  0  0  0
  6 10  1  0  0  0  0
  7  2  1  0  0  0  0
  9 12  1  0  0  0  0
 11  6  1  0  0  0  0
 13  9  1  0  0  0  0
 14  9  1  0  0  0  0
M  RAD  2   2   2   6   2
M  END
$$$$
