14
butane_opt
C  -3.971201   0.294225   0.129290
C  -2.734184  -0.637181  -0.064139
H  -4.917037  -0.261399   0.136033
H  -4.035763   0.921635  -0.703948
H  -3.957747   1.019340   1.073276
C  -1.373907   0.141641  -0.135192
H  -2.806965  -1.299353  -0.895919
H  -2.514983  -1.280369   0.848517
C  -0.129734  -0.654640   0.122460
H  -1.322440   0.714887   0.569283
H  -1.330735   0.768197  -1.031928
H  -0.437927  -1.241986   1.006582
H   0.765662  -0.044742   0.578480
H   0.041288  -1.502914  -0.766222
