14
butane_opt
C  -3.912553   0.263898  -0.098167
C  -2.692671  -0.631107   0.142725
H  -4.721656  -0.176472  -0.165723
H  -3.921972   1.071544  -1.046093
H  -4.014720   0.860524   0.736174
C  -1.392174   0.153402   0.186018
H  -2.413492  -1.297487  -0.671829
H  -2.905080  -1.246885   1.084732
C  -0.217342  -0.686976  -0.086724
H  -1.257753   0.911488   1.101554
H  -1.455969   0.828144  -0.827429
H  -0.011610  -1.295204   0.845041
H   0.767423  -0.060138  -0.364867
H  -0.516223  -1.248428  -0.974270
