14
butane_opt
C  -3.894186   0.229245   0.030897
C  -2.692189  -0.577828   0.032534
H  -4.775262  -0.379244  -0.137216
H  -3.847018   1.043772  -0.950934
H  -3.996972   0.845497   0.788229
C  -1.460049   0.207822   0.058655
H  -2.708742  -1.396531  -0.944364
H  -2.789363  -1.252591   0.934283
C  -0.169107  -0.710321   0.008248
H  -1.449179   0.918295   0.960922
H  -1.427201   0.729126  -0.789067
H   0.082475  -1.496207   1.065051
H   0.727551  -0.073632  -0.346862
H  -0.257267  -1.176031  -0.704850
