butane_opt
 OpenBabel08242015393D

 14 13  0  0  0  0  0  0  0  0999 V2000
   -3.9250    0.2222    0.0164 C   0  0  0  0  0  0  0  0  0  0  0  0
   -2.7060   -0.5352   -0.0150 C   0  0  0  0  0  0  0  0  0  0  0  0
   -4.8260   -0.4616    0.4531 H   0  0  0  0  0  0  0  0  0  0  0  0
   -4.1513    1.0331   -0.9898 H   0  0  0  0  0  0  0  0  0  0  0  0
   -3.6530    0.5564    0.6658 H   0  0  0  0  0  0  0  0  0  0  0  0
   -1.4215    0.2125    0.0206 C   0  0  0  0  0  0  0  0  0  0  0  0
   -2.6822   -1.1808   -0.7847 H   0  0  0  0  0  0  0  0  0  0  0  0
   -2.6952   -1.2246    0.9606 H   0  0  0  0  0  0  0  0  0  0  0  0
   -0.1433   -0.7282    0.0414 C   0  0  0  0  0  0  0  0  0  0  0  0
   -1.4265    0.9146    0.9613 H   0  0  0  0  0  0  0  0  0  0  0  0
   -1.5316    0.7655   -0.8231 H   0  0  0  0  0  0  0  0  0  0  0  0
   -0.1425   -1.1963    0.9104 H   0  0  0  0  0  0  0  0  0  0  0  0
    0.7104   -0.1916    0.1907 H   0  0  0  0  0  0  0  0  0  0  0  0
   -0.2497   -1.5483   -0.9016 H   0  0  0  0  0  0  0  0  0  0  0  0
  1  3  1  0  0  0  0
  1  5  1  0  0  0  0
  2  1  1  0  0  0  0
  2  6  1  0  0  0  0
  2  8  1  0  0  0  0
  4  1  1  0  0  0  0
  6  9  1  0  0  0  0
  6 10  1  0  0  0  0
  7  2  1  0  0  0  0
  9 13  1  0  0  0  0
  9 12  1  0  0  0  0
 11  6  1  0  0  0  0
 14  9  1  0  0  0  0
M  END
$$$$
