14
butane_opt
C  -3.926057   0.264174   0.067970
C  -2.672450  -0.631129  -0.035072
H  -4.740105  -0.316714   0.032122
H  -4.105840   0.760671  -0.754290
H  -3.906555   1.191572   1.084480
C  -1.409634   0.162587  -0.013453
H  -2.672323  -1.426346  -0.954048
H  -2.613365  -1.028898   0.645487
C  -0.204728  -0.670265   0.091002
H  -1.261816   0.774578   0.707755
H  -1.282167   0.911217  -1.032026
H  -0.087847  -1.686871   1.238884
H   0.664788  -0.107697  -0.208781
H  -0.442076  -1.050906  -0.567862
