butane_opt
 OpenBabel08242015393D

 14 13  0  0  0  0  0  0  0  0999 V2000
   -3.9148    0.2507    0.0826 C   0  0  0  0  0  0  0  0  0  0  0  0
   -2.7228   -0.5496   -0.0634 C   0  0  0  0  0  0  0  0  0  0  0  0
   -4.9493   -0.4393    0.4165 H   0  0  0  0  0  0  0  0  0  0  0  0
   -3.9648    1.0029   -0.8429 H   0  0  0  0  0  0  0  0  0  0  0  0
   -3.6417    0.6009    0.7323 H   0  0  0  0  0  0  0  0  0  0  0  0
   -1.4143    0.1807   -0.0577 C   0  0  0  0  0  0  0  0  0  0  0  0
   -2.8275   -1.2971   -0.9413 H   0  0  0  0  0  0  0  0  0  0  0  0
   -2.5855   -1.1427    0.8530 H   0  0  0  0  0  0  0  0  0  0  0  0
   -0.1831   -0.7153    0.0880 C   0  0  0  0  0  0  0  0  0  0  0  0
   -1.4072    1.0010    0.8606 H   0  0  0  0  0  0  0  0  0  0  0  0
   -1.4448    0.6918   -0.7905 H   0  0  0  0  0  0  0  0  0  0  0  0
   -0.0797   -1.4227    1.0271 H   0  0  0  0  0  0  0  0  0  0  0  0
    0.7091   -0.1223    0.1963 H   0  0  0  0  0  0  0  0  0  0  0  0
   -0.0228   -1.3506   -0.6792 H   0  0  0  0  0  0  0  0  0  0  0  0
  1  3  1  0  0  0  0
  1  5  1  0  0  0  0
  2  6  1  0  0  0  0
  2  1  1  0  0  0  0
  2  8  1  0  0  0  0
  4  1  1  0  0  0  0
  6  9  1  0  0  0  0
  6 10  1  0  0  0  0
  7  2  1  0  0  0  0
  9 13  1  0  0  0  0
  9 12  1  0  0  0  0
 11  6  1  0  0  0  0
 14  9  1  0  0  0  0
M  END
$$$$
