butane_opt
 OpenBabel08242015393D

 14 13  0  0  0  0  0  0  0  0999 V2000
   -3.9046    0.2377   -0.0717 C   0  0  0  0  0  0  0  0  0  0  0  0
   -2.6855   -0.5840    0.0817 C   0  0  0  0  0  0  0  0  0  0  0  0
   -4.8558   -0.4921    0.1521 H   0  0  0  0  0  0  0  0  0  0  0  0
   -3.9764    1.0590   -1.0515 H   0  0  0  0  0  0  0  0  0  0  0  0
   -3.7281    0.7140    0.7013 H   0  0  0  0  0  0  0  0  0  0  0  0
   -1.4227    0.2447    0.1599 C   0  0  0  0  0  0  0  0  0  0  0  0
   -2.7375   -1.3075   -0.8198 H   0  0  0  0  0  0  0  0  0  0  0  0
   -2.7970   -1.1345    0.9632 H   0  0  0  0  0  0  0  0  0  0  0  0
   -0.1815   -0.7203   -0.0440 C   0  0  0  0  0  0  0  0  0  0  0  0
   -1.3380    0.8308    0.8851 H   0  0  0  0  0  0  0  0  0  0  0  0
   -1.4791    0.8235   -0.6668 H   0  0  0  0  0  0  0  0  0  0  0  0
    0.0445   -1.5023    0.9342 H   0  0  0  0  0  0  0  0  0  0  0  0
    0.6360   -0.2578   -0.2713 H   0  0  0  0  0  0  0  0  0  0  0  0
   -0.4261   -1.3527   -0.9056 H   0  0  0  0  0  0  0  0  0  0  0  0
  1  2  1  0  0  0  0
  1  3  1  0  0  0  0
  1  5  1  0  0  0  0
  2  6  1  0  0  0  0
  2  8  1  0  0  0  0
  4  1  1  0  0  0  0
  6 10  1  0  0  0  0
  7  2  1  0  0  0  0
  9  6  1  0  0  0  0
  9 12  1  0  0  0  0
 11  6  1  0  0  0  0
 13  9  1  0  0  0  0
 14  9  1  0  0  0  0
M  END
$$$$
