14
butane_opt
C  -3.997491   0.290777   0.097650
C  -2.717918  -0.642351  -0.056789
H  -4.951449  -0.239112  -0.064146
H  -4.082591   0.840486  -0.782089
H  -3.911481   1.090107   1.031016
C  -1.349739   0.127106  -0.022390
H  -2.827473  -1.387557  -1.031145
H  -2.581055  -1.132281   0.750278
C  -0.140386  -0.647898   0.083455
H  -1.349241   0.897343   0.865682
H  -1.318513   0.784278  -1.013954
H  -0.132763  -1.772786   1.319484
H   0.721783  -0.090662  -0.265853
H  -0.141235  -0.997571  -0.556294
