butane_opt
 OpenBabel08242015393D

 14 13  0  0  0  0  0  0  0  0999 V2000
   -3.9634    0.2289   -0.0540 C   0  0  0  0  0  0  0  0  0  0  0  0
   -2.7067   -0.5743    0.0964 C   0  0  0  0  0  0  0  0  0  0  0  0
   -4.8703   -0.4239   -0.0259 H   0  0  0  0  0  0  0  0  0  0  0  0
   -3.8092    0.9916   -1.1595 H   0  0  0  0  0  0  0  0  0  0  0  0
   -3.9971    0.6498    0.6044 H   0  0  0  0  0  0  0  0  0  0  0  0
   -1.4329    0.2184    0.1364 C   0  0  0  0  0  0  0  0  0  0  0  0
   -2.6549   -1.1756   -0.6830 H   0  0  0  0  0  0  0  0  0  0  0  0
   -2.7938   -1.2137    1.0942 H   0  0  0  0  0  0  0  0  0  0  0  0
   -0.1148   -0.7354   -0.0674 C   0  0  0  0  0  0  0  0  0  0  0  0
   -1.2773    1.2204    1.2342 H   0  0  0  0  0  0  0  0  0  0  0  0
   -1.4540    0.7064   -0.6476 H   0  0  0  0  0  0  0  0  0  0  0  0
    0.0639   -1.4590    0.9147 H   0  0  0  0  0  0  0  0  0  0  0  0
    0.7182   -0.2178   -0.3701 H   0  0  0  0  0  0  0  0  0  0  0  0
   -0.3078   -1.2238   -0.8710 H   0  0  0  0  0  0  0  0  0  0  0  0
  1  3  1  0  0  0  0
  1  2  1  0  0  0  0
  1  5  1  0  0  0  0
  2  6  1  0  0  0  0
  2  8  1  0  0  0  0
  4  1  1  0  0  0  0
  6 10  1  0  0  0  0
  7  2  1  0  0  0  0
  9  6  1  0  0  0  0
  9 12  1  0  0  0  0
 11  6  1  0  0  0  0
 13  9  1  0  0  0  0
 14  9  1  0  0  0  0
M  END
$$$$
