butane_opt
 OpenBabel08242015393D

 14 12  0  0  0  0  0  0  0  0999 V2000
   -3.9738    0.2228    0.0764 C   0  0  0  0  0  0  0  0  0  0  0  0
   -2.7416   -0.5752   -0.0194 C   0  0  0  0  0  0  0  0  0  0  0  0
   -4.9256   -0.3622   -0.2046 H   0  0  0  0  0  0  0  0  0  0  0  0
   -3.9094    0.4180   -0.5273 H   0  0  0  0  0  0  0  0  0  0  0  0
   -4.0277    1.5134    1.2679 H   0  0  0  0  0  0  0  0  0  0  0  0
   -1.3730    0.2105   -0.0831 C   0  0  0  0  0  0  0  0  0  0  0  0
   -2.8124   -1.3171   -0.9185 H   0  0  0  0  0  0  0  0  0  0  0  0
   -2.6266   -1.2254    0.8655 H   0  0  0  0  0  0  0  0  0  0  0  0
   -0.1190   -0.7190    0.1034 C   0  0  0  0  0  0  0  0  0  0  0  0
   -1.3318    0.7929    0.7052 H   0  0  0  0  0  0  0  0  0  0  0  0
   -1.3335    0.9815   -1.1779 H   0  0  0  0  0  0  0  0  0  0  0  0
   -0.1351   -1.5770    1.1972 H   0  0  0  0  0  0  0  0  0  0  0  0
    0.6368   -0.2581   -0.0543 H   0  0  0  0  0  0  0  0  0  0  0  0
   -0.0342   -1.1405   -0.5541 H   0  0  0  0  0  0  0  0  0  0  0  0
  2  1  1  0  0  0  0
  2  8  1  0  0  0  0
  3  1  1  0  0  0  0
  4  1  1  0  0  0  0
  6  2  1  0  0  0  0
  6  9  1  0  0  0  0
  6 10  1  0  0  0  0
  7  2  1  0  0  0  0
  9 12  1  0  0  0  0
 11  6  1  0  0  0  0
 13  9  1  0  0  0  0
 14  9  1  0  0  0  0
M  RAD  2   1   2   5   2
M  END
$$$$
