butane_opt
 OpenBabel08242015393D

 14 12  0  0  0  0  0  0  0  0999 V2000
   -3.9257    0.3124    0.0810 C   0  0  0  0  0  0  0  0  0  0  0  0
   -2.6660   -0.6740   -0.0553 C   0  0  0  0  0  0  0  0  0  0  0  0
   -4.8298   -0.2221    0.1284 H   0  0  0  0  0  0  0  0  0  0  0  0
   -4.0470    0.7090   -0.6945 H   0  0  0  0  0  0  0  0  0  0  0  0
   -3.8391    1.0050    0.9806 H   0  0  0  0  0  0  0  0  0  0  0  0
   -1.4079    0.1517   -0.0433 C   0  0  0  0  0  0  0  0  0  0  0  0
   -2.6637   -1.5170   -1.0213 H   0  0  0  0  0  0  0  0  0  0  0  0
   -2.4980   -1.1189    0.6972 H   0  0  0  0  0  0  0  0  0  0  0  0
   -0.2090   -0.6429    0.0917 C   0  0  0  0  0  0  0  0  0  0  0  0
   -1.4528    0.8139    0.8933 H   0  0  0  0  0  0  0  0  0  0  0  0
   -1.3714    0.7639   -0.8983 H   0  0  0  0  0  0  0  0  0  0  0  0
   -0.2976   -1.6482    1.3407 H   0  0  0  0  0  0  0  0  0  0  0  0
    0.6292   -0.0635   -0.3462 H   0  0  0  0  0  0  0  0  0  0  0  0
   -0.1760   -0.9492   -0.5030 H   0  0  0  0  0  0  0  0  0  0  0  0
  1  3  1  0  0  0  0
  1  5  1  0  0  0  0
  2  6  1  0  0  0  0
  2  1  1  0  0  0  0
  2  8  1  0  0  0  0
  4  1  1  0  0  0  0
  6  9  1  0  0  0  0
  6 10  1  0  0  0  0
  7  2  1  0  0  0  0
 11  6  1  0  0  0  0
 13  9  1  0  0  0  0
 14  9  1  0  0  0  0
M  RAD  2   9   2  12   2
M  END
$$$$
