butane_opt
 OpenBabel08242015393D

 14 12  0  0  0  0  0  0  0  0999 V2000
   -3.9682    0.2649   -0.0708 C   0  0  0  0  0  0  0  0  0  0  0  0
   -2.6986   -0.6279    0.0861 C   0  0  0  0  0  0  0  0  0  0  0  0
   -4.7729   -0.2004    0.4644 H   0  0  0  0  0  0  0  0  0  0  0  0
   -4.2618    1.2946   -1.2059 H   0  0  0  0  0  0  0  0  0  0  0  0
   -3.8321    0.4960    0.5221 H   0  0  0  0  0  0  0  0  0  0  0  0
   -1.3979    0.1782    0.1211 C   0  0  0  0  0  0  0  0  0  0  0  0
   -2.5584   -1.2458   -0.6867 H   0  0  0  0  0  0  0  0  0  0  0  0
   -2.9309   -1.3573    0.9688 H   0  0  0  0  0  0  0  0  0  0  0  0
   -0.1385   -0.6855   -0.0416 C   0  0  0  0  0  0  0  0  0  0  0  0
   -1.2052    1.1142    1.1821 H   0  0  0  0  0  0  0  0  0  0  0  0
   -1.3469    0.6652   -0.6766 H   0  0  0  0  0  0  0  0  0  0  0  0
   -0.1228   -1.1253    0.7799 H   0  0  0  0  0  0  0  0  0  0  0  0
    0.6381   -0.1153   -0.0795 H   0  0  0  0  0  0  0  0  0  0  0  0
   -0.1919   -1.5501   -1.0263 H   0  0  0  0  0  0  0  0  0  0  0  0
  1  2  1  0  0  0  0
  1  3  1  0  0  0  0
  1  5  1  0  0  0  0
  2  6  1  0  0  0  0
  2  8  1  0  0  0  0
  6 10  1  0  0  0  0
  7  2  1  0  0  0  0
  9  6  1  0  0  0  0
  9 12  1  0  0  0  0
 11  6  1  0  0  0  0
 13  9  1  0  0  0  0
 14  9  1  0  0  0  0
M  RAD  2   1   2   4   2
M  END
$$$$
