butane_opt
 OpenBabel08242015393D

 14 13  0  0  0  0  0  0  0  0999 V2000
   -3.9823    0.3003    0.0331 C   0  0  0  0  0  0  0  0  0  0  0  0
   -2.7105   -0.6433    0.0025 C   0  0  0  0  0  0  0  0  0  0  0  0
   -4.8243   -0.2263   -0.0719 H   0  0  0  0  0  0  0  0  0  0  0  0
   -4.1806    0.7136   -0.7002 H   0  0  0  0  0  0  0  0  0  0  0  0
   -4.0459    1.1856    1.0395 H   0  0  0  0  0  0  0  0  0  0  0  0
   -1.3508    0.1438    0.0096 C   0  0  0  0  0  0  0  0  0  0  0  0
   -2.6250   -1.4531   -0.9576 H   0  0  0  0  0  0  0  0  0  0  0  0
   -2.7601   -1.0907    0.7662 H   0  0  0  0  0  0  0  0  0  0  0  0
   -0.1650   -0.6652    0.0595 C   0  0  0  0  0  0  0  0  0  0  0  0
   -1.3842    0.6349    0.8301 H   0  0  0  0  0  0  0  0  0  0  0  0
   -1.2686    0.8263   -0.9196 H   0  0  0  0  0  0  0  0  0  0  0  0
    0.0338   -1.6931    1.1559 H   0  0  0  0  0  0  0  0  0  0  0  0
    0.9315    0.0880   -0.3518 H   0  0  0  0  0  0  0  0  0  0  0  0
   -0.4168   -1.0397   -0.5426 H   0  0  0  0  0  0  0  0  0  0  0  0
  1  5  1  0  0  0  0
  2  6  1  0  0  0  0
  2  1  1  0  0  0  0
  2  8  1  0  0  0  0
  3  1  1  0  0  0  0
  4  1  1  0  0  0  0
  6  9  1  0  0  0  0
  6 10  1  0  0  0  0
  7  2  1  0  0  0  0
  9 12  1  0  0  0  0
 11  6  1  0  0  0  0
 13  9  1  0  0  0  0
 14  9  1  0  0  0  0
M  END
$$$$
