14
butane_opt
C  -3.928588   0.237933   0.083083
C  -2.708974  -0.546100  -0.024338
H  -4.916118  -0.473743   0.051426
H  -3.892733   0.622945  -0.663024
H  -3.621625   1.164918   1.189509
C  -1.437331   0.215528  -0.093203
H  -2.737652  -1.345263  -0.975577
H  -2.754894  -1.298990   0.850129
C  -0.167973  -0.732250   0.101042
H  -1.475050   0.739236   0.629406
H  -1.210851   0.942854  -1.066389
H  -0.197077  -1.401575   1.122568
H   0.769765  -0.185025   0.282387
H  -0.068469  -1.335903  -0.737366
