14
butane_opt
C  -3.894706   0.254244   0.032999
C  -2.696878  -0.569773  -0.040149
H  -4.874828  -0.511529   0.069345
H  -3.820509   0.830080  -0.848577
H  -3.888260   0.979640   0.933908
C  -1.442472   0.188321   0.052564
H  -2.862946  -1.281555  -0.855467
H  -2.840995  -1.266138   0.902311
C  -0.164074  -0.726139   0.053664
H  -1.478039   0.902167   0.880597
H  -1.472771   0.864658  -0.860174
H   0.147678  -1.548271   1.111283
H   0.820346  -0.073565  -0.403636
H  -0.384763  -1.109089  -0.638545
