butane_opt
 OpenBabel08242015393D

 14 13  0  0  0  0  0  0  0  0999 V2000
   -3.9418    0.2631    0.0383 C   0  0  0  0  0  0  0  0  0  0  0  0
   -2.7053   -0.6146    0.0347 C   0  0  0  0  0  0  0  0  0  0  0  0
   -4.8683   -0.3723    0.0393 H   0  0  0  0  0  0  0  0  0  0  0  0
   -3.9457    0.8913   -0.8851 H   0  0  0  0  0  0  0  0  0  0  0  0
   -3.9253    0.8730    0.8702 H   0  0  0  0  0  0  0  0  0  0  0  0
   -1.4079    0.2056   -0.0141 C   0  0  0  0  0  0  0  0  0  0  0  0
   -2.7867   -1.2857   -0.8365 H   0  0  0  0  0  0  0  0  0  0  0  0
   -2.7151   -1.2158    0.9195 H   0  0  0  0  0  0  0  0  0  0  0  0
   -0.1612   -0.7034    0.0416 C   0  0  0  0  0  0  0  0  0  0  0  0
   -1.4269    0.8470    0.8159 H   0  0  0  0  0  0  0  0  0  0  0  0
   -1.3488    0.8460   -0.8958 H   0  0  0  0  0  0  0  0  0  0  0  0
   -0.1580   -1.2854    0.9117 H   0  0  0  0  0  0  0  0  0  0  0  0
    0.7397   -0.1346    0.1581 H   0  0  0  0  0  0  0  0  0  0  0  0
    0.0011   -1.4498   -0.8813 H   0  0  0  0  0  0  0  0  0  0  0  0
  1  3  1  0  0  0  0
  1  5  1  0  0  0  0
  2  1  1  0  0  0  0
  2  8  1  0  0  0  0
  4  1  1  0  0  0  0
  6  2  1  0  0  0  0
  6  9  1  0  0  0  0
  6 10  1  0  0  0  0
  7  2  1  0  0  0  0
  9 13  1  0  0  0  0
  9 12  1  0  0  0  0
 11  6  1  0  0  0  0
 14  9  1  0  0  0  0
M  END
$$$$
