14
butane_opt
C  -3.917600   0.261128   0.071415
C  -2.693743  -0.630384  -0.076942
H  -4.759127  -0.328097  -0.002892
H  -4.095141   0.731509  -0.702904
H  -3.914524   1.310609   1.122713
C  -1.383687   0.181581  -0.012759
H  -2.876151  -1.337066  -0.894371
H  -2.723929  -1.264066   0.822074
C  -0.199332  -0.701084   0.094759
H  -1.461310   0.893114   0.822172
H  -1.400005   0.878096  -0.928630
H  -0.064316  -1.696470   1.226561
H   0.770656  -0.044482  -0.409024
H  -0.175131  -0.927461  -0.481743
