butane_opt
 OpenBabel08242015393D

 14 13  0  0  0  0  0  0  0  0999 V2000
   -3.9703    0.3040   -0.0624 C   0  0  0  0  0  0  0  0  0  0  0  0
   -2.7006   -0.6580    0.1165 C   0  0  0  0  0  0  0  0  0  0  0  0
   -4.8917   -0.2491   -0.0636 H   0  0  0  0  0  0  0  0  0  0  0  0
   -4.0275    1.0554   -1.0873 H   0  0  0  0  0  0  0  0  0  0  0  0
   -4.2096    0.8705    0.7030 H   0  0  0  0  0  0  0  0  0  0  0  0
   -1.3765    0.1683    0.1405 C   0  0  0  0  0  0  0  0  0  0  0  0
   -2.7252   -1.3366   -0.6802 H   0  0  0  0  0  0  0  0  0  0  0  0
   -2.7795   -1.2952    1.0723 H   0  0  0  0  0  0  0  0  0  0  0  0
   -0.1375   -0.6873   -0.0504 C   0  0  0  0  0  0  0  0  0  0  0  0
   -1.3662    0.7669    0.9051 H   0  0  0  0  0  0  0  0  0  0  0  0
   -1.2624    0.7231   -0.6968 H   0  0  0  0  0  0  0  0  0  0  0  0
   -0.0791   -1.2455    0.7574 H   0  0  0  0  0  0  0  0  0  0  0  0
    0.8955    0.1089   -0.2286 H   0  0  0  0  0  0  0  0  0  0  0  0
   -0.3566   -1.3740   -1.0091 H   0  0  0  0  0  0  0  0  0  0  0  0
  1  2  1  0  0  0  0
  1  5  1  0  0  0  0
  2  6  1  0  0  0  0
  2  8  1  0  0  0  0
  3  1  1  0  0  0  0
  4  1  1  0  0  0  0
  6 10  1  0  0  0  0
  7  2  1  0  0  0  0
  9  6  1  0  0  0  0
  9 12  1  0  0  0  0
 11  6  1  0  0  0  0
 13  9  1  0  0  0  0
 14  9  1  0  0  0  0
M  END
$$$$
