butane_opt
 OpenBabel08242015393D

 14 13  0  0  0  0  0  0  0  0999 V2000
   -3.9338    0.2609   -0.0484 C   0  0  0  0  0  0  0  0  0  0  0  0
   -2.7204   -0.5964    0.0516 C   0  0  0  0  0  0  0  0  0  0  0  0
   -4.9129   -0.4597   -0.1067 H   0  0  0  0  0  0  0  0  0  0  0  0
   -3.9435    0.7996   -0.8981 H   0  0  0  0  0  0  0  0  0  0  0  0
   -4.0409    0.8610    0.8182 H   0  0  0  0  0  0  0  0  0  0  0  0
   -1.4180    0.2199    0.1124 C   0  0  0  0  0  0  0  0  0  0  0  0
   -2.7436   -1.1387   -0.7163 H   0  0  0  0  0  0  0  0  0  0  0  0
   -2.8149   -1.4122    1.1473 H   0  0  0  0  0  0  0  0  0  0  0  0
   -0.1018   -0.7126   -0.0175 C   0  0  0  0  0  0  0  0  0  0  0  0
   -1.4625    0.9164    1.0136 H   0  0  0  0  0  0  0  0  0  0  0  0
   -1.5881    0.7513   -0.6370 H   0  0  0  0  0  0  0  0  0  0  0  0
    0.1098   -1.4423    0.8779 H   0  0  0  0  0  0  0  0  0  0  0  0
    0.7630   -0.1331   -0.4578 H   0  0  0  0  0  0  0  0  0  0  0  0
   -0.2878   -1.2722   -0.7838 H   0  0  0  0  0  0  0  0  0  0  0  0
  1  2  1  0  0  0  0
  1  5  1  0  0  0  0
  2  6  1  0  0  0  0
  2  8  1  0  0  0  0
  3  1  1  0  0  0  0
  4  1  1  0  0  0  0
  6 10  1  0  0  0  0
  7  2  1  0  0  0  0
  9  6  1  0  0  0  0
  9 12  1  0  0  0  0
 11  6  1  0  0  0  0
 13  9  1  0  0  0  0
 14  9  1  0  0  0  0
M  END
$$$$
