butane_opt
 OpenBabel08242015393D

 14 12  0  0  0  0  0  0  0  0999 V2000
   -3.9011    0.2782   -0.0267 C   0  0  0  0  0  0  0  0  0  0  0  0
   -2.7175   -0.5945    0.0622 C   0  0  0  0  0  0  0  0  0  0  0  0
   -4.9640   -0.4501    0.3567 H   0  0  0  0  0  0  0  0  0  0  0  0
   -3.9117    1.2614   -1.1877 H   0  0  0  0  0  0  0  0  0  0  0  0
   -3.8334    0.4968    0.5682 H   0  0  0  0  0  0  0  0  0  0  0  0
   -1.4148    0.1933    0.1035 C   0  0  0  0  0  0  0  0  0  0  0  0
   -2.6951   -1.4204   -0.8677 H   0  0  0  0  0  0  0  0  0  0  0  0
   -2.6356   -1.2282    1.0328 H   0  0  0  0  0  0  0  0  0  0  0  0
   -0.1902   -0.7142   -0.0369 C   0  0  0  0  0  0  0  0  0  0  0  0
   -1.4151    0.9498    1.0417 H   0  0  0  0  0  0  0  0  0  0  0  0
   -1.3358    0.7051   -0.7377 H   0  0  0  0  0  0  0  0  0  0  0  0
   -0.0258   -1.2933    0.8551 H   0  0  0  0  0  0  0  0  0  0  0  0
    0.7366   -0.0304    0.0915 H   0  0  0  0  0  0  0  0  0  0  0  0
   -0.2592   -1.4140   -0.9845 H   0  0  0  0  0  0  0  0  0  0  0  0
  1  2  1  0  0  0  0
  1  3  1  0  0  0  0
  1  5  1  0  0  0  0
  2  6  1  0  0  0  0
  2  8  1  0  0  0  0
  6 10  1  0  0  0  0
  7  2  1  0  0  0  0
  9 13  1  0  0  0  0
  9  6  1  0  0  0  0
  9 12  1  0  0  0  0
 11  6  1  0  0  0  0
 14  9  1  0  0  0  0
M  RAD  2   1   2   4   2
M  END
$$$$
