14
butane_opt
C  -3.904648   0.237691  -0.071737
C  -2.685468  -0.583969   0.081698
H  -4.855755  -0.492085   0.152055
H  -3.976432   1.058994  -1.051503
H  -3.728136   0.714044   0.701264
C  -1.422686   0.244677   0.159896
H  -2.737518  -1.307470  -0.819849
H  -2.797033  -1.134476   0.963198
C  -0.181531  -0.720304  -0.044023
H  -1.338037   0.830760   0.885101
H  -1.479095   0.823540  -0.666823
H   0.044516  -1.502293   0.934188
H   0.635986  -0.257756  -0.271306
H  -0.426150  -1.352717  -0.905555
