butane_opt
 OpenBabel08242015393D

 14 13  0  0  0  0  0  0  0  0999 V2000
   -3.8954    0.2388   -0.0213 C   0  0  0  0  0  0  0  0  0  0  0  0
   -2.6838   -0.6044    0.0797 C   0  0  0  0  0  0  0  0  0  0  0  0
   -4.7898   -0.3575   -0.0423 H   0  0  0  0  0  0  0  0  0  0  0  0
   -3.6216    0.9887   -1.0737 H   0  0  0  0  0  0  0  0  0  0  0  0
   -4.0416    0.9410    0.7979 H   0  0  0  0  0  0  0  0  0  0  0  0
   -1.4482    0.2073    0.1011 C   0  0  0  0  0  0  0  0  0  0  0  0
   -2.6996   -1.3730   -0.8079 H   0  0  0  0  0  0  0  0  0  0  0  0
   -2.8535   -1.2258    0.9049 H   0  0  0  0  0  0  0  0  0  0  0  0
   -0.1777   -0.7090   -0.0161 C   0  0  0  0  0  0  0  0  0  0  0  0
   -1.4443    1.0031    0.9954 H   0  0  0  0  0  0  0  0  0  0  0  0
   -1.5042    0.7247   -0.7574 H   0  0  0  0  0  0  0  0  0  0  0  0
    0.1128   -1.4842    0.9628 H   0  0  0  0  0  0  0  0  0  0  0  0
    0.6492   -0.1071   -0.4481 H   0  0  0  0  0  0  0  0  0  0  0  0
   -0.3796   -1.1558   -0.7792 H   0  0  0  0  0  0  0  0  0  0  0  0
  1  2  1  0  0  0  0
  1  5  1  0  0  0  0
  2  6  1  0  0  0  0
  2  8  1  0  0  0  0
  3  1  1  0  0  0  0
  4  1  1  0  0  0  0
  6 10  1  0  0  0  0
  7  2  1  0  0  0  0
  9  6  1  0  0  0  0
  9 12  1  0  0  0  0
 11  6  1  0  0  0  0
 13  9  1  0  0  0  0
 14  9  1  0  0  0  0
M  END
$$$$
