butane_opt
 OpenBabel08242015393D

 14 13  0  0  0  0  0  0  0  0999 V2000
   -3.9851    0.2807   -0.0431 C   0  0  0  0  0  0  0  0  0  0  0  0
   -2.6928   -0.6671    0.1012 C   0  0  0  0  0  0  0  0  0  0  0  0
   -4.8077   -0.3334   -0.2209 H   0  0  0  0  0  0  0  0  0  0  0  0
   -3.9356    1.0927   -1.0407 H   0  0  0  0  0  0  0  0  0  0  0  0
   -4.1535    0.9446    0.8001 H   0  0  0  0  0  0  0  0  0  0  0  0
   -1.4035    0.1743    0.0994 C   0  0  0  0  0  0  0  0  0  0  0  0
   -2.5988   -1.2052   -0.6474 H   0  0  0  0  0  0  0  0  0  0  0  0
   -2.7324   -1.3630    1.0827 H   0  0  0  0  0  0  0  0  0  0  0  0
   -0.1475   -0.6546   -0.0464 C   0  0  0  0  0  0  0  0  0  0  0  0
   -1.2342    0.9218    1.0363 H   0  0  0  0  0  0  0  0  0  0  0  0
   -1.3251    0.6859   -0.6221 H   0  0  0  0  0  0  0  0  0  0  0  0
    0.0372   -1.3348    0.8524 H   0  0  0  0  0  0  0  0  0  0  0  0
    0.6953   -0.1499   -0.2551 H   0  0  0  0  0  0  0  0  0  0  0  0
   -0.2174   -1.3270   -0.9047 H   0  0  0  0  0  0  0  0  0  0  0  0
  1  2  1  0  0  0  0
  1  5  1  0  0  0  0
  2  8  1  0  0  0  0
  3  1  1  0  0  0  0
  4  1  1  0  0  0  0
  6  2  1  0  0  0  0
  6 10  1  0  0  0  0
  7  2  1  0  0  0  0
  9  6  1  0  0  0  0
  9 12  1  0  0  0  0
 11  6  1  0  0  0  0
 13  9  1  0  0  0  0
 14  9  1  0  0  0  0
M  END
$$$$
