butane_opt
 OpenBabel08242015393D

 14 12  0  0  0  0  0  0  0  0999 V2000
   -3.9316    0.2307   -0.0667 C   0  0  0  0  0  0  0  0  0  0  0  0
   -2.7153   -0.5614    0.1727 C   0  0  0  0  0  0  0  0  0  0  0  0
   -5.0161   -0.5158   -0.0991 H   0  0  0  0  0  0  0  0  0  0  0  0
   -3.7751    1.0143   -1.0273 H   0  0  0  0  0  0  0  0  0  0  0  0
   -4.0175    0.8278    0.7068 H   0  0  0  0  0  0  0  0  0  0  0  0
   -1.4218    0.1964    0.0803 C   0  0  0  0  0  0  0  0  0  0  0  0
   -2.7560   -1.1334   -0.6094 H   0  0  0  0  0  0  0  0  0  0  0  0
   -2.8888   -1.2884    1.1833 H   0  0  0  0  0  0  0  0  0  0  0  0
   -0.1286   -0.7182   -0.0646 C   0  0  0  0  0  0  0  0  0  0  0  0
   -1.4307    0.9403    0.8808 H   0  0  0  0  0  0  0  0  0  0  0  0
   -1.3778    0.8923   -0.8782 H   0  0  0  0  0  0  0  0  0  0  0  0
   -0.0609   -1.0004    0.6220 H   0  0  0  0  0  0  0  0  0  0  0  0
    0.6996   -0.1970    0.3587 H   0  0  0  0  0  0  0  0  0  0  0  0
   -0.0121   -1.8337   -1.2098 H   0  0  0  0  0  0  0  0  0  0  0  0
  1  2  1  0  0  0  0
  1  5  1  0  0  0  0
  2  8  1  0  0  0  0
  3  1  1  0  0  0  0
  4  1  1  0  0  0  0
  6  2  1  0  0  0  0
  6 10  1  0  0  0  0
  7  2  1  0  0  0  0
  9  6  1  0  0  0  0
  9 13  1  0  0  0  0
  9 12  1  0  0  0  0
 11  6  1  0  0  0  0
M  RAD  2   9   2  14   2
M  END
$$$$
