14
butane_opt
C  -3.950709   0.257573   0.080506
C  -2.696444  -0.606138   0.012265
H  -4.896961  -0.391877  -0.307441
H  -3.824551   0.539540  -0.622332
H  -4.099839   1.112492   1.136816
C  -1.425605   0.243074  -0.081871
H  -2.776618  -1.345627  -0.862501
H  -2.830323  -1.407586   0.949018
C  -0.117273  -0.709392   0.071170
H  -1.364648   0.912964   0.749856
H  -1.442577   0.863755  -0.966376
H  -0.270619  -1.445084   1.065354
H   0.636266  -0.259232   0.037142
H   0.140124  -1.282172  -0.687172
