butane_opt
 OpenBabel08242015393D

 14 13  0  0  0  0  0  0  0  0999 V2000
   -3.9078    0.2597    0.1374 C   0  0  0  0  0  0  0  0  0  0  0  0
   -2.6675   -0.6071   -0.1068 C   0  0  0  0  0  0  0  0  0  0  0  0
   -4.7817   -0.3116    0.2260 H   0  0  0  0  0  0  0  0  0  0  0  0
   -4.1106    1.0123   -0.8520 H   0  0  0  0  0  0  0  0  0  0  0  0
   -3.7649    0.8722    1.0036 H   0  0  0  0  0  0  0  0  0  0  0  0
   -1.4367    0.1700   -0.0616 C   0  0  0  0  0  0  0  0  0  0  0  0
   -2.8207   -1.5276   -1.1262 H   0  0  0  0  0  0  0  0  0  0  0  0
   -2.6666   -1.1592    0.7355 H   0  0  0  0  0  0  0  0  0  0  0  0
   -0.2061   -0.6717    0.1280 C   0  0  0  0  0  0  0  0  0  0  0  0
   -1.6469    0.7227    0.7186 H   0  0  0  0  0  0  0  0  0  0  0  0
   -1.1942    0.9268   -0.9829 H   0  0  0  0  0  0  0  0  0  0  0  0
   -0.0762   -1.4970    1.2126 H   0  0  0  0  0  0  0  0  0  0  0  0
    0.7605   -0.0683   -0.0461 H   0  0  0  0  0  0  0  0  0  0  0  0
   -0.1282   -1.2180   -0.6290 H   0  0  0  0  0  0  0  0  0  0  0  0
  1  3  1  0  0  0  0
  1  5  1  0  0  0  0
  2  6  1  0  0  0  0
  2  1  1  0  0  0  0
  2  8  1  0  0  0  0
  4  1  1  0  0  0  0
  6  9  1  0  0  0  0
  6 10  1  0  0  0  0
  7  2  1  0  0  0  0
  9 12  1  0  0  0  0
 11  6  1  0  0  0  0
 13  9  1  0  0  0  0
 14  9  1  0  0  0  0
M  END
$$$$
