14
butane_opt
C  -3.944326   0.261974   0.059750
C  -2.749056  -0.640971   0.055324
H  -4.829355  -0.330698  -0.412489
H  -3.747120   0.661721  -0.671734
H  -4.228414   1.236370   1.109993
C  -1.412607   0.219130  -0.070138
H  -2.836249  -1.280316  -0.814195
H  -2.750166  -1.132941   0.936613
C  -0.127522  -0.718962   0.062350
H  -1.305643   0.877563   0.735149
H  -1.346634   0.869417  -1.012326
H   0.008892  -1.442600   0.990766
H   0.897293  -0.078287   0.081830
H  -0.091825  -1.313314  -0.739993
