butane_opt
 OpenBabel08242015393D

 14 13  0  0  0  0  0  0  0  0999 V2000
   -3.9616    0.2905    0.1104 C   0  0  0  0  0  0  0  0  0  0  0  0
   -2.6971   -0.6651   -0.0131 C   0  0  0  0  0  0  0  0  0  0  0  0
   -4.7628   -0.2296    0.2290 H   0  0  0  0  0  0  0  0  0  0  0  0
   -4.1738    0.9237   -0.7583 H   0  0  0  0  0  0  0  0  0  0  0  0
   -4.0524    0.8155    0.8881 H   0  0  0  0  0  0  0  0  0  0  0  0
   -1.3753    0.1948   -0.1181 C   0  0  0  0  0  0  0  0  0  0  0  0
   -2.8052   -1.5437   -1.0143 H   0  0  0  0  0  0  0  0  0  0  0  0
   -2.6950   -1.1520    0.7726 H   0  0  0  0  0  0  0  0  0  0  0  0
   -0.1513   -0.6817    0.1085 C   0  0  0  0  0  0  0  0  0  0  0  0
   -1.4856    0.8411    0.6754 H   0  0  0  0  0  0  0  0  0  0  0  0
   -1.3793    1.0041   -1.0635 H   0  0  0  0  0  0  0  0  0  0  0  0
   -0.3389   -1.2173    0.9219 H   0  0  0  0  0  0  0  0  0  0  0  0
    0.8305   -0.0392    0.5242 H   0  0  0  0  0  0  0  0  0  0  0  0
    0.0525   -1.5275   -0.7932 H   0  0  0  0  0  0  0  0  0  0  0  0
  1  3  1  0  0  0  0
  1  5  1  0  0  0  0
  2  1  1  0  0  0  0
  2  8  1  0  0  0  0
  4  1  1  0  0  0  0
  6  2  1  0  0  0  0
  6  9  1  0  0  0  0
  6 10  1  0  0  0  0
  7  2  1  0  0  0  0
  9 13  1  0  0  0  0
  9 12  1  0  0  0  0
 11  6  1  0  0  0  0
 14  9  1  0  0  0  0
M  END
$$$$
