14
butane_opt
C  -3.980727   0.255799   0.069661
C  -2.711867  -0.606104   0.020190
H  -4.970603  -0.384239  -0.008121
H  -3.985942   0.903901  -0.878851
H  -3.903425   0.759102   0.929530
C  -1.420043   0.225935  -0.068566
H  -2.728066  -1.248818  -0.783697
H  -2.597821  -1.350557   0.974157
C  -0.110608  -0.703759   0.068011
H  -1.307716   0.896066   0.722941
H  -1.388010   0.887063  -0.963977
H  -0.308465  -1.129684   0.887566
H   0.723405  -0.152271   0.474491
H   0.135572  -1.744894  -1.031900
