butane_opt
 OpenBabel08242015393D

 14 13  0  0  0  0  0  0  0  0999 V2000
   -3.8913    0.2215    0.0455 C   0  0  0  0  0  0  0  0  0  0  0  0
   -2.7192   -0.5669   -0.0241 C   0  0  0  0  0  0  0  0  0  0  0  0
   -4.8525   -0.4391    0.0997 H   0  0  0  0  0  0  0  0  0  0  0  0
   -3.9362    0.8108   -0.8302 H   0  0  0  0  0  0  0  0  0  0  0  0
   -3.9060    0.9621    0.9235 H   0  0  0  0  0  0  0  0  0  0  0  0
   -1.4394    0.2372    0.0403 C   0  0  0  0  0  0  0  0  0  0  0  0
   -2.5999   -1.4198   -0.9329 H   0  0  0  0  0  0  0  0  0  0  0  0
   -2.8668   -1.0961    0.8374 H   0  0  0  0  0  0  0  0  0  0  0  0
   -0.1423   -0.7268    0.0498 C   0  0  0  0  0  0  0  0  0  0  0  0
   -1.5025    0.7488    0.7156 H   0  0  0  0  0  0  0  0  0  0  0  0
   -1.4416    0.9228   -0.8520 H   0  0  0  0  0  0  0  0  0  0  0  0
    0.0213   -1.5572    1.1643 H   0  0  0  0  0  0  0  0  0  0  0  0
    0.6717   -0.2226   -0.3097 H   0  0  0  0  0  0  0  0  0  0  0  0
   -0.2723   -1.1732   -0.6684 H   0  0  0  0  0  0  0  0  0  0  0  0
  1  3  1  0  0  0  0
  1  5  1  0  0  0  0
  2  6  1  0  0  0  0
  2  1  1  0  0  0  0
  2  8  1  0  0  0  0
  4  1  1  0  0  0  0
  6  9  1  0  0  0  0
  6 10  1  0  0  0  0
  7  2  1  0  0  0  0
  9 12  1  0  0  0  0
 11  6  1  0  0  0  0
 13  9  1  0  0  0  0
 14  9  1  0  0  0  0
M  END
$$$$
