butane_opt
 OpenBabel08242015393D

 14 13  0  0  0  0  0  0  0  0999 V2000
   -3.9716    0.2818   -0.0575 C   0  0  0  0  0  0  0  0  0  0  0  0
   -2.7401   -0.6482    0.1306 C   0  0  0  0  0  0  0  0  0  0  0  0
   -4.8199   -0.3068    0.1948 H   0  0  0  0  0  0  0  0  0  0  0  0
   -3.9722    0.9184   -0.9538 H   0  0  0  0  0  0  0  0  0  0  0  0
   -3.9784    0.7777    0.6285 H   0  0  0  0  0  0  0  0  0  0  0  0
   -1.3882    0.2315    0.0400 C   0  0  0  0  0  0  0  0  0  0  0  0
   -2.6171   -1.1861   -0.6594 H   0  0  0  0  0  0  0  0  0  0  0  0
   -2.7105   -1.4164    1.0545 H   0  0  0  0  0  0  0  0  0  0  0  0
   -0.1493   -0.6944   -0.0259 C   0  0  0  0  0  0  0  0  0  0  0  0
   -1.1550    0.9292    0.9703 H   0  0  0  0  0  0  0  0  0  0  0  0
   -1.5022    0.7226   -0.7874 H   0  0  0  0  0  0  0  0  0  0  0  0
   -0.1575   -1.0302    0.6712 H   0  0  0  0  0  0  0  0  0  0  0  0
    0.7482   -0.1696    0.3093 H   0  0  0  0  0  0  0  0  0  0  0  0
    0.1079   -1.7521   -1.0570 H   0  0  0  0  0  0  0  0  0  0  0  0
  1  2  1  0  0  0  0
  1  3  1  0  0  0  0
  1  5  1  0  0  0  0
  2  8  1  0  0  0  0
  4  1  1  0  0  0  0
  6  2  1  0  0  0  0
  6 10  1  0  0  0  0
  7  2  1  0  0  0  0
  9  6  1  0  0  0  0
  9 13  1  0  0  0  0
  9 12  1  0  0  0  0
 11  6  1  0  0  0  0
 14  9  1  0  0  0  0
M  END
$$$$
