14
butane_opt
C  -3.961649   0.290478   0.110407
C  -2.697074  -0.665072  -0.013111
H  -4.762782  -0.229608   0.228970
H  -4.173820   0.923659  -0.758350
H  -4.052386   0.815504   0.888058
C  -1.375276   0.194797  -0.118140
H  -2.805233  -1.543678  -1.014254
H  -2.695049  -1.151994   0.772624
C  -0.151315  -0.681708   0.108505
H  -1.485591   0.841051   0.675446
H  -1.379325   1.004094  -1.063537
H  -0.338899  -1.217264   0.921867
H   0.830469  -0.039210   0.524222
H   0.052456  -1.527531  -0.793171
