butane_opt
 OpenBabel08242015393D

 14 12  0  0  0  0  0  0  0  0999 V2000
   -3.9256    0.2896    0.0594 C   0  0  0  0  0  0  0  0  0  0  0  0
   -2.6624   -0.6558   -0.0296 C   0  0  0  0  0  0  0  0  0  0  0  0
   -4.8727   -0.3025   -0.0489 H   0  0  0  0  0  0  0  0  0  0  0  0
   -3.9541    0.8929   -0.8268 H   0  0  0  0  0  0  0  0  0  0  0  0
   -3.9356    1.0638    1.0687 H   0  0  0  0  0  0  0  0  0  0  0  0
   -1.4392    0.1607   -0.0159 C   0  0  0  0  0  0  0  0  0  0  0  0
   -2.5997   -1.3932   -0.9008 H   0  0  0  0  0  0  0  0  0  0  0  0
   -2.5855   -1.2056    0.7663 H   0  0  0  0  0  0  0  0  0  0  0  0
   -0.2161   -0.6574    0.0718 C   0  0  0  0  0  0  0  0  0  0  0  0
   -1.3589    0.9049    0.9377 H   0  0  0  0  0  0  0  0  0  0  0  0
   -1.3413    0.5493   -0.8246 H   0  0  0  0  0  0  0  0  0  0  0  0
    0.0026   -1.6574    1.1928 H   0  0  0  0  0  0  0  0  0  0  0  0
    0.8180   -0.0089   -0.4278 H   0  0  0  0  0  0  0  0  0  0  0  0
   -0.3026   -0.9104   -0.4812 H   0  0  0  0  0  0  0  0  0  0  0  0
  1  5  1  0  0  0  0
  2  6  1  0  0  0  0
  2  1  1  0  0  0  0
  2  8  1  0  0  0  0
  3  1  1  0  0  0  0
  4  1  1  0  0  0  0
  6  9  1  0  0  0  0
  6 10  1  0  0  0  0
  7  2  1  0  0  0  0
  9 12  1  0  0  0  0
 11  6  1  0  0  0  0
 13  9  1  0  0  0  0
M  RAD  2   9   2  14   2
M  END
$$$$
