butane_opt
 OpenBabel08242015393D

 14 13  0  0  0  0  0  0  0  0999 V2000
   -3.9268    0.2843   -0.0141 C   0  0  0  0  0  0  0  0  0  0  0  0
   -2.6967   -0.6406    0.1205 C   0  0  0  0  0  0  0  0  0  0  0  0
   -4.7133   -0.2427    0.0629 H   0  0  0  0  0  0  0  0  0  0  0  0
   -3.8607    1.0730   -1.0350 H   0  0  0  0  0  0  0  0  0  0  0  0
   -4.0156    0.9199    0.7204 H   0  0  0  0  0  0  0  0  0  0  0  0
   -1.3994    0.1220    0.0135 C   0  0  0  0  0  0  0  0  0  0  0  0
   -2.5343   -1.1066   -0.6231 H   0  0  0  0  0  0  0  0  0  0  0  0
   -2.7837   -1.3245    1.0049 H   0  0  0  0  0  0  0  0  0  0  0  0
   -0.1964   -0.6610   -0.0292 C   0  0  0  0  0  0  0  0  0  0  0  0
   -1.3060    0.8638    0.9514 H   0  0  0  0  0  0  0  0  0  0  0  0
   -1.4626    0.6623   -0.8116 H   0  0  0  0  0  0  0  0  0  0  0  0
   -0.4736   -0.9966    0.7518 H   0  0  0  0  0  0  0  0  0  0  0  0
    0.7796    0.0778    0.4187 H   0  0  0  0  0  0  0  0  0  0  0  0
   -0.0505   -1.6504   -1.1134 H   0  0  0  0  0  0  0  0  0  0  0  0
  1  3  1  0  0  0  0
  1  2  1  0  0  0  0
  1  5  1  0  0  0  0
  2  8  1  0  0  0  0
  4  1  1  0  0  0  0
  6  2  1  0  0  0  0
  6 10  1  0  0  0  0
  7  2  1  0  0  0  0
  9  6  1  0  0  0  0
  9 13  1  0  0  0  0
  9 12  1  0  0  0  0
 11  6  1  0  0  0  0
 14  9  1  0  0  0  0
M  END
$$$$
