14
butane_opt
C  -3.884214   0.213277   0.123511
C  -2.741104  -0.571746  -0.037922
H  -4.752032  -0.288550   0.009501
H  -3.932578   0.663592  -0.646131
H  -3.734006   1.169144   1.124557
C  -1.432935   0.211842  -0.139421
H  -2.833266  -1.258050  -0.964580
H  -2.721173  -1.180983   0.779433
C  -0.158009  -0.731478   0.158888
H  -1.609174   0.775198   0.537540
H  -1.282538   1.021924  -1.112578
H  -0.261810  -1.170908   0.949341
H   0.662624  -0.220694   0.213188
H   0.047533  -1.468957  -0.712504
