butane_opt
 OpenBabel08242015393D

 14 13  0  0  0  0  0  0  0  0999 V2000
   -3.9138    0.2255    0.0837 C   0  0  0  0  0  0  0  0  0  0  0  0
   -2.7711   -0.5981   -0.0065 C   0  0  0  0  0  0  0  0  0  0  0  0
   -4.8239   -0.4191    0.0575 H   0  0  0  0  0  0  0  0  0  0  0  0
   -4.0052    0.9175   -0.8346 H   0  0  0  0  0  0  0  0  0  0  0  0
   -3.8299    0.9767    0.9777 H   0  0  0  0  0  0  0  0  0  0  0  0
   -1.4251    0.2488   -0.0756 C   0  0  0  0  0  0  0  0  0  0  0  0
   -2.8296   -1.3175   -0.8811 H   0  0  0  0  0  0  0  0  0  0  0  0
   -2.7126   -1.1549    0.8921 H   0  0  0  0  0  0  0  0  0  0  0  0
   -0.1043   -0.7345    0.1264 C   0  0  0  0  0  0  0  0  0  0  0  0
   -1.4616    0.8542    0.6936 H   0  0  0  0  0  0  0  0  0  0  0  0
   -1.3205    1.0632   -1.1571 H   0  0  0  0  0  0  0  0  0  0  0  0
   -0.1563   -1.1946    0.8476 H   0  0  0  0  0  0  0  0  0  0  0  0
    0.7740   -0.2445    0.2521 H   0  0  0  0  0  0  0  0  0  0  0  0
   -0.0624   -1.6789   -0.9699 H   0  0  0  0  0  0  0  0  0  0  0  0
  1  5  1  0  0  0  0
  2  1  1  0  0  0  0
  2  8  1  0  0  0  0
  3  1  1  0  0  0  0
  4  1  1  0  0  0  0
  6  2  1  0  0  0  0
  6  9  1  0  0  0  0
  6 10  1  0  0  0  0
  7  2  1  0  0  0  0
  9 13  1  0  0  0  0
  9 12  1  0  0  0  0
 11  6  1  0  0  0  0
 14  9  1  0  0  0  0
M  END
$$$$
