butane_opt
 OpenBabel08242015393D

 14 13  0  0  0  0  0  0  0  0999 V2000
   -3.9235    0.2955   -0.0763 C   0  0  0  0  0  0  0  0  0  0  0  0
   -2.6590   -0.6410    0.1189 C   0  0  0  0  0  0  0  0  0  0  0  0
   -4.8069   -0.2511    0.2507 H   0  0  0  0  0  0  0  0  0  0  0  0
   -4.0433    1.1212   -1.1522 H   0  0  0  0  0  0  0  0  0  0  0  0
   -3.8799    0.6616    0.5692 H   0  0  0  0  0  0  0  0  0  0  0  0
   -1.4106    0.1430    0.1149 C   0  0  0  0  0  0  0  0  0  0  0  0
   -2.6951   -1.2527   -0.7235 H   0  0  0  0  0  0  0  0  0  0  0  0
   -2.6719   -1.3632    1.0175 H   0  0  0  0  0  0  0  0  0  0  0  0
   -0.1955   -0.6459   -0.0412 C   0  0  0  0  0  0  0  0  0  0  0  0
   -1.3515    0.8149    1.0384 H   0  0  0  0  0  0  0  0  0  0  0  0
   -1.4499    0.6402   -0.6878 H   0  0  0  0  0  0  0  0  0  0  0  0
   -0.0791   -1.0228    0.7440 H   0  0  0  0  0  0  0  0  0  0  0  0
    0.5802   -0.1256    0.0247 H   0  0  0  0  0  0  0  0  0  0  0  0
   -0.3757   -1.5035   -1.0867 H   0  0  0  0  0  0  0  0  0  0  0  0
  1  2  1  0  0  0  0
  1  3  1  0  0  0  0
  1  5  1  0  0  0  0
  2  8  1  0  0  0  0
  4  1  1  0  0  0  0
  6  2  1  0  0  0  0
  6 10  1  0  0  0  0
  7  2  1  0  0  0  0
  9 13  1  0  0  0  0
  9  6  1  0  0  0  0
  9 12  1  0  0  0  0
 11  6  1  0  0  0  0
 14  9  1  0  0  0  0
M  END
$$$$
