14
butane_opt
C  -3.906454   0.273515  -0.035675
C  -2.646524  -0.637957   0.065426
H  -4.774334  -0.289899   0.111450
H  -3.990605   1.008569  -0.936231
H  -4.153665   0.938354   0.721797
C  -1.416183   0.148461   0.110502
H  -2.597313  -1.352202  -0.846634
H  -2.827266  -1.283960   0.956283
C  -0.206384  -0.678181  -0.013932
H  -1.285465   0.809347   1.000864
H  -1.493514   0.919577  -0.865877
H  -0.055306  -1.232494   0.884313
H   0.714570  -0.024775  -0.251712
H  -0.440580  -1.235360  -0.824846
