14
butane_opt
C  -3.899127   0.245601  -0.061449
C  -2.700493  -0.600943   0.109450
H  -4.894355  -0.526341   0.233933
H  -4.007121   1.216422  -1.178870
H  -3.845730   0.534995   0.505356
C  -1.447148   0.243116   0.154296
H  -2.512882  -1.390158  -0.812968
H  -2.701066  -1.131643   1.015632
C  -0.176732  -0.718868  -0.069219
H  -1.343059   0.935274   0.967160
H  -1.467487   0.758243  -0.660720
H  -0.025081  -1.352565   0.787959
H   0.649992  -0.162257  -0.050147
H  -0.162357  -1.399362  -0.998823
