butane_opt
 OpenBabel08242015393D

 14 13  0  0  0  0  0  0  0  0999 V2000
   -3.9368    0.2515    0.0586 C   0  0  0  0  0  0  0  0  0  0  0  0
   -2.7155   -0.6157    0.0120 C   0  0  0  0  0  0  0  0  0  0  0  0
   -4.8482   -0.3311    0.0579 H   0  0  0  0  0  0  0  0  0  0  0  0
   -3.9747    0.8568   -0.8419 H   0  0  0  0  0  0  0  0  0  0  0  0
   -3.9608    0.9242    0.9159 H   0  0  0  0  0  0  0  0  0  0  0  0
   -1.4158    0.2092   -0.0390 C   0  0  0  0  0  0  0  0  0  0  0  0
   -2.7701   -1.2835   -0.8581 H   0  0  0  0  0  0  0  0  0  0  0  0
   -2.6646   -1.2032    0.8851 H   0  0  0  0  0  0  0  0  0  0  0  0
   -0.1432   -0.7082    0.0649 C   0  0  0  0  0  0  0  0  0  0  0  0
   -1.4568    0.8417    0.7994 H   0  0  0  0  0  0  0  0  0  0  0  0
   -1.3561    0.8967   -0.9611 H   0  0  0  0  0  0  0  0  0  0  0  0
   -0.2071   -1.2443    0.9284 H   0  0  0  0  0  0  0  0  0  0  0  0
    0.7574   -0.1464    0.1573 H   0  0  0  0  0  0  0  0  0  0  0  0
   -0.0008   -1.4342   -0.8164 H   0  0  0  0  0  0  0  0  0  0  0  0
  1  5  1  0  0  0  0
  2  1  1  0  0  0  0
  2  8  1  0  0  0  0
  3  1  1  0  0  0  0
  4  1  1  0  0  0  0
  6  2  1  0  0  0  0
  6  9  1  0  0  0  0
  6 10  1  0  0  0  0
  7  2  1  0  0  0  0
  9 13  1  0  0  0  0
  9 12  1  0  0  0  0
 11  6  1  0  0  0  0
 14  9  1  0  0  0  0
M  END
$$$$
