butane_opt
 OpenBabel08242015393D

 14 13  0  0  0  0  0  0  0  0999 V2000
   -3.8867    0.2255   -0.0816 C   0  0  0  0  0  0  0  0  0  0  0  0
   -2.6958   -0.5613    0.1235 C   0  0  0  0  0  0  0  0  0  0  0  0
   -4.8838   -0.4192    0.0716 H   0  0  0  0  0  0  0  0  0  0  0  0
   -3.7999    0.8926   -1.0220 H   0  0  0  0  0  0  0  0  0  0  0  0
   -3.9888    0.8227    0.7933 H   0  0  0  0  0  0  0  0  0  0  0  0
   -1.4375    0.2220    0.0968 C   0  0  0  0  0  0  0  0  0  0  0  0
   -2.6221   -1.2823   -0.7002 H   0  0  0  0  0  0  0  0  0  0  0  0
   -2.8229   -1.2226    1.0285 H   0  0  0  0  0  0  0  0  0  0  0  0
   -0.2100   -0.7421   -0.0639 C   0  0  0  0  0  0  0  0  0  0  0  0
   -1.2500    1.1544    1.1724 H   0  0  0  0  0  0  0  0  0  0  0  0
   -1.3708    0.7287   -0.6284 H   0  0  0  0  0  0  0  0  0  0  0  0
    0.0278   -1.5157    0.9223 H   0  0  0  0  0  0  0  0  0  0  0  0
    0.6237   -0.1311   -0.2619 H   0  0  0  0  0  0  0  0  0  0  0  0
   -0.1547   -1.2456   -0.8209 H   0  0  0  0  0  0  0  0  0  0  0  0
  1  3  1  0  0  0  0
  1  2  1  0  0  0  0
  1  5  1  0  0  0  0
  2  8  1  0  0  0  0
  4  1  1  0  0  0  0
  6  2  1  0  0  0  0
  6 10  1  0  0  0  0
  7  2  1  0  0  0  0
  9  6  1  0  0  0  0
  9 12  1  0  0  0  0
 11  6  1  0  0  0  0
 13  9  1  0  0  0  0
 14  9  1  0  0  0  0
M  END
$$$$
