butane_opt
 OpenBabel08242015393D

 14 13  0  0  0  0  0  0  0  0999 V2000
   -3.9353    0.2547   -0.0158 C   0  0  0  0  0  0  0  0  0  0  0  0
   -2.6839   -0.5841    0.0367 C   0  0  0  0  0  0  0  0  0  0  0  0
   -4.9737   -0.4290    0.3723 H   0  0  0  0  0  0  0  0  0  0  0  0
   -4.1145    1.1221   -1.0651 H   0  0  0  0  0  0  0  0  0  0  0  0
   -3.6779    0.5636    0.6514 H   0  0  0  0  0  0  0  0  0  0  0  0
   -1.3934    0.2300    0.0586 C   0  0  0  0  0  0  0  0  0  0  0  0
   -2.7523   -1.3168   -0.8187 H   0  0  0  0  0  0  0  0  0  0  0  0
   -2.8282   -1.3302    0.9828 H   0  0  0  0  0  0  0  0  0  0  0  0
   -0.1876   -0.7352    0.0152 C   0  0  0  0  0  0  0  0  0  0  0  0
   -1.4957    1.0270    1.0390 H   0  0  0  0  0  0  0  0  0  0  0  0
   -1.2916    0.7642   -0.7459 H   0  0  0  0  0  0  0  0  0  0  0  0
   -0.0449   -1.2326    0.7749 H   0  0  0  0  0  0  0  0  0  0  0  0
    0.6855   -0.1866   -0.0126 H   0  0  0  0  0  0  0  0  0  0  0  0
   -0.1163   -1.4354   -0.9366 H   0  0  0  0  0  0  0  0  0  0  0  0
  1  2  1  0  0  0  0
  1  3  1  0  0  0  0
  1  5  1  0  0  0  0
  2  6  1  0  0  0  0
  2  8  1  0  0  0  0
  4  1  1  0  0  0  0
  6 10  1  0  0  0  0
  7  2  1  0  0  0  0
  9  6  1  0  0  0  0
  9 12  1  0  0  0  0
 11  6  1  0  0  0  0
 13  9  1  0  0  0  0
 14  9  1  0  0  0  0
M  END
$$$$
