butane_opt
 OpenBabel08242015393D

 14 13  0  0  0  0  0  0  0  0999 V2000
   -3.9637    0.2936    0.0624 C   0  0  0  0  0  0  0  0  0  0  0  0
   -2.6924   -0.6854   -0.0580 C   0  0  0  0  0  0  0  0  0  0  0  0
   -4.7529   -0.2378    0.4041 H   0  0  0  0  0  0  0  0  0  0  0  0
   -4.2410    1.0679   -0.8890 H   0  0  0  0  0  0  0  0  0  0  0  0
   -3.8858    0.7509    0.8679 H   0  0  0  0  0  0  0  0  0  0  0  0
   -1.4024    0.1817   -0.0375 C   0  0  0  0  0  0  0  0  0  0  0  0
   -2.7818   -1.3127   -0.8884 H   0  0  0  0  0  0  0  0  0  0  0  0
   -2.6213   -1.2962    0.8205 H   0  0  0  0  0  0  0  0  0  0  0  0
   -0.1322   -0.6692    0.0970 C   0  0  0  0  0  0  0  0  0  0  0  0
   -1.3961    1.0619    0.9694 H   0  0  0  0  0  0  0  0  0  0  0  0
   -1.4015    0.7405   -0.9642 H   0  0  0  0  0  0  0  0  0  0  0  0
   -0.1444   -1.3040    0.9932 H   0  0  0  0  0  0  0  0  0  0  0  0
    0.7064   -0.0899    0.0700 H   0  0  0  0  0  0  0  0  0  0  0  0
   -0.2241   -1.2879   -0.7193 H   0  0  0  0  0  0  0  0  0  0  0  0
  1  3  1  0  0  0  0
  1  5  1  0  0  0  0
  2  6  1  0  0  0  0
  2  1  1  0  0  0  0
  2  8  1  0  0  0  0
  4  1  1  0  0  0  0
  6  9  1  0  0  0  0
  6 10  1  0  0  0  0
  7  2  1  0  0  0  0
  9 12  1  0  0  0  0
 11  6  1  0  0  0  0
 13  9  1  0  0  0  0
 14  9  1  0  0  0  0
M  END
$$$$
