14
butane_opt
C  -3.915481   0.298300   0.094904
C  -2.675729  -0.673807  -0.031503
H  -4.767495  -0.218478   0.004542
H  -4.046855   0.774748  -0.711366
H  -3.956607   1.165078   1.120422
C  -1.414536   0.127682  -0.123312
H  -2.767446  -1.223706  -0.834897
H  -2.566959  -1.438157   0.875922
C  -0.205425  -0.647868   0.131024
H  -1.487877   0.896504   0.769843
H  -1.440627   0.894218  -1.081793
H  -0.217064  -1.171362   0.912413
H   0.857806   0.022375   0.335566
H  -0.134012  -1.404992  -0.786003
