14
butane_opt
C  -3.954307   0.289356   0.119856
C  -2.689455  -0.630687  -0.095135
H  -4.859821  -0.349233   0.296173
H  -4.104431   1.009976  -0.816413
H  -3.787787   0.898403   0.886381
C  -1.409830   0.124077  -0.052512
H  -2.617452  -1.407760  -1.076267
H  -2.447978  -1.214431   0.787397
C  -0.175538  -0.654894   0.134054
H  -1.411987   0.759858   0.707652
H  -1.304028   0.890769  -1.093103
H  -0.137821  -1.264246   1.034572
H   0.742261  -0.075173   0.105068
H  -0.338578  -1.254482  -0.654609
