butane_opt
 OpenBabel08242015393D

 14 13  0  0  0  0  0  0  0  0999 V2000
   -3.9639    0.2759   -0.0502 C   0  0  0  0  0  0  0  0  0  0  0  0
   -2.7141   -0.6724    0.1248 C   0  0  0  0  0  0  0  0  0  0  0  0
   -4.7390   -0.2099   -0.2963 H   0  0  0  0  0  0  0  0  0  0  0  0
   -3.8988    0.8670   -0.8586 H   0  0  0  0  0  0  0  0  0  0  0  0
   -4.3003    1.0884    0.8654 H   0  0  0  0  0  0  0  0  0  0  0  0
   -1.3856    0.2098    0.0932 C   0  0  0  0  0  0  0  0  0  0  0  0
   -2.7483   -1.2106   -0.6501 H   0  0  0  0  0  0  0  0  0  0  0  0
   -2.7621   -1.3411    1.0563 H   0  0  0  0  0  0  0  0  0  0  0  0
   -0.1353   -0.6884   -0.0183 C   0  0  0  0  0  0  0  0  0  0  0  0
   -1.3113    0.7515    0.7862 H   0  0  0  0  0  0  0  0  0  0  0  0
   -1.3061    0.8938   -0.8392 H   0  0  0  0  0  0  0  0  0  0  0  0
   -0.0896   -1.1941    0.7729 H   0  0  0  0  0  0  0  0  0  0  0  0
    0.8280   -0.0770   -0.1827 H   0  0  0  0  0  0  0  0  0  0  0  0
   -0.3007   -1.5387   -1.0249 H   0  0  0  0  0  0  0  0  0  0  0  0
  1  2  1  0  0  0  0
  1  5  1  0  0  0  0
  2  8  1  0  0  0  0
  3  1  1  0  0  0  0
  4  1  1  0  0  0  0
  6  2  1  0  0  0  0
  6 10  1  0  0  0  0
  7  2  1  0  0  0  0
  9  6  1  0  0  0  0
  9 12  1  0  0  0  0
 11  6  1  0  0  0  0
 13  9  1  0  0  0  0
 14  9  1  0  0  0  0
M  END
$$$$
