butane_opt
 OpenBabel08242015393D

 14 13  0  0  0  0  0  0  0  0999 V2000
   -3.9258    0.2628    0.0305 C   0  0  0  0  0  0  0  0  0  0  0  0
   -2.7054   -0.6059    0.0201 C   0  0  0  0  0  0  0  0  0  0  0  0
   -4.8808   -0.3743   -0.0236 H   0  0  0  0  0  0  0  0  0  0  0  0
   -3.9476    0.7743   -0.7889 H   0  0  0  0  0  0  0  0  0  0  0  0
   -3.9486    1.0407    0.9742 H   0  0  0  0  0  0  0  0  0  0  0  0
   -1.4044    0.1871    0.0000 C   0  0  0  0  0  0  0  0  0  0  0  0
   -2.7076   -1.3460   -0.8536 H   0  0  0  0  0  0  0  0  0  0  0  0
   -2.7299   -1.2223    0.9162 H   0  0  0  0  0  0  0  0  0  0  0  0
   -0.1707   -0.6967    0.0491 C   0  0  0  0  0  0  0  0  0  0  0  0
   -1.4235    0.8283    0.8040 H   0  0  0  0  0  0  0  0  0  0  0  0
   -1.3702    0.8809   -0.9336 H   0  0  0  0  0  0  0  0  0  0  0  0
   -0.1091   -1.4154    1.0009 H   0  0  0  0  0  0  0  0  0  0  0  0
    0.6994   -0.1132   -0.0835 H   0  0  0  0  0  0  0  0  0  0  0  0
   -0.1252   -1.2994   -0.7514 H   0  0  0  0  0  0  0  0  0  0  0  0
  1  5  1  0  0  0  0
  2  1  1  0  0  0  0
  2  8  1  0  0  0  0
  3  1  1  0  0  0  0
  4  1  1  0  0  0  0
  6  2  1  0  0  0  0
  6  9  1  0  0  0  0
  6 10  1  0  0  0  0
  7  2  1  0  0  0  0
  9 12  1  0  0  0  0
 11  6  1  0  0  0  0
 13  9  1  0  0  0  0
 14  9  1  0  0  0  0
M  END
$$$$
