butane_opt
 OpenBabel08242015393D

 14 13  0  0  0  0  0  0  0  0999 V2000
   -3.9908    0.2804   -0.0101 C   0  0  0  0  0  0  0  0  0  0  0  0
   -2.6835   -0.6257    0.1034 C   0  0  0  0  0  0  0  0  0  0  0  0
   -4.8987   -0.3514   -0.1427 H   0  0  0  0  0  0  0  0  0  0  0  0
   -3.9897    0.9542   -0.9475 H   0  0  0  0  0  0  0  0  0  0  0  0
   -4.2521    1.0032    0.8117 H   0  0  0  0  0  0  0  0  0  0  0  0
   -1.3787    0.1527    0.0300 C   0  0  0  0  0  0  0  0  0  0  0  0
   -2.5892   -1.4065   -0.7874 H   0  0  0  0  0  0  0  0  0  0  0  0
   -2.6564   -1.2876    1.1032 H   0  0  0  0  0  0  0  0  0  0  0  0
   -0.1614   -0.6551   -0.0037 C   0  0  0  0  0  0  0  0  0  0  0  0
   -1.1928    0.7849    0.8700 H   0  0  0  0  0  0  0  0  0  0  0  0
   -1.4262    0.7777   -0.8217 H   0  0  0  0  0  0  0  0  0  0  0  0
   -0.2156   -1.1887    0.8335 H   0  0  0  0  0  0  0  0  0  0  0  0
    0.8157   -0.0367    0.0024 H   0  0  0  0  0  0  0  0  0  0  0  0
   -0.0327   -1.5455   -0.9374 H   0  0  0  0  0  0  0  0  0  0  0  0
  1  2  1  0  0  0  0
  1  5  1  0  0  0  0
  2  8  1  0  0  0  0
  3  1  1  0  0  0  0
  4  1  1  0  0  0  0
  6  2  1  0  0  0  0
  6 10  1  0  0  0  0
  7  2  1  0  0  0  0
  9 13  1  0  0  0  0
  9  6  1  0  0  0  0
  9 12  1  0  0  0  0
 11  6  1  0  0  0  0
 14  9  1  0  0  0  0
M  END
$$$$
