14
butane_opt
C  -3.988889   0.306007  -0.072653
C  -2.671536  -0.695545   0.109686
H  -4.799543  -0.190511   0.413541
H  -4.098568   1.336815  -1.192166
H  -3.902778   0.565192   0.490602
C  -1.402072   0.176273   0.128792
H  -2.498977  -1.428487  -0.797460
H  -2.878113  -1.278741   1.051552
C  -0.161572  -0.654080  -0.056232
H  -1.219829   0.930507   1.004162
H  -1.441067   0.592992  -0.604993
H  -0.079191  -1.046325   0.731907
H   0.695213  -0.069960  -0.037549
H  -0.137415  -1.450268  -0.978991
