14
butane_opt
C  -3.964286   0.245061   0.109714
C  -2.702946  -0.657698  -0.013819
H  -4.840768  -0.271013   0.052210
H  -3.923845   0.800879  -0.719521
H  -3.934744   1.176121   1.094385
C  -1.412525   0.242196  -0.133507
H  -2.885387  -1.410456  -0.959425
H  -2.734381  -1.063954   0.730607
C  -0.119795  -0.706303   0.131506
H  -1.412561   0.671909   0.640798
H  -1.489652   0.976774  -1.092511
H  -0.257138  -1.229194   1.016665
H   0.728041  -0.154311   0.302141
H   0.110562  -1.451635  -0.731160
