14
butane_opt
C  -3.921504   0.288517   0.133172
C  -2.680219  -0.648561  -0.087288
H  -4.782138  -0.217415   0.111932
H  -4.130953   0.880080  -0.703474
H  -3.843695   1.152231   1.041290
C  -1.409110   0.119757  -0.094037
H  -2.814388  -1.417651  -0.961451
H  -2.675328  -1.182973   0.748889
C  -0.193565  -0.650347   0.138300
H  -1.279087   0.693359   0.672225
H  -1.346537   0.997109  -1.146175
H  -0.407202  -1.373725   1.143270
H   0.777642  -0.024035   0.199260
H  -0.088475  -1.290077  -0.725000
