14
butane_opt
C  -4.020442   0.298413   0.068928
C  -2.701876  -0.660125   0.007019
H  -4.877077  -0.245288   0.029664
H  -4.055703   0.931924  -0.876395
H  -3.849918   0.999953   0.905585
C  -1.395917   0.157159  -0.074317
H  -2.729913  -1.364585  -0.877393
H  -2.481650  -1.359486   0.913059
C  -0.135890  -0.646778   0.085337
H  -1.293856   0.868261   0.915440
H  -1.332291   0.721471  -0.939009
H  -0.263278  -1.322987   0.955072
H   0.881402   0.033314   0.171945
H  -0.015814  -1.482220  -0.826965
