14
butane_opt
C  -3.970290   0.304027  -0.062365
C  -2.700625  -0.657965   0.116488
H  -4.891713  -0.249071  -0.063561
H  -4.027542   1.055375  -1.087342
H  -4.209648   0.870544   0.703021
C  -1.376459   0.168254   0.140453
H  -2.725196  -1.336551  -0.680179
H  -2.779502  -1.295200   1.072270
C  -0.137512  -0.687315  -0.050357
H  -1.366197   0.766887   0.905134
H  -1.262368   0.723106  -0.696811
H  -0.079086  -1.245493   0.757424
H   0.895532   0.108909  -0.228595
H  -0.356627  -1.373958  -1.009084
