14
butane_opt
C  -3.933560   0.257825  -0.082532
C  -2.662409  -0.598825   0.158944
H  -4.851361  -0.479855  -0.200618
H  -3.739437   0.810451  -0.953505
H  -3.925135   0.925935   0.780017
C  -1.439684   0.207943   0.125100
H  -2.627631  -1.213678  -0.647174
H  -2.830766  -1.355194   1.165800
C  -0.190021  -0.692374  -0.067603
H  -1.333352   0.807522   0.897588
H  -1.536563   0.915230  -0.906534
H   0.005017  -1.250094   0.726810
H   0.697384  -0.132010   0.117048
H  -0.192497  -1.596789  -1.138918
