butane_opt
 OpenBabel08242015393D

 14 13  0  0  0  0  0  0  0  0999 V2000
   -3.9569    0.2710    0.0361 C   0  0  0  0  0  0  0  0  0  0  0  0
   -2.7111   -0.6322    0.0187 C   0  0  0  0  0  0  0  0  0  0  0  0
   -4.8232   -0.2569    0.0128 H   0  0  0  0  0  0  0  0  0  0  0  0
   -3.9876    0.8084   -0.8108 H   0  0  0  0  0  0  0  0  0  0  0  0
   -3.9956    1.0150    0.9371 H   0  0  0  0  0  0  0  0  0  0  0  0
   -1.3893    0.1821   -0.0205 C   0  0  0  0  0  0  0  0  0  0  0  0
   -2.7644   -1.3116   -0.8174 H   0  0  0  0  0  0  0  0  0  0  0  0
   -2.6435   -1.2280    0.8931 H   0  0  0  0  0  0  0  0  0  0  0  0
   -0.1534   -0.6931    0.0532 C   0  0  0  0  0  0  0  0  0  0  0  0
   -1.3725    0.8787    0.8304 H   0  0  0  0  0  0  0  0  0  0  0  0
   -1.3735    0.8111   -0.8950 H   0  0  0  0  0  0  0  0  0  0  0  0
   -0.1612   -1.3480    0.9836 H   0  0  0  0  0  0  0  0  0  0  0  0
    0.7683   -0.0749    0.0030 H   0  0  0  0  0  0  0  0  0  0  0  0
   -0.1448   -1.2968   -0.7370 H   0  0  0  0  0  0  0  0  0  0  0  0
  1  5  1  0  0  0  0
  2  1  1  0  0  0  0
  2  8  1  0  0  0  0
  3  1  1  0  0  0  0
  4  1  1  0  0  0  0
  6  2  1  0  0  0  0
  6  9  1  0  0  0  0
  6 10  1  0  0  0  0
  7  2  1  0  0  0  0
  9 12  1  0  0  0  0
 11  6  1  0  0  0  0
 13  9  1  0  0  0  0
 14  9  1  0  0  0  0
M  END
$$$$
