14
butane_opt
C  -3.971576   0.281849  -0.057540
C  -2.740097  -0.648192   0.130560
H  -4.819915  -0.306777   0.194784
H  -3.972192   0.918408  -0.953788
H  -3.978384   0.777689   0.628473
C  -1.388198   0.231486   0.039966
H  -2.617085  -1.186099  -0.659356
H  -2.710549  -1.416405   1.054456
C  -0.149252  -0.694361  -0.025916
H  -1.154952   0.929198   0.970301
H  -1.502163   0.722593  -0.787394
H  -0.157547  -1.030172   0.671181
H   0.748231  -0.169613   0.309274
H   0.107937  -1.752063  -1.056989
