butane_opt
 OpenBabel08242015393D

 14 12  0  0  0  0  0  0  0  0999 V2000
   -3.9113    0.3094   -0.0540 C   0  0  0  0  0  0  0  0  0  0  0  0
   -2.6882   -0.6669    0.1069 C   0  0  0  0  0  0  0  0  0  0  0  0
   -4.6879   -0.2294    0.3439 H   0  0  0  0  0  0  0  0  0  0  0  0
   -4.0041    1.3833   -1.2214 H   0  0  0  0  0  0  0  0  0  0  0  0
   -3.9952    0.5429    0.5766 H   0  0  0  0  0  0  0  0  0  0  0  0
   -1.3915    0.1377    0.0872 C   0  0  0  0  0  0  0  0  0  0  0  0
   -2.6620   -1.2600   -0.7376 H   0  0  0  0  0  0  0  0  0  0  0  0
   -2.7695   -1.3918    1.0638 H   0  0  0  0  0  0  0  0  0  0  0  0
   -0.1949   -0.6444   -0.0427 C   0  0  0  0  0  0  0  0  0  0  0  0
   -1.4318    0.9954    1.0854 H   0  0  0  0  0  0  0  0  0  0  0  0
   -1.4498    0.4801   -0.6111 H   0  0  0  0  0  0  0  0  0  0  0  0
   -0.3507   -0.9745    0.7245 H   0  0  0  0  0  0  0  0  0  0  0  0
    0.7276   -0.0768    0.0721 H   0  0  0  0  0  0  0  0  0  0  0  0
   -0.1901   -1.5360   -1.1074 H   0  0  0  0  0  0  0  0  0  0  0  0
  1  2  1  0  0  0  0
  1  3  1  0  0  0  0
  1  5  1  0  0  0  0
  2  8  1  0  0  0  0
  6  2  1  0  0  0  0
  6 10  1  0  0  0  0
  7  2  1  0  0  0  0
  9 13  1  0  0  0  0
  9  6  1  0  0  0  0
  9 12  1  0  0  0  0
 11  6  1  0  0  0  0
 14  9  1  0  0  0  0
M  RAD  2   1   2   4   2
M  END
$$$$
