14
butane_opt
C  -3.941101   0.291941  -0.011767
C  -2.657664  -0.656486   0.115378
H  -4.865090  -0.272737  -0.045584
H  -3.905476   0.973333  -0.990601
H  -4.080228   1.001690   0.906411
C  -1.393347   0.173860  -0.002206
H  -2.572043  -1.409242  -0.724472
H  -2.749563  -1.239685   1.024544
C  -0.238064  -0.678847  -0.002185
H  -1.174944   0.811745   0.897575
H  -1.360211   0.722506  -0.911020
H  -0.235918  -1.132779   0.728706
H   0.821922  -0.014138   0.313274
H  -0.146386  -1.451406  -0.938940
