14
butane_opt
C  -4.000704   0.292918  -0.046758
C  -2.682226  -0.653929   0.129239
H  -4.874325  -0.226728   0.072594
H  -3.966600   0.928080  -1.032954
H  -4.100587   1.062828   0.898315
C  -1.370000   0.147283   0.029231
H  -2.594494  -1.135134  -0.674615
H  -2.760901  -1.373561   1.089835
C  -0.163695  -0.661556  -0.017071
H  -1.307609   0.758092   0.841818
H  -1.176154   0.665372  -0.812017
H  -0.247126  -0.974954   0.672651
H   0.808406  -0.037560   0.275736
H  -0.196580  -1.626614  -1.042293
