butane_opt
 OpenBabel08242015393D

 14 13  0  0  0  0  0  0  0  0999 V2000
   -3.9443    0.2620    0.0597 C   0  0  0  0  0  0  0  0  0  0  0  0
   -2.7491   -0.6410    0.0553 C   0  0  0  0  0  0  0  0  0  0  0  0
   -4.8294   -0.3307   -0.4125 H   0  0  0  0  0  0  0  0  0  0  0  0
   -3.7471    0.6617   -0.6717 H   0  0  0  0  0  0  0  0  0  0  0  0
   -4.2284    1.2364    1.1100 H   0  0  0  0  0  0  0  0  0  0  0  0
   -1.4126    0.2191   -0.0701 C   0  0  0  0  0  0  0  0  0  0  0  0
   -2.8362   -1.2803   -0.8142 H   0  0  0  0  0  0  0  0  0  0  0  0
   -2.7502   -1.1329    0.9366 H   0  0  0  0  0  0  0  0  0  0  0  0
   -0.1275   -0.7190    0.0624 C   0  0  0  0  0  0  0  0  0  0  0  0
   -1.3056    0.8776    0.7351 H   0  0  0  0  0  0  0  0  0  0  0  0
   -1.3466    0.8694   -1.0123 H   0  0  0  0  0  0  0  0  0  0  0  0
    0.0089   -1.4426    0.9908 H   0  0  0  0  0  0  0  0  0  0  0  0
    0.8973   -0.0783    0.0818 H   0  0  0  0  0  0  0  0  0  0  0  0
   -0.0918   -1.3133   -0.7400 H   0  0  0  0  0  0  0  0  0  0  0  0
  1  5  1  0  0  0  0
  2  1  1  0  0  0  0
  2  8  1  0  0  0  0
  3  1  1  0  0  0  0
  4  1  1  0  0  0  0
  6  2  1  0  0  0  0
  6  9  1  0  0  0  0
  6 10  1  0  0  0  0
  7  2  1  0  0  0  0
  9 13  1  0  0  0  0
  9 12  1  0  0  0  0
 11  6  1  0  0  0  0
 14  9  1  0  0  0  0
M  END
$$$$
