14
butane_opt
C  -3.965586   0.317296   0.149496
C  -2.703125  -0.679376  -0.054691
H  -4.845157  -0.245773  -0.028666
H  -4.064321   0.856135  -0.728536
H  -3.928732   1.065543   1.071515
C  -1.380535   0.145985  -0.138891
H  -2.859301  -1.409911  -0.957031
H  -2.678036  -1.125810   0.779844
C  -0.141930  -0.662318   0.132669
H  -1.354939   0.594203   0.590050
H  -1.370599   0.907349  -1.107824
H  -0.458611  -1.140222   0.955316
H   0.806040  -0.064407   0.427763
H   0.012194  -1.354141  -0.626734
