14
butane_opt
C  -3.933726   0.313314  -0.021166
C  -2.666629  -0.644418   0.108109
H  -4.856303  -0.295846  -0.291010
H  -3.894132   0.717801  -0.808271
H  -4.119973   1.055411   0.858174
C  -1.388205   0.150618   0.023295
H  -2.549566  -1.178151  -0.582297
H  -2.843249  -1.452341   1.180637
C  -0.194188  -0.681731  -0.020342
H  -1.357443   0.803269   0.903695
H  -1.414841   0.655879  -0.827600
H  -0.288142  -1.138035   0.718657
H   0.776850   0.078463   0.165816
H  -0.288546  -1.361565  -0.944129
