butane_opt
 OpenBabel08242015393D

 14 13  0  0  0  0  0  0  0  0999 V2000
   -3.9336    0.2578   -0.0825 C   0  0  0  0  0  0  0  0  0  0  0  0
   -2.6624   -0.5988    0.1589 C   0  0  0  0  0  0  0  0  0  0  0  0
   -4.8514   -0.4799   -0.2006 H   0  0  0  0  0  0  0  0  0  0  0  0
   -3.7394    0.8105   -0.9535 H   0  0  0  0  0  0  0  0  0  0  0  0
   -3.9251    0.9259    0.7800 H   0  0  0  0  0  0  0  0  0  0  0  0
   -1.4397    0.2079    0.1251 C   0  0  0  0  0  0  0  0  0  0  0  0
   -2.6276   -1.2137   -0.6472 H   0  0  0  0  0  0  0  0  0  0  0  0
   -2.8308   -1.3552    1.1658 H   0  0  0  0  0  0  0  0  0  0  0  0
   -0.1900   -0.6924   -0.0676 C   0  0  0  0  0  0  0  0  0  0  0  0
   -1.3334    0.8075    0.8976 H   0  0  0  0  0  0  0  0  0  0  0  0
   -1.5366    0.9152   -0.9065 H   0  0  0  0  0  0  0  0  0  0  0  0
    0.0050   -1.2501    0.7268 H   0  0  0  0  0  0  0  0  0  0  0  0
    0.6974   -0.1320    0.1170 H   0  0  0  0  0  0  0  0  0  0  0  0
   -0.1925   -1.5968   -1.1389 H   0  0  0  0  0  0  0  0  0  0  0  0
  1  2  1  0  0  0  0
  1  5  1  0  0  0  0
  2  8  1  0  0  0  0
  3  1  1  0  0  0  0
  4  1  1  0  0  0  0
  6  2  1  0  0  0  0
  6 10  1  0  0  0  0
  7  2  1  0  0  0  0
  9 13  1  0  0  0  0
  9  6  1  0  0  0  0
  9 12  1  0  0  0  0
 11  6  1  0  0  0  0
 14  9  1  0  0  0  0
M  END
$$$$
