butane_opt
 OpenBabel08242015393D

 14 13  0  0  0  0  0  0  0  0999 V2000
   -3.9581    0.2450    0.0883 C   0  0  0  0  0  0  0  0  0  0  0  0
   -2.7126   -0.5936   -0.0263 C   0  0  0  0  0  0  0  0  0  0  0  0
   -4.9451   -0.3709    0.1203 H   0  0  0  0  0  0  0  0  0  0  0  0
   -4.0051    0.7902   -0.7864 H   0  0  0  0  0  0  0  0  0  0  0  0
   -3.9205    0.8754    1.0221 H   0  0  0  0  0  0  0  0  0  0  0  0
   -1.3850    0.2537   -0.0831 C   0  0  0  0  0  0  0  0  0  0  0  0
   -2.9236   -1.3208   -0.9157 H   0  0  0  0  0  0  0  0  0  0  0  0
   -2.6860   -1.3145    0.9429 H   0  0  0  0  0  0  0  0  0  0  0  0
   -0.1508   -0.7463    0.0928 C   0  0  0  0  0  0  0  0  0  0  0  0
   -1.4163    0.9345    0.6647 H   0  0  0  0  0  0  0  0  0  0  0  0
   -1.3201    0.8974   -0.9943 H   0  0  0  0  0  0  0  0  0  0  0  0
   -0.2233   -1.2232    0.9458 H   0  0  0  0  0  0  0  0  0  0  0  0
    0.6656   -0.1814    0.3224 H   0  0  0  0  0  0  0  0  0  0  0  0
    0.2495   -1.4838   -0.7621 H   0  0  0  0  0  0  0  0  0  0  0  0
  1  3  1  0  0  0  0
  1  5  1  0  0  0  0
  2  1  1  0  0  0  0
  2  8  1  0  0  0  0
  4  1  1  0  0  0  0
  6  2  1  0  0  0  0
  6  9  1  0  0  0  0
  6 10  1  0  0  0  0
  7  2  1  0  0  0  0
  9 13  1  0  0  0  0
  9 12  1  0  0  0  0
 11  6  1  0  0  0  0
 14  9  1  0  0  0  0
M  END
$$$$
