butane_opt
 OpenBabel08242015393D

 14 13  0  0  0  0  0  0  0  0999 V2000
   -3.9246    0.2351    0.0752 C   0  0  0  0  0  0  0  0  0  0  0  0
   -2.7069   -0.5840    0.0023 C   0  0  0  0  0  0  0  0  0  0  0  0
   -4.8036   -0.2784    0.1505 H   0  0  0  0  0  0  0  0  0  0  0  0
   -3.9179    0.7169   -0.7821 H   0  0  0  0  0  0  0  0  0  0  0  0
   -3.7939    0.8453    0.9509 H   0  0  0  0  0  0  0  0  0  0  0  0
   -1.4248    0.2473   -0.0786 C   0  0  0  0  0  0  0  0  0  0  0  0
   -2.9552   -1.4250   -0.9743 H   0  0  0  0  0  0  0  0  0  0  0  0
   -2.6055   -1.1245    0.8228 H   0  0  0  0  0  0  0  0  0  0  0  0
   -0.1722   -0.7382    0.0960 C   0  0  0  0  0  0  0  0  0  0  0  0
   -1.3738    0.8702    0.6726 H   0  0  0  0  0  0  0  0  0  0  0  0
   -1.3833    1.0045   -1.0341 H   0  0  0  0  0  0  0  0  0  0  0  0
   -0.3429   -1.2508    0.9774 H   0  0  0  0  0  0  0  0  0  0  0  0
    0.7630   -0.1945    0.2260 H   0  0  0  0  0  0  0  0  0  0  0  0
    0.1327   -1.5583   -0.7329 H   0  0  0  0  0  0  0  0  0  0  0  0
  1  3  1  0  0  0  0
  1  5  1  0  0  0  0
  2  1  1  0  0  0  0
  2  8  1  0  0  0  0
  4  1  1  0  0  0  0
  6  2  1  0  0  0  0
  6  9  1  0  0  0  0
  6 10  1  0  0  0  0
  7  2  1  0  0  0  0
  9 13  1  0  0  0  0
  9 12  1  0  0  0  0
 11  6  1  0  0  0  0
 14  9  1  0  0  0  0
M  END
$$$$
