butane_opt
 OpenBabel08242015393D

 14 13  0  0  0  0  0  0  0  0999 V2000
   -3.9527    0.2663   -0.0179 C   0  0  0  0  0  0  0  0  0  0  0  0
   -2.6519   -0.6209    0.0483 C   0  0  0  0  0  0  0  0  0  0  0  0
   -4.8282   -0.2390    0.4109 H   0  0  0  0  0  0  0  0  0  0  0  0
   -4.0551    1.2401   -1.1494 H   0  0  0  0  0  0  0  0  0  0  0  0
   -3.8126    0.6613    0.6216 H   0  0  0  0  0  0  0  0  0  0  0  0
   -1.4066    0.1306    0.0733 C   0  0  0  0  0  0  0  0  0  0  0  0
   -2.6662   -1.2189   -0.7136 H   0  0  0  0  0  0  0  0  0  0  0  0
   -2.7972   -1.1184    0.9222 H   0  0  0  0  0  0  0  0  0  0  0  0
   -0.1907   -0.6748    0.0162 C   0  0  0  0  0  0  0  0  0  0  0  0
   -1.4013    0.8295    0.9461 H   0  0  0  0  0  0  0  0  0  0  0  0
   -1.4080    0.7502   -0.8408 H   0  0  0  0  0  0  0  0  0  0  0  0
   -0.2416   -0.9938    0.7849 H   0  0  0  0  0  0  0  0  0  0  0  0
    0.8632    0.0107    0.0267 H   0  0  0  0  0  0  0  0  0  0  0  0
   -0.2736   -1.5973   -1.0706 H   0  0  0  0  0  0  0  0  0  0  0  0
  1  2  1  0  0  0  0
  1  3  1  0  0  0  0
  1  5  1  0  0  0  0
  2  6  1  0  0  0  0
  2  8  1  0  0  0  0
  4  1  1  0  0  0  0
  6 10  1  0  0  0  0
  7  2  1  0  0  0  0
  9 13  1  0  0  0  0
  9  6  1  0  0  0  0
  9 12  1  0  0  0  0
 11  6  1  0  0  0  0
 14  9  1  0  0  0  0
M  END
$$$$
