14
butane_opt
C  -3.936458   0.245675   0.041867
C  -2.729527  -0.554154  -0.012518
H  -4.903785  -0.394673   0.022940
H  -4.040175   0.631076  -0.742083
H  -3.900413   0.928693   0.890269
C  -1.410682   0.192271   0.005601
H  -2.969594  -1.333926  -1.006128
H  -2.734197  -1.133075   0.807036
C  -0.107096  -0.724768   0.055819
H  -1.373843   1.026263   0.939478
H  -1.475297   0.799744  -0.830090
H  -0.047558  -1.770239   1.263483
H   0.716508  -0.104952  -0.423172
H  -0.084643  -1.043663  -0.536924
