butane_opt
 OpenBabel08242015393D

 14 13  0  0  0  0  0  0  0  0999 V2000
   -3.9007    0.2384   -0.0241 C   0  0  0  0  0  0  0  0  0  0  0  0
   -2.6776   -0.6224    0.0731 C   0  0  0  0  0  0  0  0  0  0  0  0
   -4.8470   -0.3382   -0.0163 H   0  0  0  0  0  0  0  0  0  0  0  0
   -3.8169    0.9385   -1.0241 H   0  0  0  0  0  0  0  0  0  0  0  0
   -3.9014    0.9392    0.8848 H   0  0  0  0  0  0  0  0  0  0  0  0
   -1.4539    0.2229    0.0518 C   0  0  0  0  0  0  0  0  0  0  0  0
   -2.8511   -1.2312   -0.7672 H   0  0  0  0  0  0  0  0  0  0  0  0
   -2.6480   -1.2747    0.9893 H   0  0  0  0  0  0  0  0  0  0  0  0
   -0.1722   -0.7123   -0.0055 C   0  0  0  0  0  0  0  0  0  0  0  0
   -1.4514    1.1090    1.0344 H   0  0  0  0  0  0  0  0  0  0  0  0
   -1.4891    0.6585   -0.7949 H   0  0  0  0  0  0  0  0  0  0  0  0
    0.0223   -1.4679    0.9489 H   0  0  0  0  0  0  0  0  0  0  0  0
    0.7144   -0.1195   -0.1219 H   0  0  0  0  0  0  0  0  0  0  0  0
   -0.3047   -1.2013   -0.8264 H   0  0  0  0  0  0  0  0  0  0  0  0
  1  3  1  0  0  0  0
  1  2  1  0  0  0  0
  1  5  1  0  0  0  0
  2  8  1  0  0  0  0
  4  1  1  0  0  0  0
  6  2  1  0  0  0  0
  6 10  1  0  0  0  0
  7  2  1  0  0  0  0
  9  6  1  0  0  0  0
  9 12  1  0  0  0  0
 11  6  1  0  0  0  0
 13  9  1  0  0  0  0
 14  9  1  0  0  0  0
M  END
$$$$
