14
butane_opt
C  -3.985118   0.280727  -0.043085
C  -2.692790  -0.667121   0.101219
H  -4.807749  -0.333359  -0.220879
H  -3.935566   1.092684  -1.040715
H  -4.153544   0.944595   0.800108
C  -1.403523   0.174286   0.099378
H  -2.598760  -1.205191  -0.647398
H  -2.732421  -1.363033   1.082703
C  -0.147525  -0.654554  -0.046367
H  -1.234232   0.921801   1.036347
H  -1.325080   0.685873  -0.622092
H   0.037188  -1.334818   0.852393
H   0.695298  -0.149933  -0.255089
H  -0.217427  -1.327044  -0.904699
