14
butane_opt
C  -3.939448   0.267834   0.043111
C  -2.688319  -0.619279  -0.003690
H  -4.878324  -0.321644   0.194122
H  -4.052471   0.967656  -0.904890
H  -3.871146   0.896564   0.871410
C  -1.402753   0.174530   0.001206
H  -2.751778  -1.335911  -0.883764
H  -2.708123  -1.216908   0.870255
C  -0.164896  -0.692672   0.059720
H  -1.401400   0.836261   0.820315
H  -1.378603   0.863962  -0.931566
H  -0.230936  -1.281095   0.965235
H   0.766601  -0.084965   0.032811
H  -0.166153  -1.362612  -0.807595
