butane_opt
 OpenBabel08242015393D

 14 13  0  0  0  0  0  0  0  0999 V2000
   -3.9292    0.2533   -0.0674 C   0  0  0  0  0  0  0  0  0  0  0  0
   -2.7159   -0.6192    0.0598 C   0  0  0  0  0  0  0  0  0  0  0  0
   -4.8803   -0.4160    0.3953 H   0  0  0  0  0  0  0  0  0  0  0  0
   -4.1573    1.2029   -1.1300 H   0  0  0  0  0  0  0  0  0  0  0  0
   -3.8682    0.5466    0.5230 H   0  0  0  0  0  0  0  0  0  0  0  0
   -1.4257    0.2546    0.1399 C   0  0  0  0  0  0  0  0  0  0  0  0
   -2.7183   -1.2569   -0.7135 H   0  0  0  0  0  0  0  0  0  0  0  0
   -2.9621   -1.3702    1.0719 H   0  0  0  0  0  0  0  0  0  0  0  0
   -0.1071   -0.7270   -0.0599 C   0  0  0  0  0  0  0  0  0  0  0  0
   -1.2660    0.9923    1.1259 H   0  0  0  0  0  0  0  0  0  0  0  0
   -1.6263    0.7489   -0.6158 H   0  0  0  0  0  0  0  0  0  0  0  0
    0.1140   -1.2708    0.8109 H   0  0  0  0  0  0  0  0  0  0  0  0
    0.6699   -0.1691    0.0063 H   0  0  0  0  0  0  0  0  0  0  0  0
   -0.1850   -1.4186   -0.9214 H   0  0  0  0  0  0  0  0  0  0  0  0
  1  2  1  0  0  0  0
  1  3  1  0  0  0  0
  1  5  1  0  0  0  0
  2  6  1  0  0  0  0
  2  8  1  0  0  0  0
  4  1  1  0  0  0  0
  6 10  1  0  0  0  0
  7  2  1  0  0  0  0
  9 13  1  0  0  0  0
  9  6  1  0  0  0  0
  9 12  1  0  0  0  0
 11  6  1  0  0  0  0
 14  9  1  0  0  0  0
M  END
$$$$
