14
butane_opt
C  -3.907801   0.259721   0.137439
C  -2.667501  -0.607114  -0.106849
H  -4.781704  -0.311622   0.226038
H  -4.110623   1.012261  -0.851973
H  -3.764937   0.872190   1.003606
C  -1.436661   0.169963  -0.061569
H  -2.820697  -1.527569  -1.126182
H  -2.666559  -1.159232   0.735506
C  -0.206135  -0.671733   0.127978
H  -1.646864   0.722651   0.718572
H  -1.194172   0.926765  -0.982947
H  -0.076239  -1.497011   1.212567
H   0.760483  -0.068322  -0.046108
H  -0.128188  -1.217996  -0.628985
