butane_opt
 OpenBabel08242015393D

 14 13  0  0  0  0  0  0  0  0999 V2000
   -3.9649    0.2529   -0.1033 C   0  0  0  0  0  0  0  0  0  0  0  0
   -2.7189   -0.5874    0.1011 C   0  0  0  0  0  0  0  0  0  0  0  0
   -4.9698   -0.4370    0.3237 H   0  0  0  0  0  0  0  0  0  0  0  0
   -4.1142    1.0360   -1.1358 H   0  0  0  0  0  0  0  0  0  0  0  0
   -3.7753    0.6774    0.6348 H   0  0  0  0  0  0  0  0  0  0  0  0
   -1.4047    0.2137    0.1409 C   0  0  0  0  0  0  0  0  0  0  0  0
   -2.5910   -1.2427   -0.6812 H   0  0  0  0  0  0  0  0  0  0  0  0
   -2.8146   -1.3451    1.1381 H   0  0  0  0  0  0  0  0  0  0  0  0
   -0.1371   -0.7036   -0.0617 C   0  0  0  0  0  0  0  0  0  0  0  0
   -1.4232    1.0443    1.1974 H   0  0  0  0  0  0  0  0  0  0  0  0
   -1.4830    0.6566   -0.6431 H   0  0  0  0  0  0  0  0  0  0  0  0
    0.0958   -1.3219    0.8412 H   0  0  0  0  0  0  0  0  0  0  0  0
    0.8086   -0.1304   -0.2595 H   0  0  0  0  0  0  0  0  0  0  0  0
   -0.0660   -1.4952   -0.9474 H   0  0  0  0  0  0  0  0  0  0  0  0
  1  2  1  0  0  0  0
  1  3  1  0  0  0  0
  1  5  1  0  0  0  0
  2  6  1  0  0  0  0
  2  8  1  0  0  0  0
  4  1  1  0  0  0  0
  6 10  1  0  0  0  0
  7  2  1  0  0  0  0
  9  6  1  0  0  0  0
  9 12  1  0  0  0  0
 11  6  1  0  0  0  0
 13  9  1  0  0  0  0
 14  9  1  0  0  0  0
M  END
$$$$
