butane_opt
 OpenBabel08242015393D

 14 13  0  0  0  0  0  0  0  0999 V2000
   -3.9215    0.2885    0.1332 C   0  0  0  0  0  0  0  0  0  0  0  0
   -2.6802   -0.6486   -0.0873 C   0  0  0  0  0  0  0  0  0  0  0  0
   -4.7821   -0.2174    0.1119 H   0  0  0  0  0  0  0  0  0  0  0  0
   -4.1310    0.8801   -0.7035 H   0  0  0  0  0  0  0  0  0  0  0  0
   -3.8437    1.1522    1.0413 H   0  0  0  0  0  0  0  0  0  0  0  0
   -1.4091    0.1198   -0.0940 C   0  0  0  0  0  0  0  0  0  0  0  0
   -2.8144   -1.4177   -0.9615 H   0  0  0  0  0  0  0  0  0  0  0  0
   -2.6753   -1.1830    0.7489 H   0  0  0  0  0  0  0  0  0  0  0  0
   -0.1936   -0.6503    0.1383 C   0  0  0  0  0  0  0  0  0  0  0  0
   -1.2791    0.6934    0.6722 H   0  0  0  0  0  0  0  0  0  0  0  0
   -1.3465    0.9971   -1.1462 H   0  0  0  0  0  0  0  0  0  0  0  0
   -0.4072   -1.3737    1.1433 H   0  0  0  0  0  0  0  0  0  0  0  0
    0.7776   -0.0240    0.1993 H   0  0  0  0  0  0  0  0  0  0  0  0
   -0.0885   -1.2901   -0.7250 H   0  0  0  0  0  0  0  0  0  0  0  0
  1  5  1  0  0  0  0
  2  1  1  0  0  0  0
  2  8  1  0  0  0  0
  3  1  1  0  0  0  0
  4  1  1  0  0  0  0
  6  2  1  0  0  0  0
  6  9  1  0  0  0  0
  6 10  1  0  0  0  0
  7  2  1  0  0  0  0
  9 13  1  0  0  0  0
  9 12  1  0  0  0  0
 11  6  1  0  0  0  0
 14  9  1  0  0  0  0
M  END
$$$$
