14
butane_opt
C  -3.958143   0.244967   0.088304
C  -2.712570  -0.593585  -0.026350
H  -4.945093  -0.370937   0.120331
H  -4.005131   0.790200  -0.786372
H  -3.920542   0.875439   1.022108
C  -1.384986   0.253746  -0.083086
H  -2.923596  -1.320806  -0.915674
H  -2.685988  -1.314486   0.942950
C  -0.150806  -0.746335   0.092823
H  -1.416322   0.934494   0.664684
H  -1.320060   0.897414  -0.994316
H  -0.223252  -1.223189   0.945800
H   0.665616  -0.181401   0.322436
H   0.249497  -1.483760  -0.762050
