butane_opt
 OpenBabel08242015393D

 14 13  0  0  0  0  0  0  0  0999 V2000
   -3.8842    0.2133    0.1235 C   0  0  0  0  0  0  0  0  0  0  0  0
   -2.7411   -0.5717   -0.0379 C   0  0  0  0  0  0  0  0  0  0  0  0
   -4.7520   -0.2885    0.0095 H   0  0  0  0  0  0  0  0  0  0  0  0
   -3.9326    0.6636   -0.6461 H   0  0  0  0  0  0  0  0  0  0  0  0
   -3.7340    1.1691    1.1246 H   0  0  0  0  0  0  0  0  0  0  0  0
   -1.4329    0.2118   -0.1394 C   0  0  0  0  0  0  0  0  0  0  0  0
   -2.8333   -1.2580   -0.9646 H   0  0  0  0  0  0  0  0  0  0  0  0
   -2.7212   -1.1810    0.7794 H   0  0  0  0  0  0  0  0  0  0  0  0
   -0.1580   -0.7315    0.1589 C   0  0  0  0  0  0  0  0  0  0  0  0
   -1.6092    0.7752    0.5375 H   0  0  0  0  0  0  0  0  0  0  0  0
   -1.2825    1.0219   -1.1126 H   0  0  0  0  0  0  0  0  0  0  0  0
   -0.2618   -1.1709    0.9493 H   0  0  0  0  0  0  0  0  0  0  0  0
    0.6626   -0.2207    0.2132 H   0  0  0  0  0  0  0  0  0  0  0  0
    0.0475   -1.4690   -0.7125 H   0  0  0  0  0  0  0  0  0  0  0  0
  1  5  1  0  0  0  0
  2  1  1  0  0  0  0
  2  8  1  0  0  0  0
  3  1  1  0  0  0  0
  4  1  1  0  0  0  0
  6  2  1  0  0  0  0
  6  9  1  0  0  0  0
  6 10  1  0  0  0  0
  7  2  1  0  0  0  0
  9 13  1  0  0  0  0
  9 12  1  0  0  0  0
 11  6  1  0  0  0  0
 14  9  1  0  0  0  0
M  END
$$$$
