14
butane_opt
C  -3.923507   0.295479  -0.076347
C  -2.659000  -0.641021   0.118941
H  -4.806856  -0.251107   0.250746
H  -4.043313   1.121249  -1.152182
H  -3.879854   0.661616   0.569211
C  -1.410597   0.143011   0.114944
H  -2.695107  -1.252659  -0.723546
H  -2.671889  -1.363203   1.017487
C  -0.195454  -0.645924  -0.041211
H  -1.351484   0.814916   1.038415
H  -1.449888   0.640177  -0.687782
H  -0.079061  -1.022788   0.743991
H   0.580239  -0.125583   0.024738
H  -0.375697  -1.503473  -1.086676
