butane_opt
 OpenBabel08242015393D

 14 13  0  0  0  0  0  0  0  0999 V2000
   -3.9656    0.3173    0.1495 C   0  0  0  0  0  0  0  0  0  0  0  0
   -2.7031   -0.6794   -0.0547 C   0  0  0  0  0  0  0  0  0  0  0  0
   -4.8452   -0.2458   -0.0287 H   0  0  0  0  0  0  0  0  0  0  0  0
   -4.0643    0.8561   -0.7285 H   0  0  0  0  0  0  0  0  0  0  0  0
   -3.9287    1.0655    1.0715 H   0  0  0  0  0  0  0  0  0  0  0  0
   -1.3805    0.1460   -0.1389 C   0  0  0  0  0  0  0  0  0  0  0  0
   -2.8593   -1.4099   -0.9570 H   0  0  0  0  0  0  0  0  0  0  0  0
   -2.6780   -1.1258    0.7798 H   0  0  0  0  0  0  0  0  0  0  0  0
   -0.1419   -0.6623    0.1327 C   0  0  0  0  0  0  0  0  0  0  0  0
   -1.3549    0.5942    0.5900 H   0  0  0  0  0  0  0  0  0  0  0  0
   -1.3706    0.9073   -1.1078 H   0  0  0  0  0  0  0  0  0  0  0  0
   -0.4586   -1.1402    0.9553 H   0  0  0  0  0  0  0  0  0  0  0  0
    0.8060   -0.0644    0.4278 H   0  0  0  0  0  0  0  0  0  0  0  0
    0.0122   -1.3541   -0.6267 H   0  0  0  0  0  0  0  0  0  0  0  0
  1  5  1  0  0  0  0
  2  1  1  0  0  0  0
  2  8  1  0  0  0  0
  3  1  1  0  0  0  0
  4  1  1  0  0  0  0
  6  2  1  0  0  0  0
  6  9  1  0  0  0  0
  6 10  1  0  0  0  0
  7  2  1  0  0  0  0
  9 13  1  0  0  0  0
  9 12  1  0  0  0  0
 11  6  1  0  0  0  0
 14  9  1  0  0  0  0
M  END
$$$$
