butane_opt
 OpenBabel08242015393D

 14 13  0  0  0  0  0  0  0  0999 V2000
   -3.9329    0.2492   -0.0810 C   0  0  0  0  0  0  0  0  0  0  0  0
   -2.6898   -0.5810    0.1695 C   0  0  0  0  0  0  0  0  0  0  0  0
   -4.9171   -0.3664   -0.2251 H   0  0  0  0  0  0  0  0  0  0  0  0
   -3.7379    0.7488   -0.9485 H   0  0  0  0  0  0  0  0  0  0  0  0
   -4.1142    0.9124    0.6771 H   0  0  0  0  0  0  0  0  0  0  0  0
   -1.4223    0.1913    0.0954 C   0  0  0  0  0  0  0  0  0  0  0  0
   -2.5569   -1.1375   -0.6319 H   0  0  0  0  0  0  0  0  0  0  0  0
   -2.6134   -1.4516    1.2592 H   0  0  0  0  0  0  0  0  0  0  0  0
   -0.1776   -0.7044   -0.0648 C   0  0  0  0  0  0  0  0  0  0  0  0
   -1.3761    1.0835    1.0390 H   0  0  0  0  0  0  0  0  0  0  0  0
   -1.4245    0.6882   -0.7701 H   0  0  0  0  0  0  0  0  0  0  0  0
   -0.1526   -1.2135    0.7169 H   0  0  0  0  0  0  0  0  0  0  0  0
    0.7499   -0.0365   -0.1040 H   0  0  0  0  0  0  0  0  0  0  0  0
   -0.1958   -1.5817   -1.0260 H   0  0  0  0  0  0  0  0  0  0  0  0
  1  2  1  0  0  0  0
  1  5  1  0  0  0  0
  2  8  1  0  0  0  0
  3  1  1  0  0  0  0
  4  1  1  0  0  0  0
  6  2  1  0  0  0  0
  6 10  1  0  0  0  0
  7  2  1  0  0  0  0
  9  6  1  0  0  0  0
  9 12  1  0  0  0  0
 11  6  1  0  0  0  0
 13  9  1  0  0  0  0
 14  9  1  0  0  0  0
M  END
$$$$
