butane_opt
 OpenBabel08242015393D

 14 13  0  0  0  0  0  0  0  0999 V2000
   -3.9507    0.2576    0.0805 C   0  0  0  0  0  0  0  0  0  0  0  0
   -2.6964   -0.6061    0.0123 C   0  0  0  0  0  0  0  0  0  0  0  0
   -4.8970   -0.3919   -0.3074 H   0  0  0  0  0  0  0  0  0  0  0  0
   -3.8246    0.5395   -0.6223 H   0  0  0  0  0  0  0  0  0  0  0  0
   -4.0998    1.1125    1.1368 H   0  0  0  0  0  0  0  0  0  0  0  0
   -1.4256    0.2431   -0.0819 C   0  0  0  0  0  0  0  0  0  0  0  0
   -2.7766   -1.3456   -0.8625 H   0  0  0  0  0  0  0  0  0  0  0  0
   -2.8303   -1.4076    0.9490 H   0  0  0  0  0  0  0  0  0  0  0  0
   -0.1173   -0.7094    0.0712 C   0  0  0  0  0  0  0  0  0  0  0  0
   -1.3646    0.9130    0.7499 H   0  0  0  0  0  0  0  0  0  0  0  0
   -1.4426    0.8638   -0.9664 H   0  0  0  0  0  0  0  0  0  0  0  0
   -0.2706   -1.4451    1.0654 H   0  0  0  0  0  0  0  0  0  0  0  0
    0.6363   -0.2592    0.0371 H   0  0  0  0  0  0  0  0  0  0  0  0
    0.1401   -1.2822   -0.6872 H   0  0  0  0  0  0  0  0  0  0  0  0
  1  5  1  0  0  0  0
  2  1  1  0  0  0  0
  2  8  1  0  0  0  0
  3  1  1  0  0  0  0
  4  1  1  0  0  0  0
  6  2  1  0  0  0  0
  6  9  1  0  0  0  0
  6 10  1  0  0  0  0
  7  2  1  0  0  0  0
  9 12  1  0  0  0  0
 11  6  1  0  0  0  0
 13  9  1  0  0  0  0
 14  9  1  0  0  0  0
M  END
$$$$
