butane_opt
 OpenBabel08242015393D

 14 13  0  0  0  0  0  0  0  0999 V2000
   -3.8947    0.2542    0.0330 C   0  0  0  0  0  0  0  0  0  0  0  0
   -2.6969   -0.5698   -0.0401 C   0  0  0  0  0  0  0  0  0  0  0  0
   -4.8748   -0.5115    0.0693 H   0  0  0  0  0  0  0  0  0  0  0  0
   -3.8205    0.8301   -0.8486 H   0  0  0  0  0  0  0  0  0  0  0  0
   -3.8883    0.9796    0.9339 H   0  0  0  0  0  0  0  0  0  0  0  0
   -1.4425    0.1883    0.0526 C   0  0  0  0  0  0  0  0  0  0  0  0
   -2.8629   -1.2816   -0.8555 H   0  0  0  0  0  0  0  0  0  0  0  0
   -2.8410   -1.2661    0.9023 H   0  0  0  0  0  0  0  0  0  0  0  0
   -0.1641   -0.7261    0.0537 C   0  0  0  0  0  0  0  0  0  0  0  0
   -1.4780    0.9022    0.8806 H   0  0  0  0  0  0  0  0  0  0  0  0
   -1.4728    0.8647   -0.8602 H   0  0  0  0  0  0  0  0  0  0  0  0
    0.1477   -1.5483    1.1113 H   0  0  0  0  0  0  0  0  0  0  0  0
    0.8203   -0.0736   -0.4036 H   0  0  0  0  0  0  0  0  0  0  0  0
   -0.3848   -1.1091   -0.6385 H   0  0  0  0  0  0  0  0  0  0  0  0
  1  3  1  0  0  0  0
  1  5  1  0  0  0  0
  2  1  1  0  0  0  0
  2  6  1  0  0  0  0
  2  8  1  0  0  0  0
  4  1  1  0  0  0  0
  6  9  1  0  0  0  0
  6 10  1  0  0  0  0
  7  2  1  0  0  0  0
  9 12  1  0  0  0  0
 11  6  1  0  0  0  0
 13  9  1  0  0  0  0
 14  9  1  0  0  0  0
M  END
$$$$
