butane_opt
 OpenBabel08242015393D

 14 13  0  0  0  0  0  0  0  0999 V2000
   -3.9286    0.2379    0.0831 C   0  0  0  0  0  0  0  0  0  0  0  0
   -2.7090   -0.5461   -0.0243 C   0  0  0  0  0  0  0  0  0  0  0  0
   -4.9161   -0.4737    0.0514 H   0  0  0  0  0  0  0  0  0  0  0  0
   -3.8927    0.6229   -0.6630 H   0  0  0  0  0  0  0  0  0  0  0  0
   -3.6216    1.1649    1.1895 H   0  0  0  0  0  0  0  0  0  0  0  0
   -1.4373    0.2155   -0.0932 C   0  0  0  0  0  0  0  0  0  0  0  0
   -2.7377   -1.3453   -0.9756 H   0  0  0  0  0  0  0  0  0  0  0  0
   -2.7549   -1.2990    0.8501 H   0  0  0  0  0  0  0  0  0  0  0  0
   -0.1680   -0.7322    0.1010 C   0  0  0  0  0  0  0  0  0  0  0  0
   -1.4750    0.7392    0.6294 H   0  0  0  0  0  0  0  0  0  0  0  0
   -1.2109    0.9429   -1.0664 H   0  0  0  0  0  0  0  0  0  0  0  0
   -0.1971   -1.4016    1.1226 H   0  0  0  0  0  0  0  0  0  0  0  0
    0.7698   -0.1850    0.2824 H   0  0  0  0  0  0  0  0  0  0  0  0
   -0.0685   -1.3359   -0.7374 H   0  0  0  0  0  0  0  0  0  0  0  0
  1  5  1  0  0  0  0
  2  1  1  0  0  0  0
  2  8  1  0  0  0  0
  3  1  1  0  0  0  0
  4  1  1  0  0  0  0
  6  2  1  0  0  0  0
  6  9  1  0  0  0  0
  6 10  1  0  0  0  0
  7  2  1  0  0  0  0
  9 13  1  0  0  0  0
  9 12  1  0  0  0  0
 11  6  1  0  0  0  0
 14  9  1  0  0  0  0
M  END
$$$$
