14
butane_opt
C  -3.990829   0.280448  -0.010143
C  -2.683544  -0.625664   0.103426
H  -4.898659  -0.351410  -0.142690
H  -3.989653   0.954211  -0.947450
H  -4.252100   1.003200   0.811703
C  -1.378679   0.152743   0.030003
H  -2.589191  -1.406483  -0.787398
H  -2.656406  -1.287603   1.103198
C  -0.161409  -0.655120  -0.003722
H  -1.192788   0.784899   0.869952
H  -1.426221   0.777706  -0.821708
H  -0.215648  -1.188697   0.833514
H   0.815669  -0.036677   0.002388
H  -0.032728  -1.545516  -0.937441
