butane_opt
 OpenBabel08242015393D

 14 13  0  0  0  0  0  0  0  0999 V2000
   -3.8969    0.2851   -0.0801 C   0  0  0  0  0  0  0  0  0  0  0  0
   -2.6884   -0.6346    0.1124 C   0  0  0  0  0  0  0  0  0  0  0  0
   -4.7821   -0.2508   -0.1028 H   0  0  0  0  0  0  0  0  0  0  0  0
   -4.0250    0.9445   -1.0033 H   0  0  0  0  0  0  0  0  0  0  0  0
   -4.1687    0.9969    0.8046 H   0  0  0  0  0  0  0  0  0  0  0  0
   -1.3871    0.1548    0.1651 C   0  0  0  0  0  0  0  0  0  0  0  0
   -2.5174   -1.4039   -0.6862 H   0  0  0  0  0  0  0  0  0  0  0  0
   -2.8163   -1.2516    0.9993 H   0  0  0  0  0  0  0  0  0  0  0  0
   -0.2069   -0.6843   -0.0587 C   0  0  0  0  0  0  0  0  0  0  0  0
   -1.3879    0.7616    0.9693 H   0  0  0  0  0  0  0  0  0  0  0  0
   -1.3661    0.7863   -0.7360 H   0  0  0  0  0  0  0  0  0  0  0  0
   -0.0610   -1.3952    0.8936 H   0  0  0  0  0  0  0  0  0  0  0  0
    0.7675    0.0639   -0.4901 H   0  0  0  0  0  0  0  0  0  0  0  0
   -0.5025   -1.1540   -0.8657 H   0  0  0  0  0  0  0  0  0  0  0  0
  1  2  1  0  0  0  0
  1  5  1  0  0  0  0
  2  6  1  0  0  0  0
  2  8  1  0  0  0  0
  3  1  1  0  0  0  0
  4  1  1  0  0  0  0
  6 10  1  0  0  0  0
  7  2  1  0  0  0  0
  9  6  1  0  0  0  0
  9 12  1  0  0  0  0
 11  6  1  0  0  0  0
 13  9  1  0  0  0  0
 14  9  1  0  0  0  0
M  END
$$$$
