14
butane_opt
C  -3.943505   0.255296   0.029670
C  -2.702562  -0.600826   0.015517
H  -4.893567  -0.370189   0.012645
H  -3.969215   0.805692  -0.801274
H  -3.910636   0.985626   0.913827
C  -1.407203   0.185309   0.003406
H  -2.702594  -1.302872  -0.851603
H  -2.732522  -1.184463   0.873843
C  -0.156532  -0.699021   0.051412
H  -1.403400   0.855942   0.869788
H  -1.430325   0.841815  -0.905452
H  -0.024762  -1.434897   1.003360
H   0.726735  -0.131208  -0.112263
H  -0.167020  -1.231608  -0.738959
