butane_opt
 OpenBabel08242015393D

 14 13  0  0  0  0  0  0  0  0999 V2000
   -3.9695    0.2826    0.0531 C   0  0  0  0  0  0  0  0  0  0  0  0
   -2.7157   -0.6507    0.0172 C   0  0  0  0  0  0  0  0  0  0  0  0
   -4.8797   -0.2523   -0.1733 H   0  0  0  0  0  0  0  0  0  0  0  0
   -3.9924    0.6030   -0.6395 H   0  0  0  0  0  0  0  0  0  0  0  0
   -3.9876    1.2617    1.1000 H   0  0  0  0  0  0  0  0  0  0  0  0
   -1.3889    0.1810   -0.0517 C   0  0  0  0  0  0  0  0  0  0  0  0
   -2.7749   -1.3689   -0.8662 H   0  0  0  0  0  0  0  0  0  0  0  0
   -2.7962   -1.2235    0.9102 H   0  0  0  0  0  0  0  0  0  0  0  0
   -0.1381   -0.6627    0.0874 C   0  0  0  0  0  0  0  0  0  0  0  0
   -1.3500    0.7798    0.6745 H   0  0  0  0  0  0  0  0  0  0  0  0
   -1.1871    0.9554   -1.0490 H   0  0  0  0  0  0  0  0  0  0  0  0
   -0.0340   -1.5173    1.1104 H   0  0  0  0  0  0  0  0  0  0  0  0
    0.6577   -0.1820    0.0150 H   0  0  0  0  0  0  0  0  0  0  0  0
   -0.1439   -1.3576   -0.8687 H   0  0  0  0  0  0  0  0  0  0  0  0
  1  5  1  0  0  0  0
  2  1  1  0  0  0  0
  2  8  1  0  0  0  0
  3  1  1  0  0  0  0
  4  1  1  0  0  0  0
  6  2  1  0  0  0  0
  6  9  1  0  0  0  0
  6 10  1  0  0  0  0
  7  2  1  0  0  0  0
  9 12  1  0  0  0  0
 11  6  1  0  0  0  0
 13  9  1  0  0  0  0
 14  9  1  0  0  0  0
M  END
$$$$
