14
butane_opt
C  -3.876450   0.236561   0.043023
C  -2.677174  -0.564355   0.031438
H  -4.884679  -0.534098  -0.204532
H  -3.739454   0.574297  -0.714606
H  -4.094351   1.127569   1.018365
C  -1.461124   0.209910  -0.007812
H  -2.723484  -1.261251  -0.857219
H  -2.853495  -1.266677   0.959542
C  -0.168563  -0.708091   0.048065
H  -1.522809   0.793269   0.815053
H  -1.403894   0.944313  -1.057656
H   0.002557  -1.427348   0.955458
H   0.584631  -0.223415  -0.072577
H  -0.168253  -1.305844  -0.724879
