butane_opt
 OpenBabel08242015393D

 14 12  0  0  0  0  0  0  0  0999 V2000
   -3.9019    0.2929    0.0111 C   0  0  0  0  0  0  0  0  0  0  0  0
   -2.7043   -0.6725    0.0450 C   0  0  0  0  0  0  0  0  0  0  0  0
   -4.8683   -0.2484    0.3195 H   0  0  0  0  0  0  0  0  0  0  0  0
   -4.0781    1.2956   -1.2218 H   0  0  0  0  0  0  0  0  0  0  0  0
   -4.0682    0.6260    0.5874 H   0  0  0  0  0  0  0  0  0  0  0  0
   -1.3877    0.1664    0.0578 C   0  0  0  0  0  0  0  0  0  0  0  0
   -2.7961   -1.2506   -0.7508 H   0  0  0  0  0  0  0  0  0  0  0  0
   -2.7057   -1.2383    0.8805 H   0  0  0  0  0  0  0  0  0  0  0  0
   -0.1805   -0.6818   -0.0052 C   0  0  0  0  0  0  0  0  0  0  0  0
   -1.3442    0.9431    0.9750 H   0  0  0  0  0  0  0  0  0  0  0  0
   -1.4765    0.7828   -0.7187 H   0  0  0  0  0  0  0  0  0  0  0  0
   -0.1635   -1.1359    0.7834 H   0  0  0  0  0  0  0  0  0  0  0  0
    0.7930   -0.0226    0.2274 H   0  0  0  0  0  0  0  0  0  0  0  0
   -0.2215   -1.4887   -0.9871 H   0  0  0  0  0  0  0  0  0  0  0  0
  1  2  1  0  0  0  0
  1  3  1  0  0  0  0
  1  5  1  0  0  0  0
  2  6  1  0  0  0  0
  2  8  1  0  0  0  0
  6 10  1  0  0  0  0
  7  2  1  0  0  0  0
  9  6  1  0  0  0  0
  9 13  1  0  0  0  0
  9 12  1  0  0  0  0
 11  6  1  0  0  0  0
 14  9  1  0  0  0  0
M  RAD  2   1   2   4   2
M  END
$$$$
