butane_opt
 OpenBabel08242015393D

 14 12  0  0  0  0  0  0  0  0999 V2000
   -3.9926    0.2984    0.1125 C   0  0  0  0  0  0  0  0  0  0  0  0
   -2.6982   -0.6393   -0.0730 C   0  0  0  0  0  0  0  0  0  0  0  0
   -4.8991   -0.3466   -0.0124 H   0  0  0  0  0  0  0  0  0  0  0  0
   -4.0207    0.7670   -0.7685 H   0  0  0  0  0  0  0  0  0  0  0  0
   -3.7871    0.9736    1.0191 H   0  0  0  0  0  0  0  0  0  0  0  0
   -1.3849    0.1808   -0.0529 C   0  0  0  0  0  0  0  0  0  0  0  0
   -2.7229   -1.3822   -0.9848 H   0  0  0  0  0  0  0  0  0  0  0  0
   -2.7779   -1.0987    0.6895 H   0  0  0  0  0  0  0  0  0  0  0  0
   -0.1477   -0.6784    0.0916 C   0  0  0  0  0  0  0  0  0  0  0  0
   -1.3040    0.8567    0.8499 H   0  0  0  0  0  0  0  0  0  0  0  0
   -1.3253    0.7259   -0.8150 H   0  0  0  0  0  0  0  0  0  0  0  0
   -0.1483   -1.8207    1.3560 H   0  0  0  0  0  0  0  0  0  0  0  0
    0.7467   -0.0774   -0.2835 H   0  0  0  0  0  0  0  0  0  0  0  0
   -0.1270   -0.9915   -0.5021 H   0  0  0  0  0  0  0  0  0  0  0  0
  1  5  1  0  0  0  0
  2  6  1  0  0  0  0
  2  1  1  0  0  0  0
  2  8  1  0  0  0  0
  3  1  1  0  0  0  0
  4  1  1  0  0  0  0
  6  9  1  0  0  0  0
  6 10  1  0  0  0  0
  7  2  1  0  0  0  0
 11  6  1  0  0  0  0
 13  9  1  0  0  0  0
 14  9  1  0  0  0  0
M  RAD  2   9   2  12   2
M  END
$$$$
