butane_opt
 OpenBabel08242015393D

 14 13  0  0  0  0  0  0  0  0999 V2000
   -3.9457    0.2629    0.0046 C   0  0  0  0  0  0  0  0  0  0  0  0
   -2.7038   -0.6208    0.0482 C   0  0  0  0  0  0  0  0  0  0  0  0
   -4.8918   -0.3533    0.0556 H   0  0  0  0  0  0  0  0  0  0  0  0
   -3.9973    0.9214   -0.9238 H   0  0  0  0  0  0  0  0  0  0  0  0
   -3.9821    0.8974    0.8405 H   0  0  0  0  0  0  0  0  0  0  0  0
   -1.4033    0.1999    0.0162 C   0  0  0  0  0  0  0  0  0  0  0  0
   -2.6960   -1.2311   -0.7369 H   0  0  0  0  0  0  0  0  0  0  0  0
   -2.6956   -1.3322    1.0174 H   0  0  0  0  0  0  0  0  0  0  0  0
   -0.1554   -0.6936    0.0232 C   0  0  0  0  0  0  0  0  0  0  0  0
   -1.3765    0.8798    0.8639 H   0  0  0  0  0  0  0  0  0  0  0  0
   -1.4023    0.8017   -0.8269 H   0  0  0  0  0  0  0  0  0  0  0  0
   -0.1340   -1.1919    0.8515 H   0  0  0  0  0  0  0  0  0  0  0  0
    0.7438   -0.1447    0.0885 H   0  0  0  0  0  0  0  0  0  0  0  0
   -0.0847   -1.5079   -0.9196 H   0  0  0  0  0  0  0  0  0  0  0  0
  1  2  1  0  0  0  0
  1  3  1  0  0  0  0
  1  5  1  0  0  0  0
  2  8  1  0  0  0  0
  4  1  1  0  0  0  0
  6  9  1  0  0  0  0
  6  2  1  0  0  0  0
  6 10  1  0  0  0  0
  7  2  1  0  0  0  0
  9 13  1  0  0  0  0
  9 12  1  0  0  0  0
 11  6  1  0  0  0  0
 14  9  1  0  0  0  0
M  END
$$$$
