14
butane_opt
C  -3.941573   0.221899   0.078246
C  -2.689387  -0.570084  -0.051907
H  -4.857586  -0.397881   0.326284
H  -4.110958   0.999939  -0.915096
H  -3.736428   0.891246   0.888193
C  -1.412891   0.192178  -0.047214
H  -2.739413  -1.169640  -0.876817
H  -2.767169  -1.301428   0.891648
C  -0.138800  -0.708679   0.087314
H  -1.674578   0.929184   0.913041
H  -1.386852   0.823104  -0.961231
H  -0.196157  -1.318385   0.948567
H   0.823189  -0.115080   0.214866
H  -0.176859  -1.428843  -0.798462
