butane_opt
 OpenBabel08242015393D

 14 13  0  0  0  0  0  0  0  0999 V2000
   -3.9202    0.2332    0.0935 C   0  0  0  0  0  0  0  0  0  0  0  0
   -2.7370   -0.5675   -0.0412 C   0  0  0  0  0  0  0  0  0  0  0  0
   -4.9006   -0.3876    0.3177 H   0  0  0  0  0  0  0  0  0  0  0  0
   -4.1043    1.1507   -0.9828 H   0  0  0  0  0  0  0  0  0  0  0  0
   -3.9244    0.7502    0.7614 H   0  0  0  0  0  0  0  0  0  0  0  0
   -1.4372    0.2037   -0.0151 C   0  0  0  0  0  0  0  0  0  0  0  0
   -2.9294   -1.4913   -1.1148 H   0  0  0  0  0  0  0  0  0  0  0  0
   -2.6724   -1.1467    0.7097 H   0  0  0  0  0  0  0  0  0  0  0  0
   -0.1048   -0.7136    0.0812 C   0  0  0  0  0  0  0  0  0  0  0  0
   -1.3304    0.8239    0.8049 H   0  0  0  0  0  0  0  0  0  0  0  0
   -1.3705    0.8473   -0.9197 H   0  0  0  0  0  0  0  0  0  0  0  0
   -0.0559   -1.4355    1.0625 H   0  0  0  0  0  0  0  0  0  0  0  0
    0.7889   -0.1525    0.0714 H   0  0  0  0  0  0  0  0  0  0  0  0
   -0.1126   -1.2942   -0.6921 H   0  0  0  0  0  0  0  0  0  0  0  0
  1  3  1  0  0  0  0
  1  5  1  0  0  0  0
  2  6  1  0  0  0  0
  2  1  1  0  0  0  0
  2  8  1  0  0  0  0
  4  1  1  0  0  0  0
  6  9  1  0  0  0  0
  6 10  1  0  0  0  0
  7  2  1  0  0  0  0
  9 12  1  0  0  0  0
 11  6  1  0  0  0  0
 13  9  1  0  0  0  0
 14  9  1  0  0  0  0
M  END
$$$$
