14
butane_opt
C  -3.946393   0.295885   0.102935
C  -2.683971  -0.678973  -0.088568
H  -4.861777  -0.236939   0.144766
H  -3.931741   0.898371  -0.686178
H  -4.031784   1.012872   0.970873
C  -1.406854   0.160794  -0.037294
H  -2.668214  -1.402611  -0.958094
H  -2.462750  -1.189416   0.649571
C  -0.209303  -0.652741   0.105954
H  -1.309335   0.839818   0.813265
H  -1.412591   0.760064  -0.939097
H  -0.042320  -1.635779   1.229045
H   0.745121   0.016738  -0.240013
H  -0.129726  -1.013231  -0.486660
