14
butane_opt
C  -3.956641   0.255989  -0.054083
C  -2.730179  -0.595861   0.115502
H  -4.938519  -0.353988  -0.099809
H  -3.950804   0.972590  -0.997596
H  -4.072077   0.646895   0.532428
C  -1.420849   0.202891   0.151340
H  -2.726667  -1.389028  -0.841713
H  -2.849375  -1.159766   1.006401
C  -0.080843  -0.715512  -0.056828
H  -1.217129   1.021562   1.028493
H  -1.684151   0.858880  -0.724916
H   0.065177  -1.478903   0.906565
H   0.851233  -0.120035  -0.353934
H  -0.234443  -1.256889  -0.883061
