14
butane_opt
C  -3.931988   0.266295  -0.032344
C  -2.711855  -0.644263   0.051208
H  -4.891023  -0.317749  -0.081070
H  -4.092848   0.988998  -0.966534
H  -3.962843   0.983501   0.793491
C  -1.401027   0.203496   0.089473
H  -2.778044  -1.271321  -0.681855
H  -2.931208  -1.296732   0.992119
C  -0.128213  -0.704151   0.001208
H  -1.379063   1.065561   1.053833
H  -1.428202   0.650291  -0.664747
H   0.176503  -1.498401   0.980169
H   0.745139  -0.172292  -0.487669
H  -0.398618  -1.059833  -0.804295
