butane_opt
 OpenBabel08242015393D

 14 10  0  0  0  0  0  0  0  0999 V2000
   -3.9453    0.2331    0.0974 C   0  0  0  0  0  0  0  0  0  0  0  0
   -2.6911   -0.6176   -0.0398 C   0  0  0  0  0  0  0  0  0  0  0  0
   -4.8369   -0.3889   -0.2258 H   0  0  0  0  0  0  0  0  0  0  0  0
   -4.0217    0.6221   -0.5851 H   0  0  0  0  0  0  0  0  0  0  0  0
   -4.0879    1.3529    1.2085 H   0  0  0  0  0  0  0  0  0  0  0  0
   -1.4066    0.2079   -0.0803 C   0  0  0  0  0  0  0  0  0  0  0  0
   -2.6999   -1.2779   -0.9820 H   0  0  0  0  0  0  0  0  0  0  0  0
   -2.5699   -1.1626    0.7844 H   0  0  0  0  0  0  0  0  0  0  0  0
   -0.1625   -0.6984    0.0895 C   0  0  0  0  0  0  0  0  0  0  0  0
   -1.4317    0.8626    0.7609 H   0  0  0  0  0  0  0  0  0  0  0  0
   -1.3032    0.8188   -0.9499 H   0  0  0  0  0  0  0  0  0  0  0  0
   -0.0476   -1.7382    1.3227 H   0  0  0  0  0  0  0  0  0  0  0  0
    0.6446   -0.1390   -0.1517 H   0  0  0  0  0  0  0  0  0  0  0  0
   -0.1638   -0.9505   -0.4642 H   0  0  0  0  0  0  0  0  0  0  0  0
  2  1  1  0  0  0  0
  2  8  1  0  0  0  0
  3  1  1  0  0  0  0
  4  1  1  0  0  0  0
  6  2  1  0  0  0  0
  6  9  1  0  0  0  0
  6 10  1  0  0  0  0
  7  2  1  0  0  0  0
 11  6  1  0  0  0  0
 13  9  1  0  0  0  0
M  RAD  5   1   2   5   2   9   3  12   2  14   2
M  END
$$$$
