14
butane_opt
C  -3.921662   0.250624  -0.021482
C  -2.705851  -0.599056   0.061237
H  -4.887449  -0.352834   0.085941
H  -3.777616   0.981532  -1.076294
H  -3.860494   0.810330   0.804090
C  -1.423673   0.223701   0.100807
H  -2.824787  -1.311827  -0.857325
H  -2.855526  -1.248577   1.028171
C  -0.153074  -0.721483  -0.013304
H  -1.492033   0.892002   0.911868
H  -1.350144   0.823453  -0.829599
H   0.087566  -1.431660   0.914998
H   0.715748  -0.117581  -0.125162
H  -0.335839  -1.356326  -0.942822
