butane_opt
 OpenBabel08242015393D

 14 11  0  0  0  0  0  0  0  0999 V2000
   -3.9826    0.2882   -0.0655 C   0  0  0  0  0  0  0  0  0  0  0  0
   -2.7036   -0.6556    0.0892 C   0  0  0  0  0  0  0  0  0  0  0  0
   -4.7616   -0.1413    0.4871 H   0  0  0  0  0  0  0  0  0  0  0  0
   -4.0702    1.3209   -1.2570 H   0  0  0  0  0  0  0  0  0  0  0  0
   -3.9859    0.5154    0.4694 H   0  0  0  0  0  0  0  0  0  0  0  0
   -1.3790    0.1507    0.1486 C   0  0  0  0  0  0  0  0  0  0  0  0
   -2.6684   -1.3873   -0.7554 H   0  0  0  0  0  0  0  0  0  0  0  0
   -2.6917   -1.2096    0.9847 H   0  0  0  0  0  0  0  0  0  0  0  0
   -0.1743   -0.6672   -0.0503 C   0  0  0  0  0  0  0  0  0  0  0  0
   -1.1135    0.9608    1.0347 H   0  0  0  0  0  0  0  0  0  0  0  0
   -1.3052    0.7950   -0.7151 H   0  0  0  0  0  0  0  0  0  0  0  0
   -0.0828   -1.1219    0.7131 H   0  0  0  0  0  0  0  0  0  0  0  0
    0.7164   -0.1434    0.0490 H   0  0  0  0  0  0  0  0  0  0  0  0
   -0.1953   -1.4483   -1.0792 H   0  0  0  0  0  0  0  0  0  0  0  0
  1  2  1  0  0  0  0
  1  3  1  0  0  0  0
  2  6  1  0  0  0  0
  2  8  1  0  0  0  0
  6 10  1  0  0  0  0
  7  2  1  0  0  0  0
  9 13  1  0  0  0  0
  9  6  1  0  0  0  0
  9 12  1  0  0  0  0
 11  6  1  0  0  0  0
 14  9  1  0  0  0  0
M  RAD  3   1   3   4   2   5   2
M  END
$$$$
