butane_opt
 OpenBabel08242015393D

 14 11  0  0  0  0  0  0  0  0999 V2000
   -4.0018    0.2907   -0.0072 C   0  0  0  0  0  0  0  0  0  0  0  0
   -2.6754   -0.6755    0.0601 C   0  0  0  0  0  0  0  0  0  0  0  0
   -4.8214   -0.2579    0.1730 H   0  0  0  0  0  0  0  0  0  0  0  0
   -4.1968    1.0164   -0.9271 H   0  0  0  0  0  0  0  0  0  0  0  0
   -4.0046    0.9116    0.8999 H   0  0  0  0  0  0  0  0  0  0  0  0
   -1.3834    0.1654   -0.0336 C   0  0  0  0  0  0  0  0  0  0  0  0
   -2.6318   -1.0981   -0.5726 H   0  0  0  0  0  0  0  0  0  0  0  0
   -2.6896   -1.4162    1.0319 H   0  0  0  0  0  0  0  0  0  0  0  0
   -0.1690   -0.6626    0.0511 C   0  0  0  0  0  0  0  0  0  0  0  0
   -1.2233    0.8447    0.8495 H   0  0  0  0  0  0  0  0  0  0  0  0
   -1.2821    0.8098   -0.8277 H   0  0  0  0  0  0  0  0  0  0  0  0
   -0.2639   -0.8910    0.6113 H   0  0  0  0  0  0  0  0  0  0  0  0
    0.7639   -0.0018    0.3799 H   0  0  0  0  0  0  0  0  0  0  0  0
    0.0749   -1.8085   -1.0862 H   0  0  0  0  0  0  0  0  0  0  0  0
  1  2  1  0  0  0  0
  1  3  1  0  0  0  0
  1  5  1  0  0  0  0
  2  8  1  0  0  0  0
  4  1  1  0  0  0  0
  6  9  1  0  0  0  0
  6  2  1  0  0  0  0
  6 10  1  0  0  0  0
  7  2  1  0  0  0  0
  9 13  1  0  0  0  0
 11  6  1  0  0  0  0
M  RAD  3   9   3  12   2  14   2
M  END
$$$$
