14
butane_opt
C  -3.971070   0.298222   0.068318
C  -2.683528  -0.642451   0.041570
H  -4.740711  -0.240982  -0.095506
H  -3.935604   0.906357  -0.789151
H  -3.895546   1.002796   0.968310
C  -1.410055   0.135980  -0.071491
H  -2.872796  -1.458109  -0.968637
H  -2.536053  -1.187739   0.839206
C  -0.156336  -0.669091   0.082901
H  -1.434214   0.686634   0.637622
H  -1.357580   0.809090  -0.950010
H  -0.389055  -1.143778   0.883113
H   0.872704   0.050302   0.251705
H  -0.110924  -1.336740  -0.816309
