14
butane_opt
C  -3.972475   0.227488  -0.100103
C  -2.707787  -0.585986   0.183140
H  -5.015355  -0.410304  -0.350093
H  -3.839003   0.693771  -0.873263
H  -4.183521   1.091308   0.866335
C  -1.381892   0.232734   0.091950
H  -2.678172  -1.090830  -0.556160
H  -2.811008  -1.387353   1.219639
C  -0.124021  -0.713246  -0.065097
H  -1.477318   0.986850   0.895152
H  -1.451048   0.725534  -0.678981
H   0.055299  -1.246000   0.830720
H   0.723575  -0.236461  -0.189408
H  -0.084132  -1.571469  -1.060779
