butane_opt
 OpenBabel08242015393D

 14 13  0  0  0  0  0  0  0  0999 V2000
   -3.9078    0.2439   -0.0538 C   0  0  0  0  0  0  0  0  0  0  0  0
   -2.7053   -0.5741    0.1542 C   0  0  0  0  0  0  0  0  0  0  0  0
   -4.9095   -0.4938   -0.1885 H   0  0  0  0  0  0  0  0  0  0  0  0
   -3.7042    0.9084   -1.0898 H   0  0  0  0  0  0  0  0  0  0  0  0
   -4.0686    0.8404    0.7356 H   0  0  0  0  0  0  0  0  0  0  0  0
   -1.4376    0.1841    0.0747 C   0  0  0  0  0  0  0  0  0  0  0  0
   -2.7775   -1.0917   -0.6609 H   0  0  0  0  0  0  0  0  0  0  0  0
   -2.7450   -1.1585    0.9824 H   0  0  0  0  0  0  0  0  0  0  0  0
   -0.1548   -0.7111   -0.0366 C   0  0  0  0  0  0  0  0  0  0  0  0
   -1.2324    0.9724    0.9880 H   0  0  0  0  0  0  0  0  0  0  0  0
   -1.5364    0.7474   -0.6965 H   0  0  0  0  0  0  0  0  0  0  0  0
    0.0455   -1.2567    0.8135 H   0  0  0  0  0  0  0  0  0  0  0  0
    0.7125   -0.1948   -0.0545 H   0  0  0  0  0  0  0  0  0  0  0  0
   -0.3205   -1.4953   -1.0522 H   0  0  0  0  0  0  0  0  0  0  0  0
  1  2  1  0  0  0  0
  1  5  1  0  0  0  0
  2  8  1  0  0  0  0
  3  1  1  0  0  0  0
  4  1  1  0  0  0  0
  6  2  1  0  0  0  0
  6 10  1  0  0  0  0
  7  2  1  0  0  0  0
  9  6  1  0  0  0  0
  9 12  1  0  0  0  0
 11  6  1  0  0  0  0
 13  9  1  0  0  0  0
 14  9  1  0  0  0  0
M  END
$$$$
