14
butane_opt
C  -3.915691   0.235354   0.124104
C  -2.722981  -0.610087  -0.100879
H  -4.837313  -0.347175   0.415187
H  -4.112453   1.054797  -0.868620
H  -3.888937   0.769521   0.912396
C  -1.419342   0.248790  -0.060026
H  -2.940952  -1.343459  -1.106265
H  -2.624312  -1.137916   0.672171
C  -0.138269  -0.741185   0.142902
H  -1.430626   0.855955   0.761203
H  -1.296305   0.900357  -1.019246
H  -0.172827  -1.371067   0.938471
H   0.735091  -0.201402   0.032837
H  -0.062165  -1.243702  -0.577061
