butane_opt
 OpenBabel08242015393D

 14 13  0  0  0  0  0  0  0  0999 V2000
   -3.9299    0.2898    0.0702 C   0  0  0  0  0  0  0  0  0  0  0  0
   -2.6492   -0.6525   -0.0588 C   0  0  0  0  0  0  0  0  0  0  0  0
   -4.9014   -0.3396    0.5111 H   0  0  0  0  0  0  0  0  0  0  0  0
   -4.3065    1.1560   -0.9608 H   0  0  0  0  0  0  0  0  0  0  0  0
   -3.7641    0.8197    0.8645 H   0  0  0  0  0  0  0  0  0  0  0  0
   -1.4221    0.1600   -0.0133 C   0  0  0  0  0  0  0  0  0  0  0  0
   -2.5478   -1.5229   -1.0011 H   0  0  0  0  0  0  0  0  0  0  0  0
   -2.6652   -1.0907    0.6971 H   0  0  0  0  0  0  0  0  0  0  0  0
   -0.2092   -0.6599    0.1008 C   0  0  0  0  0  0  0  0  0  0  0  0
   -1.4101    0.6706    0.7876 H   0  0  0  0  0  0  0  0  0  0  0  0
   -1.2199    0.8260   -0.9245 H   0  0  0  0  0  0  0  0  0  0  0  0
   -0.2739   -1.2563    1.0353 H   0  0  0  0  0  0  0  0  0  0  0  0
    0.7980   -0.0549   -0.0725 H   0  0  0  0  0  0  0  0  0  0  0  0
   -0.1980   -1.3056   -0.7099 H   0  0  0  0  0  0  0  0  0  0  0  0
  1  3  1  0  0  0  0
  1  5  1  0  0  0  0
  2  6  1  0  0  0  0
  2  1  1  0  0  0  0
  2  8  1  0  0  0  0
  4  1  1  0  0  0  0
  6  9  1  0  0  0  0
  6 10  1  0  0  0  0
  7  2  1  0  0  0  0
  9 12  1  0  0  0  0
 11  6  1  0  0  0  0
 13  9  1  0  0  0  0
 14  9  1  0  0  0  0
M  END
$$$$
