butane_opt
 OpenBabel08242015393D

 14 12  0  0  0  0  0  0  0  0999 V2000
   -3.9186    0.2753   -0.0486 C   0  0  0  0  0  0  0  0  0  0  0  0
   -2.6907   -0.6127    0.1413 C   0  0  0  0  0  0  0  0  0  0  0  0
   -4.7737   -0.2807    0.0921 H   0  0  0  0  0  0  0  0  0  0  0  0
   -3.9176    1.2107   -1.2882 H   0  0  0  0  0  0  0  0  0  0  0  0
   -4.1322    0.6918    0.5948 H   0  0  0  0  0  0  0  0  0  0  0  0
   -1.3974    0.1624    0.0882 C   0  0  0  0  0  0  0  0  0  0  0  0
   -2.6753   -1.3873   -0.7280 H   0  0  0  0  0  0  0  0  0  0  0  0
   -2.6888   -1.2961    1.0791 H   0  0  0  0  0  0  0  0  0  0  0  0
   -0.1826   -0.6741   -0.0429 C   0  0  0  0  0  0  0  0  0  0  0  0
   -1.2530    0.9003    1.0300 H   0  0  0  0  0  0  0  0  0  0  0  0
   -1.4803    0.6125   -0.7271 H   0  0  0  0  0  0  0  0  0  0  0  0
   -0.1935   -1.0566    0.6990 H   0  0  0  0  0  0  0  0  0  0  0  0
    0.7564   -0.0392    0.0848 H   0  0  0  0  0  0  0  0  0  0  0  0
   -0.3812   -1.6109   -1.0968 H   0  0  0  0  0  0  0  0  0  0  0  0
  1  3  1  0  0  0  0
  1  2  1  0  0  0  0
  1  5  1  0  0  0  0
  2  8  1  0  0  0  0
  6  2  1  0  0  0  0
  6 10  1  0  0  0  0
  7  2  1  0  0  0  0
  9 13  1  0  0  0  0
  9  6  1  0  0  0  0
  9 12  1  0  0  0  0
 11  6  1  0  0  0  0
 14  9  1  0  0  0  0
M  RAD  2   1   2   4   2
M  END
$$$$
