14
butane_opt
C  -3.916566   0.244734   0.070288
C  -2.723529  -0.569440  -0.068412
H  -4.869829  -0.489542   0.129984
H  -4.018330   0.568410  -0.670354
H  -3.598617   1.058304   1.022622
C  -1.429824   0.221781  -0.026937
H  -2.684041  -1.360755  -0.972545
H  -2.702769  -1.117531   0.762114
C  -0.178745  -0.742717   0.110707
H  -1.499255   0.971777   0.822426
H  -1.288854   0.935896  -0.930924
H   0.003794  -1.725140   1.220452
H   0.747666  -0.159187  -0.443802
H  -0.128605  -1.009306  -0.484547
