butane_opt
 OpenBabel08242015393D

 14 13  0  0  0  0  0  0  0  0999 V2000
   -3.8920    0.2377   -0.0366 C   0  0  0  0  0  0  0  0  0  0  0  0
   -2.6880   -0.5881    0.0400 C   0  0  0  0  0  0  0  0  0  0  0  0
   -4.9302   -0.5452    0.5044 H   0  0  0  0  0  0  0  0  0  0  0  0
   -3.9506    1.1803   -1.1402 H   0  0  0  0  0  0  0  0  0  0  0  0
   -3.6868    0.5956    0.5873 H   0  0  0  0  0  0  0  0  0  0  0  0
   -1.4569    0.2484    0.0940 C   0  0  0  0  0  0  0  0  0  0  0  0
   -2.7108   -1.0969   -0.7601 H   0  0  0  0  0  0  0  0  0  0  0  0
   -2.7614   -1.3205    1.0307 H   0  0  0  0  0  0  0  0  0  0  0  0
   -0.1650   -0.7167   -0.0174 C   0  0  0  0  0  0  0  0  0  0  0  0
   -1.5563    1.0108    0.9907 H   0  0  0  0  0  0  0  0  0  0  0  0
   -1.3293    0.5901   -0.6340 H   0  0  0  0  0  0  0  0  0  0  0  0
   -0.0809   -1.2656    0.8021 H   0  0  0  0  0  0  0  0  0  0  0  0
    0.6474   -0.2651    0.0182 H   0  0  0  0  0  0  0  0  0  0  0  0
   -0.2146   -1.5435   -0.9695 H   0  0  0  0  0  0  0  0  0  0  0  0
  1  2  1  0  0  0  0
  1  3  1  0  0  0  0
  1  5  1  0  0  0  0
  2  6  1  0  0  0  0
  2  8  1  0  0  0  0
  4  1  1  0  0  0  0
  6 10  1  0  0  0  0
  7  2  1  0  0  0  0
  9 13  1  0  0  0  0
  9  6  1  0  0  0  0
  9 12  1  0  0  0  0
 11  6  1  0  0  0  0
 14  9  1  0  0  0  0
M  END
$$$$
