14
butane_opt
C  -3.954541   0.234805  -0.063767
C  -2.747596  -0.569248   0.110791
H  -4.846720  -0.385990   0.043676
H  -3.884873   0.932910  -1.120689
H  -4.080084   0.831083   0.741801
C  -1.410992   0.203394   0.116229
H  -2.592703  -1.206146  -0.706142
H  -2.968154  -1.312206   1.103104
C  -0.079445  -0.705333  -0.069331
H  -1.380141   1.000983   1.029691
H  -1.602755   0.641780  -0.525849
H  -0.011133  -1.436259   0.912407
H   0.771214  -0.208446  -0.218148
H  -0.104285  -1.287416  -0.930223
