butane_opt
 OpenBabel08242015393D

 14 13  0  0  0  0  0  0  0  0999 V2000
   -3.8771    0.2518    0.0708 C   0  0  0  0  0  0  0  0  0  0  0  0
   -2.7018   -0.5935   -0.0340 C   0  0  0  0  0  0  0  0  0  0  0  0
   -4.8406   -0.4668   -0.1159 H   0  0  0  0  0  0  0  0  0  0  0  0
   -3.8700    0.5336   -0.5829 H   0  0  0  0  0  0  0  0  0  0  0  0
   -3.9947    1.1321    1.1370 H   0  0  0  0  0  0  0  0  0  0  0  0
   -1.4456    0.2359   -0.0240 C   0  0  0  0  0  0  0  0  0  0  0  0
   -2.6912   -1.4402   -0.9252 H   0  0  0  0  0  0  0  0  0  0  0  0
   -2.9037   -1.0619    0.8164 H   0  0  0  0  0  0  0  0  0  0  0  0
   -0.1593   -0.7174    0.0906 C   0  0  0  0  0  0  0  0  0  0  0  0
   -1.5427    0.6398    0.6469 H   0  0  0  0  0  0  0  0  0  0  0  0
   -1.4632    0.9747   -1.0150 H   0  0  0  0  0  0  0  0  0  0  0  0
   -0.0042   -1.6062    1.1866 H   0  0  0  0  0  0  0  0  0  0  0  0
    0.7080   -0.2271   -0.2578 H   0  0  0  0  0  0  0  0  0  0  0  0
   -0.2062   -1.0696   -0.6123 H   0  0  0  0  0  0  0  0  0  0  0  0
  1  5  1  0  0  0  0
  2  6  1  0  0  0  0
  2  1  1  0  0  0  0
  2  8  1  0  0  0  0
  3  1  1  0  0  0  0
  4  1  1  0  0  0  0
  6  9  1  0  0  0  0
  6 10  1  0  0  0  0
  7  2  1  0  0  0  0
  9 12  1  0  0  0  0
 11  6  1  0  0  0  0
 13  9  1  0  0  0  0
 14  9  1  0  0  0  0
M  END
$$$$
