14
butane_opt
C  -3.878810   0.235419  -0.013873
C  -2.735630  -0.535844   0.117906
H  -4.910271  -0.448231   0.020584
H  -3.825157   0.819109  -0.875596
H  -3.989997   0.882509   0.740291
C  -1.410241   0.186928  -0.013162
H  -2.815779  -1.166684  -0.750399
H  -2.800162  -1.370280   1.137842
C  -0.151981  -0.729855  -0.013646
H  -1.553430   1.015733   0.891283
H  -1.469113   0.743204  -0.805474
H  -0.321124  -1.082658   0.734150
H   0.738575  -0.164698   0.386816
H   0.064366  -1.610925  -0.995605
