butane_opt
 OpenBabel08242015393D

 14 13  0  0  0  0  0  0  0  0999 V2000
   -4.0105    0.2865   -0.0653 C   0  0  0  0  0  0  0  0  0  0  0  0
   -2.6926   -0.6167    0.1302 C   0  0  0  0  0  0  0  0  0  0  0  0
   -4.9410   -0.3067   -0.1005 H   0  0  0  0  0  0  0  0  0  0  0  0
   -3.9030    0.9955   -1.0937 H   0  0  0  0  0  0  0  0  0  0  0  0
   -4.0320    0.8867    0.7985 H   0  0  0  0  0  0  0  0  0  0  0  0
   -1.3784    0.1512    0.1156 C   0  0  0  0  0  0  0  0  0  0  0  0
   -2.6348   -1.5146   -0.7979 H   0  0  0  0  0  0  0  0  0  0  0  0
   -2.8811   -1.1846    0.9305 H   0  0  0  0  0  0  0  0  0  0  0  0
   -0.1356   -0.6523   -0.0587 C   0  0  0  0  0  0  0  0  0  0  0  0
   -1.2496    0.8538    1.0723 H   0  0  0  0  0  0  0  0  0  0  0  0
   -1.4723    0.6692   -0.6275 H   0  0  0  0  0  0  0  0  0  0  0  0
    0.1908   -1.5664    1.0105 H   0  0  0  0  0  0  0  0  0  0  0  0
    0.7875   -0.1015   -0.3806 H   0  0  0  0  0  0  0  0  0  0  0  0
   -0.3162   -1.1830   -0.8093 H   0  0  0  0  0  0  0  0  0  0  0  0
  1  2  1  0  0  0  0
  1  5  1  0  0  0  0
  2  8  1  0  0  0  0
  3  1  1  0  0  0  0
  4  1  1  0  0  0  0
  6  2  1  0  0  0  0
  6 10  1  0  0  0  0
  7  2  1  0  0  0  0
  9  6  1  0  0  0  0
  9 12  1  0  0  0  0
 11  6  1  0  0  0  0
 13  9  1  0  0  0  0
 14  9  1  0  0  0  0
M  END
$$$$
