14
butane_opt
C  -3.917742   0.280099   0.087920
C  -2.697275  -0.624389  -0.013041
H  -4.726165  -0.190191  -0.253500
H  -3.700358   0.561363  -0.669229
H  -4.122281   1.210559   1.131773
C  -1.427536   0.129530  -0.077884
H  -2.709930  -1.225799  -0.832349
H  -2.655588  -1.268157   0.943459
C  -0.183089  -0.678582   0.077364
H  -1.368840   0.910923   0.830021
H  -1.367691   0.765622  -1.012394
H  -0.280455  -1.408058   1.147513
H   0.768875   0.019501  -0.062674
H  -0.176661  -1.123865  -0.620678
