14
butane_opt
C  -3.935981   0.293027   0.018362
C  -2.678382  -0.656705  -0.001916
H  -4.804101  -0.260140   0.471816
H  -4.171350   1.349415  -1.103018
H  -3.881131   0.620597   0.578115
C  -1.372347   0.140609   0.039148
H  -2.781796  -1.319010  -0.805289
H  -2.601477  -1.333787   0.875698
C  -0.188760  -0.675629   0.040087
H  -1.326234   1.150487   1.044690
H  -1.452489   0.670147  -0.804299
H  -0.322032  -1.161449   0.871303
H   0.737563  -0.017477   0.025173
H  -0.309702  -1.386569  -0.915272
