butane_opt
 OpenBabel08242015393D

 14 13  0  0  0  0  0  0  0  0999 V2000
   -3.9389    0.2650   -0.0591 C   0  0  0  0  0  0  0  0  0  0  0  0
   -2.7056   -0.6039    0.1419 C   0  0  0  0  0  0  0  0  0  0  0  0
   -4.8137   -0.2337   -0.1682 H   0  0  0  0  0  0  0  0  0  0  0  0
   -3.7444    0.7069   -0.8757 H   0  0  0  0  0  0  0  0  0  0  0  0
   -4.0107    1.1259    0.9090 H   0  0  0  0  0  0  0  0  0  0  0  0
   -1.3876    0.1571    0.0616 C   0  0  0  0  0  0  0  0  0  0  0  0
   -2.4755   -1.2127   -0.6872 H   0  0  0  0  0  0  0  0  0  0  0  0
   -2.8204   -1.2825    1.0248 H   0  0  0  0  0  0  0  0  0  0  0  0
   -0.1897   -0.6970   -0.0213 C   0  0  0  0  0  0  0  0  0  0  0  0
   -1.3188    0.8169    0.8575 H   0  0  0  0  0  0  0  0  0  0  0  0
   -1.4821    0.8372   -0.8407 H   0  0  0  0  0  0  0  0  0  0  0  0
   -0.1607   -1.2729    0.7957 H   0  0  0  0  0  0  0  0  0  0  0  0
    0.8457    0.0614   -0.0586 H   0  0  0  0  0  0  0  0  0  0  0  0
   -0.3918   -1.4665   -0.9515 H   0  0  0  0  0  0  0  0  0  0  0  0
  1  2  1  0  0  0  0
  1  5  1  0  0  0  0
  2  8  1  0  0  0  0
  3  1  1  0  0  0  0
  4  1  1  0  0  0  0
  6  2  1  0  0  0  0
  6 10  1  0  0  0  0
  7  2  1  0  0  0  0
  9  6  1  0  0  0  0
  9 12  1  0  0  0  0
 11  6  1  0  0  0  0
 13  9  1  0  0  0  0
 14  9  1  0  0  0  0
M  END
$$$$
