14
butane_opt
C  -3.982768   0.302745   0.083134
C  -2.710315  -0.646202  -0.035483
H  -4.873407  -0.208906   0.248335
H  -4.180982   0.976872  -0.793503
H  -3.893068   0.975948   0.903092
C  -1.363456   0.124558  -0.053321
H  -2.756089  -1.528054  -0.984590
H  -2.870383  -1.152985   0.780575
C  -0.146949  -0.673432   0.123445
H  -1.428161   0.756164   0.724172
H  -1.275869   0.900106  -1.027349
H  -0.127044  -1.188153   0.943566
H   0.860765  -0.022663  -0.016114
H  -0.069810  -1.249534  -0.751827
