butane_opt
 OpenBabel08242015393D

 14 13  0  0  0  0  0  0  0  0999 V2000
   -3.9708    0.2145    0.0981 C   0  0  0  0  0  0  0  0  0  0  0  0
   -2.7203   -0.5875   -0.0289 C   0  0  0  0  0  0  0  0  0  0  0  0
   -4.8479   -0.3405    0.2487 H   0  0  0  0  0  0  0  0  0  0  0  0
   -4.1270    0.7388   -0.7778 H   0  0  0  0  0  0  0  0  0  0  0  0
   -3.7058    1.0840    1.0921 H   0  0  0  0  0  0  0  0  0  0  0  0
   -1.4136    0.2583   -0.1440 C   0  0  0  0  0  0  0  0  0  0  0  0
   -2.7662   -1.2565   -0.9153 H   0  0  0  0  0  0  0  0  0  0  0  0
   -2.7421   -1.2466    0.9056 H   0  0  0  0  0  0  0  0  0  0  0  0
   -0.1280   -0.7047    0.1201 C   0  0  0  0  0  0  0  0  0  0  0  0
   -1.4913    0.7686    0.6636 H   0  0  0  0  0  0  0  0  0  0  0  0
   -1.2605    0.8231   -1.0012 H   0  0  0  0  0  0  0  0  0  0  0  0
   -0.2238   -1.3007    0.9268 H   0  0  0  0  0  0  0  0  0  0  0  0
    0.6543   -0.2868    0.5378 H   0  0  0  0  0  0  0  0  0  0  0  0
    0.2860   -1.6193   -0.7832 H   0  0  0  0  0  0  0  0  0  0  0  0
  1  3  1  0  0  0  0
  1  5  1  0  0  0  0
  2  1  1  0  0  0  0
  2  8  1  0  0  0  0
  4  1  1  0  0  0  0
  6  2  1  0  0  0  0
  6  9  1  0  0  0  0
  6 10  1  0  0  0  0
  7  2  1  0  0  0  0
  9 13  1  0  0  0  0
  9 12  1  0  0  0  0
 11  6  1  0  0  0  0
 14  9  1  0  0  0  0
M  END
$$$$
