14
butane_opt
C  -3.943067   0.215320   0.098214
C  -2.711863  -0.595615  -0.089250
H  -4.882509  -0.384685   0.605946
H  -4.180428   1.124928  -1.025478
H  -3.785976   0.655895   0.836963
C  -1.403982   0.260093  -0.038818
H  -2.908905  -1.336463  -0.990994
H  -2.614102  -1.195896   0.652476
C  -0.122702  -0.721615   0.105869
H  -1.579703   1.072484   0.886900
H  -1.402210   0.884398  -0.936928
H  -0.187444  -1.471957   1.117146
H   0.712722  -0.289240   0.091106
H   0.008467  -1.433493  -0.735714
