14
butane_opt
C  -3.959381   0.232050  -0.008152
C  -2.691587  -0.558140   0.120277
H  -4.938362  -0.444590  -0.393895
H  -3.716192   0.647988  -0.807776
H  -3.983013   1.074744   1.033537
C  -1.429067   0.208290   0.007839
H  -2.706224  -1.343678  -0.859449
H  -2.873451  -1.221209   1.016417
C  -0.134630  -0.705373  -0.001121
H  -1.302448   0.864150   0.825470
H  -1.513714   0.862673  -0.837032
H  -0.013718  -1.495906   0.978331
H   0.626790  -0.165460  -0.086000
H  -0.024052  -1.389435  -0.821910
