butane_opt
 OpenBabel08242015393D

 14 13  0  0  0  0  0  0  0  0999 V2000
   -3.9431    0.2153    0.0982 C   0  0  0  0  0  0  0  0  0  0  0  0
   -2.7119   -0.5956   -0.0892 C   0  0  0  0  0  0  0  0  0  0  0  0
   -4.8825   -0.3847    0.6059 H   0  0  0  0  0  0  0  0  0  0  0  0
   -4.1804    1.1249   -1.0255 H   0  0  0  0  0  0  0  0  0  0  0  0
   -3.7860    0.6559    0.8370 H   0  0  0  0  0  0  0  0  0  0  0  0
   -1.4040    0.2601   -0.0388 C   0  0  0  0  0  0  0  0  0  0  0  0
   -2.9089   -1.3365   -0.9910 H   0  0  0  0  0  0  0  0  0  0  0  0
   -2.6141   -1.1959    0.6525 H   0  0  0  0  0  0  0  0  0  0  0  0
   -0.1227   -0.7216    0.1059 C   0  0  0  0  0  0  0  0  0  0  0  0
   -1.5797    1.0725    0.8869 H   0  0  0  0  0  0  0  0  0  0  0  0
   -1.4022    0.8844   -0.9369 H   0  0  0  0  0  0  0  0  0  0  0  0
   -0.1874   -1.4720    1.1171 H   0  0  0  0  0  0  0  0  0  0  0  0
    0.7127   -0.2892    0.0911 H   0  0  0  0  0  0  0  0  0  0  0  0
    0.0085   -1.4335   -0.7357 H   0  0  0  0  0  0  0  0  0  0  0  0
  1  3  1  0  0  0  0
  1  5  1  0  0  0  0
  2  6  1  0  0  0  0
  2  1  1  0  0  0  0
  2  8  1  0  0  0  0
  4  1  1  0  0  0  0
  6  9  1  0  0  0  0
  6 10  1  0  0  0  0
  7  2  1  0  0  0  0
  9 12  1  0  0  0  0
 11  6  1  0  0  0  0
 13  9  1  0  0  0  0
 14  9  1  0  0  0  0
M  END
$$$$
