14
butane_opt
C  -3.913352   0.223662   0.061861
C  -2.688777  -0.590824   0.012269
H  -4.795626  -0.381447   0.151191
H  -3.929794   0.814204  -0.773337
H  -3.952883   1.021899   1.027804
C  -1.443924   0.242935  -0.094660
H  -2.830033  -1.353173  -0.867490
H  -2.669632  -1.228723   0.948188
C  -0.147276  -0.726108   0.103058
H  -1.390910   0.753482   0.609533
H  -1.476054   1.021784  -0.996755
H  -0.410903  -1.084399   0.829710
H   0.785675  -0.176716   0.436709
H   0.003560  -1.670038  -0.924665
