14
butane_opt
C  -3.982035   0.285438  -0.068236
C  -2.694986  -0.643667   0.169941
H  -4.893734  -0.256893  -0.380226
H  -3.742470   0.961191  -1.084851
H  -4.250286   1.001725   0.823906
C  -1.404928   0.130647   0.128708
H  -2.495775  -1.320099  -0.613860
H  -2.681579  -1.354108   1.042033
C  -0.157838  -0.640305  -0.096150
H  -1.273530   0.942374   1.071346
H  -1.370471   0.750810  -0.800564
H   0.032258  -1.357954   0.869208
H   0.822318  -0.057530  -0.170972
H  -0.316258  -1.346599  -0.919099
