14
butane_opt
C  -3.953528   0.254986   0.043932
C  -2.682572  -0.613142   0.046486
H  -4.830249  -0.237444  -0.248853
H  -3.750696   0.638194  -0.664853
H  -4.252741   1.067484   1.014781
C  -1.401145   0.171826  -0.006194
H  -2.525195  -1.370529  -0.952378
H  -2.647090  -1.083567   0.849985
C  -0.183291  -0.676658   0.034658
H  -1.326091   0.752837   0.776267
H  -1.369111   0.893735  -0.954620
H  -0.146537  -1.506400   1.127878
H   0.679408  -0.173196  -0.176080
H  -0.191352  -1.122258  -0.695065
