butane_opt
 OpenBabel08242015393D

 14 13  0  0  0  0  0  0  0  0999 V2000
   -3.9886    0.2673    0.1036 C   0  0  0  0  0  0  0  0  0  0  0  0
   -2.6842   -0.6076   -0.0459 C   0  0  0  0  0  0  0  0  0  0  0  0
   -4.8756   -0.2984   -0.2399 H   0  0  0  0  0  0  0  0  0  0  0  0
   -3.9096    0.5412   -0.5601 H   0  0  0  0  0  0  0  0  0  0  0  0
   -4.1216    1.2208    1.1370 H   0  0  0  0  0  0  0  0  0  0  0  0
   -1.4021    0.1536   -0.0571 C   0  0  0  0  0  0  0  0  0  0  0  0
   -2.7999   -1.3604   -0.9240 H   0  0  0  0  0  0  0  0  0  0  0  0
   -2.5022   -1.2035    0.7364 H   0  0  0  0  0  0  0  0  0  0  0  0
   -0.1563   -0.6844    0.1324 C   0  0  0  0  0  0  0  0  0  0  0  0
   -1.3893    0.6687    0.7106 H   0  0  0  0  0  0  0  0  0  0  0  0
   -1.1873    1.0748   -1.1796 H   0  0  0  0  0  0  0  0  0  0  0  0
   -0.0765   -1.4743    1.0501 H   0  0  0  0  0  0  0  0  0  0  0  0
    0.7289   -0.0591   -0.2376 H   0  0  0  0  0  0  0  0  0  0  0  0
   -0.1204   -1.1332   -0.6152 H   0  0  0  0  0  0  0  0  0  0  0  0
  1  5  1  0  0  0  0
  2  1  1  0  0  0  0
  2  8  1  0  0  0  0
  3  1  1  0  0  0  0
  4  1  1  0  0  0  0
  6  2  1  0  0  0  0
  6  9  1  0  0  0  0
  6 10  1  0  0  0  0
  7  2  1  0  0  0  0
  9 12  1  0  0  0  0
 11  6  1  0  0  0  0
 13  9  1  0  0  0  0
 14  9  1  0  0  0  0
M  END
$$$$
