butane_opt
 OpenBabel08242015393D

 14 13  0  0  0  0  0  0  0  0999 V2000
   -3.9700    0.2667    0.0246 C   0  0  0  0  0  0  0  0  0  0  0  0
   -2.7035   -0.6273    0.0044 C   0  0  0  0  0  0  0  0  0  0  0  0
   -4.8298   -0.2537   -0.0485 H   0  0  0  0  0  0  0  0  0  0  0  0
   -3.9614    0.6652   -0.6785 H   0  0  0  0  0  0  0  0  0  0  0  0
   -4.0684    1.2334    1.0807 H   0  0  0  0  0  0  0  0  0  0  0  0
   -1.3999    0.1756   -0.0210 C   0  0  0  0  0  0  0  0  0  0  0  0
   -2.6291   -1.2430   -0.7634 H   0  0  0  0  0  0  0  0  0  0  0  0
   -2.6329   -1.3807    0.9914 H   0  0  0  0  0  0  0  0  0  0  0  0
   -0.1328   -0.6732    0.0535 C   0  0  0  0  0  0  0  0  0  0  0  0
   -1.3264    0.7489    0.8738 H   0  0  0  0  0  0  0  0  0  0  0  0
   -1.4496    0.8610   -0.9679 H   0  0  0  0  0  0  0  0  0  0  0  0
   -0.2865   -1.4622    1.0442 H   0  0  0  0  0  0  0  0  0  0  0  0
    0.8456    0.0124    0.0087 H   0  0  0  0  0  0  0  0  0  0  0  0
   -0.2147   -1.3428   -0.7935 H   0  0  0  0  0  0  0  0  0  0  0  0
  1  5  1  0  0  0  0
  2  1  1  0  0  0  0
  2  8  1  0  0  0  0
  3  1  1  0  0  0  0
  4  1  1  0  0  0  0
  6  2  1  0  0  0  0
  6  9  1  0  0  0  0
  6 10  1  0  0  0  0
  7  2  1  0  0  0  0
  9 12  1  0  0  0  0
 11  6  1  0  0  0  0
 13  9  1  0  0  0  0
 14  9  1  0  0  0  0
M  END
$$$$
