butane_opt
 OpenBabel08242015393D

 14 13  0  0  0  0  0  0  0  0999 V2000
   -3.9114    0.2173   -0.0515 C   0  0  0  0  0  0  0  0  0  0  0  0
   -2.7005   -0.5701    0.1236 C   0  0  0  0  0  0  0  0  0  0  0  0
   -4.9600   -0.4014   -0.0903 H   0  0  0  0  0  0  0  0  0  0  0  0
   -4.0454    0.8741   -0.9843 H   0  0  0  0  0  0  0  0  0  0  0  0
   -3.9538    0.8476    0.7798 H   0  0  0  0  0  0  0  0  0  0  0  0
   -1.4255    0.2222    0.0652 C   0  0  0  0  0  0  0  0  0  0  0  0
   -2.5296   -1.0852   -0.5039 H   0  0  0  0  0  0  0  0  0  0  0  0
   -2.7072   -1.3381    1.0986 H   0  0  0  0  0  0  0  0  0  0  0  0
   -0.1774   -0.7172   -0.0508 C   0  0  0  0  0  0  0  0  0  0  0  0
   -1.4294    0.9656    0.9977 H   0  0  0  0  0  0  0  0  0  0  0  0
   -1.3547    0.8069   -0.8062 H   0  0  0  0  0  0  0  0  0  0  0  0
   -0.1476   -1.2120    0.7265 H   0  0  0  0  0  0  0  0  0  0  0  0
    0.6983   -0.1810    0.2207 H   0  0  0  0  0  0  0  0  0  0  0  0
    0.0133   -1.6083   -1.0793 H   0  0  0  0  0  0  0  0  0  0  0  0
  1  2  1  0  0  0  0
  1  5  1  0  0  0  0
  2  8  1  0  0  0  0
  3  1  1  0  0  0  0
  4  1  1  0  0  0  0
  6  2  1  0  0  0  0
  6 10  1  0  0  0  0
  7  2  1  0  0  0  0
  9  6  1  0  0  0  0
  9 13  1  0  0  0  0
  9 12  1  0  0  0  0
 11  6  1  0  0  0  0
 14  9  1  0  0  0  0
M  END
$$$$
