butane_opt
 OpenBabel08242015393D

 14 13  0  0  0  0  0  0  0  0999 V2000
   -3.9882    0.2923    0.1151 C   0  0  0  0  0  0  0  0  0  0  0  0
   -2.7090   -0.6312   -0.0607 C   0  0  0  0  0  0  0  0  0  0  0  0
   -4.8310   -0.2471   -0.1607 H   0  0  0  0  0  0  0  0  0  0  0  0
   -4.1579    0.6652   -0.5352 H   0  0  0  0  0  0  0  0  0  0  0  0
   -3.9372    1.2262    1.1953 H   0  0  0  0  0  0  0  0  0  0  0  0
   -1.3964    0.1298   -0.1186 C   0  0  0  0  0  0  0  0  0  0  0  0
   -2.7669   -1.2506   -0.9178 H   0  0  0  0  0  0  0  0  0  0  0  0
   -2.6741   -1.4250    0.9974 H   0  0  0  0  0  0  0  0  0  0  0  0
   -0.1341   -0.6627    0.1348 C   0  0  0  0  0  0  0  0  0  0  0  0
   -1.3245    0.6938    0.5961 H   0  0  0  0  0  0  0  0  0  0  0  0
   -1.3188    0.8744   -1.1403 H   0  0  0  0  0  0  0  0  0  0  0  0
   -0.2360   -1.1980    0.9338 H   0  0  0  0  0  0  0  0  0  0  0  0
    0.8586   -0.0271    0.3004 H   0  0  0  0  0  0  0  0  0  0  0  0
    0.0774   -1.3041   -0.6553 H   0  0  0  0  0  0  0  0  0  0  0  0
  1  5  1  0  0  0  0
  2  1  1  0  0  0  0
  2  8  1  0  0  0  0
  3  1  1  0  0  0  0
  4  1  1  0  0  0  0
  6  2  1  0  0  0  0
  6  9  1  0  0  0  0
  6 10  1  0  0  0  0
  7  2  1  0  0  0  0
  9 13  1  0  0  0  0
  9 12  1  0  0  0  0
 11  6  1  0  0  0  0
 14  9  1  0  0  0  0
M  END
$$$$
