butane_opt
 OpenBabel08242015393D

 14 13  0  0  0  0  0  0  0  0999 V2000
   -3.9134    0.2237    0.0619 C   0  0  0  0  0  0  0  0  0  0  0  0
   -2.6888   -0.5908    0.0123 C   0  0  0  0  0  0  0  0  0  0  0  0
   -4.7956   -0.3814    0.1512 H   0  0  0  0  0  0  0  0  0  0  0  0
   -3.9298    0.8142   -0.7733 H   0  0  0  0  0  0  0  0  0  0  0  0
   -3.9529    1.0219    1.0278 H   0  0  0  0  0  0  0  0  0  0  0  0
   -1.4439    0.2429   -0.0947 C   0  0  0  0  0  0  0  0  0  0  0  0
   -2.8300   -1.3532   -0.8675 H   0  0  0  0  0  0  0  0  0  0  0  0
   -2.6696   -1.2287    0.9482 H   0  0  0  0  0  0  0  0  0  0  0  0
   -0.1473   -0.7261    0.1031 C   0  0  0  0  0  0  0  0  0  0  0  0
   -1.3909    0.7535    0.6095 H   0  0  0  0  0  0  0  0  0  0  0  0
   -1.4761    1.0218   -0.9968 H   0  0  0  0  0  0  0  0  0  0  0  0
   -0.4109   -1.0844    0.8297 H   0  0  0  0  0  0  0  0  0  0  0  0
    0.7857   -0.1767    0.4367 H   0  0  0  0  0  0  0  0  0  0  0  0
    0.0036   -1.6700   -0.9247 H   0  0  0  0  0  0  0  0  0  0  0  0
  1  3  1  0  0  0  0
  1  5  1  0  0  0  0
  2  1  1  0  0  0  0
  2  8  1  0  0  0  0
  4  1  1  0  0  0  0
  6  2  1  0  0  0  0
  6  9  1  0  0  0  0
  6 10  1  0  0  0  0
  7  2  1  0  0  0  0
  9 13  1  0  0  0  0
  9 12  1  0  0  0  0
 11  6  1  0  0  0  0
 14  9  1  0  0  0  0
M  END
$$$$
