14
butane_opt
C  -3.955986   0.239920   0.091743
C  -2.720748  -0.570714   0.002692
H  -4.938536  -0.421060  -0.376460
H  -3.799457   0.493364  -0.567700
H  -4.272446   1.370889   1.193637
C  -1.439702   0.199578  -0.087250
H  -2.728681  -1.350503  -0.851037
H  -2.798379  -1.321893   0.943643
C  -0.091062  -0.702498   0.086523
H  -1.408257   0.759778   0.649883
H  -1.321950   0.862595  -1.038830
H  -0.122121  -1.461709   1.133876
H   0.842459  -0.121747  -0.058066
H   0.027063  -1.279193  -0.651497
