14
butane_opt
C  -3.920229   0.233231   0.093543
C  -2.736984  -0.567464  -0.041177
H  -4.900630  -0.387593   0.317651
H  -4.104324   1.150668  -0.982752
H  -3.924447   0.750202   0.761443
C  -1.437190   0.203717  -0.015131
H  -2.929439  -1.491276  -1.114800
H  -2.672393  -1.146684   0.709726
C  -0.104828  -0.713585   0.081243
H  -1.330415   0.823933   0.804881
H  -1.370466   0.847294  -0.919695
H  -0.055892  -1.435466   1.062489
H   0.788869  -0.152481   0.071401
H  -0.112632  -1.294203  -0.692139
