14
butane_opt
C  -3.926051   0.259630   0.025104
C  -2.698352  -0.612443   0.036866
H  -4.878861  -0.387584  -0.048613
H  -3.927411   0.798869  -0.803565
H  -3.957550   1.046100   0.960729
C  -1.412295   0.195554  -0.006820
H  -2.702512  -1.328148  -0.829890
H  -2.740297  -1.196341   0.925377
C  -0.169487  -0.701597   0.046208
H  -1.373346   0.834918   0.828408
H  -1.385962   0.870400  -0.944476
H  -0.110764  -1.363813   0.977098
H   0.697048  -0.130193  -0.013731
H  -0.160130  -1.323648  -0.808728
