butane_opt
 OpenBabel08242015393D

 14 12  0  0  0  0  0  0  0  0999 V2000
   -3.9750    0.2981    0.0907 C   0  0  0  0  0  0  0  0  0  0  0  0
   -2.6926   -0.6393    0.0095 C   0  0  0  0  0  0  0  0  0  0  0  0
   -4.8317   -0.2205   -0.3956 H   0  0  0  0  0  0  0  0  0  0  0  0
   -3.8375    0.5227   -0.5142 H   0  0  0  0  0  0  0  0  0  0  0  0
   -4.2131    1.3564    1.2366 H   0  0  0  0  0  0  0  0  0  0  0  0
   -1.3885    0.1338   -0.0723 C   0  0  0  0  0  0  0  0  0  0  0  0
   -2.7579   -1.4606   -0.9382 H   0  0  0  0  0  0  0  0  0  0  0  0
   -2.8569   -1.1843    0.8501 H   0  0  0  0  0  0  0  0  0  0  0  0
   -0.1361   -0.6693    0.0933 C   0  0  0  0  0  0  0  0  0  0  0  0
   -1.3657    0.5896    0.6104 H   0  0  0  0  0  0  0  0  0  0  0  0
   -1.3902    0.9634   -1.2173 H   0  0  0  0  0  0  0  0  0  0  0  0
   -0.2543   -1.4044    1.0908 H   0  0  0  0  0  0  0  0  0  0  0  0
    0.8085    0.0754   -0.0310 H   0  0  0  0  0  0  0  0  0  0  0  0
   -0.0528   -1.1716   -0.6339 H   0  0  0  0  0  0  0  0  0  0  0  0
  2  1  1  0  0  0  0
  2  8  1  0  0  0  0
  3  1  1  0  0  0  0
  4  1  1  0  0  0  0
  6  2  1  0  0  0  0
  6  9  1  0  0  0  0
  6 10  1  0  0  0  0
  7  2  1  0  0  0  0
  9 12  1  0  0  0  0
 11  6  1  0  0  0  0
 13  9  1  0  0  0  0
 14  9  1  0  0  0  0
M  RAD  2   1   2   5   2
M  END
$$$$
