14
butane_opt
C  -3.969747   0.308776  -0.028962
C  -2.698769  -0.664490   0.063678
H  -4.770541  -0.193060   0.374787
H  -4.129453   1.317553  -1.194745
H  -3.984724   0.543552   0.507642
C  -1.361600   0.148057   0.092355
H  -2.727455  -1.259212  -0.738705
H  -2.685601  -1.375488   1.003315
C  -0.149747  -0.658255  -0.057325
H  -1.428278   1.008448   1.164006
H  -1.372404   0.543562  -0.643328
H  -0.299815  -1.187164   0.853709
H   0.852481  -0.053281   0.163267
H  -0.332112  -1.390041  -0.945321
