butane_opt
 OpenBabel08242015393D

 14 13  0  0  0  0  0  0  0  0999 V2000
   -3.9538    0.2258   -0.1081 C   0  0  0  0  0  0  0  0  0  0  0  0
   -2.7135   -0.5609    0.1185 C   0  0  0  0  0  0  0  0  0  0  0  0
   -4.9471   -0.3854    0.0192 H   0  0  0  0  0  0  0  0  0  0  0  0
   -3.8500    0.9187   -1.0494 H   0  0  0  0  0  0  0  0  0  0  0  0
   -3.8680    0.7398    0.7235 H   0  0  0  0  0  0  0  0  0  0  0  0
   -1.4063    0.2294    0.2048 C   0  0  0  0  0  0  0  0  0  0  0  0
   -2.6531   -1.2179   -0.6905 H   0  0  0  0  0  0  0  0  0  0  0  0
   -2.8415   -1.1584    0.9262 H   0  0  0  0  0  0  0  0  0  0  0  0
   -0.1417   -0.7503   -0.0867 C   0  0  0  0  0  0  0  0  0  0  0  0
   -1.2202    0.8918    1.0708 H   0  0  0  0  0  0  0  0  0  0  0  0
   -1.4771    0.8805   -0.7286 H   0  0  0  0  0  0  0  0  0  0  0  0
    0.2291   -1.5036    0.8756 H   0  0  0  0  0  0  0  0  0  0  0  0
    0.6712   -0.2130   -0.3859 H   0  0  0  0  0  0  0  0  0  0  0  0
   -0.4604   -1.1643   -0.8344 H   0  0  0  0  0  0  0  0  0  0  0  0
  1  3  1  0  0  0  0
  1  2  1  0  0  0  0
  1  5  1  0  0  0  0
  2  6  1  0  0  0  0
  2  8  1  0  0  0  0
  4  1  1  0  0  0  0
  6 10  1  0  0  0  0
  7  2  1  0  0  0  0
  9  6  1  0  0  0  0
  9 12  1  0  0  0  0
 11  6  1  0  0  0  0
 13  9  1  0  0  0  0
 14  9  1  0  0  0  0
M  END
$$$$
