butane_opt
 OpenBabel08242015393D

 14 13  0  0  0  0  0  0  0  0999 V2000
   -3.9198    0.2624   -0.0756 C   0  0  0  0  0  0  0  0  0  0  0  0
   -2.6942   -0.5984    0.1176 C   0  0  0  0  0  0  0  0  0  0  0  0
   -4.7755   -0.3016    0.3711 H   0  0  0  0  0  0  0  0  0  0  0  0
   -4.0906    1.0883   -1.1938 H   0  0  0  0  0  0  0  0  0  0  0  0
   -3.9709    0.6226    0.6114 H   0  0  0  0  0  0  0  0  0  0  0  0
   -1.4047    0.1451    0.1001 C   0  0  0  0  0  0  0  0  0  0  0  0
   -2.6516   -1.1748   -0.7387 H   0  0  0  0  0  0  0  0  0  0  0  0
   -2.6341   -1.3098    1.0349 H   0  0  0  0  0  0  0  0  0  0  0  0
   -0.1739   -0.6846   -0.0623 C   0  0  0  0  0  0  0  0  0  0  0  0
   -1.2847    1.0962    1.1536 H   0  0  0  0  0  0  0  0  0  0  0  0
   -1.5731    0.6964   -0.7307 H   0  0  0  0  0  0  0  0  0  0  0  0
   -0.2848   -1.1343    0.7548 H   0  0  0  0  0  0  0  0  0  0  0  0
    0.7508   -0.0753    0.1696 H   0  0  0  0  0  0  0  0  0  0  0  0
   -0.1814   -1.4754   -0.9785 H   0  0  0  0  0  0  0  0  0  0  0  0
  1  2  1  0  0  0  0
  1  3  1  0  0  0  0
  1  5  1  0  0  0  0
  2  8  1  0  0  0  0
  4  1  1  0  0  0  0
  6  2  1  0  0  0  0
  6 10  1  0  0  0  0
  7  2  1  0  0  0  0
  9  6  1  0  0  0  0
  9 13  1  0  0  0  0
  9 12  1  0  0  0  0
 11  6  1  0  0  0  0
 14  9  1  0  0  0  0
M  END
$$$$
