14
butane_opt
C  -3.992639   0.298441   0.112514
C  -2.698241  -0.639299  -0.073024
H  -4.899095  -0.346555  -0.012423
H  -4.020749   0.767026  -0.768455
H  -3.787145   0.973554   1.019109
C  -1.384938   0.180830  -0.052891
H  -2.722870  -1.382243  -0.984752
H  -2.777866  -1.098732   0.689498
C  -0.147687  -0.678363   0.091569
H  -1.304048   0.856662   0.849905
H  -1.325275   0.725895  -0.814977
H  -0.148337  -1.820675   1.356019
H   0.746719  -0.077443  -0.283529
H  -0.127022  -0.991530  -0.502132
