14
butane_opt
C  -3.947854   0.258680   0.008447
C  -2.714070  -0.612716   0.057759
H  -4.875185  -0.327609   0.036603
H  -3.937838   0.905336  -0.911953
H  -3.909361   0.865439   0.840149
C  -1.399015   0.198844   0.008406
H  -2.702552  -1.237975  -0.757396
H  -2.749124  -1.276353   0.979261
C  -0.152519  -0.701779   0.026727
H  -1.411645   0.924527   0.894303
H  -1.400659   0.805949  -0.903352
H  -0.117198  -1.216168   0.843086
H   0.718339  -0.151833   0.114730
H  -0.082051  -1.486928  -0.928315
