14
butane_opt
C  -4.011603   0.318388  -0.047111
C  -2.685038  -0.683777   0.050163
H  -4.954730  -0.233647   0.434951
H  -4.065936   1.265364  -1.143018
H  -3.975643   0.478001   0.576507
C  -1.394018   0.148896   0.115610
H  -2.666406  -1.164018  -0.670430
H  -2.633794  -1.374336   0.919565
C  -0.118993  -0.647572  -0.026113
H  -1.258842   0.940347   1.081138
H  -1.365634   0.669505  -0.698658
H  -0.096265  -1.079205   0.740092
H   0.779300  -0.128078   0.030543
H  -0.284545  -1.468355  -0.994690
