butane_opt
 OpenBabel08242015393D

 14 12  0  0  0  0  0  0  0  0999 V2000
   -3.9969    0.2807   -0.0212 C   0  0  0  0  0  0  0  0  0  0  0  0
   -2.6621   -0.6414    0.0546 C   0  0  0  0  0  0  0  0  0  0  0  0
   -4.9206   -0.2002    0.4387 H   0  0  0  0  0  0  0  0  0  0  0  0
   -4.1114    1.2870   -1.1609 H   0  0  0  0  0  0  0  0  0  0  0  0
   -3.8098    0.5949    0.6576 H   0  0  0  0  0  0  0  0  0  0  0  0
   -1.3954    0.1604    0.0720 C   0  0  0  0  0  0  0  0  0  0  0  0
   -2.6358   -1.4896   -0.8539 H   0  0  0  0  0  0  0  0  0  0  0  0
   -2.5612   -1.1906    0.8722 H   0  0  0  0  0  0  0  0  0  0  0  0
   -0.1795   -0.6664   -0.0092 C   0  0  0  0  0  0  0  0  0  0  0  0
   -1.2322    0.9190    1.0241 H   0  0  0  0  0  0  0  0  0  0  0  0
   -1.3772    0.7230   -0.8013 H   0  0  0  0  0  0  0  0  0  0  0  0
   -0.2273   -1.2932    0.9171 H   0  0  0  0  0  0  0  0  0  0  0  0
    0.8402    0.0367    0.1206 H   0  0  0  0  0  0  0  0  0  0  0  0
   -0.2030   -1.4329   -0.9686 H   0  0  0  0  0  0  0  0  0  0  0  0
  1  2  1  0  0  0  0
  1  3  1  0  0  0  0
  1  5  1  0  0  0  0
  2  6  1  0  0  0  0
  2  8  1  0  0  0  0
  6 10  1  0  0  0  0
  7  2  1  0  0  0  0
  9  6  1  0  0  0  0
  9 13  1  0  0  0  0
  9 12  1  0  0  0  0
 11  6  1  0  0  0  0
 14  9  1  0  0  0  0
M  RAD  2   1   2   4   2
M  END
$$$$
