butane_opt
 OpenBabel08242015393D

 14 13  0  0  0  0  0  0  0  0999 V2000
   -3.9354    0.2536   -0.0020 C   0  0  0  0  0  0  0  0  0  0  0  0
   -2.7001   -0.5968    0.0500 C   0  0  0  0  0  0  0  0  0  0  0  0
   -4.9054   -0.3991   -0.0253 H   0  0  0  0  0  0  0  0  0  0  0  0
   -3.9232    0.8516   -0.8980 H   0  0  0  0  0  0  0  0  0  0  0  0
   -3.9872    0.9171    0.8483 H   0  0  0  0  0  0  0  0  0  0  0  0
   -1.4071    0.1898    0.0439 C   0  0  0  0  0  0  0  0  0  0  0  0
   -2.6686   -1.2090   -0.7399 H   0  0  0  0  0  0  0  0  0  0  0  0
   -2.7500   -1.2428    0.9685 H   0  0  0  0  0  0  0  0  0  0  0  0
   -0.1611   -0.7016    0.0134 C   0  0  0  0  0  0  0  0  0  0  0  0
   -1.4247    0.9223    0.9061 H   0  0  0  0  0  0  0  0  0  0  0  0
   -1.4216    0.7941   -0.8201 H   0  0  0  0  0  0  0  0  0  0  0  0
   -0.0467   -1.3803    0.9253 H   0  0  0  0  0  0  0  0  0  0  0  0
    0.7546   -0.1385   -0.1246 H   0  0  0  0  0  0  0  0  0  0  0  0
   -0.1976   -1.3384   -0.8595 H   0  0  0  0  0  0  0  0  0  0  0  0
  1  2  1  0  0  0  0
  1  5  1  0  0  0  0
  2  8  1  0  0  0  0
  3  1  1  0  0  0  0
  4  1  1  0  0  0  0
  6  2  1  0  0  0  0
  6 10  1  0  0  0  0
  7  2  1  0  0  0  0
  9  6  1  0  0  0  0
  9 12  1  0  0  0  0
 11  6  1  0  0  0  0
 13  9  1  0  0  0  0
 14  9  1  0  0  0  0
M  END
$$$$
