butane_opt
 OpenBabel08242015393D

 14 13  0  0  0  0  0  0  0  0999 V2000
   -3.9298    0.2335   -0.0770 C   0  0  0  0  0  0  0  0  0  0  0  0
   -2.7421   -0.5731    0.1013 C   0  0  0  0  0  0  0  0  0  0  0  0
   -4.9464   -0.4298   -0.0263 H   0  0  0  0  0  0  0  0  0  0  0  0
   -3.9863    0.9255   -1.0736 H   0  0  0  0  0  0  0  0  0  0  0  0
   -4.0030    0.8237    0.6967 H   0  0  0  0  0  0  0  0  0  0  0  0
   -1.3827    0.2388    0.1510 C   0  0  0  0  0  0  0  0  0  0  0  0
   -2.7894   -1.1401   -0.6914 H   0  0  0  0  0  0  0  0  0  0  0  0
   -2.8850   -1.3654    1.1047 H   0  0  0  0  0  0  0  0  0  0  0  0
   -0.1123   -0.7665   -0.0538 C   0  0  0  0  0  0  0  0  0  0  0  0
   -1.4420    1.0159    1.1563 H   0  0  0  0  0  0  0  0  0  0  0  0
   -1.4924    0.8368   -0.7111 H   0  0  0  0  0  0  0  0  0  0  0  0
    0.0843   -1.3217    0.7857 H   0  0  0  0  0  0  0  0  0  0  0  0
    0.7544   -0.1547   -0.3782 H   0  0  0  0  0  0  0  0  0  0  0  0
   -0.2790   -1.2698   -0.9049 H   0  0  0  0  0  0  0  0  0  0  0  0
  1  3  1  0  0  0  0
  1  2  1  0  0  0  0
  1  5  1  0  0  0  0
  2  6  1  0  0  0  0
  2  8  1  0  0  0  0
  4  1  1  0  0  0  0
  6 10  1  0  0  0  0
  7  2  1  0  0  0  0
  9  6  1  0  0  0  0
  9 12  1  0  0  0  0
 11  6  1  0  0  0  0
 13  9  1  0  0  0  0
 14  9  1  0  0  0  0
M  END
$$$$
