14
butane_opt
C  -3.974950   0.298137   0.090655
C  -2.692610  -0.639312   0.009489
H  -4.831748  -0.220502  -0.395566
H  -3.837532   0.522707  -0.514249
H  -4.213094   1.356404   1.236617
C  -1.388480   0.133801  -0.072312
H  -2.757900  -1.460644  -0.938171
H  -2.856938  -1.184255   0.850134
C  -0.136096  -0.669264   0.093256
H  -1.365697   0.589569   0.610433
H  -1.390169   0.963396  -1.217298
H  -0.254251  -1.404437   1.090838
H   0.808530   0.075361  -0.030987
H  -0.052754  -1.171584  -0.633906
