14
butane_opt
C  -3.944476   0.218628  -0.070827
C  -2.735056  -0.543277   0.175304
H  -4.861362  -0.331269   0.077445
H  -3.808423   0.910442  -1.113082
H  -4.091181   0.740449   0.622010
C  -1.439261   0.214529   0.083793
H  -2.809595  -1.247926  -0.658601
H  -2.792909  -1.333636   1.121589
C  -0.080397  -0.719137  -0.071490
H  -1.269819   0.809245   0.941412
H  -1.558177   0.924375  -0.810465
H  -0.283918  -0.968098   0.592531
H   0.770989  -0.251786   0.428097
H   0.086956  -1.783538  -1.201926
