14
butane_opt
C  -3.938600   0.269195   0.030826
C  -2.689045  -0.634006   0.017648
H  -4.848619  -0.316527   0.014149
H  -3.999018   0.923149  -0.869001
H  -3.945087   0.957608   0.880193
C  -1.411932   0.184222   0.011839
H  -2.694470  -1.303064  -0.836585
H  -2.710425  -1.239652   0.906275
C  -0.163621  -0.685597   0.035732
H  -1.406198   0.881521   0.877494
H  -1.395824   0.749431  -0.853472
H  -0.134433  -1.384122   1.008968
H   0.755718  -0.086131  -0.093137
H  -0.206922  -1.254985  -0.742999
