butane_opt
 OpenBabel08242015393D

 14 13  0  0  0  0  0  0  0  0999 V2000
   -3.9068    0.2895   -0.0480 C   0  0  0  0  0  0  0  0  0  0  0  0
   -2.6675   -0.6603    0.1052 C   0  0  0  0  0  0  0  0  0  0  0  0
   -4.8078   -0.2839   -0.1715 H   0  0  0  0  0  0  0  0  0  0  0  0
   -3.9057    0.8261   -0.9071 H   0  0  0  0  0  0  0  0  0  0  0  0
   -4.0690    1.0740    0.8806 H   0  0  0  0  0  0  0  0  0  0  0  0
   -1.4466    0.1603    0.0760 C   0  0  0  0  0  0  0  0  0  0  0  0
   -2.5705   -1.3639   -0.7856 H   0  0  0  0  0  0  0  0  0  0  0  0
   -2.7949   -1.3510    1.0738 H   0  0  0  0  0  0  0  0  0  0  0  0
   -0.1818   -0.6802   -0.0427 C   0  0  0  0  0  0  0  0  0  0  0  0
   -1.3334    1.0820    1.0584 H   0  0  0  0  0  0  0  0  0  0  0  0
   -1.4296    0.6645   -0.7309 H   0  0  0  0  0  0  0  0  0  0  0  0
   -0.0519   -1.4052    1.0078 H   0  0  0  0  0  0  0  0  0  0  0  0
    0.7332   -0.0575   -0.3155 H   0  0  0  0  0  0  0  0  0  0  0  0
   -0.3584   -0.9664   -0.7143 H   0  0  0  0  0  0  0  0  0  0  0  0
  1  2  1  0  0  0  0
  1  5  1  0  0  0  0
  2  8  1  0  0  0  0
  3  1  1  0  0  0  0
  4  1  1  0  0  0  0
  6  2  1  0  0  0  0
  6 10  1  0  0  0  0
  7  2  1  0  0  0  0
  9  6  1  0  0  0  0
  9 12  1  0  0  0  0
 11  6  1  0  0  0  0
 13  9  1  0  0  0  0
 14  9  1  0  0  0  0
M  END
$$$$
