butane_opt
 OpenBabel08242015393D

 14 13  0  0  0  0  0  0  0  0999 V2000
   -3.9415    0.3102    0.1356 C   0  0  0  0  0  0  0  0  0  0  0  0
   -2.7011   -0.6752   -0.0666 C   0  0  0  0  0  0  0  0  0  0  0  0
   -4.7272   -0.2185    0.0433 H   0  0  0  0  0  0  0  0  0  0  0  0
   -4.1165    0.8687   -0.6978 H   0  0  0  0  0  0  0  0  0  0  0  0
   -4.0433    1.1292    1.1510 H   0  0  0  0  0  0  0  0  0  0  0  0
   -1.3981    0.1530   -0.1313 C   0  0  0  0  0  0  0  0  0  0  0  0
   -2.8620   -1.3151   -0.9043 H   0  0  0  0  0  0  0  0  0  0  0  0
   -2.6810   -1.3737    0.8187 H   0  0  0  0  0  0  0  0  0  0  0  0
   -0.1728   -0.6563    0.1413 C   0  0  0  0  0  0  0  0  0  0  0  0
   -1.3788    0.5905    0.5105 H   0  0  0  0  0  0  0  0  0  0  0  0
   -1.1903    0.9145   -1.0955 H   0  0  0  0  0  0  0  0  0  0  0  0
   -0.2886   -1.1124    0.9611 H   0  0  0  0  0  0  0  0  0  0  0  0
    0.8286    0.0314    0.4784 H   0  0  0  0  0  0  0  0  0  0  0  0
   -0.0264   -1.5369   -0.7726 H   0  0  0  0  0  0  0  0  0  0  0  0
  1  5  1  0  0  0  0
  2  1  1  0  0  0  0
  2  8  1  0  0  0  0
  3  1  1  0  0  0  0
  4  1  1  0  0  0  0
  6  2  1  0  0  0  0
  6  9  1  0  0  0  0
  6 10  1  0  0  0  0
  7  2  1  0  0  0  0
  9 13  1  0  0  0  0
  9 12  1  0  0  0  0
 11  6  1  0  0  0  0
 14  9  1  0  0  0  0
M  END
$$$$
