14
butane_opt
C  -3.996913   0.280668  -0.021248
C  -2.662079  -0.641361   0.054643
H  -4.920614  -0.200201   0.438662
H  -4.111430   1.286981  -1.160923
H  -3.809808   0.594917   0.657644
C  -1.395424   0.160392   0.072025
H  -2.635800  -1.489585  -0.853896
H  -2.561162  -1.190567   0.872235
C  -0.179451  -0.666364  -0.009206
H  -1.232168   0.919000   1.024064
H  -1.377181   0.723018  -0.801342
H  -0.227324  -1.293160   0.917100
H   0.840177   0.036668   0.120603
H  -0.203004  -1.432856  -0.968596
