14
butane_opt
C  -3.908293   0.263987   0.137049
C  -2.717425  -0.605207  -0.110939
H  -4.821744  -0.306250   0.477770
H  -4.124995   0.990445  -0.903833
H  -3.672403   0.721866   0.886481
C  -1.405526   0.171434  -0.075615
H  -2.705090  -1.377040  -1.039064
H  -2.588903  -1.085275   0.642361
C  -0.215817  -0.696333   0.134106
H  -1.327461   0.774339   0.722514
H  -1.356505   0.992245  -0.995841
H  -0.188006  -1.351325   1.048115
H   0.652136  -0.141315   0.270544
H   0.065257  -1.300396  -0.678704
