butane_opt
 OpenBabel08242015393D

 14 13  0  0  0  0  0  0  0  0999 V2000
   -3.9102    0.2581   -0.0648 C   0  0  0  0  0  0  0  0  0  0  0  0
   -2.6880   -0.5967    0.1379 C   0  0  0  0  0  0  0  0  0  0  0  0
   -5.0267   -0.4865    0.0773 H   0  0  0  0  0  0  0  0  0  0  0  0
   -3.7919    0.9251   -0.9451 H   0  0  0  0  0  0  0  0  0  0  0  0
   -3.9711    0.8649    0.7832 H   0  0  0  0  0  0  0  0  0  0  0  0
   -1.4288    0.1927    0.0529 C   0  0  0  0  0  0  0  0  0  0  0  0
   -2.6772   -1.1479   -0.6610 H   0  0  0  0  0  0  0  0  0  0  0  0
   -2.7329   -1.3072    1.0818 H   0  0  0  0  0  0  0  0  0  0  0  0
   -0.1566   -0.7054   -0.0196 C   0  0  0  0  0  0  0  0  0  0  0  0
   -1.5457    0.8529    0.8321 H   0  0  0  0  0  0  0  0  0  0  0  0
   -1.4786    0.7921   -0.7692 H   0  0  0  0  0  0  0  0  0  0  0  0
   -0.1788   -0.9742    0.6532 H   0  0  0  0  0  0  0  0  0  0  0  0
    0.7526   -0.1510    0.1834 H   0  0  0  0  0  0  0  0  0  0  0  0
   -0.1484   -1.6596   -1.1115 H   0  0  0  0  0  0  0  0  0  0  0  0
  1  3  1  0  0  0  0
  1  2  1  0  0  0  0
  1  5  1  0  0  0  0
  2  8  1  0  0  0  0
  4  1  1  0  0  0  0
  6  2  1  0  0  0  0
  6 10  1  0  0  0  0
  7  2  1  0  0  0  0
  9  6  1  0  0  0  0
  9 13  1  0  0  0  0
  9 12  1  0  0  0  0
 11  6  1  0  0  0  0
 14  9  1  0  0  0  0
M  END
$$$$
