14
butane_opt
C  -3.988741   0.305189   0.083248
C  -2.728760  -0.654426  -0.071800
H  -4.810189  -0.217085   0.081359
H  -4.054653   0.684441  -0.707903
H  -3.987332   1.217064   1.154746
C  -1.376210   0.140567  -0.052402
H  -2.841501  -1.498768  -0.992854
H  -2.587915  -1.210093   0.748235
C  -0.123346  -0.680524   0.088691
H  -1.362861   0.896711   0.927920
H  -1.387982   0.772908  -0.974888
H  -0.121567  -1.677196   1.309758
H   0.867563   0.032038  -0.265660
H  -0.165630  -0.752883  -0.338890
