14
butane_opt
C  -3.910726   0.294086   0.023156
C  -2.673894  -0.662998  -0.001787
H  -4.849016  -0.288725  -0.020877
H  -4.133070   0.834269  -0.726492
H  -3.903786   1.141772   1.014650
C  -1.376167   0.169601   0.005415
H  -2.644902  -1.407089  -0.908473
H  -2.684780  -1.141445   0.792639
C  -0.219446  -0.681894   0.047706
H  -1.469709   0.861585   0.969425
H  -1.386936   0.655526  -0.777602
H  -0.187420  -1.711256   1.164607
H   0.774392   0.049897  -0.448398
H  -0.373487  -0.867163  -0.474818
