butane_opt
 OpenBabel08242015393D

 14 13  0  0  0  0  0  0  0  0999 V2000
   -3.9770    0.2213   -0.0907 C   0  0  0  0  0  0  0  0  0  0  0  0
   -2.6980   -0.5911    0.1127 C   0  0  0  0  0  0  0  0  0  0  0  0
   -4.9150   -0.4152   -0.1218 H   0  0  0  0  0  0  0  0  0  0  0  0
   -3.9325    0.9017   -1.0160 H   0  0  0  0  0  0  0  0  0  0  0  0
   -4.0420    0.9203    0.7186 H   0  0  0  0  0  0  0  0  0  0  0  0
   -1.4170    0.2175    0.1662 C   0  0  0  0  0  0  0  0  0  0  0  0
   -2.7005   -1.0787   -0.5811 H   0  0  0  0  0  0  0  0  0  0  0  0
   -2.9020   -1.2071    1.0812 H   0  0  0  0  0  0  0  0  0  0  0  0
   -0.1131   -0.7324   -0.0907 C   0  0  0  0  0  0  0  0  0  0  0  0
   -1.4067    1.1068    1.1303 H   0  0  0  0  0  0  0  0  0  0  0  0
   -1.4383    0.7643   -0.5899 H   0  0  0  0  0  0  0  0  0  0  0  0
    0.1488   -1.5598    0.9527 H   0  0  0  0  0  0  0  0  0  0  0  0
    0.8341   -0.0866   -0.4978 H   0  0  0  0  0  0  0  0  0  0  0  0
   -0.1967   -1.2211   -0.8121 H   0  0  0  0  0  0  0  0  0  0  0  0
  1  2  1  0  0  0  0
  1  5  1  0  0  0  0
  2  6  1  0  0  0  0
  2  8  1  0  0  0  0
  3  1  1  0  0  0  0
  4  1  1  0  0  0  0
  6 10  1  0  0  0  0
  7  2  1  0  0  0  0
  9  6  1  0  0  0  0
  9 12  1  0  0  0  0
 11  6  1  0  0  0  0
 13  9  1  0  0  0  0
 14  9  1  0  0  0  0
M  END
$$$$
