14
butane_opt
C  -3.936100   0.216961  -0.005273
C  -2.736412  -0.561901   0.049835
H  -4.892313  -0.458380   0.366349
H  -3.953424   1.204405  -1.125662
H  -4.069904   0.592989   0.589837
C  -1.446562   0.212875   0.068729
H  -2.730908  -1.302867  -0.909048
H  -2.777934  -1.047757   0.881244
C  -0.079838  -0.735374  -0.001519
H  -1.385879   0.953012   1.035975
H  -1.421811   0.737124  -0.692282
H   0.068888  -1.241559   0.842707
H   0.746556  -0.194864  -0.131555
H  -0.177235  -1.321692  -0.780809
