butane_opt
 OpenBabel08242015393D

 14 13  0  0  0  0  0  0  0  0999 V2000
   -3.9166    0.2447    0.0703 C   0  0  0  0  0  0  0  0  0  0  0  0
   -2.7235   -0.5694   -0.0684 C   0  0  0  0  0  0  0  0  0  0  0  0
   -4.8698   -0.4895    0.1300 H   0  0  0  0  0  0  0  0  0  0  0  0
   -4.0183    0.5684   -0.6704 H   0  0  0  0  0  0  0  0  0  0  0  0
   -3.5986    1.0583    1.0226 H   0  0  0  0  0  0  0  0  0  0  0  0
   -1.4298    0.2218   -0.0269 C   0  0  0  0  0  0  0  0  0  0  0  0
   -2.6840   -1.3608   -0.9725 H   0  0  0  0  0  0  0  0  0  0  0  0
   -2.7028   -1.1175    0.7621 H   0  0  0  0  0  0  0  0  0  0  0  0
   -0.1787   -0.7427    0.1107 C   0  0  0  0  0  0  0  0  0  0  0  0
   -1.4993    0.9718    0.8224 H   0  0  0  0  0  0  0  0  0  0  0  0
   -1.2889    0.9359   -0.9309 H   0  0  0  0  0  0  0  0  0  0  0  0
    0.0038   -1.7251    1.2205 H   0  0  0  0  0  0  0  0  0  0  0  0
    0.7477   -0.1592   -0.4438 H   0  0  0  0  0  0  0  0  0  0  0  0
   -0.1286   -1.0093   -0.4845 H   0  0  0  0  0  0  0  0  0  0  0  0
  1  3  1  0  0  0  0
  1  5  1  0  0  0  0
  2  6  1  0  0  0  0
  2  1  1  0  0  0  0
  2  8  1  0  0  0  0
  4  1  1  0  0  0  0
  6  9  1  0  0  0  0
  6 10  1  0  0  0  0
  7  2  1  0  0  0  0
  9 12  1  0  0  0  0
 11  6  1  0  0  0  0
 13  9  1  0  0  0  0
 14  9  1  0  0  0  0
M  END
$$$$
