14
butane_opt
C  -3.949230   0.282461  -0.000751
C  -2.691667  -0.629697   0.046110
H  -4.851845  -0.312588   0.128744
H  -4.000892   0.994283  -0.963212
H  -3.912320   0.789151   0.763065
C  -1.400879   0.165574   0.050665
H  -2.662997  -1.295743  -0.795597
H  -2.701102  -1.259115   0.938650
C  -0.172831  -0.679512   0.014560
H  -1.373945   0.868781   0.883017
H  -1.438768   0.784992  -0.832941
H  -0.114406  -1.245879   0.854804
H   0.779124  -0.066715   0.002606
H  -0.184668  -1.384164  -0.880592
