butane_opt
 OpenBabel08242015393D

 14 13  0  0  0  0  0  0  0  0999 V2000
   -3.9545    0.2348   -0.0638 C   0  0  0  0  0  0  0  0  0  0  0  0
   -2.7476   -0.5692    0.1108 C   0  0  0  0  0  0  0  0  0  0  0  0
   -4.8467   -0.3860    0.0437 H   0  0  0  0  0  0  0  0  0  0  0  0
   -3.8849    0.9329   -1.1207 H   0  0  0  0  0  0  0  0  0  0  0  0
   -4.0801    0.8311    0.7418 H   0  0  0  0  0  0  0  0  0  0  0  0
   -1.4110    0.2034    0.1162 C   0  0  0  0  0  0  0  0  0  0  0  0
   -2.5927   -1.2061   -0.7061 H   0  0  0  0  0  0  0  0  0  0  0  0
   -2.9682   -1.3122    1.1031 H   0  0  0  0  0  0  0  0  0  0  0  0
   -0.0794   -0.7053   -0.0693 C   0  0  0  0  0  0  0  0  0  0  0  0
   -1.3801    1.0010    1.0297 H   0  0  0  0  0  0  0  0  0  0  0  0
   -1.6028    0.6418   -0.5258 H   0  0  0  0  0  0  0  0  0  0  0  0
   -0.0111   -1.4363    0.9124 H   0  0  0  0  0  0  0  0  0  0  0  0
    0.7712   -0.2084   -0.2181 H   0  0  0  0  0  0  0  0  0  0  0  0
   -0.1043   -1.2874   -0.9302 H   0  0  0  0  0  0  0  0  0  0  0  0
  1  3  1  0  0  0  0
  1  2  1  0  0  0  0
  1  5  1  0  0  0  0
  2  6  1  0  0  0  0
  2  8  1  0  0  0  0
  4  1  1  0  0  0  0
  6 10  1  0  0  0  0
  7  2  1  0  0  0  0
  9  6  1  0  0  0  0
  9 12  1  0  0  0  0
 11  6  1  0  0  0  0
 13  9  1  0  0  0  0
 14  9  1  0  0  0  0
M  END
$$$$
