14
butane_opt
C  -3.910192   0.258123  -0.064754
C  -2.688038  -0.596668   0.137932
H  -5.026743  -0.486521   0.077325
H  -3.791869   0.925138  -0.945094
H  -3.971067   0.864857   0.783192
C  -1.428845   0.192728   0.052937
H  -2.677240  -1.147915  -0.660951
H  -2.732878  -1.307247   1.081814
C  -0.156590  -0.705375  -0.019635
H  -1.545741   0.852884   0.832084
H  -1.478603   0.792103  -0.769212
H  -0.178781  -0.974199   0.653224
H   0.752572  -0.151023   0.183407
H  -0.148394  -1.659617  -1.111506
