butane_opt
 OpenBabel08242015393D

 14 13  0  0  0  0  0  0  0  0999 V2000
   -3.9828    0.3027    0.0831 C   0  0  0  0  0  0  0  0  0  0  0  0
   -2.7103   -0.6462   -0.0355 C   0  0  0  0  0  0  0  0  0  0  0  0
   -4.8734   -0.2089    0.2483 H   0  0  0  0  0  0  0  0  0  0  0  0
   -4.1810    0.9769   -0.7935 H   0  0  0  0  0  0  0  0  0  0  0  0
   -3.8931    0.9759    0.9031 H   0  0  0  0  0  0  0  0  0  0  0  0
   -1.3635    0.1246   -0.0533 C   0  0  0  0  0  0  0  0  0  0  0  0
   -2.7561   -1.5281   -0.9846 H   0  0  0  0  0  0  0  0  0  0  0  0
   -2.8704   -1.1530    0.7806 H   0  0  0  0  0  0  0  0  0  0  0  0
   -0.1469   -0.6734    0.1234 C   0  0  0  0  0  0  0  0  0  0  0  0
   -1.4282    0.7562    0.7242 H   0  0  0  0  0  0  0  0  0  0  0  0
   -1.2759    0.9001   -1.0273 H   0  0  0  0  0  0  0  0  0  0  0  0
   -0.1270   -1.1882    0.9436 H   0  0  0  0  0  0  0  0  0  0  0  0
    0.8608   -0.0227   -0.0161 H   0  0  0  0  0  0  0  0  0  0  0  0
   -0.0698   -1.2495   -0.7518 H   0  0  0  0  0  0  0  0  0  0  0  0
  1  3  1  0  0  0  0
  1  5  1  0  0  0  0
  2  1  1  0  0  0  0
  2  8  1  0  0  0  0
  4  1  1  0  0  0  0
  6  2  1  0  0  0  0
  6  9  1  0  0  0  0
  6 10  1  0  0  0  0
  7  2  1  0  0  0  0
  9 12  1  0  0  0  0
 11  6  1  0  0  0  0
 13  9  1  0  0  0  0
 14  9  1  0  0  0  0
M  END
$$$$
