14
butane_opt
C  -3.907772   0.243873  -0.053807
C  -2.705347  -0.574106   0.154248
H  -4.909537  -0.493834  -0.188493
H  -3.704214   0.908374  -1.089794
H  -4.068557   0.840432   0.735579
C  -1.437551   0.184081   0.074664
H  -2.777534  -1.091660  -0.660851
H  -2.744976  -1.158452   0.982427
C  -0.154766  -0.711070  -0.036634
H  -1.232409   0.972406   0.988014
H  -1.536369   0.747409  -0.696518
H   0.045475  -1.256691   0.813467
H   0.712501  -0.194763  -0.054496
H  -0.320547  -1.495265  -1.052195
