butane_opt
 OpenBabel08242015393D

 14 13  0  0  0  0  0  0  0  0999 V2000
   -3.9509    0.2777    0.0493 C   0  0  0  0  0  0  0  0  0  0  0  0
   -2.6959   -0.6213    0.0041 C   0  0  0  0  0  0  0  0  0  0  0  0
   -4.8689   -0.3346    0.0649 H   0  0  0  0  0  0  0  0  0  0  0  0
   -4.0426    0.8626   -0.8205 H   0  0  0  0  0  0  0  0  0  0  0  0
   -3.9085    0.9819    0.9658 H   0  0  0  0  0  0  0  0  0  0  0  0
   -1.3893    0.1626   -0.0301 C   0  0  0  0  0  0  0  0  0  0  0  0
   -2.6724   -1.2923   -0.8434 H   0  0  0  0  0  0  0  0  0  0  0  0
   -2.6963   -1.2424    0.8786 H   0  0  0  0  0  0  0  0  0  0  0  0
   -0.1768   -0.6869    0.0676 C   0  0  0  0  0  0  0  0  0  0  0  0
   -1.4010    0.8178    0.7878 H   0  0  0  0  0  0  0  0  0  0  0  0
   -1.3446    0.8199   -0.9286 H   0  0  0  0  0  0  0  0  0  0  0  0
   -0.2021   -1.2653    0.9536 H   0  0  0  0  0  0  0  0  0  0  0  0
    0.7616   -0.0722    0.0683 H   0  0  0  0  0  0  0  0  0  0  0  0
   -0.0943   -1.3305   -0.7767 H   0  0  0  0  0  0  0  0  0  0  0  0
  1  3  1  0  0  0  0
  1  5  1  0  0  0  0
  2  1  1  0  0  0  0
  2  8  1  0  0  0  0
  4  1  1  0  0  0  0
  6  2  1  0  0  0  0
  6  9  1  0  0  0  0
  6 10  1  0  0  0  0
  7  2  1  0  0  0  0
  9 13  1  0  0  0  0
  9 12  1  0  0  0  0
 11  6  1  0  0  0  0
 14  9  1  0  0  0  0
M  END
$$$$
