butane_opt
 OpenBabel08242015393D

 14 13  0  0  0  0  0  0  0  0999 V2000
   -3.9320    0.2663   -0.0323 C   0  0  0  0  0  0  0  0  0  0  0  0
   -2.7119   -0.6443    0.0512 C   0  0  0  0  0  0  0  0  0  0  0  0
   -4.8910   -0.3177   -0.0811 H   0  0  0  0  0  0  0  0  0  0  0  0
   -4.0928    0.9890   -0.9665 H   0  0  0  0  0  0  0  0  0  0  0  0
   -3.9628    0.9835    0.7935 H   0  0  0  0  0  0  0  0  0  0  0  0
   -1.4010    0.2035    0.0895 C   0  0  0  0  0  0  0  0  0  0  0  0
   -2.7780   -1.2713   -0.6819 H   0  0  0  0  0  0  0  0  0  0  0  0
   -2.9312   -1.2967    0.9921 H   0  0  0  0  0  0  0  0  0  0  0  0
   -0.1282   -0.7042    0.0012 C   0  0  0  0  0  0  0  0  0  0  0  0
   -1.3791    1.0656    1.0538 H   0  0  0  0  0  0  0  0  0  0  0  0
   -1.4282    0.6503   -0.6647 H   0  0  0  0  0  0  0  0  0  0  0  0
    0.1765   -1.4984    0.9802 H   0  0  0  0  0  0  0  0  0  0  0  0
    0.7451   -0.1723   -0.4877 H   0  0  0  0  0  0  0  0  0  0  0  0
   -0.3986   -1.0598   -0.8043 H   0  0  0  0  0  0  0  0  0  0  0  0
  1  2  1  0  0  0  0
  1  5  1  0  0  0  0
  2  6  1  0  0  0  0
  2  8  1  0  0  0  0
  3  1  1  0  0  0  0
  4  1  1  0  0  0  0
  6 10  1  0  0  0  0
  7  2  1  0  0  0  0
  9  6  1  0  0  0  0
  9 12  1  0  0  0  0
 11  6  1  0  0  0  0
 13  9  1  0  0  0  0
 14  9  1  0  0  0  0
M  END
$$$$
