14
butane_opt
C  -3.936994   0.252166   0.144947
C  -2.687850  -0.575814  -0.094537
H  -5.000687  -0.456298   0.190398
H  -3.917338   0.720438  -0.684010
H  -3.761403   0.939588   1.010347
C  -1.401160   0.196331  -0.135920
H  -2.786845  -1.229190  -0.838028
H  -2.608625  -1.220256   0.822289
C  -0.185259  -0.723812   0.152877
H  -1.649630   0.798087   0.619349
H  -1.348419   0.928777  -1.087964
H  -0.320823  -1.119924   0.947413
H   0.766979  -0.165552   0.324702
H   0.139367  -1.468275  -0.694826
