butane_opt
 OpenBabel08242015393D

 14 13  0  0  0  0  0  0  0  0999 V2000
   -3.8769    0.2366   -0.0256 C   0  0  0  0  0  0  0  0  0  0  0  0
   -2.7275   -0.5924    0.0533 C   0  0  0  0  0  0  0  0  0  0  0  0
   -4.9190   -0.4225    0.3772 H   0  0  0  0  0  0  0  0  0  0  0  0
   -4.1026    1.1094   -1.1097 H   0  0  0  0  0  0  0  0  0  0  0  0
   -3.7946    0.6840    0.7121 H   0  0  0  0  0  0  0  0  0  0  0  0
   -1.4174    0.2441    0.0954 C   0  0  0  0  0  0  0  0  0  0  0  0
   -2.7876   -1.3146   -0.8364 H   0  0  0  0  0  0  0  0  0  0  0  0
   -2.8155   -1.2100    0.9285 H   0  0  0  0  0  0  0  0  0  0  0  0
   -0.1583   -0.7355   -0.0075 C   0  0  0  0  0  0  0  0  0  0  0  0
   -1.5021    0.8777    0.7896 H   0  0  0  0  0  0  0  0  0  0  0  0
   -1.4801    0.8904   -0.8312 H   0  0  0  0  0  0  0  0  0  0  0  0
    0.0224   -1.2662    0.8114 H   0  0  0  0  0  0  0  0  0  0  0  0
    0.6968   -0.1562    0.1778 H   0  0  0  0  0  0  0  0  0  0  0  0
   -0.1569   -1.5114   -0.9839 H   0  0  0  0  0  0  0  0  0  0  0  0
  1  2  1  0  0  0  0
  1  3  1  0  0  0  0
  1  5  1  0  0  0  0
  2  6  1  0  0  0  0
  2  8  1  0  0  0  0
  4  1  1  0  0  0  0
  6 10  1  0  0  0  0
  7  2  1  0  0  0  0
  9  6  1  0  0  0  0
  9 13  1  0  0  0  0
  9 12  1  0  0  0  0
 11  6  1  0  0  0  0
 14  9  1  0  0  0  0
M  END
$$$$
