butane_opt
 OpenBabel08242015393D

 14 13  0  0  0  0  0  0  0  0999 V2000
   -3.9773    0.3174   -0.0625 C   0  0  0  0  0  0  0  0  0  0  0  0
   -2.7280   -0.6556    0.1107 C   0  0  0  0  0  0  0  0  0  0  0  0
   -4.9264   -0.2227   -0.1399 H   0  0  0  0  0  0  0  0  0  0  0  0
   -3.9601    0.9186   -0.9635 H   0  0  0  0  0  0  0  0  0  0  0  0
   -4.2129    0.8214    0.6606 H   0  0  0  0  0  0  0  0  0  0  0  0
   -1.3695    0.1521    0.1359 C   0  0  0  0  0  0  0  0  0  0  0  0
   -2.4957   -1.4247   -0.7327 H   0  0  0  0  0  0  0  0  0  0  0  0
   -2.7128   -1.2262    1.0168 H   0  0  0  0  0  0  0  0  0  0  0  0
   -0.1430   -0.6603   -0.0334 C   0  0  0  0  0  0  0  0  0  0  0  0
   -1.3089    0.8307    1.0378 H   0  0  0  0  0  0  0  0  0  0  0  0
   -1.2743    0.6372   -0.7072 H   0  0  0  0  0  0  0  0  0  0  0  0
    0.1378   -1.3578    0.8951 H   0  0  0  0  0  0  0  0  0  0  0  0
    0.8055   -0.0395   -0.6190 H   0  0  0  0  0  0  0  0  0  0  0  0
   -0.4722   -1.2316   -0.8300 H   0  0  0  0  0  0  0  0  0  0  0  0
  1  2  1  0  0  0  0
  1  5  1  0  0  0  0
  2  6  1  0  0  0  0
  2  8  1  0  0  0  0
  3  1  1  0  0  0  0
  4  1  1  0  0  0  0
  6 10  1  0  0  0  0
  7  2  1  0  0  0  0
  9  6  1  0  0  0  0
  9 12  1  0  0  0  0
 11  6  1  0  0  0  0
 13  9  1  0  0  0  0
 14  9  1  0  0  0  0
M  END
$$$$
