butane_opt
 OpenBabel08242015393D

 14 13  0  0  0  0  0  0  0  0999 V2000
   -3.9401    0.2997   -0.0512 C   0  0  0  0  0  0  0  0  0  0  0  0
   -2.7026   -0.6512    0.0887 C   0  0  0  0  0  0  0  0  0  0  0  0
   -4.8467   -0.2936   -0.1283 H   0  0  0  0  0  0  0  0  0  0  0  0
   -3.7502    0.9664   -1.0300 H   0  0  0  0  0  0  0  0  0  0  0  0
   -4.2147    0.9901    0.7506 H   0  0  0  0  0  0  0  0  0  0  0  0
   -1.3918    0.1706    0.1386 C   0  0  0  0  0  0  0  0  0  0  0  0
   -2.6152   -1.3919   -0.6852 H   0  0  0  0  0  0  0  0  0  0  0  0
   -2.6180   -1.3408    1.0132 H   0  0  0  0  0  0  0  0  0  0  0  0
   -0.1795   -0.6566   -0.0410 C   0  0  0  0  0  0  0  0  0  0  0  0
   -1.2158    0.7251    0.9577 H   0  0  0  0  0  0  0  0  0  0  0  0
   -1.3978    0.7253   -0.6908 H   0  0  0  0  0  0  0  0  0  0  0  0
    0.0290   -1.3890    0.9036 H   0  0  0  0  0  0  0  0  0  0  0  0
    0.7192   -0.0999   -0.4288 H   0  0  0  0  0  0  0  0  0  0  0  0
   -0.5438   -1.2847   -0.8328 H   0  0  0  0  0  0  0  0  0  0  0  0
  1  2  1  0  0  0  0
  1  5  1  0  0  0  0
  2  6  1  0  0  0  0
  2  8  1  0  0  0  0
  3  1  1  0  0  0  0
  4  1  1  0  0  0  0
  6 10  1  0  0  0  0
  7  2  1  0  0  0  0
  9  6  1  0  0  0  0
  9 12  1  0  0  0  0
 11  6  1  0  0  0  0
 13  9  1  0  0  0  0
 14  9  1  0  0  0  0
M  END
$$$$
