14
butane_opt
C  -3.934425   0.298577  -0.079392
C  -2.665704  -0.660610   0.080677
H  -4.745403  -0.210402   0.574299
H  -4.115804   1.252572  -1.181976
H  -3.696365   0.545522   0.512429
C  -1.412233   0.167884   0.136473
H  -2.642139  -1.341817  -0.734244
H  -2.684494  -1.237528   0.958556
C  -0.214936  -0.671698  -0.038930
H  -1.254588   0.869673   1.049155
H  -1.432234   0.649314  -0.711219
H  -0.198668  -1.166972   0.711129
H   0.695689   0.042591   0.054941
H  -0.256858  -1.449432  -1.024225
