14
butane_opt
C  -3.919527   0.252145  -0.057355
C  -2.710243  -0.628177   0.111051
H  -4.705405  -0.207045  -0.197238
H  -3.883083   1.089364  -1.129195
H  -4.071878   0.858644   0.730418
C  -1.405671   0.169898   0.140776
H  -2.668684  -1.255367  -0.678180
H  -2.714836  -1.276907   1.022243
C  -0.184097  -0.683881  -0.075942
H  -1.358410   1.168491   1.192092
H  -1.366842   0.684346  -0.602509
H  -0.023607  -1.644088   0.911171
H   0.782469  -0.042548  -0.445050
H  -0.382661  -1.148164  -0.800573
