14
butane_opt
C  -3.966270   0.303913  -0.102517
C  -2.706385  -0.680437   0.152941
H  -4.706254  -0.153436  -0.127508
H  -3.936278   0.878852  -0.963893
H  -4.379564   0.976839   0.663565
C  -1.345192   0.153286   0.143814
H  -2.603162  -1.296931  -0.533060
H  -2.855677  -1.268547   1.037287
C  -0.169531  -0.669244  -0.063100
H  -1.333744   0.923322   1.058410
H  -1.389274   0.735913  -0.680048
H   0.165645  -1.232217   0.810030
H   0.731713  -0.013895  -0.446401
H  -0.486130  -1.299952  -0.944349
