14
butane_opt
C  -3.970216   0.239106  -0.067375
C  -2.702131  -0.581369   0.073537
H  -5.111406  -0.480840  -0.093345
H  -3.968510   0.888524  -0.952836
H  -3.826832   0.860786   0.853160
C  -1.422769   0.244042   0.124782
H  -2.784358  -1.199583  -0.667856
H  -2.782352  -1.389847   1.065195
C  -0.106239  -0.725493  -0.035976
H  -1.368695   1.030341   1.015771
H  -1.449505   0.715406  -0.694307
H   0.232295  -1.527787   0.969593
H   0.722663  -0.211335  -0.369446
H  -0.257085  -1.283699  -0.834116
