butane_opt
 OpenBabel08242015393D

 14 13  0  0  0  0  0  0  0  0999 V2000
   -3.9329    0.2339    0.0381 C   0  0  0  0  0  0  0  0  0  0  0  0
   -2.6986   -0.5592    0.0030 C   0  0  0  0  0  0  0  0  0  0  0  0
   -4.9366   -0.3857    0.1845 H   0  0  0  0  0  0  0  0  0  0  0  0
   -4.0450    0.7680   -0.7597 H   0  0  0  0  0  0  0  0  0  0  0  0
   -3.7670    0.8789    0.9139 H   0  0  0  0  0  0  0  0  0  0  0  0
   -1.4212    0.2068   -0.0126 C   0  0  0  0  0  0  0  0  0  0  0  0
   -2.6369   -1.2685   -0.8530 H   0  0  0  0  0  0  0  0  0  0  0  0
   -2.5967   -1.3677    0.9121 H   0  0  0  0  0  0  0  0  0  0  0  0
   -0.1528   -0.7226    0.0567 C   0  0  0  0  0  0  0  0  0  0  0  0
   -1.5022    0.8381    0.7521 H   0  0  0  0  0  0  0  0  0  0  0  0
   -1.3896    0.9850   -1.0486 H   0  0  0  0  0  0  0  0  0  0  0  0
   -0.3215   -1.2548    0.9282 H   0  0  0  0  0  0  0  0  0  0  0  0
    0.7482   -0.1443    0.3228 H   0  0  0  0  0  0  0  0  0  0  0  0
   -0.0845   -1.4509   -0.9329 H   0  0  0  0  0  0  0  0  0  0  0  0
  1  3  1  0  0  0  0
  1  5  1  0  0  0  0
  2  1  1  0  0  0  0
  2  8  1  0  0  0  0
  4  1  1  0  0  0  0
  6  2  1  0  0  0  0
  6  9  1  0  0  0  0
  6 10  1  0  0  0  0
  7  2  1  0  0  0  0
  9 13  1  0  0  0  0
  9 12  1  0  0  0  0
 11  6  1  0  0  0  0
 14  9  1  0  0  0  0
M  END
$$$$
