butane_opt
 OpenBabel08242015393D

 14 13  0  0  0  0  0  0  0  0999 V2000
   -3.9359    0.2574   -0.0018 C   0  0  0  0  0  0  0  0  0  0  0  0
   -2.7026   -0.6082    0.0538 C   0  0  0  0  0  0  0  0  0  0  0  0
   -4.8769   -0.3680    0.1126 H   0  0  0  0  0  0  0  0  0  0  0  0
   -3.9613    0.9595   -0.9707 H   0  0  0  0  0  0  0  0  0  0  0  0
   -3.9262    0.7841    0.7553 H   0  0  0  0  0  0  0  0  0  0  0  0
   -1.4200    0.2056    0.0386 C   0  0  0  0  0  0  0  0  0  0  0  0
   -2.6642   -1.2732   -0.7890 H   0  0  0  0  0  0  0  0  0  0  0  0
   -2.7369   -1.2703    0.9989 H   0  0  0  0  0  0  0  0  0  0  0  0
   -0.1564   -0.7022    0.0013 C   0  0  0  0  0  0  0  0  0  0  0  0
   -1.3512    0.9658    0.9617 H   0  0  0  0  0  0  0  0  0  0  0  0
   -1.4101    0.7733   -0.8066 H   0  0  0  0  0  0  0  0  0  0  0  0
   -0.1083   -1.3105    0.8796 H   0  0  0  0  0  0  0  0  0  0  0  0
    0.7315   -0.1471    0.0405 H   0  0  0  0  0  0  0  0  0  0  0  0
   -0.1330   -1.4219   -0.8570 H   0  0  0  0  0  0  0  0  0  0  0  0
  1  2  1  0  0  0  0
  1  3  1  0  0  0  0
  1  5  1  0  0  0  0
  2  8  1  0  0  0  0
  4  1  1  0  0  0  0
  6  2  1  0  0  0  0
  6 10  1  0  0  0  0
  7  2  1  0  0  0  0
  9  6  1  0  0  0  0
  9 13  1  0  0  0  0
  9 12  1  0  0  0  0
 11  6  1  0  0  0  0
 14  9  1  0  0  0  0
M  END
$$$$
