butane_opt
 OpenBabel08242015393D

 14 13  0  0  0  0  0  0  0  0999 V2000
   -3.8877    0.2373    0.0731 C   0  0  0  0  0  0  0  0  0  0  0  0
   -2.7308   -0.5903    0.0149 C   0  0  0  0  0  0  0  0  0  0  0  0
   -4.8957   -0.4388   -0.0371 H   0  0  0  0  0  0  0  0  0  0  0  0
   -3.6424    0.7329   -0.7467 H   0  0  0  0  0  0  0  0  0  0  0  0
   -3.9991    0.8919    0.9600 H   0  0  0  0  0  0  0  0  0  0  0  0
   -1.4207    0.2366   -0.0642 C   0  0  0  0  0  0  0  0  0  0  0  0
   -2.7635   -1.2508   -0.7935 H   0  0  0  0  0  0  0  0  0  0  0  0
   -2.5569   -1.0692    0.8590 H   0  0  0  0  0  0  0  0  0  0  0  0
   -0.1757   -0.7340    0.0740 C   0  0  0  0  0  0  0  0  0  0  0  0
   -1.4154    0.8401    0.7060 H   0  0  0  0  0  0  0  0  0  0  0  0
   -1.4569    0.9914   -1.0416 H   0  0  0  0  0  0  0  0  0  0  0  0
   -0.2534   -1.2354    0.9523 H   0  0  0  0  0  0  0  0  0  0  0  0
    0.5965   -0.3058    0.2921 H   0  0  0  0  0  0  0  0  0  0  0  0
   -0.0284   -1.4817   -0.8771 H   0  0  0  0  0  0  0  0  0  0  0  0
  1  5  1  0  0  0  0
  2  1  1  0  0  0  0
  2  8  1  0  0  0  0
  3  1  1  0  0  0  0
  4  1  1  0  0  0  0
  6  2  1  0  0  0  0
  6  9  1  0  0  0  0
  6 10  1  0  0  0  0
  7  2  1  0  0  0  0
  9 13  1  0  0  0  0
  9 12  1  0  0  0  0
 11  6  1  0  0  0  0
 14  9  1  0  0  0  0
M  END
$$$$
