14
butane_opt
C  -3.960208   0.220371   0.030128
C  -2.756837  -0.545519   0.066911
H  -4.911952  -0.400841  -0.311402
H  -3.899695   0.555860  -0.731167
H  -3.952454   1.136100   1.023665
C  -1.390046   0.211709   0.002762
H  -2.701924  -1.287155  -0.813221
H  -2.737006  -1.173778   0.880670
C  -0.110989  -0.728395   0.036703
H  -1.403501   0.817088   0.751593
H  -1.255130   1.091298  -1.146424
H  -0.063109  -1.419453   0.944333
H   0.682521  -0.309683   0.008410
H  -0.130175  -1.414116  -0.777204
