butane_opt
 OpenBabel08242015393D

 14 13  0  0  0  0  0  0  0  0999 V2000
   -3.9702    0.2391   -0.0674 C   0  0  0  0  0  0  0  0  0  0  0  0
   -2.7021   -0.5814    0.0735 C   0  0  0  0  0  0  0  0  0  0  0  0
   -5.1114   -0.4808   -0.0933 H   0  0  0  0  0  0  0  0  0  0  0  0
   -3.9685    0.8885   -0.9528 H   0  0  0  0  0  0  0  0  0  0  0  0
   -3.8268    0.8608    0.8532 H   0  0  0  0  0  0  0  0  0  0  0  0
   -1.4228    0.2440    0.1248 C   0  0  0  0  0  0  0  0  0  0  0  0
   -2.7844   -1.1996   -0.6679 H   0  0  0  0  0  0  0  0  0  0  0  0
   -2.7824   -1.3898    1.0652 H   0  0  0  0  0  0  0  0  0  0  0  0
   -0.1062   -0.7255   -0.0360 C   0  0  0  0  0  0  0  0  0  0  0  0
   -1.3687    1.0303    1.0158 H   0  0  0  0  0  0  0  0  0  0  0  0
   -1.4495    0.7154   -0.6943 H   0  0  0  0  0  0  0  0  0  0  0  0
    0.2323   -1.5278    0.9696 H   0  0  0  0  0  0  0  0  0  0  0  0
    0.7227   -0.2113   -0.3694 H   0  0  0  0  0  0  0  0  0  0  0  0
   -0.2571   -1.2837   -0.8341 H   0  0  0  0  0  0  0  0  0  0  0  0
  1  2  1  0  0  0  0
  1  5  1  0  0  0  0
  2  6  1  0  0  0  0
  2  8  1  0  0  0  0
  3  1  1  0  0  0  0
  4  1  1  0  0  0  0
  6 10  1  0  0  0  0
  7  2  1  0  0  0  0
  9  6  1  0  0  0  0
  9 12  1  0  0  0  0
 11  6  1  0  0  0  0
 13  9  1  0  0  0  0
 14  9  1  0  0  0  0
M  END
$$$$
