14
butane_opt
C  -3.958179   0.231157   0.042562
C  -2.740029  -0.570168   0.030619
H  -4.870537  -0.452987  -0.375826
H  -3.949110   0.487023  -0.580816
H  -3.955866   1.167221   1.157769
C  -1.420803   0.228759  -0.039557
H  -2.757709  -1.126926  -0.779962
H  -2.771338  -1.307537   0.950522
C  -0.088296  -0.750093   0.051726
H  -1.435981   0.938474   0.790823
H  -1.281193   1.046291  -1.029971
H  -0.170881  -1.444391   1.028606
H   0.779017  -0.226111   0.010016
H  -0.082441  -1.270648  -0.729252
