butane_opt
 OpenBabel08242015393D

 14 13  0  0  0  0  0  0  0  0999 V2000
   -3.9266    0.3077    0.0483 C   0  0  0  0  0  0  0  0  0  0  0  0
   -2.6703   -0.6692   -0.0005 C   0  0  0  0  0  0  0  0  0  0  0  0
   -4.8106   -0.2843    0.3486 H   0  0  0  0  0  0  0  0  0  0  0  0
   -4.2052    1.0877   -0.9002 H   0  0  0  0  0  0  0  0  0  0  0  0
   -3.7032    0.7665    0.7886 H   0  0  0  0  0  0  0  0  0  0  0  0
   -1.4054    0.1506   -0.0367 C   0  0  0  0  0  0  0  0  0  0  0  0
   -2.6521   -1.4311   -0.9434 H   0  0  0  0  0  0  0  0  0  0  0  0
   -2.5924   -1.2618    0.8583 H   0  0  0  0  0  0  0  0  0  0  0  0
   -0.1924   -0.6416    0.0579 C   0  0  0  0  0  0  0  0  0  0  0  0
   -1.4830    0.9202    0.9389 H   0  0  0  0  0  0  0  0  0  0  0  0
   -1.3709    0.6987   -0.8786 H   0  0  0  0  0  0  0  0  0  0  0  0
   -0.4803   -1.3445    1.0210 H   0  0  0  0  0  0  0  0  0  0  0  0
    0.6512   -0.0055    0.2138 H   0  0  0  0  0  0  0  0  0  0  0  0
   -0.0623   -1.3824   -0.8743 H   0  0  0  0  0  0  0  0  0  0  0  0
  1  3  1  0  0  0  0
  1  5  1  0  0  0  0
  2  1  1  0  0  0  0
  2  8  1  0  0  0  0
  4  1  1  0  0  0  0
  6  2  1  0  0  0  0
  6  9  1  0  0  0  0
  6 10  1  0  0  0  0
  7  2  1  0  0  0  0
  9 13  1  0  0  0  0
  9 12  1  0  0  0  0
 11  6  1  0  0  0  0
 14  9  1  0  0  0  0
M  END
$$$$
