14
butane_opt
C  -3.996464   0.313144  -0.045209
C  -2.706741  -0.671258   0.083142
H  -4.734876  -0.120752   0.264751
H  -4.140013   1.268153  -1.202837
H  -3.892583   0.568514   0.512391
C  -1.367806   0.142219   0.132143
H  -2.773451  -1.392395  -0.842511
H  -2.719545  -1.333742   0.985380
C  -0.163098  -0.646391  -0.059400
H  -1.165799   0.908570   1.150765
H  -1.366645   0.701404  -0.689853
H  -0.097805  -1.262536   0.912543
H   0.727563  -0.064031  -0.043958
H  -0.103175  -1.359931  -0.991332
