14
butane_opt
C  -3.907930   0.239078   0.058340
C  -2.716586  -0.597122   0.030093
H  -4.856832  -0.450327  -0.236070
H  -3.918952   0.593352  -0.691458
H  -4.053388   1.117170   1.093962
C  -1.419951   0.250769  -0.062453
H  -2.947976  -1.274457  -0.890155
H  -2.809256  -1.192529   0.841540
C  -0.137856  -0.740475   0.071281
H  -1.528304   1.083566   0.842689
H  -1.340830   0.858221  -0.935091
H  -0.136040  -1.653637   1.120382
H   0.754046  -0.155033  -0.172587
H   0.017858  -1.244151  -0.675608
