14
butane_opt
C  -3.917835   0.250155  -0.074924
C  -2.691499  -0.612135   0.169761
H  -4.856862  -0.399259   0.108742
H  -4.075498   1.052421  -1.118311
H  -4.099341   0.811062   0.736625
C  -1.397220   0.209086   0.034646
H  -2.851624  -1.119119  -0.573534
H  -2.801226  -1.362419   1.176582
C  -0.158635  -0.710212  -0.068875
H  -1.247077   1.032575   1.018992
H  -1.574865   0.701530  -0.820392
H  -0.272950  -0.903464   0.661206
H   0.714044  -0.133774   0.616955
H   0.050526  -1.815715  -1.140539
