butane_opt
 OpenBabel08242015393D

 14 13  0  0  0  0  0  0  0  0999 V2000
   -3.9565    0.2778    0.0961 C   0  0  0  0  0  0  0  0  0  0  0  0
   -2.6696   -0.6043   -0.0630 C   0  0  0  0  0  0  0  0  0  0  0  0
   -4.8908   -0.4377    0.1897 H   0  0  0  0  0  0  0  0  0  0  0  0
   -4.1762    0.8649   -0.7399 H   0  0  0  0  0  0  0  0  0  0  0  0
   -3.6635    0.8626    0.9262 H   0  0  0  0  0  0  0  0  0  0  0  0
   -1.3827    0.1693   -0.0803 C   0  0  0  0  0  0  0  0  0  0  0  0
   -2.6680   -1.3321   -1.0048 H   0  0  0  0  0  0  0  0  0  0  0  0
   -2.6045   -1.2880    0.9307 H   0  0  0  0  0  0  0  0  0  0  0  0
   -0.1787   -0.6861    0.1165 C   0  0  0  0  0  0  0  0  0  0  0  0
   -1.4599    0.9099    0.7661 H   0  0  0  0  0  0  0  0  0  0  0  0
   -1.4520    0.8217   -1.0028 H   0  0  0  0  0  0  0  0  0  0  0  0
   -0.3179   -1.2652    1.0788 H   0  0  0  0  0  0  0  0  0  0  0  0
    0.6625   -0.1142    0.1491 H   0  0  0  0  0  0  0  0  0  0  0  0
   -0.1817   -1.3921   -0.6968 H   0  0  0  0  0  0  0  0  0  0  0  0
  1  3  1  0  0  0  0
  1  5  1  0  0  0  0
  2  1  1  0  0  0  0
  2  8  1  0  0  0  0
  4  1  1  0  0  0  0
  6  2  1  0  0  0  0
  6  9  1  0  0  0  0
  6 10  1  0  0  0  0
  7  2  1  0  0  0  0
  9 13  1  0  0  0  0
  9 12  1  0  0  0  0
 11  6  1  0  0  0  0
 14  9  1  0  0  0  0
M  END
$$$$
