14
butane_opt
C  -3.978321   0.299368   0.043250
C  -2.689604  -0.668747   0.035767
H  -4.722085  -0.221807  -0.149981
H  -3.957315   0.644502  -0.660184
H  -4.187770   1.274692   1.092240
C  -1.364713   0.135752  -0.082259
H  -2.812078  -1.320476  -0.808499
H  -2.762392  -1.220422   0.993261
C  -0.146924  -0.664483   0.068571
H  -1.201756   0.925597   0.845930
H  -1.483860   0.869062  -1.028782
H  -0.368648  -1.320076   1.017386
H   0.775410  -0.054834   0.148288
H  -0.149431  -1.280553  -0.740086
