butane_opt
 OpenBabel08242015393D

 14 13  0  0  0  0  0  0  0  0999 V2000
   -3.9435    0.2355   -0.0603 C   0  0  0  0  0  0  0  0  0  0  0  0
   -2.6851   -0.5676    0.0609 C   0  0  0  0  0  0  0  0  0  0  0  0
   -4.8014   -0.3438    0.1728 H   0  0  0  0  0  0  0  0  0  0  0  0
   -3.8288    0.9064   -0.9821 H   0  0  0  0  0  0  0  0  0  0  0  0
   -3.8910    0.8520    0.7444 H   0  0  0  0  0  0  0  0  0  0  0  0
   -1.3913    0.2087    0.1437 C   0  0  0  0  0  0  0  0  0  0  0  0
   -2.6859   -1.3135   -0.8513 H   0  0  0  0  0  0  0  0  0  0  0  0
   -2.8561   -1.2840    1.0371 H   0  0  0  0  0  0  0  0  0  0  0  0
   -0.1906   -0.7159   -0.0281 C   0  0  0  0  0  0  0  0  0  0  0  0
   -1.3184    0.8288    1.0198 H   0  0  0  0  0  0  0  0  0  0  0  0
   -1.4746    0.8350   -0.7530 H   0  0  0  0  0  0  0  0  0  0  0  0
    0.0969   -1.4881    0.9083 H   0  0  0  0  0  0  0  0  0  0  0  0
    0.5905   -0.2004   -0.3516 H   0  0  0  0  0  0  0  0  0  0  0  0
   -0.3259   -1.1825   -0.8681 H   0  0  0  0  0  0  0  0  0  0  0  0
  1  2  1  0  0  0  0
  1  3  1  0  0  0  0
  1  5  1  0  0  0  0
  2  6  1  0  0  0  0
  2  8  1  0  0  0  0
  4  1  1  0  0  0  0
  6 10  1  0  0  0  0
  7  2  1  0  0  0  0
  9  6  1  0  0  0  0
  9 12  1  0  0  0  0
 11  6  1  0  0  0  0
 13  9  1  0  0  0  0
 14  9  1  0  0  0  0
M  END
$$$$
