14
butane_opt
C  -3.875436   0.238035  -0.033510
C  -2.708806  -0.570597   0.132447
H  -4.890486  -0.378399  -0.386349
H  -3.609609   0.597098  -0.762124
H  -4.263844   1.151288   0.901808
C  -1.413698   0.232242   0.007369
H  -2.763205  -1.257765  -0.661539
H  -2.693527  -1.443934   1.158801
C  -0.188920  -0.740380  -0.008477
H  -1.295562   0.969664   0.923194
H  -1.540018   0.792665  -0.777621
H  -0.122619  -1.250996   0.812201
H   0.696076  -0.118137  -0.089730
H  -0.262739  -1.464291  -0.831230
