14
butane_opt
C  -3.891878   0.232881  -0.039582
C  -2.705851  -0.554476   0.130607
H  -4.822573  -0.354155   0.132548
H  -4.023286   0.986122  -1.036522
H  -3.935382   0.728947   0.654043
C  -1.426274   0.214297   0.069929
H  -2.674910  -1.266364  -0.742502
H  -2.872545  -1.379453   1.089199
C  -0.172997  -0.732568  -0.031819
H  -1.330049   0.751525   0.795090
H  -1.353284   0.926881  -0.889400
H  -0.329940  -0.847126   0.614123
H   0.680484  -0.181893   0.390643
H   0.035381  -1.776358  -1.176653
