butane_opt
 OpenBabel08242015393D

 14 13  0  0  0  0  0  0  0  0999 V2000
   -3.9062    0.2805    0.0535 C   0  0  0  0  0  0  0  0  0  0  0  0
   -2.6779   -0.6554   -0.0495 C   0  0  0  0  0  0  0  0  0  0  0  0
   -4.7661   -0.2345    0.2213 H   0  0  0  0  0  0  0  0  0  0  0  0
   -4.1881    0.8723   -0.8118 H   0  0  0  0  0  0  0  0  0  0  0  0
   -3.7740    1.0385    0.9998 H   0  0  0  0  0  0  0  0  0  0  0  0
   -1.4203    0.1397   -0.0220 C   0  0  0  0  0  0  0  0  0  0  0  0
   -2.6508   -1.2813   -0.8498 H   0  0  0  0  0  0  0  0  0  0  0  0
   -2.7032   -1.2086    0.7191 H   0  0  0  0  0  0  0  0  0  0  0  0
   -0.2096   -0.6497    0.0984 C   0  0  0  0  0  0  0  0  0  0  0  0
   -1.4446    0.8652    0.8964 H   0  0  0  0  0  0  0  0  0  0  0  0
   -1.4906    0.8083   -0.9228 H   0  0  0  0  0  0  0  0  0  0  0  0
   -0.0519   -1.5033    1.1061 H   0  0  0  0  0  0  0  0  0  0  0  0
    0.8208   -0.0531   -0.1650 H   0  0  0  0  0  0  0  0  0  0  0  0
   -0.2477   -1.1252   -0.6819 H   0  0  0  0  0  0  0  0  0  0  0  0
  1  3  1  0  0  0  0
  1  5  1  0  0  0  0
  2  6  1  0  0  0  0
  2  1  1  0  0  0  0
  2  8  1  0  0  0  0
  4  1  1  0  0  0  0
  6  9  1  0  0  0  0
  6 10  1  0  0  0  0
  7  2  1  0  0  0  0
  9 12  1  0  0  0  0
 11  6  1  0  0  0  0
 13  9  1  0  0  0  0
 14  9  1  0  0  0  0
M  END
$$$$
