14
butane_opt
C  -3.961866   0.271069  -0.013535
C  -2.698822  -0.631426   0.074407
H  -4.836325  -0.306667  -0.001358
H  -3.967906   0.898184  -0.924856
H  -4.058137   0.982685   0.876843
C  -1.396406   0.180542   0.035370
H  -2.632028  -1.303764  -0.759168
H  -2.755098  -1.297231   0.989504
C  -0.146933  -0.686919   0.005430
H  -1.336357   0.908632   0.920100
H  -1.428425   0.758658  -0.854316
H  -0.144839  -1.287100   0.873499
H   0.771821  -0.073101  -0.026196
H  -0.184967  -1.343206  -0.863300
