14
butane_opt
C  -3.962732   0.274877   0.040633
C  -2.701245  -0.624303   0.006050
H  -4.874674  -0.361496   0.060278
H  -4.011782   0.843080  -0.816964
H  -3.997495   1.034701   0.948729
C  -1.391001   0.176458  -0.021573
H  -2.727227  -1.355893  -0.853845
H  -2.621485  -1.249288   0.884767
C  -0.154876  -0.689089   0.057956
H  -1.364170   0.886399   0.865520
H  -1.357020   0.801202  -0.905739
H  -0.159223  -1.390866   1.030554
H   0.768280  -0.082408  -0.033540
H  -0.154029  -1.249714  -0.721577
