14
butane_opt
C  -3.942828   0.238227   0.106005
C  -2.751505  -0.569867  -0.078676
H  -4.870279  -0.308947   0.475236
H  -3.993656   0.965773  -0.870901
H  -3.589612   0.622839   0.803367
C  -1.430129   0.230779  -0.049176
H  -2.781872  -1.378010  -1.038485
H  -2.783554  -0.989145   0.774484
C  -0.113504  -0.747651   0.104932
H  -1.467935   0.788655   0.725476
H  -1.315978   0.858183  -0.941709
H  -0.285431  -1.300262   1.067031
H   0.838115  -0.158182   0.103942
H   0.074058  -1.386155  -0.684298
