butane_opt
 OpenBabel08242015393D

 14 13  0  0  0  0  0  0  0  0999 V2000
   -3.9326    0.2946   -0.0784 C   0  0  0  0  0  0  0  0  0  0  0  0
   -2.6565   -0.6120    0.0883 C   0  0  0  0  0  0  0  0  0  0  0  0
   -4.9357   -0.3564    0.0258 H   0  0  0  0  0  0  0  0  0  0  0  0
   -3.9778    0.9455   -1.0538 H   0  0  0  0  0  0  0  0  0  0  0  0
   -4.0894    0.9458    0.7927 H   0  0  0  0  0  0  0  0  0  0  0  0
   -1.3849    0.1124    0.1448 C   0  0  0  0  0  0  0  0  0  0  0  0
   -2.5419   -1.2801   -0.7693 H   0  0  0  0  0  0  0  0  0  0  0  0
   -2.7330   -1.3779    1.1407 H   0  0  0  0  0  0  0  0  0  0  0  0
   -0.2149   -0.6570   -0.0641 C   0  0  0  0  0  0  0  0  0  0  0  0
   -1.2288    0.8310    1.0987 H   0  0  0  0  0  0  0  0  0  0  0  0
   -1.5699    0.7164   -0.6372 H   0  0  0  0  0  0  0  0  0  0  0  0
   -0.0386   -1.4085    0.9452 H   0  0  0  0  0  0  0  0  0  0  0  0
    0.7605    0.0696   -0.3433 H   0  0  0  0  0  0  0  0  0  0  0  0
   -0.3974   -1.1996   -0.8267 H   0  0  0  0  0  0  0  0  0  0  0  0
  1  3  1  0  0  0  0
  1  2  1  0  0  0  0
  1  5  1  0  0  0  0
  2  6  1  0  0  0  0
  2  8  1  0  0  0  0
  4  1  1  0  0  0  0
  6 10  1  0  0  0  0
  7  2  1  0  0  0  0
  9  6  1  0  0  0  0
  9 12  1  0  0  0  0
 11  6  1  0  0  0  0
 13  9  1  0  0  0  0
 14  9  1  0  0  0  0
M  END
$$$$
