butane_opt
 OpenBabel08242015393D

 14 12  0  0  0  0  0  0  0  0999 V2000
   -3.9379    0.2577    0.0777 C   0  0  0  0  0  0  0  0  0  0  0  0
   -2.7275   -0.6216    0.0097 C   0  0  0  0  0  0  0  0  0  0  0  0
   -4.9516   -0.4628   -0.3951 H   0  0  0  0  0  0  0  0  0  0  0  0
   -3.8022    0.5860   -0.6279 H   0  0  0  0  0  0  0  0  0  0  0  0
   -3.9710    1.3042    1.2230 H   0  0  0  0  0  0  0  0  0  0  0  0
   -1.4089    0.2273   -0.0888 C   0  0  0  0  0  0  0  0  0  0  0  0
   -2.8074   -1.2243   -0.8631 H   0  0  0  0  0  0  0  0  0  0  0  0
   -2.6378   -1.1911    0.9046 H   0  0  0  0  0  0  0  0  0  0  0  0
   -0.1556   -0.7274    0.0963 C   0  0  0  0  0  0  0  0  0  0  0  0
   -1.3876    0.7423    0.7025 H   0  0  0  0  0  0  0  0  0  0  0  0
   -1.3395    0.9111   -0.9697 H   0  0  0  0  0  0  0  0  0  0  0  0
   -0.0082   -1.4374    1.0651 H   0  0  0  0  0  0  0  0  0  0  0  0
    0.7029   -0.1352   -0.0140 H   0  0  0  0  0  0  0  0  0  0  0  0
   -0.0508   -1.2242   -0.6887 H   0  0  0  0  0  0  0  0  0  0  0  0
  2  1  1  0  0  0  0
  2  8  1  0  0  0  0
  3  1  1  0  0  0  0
  4  1  1  0  0  0  0
  6  2  1  0  0  0  0
  6  9  1  0  0  0  0
  6 10  1  0  0  0  0
  7  2  1  0  0  0  0
  9 12  1  0  0  0  0
 11  6  1  0  0  0  0
 13  9  1  0  0  0  0
 14  9  1  0  0  0  0
M  RAD  2   1   2   5   2
M  END
$$$$
