14
butane_opt
C  -3.876949   0.236570  -0.025566
C  -2.727537  -0.592366   0.053347
H  -4.918985  -0.422476   0.377232
H  -4.102642   1.109397  -1.109714
H  -3.794583   0.683953   0.712077
C  -1.417417   0.244136   0.095364
H  -2.787618  -1.314562  -0.836372
H  -2.815510  -1.210039   0.928481
C  -0.158317  -0.735528  -0.007499
H  -1.502130   0.877676   0.789551
H  -1.480120   0.890393  -0.831156
H   0.022423  -1.266219   0.811418
H   0.696831  -0.156168   0.177798
H  -0.156913  -1.511409  -0.983942
