butane_opt
 OpenBabel08242015393D

 14 13  0  0  0  0  0  0  0  0999 V2000
   -3.9761    0.2801   -0.0460 C   0  0  0  0  0  0  0  0  0  0  0  0
   -2.7147   -0.6251    0.1143 C   0  0  0  0  0  0  0  0  0  0  0  0
   -4.8289   -0.2491    0.0025 H   0  0  0  0  0  0  0  0  0  0  0  0
   -3.9585    1.0355   -1.0913 H   0  0  0  0  0  0  0  0  0  0  0  0
   -4.1844    0.7689    0.7051 H   0  0  0  0  0  0  0  0  0  0  0  0
   -1.4207    0.1382    0.1201 C   0  0  0  0  0  0  0  0  0  0  0  0
   -2.6062   -1.4812   -0.8275 H   0  0  0  0  0  0  0  0  0  0  0  0
   -2.8330   -1.1087    0.8843 H   0  0  0  0  0  0  0  0  0  0  0  0
   -0.1117   -0.6843   -0.0406 C   0  0  0  0  0  0  0  0  0  0  0  0
   -1.2227    1.0347    1.0796 H   0  0  0  0  0  0  0  0  0  0  0  0
   -1.4195    0.7282   -0.8076 H   0  0  0  0  0  0  0  0  0  0  0  0
    0.1383   -1.4293    0.9047 H   0  0  0  0  0  0  0  0  0  0  0  0
    0.8597    0.0008   -0.3454 H   0  0  0  0  0  0  0  0  0  0  0  0
   -0.3077   -1.0556   -0.8081 H   0  0  0  0  0  0  0  0  0  0  0  0
  1  3  1  0  0  0  0
  1  2  1  0  0  0  0
  1  5  1  0  0  0  0
  2  6  1  0  0  0  0
  2  8  1  0  0  0  0
  4  1  1  0  0  0  0
  6 10  1  0  0  0  0
  7  2  1  0  0  0  0
  9  6  1  0  0  0  0
  9 12  1  0  0  0  0
 11  6  1  0  0  0  0
 13  9  1  0  0  0  0
 14  9  1  0  0  0  0
M  END
$$$$
