14
butane_opt
C  -3.918981   0.251848   0.110834
C  -2.666797  -0.618365  -0.091103
H  -4.750258  -0.380146   0.499072
H  -4.336771   1.056573  -0.887207
H  -3.636621   0.724407   0.819968
C  -1.432264   0.207059  -0.051192
H  -2.792828  -1.524507  -1.019831
H  -2.718637  -1.055398   0.649366
C  -0.165471  -0.710890   0.125626
H  -1.602269   0.945545   0.798065
H  -1.286150   0.988835  -1.073724
H  -0.241514  -1.379426   1.083632
H   0.742747  -0.129295   0.096252
H  -0.187271  -1.268568  -0.676622
