butane_opt
 OpenBabel08242015393D

 14 13  0  0  0  0  0  0  0  0999 V2000
   -3.9526    0.2822   -0.0034 C   0  0  0  0  0  0  0  0  0  0  0  0
   -2.6975   -0.6374    0.0734 C   0  0  0  0  0  0  0  0  0  0  0  0
   -4.8715   -0.3156    0.0294 H   0  0  0  0  0  0  0  0  0  0  0  0
   -3.9886    0.9494   -0.9365 H   0  0  0  0  0  0  0  0  0  0  0  0
   -4.0254    0.9239    0.8292 H   0  0  0  0  0  0  0  0  0  0  0  0
   -1.3932    0.1719    0.0247 C   0  0  0  0  0  0  0  0  0  0  0  0
   -2.6954   -1.2650   -0.7568 H   0  0  0  0  0  0  0  0  0  0  0  0
   -2.7709   -1.3222    0.9914 H   0  0  0  0  0  0  0  0  0  0  0  0
   -0.1650   -0.6776    0.0047 C   0  0  0  0  0  0  0  0  0  0  0  0
   -1.3153    0.8819    0.8923 H   0  0  0  0  0  0  0  0  0  0  0  0
   -1.3732    0.7777   -0.8413 H   0  0  0  0  0  0  0  0  0  0  0  0
   -0.2047   -1.2032    0.8421 H   0  0  0  0  0  0  0  0  0  0  0  0
    0.7522   -0.1140    0.1103 H   0  0  0  0  0  0  0  0  0  0  0  0
   -0.0351   -1.4538   -0.9276 H   0  0  0  0  0  0  0  0  0  0  0  0
  1  3  1  0  0  0  0
  1  2  1  0  0  0  0
  1  5  1  0  0  0  0
  2  8  1  0  0  0  0
  4  1  1  0  0  0  0
  6  2  1  0  0  0  0
  6 10  1  0  0  0  0
  7  2  1  0  0  0  0
  9  6  1  0  0  0  0
  9 13  1  0  0  0  0
  9 12  1  0  0  0  0
 11  6  1  0  0  0  0
 14  9  1  0  0  0  0
M  END
$$$$
