butane_opt
 OpenBabel08242015393D

 14 13  0  0  0  0  0  0  0  0999 V2000
   -3.9180    0.2535    0.0935 C   0  0  0  0  0  0  0  0  0  0  0  0
   -2.7009   -0.6242    0.0039 C   0  0  0  0  0  0  0  0  0  0  0  0
   -4.8874   -0.3374   -0.4199 H   0  0  0  0  0  0  0  0  0  0  0  0
   -3.7104    0.5476   -0.6640 H   0  0  0  0  0  0  0  0  0  0  0  0
   -4.1632    1.2643    1.0715 H   0  0  0  0  0  0  0  0  0  0  0  0
   -1.4110    0.2176   -0.0711 C   0  0  0  0  0  0  0  0  0  0  0  0
   -2.7356   -1.2903   -0.7896 H   0  0  0  0  0  0  0  0  0  0  0  0
   -2.5305   -1.2903    0.8946 H   0  0  0  0  0  0  0  0  0  0  0  0
   -0.1731   -0.7030    0.0731 C   0  0  0  0  0  0  0  0  0  0  0  0
   -1.3931    0.8475    0.7534 H   0  0  0  0  0  0  0  0  0  0  0  0
   -1.4813    0.8691   -1.0013 H   0  0  0  0  0  0  0  0  0  0  0  0
   -0.1330   -1.4619    1.1148 H   0  0  0  0  0  0  0  0  0  0  0  0
    0.6924   -0.2239    0.0231 H   0  0  0  0  0  0  0  0  0  0  0  0
   -0.2258   -1.1437   -0.6722 H   0  0  0  0  0  0  0  0  0  0  0  0
  1  5  1  0  0  0  0
  2  1  1  0  0  0  0
  2  8  1  0  0  0  0
  3  1  1  0  0  0  0
  4  1  1  0  0  0  0
  6  2  1  0  0  0  0
  6  9  1  0  0  0  0
  6 10  1  0  0  0  0
  7  2  1  0  0  0  0
  9 12  1  0  0  0  0
 11  6  1  0  0  0  0
 13  9  1  0  0  0  0
 14  9  1  0  0  0  0
M  END
$$$$
