14
butane_opt
C  -3.948829   0.293572   0.100858
C  -2.724419  -0.679312   0.016429
H  -4.859482  -0.251930  -0.004924
H  -4.150891   0.819970  -0.771324
H  -4.044749   1.039570   0.991426
C  -1.382283   0.178478  -0.117234
H  -2.798605  -1.451986  -0.981429
H  -2.688417  -1.152501   0.796104
C  -0.124550  -0.683612   0.105674
H  -1.374123   0.775954   0.729168
H  -1.514291   1.052293  -1.151245
H  -0.318190  -1.139485   0.924229
H   0.762139  -0.030017   0.456468
H   0.116309  -1.460647  -0.809414
