butane_opt
 OpenBabel08242015393D

 14 12  0  0  0  0  0  0  0  0999 V2000
   -3.8919    0.2329   -0.0396 C   0  0  0  0  0  0  0  0  0  0  0  0
   -2.7059   -0.5545    0.1306 C   0  0  0  0  0  0  0  0  0  0  0  0
   -4.8226   -0.3542    0.1325 H   0  0  0  0  0  0  0  0  0  0  0  0
   -4.0233    0.9861   -1.0365 H   0  0  0  0  0  0  0  0  0  0  0  0
   -3.9354    0.7289    0.6540 H   0  0  0  0  0  0  0  0  0  0  0  0
   -1.4263    0.2143    0.0699 C   0  0  0  0  0  0  0  0  0  0  0  0
   -2.6749   -1.2664   -0.7425 H   0  0  0  0  0  0  0  0  0  0  0  0
   -2.8725   -1.3795    1.0892 H   0  0  0  0  0  0  0  0  0  0  0  0
   -0.1730   -0.7326   -0.0318 C   0  0  0  0  0  0  0  0  0  0  0  0
   -1.3300    0.7515    0.7951 H   0  0  0  0  0  0  0  0  0  0  0  0
   -1.3533    0.9269   -0.8894 H   0  0  0  0  0  0  0  0  0  0  0  0
   -0.3299   -0.8471    0.6141 H   0  0  0  0  0  0  0  0  0  0  0  0
    0.6805   -0.1819    0.3906 H   0  0  0  0  0  0  0  0  0  0  0  0
    0.0354   -1.7764   -1.1767 H   0  0  0  0  0  0  0  0  0  0  0  0
  1  2  1  0  0  0  0
  1  3  1  0  0  0  0
  1  5  1  0  0  0  0
  2  8  1  0  0  0  0
  4  1  1  0  0  0  0
  6  2  1  0  0  0  0
  6 10  1  0  0  0  0
  7  2  1  0  0  0  0
  9  6  1  0  0  0  0
  9 13  1  0  0  0  0
  9 12  1  0  0  0  0
 11  6  1  0  0  0  0
M  RAD  2   9   2  14   2
M  END
$$$$
