14
butane_opt
C  -4.001619   0.315913   0.047529
C  -2.682772  -0.655610   0.053150
H  -4.874432  -0.345288  -0.373571
H  -3.756928   0.532746  -0.629600
H  -4.293751   1.334677   1.111918
C  -1.355315   0.144158  -0.045707
H  -2.747612  -1.335666  -0.764132
H  -2.663033  -1.330659   0.930664
C  -0.160736  -0.655469   0.033418
H  -1.375426   0.870629   0.782199
H  -1.214176   0.816711  -1.022761
H  -0.293023  -1.487798   1.142358
H   0.752584  -0.048772  -0.027181
H  -0.161365  -1.270256  -0.720406
