butane_opt
 OpenBabel08242015393D

 14 13  0  0  0  0  0  0  0  0999 V2000
   -3.9195    0.2521   -0.0574 C   0  0  0  0  0  0  0  0  0  0  0  0
   -2.7102   -0.6282    0.1111 C   0  0  0  0  0  0  0  0  0  0  0  0
   -4.7054   -0.2070   -0.1972 H   0  0  0  0  0  0  0  0  0  0  0  0
   -3.8831    1.0894   -1.1292 H   0  0  0  0  0  0  0  0  0  0  0  0
   -4.0719    0.8586    0.7304 H   0  0  0  0  0  0  0  0  0  0  0  0
   -1.4057    0.1699    0.1408 C   0  0  0  0  0  0  0  0  0  0  0  0
   -2.6687   -1.2554   -0.6782 H   0  0  0  0  0  0  0  0  0  0  0  0
   -2.7148   -1.2769    1.0222 H   0  0  0  0  0  0  0  0  0  0  0  0
   -0.1841   -0.6839   -0.0759 C   0  0  0  0  0  0  0  0  0  0  0  0
   -1.3584    1.1685    1.1921 H   0  0  0  0  0  0  0  0  0  0  0  0
   -1.3668    0.6843   -0.6025 H   0  0  0  0  0  0  0  0  0  0  0  0
   -0.0236   -1.6441    0.9112 H   0  0  0  0  0  0  0  0  0  0  0  0
    0.7825   -0.0425   -0.4451 H   0  0  0  0  0  0  0  0  0  0  0  0
   -0.3827   -1.1482   -0.8006 H   0  0  0  0  0  0  0  0  0  0  0  0
  1  2  1  0  0  0  0
  1  5  1  0  0  0  0
  2  6  1  0  0  0  0
  2  8  1  0  0  0  0
  3  1  1  0  0  0  0
  4  1  1  0  0  0  0
  6 10  1  0  0  0  0
  7  2  1  0  0  0  0
  9  6  1  0  0  0  0
  9 12  1  0  0  0  0
 11  6  1  0  0  0  0
 13  9  1  0  0  0  0
 14  9  1  0  0  0  0
M  END
$$$$
