14
butane_opt
C  -3.934397   0.246196   0.080100
C  -2.723404  -0.588127  -0.064319
H  -4.891700  -0.497951   0.382865
H  -4.209815   0.981950  -0.848893
H  -3.798214   0.770453   0.828504
C  -1.371767   0.219516  -0.042604
H  -2.884193  -1.296787  -0.909029
H  -2.625570  -1.116495   0.812605
C  -0.157864  -0.717903   0.079001
H  -1.419504   0.928590   0.800343
H  -1.420792   0.799276  -0.837535
H  -0.231906  -1.373745   1.053985
H   0.575975  -0.309072   0.128664
H   0.169563  -1.302116  -0.624794
