14
butane_opt
C  -3.956010   0.300709  -0.030343
C  -2.727309  -0.680582   0.114683
H  -4.869154  -0.243477   0.177452
H  -4.041391   1.054020  -0.957217
H  -4.169696   0.823998   0.775734
C  -1.394150   0.180041   0.018348
H  -2.664842  -1.295713  -0.666779
H  -2.639817  -1.330195   1.034917
C  -0.132749  -0.667906   0.005767
H  -1.500779   0.816434   0.734454
H  -1.247707   0.810347  -0.890738
H  -0.230695  -0.869046   0.641008
H   0.863423   0.008158   0.386441
H  -0.011229  -1.836529  -1.165142
