butane_opt
 OpenBabel08242015393D

 14 13  0  0  0  0  0  0  0  0999 V2000
   -3.9276    0.3129    0.0243 C   0  0  0  0  0  0  0  0  0  0  0  0
   -2.6868   -0.6537    0.0618 C   0  0  0  0  0  0  0  0  0  0  0  0
   -4.9085   -0.2796   -0.3312 H   0  0  0  0  0  0  0  0  0  0  0  0
   -3.8640    0.5792   -0.6217 H   0  0  0  0  0  0  0  0  0  0  0  0
   -3.9380    1.2708    1.0320 H   0  0  0  0  0  0  0  0  0  0  0  0
   -1.3913    0.1401   -0.0323 C   0  0  0  0  0  0  0  0  0  0  0  0
   -2.6845   -1.3587   -0.7519 H   0  0  0  0  0  0  0  0  0  0  0  0
   -2.7056   -1.3057    0.9501 H   0  0  0  0  0  0  0  0  0  0  0  0
   -0.1890   -0.6508    0.0351 C   0  0  0  0  0  0  0  0  0  0  0  0
   -1.3637    0.8711    0.8271 H   0  0  0  0  0  0  0  0  0  0  0  0
   -1.4131    0.7474   -0.9773 H   0  0  0  0  0  0  0  0  0  0  0  0
   -0.3251   -1.5408    1.0997 H   0  0  0  0  0  0  0  0  0  0  0  0
    0.7252   -0.0319   -0.0147 H   0  0  0  0  0  0  0  0  0  0  0  0
   -0.2364   -1.2107   -0.7908 H   0  0  0  0  0  0  0  0  0  0  0  0
  1  2  1  0  0  0  0
  1  5  1  0  0  0  0
  2  8  1  0  0  0  0
  3  1  1  0  0  0  0
  4  1  1  0  0  0  0
  6  9  1  0  0  0  0
  6  2  1  0  0  0  0
  6 10  1  0  0  0  0
  7  2  1  0  0  0  0
  9 12  1  0  0  0  0
 11  6  1  0  0  0  0
 13  9  1  0  0  0  0
 14  9  1  0  0  0  0
M  END
$$$$
