butane_opt
 OpenBabel08242015393D

 14 13  0  0  0  0  0  0  0  0999 V2000
   -3.9326    0.2371    0.0574 C   0  0  0  0  0  0  0  0  0  0  0  0
   -2.7287   -0.5721    0.0489 C   0  0  0  0  0  0  0  0  0  0  0  0
   -4.9078   -0.4003   -0.3029 H   0  0  0  0  0  0  0  0  0  0  0  0
   -3.7998    0.5129   -0.6493 H   0  0  0  0  0  0  0  0  0  0  0  0
   -4.2769    1.2801    1.0797 H   0  0  0  0  0  0  0  0  0  0  0  0
   -1.4039    0.2094   -0.0460 C   0  0  0  0  0  0  0  0  0  0  0  0
   -2.6346   -1.4082   -0.8338 H   0  0  0  0  0  0  0  0  0  0  0  0
   -2.7693   -1.2074    0.8836 H   0  0  0  0  0  0  0  0  0  0  0  0
   -0.1190   -0.7384    0.0480 C   0  0  0  0  0  0  0  0  0  0  0  0
   -1.3694    0.8286    0.7083 H   0  0  0  0  0  0  0  0  0  0  0  0
   -1.4957    0.9385   -1.0521 H   0  0  0  0  0  0  0  0  0  0  0  0
   -0.2230   -1.4155    1.0057 H   0  0  0  0  0  0  0  0  0  0  0  0
    0.7735   -0.0781    0.0094 H   0  0  0  0  0  0  0  0  0  0  0  0
   -0.0725   -1.1722   -0.6273 H   0  0  0  0  0  0  0  0  0  0  0  0
  1  5  1  0  0  0  0
  2  1  1  0  0  0  0
  2  8  1  0  0  0  0
  3  1  1  0  0  0  0
  4  1  1  0  0  0  0
  6  9  1  0  0  0  0
  6  2  1  0  0  0  0
  6 10  1  0  0  0  0
  7  2  1  0  0  0  0
  9 12  1  0  0  0  0
 11  6  1  0  0  0  0
 13  9  1  0  0  0  0
 14  9  1  0  0  0  0
M  END
$$$$
