butane_opt
 OpenBabel08242015393D

 14 13  0  0  0  0  0  0  0  0999 V2000
   -3.9388    0.2640   -0.0905 C   0  0  0  0  0  0  0  0  0  0  0  0
   -2.7122   -0.6134    0.1682 C   0  0  0  0  0  0  0  0  0  0  0  0
   -4.8317   -0.3661   -0.3610 H   0  0  0  0  0  0  0  0  0  0  0  0
   -3.8131    0.5607   -0.8201 H   0  0  0  0  0  0  0  0  0  0  0  0
   -4.1058    1.0512    0.8702 H   0  0  0  0  0  0  0  0  0  0  0  0
   -1.4319    0.2273    0.1057 C   0  0  0  0  0  0  0  0  0  0  0  0
   -2.6460   -1.2297   -0.5952 H   0  0  0  0  0  0  0  0  0  0  0  0
   -2.9355   -1.4307    1.1742 H   0  0  0  0  0  0  0  0  0  0  0  0
   -0.1100   -0.7099   -0.0544 C   0  0  0  0  0  0  0  0  0  0  0  0
   -1.4051    0.8611    0.9685 H   0  0  0  0  0  0  0  0  0  0  0  0
   -1.4942    0.9611   -0.8270 H   0  0  0  0  0  0  0  0  0  0  0  0
   -0.0821   -1.2678    0.7706 H   0  0  0  0  0  0  0  0  0  0  0  0
    0.7341   -0.2038   -0.1988 H   0  0  0  0  0  0  0  0  0  0  0  0
   -0.1309   -1.4339   -1.0839 H   0  0  0  0  0  0  0  0  0  0  0  0
  1  2  1  0  0  0  0
  1  5  1  0  0  0  0
  2  8  1  0  0  0  0
  3  1  1  0  0  0  0
  4  1  1  0  0  0  0
  6  2  1  0  0  0  0
  6 10  1  0  0  0  0
  7  2  1  0  0  0  0
  9  6  1  0  0  0  0
  9 12  1  0  0  0  0
 11  6  1  0  0  0  0
 13  9  1  0  0  0  0
 14  9  1  0  0  0  0
M  END
$$$$
