butane_opt
 OpenBabel08242015393D

 14 13  0  0  0  0  0  0  0  0999 V2000
   -3.9663    0.3039   -0.1025 C   0  0  0  0  0  0  0  0  0  0  0  0
   -2.7064   -0.6804    0.1529 C   0  0  0  0  0  0  0  0  0  0  0  0
   -4.7063   -0.1534   -0.1275 H   0  0  0  0  0  0  0  0  0  0  0  0
   -3.9363    0.8789   -0.9639 H   0  0  0  0  0  0  0  0  0  0  0  0
   -4.3796    0.9768    0.6636 H   0  0  0  0  0  0  0  0  0  0  0  0
   -1.3452    0.1533    0.1438 C   0  0  0  0  0  0  0  0  0  0  0  0
   -2.6032   -1.2969   -0.5331 H   0  0  0  0  0  0  0  0  0  0  0  0
   -2.8557   -1.2685    1.0373 H   0  0  0  0  0  0  0  0  0  0  0  0
   -0.1695   -0.6692   -0.0631 C   0  0  0  0  0  0  0  0  0  0  0  0
   -1.3337    0.9233    1.0584 H   0  0  0  0  0  0  0  0  0  0  0  0
   -1.3893    0.7359   -0.6800 H   0  0  0  0  0  0  0  0  0  0  0  0
    0.1656   -1.2322    0.8100 H   0  0  0  0  0  0  0  0  0  0  0  0
    0.7317   -0.0139   -0.4464 H   0  0  0  0  0  0  0  0  0  0  0  0
   -0.4861   -1.3000   -0.9443 H   0  0  0  0  0  0  0  0  0  0  0  0
  1  2  1  0  0  0  0
  1  5  1  0  0  0  0
  2  8  1  0  0  0  0
  3  1  1  0  0  0  0
  4  1  1  0  0  0  0
  6  2  1  0  0  0  0
  6 10  1  0  0  0  0
  7  2  1  0  0  0  0
  9  6  1  0  0  0  0
  9 12  1  0  0  0  0
 11  6  1  0  0  0  0
 13  9  1  0  0  0  0
 14  9  1  0  0  0  0
M  END
$$$$
