14
butane_opt
C  -3.955681   0.309402  -0.076554
C  -2.707258  -0.650416   0.178581
H  -4.785778  -0.260280  -0.308458
H  -3.857157   0.864924  -0.999100
H  -4.157699   0.875670   0.733098
C  -1.399781   0.144090   0.127967
H  -2.475365  -1.362501  -0.693366
H  -2.727192  -1.262258   1.056958
C  -0.173544  -0.667654  -0.085411
H  -1.353507   0.777885   1.042837
H  -1.451912   0.768320  -0.772273
H  -0.065927  -1.266794   0.744681
H   0.874447   0.046800  -0.141211
H  -0.225888  -1.241146  -0.960584
