14
butane_opt
C  -3.948523   0.242803  -0.086367
C  -2.758820  -0.574123   0.122145
H  -5.017975  -0.438600  -0.058735
H  -3.740524   1.012600  -1.040837
H  -4.001316   0.836029   0.733509
C  -1.397559   0.207662   0.166243
H  -2.615520  -1.340588  -0.776745
H  -2.814572  -1.217116   1.006238
C  -0.131713  -0.741345  -0.075516
H  -1.156814   0.960024   1.070832
H  -1.568314   0.871250  -0.687586
H   0.278884  -1.476304   0.830430
H   0.755647  -0.143896  -0.360759
H  -0.291627  -1.163228  -0.758746
