14
butane_opt
C  -3.985670   0.307674   0.137144
C  -2.697236  -0.685924  -0.090960
H  -4.910814  -0.335427   0.414266
H  -4.257010   1.137301  -1.002576
H  -3.764167   0.723810   0.880140
C  -1.371065   0.195056  -0.068306
H  -2.944480  -1.546595  -1.149631
H  -2.411989  -1.039750   0.607954
C  -0.163023  -0.667344   0.139026
H  -1.497485   0.770069   0.650538
H  -1.329055   0.789090  -0.992540
H  -0.130565  -1.371186   1.133608
H   0.752036  -0.054551   0.109233
H   0.049286  -1.311268  -0.652794
