14
butane_opt
C  -3.948709   0.243590   0.076321
C  -2.730131  -0.596943   0.009631
H  -4.930637  -0.389926  -0.398736
H  -3.917985   0.351187  -0.458158
H  -4.169814   1.406091   1.233715
C  -1.365288   0.235590  -0.096438
H  -2.792358  -1.270076  -0.884954
H  -2.719911  -1.254962   0.978721
C  -0.147748  -0.708291   0.090822
H  -1.548001   0.823324   0.634737
H  -1.217282   0.892217  -1.090168
H   0.023956  -1.605351   1.166087
H   0.648500  -0.233071  -0.012418
H  -0.069960  -1.313318  -0.627460
