butane_opt
 OpenBabel08242015393D

 14 13  0  0  0  0  0  0  0  0999 V2000
   -3.9370    0.2522    0.1449 C   0  0  0  0  0  0  0  0  0  0  0  0
   -2.6879   -0.5758   -0.0945 C   0  0  0  0  0  0  0  0  0  0  0  0
   -5.0007   -0.4563    0.1904 H   0  0  0  0  0  0  0  0  0  0  0  0
   -3.9173    0.7204   -0.6840 H   0  0  0  0  0  0  0  0  0  0  0  0
   -3.7614    0.9396    1.0103 H   0  0  0  0  0  0  0  0  0  0  0  0
   -1.4012    0.1963   -0.1359 C   0  0  0  0  0  0  0  0  0  0  0  0
   -2.7868   -1.2292   -0.8380 H   0  0  0  0  0  0  0  0  0  0  0  0
   -2.6086   -1.2203    0.8223 H   0  0  0  0  0  0  0  0  0  0  0  0
   -0.1853   -0.7238    0.1529 C   0  0  0  0  0  0  0  0  0  0  0  0
   -1.6496    0.7981    0.6193 H   0  0  0  0  0  0  0  0  0  0  0  0
   -1.3484    0.9288   -1.0880 H   0  0  0  0  0  0  0  0  0  0  0  0
   -0.3208   -1.1199    0.9474 H   0  0  0  0  0  0  0  0  0  0  0  0
    0.7670   -0.1656    0.3247 H   0  0  0  0  0  0  0  0  0  0  0  0
    0.1394   -1.4683   -0.6948 H   0  0  0  0  0  0  0  0  0  0  0  0
  1  3  1  0  0  0  0
  1  5  1  0  0  0  0
  2  1  1  0  0  0  0
  2  8  1  0  0  0  0
  4  1  1  0  0  0  0
  6  2  1  0  0  0  0
  6  9  1  0  0  0  0
  6 10  1  0  0  0  0
  7  2  1  0  0  0  0
  9 13  1  0  0  0  0
  9 12  1  0  0  0  0
 11  6  1  0  0  0  0
 14  9  1  0  0  0  0
M  END
$$$$
