butane_opt
 OpenBabel08242015393D

 14 13  0  0  0  0  0  0  0  0999 V2000
   -3.9090    0.2895    0.0482 C   0  0  0  0  0  0  0  0  0  0  0  0
   -2.6432   -0.6587   -0.0131 C   0  0  0  0  0  0  0  0  0  0  0  0
   -4.8008   -0.2775    0.0952 H   0  0  0  0  0  0  0  0  0  0  0  0
   -4.0565    0.7165   -0.6395 H   0  0  0  0  0  0  0  0  0  0  0  0
   -4.0645    1.1798    1.1044 H   0  0  0  0  0  0  0  0  0  0  0  0
   -1.4235    0.1437   -0.0549 C   0  0  0  0  0  0  0  0  0  0  0  0
   -2.7522   -1.4300   -0.9257 H   0  0  0  0  0  0  0  0  0  0  0  0
   -2.7222   -1.1894    0.7522 H   0  0  0  0  0  0  0  0  0  0  0  0
   -0.2050   -0.6605    0.0716 C   0  0  0  0  0  0  0  0  0  0  0  0
   -1.4744    0.9810    0.9029 H   0  0  0  0  0  0  0  0  0  0  0  0
   -1.3706    0.7812   -0.9287 H   0  0  0  0  0  0  0  0  0  0  0  0
   -0.2646   -1.5757    1.2269 H   0  0  0  0  0  0  0  0  0  0  0  0
    0.8218   -0.0842   -0.1778 H   0  0  0  0  0  0  0  0  0  0  0  0
   -0.1805   -0.9264   -0.5303 H   0  0  0  0  0  0  0  0  0  0  0  0
  1  3  1  0  0  0  0
  1  5  1  0  0  0  0
  2  1  1  0  0  0  0
  2  8  1  0  0  0  0
  4  1  1  0  0  0  0
  6  2  1  0  0  0  0
  6  9  1  0  0  0  0
  6 10  1  0  0  0  0
  7  2  1  0  0  0  0
  9 12  1  0  0  0  0
 11  6  1  0  0  0  0
 13  9  1  0  0  0  0
 14  9  1  0  0  0  0
M  END
$$$$
