14
butane_opt
C  -3.984170   0.290804   0.086271
C  -2.688887  -0.657307  -0.008682
H  -4.829240  -0.141604  -0.274442
H  -3.971254   0.602073  -0.570928
H  -4.080355   1.423409   1.317524
C  -1.341877   0.151718  -0.100004
H  -2.797214  -1.523099  -0.955375
H  -2.666432  -1.290095   0.846219
C  -0.188957  -0.645803   0.122569
H  -1.499689   0.714934   0.611212
H  -1.188382   0.876104  -1.086312
H  -0.192817  -1.469189   1.210931
H   0.715638  -0.086514  -0.159402
H  -0.091527  -1.230158  -0.669799
