14
butane_opt
C  -3.942488   0.264429   0.016690
C  -2.702232  -0.629800   0.063606
H  -4.696575  -0.166572  -0.361653
H  -3.915424   0.527891  -0.699010
H  -3.994240   1.207929   1.126169
C  -1.441686   0.190002  -0.040343
H  -2.713433  -1.246968  -0.729647
H  -2.768795  -1.347485   1.001212
C  -0.144698  -0.686653   0.057185
H  -1.285557   0.768792   0.765118
H  -1.452867   0.816921  -0.855366
H  -0.097599  -1.324323   0.894217
H   0.764367  -0.072050  -0.039567
H  -0.114178  -1.267588  -0.792847
