14
butane_opt
C  -3.991526   0.285163   0.015973
C  -2.667537  -0.650735   0.060434
H  -4.779537  -0.266986   0.147857
H  -4.066159   1.048825  -0.941535
H  -4.038902   0.852590   0.838309
C  -1.381717   0.170265   0.007538
H  -2.749046  -1.307081  -0.800671
H  -2.674828  -1.402874   0.955566
C  -0.187878  -0.678933   0.027672
H  -1.401685   0.763112   0.783406
H  -1.141832   0.936360  -1.004663
H  -0.146128  -0.934778   0.651812
H   0.717835  -0.097141   0.445060
H  -0.008137  -1.559927  -1.015650
