14
butane_opt
C  -3.932420   0.262769   0.021174
C  -2.704588  -0.596137   0.045042
H  -4.871860  -0.386005  -0.066759
H  -3.843879   0.796695  -0.844871
H  -4.023995   1.006279   0.905311
C  -1.406072   0.176336   0.003756
H  -2.726029  -1.265857  -0.795530
H  -2.697833  -1.287991   0.961872
C  -0.170908  -0.700937   0.031265
H  -1.362056   0.894207   0.861257
H  -1.422138   0.808419  -0.891760
H  -0.118281  -1.310650   0.927720
H   0.736135  -0.110476  -0.012627
H  -0.123895  -1.325133  -0.804759
