butane_opt
 OpenBabel08242015393D

 14 12  0  0  0  0  0  0  0  0999 V2000
   -3.9965    0.3131   -0.0452 C   0  0  0  0  0  0  0  0  0  0  0  0
   -2.7067   -0.6713    0.0831 C   0  0  0  0  0  0  0  0  0  0  0  0
   -4.7349   -0.1208    0.2648 H   0  0  0  0  0  0  0  0  0  0  0  0
   -4.1400    1.2682   -1.2028 H   0  0  0  0  0  0  0  0  0  0  0  0
   -3.8926    0.5685    0.5124 H   0  0  0  0  0  0  0  0  0  0  0  0
   -1.3678    0.1422    0.1321 C   0  0  0  0  0  0  0  0  0  0  0  0
   -2.7735   -1.3924   -0.8425 H   0  0  0  0  0  0  0  0  0  0  0  0
   -2.7195   -1.3337    0.9854 H   0  0  0  0  0  0  0  0  0  0  0  0
   -0.1631   -0.6464   -0.0594 C   0  0  0  0  0  0  0  0  0  0  0  0
   -1.1658    0.9086    1.1508 H   0  0  0  0  0  0  0  0  0  0  0  0
   -1.3666    0.7014   -0.6899 H   0  0  0  0  0  0  0  0  0  0  0  0
   -0.0978   -1.2625    0.9125 H   0  0  0  0  0  0  0  0  0  0  0  0
    0.7276   -0.0640   -0.0440 H   0  0  0  0  0  0  0  0  0  0  0  0
   -0.1032   -1.3599   -0.9913 H   0  0  0  0  0  0  0  0  0  0  0  0
  1  2  1  0  0  0  0
  1  3  1  0  0  0  0
  2  6  1  0  0  0  0
  2  8  1  0  0  0  0
  4  1  1  0  0  0  0
  6 10  1  0  0  0  0
  7  2  1  0  0  0  0
  9 13  1  0  0  0  0
  9  6  1  0  0  0  0
  9 12  1  0  0  0  0
 11  6  1  0  0  0  0
 14  9  1  0  0  0  0
M  RAD  2   1   2   5   2
M  END
$$$$
