butane_opt
 OpenBabel08242015393D

 14 11  0  0  0  0  0  0  0  0999 V2000
   -3.9487    0.2436    0.0763 C   0  0  0  0  0  0  0  0  0  0  0  0
   -2.7301   -0.5969    0.0096 C   0  0  0  0  0  0  0  0  0  0  0  0
   -4.9306   -0.3899   -0.3987 H   0  0  0  0  0  0  0  0  0  0  0  0
   -3.9180    0.3512   -0.4582 H   0  0  0  0  0  0  0  0  0  0  0  0
   -4.1698    1.4061    1.2337 H   0  0  0  0  0  0  0  0  0  0  0  0
   -1.3653    0.2356   -0.0964 C   0  0  0  0  0  0  0  0  0  0  0  0
   -2.7924   -1.2701   -0.8850 H   0  0  0  0  0  0  0  0  0  0  0  0
   -2.7199   -1.2550    0.9787 H   0  0  0  0  0  0  0  0  0  0  0  0
   -0.1477   -0.7083    0.0908 C   0  0  0  0  0  0  0  0  0  0  0  0
   -1.5480    0.8233    0.6347 H   0  0  0  0  0  0  0  0  0  0  0  0
   -1.2173    0.8922   -1.0902 H   0  0  0  0  0  0  0  0  0  0  0  0
    0.0240   -1.6054    1.1661 H   0  0  0  0  0  0  0  0  0  0  0  0
    0.6485   -0.2331   -0.0124 H   0  0  0  0  0  0  0  0  0  0  0  0
   -0.0700   -1.3133   -0.6275 H   0  0  0  0  0  0  0  0  0  0  0  0
  2  1  1  0  0  0  0
  2  8  1  0  0  0  0
  3  1  1  0  0  0  0
  6  2  1  0  0  0  0
  6  9  1  0  0  0  0
  6 10  1  0  0  0  0
  7  2  1  0  0  0  0
  9 12  1  0  0  0  0
 11  6  1  0  0  0  0
 13  9  1  0  0  0  0
 14  9  1  0  0  0  0
M  RAD  3   1   3   4   2   5   2
M  END
$$$$
