butane_opt
 OpenBabel08242015393D

 14 13  0  0  0  0  0  0  0  0999 V2000
   -3.9379    0.2292    0.1219 C   0  0  0  0  0  0  0  0  0  0  0  0
   -2.7265   -0.5789   -0.0914 C   0  0  0  0  0  0  0  0  0  0  0  0
   -4.8560   -0.4508    0.1647 H   0  0  0  0  0  0  0  0  0  0  0  0
   -4.1212    0.7600   -0.6612 H   0  0  0  0  0  0  0  0  0  0  0  0
   -3.9259    0.9610    1.0765 H   0  0  0  0  0  0  0  0  0  0  0  0
   -1.4474    0.2418   -0.1085 C   0  0  0  0  0  0  0  0  0  0  0  0
   -3.0039   -1.2741   -0.9410 H   0  0  0  0  0  0  0  0  0  0  0  0
   -2.6356   -1.2872    0.7700 H   0  0  0  0  0  0  0  0  0  0  0  0
   -0.0888   -0.7149    0.1473 C   0  0  0  0  0  0  0  0  0  0  0  0
   -1.4919    0.8687    0.7052 H   0  0  0  0  0  0  0  0  0  0  0  0
   -1.2983    0.9206   -1.0613 H   0  0  0  0  0  0  0  0  0  0  0  0
   -0.1310   -1.4347    1.1207 H   0  0  0  0  0  0  0  0  0  0  0  0
    0.7087   -0.2120    0.1100 H   0  0  0  0  0  0  0  0  0  0  0  0
    0.1504   -1.4572   -0.6850 H   0  0  0  0  0  0  0  0  0  0  0  0
  1  3  1  0  0  0  0
  1  5  1  0  0  0  0
  2  1  1  0  0  0  0
  2  8  1  0  0  0  0
  4  1  1  0  0  0  0
  6  2  1  0  0  0  0
  6  9  1  0  0  0  0
  6 10  1  0  0  0  0
  7  2  1  0  0  0  0
  9 12  1  0  0  0  0
 11  6  1  0  0  0  0
 13  9  1  0  0  0  0
 14  9  1  0  0  0  0
M  END
$$$$
