14
butane_opt
C  -3.941465   0.268023   0.021559
C  -2.697659  -0.626610   0.035752
H  -4.849921  -0.340107   0.151509
H  -4.046688   1.052941  -0.979382
H  -3.961349   0.801801   0.772473
C  -1.408539   0.177443   0.022458
H  -2.724546  -1.310838  -0.853063
H  -2.724644  -1.224193   0.900541
C  -0.155571  -0.685632   0.027845
H  -1.390201   0.917862   0.920478
H  -1.384867   0.800025  -0.866110
H  -0.115157  -1.276931   0.917435
H   0.740500  -0.090960   0.044454
H  -0.128821  -1.403334  -0.878897
