butane_opt
 OpenBabel08242015393D

 14 13  0  0  0  0  0  0  0  0999 V2000
   -3.9550    0.2294   -0.0451 C   0  0  0  0  0  0  0  0  0  0  0  0
   -2.7044   -0.5662    0.1112 C   0  0  0  0  0  0  0  0  0  0  0  0
   -4.9574   -0.4568    0.1771 H   0  0  0  0  0  0  0  0  0  0  0  0
   -3.9530    1.0048   -1.0414 H   0  0  0  0  0  0  0  0  0  0  0  0
   -4.0517    0.7455    0.7247 H   0  0  0  0  0  0  0  0  0  0  0  0
   -1.4083    0.2328    0.0692 C   0  0  0  0  0  0  0  0  0  0  0  0
   -2.6829   -1.2021   -0.6618 H   0  0  0  0  0  0  0  0  0  0  0  0
   -2.9410   -1.2857    1.0699 H   0  0  0  0  0  0  0  0  0  0  0  0
   -0.1234   -0.7248   -0.0345 C   0  0  0  0  0  0  0  0  0  0  0  0
   -1.3123    0.8199    0.8101 H   0  0  0  0  0  0  0  0  0  0  0  0
   -1.5669    0.8260   -0.8090 H   0  0  0  0  0  0  0  0  0  0  0  0
   -0.1212   -1.0007    0.7248 H   0  0  0  0  0  0  0  0  0  0  0  0
    0.8224   -0.2166    0.3021 H   0  0  0  0  0  0  0  0  0  0  0  0
    0.0540   -1.7678   -1.0900 H   0  0  0  0  0  0  0  0  0  0  0  0
  1  2  1  0  0  0  0
  1  3  1  0  0  0  0
  1  5  1  0  0  0  0
  2  8  1  0  0  0  0
  4  1  1  0  0  0  0
  6  2  1  0  0  0  0
  6 10  1  0  0  0  0
  7  2  1  0  0  0  0
  9  6  1  0  0  0  0
  9 13  1  0  0  0  0
  9 12  1  0  0  0  0
 11  6  1  0  0  0  0
 14  9  1  0  0  0  0
M  END
$$$$
