butane_opt
 OpenBabel08242015393D

 14 13  0  0  0  0  0  0  0  0999 V2000
   -3.9485    0.2428   -0.0864 C   0  0  0  0  0  0  0  0  0  0  0  0
   -2.7588   -0.5741    0.1221 C   0  0  0  0  0  0  0  0  0  0  0  0
   -5.0180   -0.4386   -0.0587 H   0  0  0  0  0  0  0  0  0  0  0  0
   -3.7405    1.0126   -1.0408 H   0  0  0  0  0  0  0  0  0  0  0  0
   -4.0013    0.8360    0.7335 H   0  0  0  0  0  0  0  0  0  0  0  0
   -1.3976    0.2077    0.1662 C   0  0  0  0  0  0  0  0  0  0  0  0
   -2.6155   -1.3406   -0.7767 H   0  0  0  0  0  0  0  0  0  0  0  0
   -2.8146   -1.2171    1.0062 H   0  0  0  0  0  0  0  0  0  0  0  0
   -0.1317   -0.7413   -0.0755 C   0  0  0  0  0  0  0  0  0  0  0  0
   -1.1568    0.9600    1.0708 H   0  0  0  0  0  0  0  0  0  0  0  0
   -1.5683    0.8712   -0.6876 H   0  0  0  0  0  0  0  0  0  0  0  0
    0.2789   -1.4763    0.8304 H   0  0  0  0  0  0  0  0  0  0  0  0
    0.7556   -0.1439   -0.3608 H   0  0  0  0  0  0  0  0  0  0  0  0
   -0.2916   -1.1632   -0.7587 H   0  0  0  0  0  0  0  0  0  0  0  0
  1  3  1  0  0  0  0
  1  2  1  0  0  0  0
  1  5  1  0  0  0  0
  2  6  1  0  0  0  0
  2  8  1  0  0  0  0
  4  1  1  0  0  0  0
  6 10  1  0  0  0  0
  7  2  1  0  0  0  0
  9  6  1  0  0  0  0
  9 12  1  0  0  0  0
 11  6  1  0  0  0  0
 13  9  1  0  0  0  0
 14  9  1  0  0  0  0
M  END
$$$$
