14
butane_opt
C  -3.957600   0.270229  -0.019191
C  -2.697009  -0.623599   0.066501
H  -4.845356  -0.328479   0.037811
H  -3.946478   0.910153  -0.921988
H  -4.020696   0.914705   0.843637
C  -1.394370   0.181428   0.047339
H  -2.675864  -1.286030  -0.774154
H  -2.746830  -1.260071   0.959384
C  -0.152115  -0.693739   0.001466
H  -1.349926   0.910157   0.966328
H  -1.503418   0.755501  -0.796431
H  -0.098540  -1.333210   0.895383
H   0.779854  -0.064828  -0.106817
H  -0.206273  -1.289667  -0.806589
