14
butane_opt
C  -3.926560   0.307748   0.048315
C  -2.670271  -0.669182  -0.000465
H  -4.810631  -0.284283   0.348597
H  -4.205209   1.087685  -0.900233
H  -3.703214   0.766482   0.788634
C  -1.405367   0.150562  -0.036732
H  -2.652126  -1.431077  -0.943429
H  -2.592390  -1.261826   0.858301
C  -0.192388  -0.641560   0.057887
H  -1.482991   0.920162   0.938927
H  -1.370867   0.698686  -0.878586
H  -0.480306  -1.344461   1.021000
H   0.651159  -0.005460   0.213773
H  -0.062349  -1.382427  -0.874303
