butane_opt
 OpenBabel08242015393D

 14 13  0  0  0  0  0  0  0  0999 V2000
   -3.8929    0.2065    0.1185 C   0  0  0  0  0  0  0  0  0  0  0  0
   -2.7229   -0.5432   -0.0931 C   0  0  0  0  0  0  0  0  0  0  0  0
   -4.7292   -0.3316    0.1539 H   0  0  0  0  0  0  0  0  0  0  0  0
   -3.9160    0.8012   -0.7673 H   0  0  0  0  0  0  0  0  0  0  0  0
   -3.8215    0.9796    1.0285 H   0  0  0  0  0  0  0  0  0  0  0  0
   -1.4158    0.2262   -0.0782 C   0  0  0  0  0  0  0  0  0  0  0  0
   -2.8735   -1.4838   -1.0836 H   0  0  0  0  0  0  0  0  0  0  0  0
   -2.5991   -1.0614    0.7457 H   0  0  0  0  0  0  0  0  0  0  0  0
   -0.1770   -0.7431    0.1337 C   0  0  0  0  0  0  0  0  0  0  0  0
   -1.4349    0.9035    0.8080 H   0  0  0  0  0  0  0  0  0  0  0  0
   -1.4785    0.8361   -0.9778 H   0  0  0  0  0  0  0  0  0  0  0  0
   -0.0278   -1.6564    1.2794 H   0  0  0  0  0  0  0  0  0  0  0  0
    0.6735   -0.1227   -0.1934 H   0  0  0  0  0  0  0  0  0  0  0  0
   -0.2989   -1.0794   -0.4741 H   0  0  0  0  0  0  0  0  0  0  0  0
  1  3  1  0  0  0  0
  1  5  1  0  0  0  0
  2  6  1  0  0  0  0
  2  1  1  0  0  0  0
  2  8  1  0  0  0  0
  4  1  1  0  0  0  0
  6  9  1  0  0  0  0
  6 10  1  0  0  0  0
  7  2  1  0  0  0  0
  9 12  1  0  0  0  0
 11  6  1  0  0  0  0
 13  9  1  0  0  0  0
 14  9  1  0  0  0  0
M  END
$$$$
