butane_opt
 OpenBabel08242015393D

 14 13  0  0  0  0  0  0  0  0999 V2000
   -3.9502    0.2671    0.0032 C   0  0  0  0  0  0  0  0  0  0  0  0
   -2.7051   -0.6124    0.0673 C   0  0  0  0  0  0  0  0  0  0  0  0
   -4.8687   -0.3437   -0.0595 H   0  0  0  0  0  0  0  0  0  0  0  0
   -3.9406    0.8247   -0.8731 H   0  0  0  0  0  0  0  0  0  0  0  0
   -3.9778    0.9662    0.9000 H   0  0  0  0  0  0  0  0  0  0  0  0
   -1.3995    0.1822    0.0094 C   0  0  0  0  0  0  0  0  0  0  0  0
   -2.7110   -1.2573   -0.7610 H   0  0  0  0  0  0  0  0  0  0  0  0
   -2.7979   -1.2300    0.9929 H   0  0  0  0  0  0  0  0  0  0  0  0
   -0.1524   -0.6985    0.0214 C   0  0  0  0  0  0  0  0  0  0  0  0
   -1.3751    0.8419    0.8578 H   0  0  0  0  0  0  0  0  0  0  0  0
   -1.4042    0.8184   -0.8848 H   0  0  0  0  0  0  0  0  0  0  0  0
   -0.1063   -1.2320    0.8548 H   0  0  0  0  0  0  0  0  0  0  0  0
    0.7571   -0.1095    0.0539 H   0  0  0  0  0  0  0  0  0  0  0  0
   -0.1151   -1.4135   -0.8572 H   0  0  0  0  0  0  0  0  0  0  0  0
  1  2  1  0  0  0  0
  1  5  1  0  0  0  0
  2  8  1  0  0  0  0
  3  1  1  0  0  0  0
  4  1  1  0  0  0  0
  6  9  1  0  0  0  0
  6  2  1  0  0  0  0
  6 10  1  0  0  0  0
  7  2  1  0  0  0  0
  9 13  1  0  0  0  0
  9 12  1  0  0  0  0
 11  6  1  0  0  0  0
 14  9  1  0  0  0  0
M  END
$$$$
