butane_opt
 OpenBabel08242015393D

 14 13  0  0  0  0  0  0  0  0999 V2000
   -3.9334    0.2834    0.0798 C   0  0  0  0  0  0  0  0  0  0  0  0
   -2.6781   -0.6509   -0.0274 C   0  0  0  0  0  0  0  0  0  0  0  0
   -4.8735   -0.2807    0.1629 H   0  0  0  0  0  0  0  0  0  0  0  0
   -4.1435    0.8433   -0.7423 H   0  0  0  0  0  0  0  0  0  0  0  0
   -3.8811    0.9507    1.0446 H   0  0  0  0  0  0  0  0  0  0  0  0
   -1.4362    0.1612   -0.1017 C   0  0  0  0  0  0  0  0  0  0  0  0
   -2.6697   -1.2451   -0.8115 H   0  0  0  0  0  0  0  0  0  0  0  0
   -2.6418   -1.3226    0.9700 H   0  0  0  0  0  0  0  0  0  0  0  0
   -0.1701   -0.6621    0.1095 C   0  0  0  0  0  0  0  0  0  0  0  0
   -1.2598    0.7630    0.7544 H   0  0  0  0  0  0  0  0  0  0  0  0
   -1.3400    0.9730   -1.0928 H   0  0  0  0  0  0  0  0  0  0  0  0
   -0.4658   -0.9999    0.8169 H   0  0  0  0  0  0  0  0  0  0  0  0
    0.7015   -0.1595    0.4679 H   0  0  0  0  0  0  0  0  0  0  0  0
    0.1730   -1.5960   -0.8822 H   0  0  0  0  0  0  0  0  0  0  0  0
  1  3  1  0  0  0  0
  1  5  1  0  0  0  0
  2  1  1  0  0  0  0
  2  8  1  0  0  0  0
  4  1  1  0  0  0  0
  6  2  1  0  0  0  0
  6  9  1  0  0  0  0
  6 10  1  0  0  0  0
  7  2  1  0  0  0  0
  9 13  1  0  0  0  0
  9 12  1  0  0  0  0
 11  6  1  0  0  0  0
 14  9  1  0  0  0  0
M  END
$$$$
