14
butane_opt
C  -4.004938   0.283646   0.108273
C  -2.691804  -0.675609  -0.063681
H  -4.779802  -0.227035   0.225533
H  -4.162382   1.176689  -0.988128
H  -3.904668   0.770412   0.928242
C  -1.361333   0.167054  -0.046428
H  -2.759477  -1.357026  -0.967384
H  -2.644206  -1.155476   0.670549
C  -0.153605  -0.650105   0.093774
H  -1.480747   0.994737   0.893313
H  -1.279302   0.705096  -0.852398
H  -0.120677  -1.549613   1.128462
H   0.694707  -0.088844  -0.053232
H  -0.070178  -1.217452  -0.665928
