14
butane_opt
C  -3.932980   0.230192  -0.059859
C  -2.722305  -0.566214   0.170036
H  -4.870342  -0.438872   0.057001
H  -3.708888   1.044888  -1.217276
H  -3.913847   0.669150   0.718441
C  -1.406803   0.224354   0.062715
H  -2.720970  -1.169053  -0.647243
H  -2.572312  -1.234439   1.069181
C  -0.169587  -0.743303  -0.053767
H  -1.385028   0.909083   0.871688
H  -1.465412   0.817715  -0.798169
H  -0.137023  -0.856235   0.530548
H   0.685835  -0.183041   0.456938
H  -0.126884  -1.786486  -1.090961
