butane_opt
 OpenBabel08242015393D

 14 13  0  0  0  0  0  0  0  0999 V2000
   -3.9351    0.2680    0.0159 C   0  0  0  0  0  0  0  0  0  0  0  0
   -2.6949   -0.6243    0.0212 C   0  0  0  0  0  0  0  0  0  0  0  0
   -4.8524   -0.2462    0.4210 H   0  0  0  0  0  0  0  0  0  0  0  0
   -3.9591    1.1450   -1.0445 H   0  0  0  0  0  0  0  0  0  0  0  0
   -3.9065    0.7128    0.7037 H   0  0  0  0  0  0  0  0  0  0  0  0
   -1.4130    0.1630    0.0157 C   0  0  0  0  0  0  0  0  0  0  0  0
   -2.7214   -1.2821   -0.8489 H   0  0  0  0  0  0  0  0  0  0  0  0
   -2.6602   -1.1596    0.8641 H   0  0  0  0  0  0  0  0  0  0  0  0
   -0.1667   -0.7042    0.0185 C   0  0  0  0  0  0  0  0  0  0  0  0
   -1.3835    1.0461    1.0146 H   0  0  0  0  0  0  0  0  0  0  0  0
   -1.2589    0.6876   -0.7346 H   0  0  0  0  0  0  0  0  0  0  0  0
   -0.3438   -1.2654    0.9552 H   0  0  0  0  0  0  0  0  0  0  0  0
    0.8440   -0.0385    0.0383 H   0  0  0  0  0  0  0  0  0  0  0  0
   -0.2515   -1.3085   -0.8128 H   0  0  0  0  0  0  0  0  0  0  0  0
  1  2  1  0  0  0  0
  1  3  1  0  0  0  0
  1  5  1  0  0  0  0
  2  8  1  0  0  0  0
  4  1  1  0  0  0  0
  6  9  1  0  0  0  0
  6  2  1  0  0  0  0
  6 10  1  0  0  0  0
  7  2  1  0  0  0  0
  9 13  1  0  0  0  0
  9 12  1  0  0  0  0
 11  6  1  0  0  0  0
 14  9  1  0  0  0  0
M  END
$$$$
