14
butane_opt
C  -3.983394   0.278616   0.022904
C  -2.715010  -0.629711  -0.000741
H  -4.817055  -0.243165   0.006366
H  -4.129288   0.765393  -0.730957
H  -4.045204   1.171108   1.006513
C  -1.377340   0.148393   0.034464
H  -2.700710  -1.394903  -0.913228
H  -2.781930  -1.073145   0.768652
C  -0.114196  -0.692939   0.060385
H  -1.360196   0.779615   0.829909
H  -1.226908   0.736759  -0.946994
H  -0.074160  -1.549938   1.138129
H   0.788860  -0.068546  -0.480355
H  -0.381316  -0.839087  -0.585314
