butane_opt
 OpenBabel08242015393D

 14 12  0  0  0  0  0  0  0  0999 V2000
   -3.9381    0.2325   -0.0632 C   0  0  0  0  0  0  0  0  0  0  0  0
   -2.7201   -0.6002    0.1194 C   0  0  0  0  0  0  0  0  0  0  0  0
   -4.8578   -0.3388    0.3686 H   0  0  0  0  0  0  0  0  0  0  0  0
   -3.9700    1.1124   -1.1446 H   0  0  0  0  0  0  0  0  0  0  0  0
   -4.0556    0.4679    0.4741 H   0  0  0  0  0  0  0  0  0  0  0  0
   -1.4358    0.2711    0.1045 C   0  0  0  0  0  0  0  0  0  0  0  0
   -2.7651   -1.3529   -0.6955 H   0  0  0  0  0  0  0  0  0  0  0  0
   -2.7877   -1.1210    0.9314 H   0  0  0  0  0  0  0  0  0  0  0  0
   -0.1095   -0.7400   -0.0481 C   0  0  0  0  0  0  0  0  0  0  0  0
   -1.4680    1.0237    1.0253 H   0  0  0  0  0  0  0  0  0  0  0  0
   -1.4001    0.7521   -0.6845 H   0  0  0  0  0  0  0  0  0  0  0  0
    0.0397   -1.1940    0.7139 H   0  0  0  0  0  0  0  0  0  0  0  0
    0.8193   -0.1485    0.0125 H   0  0  0  0  0  0  0  0  0  0  0  0
   -0.1299   -1.6256   -0.9673 H   0  0  0  0  0  0  0  0  0  0  0  0
  1  2  1  0  0  0  0
  1  3  1  0  0  0  0
  2  8  1  0  0  0  0
  4  1  1  0  0  0  0
  6  2  1  0  0  0  0
  6 10  1  0  0  0  0
  7  2  1  0  0  0  0
  9 13  1  0  0  0  0
  9  6  1  0  0  0  0
  9 12  1  0  0  0  0
 11  6  1  0  0  0  0
 14  9  1  0  0  0  0
M  RAD  2   1   2   5   2
M  END
$$$$
