14
butane_opt
C  -3.981756   0.291213  -0.044603
C  -2.679031  -0.692138   0.110597
H  -4.759186  -0.158029  -0.083666
H  -4.020816   0.754503  -0.772669
H  -4.213755   1.224906   0.965592
C  -1.367038   0.184641   0.010073
H  -2.585418  -1.196759  -0.663784
H  -2.823604  -1.527969   1.100281
C  -0.140052  -0.653142   0.005479
H  -1.317256   0.815064   0.877335
H  -1.596139   0.734168  -0.859524
H  -0.282417  -1.126984   0.752737
H   0.777973  -0.054275   0.140358
H  -0.194472  -1.484217  -0.960053
