butane_opt
 OpenBabel08242015393D

 14 13  0  0  0  0  0  0  0  0999 V2000
   -4.0005    0.2617   -0.0331 C   0  0  0  0  0  0  0  0  0  0  0  0
   -2.7086   -0.6241    0.0973 C   0  0  0  0  0  0  0  0  0  0  0  0
   -4.8865   -0.3144    0.2639 H   0  0  0  0  0  0  0  0  0  0  0  0
   -4.0190    1.2020   -1.1090 H   0  0  0  0  0  0  0  0  0  0  0  0
   -3.9048    0.8246    0.7505 H   0  0  0  0  0  0  0  0  0  0  0  0
   -1.3470    0.1648    0.0482 C   0  0  0  0  0  0  0  0  0  0  0  0
   -2.7660   -1.3302   -0.7909 H   0  0  0  0  0  0  0  0  0  0  0  0
   -2.6463   -1.1418    0.9244 H   0  0  0  0  0  0  0  0  0  0  0  0
   -0.1603   -0.6828   -0.0158 C   0  0  0  0  0  0  0  0  0  0  0  0
   -1.2441    0.9013    0.8792 H   0  0  0  0  0  0  0  0  0  0  0  0
   -1.4304    0.7613   -0.7721 H   0  0  0  0  0  0  0  0  0  0  0  0
   -0.1311   -1.1832    0.8000 H   0  0  0  0  0  0  0  0  0  0  0  0
    0.6920   -0.1129    0.2617 H   0  0  0  0  0  0  0  0  0  0  0  0
   -0.0842   -1.5237   -0.9531 H   0  0  0  0  0  0  0  0  0  0  0  0
  1  2  1  0  0  0  0
  1  3  1  0  0  0  0
  1  5  1  0  0  0  0
  2  8  1  0  0  0  0
  4  1  1  0  0  0  0
  6  2  1  0  0  0  0
  6 10  1  0  0  0  0
  7  2  1  0  0  0  0
  9  6  1  0  0  0  0
  9 13  1  0  0  0  0
  9 12  1  0  0  0  0
 11  6  1  0  0  0  0
 14  9  1  0  0  0  0
M  END
$$$$
