butane_opt
 OpenBabel08242015393D

 14 13  0  0  0  0  0  0  0  0999 V2000
   -4.0116    0.2847   -0.0878 C   0  0  0  0  0  0  0  0  0  0  0  0
   -2.6814   -0.6488    0.1540 C   0  0  0  0  0  0  0  0  0  0  0  0
   -4.8592   -0.3218   -0.1987 H   0  0  0  0  0  0  0  0  0  0  0  0
   -3.8728    0.8183   -0.9114 H   0  0  0  0  0  0  0  0  0  0  0  0
   -4.0449    1.1473    0.9505 H   0  0  0  0  0  0  0  0  0  0  0  0
   -1.3611    0.1705    0.0703 C   0  0  0  0  0  0  0  0  0  0  0  0
   -2.6546   -1.2819   -0.5893 H   0  0  0  0  0  0  0  0  0  0  0  0
   -2.7422   -1.4420    1.1627 H   0  0  0  0  0  0  0  0  0  0  0  0
   -0.1533   -0.6772   -0.0559 C   0  0  0  0  0  0  0  0  0  0  0  0
   -1.3284    0.9183    0.9732 H   0  0  0  0  0  0  0  0  0  0  0  0
   -1.5386    0.8138   -0.7962 H   0  0  0  0  0  0  0  0  0  0  0  0
   -0.0798   -1.1946    0.7945 H   0  0  0  0  0  0  0  0  0  0  0  0
    0.7834   -0.0795    0.0935 H   0  0  0  0  0  0  0  0  0  0  0  0
   -0.2129   -1.3862   -0.9920 H   0  0  0  0  0  0  0  0  0  0  0  0
  1  2  1  0  0  0  0
  1  5  1  0  0  0  0
  2  8  1  0  0  0  0
  3  1  1  0  0  0  0
  4  1  1  0  0  0  0
  6  2  1  0  0  0  0
  6 10  1  0  0  0  0
  7  2  1  0  0  0  0
  9  6  1  0  0  0  0
  9 13  1  0  0  0  0
  9 12  1  0  0  0  0
 11  6  1  0  0  0  0
 14  9  1  0  0  0  0
M  END
$$$$
