butane_opt
 OpenBabel08242015393D

 14 13  0  0  0  0  0  0  0  0999 V2000
   -3.9660    0.2326   -0.0657 C   0  0  0  0  0  0  0  0  0  0  0  0
   -2.7280   -0.6259    0.1431 C   0  0  0  0  0  0  0  0  0  0  0  0
   -4.8737   -0.3338   -0.2655 H   0  0  0  0  0  0  0  0  0  0  0  0
   -3.7666    0.9079   -0.9658 H   0  0  0  0  0  0  0  0  0  0  0  0
   -3.9801    0.9041    0.8398 H   0  0  0  0  0  0  0  0  0  0  0  0
   -1.4163    0.2486    0.0849 C   0  0  0  0  0  0  0  0  0  0  0  0
   -2.5919   -1.0610   -0.5471 H   0  0  0  0  0  0  0  0  0  0  0  0
   -2.7088   -1.3862    1.0774 H   0  0  0  0  0  0  0  0  0  0  0  0
   -0.1404   -0.7163   -0.0591 C   0  0  0  0  0  0  0  0  0  0  0  0
   -1.4321    1.0296    1.0076 H   0  0  0  0  0  0  0  0  0  0  0  0
   -1.3320    0.7799   -0.7071 H   0  0  0  0  0  0  0  0  0  0  0  0
    0.0995   -1.2642    0.8420 H   0  0  0  0  0  0  0  0  0  0  0  0
    0.6712   -0.2246   -0.0514 H   0  0  0  0  0  0  0  0  0  0  0  0
   -0.1043   -1.5191   -1.0617 H   0  0  0  0  0  0  0  0  0  0  0  0
  1  2  1  0  0  0  0
  1  5  1  0  0  0  0
  2  8  1  0  0  0  0
  3  1  1  0  0  0  0
  4  1  1  0  0  0  0
  6  2  1  0  0  0  0
  6 10  1  0  0  0  0
  7  2  1  0  0  0  0
  9 13  1  0  0  0  0
  9  6  1  0  0  0  0
  9 12  1  0  0  0  0
 11  6  1  0  0  0  0
 14  9  1  0  0  0  0
M  END
$$$$
