14
butane_opt
C  -3.929937   0.254462  -0.000362
C  -2.693716  -0.601590   0.037025
H  -4.875036  -0.369564   0.186897
H  -3.987523   0.977898  -0.964990
H  -3.885032   0.804920   0.802086
C  -1.420150   0.193017   0.036201
H  -2.706880  -1.246879  -0.784076
H  -2.724313  -1.278412   0.971610
C  -0.163584  -0.690527   0.016498
H  -1.372922   0.899748   0.931527
H  -1.433634   0.781411  -0.838975
H  -0.135089  -1.299968   0.895932
H   0.708430  -0.152838   0.063830
H  -0.120604  -1.455006  -0.910546
