butane_opt
 OpenBabel08242015393D

 14 13  0  0  0  0  0  0  0  0999 V2000
   -3.9596    0.2748    0.0531 C   0  0  0  0  0  0  0  0  0  0  0  0
   -2.6999   -0.6296    0.0063 C   0  0  0  0  0  0  0  0  0  0  0  0
   -4.8484   -0.2995   -0.0149 H   0  0  0  0  0  0  0  0  0  0  0  0
   -4.0015    0.8858   -0.8600 H   0  0  0  0  0  0  0  0  0  0  0  0
   -3.9882    0.9921    0.9224 H   0  0  0  0  0  0  0  0  0  0  0  0
   -1.3953    0.1780   -0.0073 C   0  0  0  0  0  0  0  0  0  0  0  0
   -2.7343   -1.3720   -0.9201 H   0  0  0  0  0  0  0  0  0  0  0  0
   -2.7058   -1.2209    0.8793 H   0  0  0  0  0  0  0  0  0  0  0  0
   -0.1576   -0.6896    0.0554 C   0  0  0  0  0  0  0  0  0  0  0  0
   -1.3852    0.8408    0.8421 H   0  0  0  0  0  0  0  0  0  0  0  0
   -1.3503    0.8171   -0.8985 H   0  0  0  0  0  0  0  0  0  0  0  0
   -0.1280   -1.4263    1.0265 H   0  0  0  0  0  0  0  0  0  0  0  0
    0.8321   -0.0462   -0.0931 H   0  0  0  0  0  0  0  0  0  0  0  0
   -0.1710   -1.2304   -0.7212 H   0  0  0  0  0  0  0  0  0  0  0  0
  1  5  1  0  0  0  0
  2  1  1  0  0  0  0
  2  8  1  0  0  0  0
  3  1  1  0  0  0  0
  4  1  1  0  0  0  0
  6  2  1  0  0  0  0
  6  9  1  0  0  0  0
  6 10  1  0  0  0  0
  7  2  1  0  0  0  0
  9 12  1  0  0  0  0
 11  6  1  0  0  0  0
 13  9  1  0  0  0  0
 14  9  1  0  0  0  0
M  END
$$$$
