14
butane_opt
C  -3.943255   0.264352   0.044792
C  -2.697379  -0.615871   0.014245
H  -4.833736  -0.350174   0.062561
H  -3.970284   0.887240  -0.826651
H  -3.906316   0.882739   0.890480
C  -1.415556   0.196541  -0.019429
H  -2.744945  -1.308552  -0.853650
H  -2.660030  -1.245595   0.904768
C  -0.168204  -0.700009   0.060696
H  -1.381631   0.832921   0.807495
H  -1.356511   0.874890  -0.972330
H  -0.139473  -1.243982   0.912908
H   0.740714  -0.108028   0.135249
H  -0.084149  -1.432889  -0.834994
