butane_opt
 OpenBabel08242015393D

 14 13  0  0  0  0  0  0  0  0999 V2000
   -3.9058    0.2481    0.1285 C   0  0  0  0  0  0  0  0  0  0  0  0
   -2.7265   -0.6009   -0.1223 C   0  0  0  0  0  0  0  0  0  0  0  0
   -4.8035   -0.3785    0.5114 H   0  0  0  0  0  0  0  0  0  0  0  0
   -4.2778    0.9040   -0.7998 H   0  0  0  0  0  0  0  0  0  0  0  0
   -3.8037    0.9015    0.9936 H   0  0  0  0  0  0  0  0  0  0  0  0
   -1.3915    0.2170   -0.1027 C   0  0  0  0  0  0  0  0  0  0  0  0
   -2.8761   -1.2580   -0.9998 H   0  0  0  0  0  0  0  0  0  0  0  0
   -2.6209   -1.2146    0.7072 H   0  0  0  0  0  0  0  0  0  0  0  0
   -0.1659   -0.7305    0.1503 C   0  0  0  0  0  0  0  0  0  0  0  0
   -1.6339    0.8925    0.6697 H   0  0  0  0  0  0  0  0  0  0  0  0
   -1.1800    0.8292   -0.9470 H   0  0  0  0  0  0  0  0  0  0  0  0
   -0.2251   -1.3094    1.0748 H   0  0  0  0  0  0  0  0  0  0  0  0
    0.7482   -0.1888    0.1736 H   0  0  0  0  0  0  0  0  0  0  0  0
   -0.0374   -1.2568   -0.5977 H   0  0  0  0  0  0  0  0  0  0  0  0
  1  3  1  0  0  0  0
  1  5  1  0  0  0  0
  2  6  1  0  0  0  0
  2  1  1  0  0  0  0
  2  8  1  0  0  0  0
  4  1  1  0  0  0  0
  6  9  1  0  0  0  0
  6 10  1  0  0  0  0
  7  2  1  0  0  0  0
  9 13  1  0  0  0  0
  9 12  1  0  0  0  0
 11  6  1  0  0  0  0
 14  9  1  0  0  0  0
M  END
$$$$
