butane_opt
 OpenBabel08242015393D

 14 12  0  0  0  0  0  0  0  0999 V2000
   -3.8970    0.2328    0.0615 C   0  0  0  0  0  0  0  0  0  0  0  0
   -2.7138   -0.5451   -0.0018 C   0  0  0  0  0  0  0  0  0  0  0  0
   -4.8929   -0.4092   -0.0768 H   0  0  0  0  0  0  0  0  0  0  0  0
   -3.9679    0.4070   -0.5391 H   0  0  0  0  0  0  0  0  0  0  0  0
   -3.8558    1.1393    1.1800 H   0  0  0  0  0  0  0  0  0  0  0  0
   -1.4429    0.1983   -0.0960 C   0  0  0  0  0  0  0  0  0  0  0  0
   -2.8590   -1.2403   -0.9315 H   0  0  0  0  0  0  0  0  0  0  0  0
   -2.7016   -1.2792    0.9092 H   0  0  0  0  0  0  0  0  0  0  0  0
   -0.1296   -0.7158    0.1084 C   0  0  0  0  0  0  0  0  0  0  0  0
   -1.5684    0.8458    0.7488 H   0  0  0  0  0  0  0  0  0  0  0  0
   -1.5206    0.9195   -1.1010 H   0  0  0  0  0  0  0  0  0  0  0  0
   -0.2809   -1.4275    1.0712 H   0  0  0  0  0  0  0  0  0  0  0  0
    0.7246   -0.1632    0.0791 H   0  0  0  0  0  0  0  0  0  0  0  0
    0.1006   -1.3220   -0.7327 H   0  0  0  0  0  0  0  0  0  0  0  0
  1  5  1  0  0  0  0
  2  1  1  0  0  0  0
  2  8  1  0  0  0  0
  3  1  1  0  0  0  0
  6  2  1  0  0  0  0
  6  9  1  0  0  0  0
  6 10  1  0  0  0  0
  7  2  1  0  0  0  0
  9 12  1  0  0  0  0
 11  6  1  0  0  0  0
 13  9  1  0  0  0  0
 14  9  1  0  0  0  0
M  RAD  2   1   2   4   2
M  END
$$$$
