butane_opt
 OpenBabel08242015393D

 14 13  0  0  0  0  0  0  0  0999 V2000
   -3.9594    0.2846    0.0781 C   0  0  0  0  0  0  0  0  0  0  0  0
   -2.6979   -0.6266    0.0041 C   0  0  0  0  0  0  0  0  0  0  0  0
   -4.9067   -0.2847   -0.2969 H   0  0  0  0  0  0  0  0  0  0  0  0
   -3.9046    0.7830   -0.7446 H   0  0  0  0  0  0  0  0  0  0  0  0
   -4.0613    1.2120    1.0646 H   0  0  0  0  0  0  0  0  0  0  0  0
   -1.3884    0.1304   -0.0629 C   0  0  0  0  0  0  0  0  0  0  0  0
   -2.9747   -1.2864   -0.8220 H   0  0  0  0  0  0  0  0  0  0  0  0
   -2.6236   -1.3152    0.9598 H   0  0  0  0  0  0  0  0  0  0  0  0
   -0.1364   -0.6636    0.0720 C   0  0  0  0  0  0  0  0  0  0  0  0
   -1.3750    0.8611    0.7770 H   0  0  0  0  0  0  0  0  0  0  0  0
   -1.3507    0.7821   -0.9346 H   0  0  0  0  0  0  0  0  0  0  0  0
   -0.2791   -1.4671    1.0140 H   0  0  0  0  0  0  0  0  0  0  0  0
    0.7704   -0.0203    0.0800 H   0  0  0  0  0  0  0  0  0  0  0  0
   -0.1374   -1.2408   -0.7417 H   0  0  0  0  0  0  0  0  0  0  0  0
  1  5  1  0  0  0  0
  2  1  1  0  0  0  0
  2  8  1  0  0  0  0
  3  1  1  0  0  0  0
  4  1  1  0  0  0  0
  6  2  1  0  0  0  0
  6  9  1  0  0  0  0
  6 10  1  0  0  0  0
  7  2  1  0  0  0  0
  9 13  1  0  0  0  0
  9 12  1  0  0  0  0
 11  6  1  0  0  0  0
 14  9  1  0  0  0  0
M  END
$$$$
