14
butane_opt
C  -3.955915   0.219682  -0.083731
C  -2.727002  -0.590876   0.098660
H  -4.777449  -0.367904   0.554188
H  -4.172848   1.274637  -1.240462
H  -3.893807   0.528552   0.508448
C  -1.401196   0.236044   0.106548
H  -2.782178  -1.255993  -0.737507
H  -2.761859  -1.289978   1.054258
C  -0.094823  -0.718370  -0.063403
H  -1.358616   1.154488   1.251894
H  -1.631000   0.697319  -0.618721
H  -0.117067  -1.165509   0.775820
H   0.698437  -0.286552   0.112733
H  -0.054210  -1.517378  -0.973512
