14
butane_opt
C  -3.948162   0.296644   0.099290
C  -2.654589  -0.651039  -0.037187
H  -4.953491  -0.354956  -0.305364
H  -4.014149   0.497125  -0.491298
H  -3.899119   1.367210   1.267657
C  -1.407128   0.142109  -0.094942
H  -2.653039  -1.169286  -0.837417
H  -2.629486  -1.273052   0.901098
C  -0.187017  -0.657367   0.103571
H  -1.464042   0.699820   0.631734
H  -1.210148   0.903044  -1.144177
H  -0.406666  -1.442956   1.159717
H   0.716980  -0.023409   0.078718
H  -0.138201  -1.271226  -0.635694
