14
butane_opt
C  -3.984647   0.292519  -0.023881
C  -2.701940  -0.683223   0.099094
H  -4.743640  -0.186232  -0.193645
H  -3.896171   1.003230  -0.969779
H  -4.277348   0.910918   0.735127
C  -1.390030   0.186408   0.101600
H  -2.627982  -1.475751  -0.800977
H  -2.670240  -1.284932   0.994761
C  -0.163120  -0.668230  -0.047238
H  -1.349625   0.942154   0.959553
H  -1.326293   0.824786  -0.756823
H   0.124772  -1.486852   0.953816
H   0.911420   0.043217  -0.226995
H  -0.322973  -1.255616  -0.800397
