14
butane_opt
C  -3.957916   0.238545   0.137195
C  -2.699636  -0.562877  -0.110518
H  -4.925570  -0.523619   0.314944
H  -4.045330   0.921672  -0.804476
H  -3.765100   0.975729   1.068138
C  -1.396745   0.195389  -0.095813
H  -2.771433  -1.326186  -1.064366
H  -2.678465  -1.125103   0.761026
C  -0.178199  -0.730173   0.156715
H  -1.413040   0.691760   0.698684
H  -1.230716   1.036356  -1.103440
H  -0.175012  -1.300769   1.066055
H   0.765379  -0.096222   0.106642
H   0.026499  -1.421699  -0.658122
