butane_opt
 OpenBabel08242015393D

 14 13  0  0  0  0  0  0  0  0999 V2000
   -3.9611    0.2309    0.0628 C   0  0  0  0  0  0  0  0  0  0  0  0
   -2.7392   -0.5907   -0.0445 C   0  0  0  0  0  0  0  0  0  0  0  0
   -4.8797   -0.3807   -0.0058 H   0  0  0  0  0  0  0  0  0  0  0  0
   -3.9669    0.7053   -0.6790 H   0  0  0  0  0  0  0  0  0  0  0  0
   -3.7967    1.0717    1.1334 H   0  0  0  0  0  0  0  0  0  0  0  0
   -1.3791    0.2450   -0.0156 C   0  0  0  0  0  0  0  0  0  0  0  0
   -2.8347   -1.4430   -1.0432 H   0  0  0  0  0  0  0  0  0  0  0  0
   -2.7911   -1.0792    0.6923 H   0  0  0  0  0  0  0  0  0  0  0  0
   -0.1206   -0.7380    0.1084 C   0  0  0  0  0  0  0  0  0  0  0  0
   -1.3994    0.8837    0.7808 H   0  0  0  0  0  0  0  0  0  0  0  0
   -1.5061    1.0590   -0.9648 H   0  0  0  0  0  0  0  0  0  0  0  0
    0.0326   -1.7279    1.1674 H   0  0  0  0  0  0  0  0  0  0  0  0
    0.7089   -0.2658   -0.4662 H   0  0  0  0  0  0  0  0  0  0  0  0
   -0.1747   -1.0621   -0.4533 H   0  0  0  0  0  0  0  0  0  0  0  0
  1  5  1  0  0  0  0
  2  6  1  0  0  0  0
  2  1  1  0  0  0  0
  2  8  1  0  0  0  0
  3  1  1  0  0  0  0
  4  1  1  0  0  0  0
  6  9  1  0  0  0  0
  6 10  1  0  0  0  0
  7  2  1  0  0  0  0
  9 12  1  0  0  0  0
 11  6  1  0  0  0  0
 13  9  1  0  0  0  0
 14  9  1  0  0  0  0
M  END
$$$$
