butane_opt
 OpenBabel08242015393D

 14 13  0  0  0  0  0  0  0  0999 V2000
   -3.9769    0.2607    0.1007 C   0  0  0  0  0  0  0  0  0  0  0  0
   -2.7377   -0.5944   -0.0585 C   0  0  0  0  0  0  0  0  0  0  0  0
   -4.9741   -0.3908    0.2382 H   0  0  0  0  0  0  0  0  0  0  0  0
   -3.9860    0.7351   -0.6706 H   0  0  0  0  0  0  0  0  0  0  0  0
   -3.8283    1.0151    0.9756 H   0  0  0  0  0  0  0  0  0  0  0  0
   -1.3910    0.2042   -0.1141 C   0  0  0  0  0  0  0  0  0  0  0  0
   -2.7673   -1.2075   -0.8647 H   0  0  0  0  0  0  0  0  0  0  0  0
   -2.7320   -1.4058    1.0407 H   0  0  0  0  0  0  0  0  0  0  0  0
   -0.0990   -0.7019    0.1160 C   0  0  0  0  0  0  0  0  0  0  0  0
   -1.4303    0.7675    0.6468 H   0  0  0  0  0  0  0  0  0  0  0  0
   -1.3653    0.9273   -1.0251 H   0  0  0  0  0  0  0  0  0  0  0  0
   -0.3499   -1.1000    0.9095 H   0  0  0  0  0  0  0  0  0  0  0  0
    0.6912   -0.2208    0.4988 H   0  0  0  0  0  0  0  0  0  0  0  0
    0.1863   -1.6444   -0.8448 H   0  0  0  0  0  0  0  0  0  0  0  0
  1  3  1  0  0  0  0
  1  5  1  0  0  0  0
  2  1  1  0  0  0  0
  2  8  1  0  0  0  0
  4  1  1  0  0  0  0
  6  2  1  0  0  0  0
  6  9  1  0  0  0  0
  6 10  1  0  0  0  0
  7  2  1  0  0  0  0
  9 13  1  0  0  0  0
  9 12  1  0  0  0  0
 11  6  1  0  0  0  0
 14  9  1  0  0  0  0
M  END
$$$$
