butane_opt
 OpenBabel08242015393D

 14 13  0  0  0  0  0  0  0  0999 V2000
   -3.9184    0.2535   -0.0846 C   0  0  0  0  0  0  0  0  0  0  0  0
   -2.7315   -0.5661    0.1863 C   0  0  0  0  0  0  0  0  0  0  0  0
   -4.9840   -0.4787   -0.3349 H   0  0  0  0  0  0  0  0  0  0  0  0
   -3.5894    0.6415   -0.8855 H   0  0  0  0  0  0  0  0  0  0  0  0
   -3.9643    0.9762    0.8490 H   0  0  0  0  0  0  0  0  0  0  0  0
   -1.4126    0.2057    0.0799 C   0  0  0  0  0  0  0  0  0  0  0  0
   -2.6756   -1.1726   -0.7068 H   0  0  0  0  0  0  0  0  0  0  0  0
   -2.8192   -1.3015    1.1681 H   0  0  0  0  0  0  0  0  0  0  0  0
   -0.1641   -0.7407   -0.0626 C   0  0  0  0  0  0  0  0  0  0  0  0
   -1.4032    1.0872    1.0575 H   0  0  0  0  0  0  0  0  0  0  0  0
   -1.4979    0.7581   -0.7782 H   0  0  0  0  0  0  0  0  0  0  0  0
   -0.0611   -1.3649    0.7978 H   0  0  0  0  0  0  0  0  0  0  0  0
    0.7077   -0.1028   -0.2034 H   0  0  0  0  0  0  0  0  0  0  0  0
   -0.0243   -1.3703   -0.9486 H   0  0  0  0  0  0  0  0  0  0  0  0
  1  2  1  0  0  0  0
  1  5  1  0  0  0  0
  2  8  1  0  0  0  0
  3  1  1  0  0  0  0
  4  1  1  0  0  0  0
  6  2  1  0  0  0  0
  6 10  1  0  0  0  0
  7  2  1  0  0  0  0
  9  6  1  0  0  0  0
  9 12  1  0  0  0  0
 11  6  1  0  0  0  0
 13  9  1  0  0  0  0
 14  9  1  0  0  0  0
M  END
$$$$
