butane_opt
 OpenBabel08242015393D

 14 13  0  0  0  0  0  0  0  0999 V2000
   -3.9123    0.2349    0.0112 C   0  0  0  0  0  0  0  0  0  0  0  0
   -2.7064   -0.5712    0.0500 C   0  0  0  0  0  0  0  0  0  0  0  0
   -4.8478   -0.3815   -0.2147 H   0  0  0  0  0  0  0  0  0  0  0  0
   -3.6973    0.8019   -0.9248 H   0  0  0  0  0  0  0  0  0  0  0  0
   -4.0318    1.1136    0.9933 H   0  0  0  0  0  0  0  0  0  0  0  0
   -1.4324    0.1791    0.0104 C   0  0  0  0  0  0  0  0  0  0  0  0
   -2.8235   -1.1062   -0.6477 H   0  0  0  0  0  0  0  0  0  0  0  0
   -2.7552   -1.3522    1.1135 H   0  0  0  0  0  0  0  0  0  0  0  0
   -0.1661   -0.7250    0.0224 C   0  0  0  0  0  0  0  0  0  0  0  0
   -1.2932    0.8971    0.9054 H   0  0  0  0  0  0  0  0  0  0  0  0
   -1.4347    0.8452   -0.8726 H   0  0  0  0  0  0  0  0  0  0  0  0
   -0.1477   -1.2056    0.8418 H   0  0  0  0  0  0  0  0  0  0  0  0
    0.7428   -0.0327   -0.0401 H   0  0  0  0  0  0  0  0  0  0  0  0
   -0.1220   -1.4741   -0.8509 H   0  0  0  0  0  0  0  0  0  0  0  0
  1  2  1  0  0  0  0
  1  5  1  0  0  0  0
  2  8  1  0  0  0  0
  3  1  1  0  0  0  0
  4  1  1  0  0  0  0
  6  9  1  0  0  0  0
  6  2  1  0  0  0  0
  6 10  1  0  0  0  0
  7  2  1  0  0  0  0
  9 12  1  0  0  0  0
 11  6  1  0  0  0  0
 13  9  1  0  0  0  0
 14  9  1  0  0  0  0
M  END
$$$$
