14
butane_opt
C  -3.978279   0.280869  -0.054274
C  -2.726066  -0.628655   0.075505
H  -4.904396  -0.235139   0.468408
H  -4.094333   1.296541  -1.215915
H  -3.892180   0.534831   0.541786
C  -1.407224   0.184082   0.115559
H  -2.723528  -1.337806  -0.791487
H  -2.825909  -1.339915   0.975807
C  -0.088939  -0.690213  -0.061212
H  -1.167404   0.990361   1.136708
H  -1.493940   0.656866  -0.650945
H  -0.181483  -1.279395   0.897339
H   0.868642  -0.016778   0.122290
H  -0.216577  -1.471221  -0.978258
