14
butane_opt
C  -3.959254   0.276431   0.003432
C  -2.701168  -0.636406   0.057455
H  -4.881179  -0.320850   0.057150
H  -3.930843   0.937326  -0.922981
H  -3.979463   0.945277   0.836023
C  -1.391799   0.179774   0.021617
H  -2.685346  -1.249774  -0.744843
H  -2.727387  -1.301248   0.978483
C  -0.160633  -0.685793   0.015748
H  -1.405010   0.846071   0.879596
H  -1.357810   0.800264  -0.862803
H  -0.140895  -1.202255   0.830785
H   0.750700  -0.103032   0.110651
H  -0.119282  -1.431534  -0.911405
