butane_opt
 OpenBabel08242015393D

 14 13  0  0  0  0  0  0  0  0999 V2000
   -3.9713    0.3105    0.1066 C   0  0  0  0  0  0  0  0  0  0  0  0
   -2.7128   -0.6388   -0.0804 C   0  0  0  0  0  0  0  0  0  0  0  0
   -4.9368   -0.4192    0.3980 H   0  0  0  0  0  0  0  0  0  0  0  0
   -4.2112    1.0489   -0.8880 H   0  0  0  0  0  0  0  0  0  0  0  0
   -3.8708    0.8457    0.8975 H   0  0  0  0  0  0  0  0  0  0  0  0
   -1.3556    0.1489   -0.0779 C   0  0  0  0  0  0  0  0  0  0  0  0
   -2.8350   -1.4527   -0.9860 H   0  0  0  0  0  0  0  0  0  0  0  0
   -2.5668   -1.1173    0.7632 H   0  0  0  0  0  0  0  0  0  0  0  0
   -0.1656   -0.6685    0.1018 C   0  0  0  0  0  0  0  0  0  0  0  0
   -1.4953    0.9009    0.7722 H   0  0  0  0  0  0  0  0  0  0  0  0
   -1.2134    0.6149   -0.7936 H   0  0  0  0  0  0  0  0  0  0  0  0
   -0.1887   -1.4699    1.2105 H   0  0  0  0  0  0  0  0  0  0  0  0
    0.7845   -0.0567    0.0791 H   0  0  0  0  0  0  0  0  0  0  0  0
   -0.0315   -1.1791   -0.6285 H   0  0  0  0  0  0  0  0  0  0  0  0
  1  3  1  0  0  0  0
  1  5  1  0  0  0  0
  2  6  1  0  0  0  0
  2  1  1  0  0  0  0
  2  8  1  0  0  0  0
  4  1  1  0  0  0  0
  6  9  1  0  0  0  0
  6 10  1  0  0  0  0
  7  2  1  0  0  0  0
  9 12  1  0  0  0  0
 11  6  1  0  0  0  0
 13  9  1  0  0  0  0
 14  9  1  0  0  0  0
M  END
$$$$
