butane_opt
 OpenBabel08242015393D

 14 13  0  0  0  0  0  0  0  0999 V2000
   -3.9334    0.2585    0.0226 C   0  0  0  0  0  0  0  0  0  0  0  0
   -2.7046   -0.5975    0.0413 C   0  0  0  0  0  0  0  0  0  0  0  0
   -4.8972   -0.3758   -0.0585 H   0  0  0  0  0  0  0  0  0  0  0  0
   -3.9358    0.7859   -0.8123 H   0  0  0  0  0  0  0  0  0  0  0  0
   -3.9555    0.9628    0.9434 H   0  0  0  0  0  0  0  0  0  0  0  0
   -1.4144    0.1951   -0.0066 C   0  0  0  0  0  0  0  0  0  0  0  0
   -2.7074   -1.3098   -0.8470 H   0  0  0  0  0  0  0  0  0  0  0  0
   -2.6781   -1.2668    0.9550 H   0  0  0  0  0  0  0  0  0  0  0  0
   -0.1564   -0.7049    0.0363 C   0  0  0  0  0  0  0  0  0  0  0  0
   -1.4354    0.8863    0.8587 H   0  0  0  0  0  0  0  0  0  0  0  0
   -1.3890    0.8069   -0.8869 H   0  0  0  0  0  0  0  0  0  0  0  0
   -0.1378   -1.3606    0.9657 H   0  0  0  0  0  0  0  0  0  0  0  0
    0.7378   -0.1075   -0.0149 H   0  0  0  0  0  0  0  0  0  0  0  0
   -0.1113   -1.3128   -0.7822 H   0  0  0  0  0  0  0  0  0  0  0  0
  1  2  1  0  0  0  0
  1  5  1  0  0  0  0
  2  8  1  0  0  0  0
  3  1  1  0  0  0  0
  4  1  1  0  0  0  0
  6  9  1  0  0  0  0
  6  2  1  0  0  0  0
  6 10  1  0  0  0  0
  7  2  1  0  0  0  0
  9 12  1  0  0  0  0
 11  6  1  0  0  0  0
 13  9  1  0  0  0  0
 14  9  1  0  0  0  0
M  END
$$$$
