butane_opt
 OpenBabel08242015393D

 14 11  0  0  0  0  0  0  0  0999 V2000
   -3.9482    0.2966    0.0993 C   0  0  0  0  0  0  0  0  0  0  0  0
   -2.6546   -0.6510   -0.0372 C   0  0  0  0  0  0  0  0  0  0  0  0
   -4.9535   -0.3550   -0.3054 H   0  0  0  0  0  0  0  0  0  0  0  0
   -4.0141    0.4971   -0.4913 H   0  0  0  0  0  0  0  0  0  0  0  0
   -3.8991    1.3672    1.2677 H   0  0  0  0  0  0  0  0  0  0  0  0
   -1.4071    0.1421   -0.0949 C   0  0  0  0  0  0  0  0  0  0  0  0
   -2.6530   -1.1693   -0.8374 H   0  0  0  0  0  0  0  0  0  0  0  0
   -2.6295   -1.2731    0.9011 H   0  0  0  0  0  0  0  0  0  0  0  0
   -0.1870   -0.6574    0.1036 C   0  0  0  0  0  0  0  0  0  0  0  0
   -1.4640    0.6998    0.6317 H   0  0  0  0  0  0  0  0  0  0  0  0
   -1.2101    0.9030   -1.1442 H   0  0  0  0  0  0  0  0  0  0  0  0
   -0.4067   -1.4430    1.1597 H   0  0  0  0  0  0  0  0  0  0  0  0
    0.7170   -0.0234    0.0787 H   0  0  0  0  0  0  0  0  0  0  0  0
   -0.1382   -1.2712   -0.6357 H   0  0  0  0  0  0  0  0  0  0  0  0
  2  1  1  0  0  0  0
  2  8  1  0  0  0  0
  3  1  1  0  0  0  0
  6  2  1  0  0  0  0
  6  9  1  0  0  0  0
  6 10  1  0  0  0  0
  7  2  1  0  0  0  0
  9 12  1  0  0  0  0
 11  6  1  0  0  0  0
 13  9  1  0  0  0  0
 14  9  1  0  0  0  0
M  RAD  3   1   3   4   2   5   2
M  END
$$$$
