butane_opt
 OpenBabel08242015393D

 14 12  0  0  0  0  0  0  0  0999 V2000
   -3.9559    0.2197   -0.0837 C   0  0  0  0  0  0  0  0  0  0  0  0
   -2.7270   -0.5909    0.0987 C   0  0  0  0  0  0  0  0  0  0  0  0
   -4.7774   -0.3679    0.5542 H   0  0  0  0  0  0  0  0  0  0  0  0
   -4.1728    1.2746   -1.2405 H   0  0  0  0  0  0  0  0  0  0  0  0
   -3.8938    0.5286    0.5084 H   0  0  0  0  0  0  0  0  0  0  0  0
   -1.4012    0.2360    0.1065 C   0  0  0  0  0  0  0  0  0  0  0  0
   -2.7822   -1.2560   -0.7375 H   0  0  0  0  0  0  0  0  0  0  0  0
   -2.7619   -1.2900    1.0543 H   0  0  0  0  0  0  0  0  0  0  0  0
   -0.0948   -0.7184   -0.0634 C   0  0  0  0  0  0  0  0  0  0  0  0
   -1.3586    1.1545    1.2519 H   0  0  0  0  0  0  0  0  0  0  0  0
   -1.6310    0.6973   -0.6187 H   0  0  0  0  0  0  0  0  0  0  0  0
   -0.1171   -1.1655    0.7758 H   0  0  0  0  0  0  0  0  0  0  0  0
    0.6984   -0.2866    0.1127 H   0  0  0  0  0  0  0  0  0  0  0  0
   -0.0542   -1.5174   -0.9735 H   0  0  0  0  0  0  0  0  0  0  0  0
  1  2  1  0  0  0  0
  1  5  1  0  0  0  0
  1  3  1  0  0  0  0
  2  6  1  0  0  0  0
  2  8  1  0  0  0  0
  6 10  1  0  0  0  0
  7  2  1  0  0  0  0
  9  6  1  0  0  0  0
  9 13  1  0  0  0  0
  9 12  1  0  0  0  0
 11  6  1  0  0  0  0
 14  9  1  0  0  0  0
M  RAD  2   1   2   4   2
M  END
$$$$
