14
butane_opt
C  -3.975136   0.277393   0.102689
C  -2.736992  -0.608111  -0.026148
H  -4.922882  -0.397060  -0.084305
H  -3.984588   0.601655  -0.590477
H  -3.839509   1.057512   1.020842
C  -1.371109   0.217759  -0.108393
H  -2.899452  -1.196385  -0.895051
H  -2.610420  -1.444626   0.935016
C  -0.152105  -0.714271   0.107806
H  -1.486989   0.839062   0.712087
H  -1.273273   0.955693  -1.129234
H  -0.210472  -1.280832   0.937973
H   0.801000  -0.151379   0.381074
H   0.203202  -1.528485  -0.767008
