butane_opt
 OpenBabel08242015393D

 14 13  0  0  0  0  0  0  0  0999 V2000
   -3.9761    0.2519    0.1177 C   0  0  0  0  0  0  0  0  0  0  0  0
   -2.7258   -0.5893   -0.1345 C   0  0  0  0  0  0  0  0  0  0  0  0
   -4.8565   -0.3372    0.5205 H   0  0  0  0  0  0  0  0  0  0  0  0
   -4.2237    1.1247   -0.9082 H   0  0  0  0  0  0  0  0  0  0  0  0
   -3.6211    0.7092    0.8550 H   0  0  0  0  0  0  0  0  0  0  0  0
   -1.3962    0.2020   -0.0510 C   0  0  0  0  0  0  0  0  0  0  0  0
   -2.9359   -1.2952   -0.9916 H   0  0  0  0  0  0  0  0  0  0  0  0
   -2.8059   -1.2827    0.8671 H   0  0  0  0  0  0  0  0  0  0  0  0
   -0.1057   -0.7010    0.1242 C   0  0  0  0  0  0  0  0  0  0  0  0
   -1.4891    0.8892    0.8172 H   0  0  0  0  0  0  0  0  0  0  0  0
   -1.2823    0.7519   -0.9291 H   0  0  0  0  0  0  0  0  0  0  0  0
   -0.0990   -1.4454    1.0582 H   0  0  0  0  0  0  0  0  0  0  0  0
    0.7787   -0.1719    0.1825 H   0  0  0  0  0  0  0  0  0  0  0  0
   -0.0567   -1.3529   -0.7296 H   0  0  0  0  0  0  0  0  0  0  0  0
  1  3  1  0  0  0  0
  1  5  1  0  0  0  0
  2  6  1  0  0  0  0
  2  1  1  0  0  0  0
  2  8  1  0  0  0  0
  4  1  1  0  0  0  0
  6  9  1  0  0  0  0
  6 10  1  0  0  0  0
  7  2  1  0  0  0  0
  9 13  1  0  0  0  0
  9 12  1  0  0  0  0
 11  6  1  0  0  0  0
 14  9  1  0  0  0  0
M  END
$$$$
