14
butane_opt
C  -3.990911   0.292368  -0.033616
C  -2.666559  -0.660701   0.136179
H  -4.919565  -0.333264  -0.268215
H  -3.860431   0.806989  -0.919763
H  -4.178968   1.135430   0.883246
C  -1.374770   0.149761   0.034673
H  -2.513878  -1.153939  -0.591371
H  -2.775321  -1.425376   1.094053
C  -0.158499  -0.652851  -0.042231
H  -1.272719   0.911547   1.041811
H  -1.485522   0.768922  -0.857877
H  -0.374227  -1.217775   0.835788
H   0.667399  -0.013925   0.084989
H  -0.025349  -1.513065  -1.002667
