butane_opt
 OpenBabel08242015393D

 14 13  0  0  0  0  0  0  0  0999 V2000
   -3.9464    0.3140    0.1276 C   0  0  0  0  0  0  0  0  0  0  0  0
   -2.6557   -0.6364   -0.1038 C   0  0  0  0  0  0  0  0  0  0  0  0
   -4.9455   -0.3497    0.4944 H   0  0  0  0  0  0  0  0  0  0  0  0
   -4.1751    0.9294   -0.8340 H   0  0  0  0  0  0  0  0  0  0  0  0
   -3.8357    0.7647    0.8410 H   0  0  0  0  0  0  0  0  0  0  0  0
   -1.4013    0.1345   -0.0685 C   0  0  0  0  0  0  0  0  0  0  0  0
   -2.6535   -1.4977   -1.1007 H   0  0  0  0  0  0  0  0  0  0  0  0
   -2.6287   -1.0826    0.6246 H   0  0  0  0  0  0  0  0  0  0  0  0
   -0.1865   -0.6593    0.1559 C   0  0  0  0  0  0  0  0  0  0  0  0
   -1.5495    0.6864    0.6684 H   0  0  0  0  0  0  0  0  0  0  0  0
   -1.2364    0.8418   -0.9436 H   0  0  0  0  0  0  0  0  0  0  0  0
   -0.2311   -1.3235    1.0391 H   0  0  0  0  0  0  0  0  0  0  0  0
    0.8079   -0.0430   -0.0572 H   0  0  0  0  0  0  0  0  0  0  0  0
   -0.2935   -1.2143   -0.6210 H   0  0  0  0  0  0  0  0  0  0  0  0
  1  3  1  0  0  0  0
  1  5  1  0  0  0  0
  2  6  1  0  0  0  0
  2  1  1  0  0  0  0
  2  8  1  0  0  0  0
  4  1  1  0  0  0  0
  6  9  1  0  0  0  0
  6 10  1  0  0  0  0
  7  2  1  0  0  0  0
  9 12  1  0  0  0  0
 11  6  1  0  0  0  0
 13  9  1  0  0  0  0
 14  9  1  0  0  0  0
M  END
$$$$
