14
butane_opt
C  -3.980964   0.281646  -0.085018
C  -2.713173  -0.658349   0.135748
H  -4.722985  -0.190174  -0.189358
H  -3.960409   1.014332  -1.134243
H  -4.074178   0.845726   0.685443
C  -1.379000   0.200880   0.191299
H  -2.667119  -1.322878  -0.637043
H  -2.796919  -1.233051   0.928639
C  -0.145717  -0.695000  -0.101745
H  -1.138412   0.966590   1.069369
H  -1.458686   0.678865  -0.639821
H  -0.008322  -1.584235   0.963443
H   0.809402  -0.000176  -0.457648
H  -0.396349  -1.159506  -0.822971
