14
butane_opt
C  -3.946389   0.314006   0.127646
C  -2.655683  -0.636419  -0.103844
H  -4.945496  -0.349673   0.494426
H  -4.175061   0.929359  -0.834040
H  -3.835666   0.764684   0.840960
C  -1.401280   0.134489  -0.068482
H  -2.653538  -1.497739  -1.100742
H  -2.628737  -1.082623   0.624629
C  -0.186540  -0.659344   0.155901
H  -1.549464   0.686374   0.668422
H  -1.236403   0.841777  -0.943593
H  -0.231056  -1.323488   1.039143
H   0.807945  -0.042972  -0.057217
H  -0.293479  -1.214327  -0.621001
