14
butane_opt
C  -3.966812   0.219730  -0.120410
C  -2.742567  -0.548256   0.137399
H  -4.922332  -0.379923   0.022706
H  -3.787694   0.857702  -1.104452
H  -3.949469   0.894280   0.789877
C  -1.416290   0.193971   0.183681
H  -2.619813  -1.295064  -0.705920
H  -2.789990  -1.244053   1.036047
C  -0.105761  -0.721922  -0.082432
H  -1.320935   0.927376   1.136410
H  -1.506808   0.908032  -0.680362
H   0.286419  -1.416048   0.865343
H   0.668135  -0.220750  -0.488863
H  -0.296624  -1.227447  -0.833565
