14
butane_opt
C  -3.988966   0.226021  -0.051778
C  -2.701006  -0.575912   0.114454
H  -4.980245  -0.429067   0.007854
H  -3.779747   0.912528  -1.090865
H  -4.063662   0.841017   0.702351
C  -1.413344   0.246416   0.110836
H  -2.595374  -1.343845  -0.827694
H  -2.851424  -1.107818   0.955007
C  -0.106407  -0.731966  -0.033308
H  -1.293197   0.911671   0.964090
H  -1.486620   0.698535  -0.584879
H   0.166445  -1.498835   0.973545
H   0.759639  -0.195863  -0.421637
H  -0.351249  -1.245940  -0.888678
