butane_opt
 OpenBabel08242015393D

 14 13  0  0  0  0  0  0  0  0999 V2000
   -3.9860    0.3150   -0.1068 C   0  0  0  0  0  0  0  0  0  0  0  0
   -2.6923   -0.6780    0.2224 C   0  0  0  0  0  0  0  0  0  0  0  0
   -4.8815   -0.2879   -0.3131 H   0  0  0  0  0  0  0  0  0  0  0  0
   -3.7312    0.7807   -0.9756 H   0  0  0  0  0  0  0  0  0  0  0  0
   -4.3218    1.1420    0.7988 H   0  0  0  0  0  0  0  0  0  0  0  0
   -1.3604    0.1339    0.1046 C   0  0  0  0  0  0  0  0  0  0  0  0
   -2.5798   -1.2178   -0.5425 H   0  0  0  0  0  0  0  0  0  0  0  0
   -2.7602   -1.2758    1.0532 H   0  0  0  0  0  0  0  0  0  0  0  0
   -0.1807   -0.6622   -0.0866 C   0  0  0  0  0  0  0  0  0  0  0  0
   -1.3031    0.8466    0.9773 H   0  0  0  0  0  0  0  0  0  0  0  0
   -1.4168    0.7931   -0.7320 H   0  0  0  0  0  0  0  0  0  0  0  0
   -0.0268   -1.2003    0.6908 H   0  0  0  0  0  0  0  0  0  0  0  0
    0.8171    0.1086   -0.0633 H   0  0  0  0  0  0  0  0  0  0  0  0
   -0.2195   -1.4648   -1.0413 H   0  0  0  0  0  0  0  0  0  0  0  0
  1  2  1  0  0  0  0
  1  5  1  0  0  0  0
  2  8  1  0  0  0  0
  3  1  1  0  0  0  0
  4  1  1  0  0  0  0
  6  2  1  0  0  0  0
  6 10  1  0  0  0  0
  7  2  1  0  0  0  0
  9 13  1  0  0  0  0
  9  6  1  0  0  0  0
  9 12  1  0  0  0  0
 11  6  1  0  0  0  0
 14  9  1  0  0  0  0
M  END
$$$$
