14
butane_opt
C  -3.961134   0.230940   0.062764
C  -2.739214  -0.590674  -0.044533
H  -4.879663  -0.380749  -0.005755
H  -3.966862   0.705325  -0.678974
H  -3.796685   1.071706   1.133435
C  -1.379079   0.244991  -0.015609
H  -2.834666  -1.442981  -1.043249
H  -2.791124  -1.079153   0.692349
C  -0.120611  -0.738038   0.108393
H  -1.399399   0.883653   0.780772
H  -1.506103   1.059029  -0.964846
H   0.032604  -1.727865   1.167400
H   0.708858  -0.265774  -0.466235
H  -0.174664  -1.062125  -0.453321
