butane_opt
 OpenBabel08242015393D

 14 12  0  0  0  0  0  0  0  0999 V2000
   -3.9076    0.2709    0.0766 C   0  0  0  0  0  0  0  0  0  0  0  0
   -2.6754   -0.6496   -0.0445 C   0  0  0  0  0  0  0  0  0  0  0  0
   -4.7230   -0.2600   -0.0225 H   0  0  0  0  0  0  0  0  0  0  0  0
   -4.1103    0.6404   -0.6407 H   0  0  0  0  0  0  0  0  0  0  0  0
   -3.8665    1.3732    1.1839 H   0  0  0  0  0  0  0  0  0  0  0  0
   -1.4435    0.1645   -0.0583 C   0  0  0  0  0  0  0  0  0  0  0  0
   -2.6498   -1.3714   -0.9591 H   0  0  0  0  0  0  0  0  0  0  0  0
   -2.6614   -1.2100    0.7931 H   0  0  0  0  0  0  0  0  0  0  0  0
   -0.1801   -0.6515    0.1136 C   0  0  0  0  0  0  0  0  0  0  0  0
   -1.5199    0.6944    0.6364 H   0  0  0  0  0  0  0  0  0  0  0  0
   -1.2652    0.7916   -0.9112 H   0  0  0  0  0  0  0  0  0  0  0  0
   -0.2848   -1.5754    1.2068 H   0  0  0  0  0  0  0  0  0  0  0  0
    0.7687   -0.0854   -0.2854 H   0  0  0  0  0  0  0  0  0  0  0  0
   -0.2280   -1.0626   -0.5642 H   0  0  0  0  0  0  0  0  0  0  0  0
  2  1  1  0  0  0  0
  2  8  1  0  0  0  0
  3  1  1  0  0  0  0
  4  1  1  0  0  0  0
  6  2  1  0  0  0  0
  6  9  1  0  0  0  0
  6 10  1  0  0  0  0
  7  2  1  0  0  0  0
  9 12  1  0  0  0  0
 11  6  1  0  0  0  0
 13  9  1  0  0  0  0
 14  9  1  0  0  0  0
M  RAD  2   1   2   5   2
M  END
$$$$
