butane_opt
 OpenBabel08242015393D

 14 13  0  0  0  0  0  0  0  0999 V2000
   -4.0043    0.2623    0.0943 C   0  0  0  0  0  0  0  0  0  0  0  0
   -2.7043   -0.6579    0.0031 C   0  0  0  0  0  0  0  0  0  0  0  0
   -4.8073   -0.1848   -0.0051 H   0  0  0  0  0  0  0  0  0  0  0  0
   -3.9670    0.8383   -0.7567 H   0  0  0  0  0  0  0  0  0  0  0  0
   -4.0454    1.0808    1.0388 H   0  0  0  0  0  0  0  0  0  0  0  0
   -1.3845    0.1940   -0.0969 C   0  0  0  0  0  0  0  0  0  0  0  0
   -2.7468   -1.3862   -0.9238 H   0  0  0  0  0  0  0  0  0  0  0  0
   -2.4798   -1.2221    0.8533 H   0  0  0  0  0  0  0  0  0  0  0  0
   -0.1525   -0.6662    0.0794 C   0  0  0  0  0  0  0  0  0  0  0  0
   -1.2872    0.7015    0.7015 H   0  0  0  0  0  0  0  0  0  0  0  0
   -1.3385    1.0233   -1.1057 H   0  0  0  0  0  0  0  0  0  0  0  0
   -0.3129   -1.2848    0.9958 H   0  0  0  0  0  0  0  0  0  0  0  0
    0.7428   -0.0674    0.5232 H   0  0  0  0  0  0  0  0  0  0  0  0
    0.1492   -1.5617   -0.8335 H   0  0  0  0  0  0  0  0  0  0  0  0
  1  5  1  0  0  0  0
  2  1  1  0  0  0  0
  2  8  1  0  0  0  0
  3  1  1  0  0  0  0
  4  1  1  0  0  0  0
  6  2  1  0  0  0  0
  6  9  1  0  0  0  0
  6 10  1  0  0  0  0
  7  2  1  0  0  0  0
  9 13  1  0  0  0  0
  9 12  1  0  0  0  0
 11  6  1  0  0  0  0
 14  9  1  0  0  0  0
M  END
$$$$
