14
butane_opt
C  -3.935934   0.305606  -0.031808
C  -2.708321  -0.637967   0.111275
H  -4.909807  -0.258785  -0.333157
H  -3.732579   0.859827  -0.907472
H  -4.228135   1.096836   0.837076
C  -1.392411   0.130690   0.075614
H  -2.661724  -1.328837  -0.721628
H  -2.652011  -1.446162   1.109644
C  -0.180443  -0.674204  -0.014167
H  -1.247788   0.835118   0.937809
H  -1.459529   0.784947  -0.760074
H  -0.155146  -1.310932   0.765576
H   0.903105   0.150698  -0.270747
H  -0.293768  -1.323506  -0.905610
