14
butane_opt
C  -3.959368   0.284642   0.078057
C  -2.697948  -0.626563   0.004060
H  -4.906665  -0.284734  -0.296896
H  -3.904608   0.782983  -0.744563
H  -4.061294   1.211996   1.064557
C  -1.388399   0.130408  -0.062898
H  -2.974726  -1.286397  -0.822037
H  -2.623552  -1.315155   0.959795
C  -0.136411  -0.663612   0.071974
H  -1.375013   0.861138   0.777046
H  -1.350733   0.782133  -0.934612
H  -0.279065  -1.467069   1.013965
H   0.770371  -0.020295   0.080031
H  -0.137362  -1.240799  -0.741674
