14
butane_opt
C  -3.949907   0.265344  -0.009034
C  -2.699276  -0.620797   0.078593
H  -4.854099  -0.288362  -0.087671
H  -3.893461   0.830359  -0.888475
H  -4.097048   0.984300   0.876001
C  -1.397726   0.183940   0.041094
H  -2.696175  -1.280848  -0.752589
H  -2.763693  -1.260867   0.963592
C  -0.159405  -0.687597   0.003215
H  -1.338652   0.836374   0.856913
H  -1.469030   0.806163  -0.858337
H  -0.089832  -1.326591   0.895516
H   0.778567  -0.080467  -0.032570
H  -0.133731  -1.376713  -0.883171
