butane_opt
 OpenBabel08242015393D

 14 13  0  0  0  0  0  0  0  0999 V2000
   -3.9352    0.2627    0.0932 C   0  0  0  0  0  0  0  0  0  0  0  0
   -2.6986   -0.5710   -0.0385 C   0  0  0  0  0  0  0  0  0  0  0  0
   -4.8143   -0.3486    0.0935 H   0  0  0  0  0  0  0  0  0  0  0  0
   -3.8914    0.7115   -0.6839 H   0  0  0  0  0  0  0  0  0  0  0  0
   -3.9350    1.0716    1.1353 H   0  0  0  0  0  0  0  0  0  0  0  0
   -1.3836    0.1538   -0.1261 C   0  0  0  0  0  0  0  0  0  0  0  0
   -2.7462   -1.3707   -0.9055 H   0  0  0  0  0  0  0  0  0  0  0  0
   -2.5053   -1.3101    0.9478 H   0  0  0  0  0  0  0  0  0  0  0  0
   -0.2128   -0.6936    0.1312 C   0  0  0  0  0  0  0  0  0  0  0  0
   -1.3368    0.8030    0.6637 H   0  0  0  0  0  0  0  0  0  0  0  0
   -1.3537    0.8720   -1.0265 H   0  0  0  0  0  0  0  0  0  0  0  0
   -0.3035   -1.2113    0.9248 H   0  0  0  0  0  0  0  0  0  0  0  0
    0.6782   -0.0821    0.3078 H   0  0  0  0  0  0  0  0  0  0  0  0
   -0.0415   -1.4270   -0.7188 H   0  0  0  0  0  0  0  0  0  0  0  0
  1  3  1  0  0  0  0
  1  5  1  0  0  0  0
  2  1  1  0  0  0  0
  2  8  1  0  0  0  0
  4  1  1  0  0  0  0
  6  2  1  0  0  0  0
  6  9  1  0  0  0  0
  6 10  1  0  0  0  0
  7  2  1  0  0  0  0
  9 13  1  0  0  0  0
  9 12  1  0  0  0  0
 11  6  1  0  0  0  0
 14  9  1  0  0  0  0
M  END
$$$$
