butane_opt
 OpenBabel08242015393D

 14 13  0  0  0  0  0  0  0  0999 V2000
   -3.9381    0.2749    0.0926 C   0  0  0  0  0  0  0  0  0  0  0  0
   -2.6794   -0.6124   -0.0175 C   0  0  0  0  0  0  0  0  0  0  0  0
   -4.8764   -0.3435   -0.0285 H   0  0  0  0  0  0  0  0  0  0  0  0
   -3.9936    0.7752   -0.6473 H   0  0  0  0  0  0  0  0  0  0  0  0
   -3.9335    1.0930    1.1256 H   0  0  0  0  0  0  0  0  0  0  0  0
   -1.3999    0.1760   -0.1018 C   0  0  0  0  0  0  0  0  0  0  0  0
   -2.7569   -1.4066   -0.9312 H   0  0  0  0  0  0  0  0  0  0  0  0
   -2.7594   -1.3040    0.8196 H   0  0  0  0  0  0  0  0  0  0  0  0
   -0.1524   -0.6802    0.1399 C   0  0  0  0  0  0  0  0  0  0  0  0
   -1.5837    0.6956    0.6137 H   0  0  0  0  0  0  0  0  0  0  0  0
   -1.3742    0.9492   -1.1085 H   0  0  0  0  0  0  0  0  0  0  0  0
   -0.3709   -1.2322    0.9473 H   0  0  0  0  0  0  0  0  0  0  0  0
    0.8365   -0.0185    0.1050 H   0  0  0  0  0  0  0  0  0  0  0  0
   -0.1767   -1.5627   -0.8199 H   0  0  0  0  0  0  0  0  0  0  0  0
  1  5  1  0  0  0  0
  2  1  1  0  0  0  0
  2  8  1  0  0  0  0
  3  1  1  0  0  0  0
  4  1  1  0  0  0  0
  6  2  1  0  0  0  0
  6  9  1  0  0  0  0
  6 10  1  0  0  0  0
  7  2  1  0  0  0  0
  9 12  1  0  0  0  0
 11  6  1  0  0  0  0
 13  9  1  0  0  0  0
 14  9  1  0  0  0  0
M  END
$$$$
