butane_opt
 OpenBabel08242015393D

 14 13  0  0  0  0  0  0  0  0999 V2000
   -3.9603    0.3067    0.1238 C   0  0  0  0  0  0  0  0  0  0  0  0
   -2.7188   -0.6876   -0.0394 C   0  0  0  0  0  0  0  0  0  0  0  0
   -4.7614   -0.1511    0.1935 H   0  0  0  0  0  0  0  0  0  0  0  0
   -4.1505    0.8357   -0.7488 H   0  0  0  0  0  0  0  0  0  0  0  0
   -3.8964    1.0176    1.0204 H   0  0  0  0  0  0  0  0  0  0  0  0
   -1.3943    0.1629   -0.1354 C   0  0  0  0  0  0  0  0  0  0  0  0
   -2.8396   -1.3709   -0.9738 H   0  0  0  0  0  0  0  0  0  0  0  0
   -2.6539   -1.2481    0.7306 H   0  0  0  0  0  0  0  0  0  0  0  0
   -0.1345   -0.6657    0.1549 C   0  0  0  0  0  0  0  0  0  0  0  0
   -1.4333    0.7167    0.6596 H   0  0  0  0  0  0  0  0  0  0  0  0
   -1.1958    1.0316   -1.2575 H   0  0  0  0  0  0  0  0  0  0  0  0
   -0.2816   -1.0291    0.9106 H   0  0  0  0  0  0  0  0  0  0  0  0
    0.8150   -0.1139    0.5033 H   0  0  0  0  0  0  0  0  0  0  0  0
   -0.1519   -1.5477   -0.8455 H   0  0  0  0  0  0  0  0  0  0  0  0
  1  3  1  0  0  0  0
  1  5  1  0  0  0  0
  2  1  1  0  0  0  0
  2  8  1  0  0  0  0
  4  1  1  0  0  0  0
  6  2  1  0  0  0  0
  6  9  1  0  0  0  0
  6 10  1  0  0  0  0
  7  2  1  0  0  0  0
  9 13  1  0  0  0  0
  9 12  1  0  0  0  0
 11  6  1  0  0  0  0
 14  9  1  0  0  0  0
M  END
$$$$
