14
butane_opt
C  -3.970819   0.269267   0.008666
C  -2.690473  -0.624577   0.053950
H  -4.852083  -0.304022   0.061988
H  -4.009994   0.933653  -0.928361
H  -3.975251   0.940099   0.844187
C  -1.399229   0.176892   0.003382
H  -2.698647  -1.254194  -0.739899
H  -2.703540  -1.319275   0.996330
C  -0.155300  -0.685851   0.029213
H  -1.351734   0.844273   0.845353
H  -1.356742   0.761101  -0.858619
H  -0.134134  -1.154311   0.832625
H   0.770261  -0.061220   0.169337
H  -0.126059  -1.481910  -0.940402
