14
butane_opt
C  -3.931911   0.223114  -0.045298
C  -2.718531  -0.572203   0.158825
H  -4.801488  -0.341869  -0.090612
H  -3.742349   1.109473  -1.116102
H  -4.137261   0.836164   0.752976
C  -1.402438   0.200985   0.046371
H  -2.656299  -1.242621  -0.570211
H  -2.824559  -1.215619   1.080215
C  -0.157903  -0.727820  -0.040442
H  -1.378936   0.874430   0.918276
H  -1.433771   0.779902  -0.775542
H  -0.100984  -0.971796   0.545397
H   0.814267  -0.092594   0.295059
H  -0.214982  -1.688981  -1.070467
