butane_opt
 OpenBabel08242015393D

 14 12  0  0  0  0  0  0  0  0999 V2000
   -3.9541    0.2976    0.0759 C   0  0  0  0  0  0  0  0  0  0  0  0
   -2.6623   -0.6366    0.0443 C   0  0  0  0  0  0  0  0  0  0  0  0
   -4.8859   -0.3417   -0.4933 H   0  0  0  0  0  0  0  0  0  0  0  0
   -3.7962    0.5213   -0.5685 H   0  0  0  0  0  0  0  0  0  0  0  0
   -4.2318    1.4000    1.1547 H   0  0  0  0  0  0  0  0  0  0  0  0
   -1.4010    0.1244   -0.0863 C   0  0  0  0  0  0  0  0  0  0  0  0
   -2.7094   -1.4715   -0.9502 H   0  0  0  0  0  0  0  0  0  0  0  0
   -2.4830   -1.2221    0.9106 H   0  0  0  0  0  0  0  0  0  0  0  0
   -0.1885   -0.6734    0.0994 C   0  0  0  0  0  0  0  0  0  0  0  0
   -1.2658    0.7386    0.6585 H   0  0  0  0  0  0  0  0  0  0  0  0
   -1.3300    0.9548   -1.0978 H   0  0  0  0  0  0  0  0  0  0  0  0
   -0.3122   -1.2395    1.0431 H   0  0  0  0  0  0  0  0  0  0  0  0
    0.7417   -0.0221   -0.1484 H   0  0  0  0  0  0  0  0  0  0  0  0
   -0.2514   -1.1591   -0.6277 H   0  0  0  0  0  0  0  0  0  0  0  0
  2  1  1  0  0  0  0
  2  8  1  0  0  0  0
  3  1  1  0  0  0  0
  4  1  1  0  0  0  0
  6  2  1  0  0  0  0
  6  9  1  0  0  0  0
  6 10  1  0  0  0  0
  7  2  1  0  0  0  0
  9 12  1  0  0  0  0
 11  6  1  0  0  0  0
 13  9  1  0  0  0  0
 14  9  1  0  0  0  0
M  RAD  2   1   2   5   2
M  END
$$$$
