butane_opt
 OpenBabel08242015393D

 14 13  0  0  0  0  0  0  0  0999 V2000
   -3.9406    0.3118    0.0738 C   0  0  0  0  0  0  0  0  0  0  0  0
   -2.6783   -0.6257   -0.0084 C   0  0  0  0  0  0  0  0  0  0  0  0
   -4.9674   -0.3829   -0.1166 H   0  0  0  0  0  0  0  0  0  0  0  0
   -4.0207    0.7402   -0.5980 H   0  0  0  0  0  0  0  0  0  0  0  0
   -3.9048    1.1847    1.1256 H   0  0  0  0  0  0  0  0  0  0  0  0
   -1.3891    0.1340   -0.0795 C   0  0  0  0  0  0  0  0  0  0  0  0
   -2.7055   -1.3299   -0.8051 H   0  0  0  0  0  0  0  0  0  0  0  0
   -2.7538   -1.4198    0.9768 H   0  0  0  0  0  0  0  0  0  0  0  0
   -0.1909   -0.6512    0.0798 C   0  0  0  0  0  0  0  0  0  0  0  0
   -1.4343    0.6933    0.6358 H   0  0  0  0  0  0  0  0  0  0  0  0
   -1.2144    0.7874   -1.0640 H   0  0  0  0  0  0  0  0  0  0  0  0
   -0.3881   -1.2835    0.9764 H   0  0  0  0  0  0  0  0  0  0  0  0
    0.7670   -0.0280    0.3045 H   0  0  0  0  0  0  0  0  0  0  0  0
   -0.0286   -1.4504   -0.7772 H   0  0  0  0  0  0  0  0  0  0  0  0
  1  5  1  0  0  0  0
  2  1  1  0  0  0  0
  2  8  1  0  0  0  0
  3  1  1  0  0  0  0
  4  1  1  0  0  0  0
  6  2  1  0  0  0  0
  6  9  1  0  0  0  0
  6 10  1  0  0  0  0
  7  2  1  0  0  0  0
  9 13  1  0  0  0  0
  9 12  1  0  0  0  0
 11  6  1  0  0  0  0
 14  9  1  0  0  0  0
M  END
$$$$
