14
butane_opt
C  -3.904001   0.226473  -0.063843
C  -2.706832  -0.566470   0.154326
H  -4.865959  -0.390196   0.068362
H  -3.918507   0.870848  -0.982863
H  -3.984405   0.776492   0.752788
C  -1.426749   0.246638   0.027543
H  -2.727572  -1.269134  -0.647185
H  -2.658161  -1.417892   1.173852
C  -0.150649  -0.733349  -0.051511
H  -1.366170   1.020302   0.947010
H  -1.639276   0.783646  -0.838176
H  -0.345134  -0.995920   0.683573
H   0.771366  -0.210273   0.511187
H  -0.000266  -1.727200  -1.060434
