14
butane_opt
C  -3.999556   0.277519  -0.073278
C  -2.676625  -0.680303   0.185015
H  -4.840252  -0.256479  -0.440798
H  -3.870964   0.881740  -0.925624
H  -4.397414   1.280046   0.888988
C  -1.359234   0.161423   0.043211
H  -2.561101  -1.216217  -0.559498
H  -2.754548  -1.479432   1.229243
C  -0.154421  -0.643192  -0.068161
H  -1.251293   0.997042   1.106316
H  -1.453312   0.685611  -0.731144
H  -0.028357  -1.210200   0.810248
H   0.690226  -0.127574   0.028647
H  -0.267462  -1.424858  -0.991120
