butane_opt
 OpenBabel08242015393D

 14 13  0  0  0  0  0  0  0  0999 V2000
   -3.9315    0.2774    0.0463 C   0  0  0  0  0  0  0  0  0  0  0  0
   -2.6950   -0.6322   -0.0055 C   0  0  0  0  0  0  0  0  0  0  0  0
   -4.8132   -0.2966    0.1990 H   0  0  0  0  0  0  0  0  0  0  0  0
   -4.0750    0.9606   -0.8636 H   0  0  0  0  0  0  0  0  0  0  0  0
   -3.8772    0.8650    0.8481 H   0  0  0  0  0  0  0  0  0  0  0  0
   -1.4100    0.1808   -0.0145 C   0  0  0  0  0  0  0  0  0  0  0  0
   -2.7181   -1.3267   -0.8751 H   0  0  0  0  0  0  0  0  0  0  0  0
   -2.7029   -1.2560    0.8563 H   0  0  0  0  0  0  0  0  0  0  0  0
   -0.1750   -0.6875    0.0669 C   0  0  0  0  0  0  0  0  0  0  0  0
   -1.4257    0.8724    0.8476 H   0  0  0  0  0  0  0  0  0  0  0  0
   -1.3403    0.7645   -0.8863 H   0  0  0  0  0  0  0  0  0  0  0  0
   -0.1843   -1.2977    0.9567 H   0  0  0  0  0  0  0  0  0  0  0  0
    0.7891   -0.0673    0.0118 H   0  0  0  0  0  0  0  0  0  0  0  0
   -0.1478   -1.3351   -0.7827 H   0  0  0  0  0  0  0  0  0  0  0  0
  1  3  1  0  0  0  0
  1  5  1  0  0  0  0
  2  1  1  0  0  0  0
  2  8  1  0  0  0  0
  4  1  1  0  0  0  0
  6  2  1  0  0  0  0
  6  9  1  0  0  0  0
  6 10  1  0  0  0  0
  7  2  1  0  0  0  0
  9 12  1  0  0  0  0
 11  6  1  0  0  0  0
 13  9  1  0  0  0  0
 14  9  1  0  0  0  0
M  END
$$$$
