14
butane_opt
C  -3.992200   0.253826   0.077944
C  -2.720610  -0.608915  -0.091453
H  -4.890287  -0.328434   0.057799
H  -4.098065   0.691563  -0.701276
H  -3.827986   1.221527   1.180139
C  -1.363646   0.215400  -0.044694
H  -2.887488  -1.374037  -1.003449
H  -2.659162  -1.265528   0.817938
C  -0.114164  -0.716121   0.116183
H  -1.510955   0.875712   0.854575
H  -1.363526   0.819110  -0.908368
H   0.121231  -1.801434   1.338419
H   0.794939  -0.027123  -0.366919
H  -0.414298  -0.988919  -0.461458
