14
butane_opt
C  -3.993773   0.301211  -0.077361
C  -2.696797  -0.639241   0.094002
H  -4.953101  -0.308525  -0.138571
H  -3.880031   0.953409  -1.057729
H  -4.089220   0.812774   0.722564
C  -1.390047   0.156625   0.159123
H  -2.698236  -1.306599  -0.676468
H  -2.647784  -1.431962   1.133412
C  -0.142120  -0.675003  -0.071339
H  -1.309466   1.058328   1.157937
H  -1.476191   0.619473  -0.570446
H   0.186796  -1.497396   0.906205
H   0.791427  -0.008747  -0.512713
H  -0.301523  -1.057817  -0.784319
