butane_opt
 OpenBabel08242015393D

 14 13  0  0  0  0  0  0  0  0999 V2000
   -3.9410    0.2359    0.1390 C   0  0  0  0  0  0  0  0  0  0  0  0
   -2.7214   -0.6118   -0.0641 C   0  0  0  0  0  0  0  0  0  0  0  0
   -4.8505   -0.3248    0.1386 H   0  0  0  0  0  0  0  0  0  0  0  0
   -4.0712    0.8453   -0.7683 H   0  0  0  0  0  0  0  0  0  0  0  0
   -3.9008    0.8883    1.0026 H   0  0  0  0  0  0  0  0  0  0  0  0
   -1.4142    0.2433   -0.1452 C   0  0  0  0  0  0  0  0  0  0  0  0
   -2.9224   -1.1893   -0.8645 H   0  0  0  0  0  0  0  0  0  0  0  0
   -2.6714   -1.2744    0.8226 H   0  0  0  0  0  0  0  0  0  0  0  0
   -0.1306   -0.7071    0.1279 C   0  0  0  0  0  0  0  0  0  0  0  0
   -1.5134    0.8040    0.6971 H   0  0  0  0  0  0  0  0  0  0  0  0
   -1.5033    0.8324   -1.0038 H   0  0  0  0  0  0  0  0  0  0  0  0
   -0.1824   -1.3093    0.9861 H   0  0  0  0  0  0  0  0  0  0  0  0
    0.7014   -0.1035    0.5916 H   0  0  0  0  0  0  0  0  0  0  0  0
    0.3499   -1.5633   -0.8619 H   0  0  0  0  0  0  0  0  0  0  0  0
  1  5  1  0  0  0  0
  2  1  1  0  0  0  0
  2  8  1  0  0  0  0
  3  1  1  0  0  0  0
  4  1  1  0  0  0  0
  6  2  1  0  0  0  0
  6  9  1  0  0  0  0
  6 10  1  0  0  0  0
  7  2  1  0  0  0  0
  9 13  1  0  0  0  0
  9 12  1  0  0  0  0
 11  6  1  0  0  0  0
 14  9  1  0  0  0  0
M  END
$$$$
