14
butane_opt
C  -4.014060   0.246543  -0.064172
C  -2.689538  -0.588246   0.136800
H  -4.929902  -0.301439   0.181853
H  -3.997669   1.167586  -1.167723
H  -3.864562   0.410135   0.590104
C  -1.395716   0.208335   0.103838
H  -2.629693  -1.310438  -0.823415
H  -2.861263  -1.091565   0.965764
C  -0.122180  -0.700688  -0.055777
H  -1.256431   0.964699   1.047278
H  -1.509861   0.636814  -0.641780
H   0.030044  -1.247860   0.782748
H   0.722815  -0.179211  -0.008570
H  -0.076237  -1.505809  -0.978543
