14
butane_opt
C  -3.932010   0.261411   0.010454
C  -2.709137  -0.600957   0.063898
H  -4.847864  -0.338199   0.044943
H  -3.940191   0.904954  -0.905425
H  -3.918826   0.847888   0.839524
C  -1.403276   0.181361   0.000662
H  -2.741975  -1.276683  -0.802622
H  -2.715023  -1.211920   0.969867
C  -0.162112  -0.701386   0.024455
H  -1.448040   0.862307   0.862982
H  -1.401377   0.817557  -0.877978
H  -0.200304  -1.195666   0.854631
H   0.744834  -0.099752   0.156144
H  -0.078630  -1.473797  -0.921069
