butane_opt
 OpenBabel08242015393D

 14 11  0  0  0  0  0  0  0  0999 V2000
   -3.9457    0.2884    0.0963 C   0  0  0  0  0  0  0  0  0  0  0  0
   -2.6644   -0.6339   -0.0461 C   0  0  0  0  0  0  0  0  0  0  0  0
   -4.9684   -0.3856   -0.0350 H   0  0  0  0  0  0  0  0  0  0  0  0
   -4.0104    0.7615   -0.7089 H   0  0  0  0  0  0  0  0  0  0  0  0
   -3.8538    1.2355    1.0436 H   0  0  0  0  0  0  0  0  0  0  0  0
   -1.4163    0.1439   -0.0477 C   0  0  0  0  0  0  0  0  0  0  0  0
   -2.7500   -1.5784   -1.0546 H   0  0  0  0  0  0  0  0  0  0  0  0
   -2.4823   -1.0232    0.6368 H   0  0  0  0  0  0  0  0  0  0  0  0
   -0.2056   -0.6728    0.1070 C   0  0  0  0  0  0  0  0  0  0  0  0
   -1.3213    0.7346    0.6920 H   0  0  0  0  0  0  0  0  0  0  0  0
   -1.3861    0.8009   -0.9555 H   0  0  0  0  0  0  0  0  0  0  0  0
   -0.0428   -1.6765    1.2635 H   0  0  0  0  0  0  0  0  0  0  0  0
    0.8245    0.0048   -0.2636 H   0  0  0  0  0  0  0  0  0  0  0  0
   -0.2599   -0.8345   -0.4214 H   0  0  0  0  0  0  0  0  0  0  0  0
  1  5  1  0  0  0  0
  2  1  1  0  0  0  0
  2  8  1  0  0  0  0
  3  1  1  0  0  0  0
  4  1  1  0  0  0  0
  6  2  1  0  0  0  0
  6  9  1  0  0  0  0
  6 10  1  0  0  0  0
  7  2  1  0  0  0  0
 11  6  1  0  0  0  0
 13  9  1  0  0  0  0
M  RAD  3   9   3  12   2  14   2
M  END
$$$$
