butane_opt
 OpenBabel08242015393D

 14 13  0  0  0  0  0  0  0  0999 V2000
   -3.9419    0.2451    0.1255 C   0  0  0  0  0  0  0  0  0  0  0  0
   -2.6711   -0.5664   -0.0683 C   0  0  0  0  0  0  0  0  0  0  0  0
   -4.9672   -0.4746    0.1677 H   0  0  0  0  0  0  0  0  0  0  0  0
   -4.0019    0.6644   -0.6220 H   0  0  0  0  0  0  0  0  0  0  0  0
   -3.7282    1.0256    0.9832 H   0  0  0  0  0  0  0  0  0  0  0  0
   -1.4022    0.2031   -0.1064 C   0  0  0  0  0  0  0  0  0  0  0  0
   -2.7188   -1.3312   -0.9708 H   0  0  0  0  0  0  0  0  0  0  0  0
   -2.6502   -1.1716    0.7594 H   0  0  0  0  0  0  0  0  0  0  0  0
   -0.1633   -0.7145    0.1517 C   0  0  0  0  0  0  0  0  0  0  0  0
   -1.4857    0.5217    0.5189 H   0  0  0  0  0  0  0  0  0  0  0  0
   -1.4935    1.0817   -1.1213 H   0  0  0  0  0  0  0  0  0  0  0  0
   -0.4123   -1.1607    0.9915 H   0  0  0  0  0  0  0  0  0  0  0  0
    0.6351   -0.1951    0.3214 H   0  0  0  0  0  0  0  0  0  0  0  0
   -0.0286   -1.4748   -0.8048 H   0  0  0  0  0  0  0  0  0  0  0  0
  1  3  1  0  0  0  0
  1  5  1  0  0  0  0
  2  1  1  0  0  0  0
  2  8  1  0  0  0  0
  4  1  1  0  0  0  0
  6  2  1  0  0  0  0
  6  9  1  0  0  0  0
  6 10  1  0  0  0  0
  7  2  1  0  0  0  0
  9 13  1  0  0  0  0
  9 12  1  0  0  0  0
 11  6  1  0  0  0  0
 14  9  1  0  0  0  0
M  END
$$$$
