butane_opt
 OpenBabel08242015393D

 14 12  0  0  0  0  0  0  0  0999 V2000
   -3.9595    0.2929    0.0825 C   0  0  0  0  0  0  0  0  0  0  0  0
   -2.6540   -0.6437   -0.0671 C   0  0  0  0  0  0  0  0  0  0  0  0
   -4.8713   -0.2494    0.0954 H   0  0  0  0  0  0  0  0  0  0  0  0
   -3.9872    0.7221   -0.6657 H   0  0  0  0  0  0  0  0  0  0  0  0
   -3.9467    1.0945    1.0168 H   0  0  0  0  0  0  0  0  0  0  0  0
   -1.4106    0.1607   -0.0153 C   0  0  0  0  0  0  0  0  0  0  0  0
   -2.6510   -1.5145   -1.0948 H   0  0  0  0  0  0  0  0  0  0  0  0
   -2.5879   -1.1509    0.7358 H   0  0  0  0  0  0  0  0  0  0  0  0
   -0.2167   -0.6767    0.1247 C   0  0  0  0  0  0  0  0  0  0  0  0
   -1.4415    0.8110    0.7670 H   0  0  0  0  0  0  0  0  0  0  0  0
   -1.1223    0.8443   -1.0506 H   0  0  0  0  0  0  0  0  0  0  0  0
    0.0504   -1.7112    1.2138 H   0  0  0  0  0  0  0  0  0  0  0  0
    0.8435    0.1283   -0.4906 H   0  0  0  0  0  0  0  0  0  0  0  0
   -0.4432   -1.0169   -0.5256 H   0  0  0  0  0  0  0  0  0  0  0  0
  1  3  1  0  0  0  0
  1  5  1  0  0  0  0
  2  6  1  0  0  0  0
  2  1  1  0  0  0  0
  2  8  1  0  0  0  0
  4  1  1  0  0  0  0
  6  9  1  0  0  0  0
  6 10  1  0  0  0  0
  7  2  1  0  0  0  0
 11  6  1  0  0  0  0
 13  9  1  0  0  0  0
 14  9  1  0  0  0  0
M  RAD  2   9   2  12   2
M  END
$$$$
