14
butane_opt
C  -3.922859   0.279479  -0.061937
C  -2.662078  -0.652616   0.179698
H  -4.834820  -0.392880  -0.576952
H  -3.712517   0.825210  -0.953794
H  -4.359543   1.121591   0.815431
C  -1.410705   0.179641   0.090826
H  -2.486204  -1.151448  -0.540361
H  -2.673441  -1.469771   1.217090
C  -0.211292  -0.680247  -0.080624
H  -1.246926   1.048245   1.083105
H  -1.476702   0.697203  -0.777122
H  -0.191274  -1.262820   0.797439
H   0.759142  -0.038411  -0.156460
H  -0.297157  -1.379567  -1.000008
