butane_opt
 OpenBabel08242015393D

 14 13  0  0  0  0  0  0  0  0999 V2000
   -3.9396    0.3016   -0.0951 C   0  0  0  0  0  0  0  0  0  0  0  0
   -2.6980   -0.6700    0.1840 C   0  0  0  0  0  0  0  0  0  0  0  0
   -4.8690   -0.4166   -0.4807 H   0  0  0  0  0  0  0  0  0  0  0  0
   -3.8575    0.8176   -0.9249 H   0  0  0  0  0  0  0  0  0  0  0  0
   -4.1918    1.1382    0.8301 H   0  0  0  0  0  0  0  0  0  0  0  0
   -1.3935    0.1788    0.0902 C   0  0  0  0  0  0  0  0  0  0  0  0
   -2.7862   -1.1295   -0.5144 H   0  0  0  0  0  0  0  0  0  0  0  0
   -2.7427   -1.3994    1.2149 H   0  0  0  0  0  0  0  0  0  0  0  0
   -0.1659   -0.6858   -0.0769 C   0  0  0  0  0  0  0  0  0  0  0  0
   -1.2205    1.0122    1.0647 H   0  0  0  0  0  0  0  0  0  0  0  0
   -1.4629    0.6851   -0.6692 H   0  0  0  0  0  0  0  0  0  0  0  0
   -0.0155   -1.2207    0.7840 H   0  0  0  0  0  0  0  0  0  0  0  0
    0.7482   -0.0834   -0.1768 H   0  0  0  0  0  0  0  0  0  0  0  0
   -0.2570   -1.3852   -0.9318 H   0  0  0  0  0  0  0  0  0  0  0  0
  1  2  1  0  0  0  0
  1  5  1  0  0  0  0
  2  8  1  0  0  0  0
  3  1  1  0  0  0  0
  4  1  1  0  0  0  0
  6  2  1  0  0  0  0
  6 10  1  0  0  0  0
  7  2  1  0  0  0  0
  9  6  1  0  0  0  0
  9 12  1  0  0  0  0
 11  6  1  0  0  0  0
 13  9  1  0  0  0  0
 14  9  1  0  0  0  0
M  END
$$$$
