butane_opt
 OpenBabel08242015393D

 14 13  0  0  0  0  0  0  0  0999 V2000
   -3.9846    0.2925   -0.0239 C   0  0  0  0  0  0  0  0  0  0  0  0
   -2.7019   -0.6832    0.0991 C   0  0  0  0  0  0  0  0  0  0  0  0
   -4.7436   -0.1862   -0.1936 H   0  0  0  0  0  0  0  0  0  0  0  0
   -3.8962    1.0032   -0.9698 H   0  0  0  0  0  0  0  0  0  0  0  0
   -4.2773    0.9109    0.7351 H   0  0  0  0  0  0  0  0  0  0  0  0
   -1.3900    0.1864    0.1016 C   0  0  0  0  0  0  0  0  0  0  0  0
   -2.6280   -1.4758   -0.8010 H   0  0  0  0  0  0  0  0  0  0  0  0
   -2.6702   -1.2849    0.9948 H   0  0  0  0  0  0  0  0  0  0  0  0
   -0.1631   -0.6682   -0.0472 C   0  0  0  0  0  0  0  0  0  0  0  0
   -1.3496    0.9422    0.9596 H   0  0  0  0  0  0  0  0  0  0  0  0
   -1.3263    0.8248   -0.7568 H   0  0  0  0  0  0  0  0  0  0  0  0
    0.1248   -1.4869    0.9538 H   0  0  0  0  0  0  0  0  0  0  0  0
    0.9114    0.0432   -0.2270 H   0  0  0  0  0  0  0  0  0  0  0  0
   -0.3230   -1.2556   -0.8004 H   0  0  0  0  0  0  0  0  0  0  0  0
  1  2  1  0  0  0  0
  1  5  1  0  0  0  0
  2  6  1  0  0  0  0
  2  8  1  0  0  0  0
  3  1  1  0  0  0  0
  4  1  1  0  0  0  0
  6 10  1  0  0  0  0
  7  2  1  0  0  0  0
  9  6  1  0  0  0  0
  9 12  1  0  0  0  0
 11  6  1  0  0  0  0
 13  9  1  0  0  0  0
 14  9  1  0  0  0  0
M  END
$$$$
