14
butane_opt
C  -3.953574   0.239297  -0.125002
C  -2.709862  -0.579268   0.183321
H  -4.919598  -0.362126  -0.207879
H  -3.803147   0.679416  -0.955120
H  -4.204264   1.080487   0.877091
C  -1.388732   0.190965   0.111106
H  -2.723967  -1.048570  -0.513915
H  -2.793112  -1.463903   1.183967
C  -0.145050  -0.718434  -0.078621
H  -1.389548   1.060373   1.105995
H  -1.540481   0.809778  -0.724996
H   0.098483  -1.269075   0.794016
H   0.819375  -0.030087  -0.157863
H  -0.203741  -1.530157  -1.043164
