14
butane_opt
C  -3.976065   0.251880   0.117743
C  -2.725761  -0.589273  -0.134468
H  -4.856521  -0.337192   0.520550
H  -4.223714   1.124659  -0.908215
H  -3.621104   0.709174   0.855041
C  -1.396228   0.202039  -0.051037
H  -2.935854  -1.295178  -0.991623
H  -2.805867  -1.282655   0.867130
C  -0.105738  -0.700989   0.124190
H  -1.489136   0.889189   0.817203
H  -1.282258   0.751857  -0.929066
H  -0.098957  -1.445381   1.058246
H   0.778745  -0.171872   0.182503
H  -0.056699  -1.352853  -0.729578
