butane_opt
 OpenBabel08242015393D

 14 13  0  0  0  0  0  0  0  0999 V2000
   -3.9996    0.2775   -0.0733 C   0  0  0  0  0  0  0  0  0  0  0  0
   -2.6766   -0.6803    0.1850 C   0  0  0  0  0  0  0  0  0  0  0  0
   -4.8403   -0.2565   -0.4408 H   0  0  0  0  0  0  0  0  0  0  0  0
   -3.8710    0.8817   -0.9256 H   0  0  0  0  0  0  0  0  0  0  0  0
   -4.3974    1.2800    0.8890 H   0  0  0  0  0  0  0  0  0  0  0  0
   -1.3592    0.1614    0.0432 C   0  0  0  0  0  0  0  0  0  0  0  0
   -2.5611   -1.2162   -0.5595 H   0  0  0  0  0  0  0  0  0  0  0  0
   -2.7545   -1.4794    1.2292 H   0  0  0  0  0  0  0  0  0  0  0  0
   -0.1544   -0.6432   -0.0682 C   0  0  0  0  0  0  0  0  0  0  0  0
   -1.2513    0.9970    1.1063 H   0  0  0  0  0  0  0  0  0  0  0  0
   -1.4533    0.6856   -0.7311 H   0  0  0  0  0  0  0  0  0  0  0  0
   -0.0284   -1.2102    0.8102 H   0  0  0  0  0  0  0  0  0  0  0  0
    0.6902   -0.1276    0.0286 H   0  0  0  0  0  0  0  0  0  0  0  0
   -0.2675   -1.4249   -0.9911 H   0  0  0  0  0  0  0  0  0  0  0  0
  1  2  1  0  0  0  0
  1  5  1  0  0  0  0
  2  8  1  0  0  0  0
  3  1  1  0  0  0  0
  4  1  1  0  0  0  0
  6  2  1  0  0  0  0
  6 10  1  0  0  0  0
  7  2  1  0  0  0  0
  9 13  1  0  0  0  0
  9  6  1  0  0  0  0
  9 12  1  0  0  0  0
 11  6  1  0  0  0  0
 14  9  1  0  0  0  0
M  END
$$$$
