butane_opt
 OpenBabel08242015393D

 14 12  0  0  0  0  0  0  0  0999 V2000
   -3.9474    0.2882    0.0637 C   0  0  0  0  0  0  0  0  0  0  0  0
   -2.7222   -0.6591    0.0174 C   0  0  0  0  0  0  0  0  0  0  0  0
   -4.7840   -0.1719   -0.3452 H   0  0  0  0  0  0  0  0  0  0  0  0
   -4.0966    0.5118   -0.5923 H   0  0  0  0  0  0  0  0  0  0  0  0
   -4.2028    1.3944    1.2049 H   0  0  0  0  0  0  0  0  0  0  0  0
   -1.3949    0.1616   -0.0786 C   0  0  0  0  0  0  0  0  0  0  0  0
   -2.7538   -1.4829   -0.9560 H   0  0  0  0  0  0  0  0  0  0  0  0
   -2.5963   -1.2928    0.9776 H   0  0  0  0  0  0  0  0  0  0  0  0
   -0.1419   -0.6598    0.0817 C   0  0  0  0  0  0  0  0  0  0  0  0
   -1.2985    0.8323    0.7398 H   0  0  0  0  0  0  0  0  0  0  0  0
   -1.4125    0.7818   -0.9933 H   0  0  0  0  0  0  0  0  0  0  0  0
   -0.1641   -1.5717    1.1583 H   0  0  0  0  0  0  0  0  0  0  0  0
    0.7488    0.0024   -0.1126 H   0  0  0  0  0  0  0  0  0  0  0  0
    0.0057   -1.0358   -0.5872 H   0  0  0  0  0  0  0  0  0  0  0  0
  2  1  1  0  0  0  0
  2  8  1  0  0  0  0
  3  1  1  0  0  0  0
  4  1  1  0  0  0  0
  6  2  1  0  0  0  0
  6  9  1  0  0  0  0
  6 10  1  0  0  0  0
  7  2  1  0  0  0  0
  9 12  1  0  0  0  0
 11  6  1  0  0  0  0
 13  9  1  0  0  0  0
 14  9  1  0  0  0  0
M  RAD  2   1   2   5   2
M  END
$$$$
