butane_opt
 OpenBabel08242015393D

 14 13  0  0  0  0  0  0  0  0999 V2000
   -3.8974    0.2935   -0.0440 C   0  0  0  0  0  0  0  0  0  0  0  0
   -2.7004   -0.6554    0.0692 C   0  0  0  0  0  0  0  0  0  0  0  0
   -4.6961   -0.2226    0.4135 H   0  0  0  0  0  0  0  0  0  0  0  0
   -4.1182    1.3209   -1.1255 H   0  0  0  0  0  0  0  0  0  0  0  0
   -3.9095    0.6416    0.6276 H   0  0  0  0  0  0  0  0  0  0  0  0
   -1.3986    0.1379    0.1042 C   0  0  0  0  0  0  0  0  0  0  0  0
   -2.6199   -1.3884   -0.8758 H   0  0  0  0  0  0  0  0  0  0  0  0
   -2.7668   -1.2309    0.9851 H   0  0  0  0  0  0  0  0  0  0  0  0
   -0.2032   -0.6399   -0.0127 C   0  0  0  0  0  0  0  0  0  0  0  0
   -1.4791    0.8728    0.9577 H   0  0  0  0  0  0  0  0  0  0  0  0
   -1.3324    0.7220   -0.7836 H   0  0  0  0  0  0  0  0  0  0  0  0
   -0.0386   -1.2351    0.8382 H   0  0  0  0  0  0  0  0  0  0  0  0
    0.7561   -0.0064    0.0078 H   0  0  0  0  0  0  0  0  0  0  0  0
   -0.4473   -1.5551   -1.0434 H   0  0  0  0  0  0  0  0  0  0  0  0
  1  2  1  0  0  0  0
  1  3  1  0  0  0  0
  1  5  1  0  0  0  0
  2  6  1  0  0  0  0
  2  8  1  0  0  0  0
  4  1  1  0  0  0  0
  6 10  1  0  0  0  0
  7  2  1  0  0  0  0
  9 13  1  0  0  0  0
  9  6  1  0  0  0  0
  9 12  1  0  0  0  0
 11  6  1  0  0  0  0
 14  9  1  0  0  0  0
M  END
$$$$
