14
butane_opt
C  -4.016045   0.300758  -0.072426
C  -2.702826  -0.644227   0.172317
H  -4.902004  -0.238937  -0.386522
H  -3.747012   0.946053  -1.001871
H  -4.188041   1.072086   0.823730
C  -1.365436   0.126958   0.088993
H  -2.655303  -1.246525  -0.659934
H  -2.766285  -1.473642   1.147538
C  -0.144294  -0.665054  -0.077730
H  -1.031042   0.914972   1.085761
H  -1.471346   0.673640  -0.718676
H  -0.030170  -1.185533   0.783745
H   0.741642  -0.005480  -0.066550
H  -0.250125  -1.337331  -0.890352
