butane_opt
 OpenBabel08242015393D

 14 11  0  0  0  0  0  0  0  0999 V2000
   -3.9025    0.2403    0.1058 C   0  0  0  0  0  0  0  0  0  0  0  0
   -2.7465   -0.5655   -0.0144 C   0  0  0  0  0  0  0  0  0  0  0  0
   -4.8785   -0.4643   -0.3661 H   0  0  0  0  0  0  0  0  0  0  0  0
   -3.7370    0.4457   -0.5653 H   0  0  0  0  0  0  0  0  0  0  0  0
   -3.9961    1.2790    1.3124 H   0  0  0  0  0  0  0  0  0  0  0  0
   -1.4213    0.2362   -0.0919 C   0  0  0  0  0  0  0  0  0  0  0  0
   -2.7976   -1.2862   -0.9512 H   0  0  0  0  0  0  0  0  0  0  0  0
   -2.5991   -1.1642    0.8045 H   0  0  0  0  0  0  0  0  0  0  0  0
   -0.1404   -0.7323    0.1188 C   0  0  0  0  0  0  0  0  0  0  0  0
   -1.5361    0.5265    0.5306 H   0  0  0  0  0  0  0  0  0  0  0  0
   -1.3350    1.0058   -1.1450 H   0  0  0  0  0  0  0  0  0  0  0  0
   -0.2630   -1.4463    1.1540 H   0  0  0  0  0  0  0  0  0  0  0  0
    0.7565   -0.1517   -0.0253 H   0  0  0  0  0  0  0  0  0  0  0  0
   -0.0871   -1.3679   -0.6947 H   0  0  0  0  0  0  0  0  0  0  0  0
  2  1  1  0  0  0  0
  2  8  1  0  0  0  0
  3  1  1  0  0  0  0
  4  1  1  0  0  0  0
  6  9  1  0  0  0  0
  6 10  1  0  0  0  0
  7  2  1  0  0  0  0
  9 12  1  0  0  0  0
 11  6  1  0  0  0  0
 13  9  1  0  0  0  0
 14  9  1  0  0  0  0
M  RAD  4   1   2   2   2   5   2   6   2
M  END
$$$$
