14
butane_opt
C  -3.926120   0.233185   0.038364
C  -2.737579  -0.564816  -0.013855
H  -4.993004  -0.451108  -0.112928
H  -3.973835   0.784497  -0.808524
H  -3.922942   0.991002   0.911177
C  -1.386937   0.198025   0.041632
H  -2.626619  -1.257940  -0.860600
H  -2.860822  -1.136336   0.885106
C  -0.143599  -0.725228   0.026351
H  -1.397055   0.987833   1.065687
H  -1.434703   0.877820  -0.884092
H   0.069312  -1.733907   1.257836
H   0.713625  -0.217471  -0.452059
H  -0.244080  -1.042920  -0.629137
