14
butane_opt
C  -3.940607   0.311830   0.073780
C  -2.678330  -0.625741  -0.008378
H  -4.967396  -0.382935  -0.116598
H  -4.020692   0.740203  -0.598030
H  -3.904760   1.184680   1.125626
C  -1.389061   0.134006  -0.079523
H  -2.705495  -1.329876  -0.805115
H  -2.753787  -1.419764   0.976750
C  -0.190855  -0.651165   0.079771
H  -1.434349   0.693331   0.635759
H  -1.214396   0.787396  -1.063955
H  -0.388133  -1.283517   0.976412
H   0.766998  -0.027999   0.304522
H  -0.028565  -1.450367  -0.777220
