14
butane_opt
C  -3.970207   0.297149   0.109596
C  -2.668411  -0.671929  -0.042131
H  -4.893648  -0.234566  -0.131445
H  -3.959507   0.618315  -0.578589
H  -4.049949   1.223004   1.118322
C  -1.366965   0.172111  -0.094858
H  -2.823043  -1.410722  -0.989459
H  -2.661794  -1.222041   0.796957
C  -0.206571  -0.686560   0.101589
H  -1.221601   0.861196   0.720636
H  -1.407693   0.991001  -1.075607
H  -0.213158  -1.457866   1.205878
H   0.757922  -0.111821   0.069621
H  -0.014708  -1.070910  -0.518706
