butane_opt
 OpenBabel08242015393D

 14 13  0  0  0  0  0  0  0  0999 V2000
   -3.9337    0.3056    0.0609 C   0  0  0  0  0  0  0  0  0  0  0  0
   -2.6791   -0.6213   -0.0524 C   0  0  0  0  0  0  0  0  0  0  0  0
   -4.8793   -0.2375    0.1507 H   0  0  0  0  0  0  0  0  0  0  0  0
   -4.1058    0.8900   -0.7668 H   0  0  0  0  0  0  0  0  0  0  0  0
   -3.9601    0.7825    0.8360 H   0  0  0  0  0  0  0  0  0  0  0  0
   -1.3650    0.1127    0.0069 C   0  0  0  0  0  0  0  0  0  0  0  0
   -2.8166   -1.2818   -0.9200 H   0  0  0  0  0  0  0  0  0  0  0  0
   -2.4539   -1.2138    0.7988 H   0  0  0  0  0  0  0  0  0  0  0  0
   -0.2082   -0.6568    0.0614 C   0  0  0  0  0  0  0  0  0  0  0  0
   -1.4282    0.9058    0.8728 H   0  0  0  0  0  0  0  0  0  0  0  0
   -1.3695    0.6097   -0.8021 H   0  0  0  0  0  0  0  0  0  0  0  0
   -0.2886   -1.5550    1.1797 H   0  0  0  0  0  0  0  0  0  0  0  0
    0.7581    0.0217   -0.2476 H   0  0  0  0  0  0  0  0  0  0  0  0
   -0.2530   -1.0686   -0.5910 H   0  0  0  0  0  0  0  0  0  0  0  0
  1  3  1  0  0  0  0
  1  5  1  0  0  0  0
  2  6  1  0  0  0  0
  2  1  1  0  0  0  0
  2  8  1  0  0  0  0
  4  1  1  0  0  0  0
  6  9  1  0  0  0  0
  6 10  1  0  0  0  0
  7  2  1  0  0  0  0
  9 12  1  0  0  0  0
 11  6  1  0  0  0  0
 13  9  1  0  0  0  0
 14  9  1  0  0  0  0
M  END
$$$$
