butane_opt
 OpenBabel08242015393D

 14 13  0  0  0  0  0  0  0  0999 V2000
   -4.0141    0.2465   -0.0642 C   0  0  0  0  0  0  0  0  0  0  0  0
   -2.6895   -0.5882    0.1368 C   0  0  0  0  0  0  0  0  0  0  0  0
   -4.9299   -0.3014    0.1819 H   0  0  0  0  0  0  0  0  0  0  0  0
   -3.9977    1.1676   -1.1677 H   0  0  0  0  0  0  0  0  0  0  0  0
   -3.8646    0.4101    0.5901 H   0  0  0  0  0  0  0  0  0  0  0  0
   -1.3957    0.2083    0.1038 C   0  0  0  0  0  0  0  0  0  0  0  0
   -2.6297   -1.3104   -0.8234 H   0  0  0  0  0  0  0  0  0  0  0  0
   -2.8613   -1.0916    0.9658 H   0  0  0  0  0  0  0  0  0  0  0  0
   -0.1222   -0.7007   -0.0558 C   0  0  0  0  0  0  0  0  0  0  0  0
   -1.2564    0.9647    1.0473 H   0  0  0  0  0  0  0  0  0  0  0  0
   -1.5099    0.6368   -0.6418 H   0  0  0  0  0  0  0  0  0  0  0  0
    0.0300   -1.2479    0.7827 H   0  0  0  0  0  0  0  0  0  0  0  0
    0.7228   -0.1792   -0.0086 H   0  0  0  0  0  0  0  0  0  0  0  0
   -0.0762   -1.5058   -0.9785 H   0  0  0  0  0  0  0  0  0  0  0  0
  1  2  1  0  0  0  0
  1  3  1  0  0  0  0
  1  5  1  0  0  0  0
  2  8  1  0  0  0  0
  4  1  1  0  0  0  0
  6  2  1  0  0  0  0
  6 10  1  0  0  0  0
  7  2  1  0  0  0  0
  9 13  1  0  0  0  0
  9  6  1  0  0  0  0
  9 12  1  0  0  0  0
 11  6  1  0  0  0  0
 14  9  1  0  0  0  0
M  END
$$$$
