14
butane_opt
C  -3.921646   0.247644  -0.028286
C  -2.684680  -0.566925   0.116823
H  -4.951963  -0.440219  -0.056553
H  -3.832980   0.908820  -1.033982
H  -3.877050   0.761964   0.730834
C  -1.444852   0.175856   0.032856
H  -2.746799  -1.122715  -0.647924
H  -2.694493  -1.379647   1.117592
C  -0.145184  -0.695365  -0.035952
H  -1.386631   0.989057   1.066591
H  -1.529609   0.755803  -0.792379
H  -0.286493  -1.164591   0.805727
H   0.664761  -0.117717   0.288541
H  -0.025128  -1.626022  -1.111380
