butane_opt
 OpenBabel08242015393D

 14 13  0  0  0  0  0  0  0  0999 V2000
   -3.9480    0.2831    0.0677 C   0  0  0  0  0  0  0  0  0  0  0  0
   -2.6406   -0.6480    0.0492 C   0  0  0  0  0  0  0  0  0  0  0  0
   -4.7923   -0.2251   -0.3696 H   0  0  0  0  0  0  0  0  0  0  0  0
   -3.7912    0.6913   -0.7444 H   0  0  0  0  0  0  0  0  0  0  0  0
   -4.0583    1.1778    1.0924 H   0  0  0  0  0  0  0  0  0  0  0  0
   -1.4118    0.1607   -0.0522 C   0  0  0  0  0  0  0  0  0  0  0  0
   -2.6809   -1.3610   -0.7837 H   0  0  0  0  0  0  0  0  0  0  0  0
   -2.7439   -1.1941    0.8503 H   0  0  0  0  0  0  0  0  0  0  0  0
   -0.1962   -0.6717    0.0502 C   0  0  0  0  0  0  0  0  0  0  0  0
   -1.4305    0.6281    0.6919 H   0  0  0  0  0  0  0  0  0  0  0  0
   -1.4578    0.9096   -1.0071 H   0  0  0  0  0  0  0  0  0  0  0  0
   -0.3599   -1.2993    1.0242 H   0  0  0  0  0  0  0  0  0  0  0  0
    0.8051    0.0922    0.1371 H   0  0  0  0  0  0  0  0  0  0  0  0
   -0.1835   -1.3622   -0.8072 H   0  0  0  0  0  0  0  0  0  0  0  0
  1  5  1  0  0  0  0
  2  1  1  0  0  0  0
  2  8  1  0  0  0  0
  3  1  1  0  0  0  0
  4  1  1  0  0  0  0
  6  2  1  0  0  0  0
  6  9  1  0  0  0  0
  6 10  1  0  0  0  0
  7  2  1  0  0  0  0
  9 13  1  0  0  0  0
  9 12  1  0  0  0  0
 11  6  1  0  0  0  0
 14  9  1  0  0  0  0
M  END
$$$$
