14
butane_opt
C  -3.909158   0.239061  -0.017028
C  -2.737465  -0.559712   0.073311
H  -4.927488  -0.494765   0.255341
H  -3.848955   0.999671  -1.003762
H  -3.791248   0.797862   0.742153
C  -1.424825   0.182415   0.018857
H  -2.633159  -1.178669  -0.733821
H  -2.695471  -1.273466   1.033105
C  -0.157250  -0.703736  -0.005003
H  -1.269498   0.957341   0.967282
H  -1.511323   0.898507  -0.802021
H  -0.322949  -1.169916   0.815742
H   0.726086  -0.230386   0.309736
H   0.014240  -1.709896  -1.014037
