14
butane_opt
C  -3.907092   0.224950  -0.079045
C  -2.681506  -0.569300   0.221477
H  -4.777131  -0.278173  -0.503036
H  -3.675291   0.750379  -0.994298
H  -4.159255   0.964094   0.840204
C  -1.439621   0.216866   0.081871
H  -2.741339  -1.314419  -0.697638
H  -2.659402  -1.305770   1.181028
C  -0.183051  -0.711731  -0.061019
H  -1.379005   0.842885   0.915099
H  -1.481409   0.775311  -0.844693
H  -0.105663  -1.147572   0.647324
H   0.726405  -0.151416  -0.009987
H  -0.223802  -1.527839  -1.079330
