14
butane_opt
C  -3.930707   0.270625   0.066196
C  -2.646992  -0.648386  -0.035601
H  -4.825225  -0.271103  -0.016106
H  -3.966491   0.800053  -0.793883
H  -3.944193   1.153875   1.114711
C  -1.417074   0.173030  -0.034894
H  -2.767157  -1.413991  -0.915085
H  -2.633509  -1.130888   0.803885
C  -0.186292  -0.687899   0.095365
H  -1.566056   0.914449   0.860179
H  -1.369396   0.687331  -0.896365
H  -0.216149  -1.570933   1.182553
H   0.769061   0.026708  -0.430713
H  -0.331176  -0.934078  -0.536211
