butane_opt
 OpenBabel08242015393D

 14 12  0  0  0  0  0  0  0  0999 V2000
   -3.9783    0.2809   -0.0543 C   0  0  0  0  0  0  0  0  0  0  0  0
   -2.7261   -0.6287    0.0755 C   0  0  0  0  0  0  0  0  0  0  0  0
   -4.9044   -0.2351    0.4684 H   0  0  0  0  0  0  0  0  0  0  0  0
   -4.0943    1.2965   -1.2159 H   0  0  0  0  0  0  0  0  0  0  0  0
   -3.8922    0.5348    0.5418 H   0  0  0  0  0  0  0  0  0  0  0  0
   -1.4072    0.1841    0.1156 C   0  0  0  0  0  0  0  0  0  0  0  0
   -2.7235   -1.3378   -0.7915 H   0  0  0  0  0  0  0  0  0  0  0  0
   -2.8259   -1.3399    0.9758 H   0  0  0  0  0  0  0  0  0  0  0  0
   -0.0889   -0.6902   -0.0612 C   0  0  0  0  0  0  0  0  0  0  0  0
   -1.1674    0.9904    1.1367 H   0  0  0  0  0  0  0  0  0  0  0  0
   -1.4939    0.6569   -0.6509 H   0  0  0  0  0  0  0  0  0  0  0  0
   -0.1815   -1.2794    0.8973 H   0  0  0  0  0  0  0  0  0  0  0  0
    0.8686   -0.0168    0.1223 H   0  0  0  0  0  0  0  0  0  0  0  0
   -0.2166   -1.4712   -0.9783 H   0  0  0  0  0  0  0  0  0  0  0  0
  1  2  1  0  0  0  0
  1  3  1  0  0  0  0
  1  5  1  0  0  0  0
  2  6  1  0  0  0  0
  2  8  1  0  0  0  0
  6 10  1  0  0  0  0
  7  2  1  0  0  0  0
  9  6  1  0  0  0  0
  9 13  1  0  0  0  0
  9 12  1  0  0  0  0
 11  6  1  0  0  0  0
 14  9  1  0  0  0  0
M  RAD  2   1   2   4   2
M  END
$$$$
