butane_opt
 OpenBabel08242015393D

 14 13  0  0  0  0  0  0  0  0999 V2000
   -3.9678    0.2973   -0.0689 C   0  0  0  0  0  0  0  0  0  0  0  0
   -2.6802   -0.6790    0.1653 C   0  0  0  0  0  0  0  0  0  0  0  0
   -4.7737   -0.1108   -0.3418 H   0  0  0  0  0  0  0  0  0  0  0  0
   -4.0169    0.6813   -0.8572 H   0  0  0  0  0  0  0  0  0  0  0  0
   -4.0707    1.1776    0.9055 H   0  0  0  0  0  0  0  0  0  0  0  0
   -1.3982    0.1376    0.0547 C   0  0  0  0  0  0  0  0  0  0  0  0
   -2.5926   -1.1781   -0.6057 H   0  0  0  0  0  0  0  0  0  0  0  0
   -2.9098   -1.4631    1.1312 H   0  0  0  0  0  0  0  0  0  0  0  0
   -0.1554   -0.6369   -0.0470 C   0  0  0  0  0  0  0  0  0  0  0  0
   -1.3312    0.9428    1.0469 H   0  0  0  0  0  0  0  0  0  0  0  0
   -1.4045    0.7472   -0.9064 H   0  0  0  0  0  0  0  0  0  0  0  0
   -0.1194   -1.1978    0.8096 H   0  0  0  0  0  0  0  0  0  0  0  0
    0.7137   -0.0771   -0.0096 H   0  0  0  0  0  0  0  0  0  0  0  0
   -0.1407   -1.4120   -0.9725 H   0  0  0  0  0  0  0  0  0  0  0  0
  1  2  1  0  0  0  0
  1  5  1  0  0  0  0
  2  8  1  0  0  0  0
  3  1  1  0  0  0  0
  4  1  1  0  0  0  0
  6  2  1  0  0  0  0
  6 10  1  0  0  0  0
  7  2  1  0  0  0  0
  9 13  1  0  0  0  0
  9  6  1  0  0  0  0
  9 12  1  0  0  0  0
 11  6  1  0  0  0  0
 14  9  1  0  0  0  0
M  END
$$$$
