butane_opt
 OpenBabel08242015393D

 14 13  0  0  0  0  0  0  0  0999 V2000
   -3.9111    0.2499    0.1188 C   0  0  0  0  0  0  0  0  0  0  0  0
   -2.7345   -0.5811   -0.0749 C   0  0  0  0  0  0  0  0  0  0  0  0
   -4.8766   -0.3354    0.5180 H   0  0  0  0  0  0  0  0  0  0  0  0
   -4.0990    1.0449   -0.8573 H   0  0  0  0  0  0  0  0  0  0  0  0
   -3.6380    0.6824    0.8414 H   0  0  0  0  0  0  0  0  0  0  0  0
   -1.4352    0.1846   -0.0793 C   0  0  0  0  0  0  0  0  0  0  0  0
   -2.8269   -1.4378   -1.1628 H   0  0  0  0  0  0  0  0  0  0  0  0
   -2.6294   -1.0353    0.6444 H   0  0  0  0  0  0  0  0  0  0  0  0
   -0.1383   -0.7296    0.1199 C   0  0  0  0  0  0  0  0  0  0  0  0
   -1.5356    0.9594    0.8016 H   0  0  0  0  0  0  0  0  0  0  0  0
   -1.2251    0.8736   -1.0340 H   0  0  0  0  0  0  0  0  0  0  0  0
   -0.2924   -1.4130    1.1154 H   0  0  0  0  0  0  0  0  0  0  0  0
    0.8445   -0.1030    0.2417 H   0  0  0  0  0  0  0  0  0  0  0  0
   -0.1091   -1.2035   -0.6843 H   0  0  0  0  0  0  0  0  0  0  0  0
  1  3  1  0  0  0  0
  1  5  1  0  0  0  0
  2  1  1  0  0  0  0
  2  8  1  0  0  0  0
  4  1  1  0  0  0  0
  6  2  1  0  0  0  0
  6  9  1  0  0  0  0
  6 10  1  0  0  0  0
  7  2  1  0  0  0  0
  9 13  1  0  0  0  0
  9 12  1  0  0  0  0
 11  6  1  0  0  0  0
 14  9  1  0  0  0  0
M  END
$$$$
