butane_opt
 OpenBabel08242015393D

 14 13  0  0  0  0  0  0  0  0999 V2000
   -3.9702    0.2971    0.1096 C   0  0  0  0  0  0  0  0  0  0  0  0
   -2.6684   -0.6719   -0.0421 C   0  0  0  0  0  0  0  0  0  0  0  0
   -4.8936   -0.2346   -0.1314 H   0  0  0  0  0  0  0  0  0  0  0  0
   -3.9595    0.6183   -0.5786 H   0  0  0  0  0  0  0  0  0  0  0  0
   -4.0499    1.2230    1.1183 H   0  0  0  0  0  0  0  0  0  0  0  0
   -1.3670    0.1721   -0.0949 C   0  0  0  0  0  0  0  0  0  0  0  0
   -2.8230   -1.4107   -0.9895 H   0  0  0  0  0  0  0  0  0  0  0  0
   -2.6618   -1.2220    0.7970 H   0  0  0  0  0  0  0  0  0  0  0  0
   -0.2066   -0.6866    0.1016 C   0  0  0  0  0  0  0  0  0  0  0  0
   -1.2216    0.8612    0.7206 H   0  0  0  0  0  0  0  0  0  0  0  0
   -1.4077    0.9910   -1.0756 H   0  0  0  0  0  0  0  0  0  0  0  0
   -0.2132   -1.4579    1.2059 H   0  0  0  0  0  0  0  0  0  0  0  0
    0.7579   -0.1118    0.0696 H   0  0  0  0  0  0  0  0  0  0  0  0
   -0.0147   -1.0709   -0.5187 H   0  0  0  0  0  0  0  0  0  0  0  0
  1  5  1  0  0  0  0
  2  1  1  0  0  0  0
  2  8  1  0  0  0  0
  3  1  1  0  0  0  0
  4  1  1  0  0  0  0
  6  2  1  0  0  0  0
  6  9  1  0  0  0  0
  6 10  1  0  0  0  0
  7  2  1  0  0  0  0
  9 12  1  0  0  0  0
 11  6  1  0  0  0  0
 13  9  1  0  0  0  0
 14  9  1  0  0  0  0
M  END
$$$$
