14
butane_opt
C  -3.960346   0.306744   0.123772
C  -2.718823  -0.687625  -0.039389
H  -4.761413  -0.151133   0.193454
H  -4.150525   0.835650  -0.748768
H  -3.896366   1.017584   1.020352
C  -1.394283   0.162887  -0.135445
H  -2.839594  -1.370892  -0.973792
H  -2.653899  -1.248103   0.730588
C  -0.134499  -0.665746   0.154943
H  -1.433337   0.716651   0.659598
H  -1.195826   1.031609  -1.257500
H  -0.281593  -1.029144   0.910565
H   0.814998  -0.113873   0.503324
H  -0.151915  -1.547668  -0.845546
