14
butane_opt
C  -3.999059   0.298772  -0.073967
C  -2.717045  -0.649857   0.094254
H  -4.855429  -0.220382   0.306924
H  -4.087510   1.268407  -1.160895
H  -3.993806   0.650411   0.559665
C  -1.357969   0.133736   0.143461
H  -2.622247  -1.241814  -0.711291
H  -2.739859  -1.392737   1.084241
C  -0.140797  -0.639732  -0.051680
H  -1.180387   0.877901   1.039635
H  -1.428090   0.748589  -0.665755
H  -0.137455  -1.208167   0.737638
H   0.749926  -0.030535   0.001736
H  -0.170182  -1.632025  -1.147348
