butane_opt
 OpenBabel08242015393D

 14 13  0  0  0  0  0  0  0  0999 V2000
   -3.9092    0.2391   -0.0170 C   0  0  0  0  0  0  0  0  0  0  0  0
   -2.7375   -0.5597    0.0733 C   0  0  0  0  0  0  0  0  0  0  0  0
   -4.9275   -0.4948    0.2553 H   0  0  0  0  0  0  0  0  0  0  0  0
   -3.8490    0.9997   -1.0038 H   0  0  0  0  0  0  0  0  0  0  0  0
   -3.7912    0.7979    0.7422 H   0  0  0  0  0  0  0  0  0  0  0  0
   -1.4248    0.1824    0.0189 C   0  0  0  0  0  0  0  0  0  0  0  0
   -2.6332   -1.1787   -0.7338 H   0  0  0  0  0  0  0  0  0  0  0  0
   -2.6955   -1.2735    1.0331 H   0  0  0  0  0  0  0  0  0  0  0  0
   -0.1573   -0.7037   -0.0050 C   0  0  0  0  0  0  0  0  0  0  0  0
   -1.2695    0.9573    0.9673 H   0  0  0  0  0  0  0  0  0  0  0  0
   -1.5113    0.8985   -0.8020 H   0  0  0  0  0  0  0  0  0  0  0  0
   -0.3229   -1.1699    0.8157 H   0  0  0  0  0  0  0  0  0  0  0  0
    0.7261   -0.2304    0.3097 H   0  0  0  0  0  0  0  0  0  0  0  0
    0.0142   -1.7099   -1.0140 H   0  0  0  0  0  0  0  0  0  0  0  0
  1  2  1  0  0  0  0
  1  3  1  0  0  0  0
  1  5  1  0  0  0  0
  2  8  1  0  0  0  0
  4  1  1  0  0  0  0
  6  2  1  0  0  0  0
  6 10  1  0  0  0  0
  7  2  1  0  0  0  0
  9  6  1  0  0  0  0
  9 13  1  0  0  0  0
  9 12  1  0  0  0  0
 11  6  1  0  0  0  0
 14  9  1  0  0  0  0
M  END
$$$$
