14
butane_opt
C  -3.962298   0.278987   0.115576
C  -2.686262  -0.638290  -0.058561
H  -4.787920  -0.220368   0.207559
H  -4.152290   0.853102  -0.736123
H  -4.162701   0.981396   0.998699
C  -1.382383   0.158080  -0.113947
H  -2.973520  -1.346518  -0.956830
H  -2.506276  -1.378318   0.869277
C  -0.141136  -0.669841   0.113642
H  -1.500744   0.827999   0.665985
H  -1.359220   0.859544  -0.990502
H  -0.386345  -1.163415   0.982654
H   0.732407  -0.003139   0.390990
H   0.141950  -1.425423  -0.691490
