butane_opt
 OpenBabel08242015393D

 14 13  0  0  0  0  0  0  0  0999 V2000
   -3.9040    0.2265   -0.0638 C   0  0  0  0  0  0  0  0  0  0  0  0
   -2.7068   -0.5665    0.1543 C   0  0  0  0  0  0  0  0  0  0  0  0
   -4.8660   -0.3902    0.0684 H   0  0  0  0  0  0  0  0  0  0  0  0
   -3.9185    0.8708   -0.9829 H   0  0  0  0  0  0  0  0  0  0  0  0
   -3.9844    0.7765    0.7528 H   0  0  0  0  0  0  0  0  0  0  0  0
   -1.4267    0.2466    0.0275 C   0  0  0  0  0  0  0  0  0  0  0  0
   -2.7276   -1.2691   -0.6472 H   0  0  0  0  0  0  0  0  0  0  0  0
   -2.6582   -1.4179    1.1739 H   0  0  0  0  0  0  0  0  0  0  0  0
   -0.1506   -0.7333   -0.0515 C   0  0  0  0  0  0  0  0  0  0  0  0
   -1.3662    1.0203    0.9470 H   0  0  0  0  0  0  0  0  0  0  0  0
   -1.6393    0.7836   -0.8382 H   0  0  0  0  0  0  0  0  0  0  0  0
   -0.3451   -0.9959    0.6836 H   0  0  0  0  0  0  0  0  0  0  0  0
    0.7714   -0.2103    0.5112 H   0  0  0  0  0  0  0  0  0  0  0  0
   -0.0003   -1.7272   -1.0604 H   0  0  0  0  0  0  0  0  0  0  0  0
  1  3  1  0  0  0  0
  1  2  1  0  0  0  0
  1  5  1  0  0  0  0
  2  8  1  0  0  0  0
  4  1  1  0  0  0  0
  6  2  1  0  0  0  0
  6 10  1  0  0  0  0
  7  2  1  0  0  0  0
  9  6  1  0  0  0  0
  9 13  1  0  0  0  0
  9 12  1  0  0  0  0
 11  6  1  0  0  0  0
 14  9  1  0  0  0  0
M  END
$$$$
