butane_opt
 OpenBabel08242015393D

 14 13  0  0  0  0  0  0  0  0999 V2000
   -4.0095    0.2463   -0.1064 C   0  0  0  0  0  0  0  0  0  0  0  0
   -2.6974   -0.5995    0.1714 C   0  0  0  0  0  0  0  0  0  0  0  0
   -4.9541   -0.3771   -0.1601 H   0  0  0  0  0  0  0  0  0  0  0  0
   -3.8165    0.7038   -0.9359 H   0  0  0  0  0  0  0  0  0  0  0  0
   -3.9911    1.0519    0.8462 H   0  0  0  0  0  0  0  0  0  0  0  0
   -1.3799    0.2169    0.0924 C   0  0  0  0  0  0  0  0  0  0  0  0
   -2.6020   -1.1189   -0.4597 H   0  0  0  0  0  0  0  0  0  0  0  0
   -2.9025   -1.3272    1.1559 H   0  0  0  0  0  0  0  0  0  0  0  0
   -0.1202   -0.7188   -0.0646 C   0  0  0  0  0  0  0  0  0  0  0  0
   -1.3597    0.9758    0.9898 H   0  0  0  0  0  0  0  0  0  0  0  0
   -1.4970    0.7474   -0.7147 H   0  0  0  0  0  0  0  0  0  0  0  0
   -0.0999   -1.1806    0.7005 H   0  0  0  0  0  0  0  0  0  0  0  0
    0.7982   -0.2395   -0.0845 H   0  0  0  0  0  0  0  0  0  0  0  0
   -0.1079   -1.4549   -1.0109 H   0  0  0  0  0  0  0  0  0  0  0  0
  1  2  1  0  0  0  0
  1  5  1  0  0  0  0
  2  8  1  0  0  0  0
  3  1  1  0  0  0  0
  4  1  1  0  0  0  0
  6  2  1  0  0  0  0
  6 10  1  0  0  0  0
  7  2  1  0  0  0  0
  9  6  1  0  0  0  0
  9 12  1  0  0  0  0
 11  6  1  0  0  0  0
 13  9  1  0  0  0  0
 14  9  1  0  0  0  0
M  END
$$$$
