butane_opt
 OpenBabel08242015393D

 14 12  0  0  0  0  0  0  0  0999 V2000
   -3.9922    0.2538    0.0779 C   0  0  0  0  0  0  0  0  0  0  0  0
   -2.7206   -0.6089   -0.0915 C   0  0  0  0  0  0  0  0  0  0  0  0
   -4.8903   -0.3284    0.0578 H   0  0  0  0  0  0  0  0  0  0  0  0
   -4.0981    0.6916   -0.7013 H   0  0  0  0  0  0  0  0  0  0  0  0
   -3.8280    1.2215    1.1801 H   0  0  0  0  0  0  0  0  0  0  0  0
   -1.3636    0.2154   -0.0447 C   0  0  0  0  0  0  0  0  0  0  0  0
   -2.8875   -1.3740   -1.0034 H   0  0  0  0  0  0  0  0  0  0  0  0
   -2.6592   -1.2655    0.8179 H   0  0  0  0  0  0  0  0  0  0  0  0
   -0.1142   -0.7161    0.1162 C   0  0  0  0  0  0  0  0  0  0  0  0
   -1.5110    0.8757    0.8546 H   0  0  0  0  0  0  0  0  0  0  0  0
   -1.3635    0.8191   -0.9084 H   0  0  0  0  0  0  0  0  0  0  0  0
    0.1212   -1.8014    1.3384 H   0  0  0  0  0  0  0  0  0  0  0  0
    0.7949   -0.0271   -0.3669 H   0  0  0  0  0  0  0  0  0  0  0  0
   -0.4143   -0.9889   -0.4615 H   0  0  0  0  0  0  0  0  0  0  0  0
  1  5  1  0  0  0  0
  2  6  1  0  0  0  0
  2  1  1  0  0  0  0
  2  8  1  0  0  0  0
  3  1  1  0  0  0  0
  4  1  1  0  0  0  0
  6  9  1  0  0  0  0
  6 10  1  0  0  0  0
  7  2  1  0  0  0  0
 11  6  1  0  0  0  0
 13  9  1  0  0  0  0
 14  9  1  0  0  0  0
M  RAD  2   9   2  12   2
M  END
$$$$
