butane_opt
 OpenBabel08242015393D

 14 13  0  0  0  0  0  0  0  0999 V2000
   -3.9324    0.2568   -0.0091 C   0  0  0  0  0  0  0  0  0  0  0  0
   -2.7033   -0.6036    0.0649 C   0  0  0  0  0  0  0  0  0  0  0  0
   -4.8301   -0.3254    0.0987 H   0  0  0  0  0  0  0  0  0  0  0  0
   -3.9877    0.9482   -0.9847 H   0  0  0  0  0  0  0  0  0  0  0  0
   -3.9533    0.8232    0.7683 H   0  0  0  0  0  0  0  0  0  0  0  0
   -1.4052    0.2007    0.0511 C   0  0  0  0  0  0  0  0  0  0  0  0
   -2.7580   -1.3078   -0.7973 H   0  0  0  0  0  0  0  0  0  0  0  0
   -2.7473   -1.2353    0.9439 H   0  0  0  0  0  0  0  0  0  0  0  0
   -0.1575   -0.7049   -0.0020 C   0  0  0  0  0  0  0  0  0  0  0  0
   -1.3535    0.8632    0.9135 H   0  0  0  0  0  0  0  0  0  0  0  0
   -1.4391    0.7917   -0.8048 H   0  0  0  0  0  0  0  0  0  0  0  0
   -0.1376   -1.2957    0.8814 H   0  0  0  0  0  0  0  0  0  0  0  0
    0.7345   -0.1403    0.0267 H   0  0  0  0  0  0  0  0  0  0  0  0
   -0.1636   -1.3762   -0.8727 H   0  0  0  0  0  0  0  0  0  0  0  0
  1  2  1  0  0  0  0
  1  3  1  0  0  0  0
  1  5  1  0  0  0  0
  2  8  1  0  0  0  0
  4  1  1  0  0  0  0
  6  2  1  0  0  0  0
  6 10  1  0  0  0  0
  7  2  1  0  0  0  0
  9 13  1  0  0  0  0
  9  6  1  0  0  0  0
  9 12  1  0  0  0  0
 11  6  1  0  0  0  0
 14  9  1  0  0  0  0
M  END
$$$$
