14
butane_opt
C  -3.911542   0.225562  -0.032140
C  -2.690764  -0.580317   0.096191
H  -4.907488  -0.468030  -0.112447
H  -3.696066   1.036955  -1.129772
H  -3.868204   0.717317   0.707991
C  -1.472450   0.234804   0.116781
H  -2.708765  -1.341553  -0.773913
H  -2.653594  -1.152250   0.908703
C  -0.167336  -0.722866  -0.022784
H  -1.222462   1.091848   1.064155
H  -1.524587   0.795154  -0.783379
H   0.112748  -1.523547   0.873105
H   0.683394  -0.211521  -0.388292
H  -0.323817  -1.305771  -0.827859
