14
butane_opt
C  -3.933721   0.305583   0.060853
C  -2.679148  -0.621286  -0.052413
H  -4.879276  -0.237452   0.150686
H  -4.105831   0.889950  -0.766824
H  -3.960148   0.782451   0.836033
C  -1.365019   0.112689   0.006942
H  -2.816607  -1.281799  -0.920011
H  -2.453861  -1.213847   0.798817
C  -0.208194  -0.656791   0.061369
H  -1.428183   0.905839   0.872833
H  -1.369529   0.609705  -0.802072
H  -0.288596  -1.554974   1.179714
H   0.758074   0.021713  -0.247593
H  -0.252990  -1.068597  -0.591005
