butane_opt
 OpenBabel08242015393D

 14 13  0  0  0  0  0  0  0  0999 V2000
   -3.9159    0.2834   -0.0360 C   0  0  0  0  0  0  0  0  0  0  0  0
   -2.6661   -0.6315    0.0356 C   0  0  0  0  0  0  0  0  0  0  0  0
   -4.7232   -0.2349    0.3832 H   0  0  0  0  0  0  0  0  0  0  0  0
   -4.1802    1.1875   -1.1572 H   0  0  0  0  0  0  0  0  0  0  0  0
   -3.6693    0.5895    0.6880 H   0  0  0  0  0  0  0  0  0  0  0  0
   -1.4375    0.1553    0.0954 C   0  0  0  0  0  0  0  0  0  0  0  0
   -2.6453   -1.2127   -0.7847 H   0  0  0  0  0  0  0  0  0  0  0  0
   -2.8671   -1.4355    1.1141 H   0  0  0  0  0  0  0  0  0  0  0  0
   -0.1866   -0.6651   -0.0246 C   0  0  0  0  0  0  0  0  0  0  0  0
   -1.3798    0.8786    1.0511 H   0  0  0  0  0  0  0  0  0  0  0  0
   -1.5099    0.6951   -0.6903 H   0  0  0  0  0  0  0  0  0  0  0  0
   -0.2009   -1.0956    0.7781 H   0  0  0  0  0  0  0  0  0  0  0  0
    0.7446   -0.0328    0.0811 H   0  0  0  0  0  0  0  0  0  0  0  0
   -0.1493   -1.4726   -0.9245 H   0  0  0  0  0  0  0  0  0  0  0  0
  1  2  1  0  0  0  0
  1  3  1  0  0  0  0
  1  5  1  0  0  0  0
  2  6  1  0  0  0  0
  2  8  1  0  0  0  0
  4  1  1  0  0  0  0
  6 10  1  0  0  0  0
  7  2  1  0  0  0  0
  9 13  1  0  0  0  0
  9  6  1  0  0  0  0
  9 12  1  0  0  0  0
 11  6  1  0  0  0  0
 14  9  1  0  0  0  0
M  END
$$$$
