butane_opt
 OpenBabel08242015393D

 14 13  0  0  0  0  0  0  0  0999 V2000
   -3.9949    0.3072    0.0211 C   0  0  0  0  0  0  0  0  0  0  0  0
   -2.6786   -0.6920    0.0409 C   0  0  0  0  0  0  0  0  0  0  0  0
   -4.7034   -0.1236   -0.3990 H   0  0  0  0  0  0  0  0  0  0  0  0
   -3.9165    0.5219   -0.6752 H   0  0  0  0  0  0  0  0  0  0  0  0
   -4.1511    1.2810    1.0612 H   0  0  0  0  0  0  0  0  0  0  0  0
   -1.3952    0.1667    0.0044 C   0  0  0  0  0  0  0  0  0  0  0  0
   -2.7324   -1.2259   -0.7589 H   0  0  0  0  0  0  0  0  0  0  0  0
   -2.8227   -1.5024    1.0867 H   0  0  0  0  0  0  0  0  0  0  0  0
   -0.1420   -0.6475    0.0426 C   0  0  0  0  0  0  0  0  0  0  0  0
   -1.3073    0.7614    0.8276 H   0  0  0  0  0  0  0  0  0  0  0  0
   -1.4498    0.9090   -0.9538 H   0  0  0  0  0  0  0  0  0  0  0  0
   -0.0622   -1.3827    0.9333 H   0  0  0  0  0  0  0  0  0  0  0  0
    0.7679   -0.0122   -0.1582 H   0  0  0  0  0  0  0  0  0  0  0  0
   -0.1657   -1.2830   -0.7875 H   0  0  0  0  0  0  0  0  0  0  0  0
  1  2  1  0  0  0  0
  1  5  1  0  0  0  0
  2  8  1  0  0  0  0
  3  1  1  0  0  0  0
  4  1  1  0  0  0  0
  6  2  1  0  0  0  0
  6  9  1  0  0  0  0
  6 10  1  0  0  0  0
  7  2  1  0  0  0  0
  9 12  1  0  0  0  0
 11  6  1  0  0  0  0
 13  9  1  0  0  0  0
 14  9  1  0  0  0  0
M  END
$$$$
