14
butane_opt
C  -3.954549   0.222736  -0.032509
C  -2.749546  -0.560794   0.076412
H  -4.864874  -0.370574  -0.090200
H  -3.911345   0.839169  -0.959178
H  -4.064835   0.851820   0.660353
C  -1.368604   0.218863   0.116847
H  -2.651381  -1.204101  -0.771851
H  -2.988827  -1.108008   1.041695
C  -0.102164  -0.730345  -0.057597
H  -1.354234   1.046325   1.064062
H  -1.572121   0.716405  -0.645950
H   0.097179  -1.711769   1.053580
H   0.738840  -0.232180  -0.354282
H  -0.324196  -1.128006  -0.746602
