14
butane_opt
C  -3.959398   0.242558   0.115279
C  -2.719956  -0.610665  -0.073250
H  -4.907667  -0.372121   0.254526
H  -4.182937   1.123628  -0.894475
H  -3.805437   0.829100   0.970234
C  -1.418491   0.203856  -0.084170
H  -2.918636  -1.398065  -1.056117
H  -2.604454  -1.153820   0.690403
C  -0.091468  -0.700940   0.128630
H  -1.477636   0.970074   0.798084
H  -1.347933   0.808883  -0.903077
H  -0.157381  -1.440028   1.104935
H   0.786173  -0.142620   0.010071
H  -0.112969  -1.315071  -0.598963
