butane_opt
 OpenBabel08242015393D

 14 13  0  0  0  0  0  0  0  0999 V2000
   -3.9577    0.2976   -0.0366 C   0  0  0  0  0  0  0  0  0  0  0  0
   -2.7236   -0.6415    0.1245 C   0  0  0  0  0  0  0  0  0  0  0  0
   -4.8375   -0.2029    0.0108 H   0  0  0  0  0  0  0  0  0  0  0  0
   -4.0364    1.0204   -0.9893 H   0  0  0  0  0  0  0  0  0  0  0  0
   -4.1532    0.8548    0.6683 H   0  0  0  0  0  0  0  0  0  0  0  0
   -1.3895    0.1324    0.0632 C   0  0  0  0  0  0  0  0  0  0  0  0
   -2.7795   -1.2628   -0.7249 H   0  0  0  0  0  0  0  0  0  0  0  0
   -2.7420   -1.3720    1.0804 H   0  0  0  0  0  0  0  0  0  0  0  0
   -0.1310   -0.6590   -0.0382 C   0  0  0  0  0  0  0  0  0  0  0  0
   -1.2006    0.8261    0.9111 H   0  0  0  0  0  0  0  0  0  0  0  0
   -1.3914    0.8255   -0.8238 H   0  0  0  0  0  0  0  0  0  0  0  0
   -0.3413   -1.0500    0.7798 H   0  0  0  0  0  0  0  0  0  0  0  0
    0.8635   -0.0183    0.2458 H   0  0  0  0  0  0  0  0  0  0  0  0
    0.0013   -1.6534   -1.1186 H   0  0  0  0  0  0  0  0  0  0  0  0
  1  3  1  0  0  0  0
  1  2  1  0  0  0  0
  1  5  1  0  0  0  0
  2  8  1  0  0  0  0
  4  1  1  0  0  0  0
  6  2  1  0  0  0  0
  6 10  1  0  0  0  0
  7  2  1  0  0  0  0
  9  6  1  0  0  0  0
  9 13  1  0  0  0  0
  9 12  1  0  0  0  0
 11  6  1  0  0  0  0
 14  9  1  0  0  0  0
M  END
$$$$
