butane_opt
 OpenBabel08242015393D

 14 13  0  0  0  0  0  0  0  0999 V2000
   -3.9990    0.2893   -0.0526 C   0  0  0  0  0  0  0  0  0  0  0  0
   -2.7173   -0.6412    0.1641 C   0  0  0  0  0  0  0  0  0  0  0  0
   -4.7582   -0.1372   -0.3605 H   0  0  0  0  0  0  0  0  0  0  0  0
   -3.6414    0.8201   -0.9632 H   0  0  0  0  0  0  0  0  0  0  0  0
   -4.3730    1.0692    0.8006 H   0  0  0  0  0  0  0  0  0  0  0  0
   -1.3565    0.1686    0.0810 C   0  0  0  0  0  0  0  0  0  0  0  0
   -2.6721   -1.3653   -0.6174 H   0  0  0  0  0  0  0  0  0  0  0  0
   -2.6859   -1.3549    1.0743 H   0  0  0  0  0  0  0  0  0  0  0  0
   -0.1428   -0.6901   -0.0459 C   0  0  0  0  0  0  0  0  0  0  0  0
   -1.1879    0.7289    0.8709 H   0  0  0  0  0  0  0  0  0  0  0  0
   -1.5424    0.7481   -0.7649 H   0  0  0  0  0  0  0  0  0  0  0  0
   -0.1293   -1.1667    0.6692 H   0  0  0  0  0  0  0  0  0  0  0  0
    0.8658    0.0626   -0.0279 H   0  0  0  0  0  0  0  0  0  0  0  0
   -0.3317   -1.3550   -0.9746 H   0  0  0  0  0  0  0  0  0  0  0  0
  1  2  1  0  0  0  0
  1  5  1  0  0  0  0
  2  8  1  0  0  0  0
  3  1  1  0  0  0  0
  4  1  1  0  0  0  0
  6  2  1  0  0  0  0
  6 10  1  0  0  0  0
  7  2  1  0  0  0  0
  9 13  1  0  0  0  0
  9  6  1  0  0  0  0
  9 12  1  0  0  0  0
 11  6  1  0  0  0  0
 14  9  1  0  0  0  0
M  END
$$$$
