butane_opt
 OpenBabel08242015393D

 14 13  0  0  0  0  0  0  0  0999 V2000
   -3.9198    0.2972   -0.0676 C   0  0  0  0  0  0  0  0  0  0  0  0
   -2.6992   -0.6428    0.1652 C   0  0  0  0  0  0  0  0  0  0  0  0
   -4.8262   -0.2574   -0.3476 H   0  0  0  0  0  0  0  0  0  0  0  0
   -3.8991    0.8971   -0.9854 H   0  0  0  0  0  0  0  0  0  0  0  0
   -4.1942    1.1039    0.8408 H   0  0  0  0  0  0  0  0  0  0  0  0
   -1.4088    0.1178    0.0896 C   0  0  0  0  0  0  0  0  0  0  0  0
   -2.7054   -1.1838   -0.6594 H   0  0  0  0  0  0  0  0  0  0  0  0
   -2.7367   -1.3346    1.0432 H   0  0  0  0  0  0  0  0  0  0  0  0
   -0.1747   -0.6708   -0.0223 C   0  0  0  0  0  0  0  0  0  0  0  0
   -1.2200    0.7427    0.8833 H   0  0  0  0  0  0  0  0  0  0  0  0
   -1.3894    0.7706   -0.7928 H   0  0  0  0  0  0  0  0  0  0  0  0
   -0.0417   -1.0561    0.7200 H   0  0  0  0  0  0  0  0  0  0  0  0
    0.8412    0.0646   -0.1761 H   0  0  0  0  0  0  0  0  0  0  0  0
   -0.4256   -1.4364   -1.0777 H   0  0  0  0  0  0  0  0  0  0  0  0
  1  2  1  0  0  0  0
  1  5  1  0  0  0  0
  2  8  1  0  0  0  0
  3  1  1  0  0  0  0
  4  1  1  0  0  0  0
  6  2  1  0  0  0  0
  6 10  1  0  0  0  0
  7  2  1  0  0  0  0
  9  6  1  0  0  0  0
  9 12  1  0  0  0  0
 11  6  1  0  0  0  0
 13  9  1  0  0  0  0
 14  9  1  0  0  0  0
M  END
$$$$
