14
butane_opt
C  -3.941196   0.256706   0.027349
C  -2.704860  -0.616450   0.035277
H  -4.857310  -0.338206  -0.079557
H  -3.937682   0.779350  -0.794275
H  -3.995880   1.071984   0.978297
C  -1.403620   0.203218  -0.004768
H  -2.733897  -1.274811  -0.797501
H  -2.753295  -1.257344   0.917536
C  -0.160229  -0.710845   0.039697
H  -1.412023   0.859229   0.808066
H  -1.359089   0.845861  -0.928464
H  -0.096281  -1.364263   0.962405
H   0.762000  -0.103390   0.011469
H  -0.118975  -1.284387  -0.786948
