14
butane_opt
C  -3.976386   0.224593  -0.080169
C  -2.709369  -0.602979   0.157406
H  -4.743238  -0.227149  -0.360245
H  -3.740817   0.697469  -0.929466
H  -4.191389   1.000818   0.838943
C  -1.416198   0.236401   0.101082
H  -2.661866  -1.127344  -0.623870
H  -2.817760  -1.300888   1.197080
C  -0.129120  -0.724815  -0.079930
H  -1.099210   0.995793   1.019716
H  -1.583543   0.733737  -0.704539
H   0.086226  -1.374220   0.914890
H   0.705362  -0.177042  -0.120441
H  -0.196645  -1.306279  -0.931675
