butane_opt
 OpenBabel08242015393D

 14 13  0  0  0  0  0  0  0  0999 V2000
   -3.9408    0.2257    0.0575 C   0  0  0  0  0  0  0  0  0  0  0  0
   -2.7452   -0.6028   -0.0268 C   0  0  0  0  0  0  0  0  0  0  0  0
   -4.7919   -0.3877    0.0338 H   0  0  0  0  0  0  0  0  0  0  0  0
   -3.9111    0.9219   -0.9129 H   0  0  0  0  0  0  0  0  0  0  0  0
   -4.1389    1.0519    1.0450 H   0  0  0  0  0  0  0  0  0  0  0  0
   -1.4128    0.2181    0.0108 C   0  0  0  0  0  0  0  0  0  0  0  0
   -2.8783   -1.3423   -0.9405 H   0  0  0  0  0  0  0  0  0  0  0  0
   -2.6870   -1.1742    0.8589 H   0  0  0  0  0  0  0  0  0  0  0  0
   -0.0946   -0.7071    0.0649 C   0  0  0  0  0  0  0  0  0  0  0  0
   -1.3834    0.9363    0.8094 H   0  0  0  0  0  0  0  0  0  0  0  0
   -1.4558    0.8967   -0.9240 H   0  0  0  0  0  0  0  0  0  0  0  0
    0.0481   -1.5603    1.1536 H   0  0  0  0  0  0  0  0  0  0  0  0
    0.7034   -0.2703   -0.2212 H   0  0  0  0  0  0  0  0  0  0  0  0
   -0.1774   -1.1624   -0.6990 H   0  0  0  0  0  0  0  0  0  0  0  0
  1  5  1  0  0  0  0
  2  6  1  0  0  0  0
  2  1  1  0  0  0  0
  2  8  1  0  0  0  0
  3  1  1  0  0  0  0
  4  1  1  0  0  0  0
  6  9  1  0  0  0  0
  6 10  1  0  0  0  0
  7  2  1  0  0  0  0
  9 12  1  0  0  0  0
 11  6  1  0  0  0  0
 13  9  1  0  0  0  0
 14  9  1  0  0  0  0
M  END
$$$$
