butane_opt
 OpenBabel08242015393D

 14 13  0  0  0  0  0  0  0  0999 V2000
   -3.9222    0.3093   -0.0568 C   0  0  0  0  0  0  0  0  0  0  0  0
   -2.6651   -0.6598    0.1025 C   0  0  0  0  0  0  0  0  0  0  0  0
   -4.8584   -0.3170    0.0548 H   0  0  0  0  0  0  0  0  0  0  0  0
   -3.9688    1.0109   -1.0021 H   0  0  0  0  0  0  0  0  0  0  0  0
   -4.0397    0.6597    0.6051 H   0  0  0  0  0  0  0  0  0  0  0  0
   -1.4365    0.1627    0.0955 C   0  0  0  0  0  0  0  0  0  0  0  0
   -2.6057   -1.3142   -0.7533 H   0  0  0  0  0  0  0  0  0  0  0  0
   -2.6268   -1.2513    1.0171 H   0  0  0  0  0  0  0  0  0  0  0  0
   -0.1994   -0.6582   -0.0461 C   0  0  0  0  0  0  0  0  0  0  0  0
   -1.3463    1.0303    1.1323 H   0  0  0  0  0  0  0  0  0  0  0  0
   -1.3158    0.5343   -0.5712 H   0  0  0  0  0  0  0  0  0  0  0  0
    0.0462   -1.3962    0.9057 H   0  0  0  0  0  0  0  0  0  0  0  0
    0.7683   -0.1185   -0.2439 H   0  0  0  0  0  0  0  0  0  0  0  0
   -0.4057   -1.1482   -0.8612 H   0  0  0  0  0  0  0  0  0  0  0  0
  1  3  1  0  0  0  0
  1  2  1  0  0  0  0
  1  5  1  0  0  0  0
  2  8  1  0  0  0  0
  4  1  1  0  0  0  0
  6  2  1  0  0  0  0
  6 10  1  0  0  0  0
  7  2  1  0  0  0  0
  9  6  1  0  0  0  0
  9 12  1  0  0  0  0
 11  6  1  0  0  0  0
 13  9  1  0  0  0  0
 14  9  1  0  0  0  0
M  END
$$$$
