butane_opt
 OpenBabel08242015393D

 14 13  0  0  0  0  0  0  0  0999 V2000
   -3.9467    0.3076    0.0712 C   0  0  0  0  0  0  0  0  0  0  0  0
   -2.7082   -0.6478   -0.0461 C   0  0  0  0  0  0  0  0  0  0  0  0
   -4.8547   -0.2965    0.1779 H   0  0  0  0  0  0  0  0  0  0  0  0
   -4.0030    0.8342   -0.7270 H   0  0  0  0  0  0  0  0  0  0  0  0
   -3.9501    1.1300    1.0983 H   0  0  0  0  0  0  0  0  0  0  0  0
   -1.3924    0.1372   -0.0738 C   0  0  0  0  0  0  0  0  0  0  0  0
   -2.7747   -1.3912   -0.8872 H   0  0  0  0  0  0  0  0  0  0  0  0
   -2.5197   -1.3056    0.9198 H   0  0  0  0  0  0  0  0  0  0  0  0
   -0.1868   -0.6747    0.0871 C   0  0  0  0  0  0  0  0  0  0  0  0
   -1.3171    0.8067    0.7525 H   0  0  0  0  0  0  0  0  0  0  0  0
   -1.3428    0.7870   -0.9254 H   0  0  0  0  0  0  0  0  0  0  0  0
   -0.3490   -1.3922    1.0604 H   0  0  0  0  0  0  0  0  0  0  0  0
    0.8647    0.1433    0.1850 H   0  0  0  0  0  0  0  0  0  0  0  0
    0.0087   -1.2312   -0.6554 H   0  0  0  0  0  0  0  0  0  0  0  0
  1  3  1  0  0  0  0
  1  5  1  0  0  0  0
  2  1  1  0  0  0  0
  2  8  1  0  0  0  0
  4  1  1  0  0  0  0
  6  2  1  0  0  0  0
  6  9  1  0  0  0  0
  6 10  1  0  0  0  0
  7  2  1  0  0  0  0
  9 13  1  0  0  0  0
  9 12  1  0  0  0  0
 11  6  1  0  0  0  0
 14  9  1  0  0  0  0
M  END
$$$$
