butane_opt
 OpenBabel08242015393D

 14 12  0  0  0  0  0  0  0  0999 V2000
   -4.0045    0.2990   -0.0155 C   0  0  0  0  0  0  0  0  0  0  0  0
   -2.7298   -0.6546    0.0645 C   0  0  0  0  0  0  0  0  0  0  0  0
   -4.8509   -0.2232    0.3053 H   0  0  0  0  0  0  0  0  0  0  0  0
   -4.0618    1.3901   -1.2600 H   0  0  0  0  0  0  0  0  0  0  0  0
   -3.9608    0.6522    0.5870 H   0  0  0  0  0  0  0  0  0  0  0  0
   -1.3588    0.1125    0.1106 C   0  0  0  0  0  0  0  0  0  0  0  0
   -2.5305   -1.3170   -0.8090 H   0  0  0  0  0  0  0  0  0  0  0  0
   -2.7586   -1.2531    0.9372 H   0  0  0  0  0  0  0  0  0  0  0  0
   -0.1510   -0.6526   -0.0225 C   0  0  0  0  0  0  0  0  0  0  0  0
   -1.2795    0.9188    1.0486 H   0  0  0  0  0  0  0  0  0  0  0  0
   -1.2233    0.7365   -0.8570 H   0  0  0  0  0  0  0  0  0  0  0  0
    0.0420   -1.1268    0.8472 H   0  0  0  0  0  0  0  0  0  0  0  0
    0.7851   -0.0026    0.0186 H   0  0  0  0  0  0  0  0  0  0  0  0
   -0.2855   -1.4856   -1.0635 H   0  0  0  0  0  0  0  0  0  0  0  0
  1  2  1  0  0  0  0
  1  3  1  0  0  0  0
  1  5  1  0  0  0  0
  2  6  1  0  0  0  0
  2  8  1  0  0  0  0
  6 10  1  0  0  0  0
  7  2  1  0  0  0  0
  9 13  1  0  0  0  0
  9  6  1  0  0  0  0
  9 12  1  0  0  0  0
 11  6  1  0  0  0  0
 14  9  1  0  0  0  0
M  RAD  2   1   2   4   2
M  END
$$$$
