butane_opt
 OpenBabel08242015393D

 14 13  0  0  0  0  0  0  0  0999 V2000
   -3.9440    0.3236   -0.0452 C   0  0  0  0  0  0  0  0  0  0  0  0
   -2.6997   -0.6682    0.1005 C   0  0  0  0  0  0  0  0  0  0  0  0
   -4.9483   -0.3507    0.0361 H   0  0  0  0  0  0  0  0  0  0  0  0
   -3.9380    1.0626   -1.0895 H   0  0  0  0  0  0  0  0  0  0  0  0
   -4.0957    0.8143    0.7459 H   0  0  0  0  0  0  0  0  0  0  0  0
   -1.3734    0.1538    0.1117 C   0  0  0  0  0  0  0  0  0  0  0  0
   -2.5809   -1.4796   -0.8770 H   0  0  0  0  0  0  0  0  0  0  0  0
   -2.6945   -1.1396    0.9214 H   0  0  0  0  0  0  0  0  0  0  0  0
   -0.1803   -0.6511   -0.0192 C   0  0  0  0  0  0  0  0  0  0  0  0
   -1.1914    0.8342    0.9512 H   0  0  0  0  0  0  0  0  0  0  0  0
   -1.5356    0.6181   -0.6808 H   0  0  0  0  0  0  0  0  0  0  0  0
   -0.0684   -1.4548    0.9426 H   0  0  0  0  0  0  0  0  0  0  0  0
    0.7466   -0.0469   -0.4097 H   0  0  0  0  0  0  0  0  0  0  0  0
   -0.3479   -1.2099   -0.8614 H   0  0  0  0  0  0  0  0  0  0  0  0
  1  3  1  0  0  0  0
  1  2  1  0  0  0  0
  1  5  1  0  0  0  0
  2  6  1  0  0  0  0
  2  8  1  0  0  0  0
  4  1  1  0  0  0  0
  6 10  1  0  0  0  0
  7  2  1  0  0  0  0
  9  6  1  0  0  0  0
  9 12  1  0  0  0  0
 11  6  1  0  0  0  0
 13  9  1  0  0  0  0
 14  9  1  0  0  0  0
M  END
$$$$
