14
butane_opt
C  -3.977855   0.306367  -0.070906
C  -2.660156  -0.624771   0.110750
H  -4.877610  -0.319281   0.013897
H  -3.906699   1.072226  -1.125791
H  -4.144745   0.751105   0.696068
C  -1.365137   0.113679   0.146857
H  -2.478069  -1.321859  -0.686792
H  -2.757299  -1.342711   1.027544
C  -0.195869  -0.634140  -0.076086
H  -1.243898   0.981612   1.095938
H  -1.547975   0.492672  -0.590784
H  -0.137738  -1.432917   0.976214
H   0.751622  -0.016181  -0.386155
H  -0.309307  -1.237268  -0.905634
