butane_opt
 OpenBabel08242015393D

 14 13  0  0  0  0  0  0  0  0999 V2000
   -3.9306    0.2441    0.0580 C   0  0  0  0  0  0  0  0  0  0  0  0
   -2.7340   -0.5814   -0.0354 C   0  0  0  0  0  0  0  0  0  0  0  0
   -4.9675   -0.3752    0.2597 H   0  0  0  0  0  0  0  0  0  0  0  0
   -4.1846    0.9288   -0.9153 H   0  0  0  0  0  0  0  0  0  0  0  0
   -3.8341    0.8645    0.8801 H   0  0  0  0  0  0  0  0  0  0  0  0
   -1.4112    0.2346   -0.0177 C   0  0  0  0  0  0  0  0  0  0  0  0
   -2.6929   -1.2871   -0.9210 H   0  0  0  0  0  0  0  0  0  0  0  0
   -2.8969   -1.3024    0.9508 H   0  0  0  0  0  0  0  0  0  0  0  0
   -0.1223   -0.7372    0.0725 C   0  0  0  0  0  0  0  0  0  0  0  0
   -1.3963    0.8956    0.9225 H   0  0  0  0  0  0  0  0  0  0  0  0
   -1.3027    0.7565   -0.8527 H   0  0  0  0  0  0  0  0  0  0  0  0
   -0.1716   -1.4238    1.0243 H   0  0  0  0  0  0  0  0  0  0  0  0
    0.8581   -0.0748   -0.0662 H   0  0  0  0  0  0  0  0  0  0  0  0
   -0.0374   -1.3698   -0.7790 H   0  0  0  0  0  0  0  0  0  0  0  0
  1  3  1  0  0  0  0
  1  5  1  0  0  0  0
  2  6  1  0  0  0  0
  2  1  1  0  0  0  0
  2  8  1  0  0  0  0
  4  1  1  0  0  0  0
  6  9  1  0  0  0  0
  6 10  1  0  0  0  0
  7  2  1  0  0  0  0
  9 12  1  0  0  0  0
 11  6  1  0  0  0  0
 13  9  1  0  0  0  0
 14  9  1  0  0  0  0
M  END
$$$$
