14
butane_opt
C  -3.945193   0.298634  -0.041772
C  -2.631308  -0.662798   0.110998
H  -4.859221  -0.256542   0.108766
H  -4.074707   1.004800  -1.002364
H  -3.887618   0.835984   0.818569
C  -1.391451   0.145926   0.016130
H  -2.625967  -1.263474  -0.615541
H  -2.602422  -1.410525   1.049161
C  -0.236769  -0.664546  -0.001222
H  -1.352519   0.846585   0.955495
H  -1.451708   0.836304  -0.846192
H  -0.357532  -0.839487   0.636039
H   0.675225   0.006621   0.345129
H  -0.044264  -1.637186  -1.087925
