butane_opt
 OpenBabel08242015393D

 14 13  0  0  0  0  0  0  0  0999 V2000
   -3.9738    0.2319    0.1167 C   0  0  0  0  0  0  0  0  0  0  0  0
   -2.7050   -0.5801   -0.0686 C   0  0  0  0  0  0  0  0  0  0  0  0
   -4.8375   -0.3106    0.2208 H   0  0  0  0  0  0  0  0  0  0  0  0
   -4.1744    0.9901   -0.8689 H   0  0  0  0  0  0  0  0  0  0  0  0
   -3.9199    0.8129    0.9307 H   0  0  0  0  0  0  0  0  0  0  0  0
   -1.4123    0.1982   -0.0636 C   0  0  0  0  0  0  0  0  0  0  0  0
   -2.8472   -1.3499   -1.0764 H   0  0  0  0  0  0  0  0  0  0  0  0
   -2.6436   -1.1846    0.7802 H   0  0  0  0  0  0  0  0  0  0  0  0
   -0.1228   -0.7108    0.0916 C   0  0  0  0  0  0  0  0  0  0  0  0
   -1.5144    0.9252    0.8395 H   0  0  0  0  0  0  0  0  0  0  0  0
   -1.2629    0.8004   -0.9289 H   0  0  0  0  0  0  0  0  0  0  0  0
   -0.1879   -1.5371    1.1627 H   0  0  0  0  0  0  0  0  0  0  0  0
    0.8684    0.0163    0.0702 H   0  0  0  0  0  0  0  0  0  0  0  0
    0.0639   -1.2877   -0.6174 H   0  0  0  0  0  0  0  0  0  0  0  0
  1  3  1  0  0  0  0
  1  5  1  0  0  0  0
  2  6  1  0  0  0  0
  2  1  1  0  0  0  0
  2  8  1  0  0  0  0
  4  1  1  0  0  0  0
  6  9  1  0  0  0  0
  6 10  1  0  0  0  0
  7  2  1  0  0  0  0
  9 12  1  0  0  0  0
 11  6  1  0  0  0  0
 13  9  1  0  0  0  0
 14  9  1  0  0  0  0
M  END
$$$$
