14
butane_opt
C  -3.994918   0.307247   0.021108
C  -2.678594  -0.691985   0.040917
H  -4.703360  -0.123583  -0.399000
H  -3.916496   0.521946  -0.675159
H  -4.151087   1.280975   1.061180
C  -1.395235   0.166747   0.004444
H  -2.732420  -1.225871  -0.758866
H  -2.822660  -1.502431   1.086712
C  -0.141986  -0.647460   0.042605
H  -1.307342   0.761432   0.827609
H  -1.449775   0.908956  -0.953844
H  -0.062160  -1.382653   0.933335
H   0.767907  -0.012165  -0.158185
H  -0.165719  -1.283002  -0.787499
