butane_opt
 OpenBabel08242015393D

 14 13  0  0  0  0  0  0  0  0999 V2000
   -3.9623    0.3171   -0.0403 C   0  0  0  0  0  0  0  0  0  0  0  0
   -2.6910   -0.6853    0.0749 C   0  0  0  0  0  0  0  0  0  0  0  0
   -4.9284   -0.2076   -0.0797 H   0  0  0  0  0  0  0  0  0  0  0  0
   -3.9587    0.8756   -0.9296 H   0  0  0  0  0  0  0  0  0  0  0  0
   -4.0031    0.8954    0.7593 H   0  0  0  0  0  0  0  0  0  0  0  0
   -1.3786    0.1692    0.0758 C   0  0  0  0  0  0  0  0  0  0  0  0
   -2.5669   -1.2753   -0.6837 H   0  0  0  0  0  0  0  0  0  0  0  0
   -2.8220   -1.3383    0.9968 H   0  0  0  0  0  0  0  0  0  0  0  0
   -0.1681   -0.6537   -0.0145 C   0  0  0  0  0  0  0  0  0  0  0  0
   -1.3260    0.9985    1.0921 H   0  0  0  0  0  0  0  0  0  0  0  0
   -1.3411    0.6100   -0.5830 H   0  0  0  0  0  0  0  0  0  0  0  0
    0.0159   -1.4511    1.0249 H   0  0  0  0  0  0  0  0  0  0  0  0
    0.6877   -0.1213   -0.5045 H   0  0  0  0  0  0  0  0  0  0  0  0
   -0.3976   -1.2259   -0.8088 H   0  0  0  0  0  0  0  0  0  0  0  0
  1  2  1  0  0  0  0
  1  5  1  0  0  0  0
  2  6  1  0  0  0  0
  2  8  1  0  0  0  0
  3  1  1  0  0  0  0
  4  1  1  0  0  0  0
  6 10  1  0  0  0  0
  7  2  1  0  0  0  0
  9  6  1  0  0  0  0
  9 12  1  0  0  0  0
 11  6  1  0  0  0  0
 13  9  1  0  0  0  0
 14  9  1  0  0  0  0
M  END
$$$$
