14
butane_opt
C  -3.960242   0.231712   0.030323
C  -2.740188  -0.575017   0.031926
H  -4.875621  -0.335873  -0.325808
H  -3.691631   0.562900  -0.662890
H  -4.203577   1.255088   1.116099
C  -1.428883   0.208428  -0.014093
H  -2.862255  -1.252317  -0.770198
H  -2.696372  -1.254229   0.999037
C  -0.079177  -0.704474   0.051978
H  -1.348601   0.729356   0.686366
H  -1.417375   0.867630  -0.874840
H  -0.022338  -1.513129   0.987101
H   0.778361  -0.176992  -0.145899
H  -0.167095  -1.288152  -0.720066
