14
butane_opt
C  -3.965634   0.283057  -0.041064
C  -2.712178  -0.605671   0.160238
H  -4.825505  -0.307444  -0.146107
H  -3.916082   1.007443  -1.055788
H  -4.224918   0.779590   0.692681
C  -1.364150   0.155686   0.041671
H  -2.824589  -1.190085  -0.628406
H  -2.775911  -1.362181   1.060005
C  -0.144812  -0.686366  -0.038901
H  -1.247137   0.856139   0.919744
H  -1.561248   0.718326  -0.762545
H  -0.198200  -0.961892   0.702856
H   0.878080  -0.009597   0.304178
H  -0.101134  -1.749531  -1.155782
