14
butane_opt
C  -3.944037   0.323627  -0.045203
C  -2.699739  -0.668192   0.100488
H  -4.948345  -0.350722   0.036136
H  -3.938037   1.062559  -1.089498
H  -4.095706   0.814255   0.745948
C  -1.373439   0.153801   0.111724
H  -2.580874  -1.479639  -0.876950
H  -2.694452  -1.139573   0.921353
C  -0.180317  -0.651143  -0.019194
H  -1.191410   0.834232   0.951230
H  -1.535629   0.618137  -0.680833
H  -0.068407  -1.454812   0.942630
H   0.746648  -0.046850  -0.409711
H  -0.347941  -1.209910  -0.861401
