butane_opt
 OpenBabel08242015393D

 14 13  0  0  0  0  0  0  0  0999 V2000
   -3.9555    0.2507    0.1117 C   0  0  0  0  0  0  0  0  0  0  0  0
   -2.7156   -0.6215   -0.1342 C   0  0  0  0  0  0  0  0  0  0  0  0
   -4.8609   -0.3735    0.4587 H   0  0  0  0  0  0  0  0  0  0  0  0
   -4.1657    0.9083   -0.7589 H   0  0  0  0  0  0  0  0  0  0  0  0
   -3.8309    0.8803    0.9988 H   0  0  0  0  0  0  0  0  0  0  0  0
   -1.4217    0.2160   -0.0722 C   0  0  0  0  0  0  0  0  0  0  0  0
   -2.7962   -1.1830   -0.9141 H   0  0  0  0  0  0  0  0  0  0  0  0
   -2.6372   -1.2156    0.8069 H   0  0  0  0  0  0  0  0  0  0  0  0
   -0.1460   -0.6933    0.1393 C   0  0  0  0  0  0  0  0  0  0  0  0
   -1.3197    0.8529    0.7791 H   0  0  0  0  0  0  0  0  0  0  0  0
   -1.2565    0.8818   -0.9913 H   0  0  0  0  0  0  0  0  0  0  0  0
   -0.0627   -1.4843    1.0745 H   0  0  0  0  0  0  0  0  0  0  0  0
    0.7074   -0.1727    0.1252 H   0  0  0  0  0  0  0  0  0  0  0  0
    0.0675   -1.3968   -0.6621 H   0  0  0  0  0  0  0  0  0  0  0  0
  1  3  1  0  0  0  0
  1  5  1  0  0  0  0
  2  6  1  0  0  0  0
  2  1  1  0  0  0  0
  2  8  1  0  0  0  0
  4  1  1  0  0  0  0
  6  9  1  0  0  0  0
  6 10  1  0  0  0  0
  7  2  1  0  0  0  0
  9 12  1  0  0  0  0
 11  6  1  0  0  0  0
 13  9  1  0  0  0  0
 14  9  1  0  0  0  0
M  END
$$$$
