14
butane_opt
C  -3.956334   0.274304   0.002728
C  -2.700640  -0.645404   0.037467
H  -4.817328  -0.303550   0.160723
H  -4.082080   1.072267  -0.985414
H  -3.930887   0.835299   0.790543
C  -1.397354   0.186358   0.040343
H  -2.672808  -1.301260  -0.779518
H  -2.722195  -1.277337   0.946324
C  -0.159108  -0.685200   0.013896
H  -1.372325   0.903219   0.935818
H  -1.415558   0.755228  -0.824652
H  -0.123052  -1.260896   0.877847
H   0.785972  -0.065820   0.025404
H  -0.122180  -1.372918  -0.860691
