butane_opt
 OpenBabel08242015393D

 14 13  0  0  0  0  0  0  0  0999 V2000
   -3.9452    0.2986   -0.0418 C   0  0  0  0  0  0  0  0  0  0  0  0
   -2.6313   -0.6628    0.1110 C   0  0  0  0  0  0  0  0  0  0  0  0
   -4.8592   -0.2565    0.1088 H   0  0  0  0  0  0  0  0  0  0  0  0
   -4.0747    1.0048   -1.0024 H   0  0  0  0  0  0  0  0  0  0  0  0
   -3.8876    0.8360    0.8186 H   0  0  0  0  0  0  0  0  0  0  0  0
   -1.3915    0.1459    0.0161 C   0  0  0  0  0  0  0  0  0  0  0  0
   -2.6260   -1.2635   -0.6155 H   0  0  0  0  0  0  0  0  0  0  0  0
   -2.6024   -1.4105    1.0492 H   0  0  0  0  0  0  0  0  0  0  0  0
   -0.2368   -0.6645   -0.0012 C   0  0  0  0  0  0  0  0  0  0  0  0
   -1.3525    0.8466    0.9555 H   0  0  0  0  0  0  0  0  0  0  0  0
   -1.4517    0.8363   -0.8462 H   0  0  0  0  0  0  0  0  0  0  0  0
   -0.3575   -0.8395    0.6360 H   0  0  0  0  0  0  0  0  0  0  0  0
    0.6752    0.0066    0.3451 H   0  0  0  0  0  0  0  0  0  0  0  0
   -0.0443   -1.6372   -1.0879 H   0  0  0  0  0  0  0  0  0  0  0  0
  1  3  1  0  0  0  0
  1  2  1  0  0  0  0
  1  5  1  0  0  0  0
  2  8  1  0  0  0  0
  4  1  1  0  0  0  0
  6  2  1  0  0  0  0
  6 10  1  0  0  0  0
  7  2  1  0  0  0  0
  9  6  1  0  0  0  0
  9 13  1  0  0  0  0
  9 12  1  0  0  0  0
 11  6  1  0  0  0  0
 14  9  1  0  0  0  0
M  END
$$$$
