butane_opt
 OpenBabel08242015393D

 14 13  0  0  0  0  0  0  0  0999 V2000
   -3.9667    0.2471   -0.0539 C   0  0  0  0  0  0  0  0  0  0  0  0
   -2.7007   -0.6240    0.0673 C   0  0  0  0  0  0  0  0  0  0  0  0
   -4.9289   -0.4012    0.4262 H   0  0  0  0  0  0  0  0  0  0  0  0
   -4.0509    1.2067   -1.1618 H   0  0  0  0  0  0  0  0  0  0  0  0
   -3.7932    0.6415    0.6324 H   0  0  0  0  0  0  0  0  0  0  0  0
   -1.3758    0.2616    0.1156 C   0  0  0  0  0  0  0  0  0  0  0  0
   -2.8722   -1.2768   -0.7319 H   0  0  0  0  0  0  0  0  0  0  0  0
   -2.7626   -1.1949    0.9025 H   0  0  0  0  0  0  0  0  0  0  0  0
   -0.1488   -0.7371   -0.0089 C   0  0  0  0  0  0  0  0  0  0  0  0
   -1.3744    0.8635    0.9248 H   0  0  0  0  0  0  0  0  0  0  0  0
   -1.3594    0.8359   -0.7744 H   0  0  0  0  0  0  0  0  0  0  0  0
    0.0434   -1.1197    0.7288 H   0  0  0  0  0  0  0  0  0  0  0  0
    0.5761   -0.2040   -0.0413 H   0  0  0  0  0  0  0  0  0  0  0  0
   -0.1772   -1.6038   -0.9697 H   0  0  0  0  0  0  0  0  0  0  0  0
  1  2  1  0  0  0  0
  1  3  1  0  0  0  0
  1  5  1  0  0  0  0
  2  6  1  0  0  0  0
  2  8  1  0  0  0  0
  4  1  1  0  0  0  0
  6 10  1  0  0  0  0
  7  2  1  0  0  0  0
  9  6  1  0  0  0  0
  9 12  1  0  0  0  0
 11  6  1  0  0  0  0
 13  9  1  0  0  0  0
 14  9  1  0  0  0  0
M  END
$$$$
