butane_opt
 OpenBabel08242015393D

 14 13  0  0  0  0  0  0  0  0999 V2000
   -3.9425    0.2615    0.0507 C   0  0  0  0  0  0  0  0  0  0  0  0
   -2.7446   -0.5964   -0.0272 C   0  0  0  0  0  0  0  0  0  0  0  0
   -4.9346   -0.3642    0.2797 H   0  0  0  0  0  0  0  0  0  0  0  0
   -3.9384    0.8945   -0.8366 H   0  0  0  0  0  0  0  0  0  0  0  0
   -3.9346    0.7715    0.8813 H   0  0  0  0  0  0  0  0  0  0  0  0
   -1.3996    0.2214   -0.0266 C   0  0  0  0  0  0  0  0  0  0  0  0
   -3.0273   -1.2629   -0.9332 H   0  0  0  0  0  0  0  0  0  0  0  0
   -2.6546   -1.2032    0.8945 H   0  0  0  0  0  0  0  0  0  0  0  0
   -0.1061   -0.7362    0.0633 C   0  0  0  0  0  0  0  0  0  0  0  0
   -1.4660    0.8839    0.8494 H   0  0  0  0  0  0  0  0  0  0  0  0
   -1.4054    0.7535   -0.8000 H   0  0  0  0  0  0  0  0  0  0  0  0
   -0.1238   -1.3690    0.9625 H   0  0  0  0  0  0  0  0  0  0  0  0
    0.7703   -0.1235    0.0820 H   0  0  0  0  0  0  0  0  0  0  0  0
    0.0092   -1.2556   -0.6728 H   0  0  0  0  0  0  0  0  0  0  0  0
  1  3  1  0  0  0  0
  1  5  1  0  0  0  0
  2  6  1  0  0  0  0
  2  1  1  0  0  0  0
  2  8  1  0  0  0  0
  4  1  1  0  0  0  0
  6  9  1  0  0  0  0
  6 10  1  0  0  0  0
  7  2  1  0  0  0  0
  9 13  1  0  0  0  0
  9 12  1  0  0  0  0
 11  6  1  0  0  0  0
 14  9  1  0  0  0  0
M  END
$$$$
