14
butane_opt
C  -3.937019   0.206434  -0.076317
C  -2.733225  -0.577797   0.107647
H  -4.762937  -0.315744  -0.133448
H  -4.067208   0.859478  -0.934216
H  -3.933404   0.898458   0.847341
C  -1.419914   0.253230   0.129578
H  -2.676248  -1.326348  -0.749002
H  -2.730239  -1.167675   1.040339
C  -0.110985  -0.717190  -0.035179
H  -1.373574   0.823178   0.911828
H  -1.525593   0.845986  -0.760096
H   0.128532  -1.468116   0.855433
H   0.672179  -0.275119  -0.341231
H  -0.307221  -1.317807  -0.810491
