14
butane_opt
C  -3.933149   0.269856  -0.029548
C  -2.673048  -0.633448   0.028432
H  -4.695408  -0.158083   0.438759
H  -4.214111   1.259756  -1.129609
H  -3.821531   0.634881   0.683521
C  -1.413311   0.159772   0.094515
H  -2.579178  -1.258882  -0.721025
H  -2.864191  -1.295615   1.035193
C  -0.187001  -0.677207  -0.007548
H  -1.302611   0.865532   0.922527
H  -1.340039   0.686276  -0.698369
H  -0.295713  -1.152413   0.800052
H   0.761819   0.087757   0.012344
H  -0.201751  -1.543468  -0.991565
