14
butane_opt
C  -3.910206   0.253984   0.039020
C  -2.709584  -0.586245   0.014573
H  -4.820396  -0.349957  -0.173667
H  -3.676742   0.748926  -0.834928
H  -3.864794   0.828200   0.860686
C  -1.433241   0.214955   0.050451
H  -2.801116  -1.318419  -0.841304
H  -2.830241  -1.100253   0.780622
C  -0.165572  -0.719776   0.023117
H  -1.521705   0.919013   0.902407
H  -1.425983   0.796318  -0.844169
H   0.068161  -1.645523   1.131739
H   0.754076  -0.183472  -0.447094
H  -0.313020  -1.098844  -0.595432
