14
butane_opt
C  -3.993092   0.213604  -0.074227
C  -2.730679  -0.574303   0.152354
H  -4.943744  -0.415323   0.094736
H  -3.881693   1.016275  -1.121895
H  -3.903282   0.884322   0.771224
C  -1.403054   0.241317   0.044424
H  -2.687798  -1.196709  -0.526157
H  -2.689073  -1.389243   1.163862
C  -0.098627  -0.741792  -0.068965
H  -1.295361   1.057170   1.038907
H  -1.513927   0.766051  -0.735793
H  -0.173618  -1.042390   0.666367
H   0.704176  -0.134624   0.452661
H   0.086476  -1.700027  -1.048139
