butane_opt
 OpenBabel08242015393D

 14 13  0  0  0  0  0  0  0  0999 V2000
   -3.9808    0.2990   -0.0577 C   0  0  0  0  0  0  0  0  0  0  0  0
   -2.6721   -0.6923    0.1467 C   0  0  0  0  0  0  0  0  0  0  0  0
   -4.8210   -0.2240   -0.1776 H   0  0  0  0  0  0  0  0  0  0  0  0
   -3.9522    1.0259   -1.0501 H   0  0  0  0  0  0  0  0  0  0  0  0
   -4.2029    0.9794    0.7788 H   0  0  0  0  0  0  0  0  0  0  0  0
   -1.3644    0.1717    0.1012 C   0  0  0  0  0  0  0  0  0  0  0  0
   -2.5237   -1.3468   -0.6975 H   0  0  0  0  0  0  0  0  0  0  0  0
   -2.8860   -1.3446    1.1198 H   0  0  0  0  0  0  0  0  0  0  0  0
   -0.1884   -0.6634   -0.0659 C   0  0  0  0  0  0  0  0  0  0  0  0
   -1.3539    0.8172    1.0164 H   0  0  0  0  0  0  0  0  0  0  0  0
   -1.4685    0.8729   -0.8203 H   0  0  0  0  0  0  0  0  0  0  0  0
   -0.0251   -1.1610    0.7584 H   0  0  0  0  0  0  0  0  0  0  0  0
    0.8852   -0.0122    0.0380 H   0  0  0  0  0  0  0  0  0  0  0  0
   -0.2349   -1.4302   -1.0189 H   0  0  0  0  0  0  0  0  0  0  0  0
  1  2  1  0  0  0  0
  1  5  1  0  0  0  0
  2  8  1  0  0  0  0
  3  1  1  0  0  0  0
  4  1  1  0  0  0  0
  6  2  1  0  0  0  0
  6 10  1  0  0  0  0
  7  2  1  0  0  0  0
  9 13  1  0  0  0  0
  9  6  1  0  0  0  0
  9 12  1  0  0  0  0
 11  6  1  0  0  0  0
 14  9  1  0  0  0  0
M  END
$$$$
