butane_opt
 OpenBabel08242015393D

 14 13  0  0  0  0  0  0  0  0999 V2000
   -3.9380    0.2208   -0.0872 C   0  0  0  0  0  0  0  0  0  0  0  0
   -2.6844   -0.5453    0.1775 C   0  0  0  0  0  0  0  0  0  0  0  0
   -4.8509   -0.4146   -0.3072 H   0  0  0  0  0  0  0  0  0  0  0  0
   -3.7896    0.7221   -1.0252 H   0  0  0  0  0  0  0  0  0  0  0  0
   -3.8650    1.0338    0.8802 H   0  0  0  0  0  0  0  0  0  0  0  0
   -1.4435    0.1708    0.0972 C   0  0  0  0  0  0  0  0  0  0  0  0
   -2.5584   -1.0841   -0.5855 H   0  0  0  0  0  0  0  0  0  0  0  0
   -2.7983   -1.2873    1.1566 H   0  0  0  0  0  0  0  0  0  0  0  0
   -0.1765   -0.7182   -0.0612 C   0  0  0  0  0  0  0  0  0  0  0  0
   -1.3545    1.0140    0.9995 H   0  0  0  0  0  0  0  0  0  0  0  0
   -1.3694    0.8216   -0.8387 H   0  0  0  0  0  0  0  0  0  0  0  0
   -0.0467   -1.2186    0.7759 H   0  0  0  0  0  0  0  0  0  0  0  0
    0.7727   -0.1085   -0.1043 H   0  0  0  0  0  0  0  0  0  0  0  0
   -0.2448   -1.5068   -1.0380 H   0  0  0  0  0  0  0  0  0  0  0  0
  1  2  1  0  0  0  0
  1  5  1  0  0  0  0
  2  8  1  0  0  0  0
  3  1  1  0  0  0  0
  4  1  1  0  0  0  0
  6  2  1  0  0  0  0
  6 10  1  0  0  0  0
  7  2  1  0  0  0  0
  9  6  1  0  0  0  0
  9 12  1  0  0  0  0
 11  6  1  0  0  0  0
 13  9  1  0  0  0  0
 14  9  1  0  0  0  0
M  END
$$$$
