butane_opt
 OpenBabel08242015393D

 14 13  0  0  0  0  0  0  0  0999 V2000
   -3.9507    0.3106    0.0502 C   0  0  0  0  0  0  0  0  0  0  0  0
   -2.7063   -0.6292   -0.0290 C   0  0  0  0  0  0  0  0  0  0  0  0
   -4.8507   -0.2291    0.3605 H   0  0  0  0  0  0  0  0  0  0  0  0
   -4.0943    1.0716   -0.9508 H   0  0  0  0  0  0  0  0  0  0  0  0
   -3.8157    0.7310    0.7055 H   0  0  0  0  0  0  0  0  0  0  0  0
   -1.3806    0.1016   -0.0009 C   0  0  0  0  0  0  0  0  0  0  0  0
   -2.7493   -1.2913   -0.9533 H   0  0  0  0  0  0  0  0  0  0  0  0
   -2.4328   -1.3359    0.9058 H   0  0  0  0  0  0  0  0  0  0  0  0
   -0.2147   -0.6506    0.0469 C   0  0  0  0  0  0  0  0  0  0  0  0
   -1.3647    0.9183    0.9628 H   0  0  0  0  0  0  0  0  0  0  0  0
   -1.2520    0.6305   -0.7817 H   0  0  0  0  0  0  0  0  0  0  0  0
   -0.1236   -1.3489    1.0117 H   0  0  0  0  0  0  0  0  0  0  0  0
    0.8076    0.0224    0.1372 H   0  0  0  0  0  0  0  0  0  0  0  0
   -0.1577   -1.2082   -0.7842 H   0  0  0  0  0  0  0  0  0  0  0  0
  1  3  1  0  0  0  0
  1  5  1  0  0  0  0
  2  6  1  0  0  0  0
  2  1  1  0  0  0  0
  2  8  1  0  0  0  0
  4  1  1  0  0  0  0
  6  9  1  0  0  0  0
  6 10  1  0  0  0  0
  7  2  1  0  0  0  0
  9 13  1  0  0  0  0
  9 12  1  0  0  0  0
 11  6  1  0  0  0  0
 14  9  1  0  0  0  0
M  END
$$$$
