14
butane_opt
C  -3.942451   0.261498   0.050695
C  -2.744588  -0.596445  -0.027201
H  -4.934552  -0.364196   0.279674
H  -3.938386   0.894489  -0.836615
H  -3.934633   0.771533   0.881326
C  -1.399610   0.221360  -0.026589
H  -3.027338  -1.262903  -0.933206
H  -2.654607  -1.203179   0.894546
C  -0.106143  -0.736181   0.063295
H  -1.465955   0.883873   0.849429
H  -1.405365   0.753547  -0.800049
H  -0.123840  -1.369032   0.962477
H   0.770314  -0.123531   0.081995
H   0.009165  -1.255640  -0.672786
