14
butane_opt
C  -3.952525   0.275122   0.033261
C  -2.687774  -0.625218   0.047568
H  -4.856786  -0.307283  -0.016565
H  -3.946706   0.860165  -0.844316
H  -3.957133   0.984483   0.930860
C  -1.401423   0.159204  -0.020753
H  -2.710382  -1.346121  -0.829773
H  -2.671043  -1.218145   0.873252
C  -0.169833  -0.674137   0.042402
H  -1.424615   0.818639   0.819311
H  -1.373497   0.853874  -0.957979
H  -0.221961  -1.259863   0.944856
H   0.741879  -0.061518   0.119424
H  -0.079148  -1.413649  -0.834483
