14
butane_opt
C  -3.954875   0.279785   0.022949
C  -2.700578  -0.623346   0.030011
H  -4.843751  -0.321814   0.049094
H  -3.957900   0.891758  -0.873894
H  -3.969863   0.900779   0.846199
C  -1.401665   0.172322   0.007727
H  -2.701725  -1.329735  -0.836858
H  -2.693988  -1.258009   0.916639
C  -0.157396  -0.685049   0.035743
H  -1.345884   0.928760   0.905219
H  -1.345245   0.757907  -0.840824
H  -0.117407  -1.386090   0.973110
H   0.756604  -0.095858  -0.051649
H  -0.232529  -1.279852  -0.795537
