14
butane_opt
C  -3.955499   0.231785   0.008736
C  -2.711632  -0.565518   0.026915
H  -4.818457  -0.338170   0.388113
H  -4.145647   1.090995  -1.034847
H  -3.822195   0.596781   0.575389
C  -1.401635   0.205467   0.032205
H  -2.882439  -1.222163  -0.807085
H  -2.869549  -1.300950   0.997192
C  -0.103752  -0.727413  -0.001722
H  -1.310521   1.028023   0.993047
H  -1.516118   0.848558  -0.744933
H  -0.251249  -1.225648   0.867871
H   0.721427  -0.172519   0.335606
H  -0.038897  -1.529833  -0.957997
