butane_opt
 OpenBabel08242015393D

 14 12  0  0  0  0  0  0  0  0999 V2000
   -3.9622    0.2531   -0.0351 C   0  0  0  0  0  0  0  0  0  0  0  0
   -2.7392   -0.5820    0.1200 C   0  0  0  0  0  0  0  0  0  0  0  0
   -4.9874   -0.4848    0.1234 H   0  0  0  0  0  0  0  0  0  0  0  0
   -3.8762    1.0285   -1.1000 H   0  0  0  0  0  0  0  0  0  0  0  0
   -3.9124    0.6451    0.6840 H   0  0  0  0  0  0  0  0  0  0  0  0
   -1.4029    0.2270    0.0619 C   0  0  0  0  0  0  0  0  0  0  0  0
   -2.6867   -1.2162   -0.6316 H   0  0  0  0  0  0  0  0  0  0  0  0
   -2.8452   -1.1994    1.0708 H   0  0  0  0  0  0  0  0  0  0  0  0
   -0.1040   -0.7381   -0.0212 C   0  0  0  0  0  0  0  0  0  0  0  0
   -1.2212    0.7925    0.8074 H   0  0  0  0  0  0  0  0  0  0  0  0
   -1.4978    0.9107   -0.8439 H   0  0  0  0  0  0  0  0  0  0  0  0
   -0.2441   -0.8889    0.4810 H   0  0  0  0  0  0  0  0  0  0  0  0
    0.6848   -0.2438    0.3879 H   0  0  0  0  0  0  0  0  0  0  0  0
    0.0957   -1.7656   -1.1023 H   0  0  0  0  0  0  0  0  0  0  0  0
  1  2  1  0  0  0  0
  1  3  1  0  0  0  0
  1  5  1  0  0  0  0
  2  8  1  0  0  0  0
  4  1  1  0  0  0  0
  6  2  1  0  0  0  0
  6 10  1  0  0  0  0
  7  2  1  0  0  0  0
  9  6  1  0  0  0  0
  9 13  1  0  0  0  0
 11  6  1  0  0  0  0
 14  9  1  0  0  0  0
M  RAD  2   9   2  12   2
M  END
$$$$
