14
butane_opt
C  -4.023015   0.304380  -0.035725
C  -2.672529  -0.674185   0.075050
H  -4.919675  -0.286263   0.397819
H  -4.272074   1.213384  -1.141347
H  -3.766959   0.715357   0.642068
C  -1.377214   0.146008   0.090332
H  -2.670942  -1.297430  -0.769488
H  -2.739152  -1.175482   0.789376
C  -0.151152  -0.671850  -0.004960
H  -1.308366   0.804152   0.899854
H  -1.307359   0.816567  -0.823080
H  -0.058611  -1.065293   0.819758
H   0.839786   0.024495   0.118496
H  -0.162114  -1.464205  -1.033473
