butane_opt
 OpenBabel08242015393D

 14 13  0  0  0  0  0  0  0  0999 V2000
   -3.9249    0.2109   -0.0344 C   0  0  0  0  0  0  0  0  0  0  0  0
   -2.7132   -0.5380    0.0490 C   0  0  0  0  0  0  0  0  0  0  0  0
   -4.8524   -0.3855    0.0052 H   0  0  0  0  0  0  0  0  0  0  0  0
   -3.9031    0.9191   -0.9887 H   0  0  0  0  0  0  0  0  0  0  0  0
   -3.9571    0.8445    0.7976 H   0  0  0  0  0  0  0  0  0  0  0  0
   -1.4193    0.2090    0.1091 C   0  0  0  0  0  0  0  0  0  0  0  0
   -2.7376   -1.3755   -0.8099 H   0  0  0  0  0  0  0  0  0  0  0  0
   -2.7166   -1.1767    0.9528 H   0  0  0  0  0  0  0  0  0  0  0  0
   -0.1388   -0.7208    0.0101 C   0  0  0  0  0  0  0  0  0  0  0  0
   -1.4264    0.9398    0.9905 H   0  0  0  0  0  0  0  0  0  0  0  0
   -1.5110    0.8223   -0.7601 H   0  0  0  0  0  0  0  0  0  0  0  0
    0.1551   -1.5472    1.1038 H   0  0  0  0  0  0  0  0  0  0  0  0
    0.7609   -0.1462   -0.5836 H   0  0  0  0  0  0  0  0  0  0  0  0
   -0.4643   -1.2981   -0.8751 H   0  0  0  0  0  0  0  0  0  0  0  0
  1  3  1  0  0  0  0
  1  2  1  0  0  0  0
  1  5  1  0  0  0  0
  2  6  1  0  0  0  0
  2  8  1  0  0  0  0
  4  1  1  0  0  0  0
  6 10  1  0  0  0  0
  7  2  1  0  0  0  0
  9  6  1  0  0  0  0
  9 12  1  0  0  0  0
 11  6  1  0  0  0  0
 13  9  1  0  0  0  0
 14  9  1  0  0  0  0
M  END
$$$$
