14
butane_opt
C  -3.958267   0.226629  -0.100944
C  -2.693844  -0.576999   0.198760
H  -4.901929  -0.403330  -0.271079
H  -3.773945   0.826019  -0.965490
H  -4.245179   0.911498   0.805493
C  -1.391625   0.241002   0.082805
H  -2.703331  -1.214621  -0.605840
H  -2.794242  -1.442239   1.200383
C  -0.137469  -0.701146  -0.092157
H  -1.405329   1.091672   1.114695
H  -1.448823   0.637386  -0.650234
H   0.009063  -1.349313   0.758560
H   0.571324  -0.319415  -0.022352
H  -0.124213  -1.497908  -0.995595
