14
butane_opt
C  -3.941750   0.275179  -0.024459
C  -2.673444  -0.612502   0.056016
H  -4.836092  -0.304059   0.327932
H  -4.041284   1.338373  -1.341663
H  -3.935683   0.591947   0.565204
C  -1.402502   0.122744   0.098388
H  -2.690455  -1.162896  -0.642682
H  -2.605909  -1.310374   1.029297
C  -0.192258  -0.669638  -0.035054
H  -1.189580   1.099568   1.146005
H  -1.333027   0.583484  -0.639531
H  -0.369264  -1.169252   0.809542
H   0.759396  -0.019726  -0.010735
H  -0.243768  -1.509029  -1.020288
