butane_opt
 OpenBabel08242015393D

 14 13  0  0  0  0  0  0  0  0999 V2000
   -3.9525    0.2852   -0.0156 C   0  0  0  0  0  0  0  0  0  0  0  0
   -2.6522   -0.6366    0.0396 C   0  0  0  0  0  0  0  0  0  0  0  0
   -4.7372   -0.2308    0.0895 H   0  0  0  0  0  0  0  0  0  0  0  0
   -3.9777    1.0609   -0.9586 H   0  0  0  0  0  0  0  0  0  0  0  0
   -3.9120    0.8986    0.8374 H   0  0  0  0  0  0  0  0  0  0  0  0
   -1.3931    0.1142    0.0591 C   0  0  0  0  0  0  0  0  0  0  0  0
   -2.8285   -1.2528   -0.7588 H   0  0  0  0  0  0  0  0  0  0  0  0
   -2.6619   -1.1860    0.8904 H   0  0  0  0  0  0  0  0  0  0  0  0
   -0.2010   -0.6685   -0.0007 C   0  0  0  0  0  0  0  0  0  0  0  0
   -1.3681    1.0017    0.9699 H   0  0  0  0  0  0  0  0  0  0  0  0
   -1.3794    0.6183   -0.7201 H   0  0  0  0  0  0  0  0  0  0  0  0
   -0.1306   -1.4519    1.0056 H   0  0  0  0  0  0  0  0  0  0  0  0
    0.8046    0.0837   -0.1752 H   0  0  0  0  0  0  0  0  0  0  0  0
   -0.4659   -1.1230   -0.7281 H   0  0  0  0  0  0  0  0  0  0  0  0
  1  2  1  0  0  0  0
  1  3  1  0  0  0  0
  1  5  1  0  0  0  0
  2  6  1  0  0  0  0
  2  8  1  0  0  0  0
  4  1  1  0  0  0  0
  6 10  1  0  0  0  0
  7  2  1  0  0  0  0
  9  6  1  0  0  0  0
  9 12  1  0  0  0  0
 11  6  1  0  0  0  0
 13  9  1  0  0  0  0
 14  9  1  0  0  0  0
M  END
$$$$
