14
butane_opt
C  -3.973834   0.231930   0.116683
C  -2.705045  -0.580114  -0.068622
H  -4.837468  -0.310615   0.220829
H  -4.174439   0.990101  -0.868925
H  -3.919886   0.812897   0.930736
C  -1.412314   0.198156  -0.063648
H  -2.847170  -1.349911  -1.076430
H  -2.643644  -1.184575   0.780207
C  -0.122756  -0.710809   0.091608
H  -1.514389   0.925247   0.839541
H  -1.262936   0.800363  -0.928889
H  -0.187935  -1.537139   1.162688
H   0.868362   0.016283   0.070164
H   0.063908  -1.287652  -0.617446
