14
butane_opt
C  -3.955532   0.250704   0.111715
C  -2.715582  -0.621472  -0.134210
H  -4.860902  -0.373539   0.458685
H  -4.165662   0.908322  -0.758949
H  -3.830891   0.880314   0.998837
C  -1.421697   0.216045  -0.072182
H  -2.796236  -1.183009  -0.914108
H  -2.637225  -1.215554   0.806892
C  -0.146036  -0.693344   0.139252
H  -1.319703   0.852888   0.779121
H  -1.256510   0.881770  -0.991330
H  -0.062684  -1.484254   1.074453
H   0.707362  -0.172707   0.125189
H   0.067485  -1.396792  -0.662060
