14
butane_opt
C  -3.950677   0.310650   0.050211
C  -2.706305  -0.629152  -0.028981
H  -4.850722  -0.229083   0.360490
H  -4.094293   1.071591  -0.950837
H  -3.815723   0.731048   0.705463
C  -1.380634   0.101571  -0.000861
H  -2.749316  -1.291255  -0.953314
H  -2.432778  -1.335949   0.905750
C  -0.214678  -0.650596   0.046940
H  -1.364736   0.918320   0.962775
H  -1.251978   0.630516  -0.781739
H  -0.123605  -1.348890   1.011663
H   0.807591   0.022420   0.137188
H  -0.157732  -1.208168  -0.784164
