butane_opt
 OpenBabel08242015393D

 14 13  0  0  0  0  0  0  0  0999 V2000
   -3.8928    0.2420    0.0567 C   0  0  0  0  0  0  0  0  0  0  0  0
   -2.7347   -0.5879    0.0294 C   0  0  0  0  0  0  0  0  0  0  0  0
   -4.8637   -0.4490    0.0182 H   0  0  0  0  0  0  0  0  0  0  0  0
   -3.9526    0.9135   -0.8801 H   0  0  0  0  0  0  0  0  0  0  0  0
   -3.7735    0.8555    0.9038 H   0  0  0  0  0  0  0  0  0  0  0  0
   -1.4462    0.2100   -0.0389 C   0  0  0  0  0  0  0  0  0  0  0  0
   -2.7146   -1.1566   -0.8337 H   0  0  0  0  0  0  0  0  0  0  0  0
   -2.6831   -1.1636    0.8843 H   0  0  0  0  0  0  0  0  0  0  0  0
   -0.1349   -0.7263    0.0539 C   0  0  0  0  0  0  0  0  0  0  0  0
   -1.3541    0.7491    0.7221 H   0  0  0  0  0  0  0  0  0  0  0  0
   -1.5417    0.9637   -0.9875 H   0  0  0  0  0  0  0  0  0  0  0  0
   -0.3643   -1.1164    0.9403 H   0  0  0  0  0  0  0  0  0  0  0  0
    0.7899   -0.0987    0.4075 H   0  0  0  0  0  0  0  0  0  0  0  0
   -0.0439   -1.6570   -0.9711 H   0  0  0  0  0  0  0  0  0  0  0  0
  1  5  1  0  0  0  0
  2  1  1  0  0  0  0
  2  8  1  0  0  0  0
  3  1  1  0  0  0  0
  4  1  1  0  0  0  0
  6  2  1  0  0  0  0
  6  9  1  0  0  0  0
  6 10  1  0  0  0  0
  7  2  1  0  0  0  0
  9 13  1  0  0  0  0
  9 12  1  0  0  0  0
 11  6  1  0  0  0  0
 14  9  1  0  0  0  0
M  END
$$$$
