butane_opt
 OpenBabel08242015393D

 14 13  0  0  0  0  0  0  0  0999 V2000
   -3.8872    0.2224   -0.1051 C   0  0  0  0  0  0  0  0  0  0  0  0
   -2.7204   -0.5776    0.2105 C   0  0  0  0  0  0  0  0  0  0  0  0
   -4.9055   -0.4206   -0.3562 H   0  0  0  0  0  0  0  0  0  0  0  0
   -3.5023    0.7658   -0.9954 H   0  0  0  0  0  0  0  0  0  0  0  0
   -4.1979    1.0576    0.8071 H   0  0  0  0  0  0  0  0  0  0  0  0
   -1.4586    0.2303    0.1090 C   0  0  0  0  0  0  0  0  0  0  0  0
   -2.7093   -1.2259   -0.6025 H   0  0  0  0  0  0  0  0  0  0  0  0
   -2.6550   -1.2138    1.1842 H   0  0  0  0  0  0  0  0  0  0  0  0
   -0.1583   -0.7357   -0.0839 C   0  0  0  0  0  0  0  0  0  0  0  0
   -1.4456    0.8535    0.9684 H   0  0  0  0  0  0  0  0  0  0  0  0
   -1.5711    0.7879   -0.7154 H   0  0  0  0  0  0  0  0  0  0  0  0
    0.0862   -1.2103    0.6550 H   0  0  0  0  0  0  0  0  0  0  0  0
    0.8168   -0.0504   -0.1370 H   0  0  0  0  0  0  0  0  0  0  0  0
   -0.2398   -1.4920   -0.9376 H   0  0  0  0  0  0  0  0  0  0  0  0
  1  2  1  0  0  0  0
  1  5  1  0  0  0  0
  2  8  1  0  0  0  0
  3  1  1  0  0  0  0
  4  1  1  0  0  0  0
  6  2  1  0  0  0  0
  6 10  1  0  0  0  0
  7  2  1  0  0  0  0
  9  6  1  0  0  0  0
  9 12  1  0  0  0  0
 11  6  1  0  0  0  0
 13  9  1  0  0  0  0
 14  9  1  0  0  0  0
M  END
$$$$
