14
butane_opt
C  -3.957699   0.297598  -0.036625
C  -2.723559  -0.641490   0.124459
H  -4.837526  -0.202927   0.010797
H  -4.036371   1.020436  -0.989337
H  -4.153225   0.854804   0.668281
C  -1.389456   0.132443   0.063213
H  -2.779518  -1.262768  -0.724947
H  -2.741976  -1.372036   1.080354
C  -0.131028  -0.658981  -0.038248
H  -1.200558   0.826125   0.911059
H  -1.391449   0.825500  -0.823788
H  -0.341319  -1.049974   0.779794
H   0.863464  -0.018314   0.245822
H   0.001284  -1.653399  -1.118632
