butane_opt
 OpenBabel08242015393D

 14 13  0  0  0  0  0  0  0  0999 V2000
   -3.9375    0.2730    0.0558 C   0  0  0  0  0  0  0  0  0  0  0  0
   -2.6905   -0.6327   -0.0334 C   0  0  0  0  0  0  0  0  0  0  0  0
   -4.8052   -0.2916    0.5083 H   0  0  0  0  0  0  0  0  0  0  0  0
   -4.2503    1.2128   -0.9496 H   0  0  0  0  0  0  0  0  0  0  0  0
   -3.7793    0.7218    0.7671 H   0  0  0  0  0  0  0  0  0  0  0  0
   -1.3722    0.1617   -0.0394 C   0  0  0  0  0  0  0  0  0  0  0  0
   -2.6741   -1.4522   -0.9392 H   0  0  0  0  0  0  0  0  0  0  0  0
   -2.6260   -1.1621    0.8218 H   0  0  0  0  0  0  0  0  0  0  0  0
   -0.2045   -0.6781    0.0698 C   0  0  0  0  0  0  0  0  0  0  0  0
   -1.1868    1.0108    0.8990 H   0  0  0  0  0  0  0  0  0  0  0  0
   -1.4147    0.7635   -0.8453 H   0  0  0  0  0  0  0  0  0  0  0  0
   -0.2911   -1.2656    0.9592 H   0  0  0  0  0  0  0  0  0  0  0  0
    0.6493   -0.2033    0.2767 H   0  0  0  0  0  0  0  0  0  0  0  0
   -0.1594   -1.3003   -0.6964 H   0  0  0  0  0  0  0  0  0  0  0  0
  1  3  1  0  0  0  0
  1  5  1  0  0  0  0
  2  1  1  0  0  0  0
  2  8  1  0  0  0  0
  4  1  1  0  0  0  0
  6  2  1  0  0  0  0
  6  9  1  0  0  0  0
  6 10  1  0  0  0  0
  7  2  1  0  0  0  0
  9 13  1  0  0  0  0
  9 12  1  0  0  0  0
 11  6  1  0  0  0  0
 14  9  1  0  0  0  0
M  END
$$$$
