butane_opt
 OpenBabel08242015393D

 14 13  0  0  0  0  0  0  0  0999 V2000
   -3.9135    0.2440    0.1433 C   0  0  0  0  0  0  0  0  0  0  0  0
   -2.7342   -0.5466   -0.0993 C   0  0  0  0  0  0  0  0  0  0  0  0
   -4.8764   -0.4914    0.2940 H   0  0  0  0  0  0  0  0  0  0  0  0
   -4.1022    0.8983   -0.7817 H   0  0  0  0  0  0  0  0  0  0  0  0
   -3.8327    0.7576    0.9096 H   0  0  0  0  0  0  0  0  0  0  0  0
   -1.4082    0.1764   -0.0923 C   0  0  0  0  0  0  0  0  0  0  0  0
   -2.8620   -1.3411   -1.0064 H   0  0  0  0  0  0  0  0  0  0  0  0
   -2.6643   -1.1113    0.6708 H   0  0  0  0  0  0  0  0  0  0  0  0
   -0.1370   -0.7249    0.1255 C   0  0  0  0  0  0  0  0  0  0  0  0
   -1.4819    1.0165    0.8087 H   0  0  0  0  0  0  0  0  0  0  0  0
   -1.3753    0.8739   -1.1013 H   0  0  0  0  0  0  0  0  0  0  0  0
   -0.2308   -1.5108    1.1121 H   0  0  0  0  0  0  0  0  0  0  0  0
    0.7243   -0.1440    0.2130 H   0  0  0  0  0  0  0  0  0  0  0  0
    0.0098   -1.2193   -0.5887 H   0  0  0  0  0  0  0  0  0  0  0  0
  1  3  1  0  0  0  0
  1  5  1  0  0  0  0
  2  6  1  0  0  0  0
  2  1  1  0  0  0  0
  2  8  1  0  0  0  0
  4  1  1  0  0  0  0
  6  9  1  0  0  0  0
  6 10  1  0  0  0  0
  7  2  1  0  0  0  0
  9 13  1  0  0  0  0
  9 12  1  0  0  0  0
 11  6  1  0  0  0  0
 14  9  1  0  0  0  0
M  END
$$$$
