butane_opt
 OpenBabel08242015393D

 14 12  0  0  0  0  0  0  0  0999 V2000
   -3.9125    0.2588   -0.0448 C   0  0  0  0  0  0  0  0  0  0  0  0
   -2.6814   -0.6347    0.1649 C   0  0  0  0  0  0  0  0  0  0  0  0
   -4.7257   -0.1589   -0.0979 H   0  0  0  0  0  0  0  0  0  0  0  0
   -3.7422    1.0706   -1.1679 H   0  0  0  0  0  0  0  0  0  0  0  0
   -4.1591    0.7890    0.6686 H   0  0  0  0  0  0  0  0  0  0  0  0
   -1.4096    0.1723    0.0707 C   0  0  0  0  0  0  0  0  0  0  0  0
   -2.6742   -1.1762   -0.6283 H   0  0  0  0  0  0  0  0  0  0  0  0
   -2.6318   -1.3513    1.0652 H   0  0  0  0  0  0  0  0  0  0  0  0
   -0.2041   -0.6929   -0.0512 C   0  0  0  0  0  0  0  0  0  0  0  0
   -1.3268    0.8103    0.9374 H   0  0  0  0  0  0  0  0  0  0  0  0
   -1.5772    0.7783   -0.8186 H   0  0  0  0  0  0  0  0  0  0  0  0
   -0.1884   -0.8224    0.5305 H   0  0  0  0  0  0  0  0  0  0  0  0
    0.7290   -0.0380    0.3788 H   0  0  0  0  0  0  0  0  0  0  0  0
   -0.2431   -1.6052   -1.1365 H   0  0  0  0  0  0  0  0  0  0  0  0
  1  2  1  0  0  0  0
  1  5  1  0  0  0  0
  2  8  1  0  0  0  0
  3  1  1  0  0  0  0
  4  1  1  0  0  0  0
  6  2  1  0  0  0  0
  6 10  1  0  0  0  0
  7  2  1  0  0  0  0
  9  6  1  0  0  0  0
  9 13  1  0  0  0  0
 11  6  1  0  0  0  0
 14  9  1  0  0  0  0
M  RAD  2   9   2  12   2
M  END
$$$$
