butane_opt
 OpenBabel08242015393D

 14 12  0  0  0  0  0  0  0  0999 V2000
   -3.9567    0.2923    0.0997 C   0  0  0  0  0  0  0  0  0  0  0  0
   -2.6687   -0.6466   -0.0093 C   0  0  0  0  0  0  0  0  0  0  0  0
   -4.7381   -0.1388   -0.2862 H   0  0  0  0  0  0  0  0  0  0  0  0
   -3.8760    0.5124   -0.6107 H   0  0  0  0  0  0  0  0  0  0  0  0
   -4.0936    1.3304    1.2505 H   0  0  0  0  0  0  0  0  0  0  0  0
   -1.3879    0.1326   -0.1334 C   0  0  0  0  0  0  0  0  0  0  0  0
   -2.7694   -1.3721   -0.9004 H   0  0  0  0  0  0  0  0  0  0  0  0
   -2.6090   -1.3012    0.8968 H   0  0  0  0  0  0  0  0  0  0  0  0
   -0.2073   -0.6614    0.1211 C   0  0  0  0  0  0  0  0  0  0  0  0
   -1.4561    0.8784    0.7698 H   0  0  0  0  0  0  0  0  0  0  0  0
   -1.1996    0.8412   -1.0086 H   0  0  0  0  0  0  0  0  0  0  0  0
   -0.3441   -1.4207    1.1063 H   0  0  0  0  0  0  0  0  0  0  0  0
    0.8200    0.0060   -0.0839 H   0  0  0  0  0  0  0  0  0  0  0  0
   -0.1319   -1.1881   -0.6027 H   0  0  0  0  0  0  0  0  0  0  0  0
  2  1  1  0  0  0  0
  2  8  1  0  0  0  0
  3  1  1  0  0  0  0
  4  1  1  0  0  0  0
  6  2  1  0  0  0  0
  6  9  1  0  0  0  0
  6 10  1  0  0  0  0
  7  2  1  0  0  0  0
  9 12  1  0  0  0  0
 11  6  1  0  0  0  0
 13  9  1  0  0  0  0
 14  9  1  0  0  0  0
M  RAD  2   1   2   5   2
M  END
$$$$
