butane_opt
 OpenBabel08242015393D

 14 12  0  0  0  0  0  0  0  0999 V2000
   -3.9661    0.3025    0.0423 C   0  0  0  0  0  0  0  0  0  0  0  0
   -2.7048   -0.6696    0.0444 C   0  0  0  0  0  0  0  0  0  0  0  0
   -4.8676   -0.2472   -0.3760 H   0  0  0  0  0  0  0  0  0  0  0  0
   -4.1064    0.5289   -0.5947 H   0  0  0  0  0  0  0  0  0  0  0  0
   -4.1165    1.3883    1.2234 H   0  0  0  0  0  0  0  0  0  0  0  0
   -1.3589    0.1932   -0.0531 C   0  0  0  0  0  0  0  0  0  0  0  0
   -2.6170   -1.4353   -0.8587 H   0  0  0  0  0  0  0  0  0  0  0  0
   -2.7188   -1.3973    0.8938 H   0  0  0  0  0  0  0  0  0  0  0  0
   -0.1756   -0.6772    0.0720 C   0  0  0  0  0  0  0  0  0  0  0  0
   -1.3979    0.7550    0.7044 H   0  0  0  0  0  0  0  0  0  0  0  0
   -1.2312    0.8440   -1.0123 H   0  0  0  0  0  0  0  0  0  0  0  0
   -0.1417   -1.4985    1.1003 H   0  0  0  0  0  0  0  0  0  0  0  0
    0.7462    0.0051   -0.1260 H   0  0  0  0  0  0  0  0  0  0  0  0
   -0.1142   -1.1880   -0.7320 H   0  0  0  0  0  0  0  0  0  0  0  0
  1  2  1  0  0  0  0
  2  8  1  0  0  0  0
  3  1  1  0  0  0  0
  4  1  1  0  0  0  0
  6  2  1  0  0  0  0
  6  9  1  0  0  0  0
  6 10  1  0  0  0  0
  7  2  1  0  0  0  0
  9 12  1  0  0  0  0
 11  6  1  0  0  0  0
 13  9  1  0  0  0  0
 14  9  1  0  0  0  0
M  RAD  2   1   2   5   2
M  END
$$$$
