14
butane_opt
C  -3.982202   0.218412  -0.065309
C  -2.737277  -0.562083   0.075060
H  -4.961081  -0.391756   0.462430
H  -4.131733   1.217086  -1.168799
H  -3.587765   0.595834   0.630828
C  -1.388907   0.240276   0.100736
H  -2.727349  -1.213978  -0.723022
H  -2.803652  -1.293382   1.019046
C  -0.117575  -0.755064  -0.030297
H  -1.300320   1.056955   1.074116
H  -1.372569   0.780671  -0.754823
H  -0.102077  -1.072707   0.762022
H   0.748314  -0.270547   0.067550
H  -0.049080  -1.587739  -0.965352
