14
butane_opt
C  -3.946528   0.268212   0.031358
C  -2.701690  -0.620902   0.025602
H  -4.822026  -0.307800   0.085537
H  -4.052181   0.903588  -0.849933
H  -3.982738   0.914856   0.895912
C  -1.407922   0.184380  -0.008080
H  -2.770923  -1.325247  -0.851090
H  -2.688809  -1.292222   0.921999
C  -0.150879  -0.689975   0.047765
H  -1.389054   0.805435   0.799892
H  -1.346432   0.875848  -0.936702
H  -0.145289  -1.222766   0.881179
H   0.747847  -0.094913   0.166317
H  -0.089180  -1.424496  -0.842168
