butane_opt
 OpenBabel08242015393D

 14 12  0  0  0  0  0  0  0  0999 V2000
   -3.9853    0.2972   -0.0433 C   0  0  0  0  0  0  0  0  0  0  0  0
   -2.6986   -0.6521    0.0743 C   0  0  0  0  0  0  0  0  0  0  0  0
   -4.8801   -0.3647    0.3844 H   0  0  0  0  0  0  0  0  0  0  0  0
   -4.0933    1.3679   -1.2561 H   0  0  0  0  0  0  0  0  0  0  0  0
   -3.9301    0.5946    0.5851 H   0  0  0  0  0  0  0  0  0  0  0  0
   -1.3815    0.1456    0.1234 C   0  0  0  0  0  0  0  0  0  0  0  0
   -2.6183   -1.4034   -0.7736 H   0  0  0  0  0  0  0  0  0  0  0  0
   -2.6954   -1.3014    0.9195 H   0  0  0  0  0  0  0  0  0  0  0  0
   -0.1298   -0.6608   -0.0542 C   0  0  0  0  0  0  0  0  0  0  0  0
   -1.2317    1.0038    1.0779 H   0  0  0  0  0  0  0  0  0  0  0  0
   -1.5829    0.7655   -0.7534 H   0  0  0  0  0  0  0  0  0  0  0  0
   -0.1424   -1.1686    0.8775 H   0  0  0  0  0  0  0  0  0  0  0  0
    0.7771   -0.1114    0.1101 H   0  0  0  0  0  0  0  0  0  0  0  0
   -0.2861   -1.3993   -0.9587 H   0  0  0  0  0  0  0  0  0  0  0  0
  1  2  1  0  0  0  0
  1  3  1  0  0  0  0
  1  5  1  0  0  0  0
  2  6  1  0  0  0  0
  2  8  1  0  0  0  0
  6 10  1  0  0  0  0
  7  2  1  0  0  0  0
  9 13  1  0  0  0  0
  9  6  1  0  0  0  0
  9 12  1  0  0  0  0
 11  6  1  0  0  0  0
 14  9  1  0  0  0  0
M  RAD  2   1   2   4   2
M  END
$$$$
