butane_opt
 OpenBabel08242015393D

 14 12  0  0  0  0  0  0  0  0999 V2000
   -3.9656    0.2831   -0.0411 C   0  0  0  0  0  0  0  0  0  0  0  0
   -2.7122   -0.6057    0.1602 C   0  0  0  0  0  0  0  0  0  0  0  0
   -4.8255   -0.3074   -0.1461 H   0  0  0  0  0  0  0  0  0  0  0  0
   -3.9161    1.0074   -1.0558 H   0  0  0  0  0  0  0  0  0  0  0  0
   -4.2249    0.7796    0.6927 H   0  0  0  0  0  0  0  0  0  0  0  0
   -1.3641    0.1557    0.0417 C   0  0  0  0  0  0  0  0  0  0  0  0
   -2.8246   -1.1901   -0.6284 H   0  0  0  0  0  0  0  0  0  0  0  0
   -2.7759   -1.3622    1.0600 H   0  0  0  0  0  0  0  0  0  0  0  0
   -0.1448   -0.6864   -0.0389 C   0  0  0  0  0  0  0  0  0  0  0  0
   -1.2471    0.8561    0.9197 H   0  0  0  0  0  0  0  0  0  0  0  0
   -1.5612    0.7183   -0.7625 H   0  0  0  0  0  0  0  0  0  0  0  0
   -0.1982   -0.9619    0.7029 H   0  0  0  0  0  0  0  0  0  0  0  0
    0.8781   -0.0096    0.3042 H   0  0  0  0  0  0  0  0  0  0  0  0
   -0.1011   -1.7495   -1.1558 H   0  0  0  0  0  0  0  0  0  0  0  0
  1  2  1  0  0  0  0
  1  5  1  0  0  0  0
  2  8  1  0  0  0  0
  3  1  1  0  0  0  0
  4  1  1  0  0  0  0
  6  2  1  0  0  0  0
  6 10  1  0  0  0  0
  7  2  1  0  0  0  0
  9  6  1  0  0  0  0
  9 13  1  0  0  0  0
  9 12  1  0  0  0  0
 11  6  1  0  0  0  0
M  RAD  2   9   2  14   2
M  END
$$$$
