14
butane_opt
C  -3.980759   0.298960  -0.057739
C  -2.672066  -0.692329   0.146704
H  -4.820973  -0.224002  -0.177641
H  -3.952224   1.025903  -1.050091
H  -4.202904   0.979432   0.778785
C  -1.364355   0.171679   0.101209
H  -2.523673  -1.346751  -0.697530
H  -2.886019  -1.344581   1.119831
C  -0.188400  -0.663444  -0.065868
H  -1.353911   0.817225   1.016401
H  -1.468494   0.872921  -0.820345
H  -0.025130  -1.160964   0.758444
H   0.885233  -0.012239   0.038041
H  -0.234852  -1.430233  -1.018875
