butane_opt
 OpenBabel08242015393D

 14 13  0  0  0  0  0  0  0  0999 V2000
   -3.9931    0.2136   -0.0742 C   0  0  0  0  0  0  0  0  0  0  0  0
   -2.7307   -0.5743    0.1524 C   0  0  0  0  0  0  0  0  0  0  0  0
   -4.9437   -0.4153    0.0947 H   0  0  0  0  0  0  0  0  0  0  0  0
   -3.8817    1.0163   -1.1219 H   0  0  0  0  0  0  0  0  0  0  0  0
   -3.9033    0.8843    0.7712 H   0  0  0  0  0  0  0  0  0  0  0  0
   -1.4031    0.2413    0.0444 C   0  0  0  0  0  0  0  0  0  0  0  0
   -2.6878   -1.1967   -0.5262 H   0  0  0  0  0  0  0  0  0  0  0  0
   -2.6891   -1.3892    1.1639 H   0  0  0  0  0  0  0  0  0  0  0  0
   -0.0986   -0.7418   -0.0690 C   0  0  0  0  0  0  0  0  0  0  0  0
   -1.2954    1.0572    1.0389 H   0  0  0  0  0  0  0  0  0  0  0  0
   -1.5139    0.7661   -0.7358 H   0  0  0  0  0  0  0  0  0  0  0  0
   -0.1736   -1.0424    0.6664 H   0  0  0  0  0  0  0  0  0  0  0  0
    0.7042   -0.1346    0.4527 H   0  0  0  0  0  0  0  0  0  0  0  0
    0.0865   -1.7000   -1.0481 H   0  0  0  0  0  0  0  0  0  0  0  0
  1  3  1  0  0  0  0
  1  2  1  0  0  0  0
  1  5  1  0  0  0  0
  2  8  1  0  0  0  0
  4  1  1  0  0  0  0
  6  2  1  0  0  0  0
  6 10  1  0  0  0  0
  7  2  1  0  0  0  0
  9  6  1  0  0  0  0
  9 13  1  0  0  0  0
  9 12  1  0  0  0  0
 11  6  1  0  0  0  0
 14  9  1  0  0  0  0
M  END
$$$$
