14
butane_opt
C  -3.958660   0.284322  -0.022522
C  -2.721453  -0.670212   0.138816
H  -4.770228  -0.197779  -0.116502
H  -3.983869   0.894397  -0.925447
H  -4.147650   0.945393   0.810852
C  -1.405631   0.172601   0.005487
H  -2.657115  -1.378653  -0.683362
H  -2.603240  -1.293084   1.035306
C  -0.132109  -0.676150  -0.010414
H  -1.263623   0.906792   0.842223
H  -1.469451   0.917367  -0.935083
H  -0.227453  -0.985239   0.726569
H   0.752800  -0.100043   0.420130
H  -0.042948  -1.526139  -1.086293
