14
butane_opt
C  -3.955454   0.297444   0.076753
C  -2.662181  -0.641010  -0.003096
H  -4.937289  -0.258094  -0.377290
H  -3.915792   0.412721  -0.490817
H  -4.062835   1.433680   1.273364
C  -1.404517   0.114410  -0.105421
H  -2.575591  -1.272583  -0.810625
H  -2.733118  -1.318385   0.932608
C  -0.176883  -0.626430   0.104380
H  -1.395114   0.737757   0.691984
H  -1.311791   0.852655  -0.989258
H  -0.161241  -1.577038   1.174631
H   0.702301  -0.041495  -0.015207
H  -0.256746  -1.195130  -0.737330
