14
butane_opt
C  -3.888832   0.240372   0.060448
C  -2.706266  -0.580470   0.007612
H  -4.884662  -0.525991   0.223265
H  -3.978767   0.817792  -0.818357
H  -3.707057   0.992580   1.069787
C  -1.409005   0.222080  -0.085512
H  -2.762243  -1.239959  -0.928176
H  -2.783794  -1.238835   0.909221
C  -0.187057  -0.729799   0.108581
H  -1.436270   0.774022   0.650638
H  -1.498989   1.081570  -1.121209
H  -0.285026  -1.090899   0.836647
H   0.653741  -0.252317   0.546779
H  -0.015788  -1.652754  -1.009961
