14
butane_opt
C  -3.900636   0.294082  -0.075882
C  -2.700081  -0.635515   0.096933
H  -4.825340  -0.400150   0.043938
H  -4.020670   1.019799  -1.089109
H  -3.978134   0.890100   0.702472
C  -1.409951   0.129365   0.138442
H  -2.512021  -1.288255  -0.660508
H  -2.688160  -1.281702   1.043722
C  -0.216352  -0.660369  -0.050635
H  -1.395477   1.085932   1.128878
H  -1.273344   0.709301  -0.679045
H   0.178861  -1.485419   0.910487
H   0.728252  -0.022361  -0.382400
H  -0.516655  -1.228602  -0.884909
