14
butane_opt
C  -3.936395   0.245152  -0.071271
C  -2.768727  -0.580705   0.156981
H  -4.819442  -0.389574   0.053332
H  -3.794713   1.023341  -1.012637
H  -4.012565   0.659699   0.599126
C  -1.418766   0.231412   0.063736
H  -2.805658  -1.243110  -0.675733
H  -2.661177  -1.348920   1.150060
C  -0.093593  -0.727194  -0.046179
H  -1.326539   0.980369   1.071705
H  -1.496157   0.832846  -0.785973
H  -0.186403  -1.043554   0.648551
H   0.803392  -0.202519   0.260017
H  -0.108508  -1.774565  -1.172273
