14
butane_opt
C  -3.953269   0.293983   0.011320
C  -2.669182  -0.689036  -0.002988
H  -4.777645  -0.183725   0.504960
H  -4.100592   1.211184  -1.025466
H  -3.927248   0.712675   0.691458
C  -1.389373   0.146145   0.059897
H  -2.675521  -1.442196  -0.885676
H  -2.562163  -1.035988   0.783086
C  -0.190410  -0.657068   0.023069
H  -1.334021   0.840802   0.944237
H  -1.557583   0.823089  -0.865042
H  -0.266198  -1.321939   0.947469
H   0.784149   0.026150   0.029163
H  -0.202000  -1.214488  -0.783112
