butane_opt
 OpenBabel08242015393D

 14 12  0  0  0  0  0  0  0  0999 V2000
   -3.9216    0.2838    0.0992 C   0  0  0  0  0  0  0  0  0  0  0  0
   -2.6890   -0.6625   -0.0598 C   0  0  0  0  0  0  0  0  0  0  0  0
   -4.7152   -0.1413    0.0577 H   0  0  0  0  0  0  0  0  0  0  0  0
   -3.9410    0.7611   -0.6598 H   0  0  0  0  0  0  0  0  0  0  0  0
   -3.9182    1.0491    1.0215 H   0  0  0  0  0  0  0  0  0  0  0  0
   -1.4308    0.1775   -0.0653 C   0  0  0  0  0  0  0  0  0  0  0  0
   -2.7795   -1.4791   -1.0527 H   0  0  0  0  0  0  0  0  0  0  0  0
   -2.4977   -1.1944    0.6471 H   0  0  0  0  0  0  0  0  0  0  0  0
   -0.1868   -0.6680    0.1105 C   0  0  0  0  0  0  0  0  0  0  0  0
   -1.5357    0.9171    0.8007 H   0  0  0  0  0  0  0  0  0  0  0  0
   -1.3269    0.7013   -0.8794 H   0  0  0  0  0  0  0  0  0  0  0  0
   -0.0971   -1.7048    1.3168 H   0  0  0  0  0  0  0  0  0  0  0  0
    0.8232   -0.0549   -0.2633 H   0  0  0  0  0  0  0  0  0  0  0  0
   -0.3338   -0.8572   -0.5065 H   0  0  0  0  0  0  0  0  0  0  0  0
  1  5  1  0  0  0  0
  2  1  1  0  0  0  0
  2  8  1  0  0  0  0
  3  1  1  0  0  0  0
  4  1  1  0  0  0  0
  6  2  1  0  0  0  0
  6  9  1  0  0  0  0
  6 10  1  0  0  0  0
  7  2  1  0  0  0  0
 11  6  1  0  0  0  0
 13  9  1  0  0  0  0
 14  9  1  0  0  0  0
M  RAD  2   9   2  12   2
M  END
$$$$
