butane_opt
 OpenBabel08242015393D

 14 11  0  0  0  0  0  0  0  0999 V2000
   -3.9555    0.2974    0.0768 C   0  0  0  0  0  0  0  0  0  0  0  0
   -2.6622   -0.6410   -0.0031 C   0  0  0  0  0  0  0  0  0  0  0  0
   -4.9373   -0.2581   -0.3773 H   0  0  0  0  0  0  0  0  0  0  0  0
   -3.9158    0.4127   -0.4908 H   0  0  0  0  0  0  0  0  0  0  0  0
   -4.0628    1.4337    1.2734 H   0  0  0  0  0  0  0  0  0  0  0  0
   -1.4045    0.1144   -0.1054 C   0  0  0  0  0  0  0  0  0  0  0  0
   -2.5756   -1.2726   -0.8106 H   0  0  0  0  0  0  0  0  0  0  0  0
   -2.7331   -1.3184    0.9326 H   0  0  0  0  0  0  0  0  0  0  0  0
   -0.1769   -0.6264    0.1044 C   0  0  0  0  0  0  0  0  0  0  0  0
   -1.3951    0.7378    0.6920 H   0  0  0  0  0  0  0  0  0  0  0  0
   -1.3118    0.8527   -0.9893 H   0  0  0  0  0  0  0  0  0  0  0  0
   -0.1612   -1.5770    1.1746 H   0  0  0  0  0  0  0  0  0  0  0  0
    0.7023   -0.0415   -0.0152 H   0  0  0  0  0  0  0  0  0  0  0  0
   -0.2567   -1.1951   -0.7373 H   0  0  0  0  0  0  0  0  0  0  0  0
  2  1  1  0  0  0  0
  2  8  1  0  0  0  0
  3  1  1  0  0  0  0
  6  2  1  0  0  0  0
  6  9  1  0  0  0  0
  6 10  1  0  0  0  0
  7  2  1  0  0  0  0
  9 12  1  0  0  0  0
 11  6  1  0  0  0  0
 13  9  1  0  0  0  0
 14  9  1  0  0  0  0
M  RAD  3   1   3   4   2   5   2
M  END
$$$$
