butane_opt
 OpenBabel08242015393D

 14 13  0  0  0  0  0  0  0  0999 V2000
   -3.9793    0.2814   -0.0384 C   0  0  0  0  0  0  0  0  0  0  0  0
   -2.6924   -0.6774    0.1176 C   0  0  0  0  0  0  0  0  0  0  0  0
   -4.7947   -0.1716    0.0612 H   0  0  0  0  0  0  0  0  0  0  0  0
   -4.0507    1.0230   -1.0184 H   0  0  0  0  0  0  0  0  0  0  0  0
   -4.1017    0.8946    0.8344 H   0  0  0  0  0  0  0  0  0  0  0  0
   -1.3664    0.1912    0.0375 C   0  0  0  0  0  0  0  0  0  0  0  0
   -2.7181   -1.3611   -0.7219 H   0  0  0  0  0  0  0  0  0  0  0  0
   -2.7441   -1.3398    1.1226 H   0  0  0  0  0  0  0  0  0  0  0  0
   -0.1389   -0.6707   -0.0093 C   0  0  0  0  0  0  0  0  0  0  0  0
   -1.5517    0.8269    0.8768 H   0  0  0  0  0  0  0  0  0  0  0  0
   -1.3289    0.9007   -0.9431 H   0  0  0  0  0  0  0  0  0  0  0  0
   -0.1076   -0.9599    0.6202 H   0  0  0  0  0  0  0  0  0  0  0  0
    0.7673   -0.1254    0.3453 H   0  0  0  0  0  0  0  0  0  0  0  0
   -0.2668   -1.6426   -1.0662 H   0  0  0  0  0  0  0  0  0  0  0  0
  1  3  1  0  0  0  0
  1  2  1  0  0  0  0
  1  5  1  0  0  0  0
  2  8  1  0  0  0  0
  4  1  1  0  0  0  0
  6  2  1  0  0  0  0
  6 10  1  0  0  0  0
  7  2  1  0  0  0  0
  9  6  1  0  0  0  0
  9 13  1  0  0  0  0
  9 12  1  0  0  0  0
 11  6  1  0  0  0  0
 14  9  1  0  0  0  0
M  END
$$$$
