14
butane_opt
C  -3.918086   0.296269  -0.029022
C  -2.693702  -0.665558   0.086955
H  -4.814865  -0.232770  -0.248785
H  -3.794618   0.894973  -0.988143
H  -4.124153   1.051915   0.860261
C  -1.397505   0.130768   0.084315
H  -2.484501  -1.165380  -0.638055
H  -2.651028  -1.295928   1.013587
C  -0.241009  -0.649712  -0.030414
H  -1.254186   0.985644   1.033694
H  -1.367900   0.586981  -0.694489
H  -0.002294  -1.437801   1.008169
H   0.712422   0.007734  -0.430393
H  -0.265978  -1.202585  -0.806744
