butane_opt
 OpenBabel08242015393D

 14 12  0  0  0  0  0  0  0  0999 V2000
   -3.9364    0.2452   -0.0713 C   0  0  0  0  0  0  0  0  0  0  0  0
   -2.7687   -0.5807    0.1570 C   0  0  0  0  0  0  0  0  0  0  0  0
   -4.8194   -0.3896    0.0533 H   0  0  0  0  0  0  0  0  0  0  0  0
   -3.7947    1.0233   -1.0126 H   0  0  0  0  0  0  0  0  0  0  0  0
   -4.0126    0.6597    0.5991 H   0  0  0  0  0  0  0  0  0  0  0  0
   -1.4188    0.2314    0.0637 C   0  0  0  0  0  0  0  0  0  0  0  0
   -2.8057   -1.2431   -0.6757 H   0  0  0  0  0  0  0  0  0  0  0  0
   -2.6612   -1.3489    1.1501 H   0  0  0  0  0  0  0  0  0  0  0  0
   -0.0936   -0.7272   -0.0462 C   0  0  0  0  0  0  0  0  0  0  0  0
   -1.3265    0.9804    1.0717 H   0  0  0  0  0  0  0  0  0  0  0  0
   -1.4962    0.8328   -0.7860 H   0  0  0  0  0  0  0  0  0  0  0  0
   -0.1864   -1.0436    0.6486 H   0  0  0  0  0  0  0  0  0  0  0  0
    0.8034   -0.2025    0.2600 H   0  0  0  0  0  0  0  0  0  0  0  0
   -0.1085   -1.7746   -1.1723 H   0  0  0  0  0  0  0  0  0  0  0  0
  1  3  1  0  0  0  0
  1  2  1  0  0  0  0
  1  5  1  0  0  0  0
  2  8  1  0  0  0  0
  4  1  1  0  0  0  0
  6  2  1  0  0  0  0
  6 10  1  0  0  0  0
  7  2  1  0  0  0  0
  9  6  1  0  0  0  0
  9 13  1  0  0  0  0
  9 12  1  0  0  0  0
 11  6  1  0  0  0  0
M  RAD  2   9   2  14   2
M  END
$$$$
