14
butane_opt
C  -3.882089   0.230788   0.132001
C  -2.741139  -0.589192  -0.110424
H  -4.791944  -0.360116   0.334291
H  -4.084573   0.982022  -0.807878
H  -3.719871   0.779124   0.990104
C  -1.433114   0.239700  -0.083911
H  -2.869681  -1.315982  -1.103543
H  -2.535075  -1.161565   0.733279
C  -0.152041  -0.720983   0.117096
H  -1.596353   0.938699   0.764118
H  -1.300765   0.763444  -0.901253
H  -0.250163  -1.619428   1.227560
H   0.736278  -0.223907   0.136072
H  -0.086718  -1.178514  -0.589958
