14
butane_opt
C  -3.913547   0.243954   0.143320
C  -2.734163  -0.546568  -0.099255
H  -4.876367  -0.491447   0.293984
H  -4.102171   0.898307  -0.781682
H  -3.832679   0.757560   0.909555
C  -1.408229   0.176442  -0.092291
H  -2.862014  -1.341144  -1.006426
H  -2.664310  -1.111329   0.670821
C  -0.136972  -0.724922   0.125525
H  -1.481908   1.016475   0.808654
H  -1.375315   0.873889  -1.101343
H  -0.230797  -1.510813   1.112141
H   0.724340  -0.143961   0.212983
H   0.009774  -1.219336  -0.588660
