butane_opt
 OpenBabel08242015393D

 14 13  0  0  0  0  0  0  0  0999 V2000
   -3.9779    0.3064   -0.0709 C   0  0  0  0  0  0  0  0  0  0  0  0
   -2.6602   -0.6248    0.1108 C   0  0  0  0  0  0  0  0  0  0  0  0
   -4.8776   -0.3193    0.0139 H   0  0  0  0  0  0  0  0  0  0  0  0
   -3.9067    1.0722   -1.1258 H   0  0  0  0  0  0  0  0  0  0  0  0
   -4.1447    0.7511    0.6961 H   0  0  0  0  0  0  0  0  0  0  0  0
   -1.3651    0.1137    0.1469 C   0  0  0  0  0  0  0  0  0  0  0  0
   -2.4781   -1.3219   -0.6868 H   0  0  0  0  0  0  0  0  0  0  0  0
   -2.7573   -1.3427    1.0275 H   0  0  0  0  0  0  0  0  0  0  0  0
   -0.1959   -0.6341   -0.0761 C   0  0  0  0  0  0  0  0  0  0  0  0
   -1.2439    0.9816    1.0959 H   0  0  0  0  0  0  0  0  0  0  0  0
   -1.5480    0.4927   -0.5908 H   0  0  0  0  0  0  0  0  0  0  0  0
   -0.1377   -1.4329    0.9762 H   0  0  0  0  0  0  0  0  0  0  0  0
    0.7516   -0.0162   -0.3862 H   0  0  0  0  0  0  0  0  0  0  0  0
   -0.3093   -1.2373   -0.9056 H   0  0  0  0  0  0  0  0  0  0  0  0
  1  3  1  0  0  0  0
  1  2  1  0  0  0  0
  1  5  1  0  0  0  0
  2  6  1  0  0  0  0
  2  8  1  0  0  0  0
  4  1  1  0  0  0  0
  6 10  1  0  0  0  0
  7  2  1  0  0  0  0
  9  6  1  0  0  0  0
  9 12  1  0  0  0  0
 11  6  1  0  0  0  0
 13  9  1  0  0  0  0
 14  9  1  0  0  0  0
M  END
$$$$
