butane_opt
 OpenBabel08242015393D

 14 12  0  0  0  0  0  0  0  0999 V2000
   -3.9294    0.2963    0.1029 C   0  0  0  0  0  0  0  0  0  0  0  0
   -2.6896   -0.6413   -0.0355 C   0  0  0  0  0  0  0  0  0  0  0  0
   -4.8134   -0.2581   -0.3703 H   0  0  0  0  0  0  0  0  0  0  0  0
   -3.8212    0.4982   -0.4900 H   0  0  0  0  0  0  0  0  0  0  0  0
   -4.1330    1.3965    1.3140 H   0  0  0  0  0  0  0  0  0  0  0  0
   -1.4034    0.1328   -0.0968 C   0  0  0  0  0  0  0  0  0  0  0  0
   -2.7277   -1.2392   -0.8988 H   0  0  0  0  0  0  0  0  0  0  0  0
   -2.5404   -1.3055    0.8637 H   0  0  0  0  0  0  0  0  0  0  0  0
   -0.1677   -0.6720    0.1411 C   0  0  0  0  0  0  0  0  0  0  0  0
   -1.4461    0.5697    0.5778 H   0  0  0  0  0  0  0  0  0  0  0  0
   -1.3301    0.9848   -1.1305 H   0  0  0  0  0  0  0  0  0  0  0  0
   -0.3895   -1.3650    1.0832 H   0  0  0  0  0  0  0  0  0  0  0  0
    0.8212    0.1271   -0.0974 H   0  0  0  0  0  0  0  0  0  0  0  0
   -0.3569   -1.2763   -0.7098 H   0  0  0  0  0  0  0  0  0  0  0  0
  2  1  1  0  0  0  0
  2  8  1  0  0  0  0
  3  1  1  0  0  0  0
  4  1  1  0  0  0  0
  6  2  1  0  0  0  0
  6  9  1  0  0  0  0
  6 10  1  0  0  0  0
  7  2  1  0  0  0  0
  9 12  1  0  0  0  0
 11  6  1  0  0  0  0
 13  9  1  0  0  0  0
 14  9  1  0  0  0  0
M  RAD  2   1   2   5   2
M  END
$$$$
