butane_opt
 OpenBabel08242015393D

 14 13  0  0  0  0  0  0  0  0999 V2000
   -3.8880    0.2549   -0.0396 C   0  0  0  0  0  0  0  0  0  0  0  0
   -2.7210   -0.6048    0.0536 C   0  0  0  0  0  0  0  0  0  0  0  0
   -4.8281   -0.2769    0.4084 H   0  0  0  0  0  0  0  0  0  0  0  0
   -3.9024    1.1775   -1.1406 H   0  0  0  0  0  0  0  0  0  0  0  0
   -3.8920    0.6072    0.5646 H   0  0  0  0  0  0  0  0  0  0  0  0
   -1.4212    0.2154    0.1104 C   0  0  0  0  0  0  0  0  0  0  0  0
   -2.6545   -1.4023   -0.8454 H   0  0  0  0  0  0  0  0  0  0  0  0
   -2.7554   -1.3360    1.0288 H   0  0  0  0  0  0  0  0  0  0  0  0
   -0.1940   -0.7235   -0.0452 C   0  0  0  0  0  0  0  0  0  0  0  0
   -1.2897    1.0069    1.0880 H   0  0  0  0  0  0  0  0  0  0  0  0
   -1.5914    0.7485   -0.6054 H   0  0  0  0  0  0  0  0  0  0  0  0
   -0.0903   -1.2740    0.8855 H   0  0  0  0  0  0  0  0  0  0  0  0
    0.7958   -0.1001   -0.0779 H   0  0  0  0  0  0  0  0  0  0  0  0
   -0.1342   -1.3019   -0.8315 H   0  0  0  0  0  0  0  0  0  0  0  0
  1  2  1  0  0  0  0
  1  3  1  0  0  0  0
  1  5  1  0  0  0  0
  2  6  1  0  0  0  0
  2  8  1  0  0  0  0
  4  1  1  0  0  0  0
  6 10  1  0  0  0  0
  7  2  1  0  0  0  0
  9  6  1  0  0  0  0
  9 12  1  0  0  0  0
 11  6  1  0  0  0  0
 13  9  1  0  0  0  0
 14  9  1  0  0  0  0
M  END
$$$$
