butane_opt
 OpenBabel08242015393D

 14 12  0  0  0  0  0  0  0  0999 V2000
   -3.9417    0.2752   -0.0245 C   0  0  0  0  0  0  0  0  0  0  0  0
   -2.6734   -0.6125    0.0560 C   0  0  0  0  0  0  0  0  0  0  0  0
   -4.8361   -0.3041    0.3279 H   0  0  0  0  0  0  0  0  0  0  0  0
   -4.0413    1.3384   -1.3417 H   0  0  0  0  0  0  0  0  0  0  0  0
   -3.9357    0.5919    0.5652 H   0  0  0  0  0  0  0  0  0  0  0  0
   -1.4025    0.1227    0.0984 C   0  0  0  0  0  0  0  0  0  0  0  0
   -2.6905   -1.1629   -0.6427 H   0  0  0  0  0  0  0  0  0  0  0  0
   -2.6059   -1.3104    1.0293 H   0  0  0  0  0  0  0  0  0  0  0  0
   -0.1923   -0.6696   -0.0351 C   0  0  0  0  0  0  0  0  0  0  0  0
   -1.1896    1.0996    1.1460 H   0  0  0  0  0  0  0  0  0  0  0  0
   -1.3330    0.5835   -0.6395 H   0  0  0  0  0  0  0  0  0  0  0  0
   -0.3693   -1.1693    0.8095 H   0  0  0  0  0  0  0  0  0  0  0  0
    0.7594   -0.0197   -0.0107 H   0  0  0  0  0  0  0  0  0  0  0  0
   -0.2438   -1.5090   -1.0203 H   0  0  0  0  0  0  0  0  0  0  0  0
  1  2  1  0  0  0  0
  1  3  1  0  0  0  0
  1  5  1  0  0  0  0
  2  6  1  0  0  0  0
  2  8  1  0  0  0  0
  6 10  1  0  0  0  0
  7  2  1  0  0  0  0
  9 13  1  0  0  0  0
  9  6  1  0  0  0  0
  9 12  1  0  0  0  0
 11  6  1  0  0  0  0
 14  9  1  0  0  0  0
M  RAD  2   1   2   4   2
M  END
$$$$
