butane_opt
 OpenBabel08242015393D

 14 13  0  0  0  0  0  0  0  0999 V2000
   -3.9120    0.2970   -0.0784 C   0  0  0  0  0  0  0  0  0  0  0  0
   -2.6582   -0.6814    0.1065 C   0  0  0  0  0  0  0  0  0  0  0  0
   -4.8153   -0.2330   -0.0839 H   0  0  0  0  0  0  0  0  0  0  0  0
   -4.0437    0.9510   -0.9165 H   0  0  0  0  0  0  0  0  0  0  0  0
   -4.1519    1.0534    0.8315 H   0  0  0  0  0  0  0  0  0  0  0  0
   -1.4278    0.1304    0.1026 C   0  0  0  0  0  0  0  0  0  0  0  0
   -2.5665   -1.2645   -0.6087 H   0  0  0  0  0  0  0  0  0  0  0  0
   -2.9295   -1.3208    1.1099 H   0  0  0  0  0  0  0  0  0  0  0  0
   -0.1833   -0.6384   -0.0510 C   0  0  0  0  0  0  0  0  0  0  0  0
   -1.2653    0.9870    1.1493 H   0  0  0  0  0  0  0  0  0  0  0  0
   -1.5245    0.6837   -0.7657 H   0  0  0  0  0  0  0  0  0  0  0  0
    0.0165   -1.3862    0.9551 H   0  0  0  0  0  0  0  0  0  0  0  0
    0.8199   -0.0392   -0.2390 H   0  0  0  0  0  0  0  0  0  0  0  0
   -0.4100   -1.1849   -0.9138 H   0  0  0  0  0  0  0  0  0  0  0  0
  1  2  1  0  0  0  0
  1  5  1  0  0  0  0
  2  8  1  0  0  0  0
  3  1  1  0  0  0  0
  4  1  1  0  0  0  0
  6  2  1  0  0  0  0
  6 10  1  0  0  0  0
  7  2  1  0  0  0  0
  9  6  1  0  0  0  0
  9 12  1  0  0  0  0
 11  6  1  0  0  0  0
 13  9  1  0  0  0  0
 14  9  1  0  0  0  0
M  END
$$$$
