butane_opt
 OpenBabel08242015393D

 14 13  0  0  0  0  0  0  0  0999 V2000
   -3.8944    0.2529    0.0793 C   0  0  0  0  0  0  0  0  0  0  0  0
   -2.7030   -0.5682   -0.0102 C   0  0  0  0  0  0  0  0  0  0  0  0
   -4.9538   -0.4596    0.0104 H   0  0  0  0  0  0  0  0  0  0  0  0
   -3.9976    0.7003   -0.7435 H   0  0  0  0  0  0  0  0  0  0  0  0
   -3.7586    1.0595    1.0740 H   0  0  0  0  0  0  0  0  0  0  0  0
   -1.4382    0.1963   -0.0889 C   0  0  0  0  0  0  0  0  0  0  0  0
   -2.8618   -1.2142   -0.9025 H   0  0  0  0  0  0  0  0  0  0  0  0
   -2.7946   -1.2814    0.9694 H   0  0  0  0  0  0  0  0  0  0  0  0
   -0.1509   -0.7179    0.1054 C   0  0  0  0  0  0  0  0  0  0  0  0
   -1.6578    0.7943    0.6735 H   0  0  0  0  0  0  0  0  0  0  0  0
   -1.2735    0.8007   -1.0457 H   0  0  0  0  0  0  0  0  0  0  0  0
   -0.2662   -1.2249    0.9533 H   0  0  0  0  0  0  0  0  0  0  0  0
    0.8262   -0.0786    0.1989 H   0  0  0  0  0  0  0  0  0  0  0  0
   -0.0421   -1.5264   -0.7938 H   0  0  0  0  0  0  0  0  0  0  0  0
  1  5  1  0  0  0  0
  2  1  1  0  0  0  0
  2  8  1  0  0  0  0
  3  1  1  0  0  0  0
  4  1  1  0  0  0  0
  6  2  1  0  0  0  0
  6  9  1  0  0  0  0
  6 10  1  0  0  0  0
  7  2  1  0  0  0  0
  9 13  1  0  0  0  0
  9 12  1  0  0  0  0
 11  6  1  0  0  0  0
 14  9  1  0  0  0  0
M  END
$$$$
