14
butane_opt
C  -3.955282   0.287581   0.068505
C  -2.673866  -0.607085  -0.065124
H  -4.838460  -0.308754   0.069120
H  -4.061082   0.726232  -0.742040
H  -3.815089   1.105891   0.983105
C  -1.420732   0.119636  -0.009506
H  -2.744159  -1.433672  -0.945038
H  -2.480093  -1.219814   0.774502
C  -0.207438  -0.660262   0.106611
H  -1.373682   0.844949   0.860683
H  -1.226735   0.761656  -0.941827
H  -0.006311  -1.648996   1.287506
H   0.824741   0.055423  -0.483497
H  -0.255668  -1.000252  -0.603411
