14
butane_opt
C  -3.933083   0.231280   0.118514
C  -2.739686  -0.598557  -0.068172
H  -4.897724  -0.309308   0.209934
H  -4.059155   0.933049  -0.825512
H  -3.759083   0.705014   0.943641
C  -1.409398   0.278276  -0.082609
H  -2.957123  -1.437960  -1.109949
H  -2.552321  -1.033887   0.723356
C  -0.124761  -0.750260   0.138522
H  -1.364947   0.895914   0.701518
H  -1.313545   0.841151  -0.980712
H  -0.133914  -1.438270   1.080861
H   0.628862  -0.295194   0.037857
H  -0.090161  -1.283402  -0.631753
