14
butane_opt
C  -3.961354   0.302345   0.045069
C  -2.726809  -0.673684  -0.014269
H  -4.749886  -0.248818   0.222324
H  -4.055004   0.993484  -0.866791
H  -4.035452   0.925562   0.928201
C  -1.371363   0.185495  -0.036442
H  -2.747749  -1.211169  -0.758363
H  -2.679408  -1.427730   0.986952
C  -0.166102  -0.688469   0.073012
H  -1.435498   0.761326   0.747340
H  -1.316194   0.814632  -0.814357
H  -0.155391  -1.067945   0.818330
H   0.880941   0.035474   0.274419
H  -0.048117  -1.525489  -0.933188
