14
butane_opt
C  -4.001163   0.282476   0.049948
C  -2.674636  -0.672832  -0.009360
H  -4.884692  -0.258421  -0.122487
H  -4.010275   0.692410  -0.756906
H  -3.961293   1.258711   1.130770
C  -1.364223   0.202051  -0.037884
H  -2.756346  -1.401716  -0.857215
H  -2.562405  -1.231027   0.776707
C  -0.174737  -0.673632   0.075789
H  -1.306368   0.867613   0.876565
H  -1.450473   0.725071  -0.842835
H  -0.132901  -1.636850   1.201829
H   0.723860  -0.109758  -0.353952
H  -0.117796  -1.007446  -0.510611
