14
butane_opt
C  -3.937511   0.297167   0.096039
C  -2.679098  -0.626121  -0.083973
H  -4.793012  -0.261970  -0.075743
H  -3.969757   0.740958  -0.632929
H  -3.802242   1.099685   1.124178
C  -1.399521   0.134625  -0.023904
H  -2.879364  -1.481806  -1.134853
H  -2.689767  -1.165642   0.820710
C  -0.187316  -0.674371   0.088613
H  -1.359234   0.850539   0.800566
H  -1.478880   0.774104  -0.963156
H  -0.204439  -1.784465   1.360082
H   0.861437  -0.041773  -0.359223
H  -0.293735  -0.737074  -0.351435
