14
butane_opt
C  -3.892825   0.241953   0.056726
C  -2.734691  -0.587944   0.029367
H  -4.863727  -0.449049   0.018156
H  -3.952552   0.913527  -0.880124
H  -3.773512   0.855535   0.903848
C  -1.446198   0.209972  -0.038925
H  -2.714625  -1.156597  -0.833728
H  -2.683061  -1.163595   0.884337
C  -0.134920  -0.726278   0.053873
H  -1.354083   0.749123   0.722138
H  -1.541678   0.963680  -0.987465
H  -0.364275  -1.116447   0.940306
H   0.789865  -0.098687   0.407462
H  -0.043947  -1.656993  -0.971107
