butane_opt
 OpenBabel08242015393D

 14 12  0  0  0  0  0  0  0  0999 V2000
   -3.8926    0.2182    0.1063 C   0  0  0  0  0  0  0  0  0  0  0  0
   -2.6829   -0.5728   -0.0180 C   0  0  0  0  0  0  0  0  0  0  0  0
   -4.7595   -0.4265   -0.4058 H   0  0  0  0  0  0  0  0  0  0  0  0
   -3.7137    0.5221   -0.6162 H   0  0  0  0  0  0  0  0  0  0  0  0
   -4.0619    1.3695    1.2519 H   0  0  0  0  0  0  0  0  0  0  0  0
   -1.4260    0.2278   -0.0886 C   0  0  0  0  0  0  0  0  0  0  0  0
   -2.9376   -1.3124   -0.8707 H   0  0  0  0  0  0  0  0  0  0  0  0
   -2.8171   -1.1874    0.8950 H   0  0  0  0  0  0  0  0  0  0  0  0
   -0.1713   -0.7307    0.1061 C   0  0  0  0  0  0  0  0  0  0  0  0
   -1.4471    0.6785    0.6510 H   0  0  0  0  0  0  0  0  0  0  0  0
   -1.4767    1.1183   -1.1761 H   0  0  0  0  0  0  0  0  0  0  0  0
   -0.1420   -1.4366    1.0958 H   0  0  0  0  0  0  0  0  0  0  0  0
    0.6643   -0.2156    0.0727 H   0  0  0  0  0  0  0  0  0  0  0  0
   -0.2348   -1.3038   -0.6632 H   0  0  0  0  0  0  0  0  0  0  0  0
  2  1  1  0  0  0  0
  2  8  1  0  0  0  0
  3  1  1  0  0  0  0
  4  1  1  0  0  0  0
  6  2  1  0  0  0  0
  6  9  1  0  0  0  0
  6 10  1  0  0  0  0
  7  2  1  0  0  0  0
  9 12  1  0  0  0  0
 11  6  1  0  0  0  0
 13  9  1  0  0  0  0
 14  9  1  0  0  0  0
M  RAD  2   1   2   5   2
M  END
$$$$
