butane_opt
 OpenBabel08242015393D

 14 13  0  0  0  0  0  0  0  0999 V2000
   -3.9533    0.2940    0.0113 C   0  0  0  0  0  0  0  0  0  0  0  0
   -2.6692   -0.6890   -0.0030 C   0  0  0  0  0  0  0  0  0  0  0  0
   -4.7776   -0.1837    0.5050 H   0  0  0  0  0  0  0  0  0  0  0  0
   -4.1006    1.2112   -1.0255 H   0  0  0  0  0  0  0  0  0  0  0  0
   -3.9272    0.7127    0.6915 H   0  0  0  0  0  0  0  0  0  0  0  0
   -1.3894    0.1461    0.0599 C   0  0  0  0  0  0  0  0  0  0  0  0
   -2.6755   -1.4422   -0.8857 H   0  0  0  0  0  0  0  0  0  0  0  0
   -2.5622   -1.0360    0.7831 H   0  0  0  0  0  0  0  0  0  0  0  0
   -0.1904   -0.6571    0.0231 C   0  0  0  0  0  0  0  0  0  0  0  0
   -1.3340    0.8408    0.9442 H   0  0  0  0  0  0  0  0  0  0  0  0
   -1.5576    0.8231   -0.8650 H   0  0  0  0  0  0  0  0  0  0  0  0
   -0.2662   -1.3219    0.9475 H   0  0  0  0  0  0  0  0  0  0  0  0
    0.7841    0.0261    0.0292 H   0  0  0  0  0  0  0  0  0  0  0  0
   -0.2020   -1.2145   -0.7831 H   0  0  0  0  0  0  0  0  0  0  0  0
  1  3  1  0  0  0  0
  1  5  1  0  0  0  0
  2  1  1  0  0  0  0
  2  6  1  0  0  0  0
  2  8  1  0  0  0  0
  4  1  1  0  0  0  0
  6 10  1  0  0  0  0
  7  2  1  0  0  0  0
  9 13  1  0  0  0  0
  9  6  1  0  0  0  0
  9 12  1  0  0  0  0
 11  6  1  0  0  0  0
 14  9  1  0  0  0  0
M  END
$$$$
