14
butane_opt
C  -3.940720   0.219233  -0.060586
C  -2.703812  -0.559940   0.096726
H  -5.028949  -0.488410   0.292018
H  -3.971806   1.209171  -1.178708
H  -3.969055   0.604408   0.590565
C  -1.430126   0.213284   0.129978
H  -2.619489  -1.158330  -0.627342
H  -2.812551  -1.212082   1.042739
C  -0.133396  -0.725612  -0.037787
H  -1.317831   0.914766   0.942794
H  -1.313848   0.834186  -0.760272
H  -0.026927  -1.075406   0.583447
H   0.674264  -0.199113   0.036165
H  -0.092123  -1.704112  -1.084747
