14
butane_opt
C  -3.974747   0.307637  -0.062980
C  -2.728173  -0.648299   0.130589
H  -4.880687  -0.168260  -0.028275
H  -4.003903   1.009826  -1.019835
H  -4.025056   0.778401   0.682355
C  -1.367724   0.134100   0.058316
H  -2.625586  -1.141266  -0.602768
H  -2.658616  -1.452999   1.150351
C  -0.178746  -0.661083  -0.024961
H  -1.154819   0.907694   1.035383
H  -1.381741   0.630733  -0.688245
H  -0.012805  -1.018944   0.632926
H   0.794723   0.003372   0.132512
H  -0.118558  -1.597776  -1.113603
