butane_opt
 OpenBabel08242015393D

 14 13  0  0  0  0  0  0  0  0999 V2000
   -3.9560    0.2343    0.0020 C   0  0  0  0  0  0  0  0  0  0  0  0
   -2.7272   -0.6104    0.0512 C   0  0  0  0  0  0  0  0  0  0  0  0
   -4.9051   -0.4149    0.2473 H   0  0  0  0  0  0  0  0  0  0  0  0
   -4.0006    0.9681   -0.9372 H   0  0  0  0  0  0  0  0  0  0  0  0
   -3.8360    0.8044    0.7815 H   0  0  0  0  0  0  0  0  0  0  0  0
   -1.4375    0.2492    0.0030 C   0  0  0  0  0  0  0  0  0  0  0  0
   -2.8217   -1.2417   -0.7768 H   0  0  0  0  0  0  0  0  0  0  0  0
   -2.5903   -1.3138    0.9944 H   0  0  0  0  0  0  0  0  0  0  0  0
   -0.1328   -0.7296    0.0330 C   0  0  0  0  0  0  0  0  0  0  0  0
   -1.4026    0.9818    0.8010 H   0  0  0  0  0  0  0  0  0  0  0  0
   -1.2983    0.9712   -0.9605 H   0  0  0  0  0  0  0  0  0  0  0  0
    0.0950   -1.0913    0.7946 H   0  0  0  0  0  0  0  0  0  0  0  0
    0.7141   -0.1459    0.3889 H   0  0  0  0  0  0  0  0  0  0  0  0
    0.0602   -1.7409   -1.0023 H   0  0  0  0  0  0  0  0  0  0  0  0
  1  2  1  0  0  0  0
  1  3  1  0  0  0  0
  1  5  1  0  0  0  0
  2  8  1  0  0  0  0
  4  1  1  0  0  0  0
  6  9  1  0  0  0  0
  6  2  1  0  0  0  0
  6 10  1  0  0  0  0
  7  2  1  0  0  0  0
  9 13  1  0  0  0  0
  9 12  1  0  0  0  0
 11  6  1  0  0  0  0
 14  9  1  0  0  0  0
M  END
$$$$
