14
butane_opt
C  -3.972901   0.303570  -0.086215
C  -2.714506  -0.640461   0.172395
H  -4.938146  -0.340094  -0.367075
H  -3.708016   0.865866  -0.975564
H  -4.269642   1.039255   0.808816
C  -1.388671   0.146465   0.083774
H  -2.655767  -1.224836  -0.501861
H  -2.656690  -1.446967   1.206316
C  -0.156862  -0.672556  -0.069090
H  -1.075241   1.023513   1.107230
H  -1.435945   0.661192  -0.724601
H   0.030041  -1.276915   0.774234
H   0.782346   0.031068  -0.055382
H  -0.316341  -1.450747  -1.034958
