14
butane_opt
C  -3.929631   0.227640   0.110176
C  -2.688162  -0.536818  -0.002443
H  -4.954036  -0.397008  -0.209635
H  -3.774324   0.526131  -0.580547
H  -3.960703   1.098568   1.121994
C  -1.412605   0.189650  -0.109680
H  -2.760477  -1.393944  -0.932759
H  -2.825453  -1.050682   0.798381
C  -0.173081  -0.732626   0.105975
H  -1.387532   0.787930   0.651771
H  -1.416552   1.022555  -1.186734
H  -0.314291  -1.351655   1.087226
H   0.704913  -0.163696   0.111303
H   0.117441  -1.352782  -0.632035
