14
butane_opt
C  -3.941187   0.225625   0.015920
C  -2.715282  -0.586194   0.046321
H  -4.935175  -0.488482  -0.238767
H  -3.902269   0.628259  -0.728714
H  -4.218977   1.225189   1.081437
C  -1.382701   0.239077   0.022567
H  -2.680507  -1.247198  -0.699322
H  -2.839737  -1.193053   0.910436
C  -0.132432  -0.724462   0.037606
H  -1.486824   0.721274   0.701341
H  -1.440364   0.993568  -1.001905
H   0.044012  -1.432166   0.903657
H   0.638393  -0.234528  -0.110225
H  -0.101274  -1.320739  -0.796273
