butane_opt
 OpenBabel08242015393D

 14 13  0  0  0  0  0  0  0  0999 V2000
   -3.9046    0.2894   -0.0686 C   0  0  0  0  0  0  0  0  0  0  0  0
   -2.6595   -0.6534    0.0921 C   0  0  0  0  0  0  0  0  0  0  0  0
   -4.7892   -0.2600    0.0089 H   0  0  0  0  0  0  0  0  0  0  0  0
   -3.9623    1.1288   -1.2063 H   0  0  0  0  0  0  0  0  0  0  0  0
   -4.1091    0.9337    0.7476 H   0  0  0  0  0  0  0  0  0  0  0  0
   -1.4199    0.1244    0.1607 C   0  0  0  0  0  0  0  0  0  0  0  0
   -2.7037   -1.4158   -0.7414 H   0  0  0  0  0  0  0  0  0  0  0  0
   -2.7366   -1.3139    0.9847 H   0  0  0  0  0  0  0  0  0  0  0  0
   -0.2105   -0.6487   -0.0291 C   0  0  0  0  0  0  0  0  0  0  0  0
   -1.3597    0.8690    1.0994 H   0  0  0  0  0  0  0  0  0  0  0  0
   -1.5158    0.7599   -0.7284 H   0  0  0  0  0  0  0  0  0  0  0  0
    0.1922   -1.3167    0.8713 H   0  0  0  0  0  0  0  0  0  0  0  0
    0.7574    0.0575   -0.5733 H   0  0  0  0  0  0  0  0  0  0  0  0
   -0.4935   -1.2102   -0.8943 H   0  0  0  0  0  0  0  0  0  0  0  0
  1  3  1  0  0  0  0
  1  2  1  0  0  0  0
  1  5  1  0  0  0  0
  2  6  1  0  0  0  0
  2  8  1  0  0  0  0
  4  1  1  0  0  0  0
  6 10  1  0  0  0  0
  7  2  1  0  0  0  0
  9  6  1  0  0  0  0
  9 12  1  0  0  0  0
 11  6  1  0  0  0  0
 13  9  1  0  0  0  0
 14  9  1  0  0  0  0
M  END
$$$$
