butane_opt
 OpenBabel08242015393D

 14 12  0  0  0  0  0  0  0  0999 V2000
   -3.9147    0.2377    0.0310 C   0  0  0  0  0  0  0  0  0  0  0  0
   -2.7302   -0.5776    0.0481 C   0  0  0  0  0  0  0  0  0  0  0  0
   -4.8389   -0.3071   -0.2162 H   0  0  0  0  0  0  0  0  0  0  0  0
   -3.8037    0.3849   -0.5429 H   0  0  0  0  0  0  0  0  0  0  0  0
   -3.9905    1.2084    1.1899 H   0  0  0  0  0  0  0  0  0  0  0  0
   -1.4029    0.2390   -0.0688 C   0  0  0  0  0  0  0  0  0  0  0  0
   -2.6891   -1.3402   -0.8650 H   0  0  0  0  0  0  0  0  0  0  0  0
   -2.7111   -1.1990    0.9582 H   0  0  0  0  0  0  0  0  0  0  0  0
   -0.1865   -0.7451    0.0746 C   0  0  0  0  0  0  0  0  0  0  0  0
   -1.4612    0.7581    0.7463 H   0  0  0  0  0  0  0  0  0  0  0  0
   -1.3127    1.0352   -1.0972 H   0  0  0  0  0  0  0  0  0  0  0  0
   -0.0881   -1.4268    1.0066 H   0  0  0  0  0  0  0  0  0  0  0  0
    0.7238   -0.0862    0.0680 H   0  0  0  0  0  0  0  0  0  0  0  0
   -0.0432   -1.3606   -0.7773 H   0  0  0  0  0  0  0  0  0  0  0  0
  1  2  1  0  0  0  0
  1  5  1  0  0  0  0
  2  8  1  0  0  0  0
  3  1  1  0  0  0  0
  6  2  1  0  0  0  0
  6  9  1  0  0  0  0
  6 10  1  0  0  0  0
  7  2  1  0  0  0  0
  9 12  1  0  0  0  0
 11  6  1  0  0  0  0
 13  9  1  0  0  0  0
 14  9  1  0  0  0  0
M  RAD  2   1   2   4   2
M  END
$$$$
