14
butane_opt
C  -3.959842   0.278445   0.087793
C  -2.675643  -0.633680  -0.098317
H  -4.921172  -0.331297   0.500928
H  -4.259358   1.017759  -0.788413
H  -3.672383   0.798302   0.879816
C  -1.418909   0.155395  -0.053233
H  -2.756574  -1.273889  -0.998448
H  -2.411430  -1.121960   0.670188
C  -0.163622  -0.680560   0.129553
H  -1.414562   0.869998   0.823061
H  -1.237753   0.754227  -0.937433
H  -0.277013  -1.358628   1.106720
H   0.795133  -0.040489  -0.039143
H  -0.237859  -1.229038  -0.589697
