14
butane_opt
C  -3.994599   0.311951   0.101769
C  -2.674924  -0.670288  -0.026770
H  -4.907161  -0.336992  -0.293002
H  -4.150987   0.518432  -0.528368
H  -4.056340   1.315286   1.214803
C  -1.360022   0.162325  -0.109859
H  -2.689247  -1.331760  -0.911899
H  -2.636997  -1.360257   0.911506
C  -0.166187  -0.655463   0.131527
H  -1.378530   0.670672   0.657503
H  -1.403811   1.026525  -1.144333
H  -0.272617  -1.389143   1.102326
H   0.853222  -0.024250   0.116650
H  -0.042981  -1.345160  -0.807335
