14
butane_opt
C  -4.007028   0.276068  -0.013145
C  -2.679830  -0.637314   0.099665
H  -4.805773  -0.218904   0.060867
H  -3.927080   1.024225  -0.971941
H  -4.080935   0.858200   0.747957
C  -1.396059   0.172973  -0.007583
H  -2.763514  -1.214913  -0.681448
H  -2.624518  -1.473612   1.158076
C  -0.130611  -0.687570   0.005145
H  -1.220413   0.965864   0.842230
H  -1.435181   0.669798  -0.789551
H  -0.342025  -0.901434   0.598759
H   0.876924  -0.065509   0.484606
H  -0.130436  -1.596033  -1.050132
