14
butane_opt
C  -3.951864   0.271911   0.052612
C  -2.701513  -0.627783   0.002402
H  -4.856902  -0.313798   0.153125
H  -4.011154   0.919663  -0.877569
H  -3.949850   0.882637   0.887463
C  -1.406880   0.180761  -0.024843
H  -2.731177  -1.353145  -0.875781
H  -2.690873  -1.166320   0.836532
C  -0.153957  -0.691238   0.065900
H  -1.426300   0.851376   0.816369
H  -1.357315   0.834655  -0.908719
H  -0.129479  -1.301290   0.970470
H   0.801202  -0.069981   0.054591
H  -0.109427  -1.352749  -0.771689
