14
butane_opt
C  -3.914477   0.308814  -0.030620
C  -2.683064  -0.656306   0.041228
H  -4.859208  -0.256941   0.432221
H  -4.267314   1.249864  -1.184457
H  -3.786247   0.529573   0.526305
C  -1.402035   0.157897   0.101841
H  -2.626538  -1.152614  -0.679014
H  -2.716625  -1.411624   0.985146
C  -0.213295  -0.655619  -0.025691
H  -1.403812   0.940526   1.036700
H  -1.126137   0.575501  -0.600880
H  -0.182977  -1.179445   0.773736
H   0.727100  -0.077937   0.038612
H  -0.232764  -1.532155  -1.014566
