butane_opt
 OpenBabel08242015393D

 14 13  0  0  0  0  0  0  0  0999 V2000
   -3.9768    0.2703    0.0773 C   0  0  0  0  0  0  0  0  0  0  0  0
   -2.7162   -0.6451   -0.0134 C   0  0  0  0  0  0  0  0  0  0  0  0
   -4.8584   -0.2561    0.2258 H   0  0  0  0  0  0  0  0  0  0  0  0
   -4.0775    1.0432   -0.9021 H   0  0  0  0  0  0  0  0  0  0  0  0
   -3.8528    1.0089    0.9787 H   0  0  0  0  0  0  0  0  0  0  0  0
   -1.4013    0.1737   -0.0980 C   0  0  0  0  0  0  0  0  0  0  0  0
   -2.7364   -1.2904   -0.8266 H   0  0  0  0  0  0  0  0  0  0  0  0
   -2.5853   -1.2758    0.8804 H   0  0  0  0  0  0  0  0  0  0  0  0
   -0.1218   -0.6828    0.0836 C   0  0  0  0  0  0  0  0  0  0  0  0
   -1.3763    0.7950    0.8211 H   0  0  0  0  0  0  0  0  0  0  0  0
   -1.4526    0.7043   -0.9404 H   0  0  0  0  0  0  0  0  0  0  0  0
   -0.3942   -1.1227    0.8981 H   0  0  0  0  0  0  0  0  0  0  0  0
    0.8811    0.0445    0.4548 H   0  0  0  0  0  0  0  0  0  0  0  0
    0.0078   -1.4886   -0.7614 H   0  0  0  0  0  0  0  0  0  0  0  0
  1  3  1  0  0  0  0
  1  5  1  0  0  0  0
  2  1  1  0  0  0  0
  2  8  1  0  0  0  0
  4  1  1  0  0  0  0
  6  2  1  0  0  0  0
  6  9  1  0  0  0  0
  6 10  1  0  0  0  0
  7  2  1  0  0  0  0
  9 13  1  0  0  0  0
  9 12  1  0  0  0  0
 11  6  1  0  0  0  0
 14  9  1  0  0  0  0
M  END
$$$$
