14
butane_opt
C  -3.951543   0.290341  -0.058937
C  -2.662586  -0.609762   0.062313
H  -4.881334  -0.267422   0.398089
H  -4.070740   1.096776  -1.110058
H  -3.880863   0.560628   0.551175
C  -1.421560   0.127388   0.116055
H  -2.625006  -1.168177  -0.662875
H  -2.601934  -1.446749   1.163362
C  -0.201045  -0.666045  -0.035733
H  -1.351723   0.960530   1.036117
H  -1.273668   0.688427  -0.704144
H  -0.151415  -1.082759   0.653272
H   0.806727   0.017148   0.121247
H  -0.168973  -1.522344  -1.074749
