butane_opt
 OpenBabel08242015393D

 14 12  0  0  0  0  0  0  0  0999 V2000
   -3.9247    0.2879    0.1228 C   0  0  0  0  0  0  0  0  0  0  0  0
   -2.6720   -0.6323   -0.0171 C   0  0  0  0  0  0  0  0  0  0  0  0
   -4.7391   -0.1728   -0.4006 H   0  0  0  0  0  0  0  0  0  0  0  0
   -3.9259    0.5794   -0.6410 H   0  0  0  0  0  0  0  0  0  0  0  0
   -4.0262    1.3613    1.2344 H   0  0  0  0  0  0  0  0  0  0  0  0
   -1.3734    0.1404   -0.1190 C   0  0  0  0  0  0  0  0  0  0  0  0
   -2.8348   -1.3772   -0.9232 H   0  0  0  0  0  0  0  0  0  0  0  0
   -2.6267   -1.4019    0.8595 H   0  0  0  0  0  0  0  0  0  0  0  0
   -0.2204   -0.6603    0.1110 C   0  0  0  0  0  0  0  0  0  0  0  0
   -1.6047    0.7462    0.6606 H   0  0  0  0  0  0  0  0  0  0  0  0
   -1.2528    0.7854   -1.0354 H   0  0  0  0  0  0  0  0  0  0  0  0
   -0.3312   -1.4430    1.1684 H   0  0  0  0  0  0  0  0  0  0  0  0
    0.7287    0.0184    0.0337 H   0  0  0  0  0  0  0  0  0  0  0  0
   -0.1509   -1.1652   -0.6633 H   0  0  0  0  0  0  0  0  0  0  0  0
  2  1  1  0  0  0  0
  2  8  1  0  0  0  0
  3  1  1  0  0  0  0
  4  1  1  0  0  0  0
  6  2  1  0  0  0  0
  6  9  1  0  0  0  0
  6 10  1  0  0  0  0
  7  2  1  0  0  0  0
  9 12  1  0  0  0  0
 11  6  1  0  0  0  0
 13  9  1  0  0  0  0
 14  9  1  0  0  0  0
M  RAD  2   1   2   5   2
M  END
$$$$
