butane_opt
 OpenBabel08242015393D

 14 12  0  0  0  0  0  0  0  0999 V2000
   -3.9858    0.3146    0.0808 C   0  0  0  0  0  0  0  0  0  0  0  0
   -2.6770   -0.6745   -0.0015 C   0  0  0  0  0  0  0  0  0  0  0  0
   -4.8066   -0.1977   -0.2140 H   0  0  0  0  0  0  0  0  0  0  0  0
   -3.9430    0.4252   -0.5507 H   0  0  0  0  0  0  0  0  0  0  0  0
   -4.2089    1.3661    1.2314 H   0  0  0  0  0  0  0  0  0  0  0  0
   -1.3826    0.1364   -0.1065 C   0  0  0  0  0  0  0  0  0  0  0  0
   -2.6917   -1.3699   -0.8483 H   0  0  0  0  0  0  0  0  0  0  0  0
   -2.6682   -1.3939    0.9124 H   0  0  0  0  0  0  0  0  0  0  0  0
   -0.1864   -0.6352    0.0779 C   0  0  0  0  0  0  0  0  0  0  0  0
   -1.3645    0.7834    0.7456 H   0  0  0  0  0  0  0  0  0  0  0  0
   -1.2512    0.9170   -1.0318 H   0  0  0  0  0  0  0  0  0  0  0  0
   -0.2087   -1.4418    1.1291 H   0  0  0  0  0  0  0  0  0  0  0  0
    0.7124   -0.0478    0.1411 H   0  0  0  0  0  0  0  0  0  0  0  0
    0.1485   -1.1944   -0.6190 H   0  0  0  0  0  0  0  0  0  0  0  0
  2  1  1  0  0  0  0
  2  8  1  0  0  0  0
  3  1  1  0  0  0  0
  4  1  1  0  0  0  0
  6  2  1  0  0  0  0
  6  9  1  0  0  0  0
  6 10  1  0  0  0  0
  7  2  1  0  0  0  0
  9 13  1  0  0  0  0
  9 12  1  0  0  0  0
 11  6  1  0  0  0  0
 14  9  1  0  0  0  0
M  RAD  2   1   2   5   2
M  END
$$$$
