butane_opt
 OpenBabel08242015393D

 14 11  0  0  0  0  0  0  0  0999 V2000
   -3.9944    0.2804    0.0668 C   0  0  0  0  0  0  0  0  0  0  0  0
   -2.6846   -0.6505   -0.0241 C   0  0  0  0  0  0  0  0  0  0  0  0
   -4.7807   -0.1404   -0.0795 H   0  0  0  0  0  0  0  0  0  0  0  0
   -3.9804    0.6626   -0.7031 H   0  0  0  0  0  0  0  0  0  0  0  0
   -4.1358    1.2521    1.1327 H   0  0  0  0  0  0  0  0  0  0  0  0
   -1.3915    0.1727   -0.0389 C   0  0  0  0  0  0  0  0  0  0  0  0
   -2.7412   -1.4972   -1.0213 H   0  0  0  0  0  0  0  0  0  0  0  0
   -2.6433   -1.2580    0.8701 H   0  0  0  0  0  0  0  0  0  0  0  0
   -0.1453   -0.6750    0.0616 C   0  0  0  0  0  0  0  0  0  0  0  0
   -1.3496    0.8017    0.8598 H   0  0  0  0  0  0  0  0  0  0  0  0
   -1.3377    0.7820   -0.8776 H   0  0  0  0  0  0  0  0  0  0  0  0
   -0.2158   -1.6598    1.2449 H   0  0  0  0  0  0  0  0  0  0  0  0
    0.9104    0.0228   -0.2732 H   0  0  0  0  0  0  0  0  0  0  0  0
   -0.1742   -0.9211   -0.4321 H   0  0  0  0  0  0  0  0  0  0  0  0
  1  5  1  0  0  0  0
  2  1  1  0  0  0  0
  2  8  1  0  0  0  0
  3  1  1  0  0  0  0
  4  1  1  0  0  0  0
  6  2  1  0  0  0  0
  6  9  1  0  0  0  0
  6 10  1  0  0  0  0
  7  2  1  0  0  0  0
 11  6  1  0  0  0  0
 13  9  1  0  0  0  0
M  RAD  3   9   3  12   2  14   2
M  END
$$$$
