14
butane_opt
C  -3.969627   0.240978   0.009288
C  -2.752130  -0.563526   0.048467
H  -4.900656  -0.399344   0.189597
H  -3.921965   0.978208  -1.001014
H  -3.836789   0.714361   0.780562
C  -1.390386   0.201282   0.017044
H  -2.712703  -1.126613  -0.748780
H  -2.892683  -1.375677   1.121594
C  -0.112513  -0.712935   0.017925
H  -1.450023   1.000038   0.862331
H  -1.389167   0.797193  -0.880912
H  -0.137705  -1.145354   0.800161
H   0.714693  -0.181779   0.284885
H   0.185742  -1.740478  -1.125533
