14
butane_opt
C  -3.970161   0.276751  -0.056671
C  -2.731204  -0.607920   0.130131
H  -4.851143  -0.325994   0.133588
H  -3.952336   1.016494  -1.112605
H  -3.888574   0.689302   0.701653
C  -1.387096   0.202805   0.063498
H  -2.739624  -1.207048  -0.616363
H  -2.892901  -1.462316   1.220646
C  -0.114327  -0.710324  -0.067446
H  -1.432251   0.963526   1.021802
H  -1.491485   0.722780  -0.767731
H  -0.378773  -0.959372   0.662251
H   0.847873  -0.083038   0.377754
H   0.164267  -1.735615  -1.090640
