14
butane_opt
C  -3.938632   0.306512   0.119745
C  -2.715756  -0.665192  -0.108544
H  -4.773122  -0.221024   0.315947
H  -4.222795   0.992964  -0.749003
H  -3.633831   0.832984   1.000936
C  -1.388178   0.174251  -0.102295
H  -2.713267  -1.333344  -0.992932
H  -2.500708  -1.409712   0.821700
C  -0.204167  -0.666794   0.152447
H  -1.436863   0.841035   0.791011
H  -1.196939   0.791995  -1.026209
H  -0.256943  -1.251886   1.078456
H   0.750692  -0.093250   0.186922
H  -0.108179  -1.379484  -0.757727
