14
butane_opt
C  -3.918000   0.240501   0.080307
C  -2.726634  -0.580399  -0.012959
H  -4.909711  -0.436439  -0.132119
H  -3.840039   0.517876  -0.634808
H  -3.838368   1.115104   1.074985
C  -1.439358   0.198093  -0.057173
H  -2.733222  -1.350884  -0.946767
H  -2.456201  -0.961433   0.727723
C  -0.140669  -0.706786   0.093691
H  -1.444695   0.747643   0.717153
H  -1.460497   1.003035  -1.059456
H  -0.229017  -1.555007   1.114316
H   0.684423  -0.218249  -0.137697
H  -0.079431  -1.178344  -0.494240
