14
butane_opt
C  -3.909970   0.240366  -0.053775
C  -2.682882  -0.590917   0.156935
H  -4.706711  -0.308181  -0.095101
H  -3.781167   0.755920  -0.936975
H  -3.928445   0.877861   0.783314
C  -1.452728   0.192982   0.041165
H  -2.640392  -1.098556  -0.621256
H  -2.947503  -1.260078   1.069735
C  -0.159883  -0.697712  -0.024619
H  -1.471873   0.851093   0.865686
H  -1.519255   0.826962  -0.868439
H  -0.080898  -1.040173   0.628189
H   0.676745  -0.115272   0.257046
H  -0.179394  -1.700676  -1.083600
