butane_opt
 OpenBabel08242015393D

 14 13  0  0  0  0  0  0  0  0999 V2000
   -3.9323    0.2362    0.0094 C   0  0  0  0  0  0  0  0  0  0  0  0
   -2.7498   -0.5922    0.0124 C   0  0  0  0  0  0  0  0  0  0  0  0
   -4.8287   -0.2767    0.3297 H   0  0  0  0  0  0  0  0  0  0  0  0
   -4.0362    1.1911   -1.0895 H   0  0  0  0  0  0  0  0  0  0  0  0
   -3.7235    0.5682    0.6421 H   0  0  0  0  0  0  0  0  0  0  0  0
   -1.4229    0.2395    0.0772 C   0  0  0  0  0  0  0  0  0  0  0  0
   -2.8673   -1.3859   -0.8696 H   0  0  0  0  0  0  0  0  0  0  0  0
   -2.7969   -1.2646    0.9782 H   0  0  0  0  0  0  0  0  0  0  0  0
   -0.1055   -0.7333    0.0197 C   0  0  0  0  0  0  0  0  0  0  0  0
   -1.4124    0.8887    0.8622 H   0  0  0  0  0  0  0  0  0  0  0  0
   -1.3372    0.9479   -0.8267 H   0  0  0  0  0  0  0  0  0  0  0  0
   -0.0491   -1.1678    0.7855 H   0  0  0  0  0  0  0  0  0  0  0  0
    0.6845   -0.2093    0.0262 H   0  0  0  0  0  0  0  0  0  0  0  0
   -0.1232   -1.5653   -0.8936 H   0  0  0  0  0  0  0  0  0  0  0  0
  1  2  1  0  0  0  0
  1  3  1  0  0  0  0
  1  5  1  0  0  0  0
  2  6  1  0  0  0  0
  2  8  1  0  0  0  0
  4  1  1  0  0  0  0
  6 10  1  0  0  0  0
  7  2  1  0  0  0  0
  9 13  1  0  0  0  0
  9  6  1  0  0  0  0
  9 12  1  0  0  0  0
 11  6  1  0  0  0  0
 14  9  1  0  0  0  0
M  END
$$$$
