14
butane_opt
C  -3.968982   0.244885  -0.049214
C  -2.742936  -0.593218   0.046604
H  -4.851491  -0.463388   0.549507
H  -4.057570   1.261465  -1.175984
H  -3.623224   0.551206   0.632674
C  -1.408637   0.215364   0.098919
H  -2.702159  -1.214225  -0.763888
H  -3.000225  -1.146844   1.033533
C  -0.105166  -0.730473  -0.009981
H  -1.335798   1.099164   1.084492
H  -1.442898   0.810056  -0.770321
H  -0.049427  -1.259358   0.792402
H   0.789130  -0.140550  -0.017802
H  -0.051503  -1.610871  -1.010041
