butane_opt
 OpenBabel08242015393D

 14 13  0  0  0  0  0  0  0  0999 V2000
   -3.9525    0.2680    0.0368 C   0  0  0  0  0  0  0  0  0  0  0  0
   -2.6865   -0.6189    0.0324 C   0  0  0  0  0  0  0  0  0  0  0  0
   -4.8699   -0.3283   -0.1126 H   0  0  0  0  0  0  0  0  0  0  0  0
   -3.9100    0.7915   -0.7795 H   0  0  0  0  0  0  0  0  0  0  0  0
   -4.0188    1.0303    0.9436 H   0  0  0  0  0  0  0  0  0  0  0  0
   -1.4081    0.1791   -0.0112 C   0  0  0  0  0  0  0  0  0  0  0  0
   -2.6701   -1.3375   -0.8391 H   0  0  0  0  0  0  0  0  0  0  0  0
   -2.6837   -1.2403    0.9264 H   0  0  0  0  0  0  0  0  0  0  0  0
   -0.1669   -0.6886    0.0446 C   0  0  0  0  0  0  0  0  0  0  0  0
   -1.3697    0.8304    0.8167 H   0  0  0  0  0  0  0  0  0  0  0  0
   -1.3563    0.8571   -0.9157 H   0  0  0  0  0  0  0  0  0  0  0  0
   -0.1462   -1.3728    0.9822 H   0  0  0  0  0  0  0  0  0  0  0  0
    0.7639   -0.0851   -0.0176 H   0  0  0  0  0  0  0  0  0  0  0  0
   -0.1913   -1.2977   -0.7776 H   0  0  0  0  0  0  0  0  0  0  0  0
  1  5  1  0  0  0  0
  2  1  1  0  0  0  0
  2  8  1  0  0  0  0
  3  1  1  0  0  0  0
  4  1  1  0  0  0  0
  6  2  1  0  0  0  0
  6  9  1  0  0  0  0
  6 10  1  0  0  0  0
  7  2  1  0  0  0  0
  9 12  1  0  0  0  0
 11  6  1  0  0  0  0
 13  9  1  0  0  0  0
 14  9  1  0  0  0  0
M  END
$$$$
