butane_opt
 OpenBabel08242015393D

 14 13  0  0  0  0  0  0  0  0999 V2000
   -3.9344    0.3099   -0.1075 C   0  0  0  0  0  0  0  0  0  0  0  0
   -2.6466   -0.6282    0.2019 C   0  0  0  0  0  0  0  0  0  0  0  0
   -4.9955   -0.3960   -0.4582 H   0  0  0  0  0  0  0  0  0  0  0  0
   -3.7738    0.6033   -0.8634 H   0  0  0  0  0  0  0  0  0  0  0  0
   -4.1691    1.1943    0.8868 H   0  0  0  0  0  0  0  0  0  0  0  0
   -1.4219    0.1206    0.0876 C   0  0  0  0  0  0  0  0  0  0  0  0
   -2.5205   -1.1514   -0.5393 H   0  0  0  0  0  0  0  0  0  0  0  0
   -2.8132   -1.5564    1.2396 H   0  0  0  0  0  0  0  0  0  0  0  0
   -0.1881   -0.6670   -0.0759 C   0  0  0  0  0  0  0  0  0  0  0  0
   -1.1883    0.8932    1.0435 H   0  0  0  0  0  0  0  0  0  0  0  0
   -1.5540    0.7256   -0.7966 H   0  0  0  0  0  0  0  0  0  0  0  0
   -0.0195   -1.0882    0.7066 H   0  0  0  0  0  0  0  0  0  0  0  0
    0.7050    0.0076   -0.0262 H   0  0  0  0  0  0  0  0  0  0  0  0
   -0.4028   -1.3412   -0.9823 H   0  0  0  0  0  0  0  0  0  0  0  0
  1  2  1  0  0  0  0
  1  5  1  0  0  0  0
  2  8  1  0  0  0  0
  3  1  1  0  0  0  0
  4  1  1  0  0  0  0
  6  2  1  0  0  0  0
  6 10  1  0  0  0  0
  7  2  1  0  0  0  0
  9 13  1  0  0  0  0
  9  6  1  0  0  0  0
  9 12  1  0  0  0  0
 11  6  1  0  0  0  0
 14  9  1  0  0  0  0
M  END
$$$$
