14
butane_opt
C  -3.955936   0.255951   0.040871
C  -2.710181  -0.601475   0.022101
H  -4.894864  -0.355072   0.040374
H  -3.973936   0.808416  -0.832222
H  -3.944349   0.968835   0.914330
C  -1.395151   0.195124  -0.021081
H  -2.785343  -1.279662  -0.823085
H  -2.689592  -1.200045   0.898628
C  -0.142573  -0.704708   0.064107
H  -1.419954   0.809040   0.788493
H  -1.328906   0.883964  -0.976331
H  -0.159663  -1.256831   0.898775
H   0.725506  -0.156042   0.079329
H  -0.095332  -1.444930  -0.828222
