butane_opt
 OpenBabel08242015393D

 14 13  0  0  0  0  0  0  0  0999 V2000
   -3.9661    0.2481    0.0408 C   0  0  0  0  0  0  0  0  0  0  0  0
   -2.7310   -0.5937    0.0851 C   0  0  0  0  0  0  0  0  0  0  0  0
   -4.8805   -0.3308   -0.3907 H   0  0  0  0  0  0  0  0  0  0  0  0
   -3.8498    0.5498   -0.6342 H   0  0  0  0  0  0  0  0  0  0  0  0
   -4.0307    1.0792    1.0030 H   0  0  0  0  0  0  0  0  0  0  0  0
   -1.3939    0.2358   -0.0697 C   0  0  0  0  0  0  0  0  0  0  0  0
   -2.9082   -1.1872   -0.8205 H   0  0  0  0  0  0  0  0  0  0  0  0
   -2.7564   -1.2111    0.9595 H   0  0  0  0  0  0  0  0  0  0  0  0
   -0.0964   -0.7347    0.0504 C   0  0  0  0  0  0  0  0  0  0  0  0
   -1.4843    0.8879    0.7451 H   0  0  0  0  0  0  0  0  0  0  0  0
   -1.3188    0.7850   -0.9247 H   0  0  0  0  0  0  0  0  0  0  0  0
   -0.2529   -1.3710    0.8977 H   0  0  0  0  0  0  0  0  0  0  0  0
    0.7634   -0.1637    0.1196 H   0  0  0  0  0  0  0  0  0  0  0  0
   -0.0385   -1.4007   -0.7932 H   0  0  0  0  0  0  0  0  0  0  0  0
  1  2  1  0  0  0  0
  1  5  1  0  0  0  0
  2  8  1  0  0  0  0
  3  1  1  0  0  0  0
  4  1  1  0  0  0  0
  6  9  1  0  0  0  0
  6  2  1  0  0  0  0
  6 10  1  0  0  0  0
  7  2  1  0  0  0  0
  9 13  1  0  0  0  0
  9 12  1  0  0  0  0
 11  6  1  0  0  0  0
 14  9  1  0  0  0  0
M  END
$$$$
