14
butane_opt
C  -3.962113   0.265450   0.077272
C  -2.698017  -0.625266  -0.003992
H  -4.919248  -0.316356   0.186773
H  -3.933799   0.797911  -0.788715
H  -3.811043   1.121315   1.056965
C  -1.373536   0.170609  -0.103233
H  -2.673108  -1.262980  -0.916595
H  -2.543688  -1.134586   0.823690
C  -0.197368  -0.698416   0.096928
H  -1.353495   0.889025   0.733513
H  -1.371540   0.787372  -1.005991
H  -0.480438  -1.295793   1.063459
H   0.787626  -0.052320   0.285366
H   0.052759  -1.375936  -0.783375
