14
butane_opt
C  -4.007361   0.323160   0.125077
C  -2.692081  -0.673390  -0.040635
H  -4.943492  -0.284774  -0.057514
H  -4.011504   0.729530  -0.667541
H  -4.118631   1.050147   0.985635
C  -1.362708   0.159705  -0.114214
H  -2.840370  -1.250533  -0.862467
H  -2.519821  -1.261480   0.836673
C  -0.158837  -0.663263   0.126108
H  -1.279554   0.721740   0.651365
H  -1.221958   0.785497  -1.091034
H  -0.384160  -1.227473   0.960728
H   0.858935   0.019709   0.238360
H   0.072573  -1.503887  -0.720397
