butane_opt
 OpenBabel08242015393D

 14 13  0  0  0  0  0  0  0  0999 V2000
   -3.9688    0.2263    0.1324 C   0  0  0  0  0  0  0  0  0  0  0  0
   -2.7250   -0.5924   -0.0604 C   0  0  0  0  0  0  0  0  0  0  0  0
   -4.9449   -0.4470    0.0750 H   0  0  0  0  0  0  0  0  0  0  0  0
   -4.0052    0.8126   -0.7429 H   0  0  0  0  0  0  0  0  0  0  0  0
   -3.9144    1.0432    1.0888 H   0  0  0  0  0  0  0  0  0  0  0  0
   -1.3964    0.2397   -0.1365 C   0  0  0  0  0  0  0  0  0  0  0  0
   -2.8356   -1.1932   -0.8586 H   0  0  0  0  0  0  0  0  0  0  0  0
   -2.6417   -1.2228    0.8473 H   0  0  0  0  0  0  0  0  0  0  0  0
   -0.0889   -0.7303    0.1253 C   0  0  0  0  0  0  0  0  0  0  0  0
   -1.4679    0.8115    0.6478 H   0  0  0  0  0  0  0  0  0  0  0  0
   -1.5541    0.8623   -1.0522 H   0  0  0  0  0  0  0  0  0  0  0  0
   -0.3702   -1.2817    0.9828 H   0  0  0  0  0  0  0  0  0  0  0  0
    0.7256   -0.1667    0.5153 H   0  0  0  0  0  0  0  0  0  0  0  0
    0.1648   -1.4372   -0.7780 H   0  0  0  0  0  0  0  0  0  0  0  0
  1  5  1  0  0  0  0
  2  1  1  0  0  0  0
  2  8  1  0  0  0  0
  3  1  1  0  0  0  0
  4  1  1  0  0  0  0
  6  2  1  0  0  0  0
  6  9  1  0  0  0  0
  6 10  1  0  0  0  0
  7  2  1  0  0  0  0
  9 13  1  0  0  0  0
  9 12  1  0  0  0  0
 11  6  1  0  0  0  0
 14  9  1  0  0  0  0
M  END
$$$$
