14
butane_opt
C  -3.954786   0.230139   0.103293
C  -2.741527  -0.604928  -0.080107
H  -4.915167  -0.425860   0.353891
H  -4.161198   0.990692  -0.860874
H  -3.759282   0.899091   0.942860
C  -1.386390   0.264050  -0.049371
H  -2.785773  -1.429320  -1.030899
H  -2.666087  -1.057344   0.687661
C  -0.148811  -0.742409   0.136202
H  -1.561960   0.839867   0.675694
H  -1.151189   0.936956  -0.911998
H   0.000218  -1.463967   1.021352
H   0.752147  -0.239032  -0.152473
H   0.030228  -1.287979  -0.624994
