14
butane_opt
C  -3.919027   0.280733  -0.034458
C  -2.676161  -0.632644   0.142763
H  -4.822972  -0.226163  -0.280902
H  -3.872437   0.908071  -0.877224
H  -4.195518   0.799292   0.684228
C  -1.387137   0.182799   0.041130
H  -2.687219  -1.224243  -0.612104
H  -2.767387  -1.286448   1.055905
C  -0.211708  -0.679888  -0.028438
H  -1.270169   0.977351   0.985669
H  -1.398930   0.577746  -0.774069
H  -0.151324  -1.210205   0.772209
H   0.681647  -0.063082  -0.028669
H  -0.217226  -1.539973  -0.969432
