butane_opt
 OpenBabel08242015393D

 14 13  0  0  0  0  0  0  0  0999 V2000
   -3.9173    0.2911   -0.0445 C   0  0  0  0  0  0  0  0  0  0  0  0
   -2.6653   -0.6496    0.1696 C   0  0  0  0  0  0  0  0  0  0  0  0
   -4.8736   -0.3416   -0.2010 H   0  0  0  0  0  0  0  0  0  0  0  0
   -3.8528    0.9552   -1.0878 H   0  0  0  0  0  0  0  0  0  0  0  0
   -4.0823    0.7863    0.6530 H   0  0  0  0  0  0  0  0  0  0  0  0
   -1.4164    0.1631    0.0713 C   0  0  0  0  0  0  0  0  0  0  0  0
   -2.6237   -1.2609   -0.5726 H   0  0  0  0  0  0  0  0  0  0  0  0
   -2.6805   -1.2681    1.0595 H   0  0  0  0  0  0  0  0  0  0  0  0
   -0.2009   -0.6616   -0.0542 C   0  0  0  0  0  0  0  0  0  0  0  0
   -1.2592    0.8012    0.9270 H   0  0  0  0  0  0  0  0  0  0  0  0
   -1.6104    0.8196   -0.8768 H   0  0  0  0  0  0  0  0  0  0  0  0
   -0.2166   -0.9020    0.5797 H   0  0  0  0  0  0  0  0  0  0  0  0
    0.6147   -0.1515    0.3029 H   0  0  0  0  0  0  0  0  0  0  0  0
   -0.0489   -1.6376   -1.0916 H   0  0  0  0  0  0  0  0  0  0  0  0
  1  2  1  0  0  0  0
  1  5  1  0  0  0  0
  2  8  1  0  0  0  0
  3  1  1  0  0  0  0
  4  1  1  0  0  0  0
  6  2  1  0  0  0  0
  6 10  1  0  0  0  0
  7  2  1  0  0  0  0
  9  6  1  0  0  0  0
  9 13  1  0  0  0  0
  9 12  1  0  0  0  0
 11  6  1  0  0  0  0
 14  9  1  0  0  0  0
M  END
$$$$
