butane_opt
 OpenBabel08242015393D

 14 13  0  0  0  0  0  0  0  0999 V2000
   -3.9582    0.2945    0.0026 C   0  0  0  0  0  0  0  0  0  0  0  0
   -2.6895   -0.6377    0.0645 C   0  0  0  0  0  0  0  0  0  0  0  0
   -4.7452   -0.1557    0.0192 H   0  0  0  0  0  0  0  0  0  0  0  0
   -3.9938    0.9074   -0.9835 H   0  0  0  0  0  0  0  0  0  0  0  0
   -3.9720    0.9434    0.8365 H   0  0  0  0  0  0  0  0  0  0  0  0
   -1.4080    0.1334   -0.0010 C   0  0  0  0  0  0  0  0  0  0  0  0
   -2.6959   -1.2072   -0.6680 H   0  0  0  0  0  0  0  0  0  0  0  0
   -2.6739   -1.5717    1.2058 H   0  0  0  0  0  0  0  0  0  0  0  0
   -0.1604   -0.6594    0.0244 C   0  0  0  0  0  0  0  0  0  0  0  0
   -1.3965    0.7927    0.8852 H   0  0  0  0  0  0  0  0  0  0  0  0
   -1.4411    0.6871   -0.9160 H   0  0  0  0  0  0  0  0  0  0  0  0
   -0.3403   -0.8266    0.6710 H   0  0  0  0  0  0  0  0  0  0  0  0
    0.8090    0.0490    0.3024 H   0  0  0  0  0  0  0  0  0  0  0  0
   -0.0202   -1.6183   -1.0539 H   0  0  0  0  0  0  0  0  0  0  0  0
  1  3  1  0  0  0  0
  1  2  1  0  0  0  0
  1  5  1  0  0  0  0
  2  8  1  0  0  0  0
  4  1  1  0  0  0  0
  6  9  1  0  0  0  0
  6  2  1  0  0  0  0
  6 10  1  0  0  0  0
  7  2  1  0  0  0  0
  9 13  1  0  0  0  0
  9 12  1  0  0  0  0
 11  6  1  0  0  0  0
 14  9  1  0  0  0  0
M  END
$$$$
