butane_opt
 OpenBabel08242015393D

 14 12  0  0  0  0  0  0  0  0999 V2000
   -3.9230    0.2895   -0.0252 C   0  0  0  0  0  0  0  0  0  0  0  0
   -2.6985   -0.6429    0.0405 C   0  0  0  0  0  0  0  0  0  0  0  0
   -4.8578   -0.3113    0.4602 H   0  0  0  0  0  0  0  0  0  0  0  0
   -4.1499    1.2588   -1.1823 H   0  0  0  0  0  0  0  0  0  0  0  0
   -3.8142    0.7715    0.6545 H   0  0  0  0  0  0  0  0  0  0  0  0
   -1.3837    0.1323    0.0746 C   0  0  0  0  0  0  0  0  0  0  0  0
   -2.7129   -1.1581   -0.6955 H   0  0  0  0  0  0  0  0  0  0  0  0
   -2.7350   -1.3112    1.0024 H   0  0  0  0  0  0  0  0  0  0  0  0
   -0.1885   -0.6741   -0.0142 C   0  0  0  0  0  0  0  0  0  0  0  0
   -1.4014    0.8968    1.0098 H   0  0  0  0  0  0  0  0  0  0  0  0
   -1.5368    0.6213   -0.7513 H   0  0  0  0  0  0  0  0  0  0  0  0
   -0.3102   -1.0406    0.7879 H   0  0  0  0  0  0  0  0  0  0  0  0
    0.8684    0.0169    0.1757 H   0  0  0  0  0  0  0  0  0  0  0  0
   -0.0705   -1.4511   -0.9784 H   0  0  0  0  0  0  0  0  0  0  0  0
  1  2  1  0  0  0  0
  1  3  1  0  0  0  0
  1  5  1  0  0  0  0
  2  6  1  0  0  0  0
  2  8  1  0  0  0  0
  6 10  1  0  0  0  0
  7  2  1  0  0  0  0
  9  6  1  0  0  0  0
  9 13  1  0  0  0  0
  9 12  1  0  0  0  0
 11  6  1  0  0  0  0
 14  9  1  0  0  0  0
M  RAD  2   1   2   4   2
M  END
$$$$
