14
butane_opt
C  -3.965661   0.291202  -0.079865
C  -2.669857  -0.637719   0.118833
H  -4.829493  -0.238804   0.009289
H  -3.866750   0.910149  -1.054069
H  -3.958306   0.766371   0.618629
C  -1.422011   0.166160   0.168601
H  -2.400338  -1.378460  -0.665820
H  -2.828317  -1.270243   1.018512
C  -0.173340  -0.676903  -0.075078
H  -1.252147   0.833308   1.026948
H  -1.436311   0.809859  -0.726861
H   0.052341  -1.344963   0.841244
H   0.715707   0.006890  -0.265178
H  -0.473020  -1.261689  -0.931533
