butane_opt
 OpenBabel08242015393D

 14 13  0  0  0  0  0  0  0  0999 V2000
   -3.9999    0.2858   -0.0360 C   0  0  0  0  0  0  0  0  0  0  0  0
   -2.7088   -0.6209    0.0576 C   0  0  0  0  0  0  0  0  0  0  0  0
   -4.8608   -0.3298    0.3709 H   0  0  0  0  0  0  0  0  0  0  0  0
   -4.1062    1.1724   -1.1156 H   0  0  0  0  0  0  0  0  0  0  0  0
   -3.8154    0.6801    0.6982 H   0  0  0  0  0  0  0  0  0  0  0  0
   -1.3833    0.1662    0.0917 C   0  0  0  0  0  0  0  0  0  0  0  0
   -2.6104   -1.4059   -0.8155 H   0  0  0  0  0  0  0  0  0  0  0  0
   -2.8114   -1.2025    0.9379 H   0  0  0  0  0  0  0  0  0  0  0  0
   -0.1505   -0.6775   -0.0223 C   0  0  0  0  0  0  0  0  0  0  0  0
   -1.2915    0.9199    1.0439 H   0  0  0  0  0  0  0  0  0  0  0  0
   -1.2453    0.6988   -0.8185 H   0  0  0  0  0  0  0  0  0  0  0  0
    0.0624   -1.3698    0.9232 H   0  0  0  0  0  0  0  0  0  0  0  0
    0.7768   -0.0028   -0.0179 H   0  0  0  0  0  0  0  0  0  0  0  0
   -0.2401   -1.4390   -0.8759 H   0  0  0  0  0  0  0  0  0  0  0  0
  1  2  1  0  0  0  0
  1  3  1  0  0  0  0
  1  5  1  0  0  0  0
  2  6  1  0  0  0  0
  2  8  1  0  0  0  0
  4  1  1  0  0  0  0
  6 10  1  0  0  0  0
  7  2  1  0  0  0  0
  9 13  1  0  0  0  0
  9  6  1  0  0  0  0
  9 12  1  0  0  0  0
 11  6  1  0  0  0  0
 14  9  1  0  0  0  0
M  END
$$$$
