14
butane_opt
C  -3.894721   0.221939   0.128404
C  -2.694902  -0.572353  -0.076454
H  -4.738121  -0.369016   0.436774
H  -4.040922   1.042724  -0.947087
H  -3.859653   0.781814   0.929547
C  -1.439774   0.219838  -0.080988
H  -2.791367  -1.468326  -1.070546
H  -2.547320  -1.173498   0.660512
C  -0.196066  -0.720093   0.116071
H  -1.598003   0.862600   0.719200
H  -1.354992   0.839272  -0.980547
H  -0.239759  -1.333821   1.080730
H   0.767297  -0.097084   0.221321
H   0.086276  -1.315502  -0.663502
