14
butane_opt
C  -3.951144   0.266088   0.048887
C  -2.704090  -0.611966   0.005758
H  -4.888019  -0.348745   0.126426
H  -4.069873   0.977205  -0.908845
H  -3.948887   0.859266   0.860700
C  -1.389720   0.184272  -0.008199
H  -2.756071  -1.362469  -0.887339
H  -2.689369  -1.178959   0.828786
C  -0.154940  -0.691769   0.060446
H  -1.383465   0.838106   0.823095
H  -1.387169   0.792138  -0.884913
H  -0.132900  -1.359420   0.961272
H   0.760183  -0.103557   0.016023
H  -0.123502  -1.338977  -0.783448
