14
butane_opt
C  -3.934076   0.284059   0.048256
C  -2.670910  -0.650655   0.089993
H  -4.760671  -0.256127  -0.496102
H  -3.722088   0.548602  -0.747206
H  -4.307099   1.241535   1.108156
C  -1.402844   0.150734  -0.054308
H  -2.626474  -1.310933  -0.835573
H  -2.455048  -1.174304   0.843341
C  -0.212359  -0.652269   0.058403
H  -1.264483   0.740603   0.745499
H  -1.410417   0.872808  -1.031040
H  -0.146090  -1.326828   0.981260
H   0.646529  -0.103789  -0.008438
H  -0.324780  -1.298478  -0.772995
