14
butane_opt
C  -3.930940   0.235349  -0.088179
C  -2.697932  -0.554403   0.104199
H  -4.936880  -0.471208  -0.128852
H  -3.822178   0.817516  -1.009831
H  -3.927368   0.847342   0.817083
C  -1.416944   0.219096   0.156031
H  -2.596386  -1.113365  -0.638022
H  -2.919998  -1.292585   1.097937
C  -0.159939  -0.718143  -0.067322
H  -1.190401   1.014054   1.063061
H  -1.525936   0.656502  -0.597095
H   0.039226  -1.613380   0.988172
H   0.658501  -0.201884  -0.530707
H  -0.307317  -1.310007  -0.860336
