14
butane_opt
C  -3.945370   0.237834   0.097181
C  -2.731210  -0.561082  -0.033006
H  -4.891021  -0.460170  -0.351882
H  -3.893248   0.372175  -0.483977
H  -4.016464   1.325183   1.323493
C  -1.408461   0.198698  -0.098801
H  -2.783060  -1.151859  -0.809288
H  -2.900818  -1.225500   0.909003
C  -0.093038  -0.723587   0.100484
H  -1.512912   0.818198   0.582317
H  -1.368925   0.912684  -1.060184
H  -0.104413  -1.527012   1.157984
H   0.705288  -0.276220   0.064978
H  -0.088191  -1.115134  -0.598117
