butane_opt
 OpenBabel08242015393D

 14 11  0  0  0  0  0  0  0  0999 V2000
   -3.8840    0.2242    0.0932 C   0  0  0  0  0  0  0  0  0  0  0  0
   -2.7205   -0.5644    0.0070 C   0  0  0  0  0  0  0  0  0  0  0  0
   -4.7770   -0.3478   -0.3720 H   0  0  0  0  0  0  0  0  0  0  0  0
   -3.7035    0.3759   -0.5621 H   0  0  0  0  0  0  0  0  0  0  0  0
   -4.0743    1.3099    1.2080 H   0  0  0  0  0  0  0  0  0  0  0  0
   -1.4082    0.2251   -0.1028 C   0  0  0  0  0  0  0  0  0  0  0  0
   -2.7835   -1.3408   -0.8704 H   0  0  0  0  0  0  0  0  0  0  0  0
   -2.8076   -1.1462    0.8185 H   0  0  0  0  0  0  0  0  0  0  0  0
   -0.1623   -0.7306    0.1337 C   0  0  0  0  0  0  0  0  0  0  0  0
   -1.6532    0.6963    0.6026 H   0  0  0  0  0  0  0  0  0  0  0  0
   -1.4176    1.0329   -1.0656 H   0  0  0  0  0  0  0  0  0  0  0  0
   -0.0831   -1.3870    1.0503 H   0  0  0  0  0  0  0  0  0  0  0  0
    0.6264   -0.2325   -0.1914 H   0  0  0  0  0  0  0  0  0  0  0  0
   -0.2321   -1.3010   -0.6999 H   0  0  0  0  0  0  0  0  0  0  0  0
  2  1  1  0  0  0  0
  2  8  1  0  0  0  0
  3  1  1  0  0  0  0
  4  1  1  0  0  0  0
  6  9  1  0  0  0  0
  6 10  1  0  0  0  0
  7  2  1  0  0  0  0
  9 12  1  0  0  0  0
 11  6  1  0  0  0  0
 13  9  1  0  0  0  0
 14  9  1  0  0  0  0
M  RAD  4   1   2   2   2   5   2   6   2
M  END
$$$$
