14
butane_opt
C  -3.949928   0.274379   0.021757
C  -2.688363  -0.622201   0.035185
H  -4.860957  -0.306565  -0.015854
H  -3.944985   0.872127  -0.890976
H  -4.011219   0.938653   0.866769
C  -1.400073   0.174987   0.029056
H  -2.683553  -1.373658  -0.852383
H  -2.639209  -1.229822   0.886917
C  -0.175917  -0.690877   0.028899
H  -1.411360   0.856425   0.865710
H  -1.363850   0.783896  -0.862572
H  -0.097837  -1.385615   0.980306
H   0.777044  -0.036281  -0.154956
H  -0.220357  -1.213722  -0.754890
