14
butane_opt
C  -3.949916   0.299403   0.029338
C  -2.696067  -0.656814   0.013994
H  -4.740638  -0.257035  -0.047318
H  -3.959807   0.809521  -0.835819
H  -4.080640   0.937674   0.857934
C  -1.402861   0.159257   0.040775
H  -2.558049  -1.390092  -0.813029
H  -2.642189  -1.232279   0.904047
C  -0.188434  -0.655554   0.045125
H  -1.490080   0.734494   0.867219
H  -1.248532   0.847743  -0.942255
H   0.022810  -1.321878   0.948906
H   0.712539  -0.035142  -0.334374
H  -0.223702  -1.288919  -0.725029
