14
butane_opt
C  -3.943563   0.253073   0.038577
C  -2.707189  -0.605842   0.023965
H  -4.862377  -0.350401  -0.062453
H  -3.958069   0.770507  -0.777986
H  -3.999133   1.016547   0.966139
C  -1.408462   0.204305  -0.026310
H  -2.746248  -1.281912  -0.817310
H  -2.707381  -1.249724   0.946165
C  -0.153069  -0.703354   0.047666
H  -1.312271   0.868675   0.819298
H  -1.391702   0.856850  -0.911489
H  -0.140562  -1.393670   0.997907
H   0.715137  -0.134696   0.087451
H  -0.063284  -1.366535  -0.797565
