14
butane_opt
C  -3.958289   0.278284  -0.054331
C  -2.697119  -0.639817   0.063019
H  -4.836061  -0.324052   0.314074
H  -4.242264   1.148857  -1.027227
H  -3.891450   0.695254   0.639666
C  -1.412495   0.152226   0.084713
H  -2.609902  -1.251510  -0.739599
H  -2.940411  -1.276928   1.049857
C  -0.119499  -0.663793  -0.018273
H  -1.344039   1.097006   1.186987
H  -1.464661   0.709026  -0.684921
H  -0.070542  -1.279732   0.822617
H   0.786102  -0.140584  -0.186815
H  -0.166143  -1.368837  -0.871026
