14
butane_opt
C  -3.914712   0.237710   0.030982
C  -2.730160  -0.577571   0.048058
H  -4.838901  -0.307061  -0.216165
H  -3.803682   0.384939  -0.542893
H  -3.990462   1.208372   1.189905
C  -1.402873   0.238982  -0.068777
H  -2.689059  -1.340246  -0.864962
H  -2.711148  -1.199001   0.958171
C  -0.186461  -0.745063   0.074647
H  -1.461239   0.758143   0.746254
H  -1.312712   1.035236  -1.097205
H  -0.088101  -1.426817   1.006642
H   0.723806  -0.086196   0.067971
H  -0.043176  -1.360604  -0.777256
