14
butane_opt
C  -3.908554   0.323062  -0.046153
C  -2.690667  -0.656534   0.168332
H  -4.864219  -0.267918   0.046618
H  -3.839391   1.075583  -1.110971
H  -4.164658   0.675249   0.595855
C  -1.387589   0.155031   0.059891
H  -2.745325  -1.325244  -0.644039
H  -2.678500  -1.441575   1.078517
C  -0.197775  -0.664325  -0.064302
H  -1.463780   0.799115   0.886678
H  -1.423761   0.733332  -0.793388
H  -0.342071  -0.818941   0.510225
H   0.810359  -0.052854   0.548844
H  -0.117497  -1.710300  -1.152962
