14
butane_opt
C  -3.934690   0.233708  -0.090068
C  -2.735198  -0.588478   0.167371
H  -4.843888  -0.314709  -0.284135
H  -3.850806   0.883794  -0.965598
H  -4.148144   0.881586   0.735633
C  -1.409519   0.233921   0.129072
H  -2.799393  -1.371329  -0.755396
H  -2.933743  -1.235439   1.069039
C  -0.096557  -0.713015  -0.075002
H  -1.198603   0.920961   1.115170
H  -1.631513   0.810055  -0.699526
H   0.128260  -1.473990   0.858524
H   0.654733  -0.276736  -0.321922
H  -0.273794  -1.292067  -0.872339
