butane_opt
 OpenBabel08242015393D

 14 13  0  0  0  0  0  0  0  0999 V2000
   -3.8909    0.2902   -0.0217 C   0  0  0  0  0  0  0  0  0  0  0  0
   -2.6892   -0.6676    0.0645 C   0  0  0  0  0  0  0  0  0  0  0  0
   -4.7742   -0.3150   -0.1578 H   0  0  0  0  0  0  0  0  0  0  0  0
   -3.8521    1.1205   -1.0106 H   0  0  0  0  0  0  0  0  0  0  0  0
   -4.1282    0.8532    0.7271 H   0  0  0  0  0  0  0  0  0  0  0  0
   -1.4397    0.1617    0.1212 C   0  0  0  0  0  0  0  0  0  0  0  0
   -2.7016   -1.3163   -0.8174 H   0  0  0  0  0  0  0  0  0  0  0  0
   -2.6478   -1.1712    0.9132 H   0  0  0  0  0  0  0  0  0  0  0  0
   -0.1938   -0.6824   -0.0225 C   0  0  0  0  0  0  0  0  0  0  0  0
   -1.2104    0.8859    1.0626 H   0  0  0  0  0  0  0  0  0  0  0  0
   -1.4366    0.7883   -0.6902 H   0  0  0  0  0  0  0  0  0  0  0  0
    0.0556   -1.4966    0.9955 H   0  0  0  0  0  0  0  0  0  0  0  0
    0.7598    0.0333   -0.4694 H   0  0  0  0  0  0  0  0  0  0  0  0
   -0.5248   -1.0786   -0.8065 H   0  0  0  0  0  0  0  0  0  0  0  0
  1  2  1  0  0  0  0
  1  5  1  0  0  0  0
  2  6  1  0  0  0  0
  2  8  1  0  0  0  0
  3  1  1  0  0  0  0
  4  1  1  0  0  0  0
  6 10  1  0  0  0  0
  7  2  1  0  0  0  0
  9  6  1  0  0  0  0
  9 12  1  0  0  0  0
 11  6  1  0  0  0  0
 13  9  1  0  0  0  0
 14  9  1  0  0  0  0
M  END
$$$$
