butane_opt
 OpenBabel08242015393D

 14 13  0  0  0  0  0  0  0  0999 V2000
   -3.9946    0.3120    0.1018 C   0  0  0  0  0  0  0  0  0  0  0  0
   -2.6749   -0.6703   -0.0268 C   0  0  0  0  0  0  0  0  0  0  0  0
   -4.9072   -0.3370   -0.2930 H   0  0  0  0  0  0  0  0  0  0  0  0
   -4.1510    0.5184   -0.5284 H   0  0  0  0  0  0  0  0  0  0  0  0
   -4.0563    1.3153    1.2148 H   0  0  0  0  0  0  0  0  0  0  0  0
   -1.3600    0.1623   -0.1099 C   0  0  0  0  0  0  0  0  0  0  0  0
   -2.6892   -1.3318   -0.9119 H   0  0  0  0  0  0  0  0  0  0  0  0
   -2.6370   -1.3603    0.9115 H   0  0  0  0  0  0  0  0  0  0  0  0
   -0.1662   -0.6555    0.1315 C   0  0  0  0  0  0  0  0  0  0  0  0
   -1.3785    0.6707    0.6575 H   0  0  0  0  0  0  0  0  0  0  0  0
   -1.4038    1.0265   -1.1443 H   0  0  0  0  0  0  0  0  0  0  0  0
   -0.2726   -1.3891    1.1023 H   0  0  0  0  0  0  0  0  0  0  0  0
    0.8532   -0.0243    0.1167 H   0  0  0  0  0  0  0  0  0  0  0  0
   -0.0430   -1.3452   -0.8073 H   0  0  0  0  0  0  0  0  0  0  0  0
  1  5  1  0  0  0  0
  2  1  1  0  0  0  0
  2  8  1  0  0  0  0
  3  1  1  0  0  0  0
  4  1  1  0  0  0  0
  6  2  1  0  0  0  0
  6  9  1  0  0  0  0
  6 10  1  0  0  0  0
  7  2  1  0  0  0  0
  9 12  1  0  0  0  0
 11  6  1  0  0  0  0
 13  9  1  0  0  0  0
 14  9  1  0  0  0  0
M  END
$$$$
