butane_opt
 OpenBabel08242015393D

 14 13  0  0  0  0  0  0  0  0999 V2000
   -3.9180    0.2341    0.0940 C   0  0  0  0  0  0  0  0  0  0  0  0
   -2.6925   -0.5718   -0.0110 C   0  0  0  0  0  0  0  0  0  0  0  0
   -4.8836   -0.4577   -0.0476 H   0  0  0  0  0  0  0  0  0  0  0  0
   -3.8774    0.7395   -0.6872 H   0  0  0  0  0  0  0  0  0  0  0  0
   -3.8753    1.1514    1.1868 H   0  0  0  0  0  0  0  0  0  0  0  0
   -1.4427    0.1896   -0.1185 C   0  0  0  0  0  0  0  0  0  0  0  0
   -2.8636   -1.2541   -0.8830 H   0  0  0  0  0  0  0  0  0  0  0  0
   -2.7605   -1.2255    0.8265 H   0  0  0  0  0  0  0  0  0  0  0  0
   -0.1509   -0.7157    0.0883 C   0  0  0  0  0  0  0  0  0  0  0  0
   -1.5522    0.8639    0.7352 H   0  0  0  0  0  0  0  0  0  0  0  0
   -1.4141    0.8556   -1.0328 H   0  0  0  0  0  0  0  0  0  0  0  0
   -0.2678   -1.3847    1.0256 H   0  0  0  0  0  0  0  0  0  0  0  0
    0.8006   -0.0564    0.3408 H   0  0  0  0  0  0  0  0  0  0  0  0
    0.1122   -1.3333   -0.6324 H   0  0  0  0  0  0  0  0  0  0  0  0
  1  5  1  0  0  0  0
  2  1  1  0  0  0  0
  2  8  1  0  0  0  0
  3  1  1  0  0  0  0
  4  1  1  0  0  0  0
  6  2  1  0  0  0  0
  6  9  1  0  0  0  0
  6 10  1  0  0  0  0
  7  2  1  0  0  0  0
  9 13  1  0  0  0  0
  9 12  1  0  0  0  0
 11  6  1  0  0  0  0
 14  9  1  0  0  0  0
M  END
$$$$
