butane_opt
 OpenBabel08242015393D

 14 13  0  0  0  0  0  0  0  0999 V2000
   -3.9117    0.2511   -0.0691 C   0  0  0  0  0  0  0  0  0  0  0  0
   -2.7379   -0.5567    0.0907 C   0  0  0  0  0  0  0  0  0  0  0  0
   -4.8306   -0.4103   -0.0448 H   0  0  0  0  0  0  0  0  0  0  0  0
   -3.7933    0.8621   -0.9703 H   0  0  0  0  0  0  0  0  0  0  0  0
   -3.9141    0.7384    0.7035 H   0  0  0  0  0  0  0  0  0  0  0  0
   -1.4331    0.2022    0.1206 C   0  0  0  0  0  0  0  0  0  0  0  0
   -2.7592   -1.2354   -0.7193 H   0  0  0  0  0  0  0  0  0  0  0  0
   -2.7945   -1.2594    1.1148 H   0  0  0  0  0  0  0  0  0  0  0  0
   -0.1249   -0.7297   -0.0263 C   0  0  0  0  0  0  0  0  0  0  0  0
   -1.3044    1.0039    1.1356 H   0  0  0  0  0  0  0  0  0  0  0  0
   -1.5202    0.7040   -0.7000 H   0  0  0  0  0  0  0  0  0  0  0  0
   -0.0048   -1.4205    0.9434 H   0  0  0  0  0  0  0  0  0  0  0  0
    0.7918   -0.1439   -0.4889 H   0  0  0  0  0  0  0  0  0  0  0  0
   -0.4012   -1.3106   -0.9424 H   0  0  0  0  0  0  0  0  0  0  0  0
  1  3  1  0  0  0  0
  1  2  1  0  0  0  0
  1  5  1  0  0  0  0
  2  6  1  0  0  0  0
  2  8  1  0  0  0  0
  4  1  1  0  0  0  0
  6 10  1  0  0  0  0
  7  2  1  0  0  0  0
  9  6  1  0  0  0  0
  9 12  1  0  0  0  0
 11  6  1  0  0  0  0
 13  9  1  0  0  0  0
 14  9  1  0  0  0  0
M  END
$$$$
