14
butane_opt
C  -3.952022   0.270786  -0.055480
C  -2.710755  -0.643546   0.158697
H  -4.783556  -0.250420  -0.260118
H  -3.924608   0.772949  -0.874425
H  -4.360133   1.134873   0.816842
C  -1.384020   0.194288   0.070069
H  -2.629475  -1.370011  -0.780523
H  -2.770919  -1.373229   1.152077
C  -0.144509  -0.693359  -0.054455
H  -1.339201   0.850568   0.916765
H  -1.386348   0.872751  -0.790526
H  -0.129144  -1.267330   0.815196
H   0.778618  -0.039053  -0.007634
H  -0.162912  -1.349833  -0.954677
