butane_opt
 OpenBabel08242015393D

 14 13  0  0  0  0  0  0  0  0999 V2000
   -3.9666    0.2926    0.0977 C   0  0  0  0  0  0  0  0  0  0  0  0
   -2.6855   -0.6300   -0.0168 C   0  0  0  0  0  0  0  0  0  0  0  0
   -4.7932   -0.2299   -0.2061 H   0  0  0  0  0  0  0  0  0  0  0  0
   -3.9164    0.5415   -0.5857 H   0  0  0  0  0  0  0  0  0  0  0  0
   -4.1662    1.2516    1.2380 H   0  0  0  0  0  0  0  0  0  0  0  0
   -1.3853    0.1394   -0.0887 C   0  0  0  0  0  0  0  0  0  0  0  0
   -2.9479   -1.4413   -0.8957 H   0  0  0  0  0  0  0  0  0  0  0  0
   -2.6516   -1.0613    0.7337 H   0  0  0  0  0  0  0  0  0  0  0  0
   -0.1439   -0.6611    0.1034 C   0  0  0  0  0  0  0  0  0  0  0  0
   -1.3230    0.5755    0.5811 H   0  0  0  0  0  0  0  0  0  0  0  0
   -1.3841    0.9860   -1.1289 H   0  0  0  0  0  0  0  0  0  0  0  0
   -0.4249   -1.5142    1.1909 H   0  0  0  0  0  0  0  0  0  0  0  0
    0.8315   -0.0179    0.1049 H   0  0  0  0  0  0  0  0  0  0  0  0
   -0.0870   -1.2415   -0.6868 H   0  0  0  0  0  0  0  0  0  0  0  0
  1  5  1  0  0  0  0
  2  1  1  0  0  0  0
  2  8  1  0  0  0  0
  3  1  1  0  0  0  0
  4  1  1  0  0  0  0
  6  2  1  0  0  0  0
  6  9  1  0  0  0  0
  6 10  1  0  0  0  0
  7  2  1  0  0  0  0
  9 13  1  0  0  0  0
  9 12  1  0  0  0  0
 11  6  1  0  0  0  0
 14  9  1  0  0  0  0
M  END
$$$$
