14
butane_opt
C  -3.999652   0.243430   0.144391
C  -2.703600  -0.590138  -0.060142
H  -4.900914  -0.397749   0.008450
H  -3.899385   0.724321  -0.727325
H  -3.867447   0.962569   1.103813
C  -1.384670   0.225443  -0.118104
H  -2.739593  -1.417508  -1.015720
H  -2.706608  -1.188868   0.862099
C  -0.119579  -0.717095   0.137645
H  -1.622890   0.754775   0.569077
H  -1.344797   1.083803  -1.185906
H  -0.168219  -1.305426   0.969183
H   0.699355  -0.165627   0.370936
H   0.023012  -1.470371  -0.745297
