butane_opt
 OpenBabel08242015393D

 14 13  0  0  0  0  0  0  0  0999 V2000
   -3.9657    0.2912   -0.0799 C   0  0  0  0  0  0  0  0  0  0  0  0
   -2.6699   -0.6377    0.1188 C   0  0  0  0  0  0  0  0  0  0  0  0
   -4.8295   -0.2388    0.0093 H   0  0  0  0  0  0  0  0  0  0  0  0
   -3.8668    0.9101   -1.0541 H   0  0  0  0  0  0  0  0  0  0  0  0
   -3.9583    0.7664    0.6186 H   0  0  0  0  0  0  0  0  0  0  0  0
   -1.4220    0.1662    0.1686 C   0  0  0  0  0  0  0  0  0  0  0  0
   -2.4003   -1.3785   -0.6658 H   0  0  0  0  0  0  0  0  0  0  0  0
   -2.8283   -1.2702    1.0185 H   0  0  0  0  0  0  0  0  0  0  0  0
   -0.1733   -0.6769   -0.0751 C   0  0  0  0  0  0  0  0  0  0  0  0
   -1.2521    0.8333    1.0269 H   0  0  0  0  0  0  0  0  0  0  0  0
   -1.4363    0.8099   -0.7269 H   0  0  0  0  0  0  0  0  0  0  0  0
    0.0523   -1.3450    0.8412 H   0  0  0  0  0  0  0  0  0  0  0  0
    0.7157    0.0069   -0.2652 H   0  0  0  0  0  0  0  0  0  0  0  0
   -0.4730   -1.2617   -0.9315 H   0  0  0  0  0  0  0  0  0  0  0  0
  1  3  1  0  0  0  0
  1  2  1  0  0  0  0
  1  5  1  0  0  0  0
  2  6  1  0  0  0  0
  2  8  1  0  0  0  0
  4  1  1  0  0  0  0
  6 10  1  0  0  0  0
  7  2  1  0  0  0  0
  9  6  1  0  0  0  0
  9 12  1  0  0  0  0
 11  6  1  0  0  0  0
 13  9  1  0  0  0  0
 14  9  1  0  0  0  0
M  END
$$$$
