14
butane_opt
C  -3.919929   0.217738   0.120392
C  -2.677017  -0.544174  -0.102551
H  -4.946948  -0.446961   0.386168
H  -4.179386   0.866083  -0.748532
H  -3.594912   0.746614   0.951027
C  -1.429956   0.190998  -0.092408
H  -2.814838  -1.255511  -1.065829
H  -2.653446  -1.104196   0.708887
C  -0.177593  -0.733483   0.145245
H  -1.709417   1.022608   0.799530
H  -1.234467   0.944061  -1.021343
H  -0.093186  -1.386707   1.126124
H   0.735411  -0.191332   0.032355
H  -0.057028  -1.270572  -0.598936
