butane_opt
 OpenBabel08242015393D

 14 13  0  0  0  0  0  0  0  0999 V2000
   -3.9296    0.2276    0.1102 C   0  0  0  0  0  0  0  0  0  0  0  0
   -2.6882   -0.5368   -0.0024 C   0  0  0  0  0  0  0  0  0  0  0  0
   -4.9540   -0.3970   -0.2096 H   0  0  0  0  0  0  0  0  0  0  0  0
   -3.7743    0.5261   -0.5805 H   0  0  0  0  0  0  0  0  0  0  0  0
   -3.9607    1.0986    1.1220 H   0  0  0  0  0  0  0  0  0  0  0  0
   -1.4126    0.1897   -0.1097 C   0  0  0  0  0  0  0  0  0  0  0  0
   -2.7605   -1.3939   -0.9328 H   0  0  0  0  0  0  0  0  0  0  0  0
   -2.8255   -1.0507    0.7984 H   0  0  0  0  0  0  0  0  0  0  0  0
   -0.1731   -0.7326    0.1060 C   0  0  0  0  0  0  0  0  0  0  0  0
   -1.3875    0.7879    0.6518 H   0  0  0  0  0  0  0  0  0  0  0  0
   -1.4166    1.0226   -1.1867 H   0  0  0  0  0  0  0  0  0  0  0  0
   -0.3143   -1.3517    1.0872 H   0  0  0  0  0  0  0  0  0  0  0  0
    0.7049   -0.1637    0.1113 H   0  0  0  0  0  0  0  0  0  0  0  0
    0.1174   -1.3528   -0.6320 H   0  0  0  0  0  0  0  0  0  0  0  0
  1  5  1  0  0  0  0
  2  1  1  0  0  0  0
  2  8  1  0  0  0  0
  3  1  1  0  0  0  0
  4  1  1  0  0  0  0
  6  2  1  0  0  0  0
  6  9  1  0  0  0  0
  6 10  1  0  0  0  0
  7  2  1  0  0  0  0
  9 13  1  0  0  0  0
  9 12  1  0  0  0  0
 11  6  1  0  0  0  0
 14  9  1  0  0  0  0
M  END
$$$$
