butane_opt
 OpenBabel08242015393D

 14 13  0  0  0  0  0  0  0  0999 V2000
   -3.9537    0.2750    0.0520 C   0  0  0  0  0  0  0  0  0  0  0  0
   -2.7046   -0.6259    0.0146 C   0  0  0  0  0  0  0  0  0  0  0  0
   -4.8672   -0.3013    0.0615 H   0  0  0  0  0  0  0  0  0  0  0  0
   -3.9964    0.8838   -0.8379 H   0  0  0  0  0  0  0  0  0  0  0  0
   -3.9766    0.8876    0.8779 H   0  0  0  0  0  0  0  0  0  0  0  0
   -1.4005    0.1813   -0.0286 C   0  0  0  0  0  0  0  0  0  0  0  0
   -2.7684   -1.3027   -0.8443 H   0  0  0  0  0  0  0  0  0  0  0  0
   -2.7094   -1.2195    0.8906 H   0  0  0  0  0  0  0  0  0  0  0  0
   -0.1445   -0.6910    0.0564 C   0  0  0  0  0  0  0  0  0  0  0  0
   -1.4018    0.8197    0.7981 H   0  0  0  0  0  0  0  0  0  0  0  0
   -1.3690    0.8397   -0.9181 H   0  0  0  0  0  0  0  0  0  0  0  0
   -0.2000   -1.2552    0.9348 H   0  0  0  0  0  0  0  0  0  0  0  0
    0.7826   -0.0867    0.1610 H   0  0  0  0  0  0  0  0  0  0  0  0
   -0.0818   -1.4127   -0.8243 H   0  0  0  0  0  0  0  0  0  0  0  0
  1  3  1  0  0  0  0
  1  5  1  0  0  0  0
  2  1  1  0  0  0  0
  2  8  1  0  0  0  0
  4  1  1  0  0  0  0
  6  2  1  0  0  0  0
  6  9  1  0  0  0  0
  6 10  1  0  0  0  0
  7  2  1  0  0  0  0
  9 13  1  0  0  0  0
  9 12  1  0  0  0  0
 11  6  1  0  0  0  0
 14  9  1  0  0  0  0
M  END
$$$$
