14
butane_opt
C  -3.916462   0.304312   0.083182
C  -2.671852  -0.666561  -0.007514
H  -4.764613  -0.199142   0.022679
H  -4.002260   0.713152  -0.606919
H  -3.906545   1.027161   1.058835
C  -1.439552   0.157199  -0.115274
H  -2.766390  -1.284381  -0.868888
H  -2.506077  -1.348561   0.868079
C  -0.199715  -0.671262   0.092082
H  -1.338769   0.791739   0.695915
H  -1.356847   0.824420  -0.998656
H  -0.599256  -1.150500   0.962159
H   0.751578   0.079571   0.383520
H   0.171121  -1.405748  -0.721695
