butane_opt
 OpenBabel08242015393D

 14 13  0  0  0  0  0  0  0  0999 V2000
   -3.9398    0.2725   -0.0081 C   0  0  0  0  0  0  0  0  0  0  0  0
   -2.6969   -0.6231    0.0777 C   0  0  0  0  0  0  0  0  0  0  0  0
   -4.8452   -0.3208   -0.0803 H   0  0  0  0  0  0  0  0  0  0  0  0
   -3.9022    0.8415   -0.8869 H   0  0  0  0  0  0  0  0  0  0  0  0
   -4.0257    1.0056    0.8665 H   0  0  0  0  0  0  0  0  0  0  0  0
   -1.4071    0.1736    0.0265 C   0  0  0  0  0  0  0  0  0  0  0  0
   -2.6412   -1.2761   -0.7465 H   0  0  0  0  0  0  0  0  0  0  0  0
   -2.6961   -1.3119    1.0063 H   0  0  0  0  0  0  0  0  0  0  0  0
   -0.1666   -0.6851    0.0011 C   0  0  0  0  0  0  0  0  0  0  0  0
   -1.3328    0.8899    0.9153 H   0  0  0  0  0  0  0  0  0  0  0  0
   -1.4680    0.7508   -0.8565 H   0  0  0  0  0  0  0  0  0  0  0  0
   -0.1682   -1.2853    0.8750 H   0  0  0  0  0  0  0  0  0  0  0  0
    0.7750   -0.0728    0.0289 H   0  0  0  0  0  0  0  0  0  0  0  0
   -0.1950   -1.3398   -0.8335 H   0  0  0  0  0  0  0  0  0  0  0  0
  1  2  1  0  0  0  0
  1  5  1  0  0  0  0
  2  8  1  0  0  0  0
  3  1  1  0  0  0  0
  4  1  1  0  0  0  0
  6  2  1  0  0  0  0
  6 10  1  0  0  0  0
  7  2  1  0  0  0  0
  9  6  1  0  0  0  0
  9 13  1  0  0  0  0
  9 12  1  0  0  0  0
 11  6  1  0  0  0  0
 14  9  1  0  0  0  0
M  END
$$$$
