14
butane_opt
C  -3.952841   0.253200  -0.005036
C  -2.714313  -0.602987   0.073188
H  -4.904000  -0.390162  -0.116953
H  -3.871057   0.838834  -0.885908
H  -4.024423   0.998875   0.885722
C  -1.392875   0.204897   0.033627
H  -2.716804  -1.235755  -0.748843
H  -2.745131  -1.275916   0.997855
C  -0.141602  -0.712443   0.011291
H  -1.376240   0.846126   0.882807
H  -1.422514   0.858662  -0.876576
H  -0.072026  -1.295061   0.867012
H   0.731653  -0.141103  -0.011573
H  -0.189427  -1.402116  -0.906164
