14
butane_opt
C  -3.882114   0.219315   0.094579
C  -2.696576  -0.574986  -0.075471
H  -4.838270  -0.322207   0.546844
H  -4.178641   1.028416  -0.933861
H  -3.652078   0.613526   0.794789
C  -1.443027   0.251125  -0.063137
H  -2.708453  -1.488362  -1.033075
H  -2.726468  -1.126897   0.836142
C  -0.181827  -0.743827   0.097272
H  -1.534422   1.031158   0.841032
H  -1.528845   0.773943  -0.825757
H  -0.309732  -1.345303   1.070614
H   0.774750  -0.125700   0.080707
H   0.132985  -1.317061  -0.605531
