butane_opt
 OpenBabel08242015393D

 14 13  0  0  0  0  0  0  0  0999 V2000
   -3.9621    0.2655    0.0773 C   0  0  0  0  0  0  0  0  0  0  0  0
   -2.6980   -0.6253   -0.0040 C   0  0  0  0  0  0  0  0  0  0  0  0
   -4.9192   -0.3164    0.1868 H   0  0  0  0  0  0  0  0  0  0  0  0
   -3.9338    0.7979   -0.7887 H   0  0  0  0  0  0  0  0  0  0  0  0
   -3.8110    1.1213    1.0570 H   0  0  0  0  0  0  0  0  0  0  0  0
   -1.3735    0.1706   -0.1032 C   0  0  0  0  0  0  0  0  0  0  0  0
   -2.6731   -1.2630   -0.9166 H   0  0  0  0  0  0  0  0  0  0  0  0
   -2.5437   -1.1346    0.8237 H   0  0  0  0  0  0  0  0  0  0  0  0
   -0.1974   -0.6984    0.0969 C   0  0  0  0  0  0  0  0  0  0  0  0
   -1.3535    0.8890    0.7335 H   0  0  0  0  0  0  0  0  0  0  0  0
   -1.3715    0.7874   -1.0060 H   0  0  0  0  0  0  0  0  0  0  0  0
   -0.4804   -1.2958    1.0635 H   0  0  0  0  0  0  0  0  0  0  0  0
    0.7876   -0.0523    0.2854 H   0  0  0  0  0  0  0  0  0  0  0  0
    0.0528   -1.3759   -0.7834 H   0  0  0  0  0  0  0  0  0  0  0  0
  1  3  1  0  0  0  0
  1  5  1  0  0  0  0
  2  1  1  0  0  0  0
  2  8  1  0  0  0  0
  4  1  1  0  0  0  0
  6  2  1  0  0  0  0
  6  9  1  0  0  0  0
  6 10  1  0  0  0  0
  7  2  1  0  0  0  0
  9 13  1  0  0  0  0
  9 12  1  0  0  0  0
 11  6  1  0  0  0  0
 14  9  1  0  0  0  0
M  END
$$$$
