butane_opt
 OpenBabel08242015393D

 14 13  0  0  0  0  0  0  0  0999 V2000
   -3.9431    0.2391    0.0362 C   0  0  0  0  0  0  0  0  0  0  0  0
   -2.7235   -0.6299    0.0814 C   0  0  0  0  0  0  0  0  0  0  0  0
   -4.9056   -0.3466   -0.3045 H   0  0  0  0  0  0  0  0  0  0  0  0
   -3.7643    0.7342   -0.7728 H   0  0  0  0  0  0  0  0  0  0  0  0
   -4.0210    1.1093    1.0158 H   0  0  0  0  0  0  0  0  0  0  0  0
   -1.4171    0.2395   -0.0355 C   0  0  0  0  0  0  0  0  0  0  0  0
   -2.8601   -1.3355   -0.7659 H   0  0  0  0  0  0  0  0  0  0  0  0
   -2.8443   -0.9894    0.8684 H   0  0  0  0  0  0  0  0  0  0  0  0
   -0.1267   -0.7246    0.0331 C   0  0  0  0  0  0  0  0  0  0  0  0
   -1.4294    0.8454    0.7216 H   0  0  0  0  0  0  0  0  0  0  0  0
   -1.4117    0.9837   -0.9492 H   0  0  0  0  0  0  0  0  0  0  0  0
   -0.0600   -1.3862    0.9799 H   0  0  0  0  0  0  0  0  0  0  0  0
    0.7608   -0.2207    0.1012 H   0  0  0  0  0  0  0  0  0  0  0  0
    0.0319   -1.3885   -0.8230 H   0  0  0  0  0  0  0  0  0  0  0  0
  1  2  1  0  0  0  0
  1  5  1  0  0  0  0
  2  8  1  0  0  0  0
  3  1  1  0  0  0  0
  4  1  1  0  0  0  0
  6  9  1  0  0  0  0
  6  2  1  0  0  0  0
  6 10  1  0  0  0  0
  7  2  1  0  0  0  0
  9 13  1  0  0  0  0
  9 12  1  0  0  0  0
 11  6  1  0  0  0  0
 14  9  1  0  0  0  0
M  END
$$$$
