14
butane_opt
C  -3.945774   0.278439   0.003256
C  -2.661308  -0.630730   0.018370
H  -4.755657  -0.148993   0.494627
H  -3.963176   1.272842  -1.154327
H  -3.905349   0.594396   0.585587
C  -1.395459   0.114263   0.048689
H  -2.820731  -1.178774  -0.738921
H  -2.681443  -1.252430   0.869420
C  -0.198179  -0.668114   0.006294
H  -1.307465   0.964780   1.085374
H  -1.446768   0.683379  -0.717257
H  -0.296589  -1.090475   0.804878
H   0.756490   0.024235   0.124547
H  -0.222228  -1.447916  -0.882860
