14
butane_opt
C  -3.935660   0.221698   0.111703
C  -2.678494  -0.553366  -0.044790
H  -4.891021  -0.393613   0.223459
H  -3.881179   0.842206  -0.738969
H  -3.692415   0.814615   0.915356
C  -1.430560   0.194720  -0.104538
H  -2.836627  -1.174554  -0.981259
H  -2.644730  -1.204831   0.881402
C  -0.176005  -0.713780   0.105490
H  -1.598365   0.954570   0.736458
H  -1.325232   0.846098  -1.034078
H  -0.304923  -1.337947   0.997312
H   0.686953  -0.158444   0.445493
H   0.108995  -1.481873  -0.830506
