butane_opt
 OpenBabel08242015393D

 14 12  0  0  0  0  0  0  0  0999 V2000
   -3.9690    0.2449   -0.0492 C   0  0  0  0  0  0  0  0  0  0  0  0
   -2.7429   -0.5932    0.0466 C   0  0  0  0  0  0  0  0  0  0  0  0
   -4.8515   -0.4634    0.5495 H   0  0  0  0  0  0  0  0  0  0  0  0
   -4.0576    1.2615   -1.1760 H   0  0  0  0  0  0  0  0  0  0  0  0
   -3.6232    0.5512    0.6327 H   0  0  0  0  0  0  0  0  0  0  0  0
   -1.4086    0.2154    0.0989 C   0  0  0  0  0  0  0  0  0  0  0  0
   -2.7022   -1.2142   -0.7639 H   0  0  0  0  0  0  0  0  0  0  0  0
   -3.0002   -1.1468    1.0335 H   0  0  0  0  0  0  0  0  0  0  0  0
   -0.1052   -0.7305   -0.0100 C   0  0  0  0  0  0  0  0  0  0  0  0
   -1.3358    1.0992    1.0845 H   0  0  0  0  0  0  0  0  0  0  0  0
   -1.4429    0.8101   -0.7703 H   0  0  0  0  0  0  0  0  0  0  0  0
   -0.0494   -1.2594    0.7924 H   0  0  0  0  0  0  0  0  0  0  0  0
    0.7891   -0.1406   -0.0178 H   0  0  0  0  0  0  0  0  0  0  0  0
   -0.0515   -1.6109   -1.0100 H   0  0  0  0  0  0  0  0  0  0  0  0
  1  2  1  0  0  0  0
  1  3  1  0  0  0  0
  1  5  1  0  0  0  0
  2  6  1  0  0  0  0
  2  8  1  0  0  0  0
  6 10  1  0  0  0  0
  7  2  1  0  0  0  0
  9  6  1  0  0  0  0
  9 12  1  0  0  0  0
 11  6  1  0  0  0  0
 13  9  1  0  0  0  0
 14  9  1  0  0  0  0
M  RAD  2   1   2   4   2
M  END
$$$$
