butane_opt
 OpenBabel08242015393D

 14 13  0  0  0  0  0  0  0  0999 V2000
   -3.9997    0.2434    0.1444 C   0  0  0  0  0  0  0  0  0  0  0  0
   -2.7036   -0.5901   -0.0601 C   0  0  0  0  0  0  0  0  0  0  0  0
   -4.9009   -0.3977    0.0084 H   0  0  0  0  0  0  0  0  0  0  0  0
   -3.8994    0.7243   -0.7273 H   0  0  0  0  0  0  0  0  0  0  0  0
   -3.8674    0.9626    1.1038 H   0  0  0  0  0  0  0  0  0  0  0  0
   -1.3847    0.2254   -0.1181 C   0  0  0  0  0  0  0  0  0  0  0  0
   -2.7396   -1.4175   -1.0157 H   0  0  0  0  0  0  0  0  0  0  0  0
   -2.7066   -1.1889    0.8621 H   0  0  0  0  0  0  0  0  0  0  0  0
   -0.1196   -0.7171    0.1376 C   0  0  0  0  0  0  0  0  0  0  0  0
   -1.6229    0.7548    0.5691 H   0  0  0  0  0  0  0  0  0  0  0  0
   -1.3448    1.0838   -1.1859 H   0  0  0  0  0  0  0  0  0  0  0  0
   -0.1682   -1.3054    0.9692 H   0  0  0  0  0  0  0  0  0  0  0  0
    0.6994   -0.1656    0.3709 H   0  0  0  0  0  0  0  0  0  0  0  0
    0.0230   -1.4704   -0.7453 H   0  0  0  0  0  0  0  0  0  0  0  0
  1  5  1  0  0  0  0
  2  1  1  0  0  0  0
  2  8  1  0  0  0  0
  3  1  1  0  0  0  0
  4  1  1  0  0  0  0
  6  2  1  0  0  0  0
  6  9  1  0  0  0  0
  6 10  1  0  0  0  0
  7  2  1  0  0  0  0
  9 13  1  0  0  0  0
  9 12  1  0  0  0  0
 11  6  1  0  0  0  0
 14  9  1  0  0  0  0
M  END
$$$$
