14
butane_opt
C  -3.949743   0.282435  -0.012936
C  -2.722122  -0.624763   0.128074
H  -4.871630  -0.335009   0.094566
H  -3.899550   1.197217  -1.225640
H  -4.071621   0.773598   0.724737
C  -1.404484   0.173515   0.022008
H  -2.802174  -1.320943  -0.744382
H  -2.738671  -1.347377   1.064480
C  -0.145798  -0.698462  -0.007713
H  -1.244762   0.858812   0.930582
H  -1.454585   0.732328  -0.909483
H  -0.200062  -0.859165   0.575113
H   0.920625   0.020080   0.451280
H  -0.015159  -1.749343  -1.127320
