14
butane_opt
C  -3.948638   0.250113  -0.021875
C  -2.698028  -0.598722   0.092777
H  -4.864980  -0.347818  -0.092952
H  -3.884894   0.820525  -0.903372
H  -3.981123   0.958740   0.866539
C  -1.409025   0.193279   0.032818
H  -2.694896  -1.231183  -0.721782
H  -2.741377  -1.271950   1.041975
C  -0.158444  -0.709413  -0.005077
H  -1.343617   0.938420   0.933907
H  -1.425698   0.805313  -0.838827
H  -0.121363  -1.265687   0.851650
H   0.730274  -0.130112   0.023346
H  -0.118983  -1.383521  -0.906348
