14
butane_opt
C  -3.966097   0.248071   0.040782
C  -2.731036  -0.593653   0.085142
H  -4.880534  -0.330829  -0.390662
H  -3.849771   0.549761  -0.634204
H  -4.030733   1.079221   1.003033
C  -1.393890   0.235805  -0.069710
H  -2.908152  -1.187201  -0.820521
H  -2.756394  -1.211119   0.959545
C  -0.096376  -0.734684   0.050431
H  -1.484334   0.887871   0.745076
H  -1.318782   0.785042  -0.924682
H  -0.252890  -1.370955   0.897660
H   0.763404  -0.163654   0.119567
H  -0.038541  -1.400662  -0.793172
