butane_opt
 OpenBabel08242015393D

 14 11  0  0  0  0  0  0  0  0999 V2000
   -3.9086    0.3231   -0.0462 C   0  0  0  0  0  0  0  0  0  0  0  0
   -2.6907   -0.6565    0.1683 C   0  0  0  0  0  0  0  0  0  0  0  0
   -4.8642   -0.2679    0.0466 H   0  0  0  0  0  0  0  0  0  0  0  0
   -3.8394    1.0756   -1.1110 H   0  0  0  0  0  0  0  0  0  0  0  0
   -4.1647    0.6752    0.5959 H   0  0  0  0  0  0  0  0  0  0  0  0
   -1.3876    0.1550    0.0599 C   0  0  0  0  0  0  0  0  0  0  0  0
   -2.7453   -1.3252   -0.6440 H   0  0  0  0  0  0  0  0  0  0  0  0
   -2.6785   -1.4416    1.0785 H   0  0  0  0  0  0  0  0  0  0  0  0
   -0.1978   -0.6643   -0.0643 C   0  0  0  0  0  0  0  0  0  0  0  0
   -1.4638    0.7991    0.8867 H   0  0  0  0  0  0  0  0  0  0  0  0
   -1.4238    0.7333   -0.7934 H   0  0  0  0  0  0  0  0  0  0  0  0
   -0.3421   -0.8189    0.5102 H   0  0  0  0  0  0  0  0  0  0  0  0
    0.8104   -0.0529    0.5488 H   0  0  0  0  0  0  0  0  0  0  0  0
   -0.1175   -1.7103   -1.1530 H   0  0  0  0  0  0  0  0  0  0  0  0
  1  3  1  0  0  0  0
  1  2  1  0  0  0  0
  1  5  1  0  0  0  0
  2  8  1  0  0  0  0
  4  1  1  0  0  0  0
  6 10  1  0  0  0  0
  7  2  1  0  0  0  0
  9  6  1  0  0  0  0
  9 13  1  0  0  0  0
 11  6  1  0  0  0  0
 14  9  1  0  0  0  0
M  RAD  4   2   2   6   2   9   2  12   2
M  END
$$$$
