14
butane_opt
C  -3.923030   0.289546  -0.025207
C  -2.698511  -0.642921   0.040476
H  -4.857832  -0.311330   0.460177
H  -4.149898   1.258786  -1.182326
H  -3.814169   0.771544   0.654496
C  -1.383705   0.132339   0.074599
H  -2.712904  -1.158124  -0.695485
H  -2.734957  -1.311175   1.002395
C  -0.188495  -0.674056  -0.014214
H  -1.401433   0.896766   1.009833
H  -1.536795   0.621300  -0.751271
H  -0.310154  -1.040637   0.787883
H   0.868377   0.016932   0.175702
H  -0.070467  -1.451149  -0.978398
