butane_opt
 OpenBabel08242015393D

 14 13  0  0  0  0  0  0  0  0999 V2000
   -3.9548    0.2301    0.1033 C   0  0  0  0  0  0  0  0  0  0  0  0
   -2.7415   -0.6049   -0.0801 C   0  0  0  0  0  0  0  0  0  0  0  0
   -4.9152   -0.4259    0.3539 H   0  0  0  0  0  0  0  0  0  0  0  0
   -4.1612    0.9907   -0.8609 H   0  0  0  0  0  0  0  0  0  0  0  0
   -3.7593    0.8991    0.9429 H   0  0  0  0  0  0  0  0  0  0  0  0
   -1.3864    0.2641   -0.0494 C   0  0  0  0  0  0  0  0  0  0  0  0
   -2.7858   -1.4293   -1.0309 H   0  0  0  0  0  0  0  0  0  0  0  0
   -2.6661   -1.0573    0.6877 H   0  0  0  0  0  0  0  0  0  0  0  0
   -0.1488   -0.7424    0.1362 C   0  0  0  0  0  0  0  0  0  0  0  0
   -1.5620    0.8399    0.6757 H   0  0  0  0  0  0  0  0  0  0  0  0
   -1.1512    0.9370   -0.9120 H   0  0  0  0  0  0  0  0  0  0  0  0
    0.0002   -1.4640    1.0214 H   0  0  0  0  0  0  0  0  0  0  0  0
    0.7521   -0.2390   -0.1525 H   0  0  0  0  0  0  0  0  0  0  0  0
    0.0302   -1.2880   -0.6250 H   0  0  0  0  0  0  0  0  0  0  0  0
  1  3  1  0  0  0  0
  1  5  1  0  0  0  0
  2  6  1  0  0  0  0
  2  1  1  0  0  0  0
  2  8  1  0  0  0  0
  4  1  1  0  0  0  0
  6  9  1  0  0  0  0
  6 10  1  0  0  0  0
  7  2  1  0  0  0  0
  9 12  1  0  0  0  0
 11  6  1  0  0  0  0
 13  9  1  0  0  0  0
 14  9  1  0  0  0  0
M  END
$$$$
