butane_opt
 OpenBabel08242015393D

 14 13  0  0  0  0  0  0  0  0999 V2000
   -3.9311    0.2117   -0.0296 C   0  0  0  0  0  0  0  0  0  0  0  0
   -2.7143   -0.5977    0.0692 C   0  0  0  0  0  0  0  0  0  0  0  0
   -4.7736   -0.3278   -0.0109 H   0  0  0  0  0  0  0  0  0  0  0  0
   -3.8495    1.0848   -1.0849 H   0  0  0  0  0  0  0  0  0  0  0  0
   -4.0354    0.8429    0.7992 H   0  0  0  0  0  0  0  0  0  0  0  0
   -1.4219    0.2266    0.1009 C   0  0  0  0  0  0  0  0  0  0  0  0
   -2.7902   -1.2301   -0.7574 H   0  0  0  0  0  0  0  0  0  0  0  0
   -2.7399   -1.1867    0.9048 H   0  0  0  0  0  0  0  0  0  0  0  0
   -0.1335   -0.7149   -0.0263 C   0  0  0  0  0  0  0  0  0  0  0  0
   -1.4068    1.0141    1.0721 H   0  0  0  0  0  0  0  0  0  0  0  0
   -1.5989    0.6921   -0.6862 H   0  0  0  0  0  0  0  0  0  0  0  0
    0.0841   -1.4625    1.0143 H   0  0  0  0  0  0  0  0  0  0  0  0
    0.6849   -0.2098   -0.3828 H   0  0  0  0  0  0  0  0  0  0  0  0
   -0.1856   -1.1897   -0.8036 H   0  0  0  0  0  0  0  0  0  0  0  0
  1  3  1  0  0  0  0
  1  2  1  0  0  0  0
  1  5  1  0  0  0  0
  2  6  1  0  0  0  0
  2  8  1  0  0  0  0
  4  1  1  0  0  0  0
  6 10  1  0  0  0  0
  7  2  1  0  0  0  0
  9  6  1  0  0  0  0
  9 12  1  0  0  0  0
 11  6  1  0  0  0  0
 13  9  1  0  0  0  0
 14  9  1  0  0  0  0
M  END
$$$$
