butane_opt
 OpenBabel08242015393D

 14 13  0  0  0  0  0  0  0  0999 V2000
   -3.9573    0.2121    0.0598 C   0  0  0  0  0  0  0  0  0  0  0  0
   -2.7350   -0.5768    0.0101 C   0  0  0  0  0  0  0  0  0  0  0  0
   -4.7938   -0.2885   -0.1371 H   0  0  0  0  0  0  0  0  0  0  0  0
   -4.0059    0.7148   -0.7011 H   0  0  0  0  0  0  0  0  0  0  0  0
   -3.9529    1.2053    1.0533 H   0  0  0  0  0  0  0  0  0  0  0  0
   -1.4007    0.2052   -0.0429 C   0  0  0  0  0  0  0  0  0  0  0  0
   -2.8177   -1.4469   -0.9457 H   0  0  0  0  0  0  0  0  0  0  0  0
   -2.6380   -1.0160    0.7155 H   0  0  0  0  0  0  0  0  0  0  0  0
   -0.1130   -0.7214    0.0695 C   0  0  0  0  0  0  0  0  0  0  0  0
   -1.4245    0.7918    0.7622 H   0  0  0  0  0  0  0  0  0  0  0  0
   -1.4872    0.8916   -0.9027 H   0  0  0  0  0  0  0  0  0  0  0  0
   -0.0807   -1.5608    1.1725 H   0  0  0  0  0  0  0  0  0  0  0  0
    0.7543   -0.1710   -0.1925 H   0  0  0  0  0  0  0  0  0  0  0  0
   -0.0909   -1.0209   -0.4993 H   0  0  0  0  0  0  0  0  0  0  0  0
  1  5  1  0  0  0  0
  2  1  1  0  0  0  0
  2  8  1  0  0  0  0
  3  1  1  0  0  0  0
  4  1  1  0  0  0  0
  6  2  1  0  0  0  0
  6  9  1  0  0  0  0
  6 10  1  0  0  0  0
  7  2  1  0  0  0  0
  9 12  1  0  0  0  0
 11  6  1  0  0  0  0
 13  9  1  0  0  0  0
 14  9  1  0  0  0  0
M  END
$$$$
