14
butane_opt
C  -4.003331   0.277417   0.089950
C  -2.683017  -0.669031  -0.042126
H  -4.759243  -0.148233   0.253123
H  -4.185475   0.916761  -0.748506
H  -3.897836   1.063464   1.087957
C  -1.395723   0.168701  -0.105809
H  -2.703431  -1.297141  -0.840763
H  -2.626519  -1.366316   0.897678
C  -0.152338  -0.647854   0.103073
H  -1.410565   0.694209   0.727077
H  -1.129003   0.834483  -1.096182
H  -0.375977  -1.084487   0.834255
H   0.677013  -0.143332   0.528770
H   0.184745  -1.468079  -0.763723
