butane_opt
 OpenBabel08242015393D

 14 13  0  0  0  0  0  0  0  0999 V2000
   -3.9317    0.2816   -0.0947 C   0  0  0  0  0  0  0  0  0  0  0  0
   -2.6713   -0.6277    0.1697 C   0  0  0  0  0  0  0  0  0  0  0  0
   -4.7543   -0.2444   -0.0973 H   0  0  0  0  0  0  0  0  0  0  0  0
   -3.8511    0.7135   -0.8623 H   0  0  0  0  0  0  0  0  0  0  0  0
   -4.1385    1.0104    0.7155 H   0  0  0  0  0  0  0  0  0  0  0  0
   -1.3899    0.1715    0.0983 C   0  0  0  0  0  0  0  0  0  0  0  0
   -2.6709   -1.1758   -0.5479 H   0  0  0  0  0  0  0  0  0  0  0  0
   -2.7927   -1.3593    1.0938 H   0  0  0  0  0  0  0  0  0  0  0  0
   -0.2058   -0.6692   -0.0469 C   0  0  0  0  0  0  0  0  0  0  0  0
   -1.2560    0.7980    0.8548 H   0  0  0  0  0  0  0  0  0  0  0  0
   -1.3762    0.7884   -0.8425 H   0  0  0  0  0  0  0  0  0  0  0  0
   -0.1470   -1.0953    0.6716 H   0  0  0  0  0  0  0  0  0  0  0  0
    0.6714   -0.1714    0.0535 H   0  0  0  0  0  0  0  0  0  0  0  0
   -0.3252   -1.6166   -1.1112 H   0  0  0  0  0  0  0  0  0  0  0  0
  1  2  1  0  0  0  0
  1  5  1  0  0  0  0
  2  8  1  0  0  0  0
  3  1  1  0  0  0  0
  4  1  1  0  0  0  0
  6  2  1  0  0  0  0
  6 10  1  0  0  0  0
  7  2  1  0  0  0  0
  9 13  1  0  0  0  0
  9  6  1  0  0  0  0
  9 12  1  0  0  0  0
 11  6  1  0  0  0  0
 14  9  1  0  0  0  0
M  END
$$$$
