14
butane_opt
C  -3.909641   0.240259   0.062905
C  -2.705210  -0.585674  -0.030904
H  -4.802022  -0.445364   0.369335
H  -4.044039   1.082047  -0.944145
H  -3.756023   0.802510   0.909776
C  -1.437469   0.196394  -0.036880
H  -2.812807  -1.432388  -0.943029
H  -2.528141  -1.186944   0.854675
C  -0.186023  -0.696149   0.068893
H  -1.412412   0.934073   0.790812
H  -1.431209   0.839589  -0.892703
H  -0.207731  -1.386877   1.014818
H   0.719272  -0.122154   0.261715
H   0.108805  -1.403878  -0.769537
