14
butane_opt
C  -3.955110   0.308583   0.082716
C  -2.659148  -0.676529  -0.010174
H  -4.875896  -0.269589   0.262708
H  -4.043861   0.789567  -0.786577
H  -3.848224   1.140135   1.072614
C  -1.374182   0.167129  -0.098867
H  -2.740333  -1.465419  -0.942269
H  -2.731360  -1.208544   0.841865
C  -0.214183  -0.664977   0.119317
H  -1.446312   0.677156   0.653471
H  -1.188974   0.993374  -1.227925
H  -0.406261  -1.106473   0.905904
H   0.723032  -0.103638   0.422114
H  -0.046993  -1.522595  -0.867211
