butane_opt
 OpenBabel08242015393D

 14 13  0  0  0  0  0  0  0  0999 V2000
   -3.9352    0.2142   -0.0619 C   0  0  0  0  0  0  0  0  0  0  0  0
   -2.7120   -0.5988    0.1106 C   0  0  0  0  0  0  0  0  0  0  0  0
   -4.8648   -0.4069    0.2014 H   0  0  0  0  0  0  0  0  0  0  0  0
   -3.9883    1.1162   -1.0830 H   0  0  0  0  0  0  0  0  0  0  0  0
   -3.9753    0.7158    0.6142 H   0  0  0  0  0  0  0  0  0  0  0  0
   -1.4096    0.2594    0.0963 C   0  0  0  0  0  0  0  0  0  0  0  0
   -2.7921   -1.1899   -0.7794 H   0  0  0  0  0  0  0  0  0  0  0  0
   -2.7708   -1.3138    1.0786 H   0  0  0  0  0  0  0  0  0  0  0  0
   -0.1055   -0.7368   -0.0548 C   0  0  0  0  0  0  0  0  0  0  0  0
   -1.4262    1.1143    1.0912 H   0  0  0  0  0  0  0  0  0  0  0  0
   -1.6598    0.7687   -0.6862 H   0  0  0  0  0  0  0  0  0  0  0  0
   -0.0965   -1.2979    0.7596 H   0  0  0  0  0  0  0  0  0  0  0  0
    0.6971   -0.2457    0.1175 H   0  0  0  0  0  0  0  0  0  0  0  0
   -0.1571   -1.4151   -0.9728 H   0  0  0  0  0  0  0  0  0  0  0  0
  1  2  1  0  0  0  0
  1  3  1  0  0  0  0
  1  5  1  0  0  0  0
  2  8  1  0  0  0  0
  4  1  1  0  0  0  0
  6  2  1  0  0  0  0
  6 10  1  0  0  0  0
  7  2  1  0  0  0  0
  9  6  1  0  0  0  0
  9 13  1  0  0  0  0
  9 12  1  0  0  0  0
 11  6  1  0  0  0  0
 14  9  1  0  0  0  0
M  END
$$$$
