14
butane_opt
C  -3.919479   0.285941   0.115320
C  -2.700961  -0.623014  -0.050462
H  -4.840140  -0.280414   0.147164
H  -4.201579   0.951539  -0.771832
H  -3.877115   0.947064   0.965101
C  -1.382702   0.143328  -0.115459
H  -2.746955  -1.310714  -0.903373
H  -2.568223  -1.372324   0.886416
C  -0.185544  -0.700586   0.101824
H  -1.350195   0.819214   0.763277
H  -1.422355   0.916418  -1.019299
H  -0.579087  -1.050389   0.970615
H   0.859155   0.030783   0.541395
H  -0.015370  -1.397658  -0.776802
