14
butane_opt
C  -3.927089   0.307320  -0.063410
C  -2.665254  -0.651024   0.127866
H  -4.854680  -0.336062  -0.240483
H  -3.872774   0.755509  -0.864974
H  -4.048684   1.115973   0.983367
C  -1.410482   0.142320   0.057985
H  -2.686014  -1.276978  -0.688487
H  -2.662578  -1.308451   1.043663
C  -0.178102  -0.649458  -0.036192
H  -1.338555   0.876459   0.960549
H  -1.625782   0.531177  -0.722200
H  -0.309493  -1.398594   0.992354
H   0.796678   0.000733  -0.234069
H  -0.265865  -1.194757  -0.807337
