14
butane_opt
C  -3.892622   0.245727  -0.056970
C  -2.709571  -0.584382   0.169369
H  -4.889668  -0.472972  -0.416468
H  -3.555727   0.741946  -0.886710
H  -4.110832   1.121913   0.896434
C  -1.430287   0.199138   0.067392
H  -2.825112  -1.219442  -0.653176
H  -2.779210  -1.142519   1.046763
C  -0.173047  -0.727833  -0.057843
H  -1.408026   0.867890   0.831738
H  -1.583072   0.809362  -0.772603
H   0.001912  -1.314291   0.802097
H   0.855774  -0.092572  -0.035647
H  -0.261845  -1.367093  -0.810272
