butane_opt
 OpenBabel08242015393D

 14 11  0  0  0  0  0  0  0  0999 V2000
   -3.9502    0.2377    0.0458 C   0  0  0  0  0  0  0  0  0  0  0  0
   -2.7047   -0.5998    0.0356 C   0  0  0  0  0  0  0  0  0  0  0  0
   -4.9136   -0.3470   -0.4104 H   0  0  0  0  0  0  0  0  0  0  0  0
   -3.8837    0.3811   -0.4829 H   0  0  0  0  0  0  0  0  0  0  0  0
   -4.1171    1.2905    1.1459 H   0  0  0  0  0  0  0  0  0  0  0  0
   -1.4048    0.2577   -0.0506 C   0  0  0  0  0  0  0  0  0  0  0  0
   -2.6352   -1.2755   -0.7744 H   0  0  0  0  0  0  0  0  0  0  0  0
   -2.6690   -1.3387    0.9331 H   0  0  0  0  0  0  0  0  0  0  0  0
   -0.1479   -0.7225    0.0466 C   0  0  0  0  0  0  0  0  0  0  0  0
   -1.4983    0.7334    0.6848 H   0  0  0  0  0  0  0  0  0  0  0  0
   -1.3008    0.9257   -0.9802 H   0  0  0  0  0  0  0  0  0  0  0  0
   -0.0379   -1.5154    1.0537 H   0  0  0  0  0  0  0  0  0  0  0  0
    0.6629   -0.1864    0.0340 H   0  0  0  0  0  0  0  0  0  0  0  0
   -0.1143   -1.2353   -0.6310 H   0  0  0  0  0  0  0  0  0  0  0  0
  2  1  1  0  0  0  0
  2  8  1  0  0  0  0
  3  1  1  0  0  0  0
  6  2  1  0  0  0  0
  6  9  1  0  0  0  0
  6 10  1  0  0  0  0
  7  2  1  0  0  0  0
  9 12  1  0  0  0  0
 11  6  1  0  0  0  0
 13  9  1  0  0  0  0
 14  9  1  0  0  0  0
M  RAD  3   1   3   4   2   5   2
M  END
$$$$
