14
butane_opt
C  -3.977605   0.313742  -0.057776
C  -2.665317  -0.694384   0.079652
H  -4.849264  -0.274245   0.408839
H  -4.211243   1.447385  -1.211998
H  -3.828204   0.536577   0.522466
C  -1.383311   0.162025   0.104960
H  -2.590102  -1.298428  -0.692991
H  -2.840000  -1.463767   1.114719
C  -0.184471  -0.657657  -0.037551
H  -1.370998   1.074722   1.120063
H  -1.357262   0.565358  -0.695697
H  -0.003926  -0.967062   0.670320
H   0.705750  -0.018353   0.120549
H  -0.182710  -1.532497  -1.066045
