butane_opt
 OpenBabel08242015393D

 14 12  0  0  0  0  0  0  0  0999 V2000
   -3.8752    0.2495    0.1017 C   0  0  0  0  0  0  0  0  0  0  0  0
   -2.7069   -0.5957   -0.0193 C   0  0  0  0  0  0  0  0  0  0  0  0
   -4.8206   -0.4010   -0.2449 H   0  0  0  0  0  0  0  0  0  0  0  0
   -3.8330    0.5685   -0.7046 H   0  0  0  0  0  0  0  0  0  0  0  0
   -3.9699    1.2939    1.2605 H   0  0  0  0  0  0  0  0  0  0  0  0
   -1.4429    0.1983   -0.0932 C   0  0  0  0  0  0  0  0  0  0  0  0
   -2.8954   -1.2658   -0.9783 H   0  0  0  0  0  0  0  0  0  0  0  0
   -2.6517   -1.2772    0.8899 H   0  0  0  0  0  0  0  0  0  0  0  0
   -0.1950   -0.7160    0.0917 C   0  0  0  0  0  0  0  0  0  0  0  0
   -1.4027    0.7736    0.7029 H   0  0  0  0  0  0  0  0  0  0  0  0
   -1.4139    0.9665   -1.0777 H   0  0  0  0  0  0  0  0  0  0  0  0
   -0.1485   -1.4897    1.1133 H   0  0  0  0  0  0  0  0  0  0  0  0
    0.7556   -0.0673    0.1786 H   0  0  0  0  0  0  0  0  0  0  0  0
   -0.0047   -1.2038   -0.6104 H   0  0  0  0  0  0  0  0  0  0  0  0
  2  1  1  0  0  0  0
  2  8  1  0  0  0  0
  3  1  1  0  0  0  0
  4  1  1  0  0  0  0
  6  2  1  0  0  0  0
  6  9  1  0  0  0  0
  6 10  1  0  0  0  0
  7  2  1  0  0  0  0
  9 13  1  0  0  0  0
  9 12  1  0  0  0  0
 11  6  1  0  0  0  0
 14  9  1  0  0  0  0
M  RAD  2   1   2   5   2
M  END
$$$$
