14
butane_opt
C  -3.928158   0.278892   0.117529
C  -2.691305  -0.597810  -0.056916
H  -4.761177  -0.309795   0.167334
H  -4.102103   0.966440  -0.766070
H  -3.739572   0.833500   1.000387
C  -1.396705   0.167012  -0.072143
H  -2.773424  -1.603238  -1.113435
H  -2.611944  -1.120078   0.732504
C  -0.203552  -0.713822   0.110294
H  -1.451832   0.736769   0.662078
H  -1.342220   0.907946  -1.088990
H  -0.410981  -1.311113   1.099334
H   0.882768   0.017714   0.189144
H  -0.085962  -1.162460  -0.633829
