14
butane_opt
C  -3.955343   0.281696   0.106052
C  -2.718017  -0.655748  -0.013076
H  -4.741794  -0.261399   0.081204
H  -4.052894   0.914877  -0.854051
H  -4.006979   0.998730   0.978846
C  -1.377406   0.193694  -0.090518
H  -2.784593  -1.489397  -0.936315
H  -2.650172  -1.214887   0.846932
C  -0.142402  -0.696784   0.110207
H  -1.306047   0.733809   0.701164
H  -1.417760   1.032429  -1.161935
H  -0.492856  -1.034996   0.901467
H   0.729923  -0.150645   0.366295
H   0.031789  -1.473787  -0.850226
