butane_opt
 OpenBabel08242015393D

 14 13  0  0  0  0  0  0  0  0999 V2000
   -3.9339    0.2314    0.0837 C   0  0  0  0  0  0  0  0  0  0  0  0
   -2.7215   -0.5676    0.0120 C   0  0  0  0  0  0  0  0  0  0  0  0
   -4.9368   -0.5104   -0.0753 H   0  0  0  0  0  0  0  0  0  0  0  0
   -3.9423    0.7754   -0.7382 H   0  0  0  0  0  0  0  0  0  0  0  0
   -4.0768    1.1400    1.0074 H   0  0  0  0  0  0  0  0  0  0  0  0
   -1.4292    0.2002   -0.0736 C   0  0  0  0  0  0  0  0  0  0  0  0
   -2.8526   -1.3744   -0.8990 H   0  0  0  0  0  0  0  0  0  0  0  0
   -2.7914   -1.1829    0.8365 H   0  0  0  0  0  0  0  0  0  0  0  0
   -0.0981   -0.7109    0.1133 C   0  0  0  0  0  0  0  0  0  0  0  0
   -1.5745    0.8306    0.6606 H   0  0  0  0  0  0  0  0  0  0  0  0
   -1.3483    0.9446   -1.1236 H   0  0  0  0  0  0  0  0  0  0  0  0
   -0.1259   -1.2668    0.9423 H   0  0  0  0  0  0  0  0  0  0  0  0
    0.8277   -0.1746    0.0306 H   0  0  0  0  0  0  0  0  0  0  0  0
    0.0070   -1.5027   -0.8234 H   0  0  0  0  0  0  0  0  0  0  0  0
  1  5  1  0  0  0  0
  2  1  1  0  0  0  0
  2  8  1  0  0  0  0
  3  1  1  0  0  0  0
  4  1  1  0  0  0  0
  6  2  1  0  0  0  0
  6  9  1  0  0  0  0
  6 10  1  0  0  0  0
  7  2  1  0  0  0  0
  9 12  1  0  0  0  0
 11  6  1  0  0  0  0
 13  9  1  0  0  0  0
 14  9  1  0  0  0  0
M  END
$$$$
