butane_opt
 OpenBabel08242015393D

 14 13  0  0  0  0  0  0  0  0999 V2000
   -3.9564    0.2702   -0.0925 C   0  0  0  0  0  0  0  0  0  0  0  0
   -2.6780   -0.6091    0.1610 C   0  0  0  0  0  0  0  0  0  0  0  0
   -4.9002   -0.3629   -0.1973 H   0  0  0  0  0  0  0  0  0  0  0  0
   -3.8422    0.8645   -0.9893 H   0  0  0  0  0  0  0  0  0  0  0  0
   -3.9063    0.9345    0.7615 H   0  0  0  0  0  0  0  0  0  0  0  0
   -1.4121    0.1698    0.1112 C   0  0  0  0  0  0  0  0  0  0  0  0
   -2.4400   -1.1757   -0.5294 H   0  0  0  0  0  0  0  0  0  0  0  0
   -2.6580   -1.3453    1.0657 H   0  0  0  0  0  0  0  0  0  0  0  0
   -0.1982   -0.6852   -0.0570 C   0  0  0  0  0  0  0  0  0  0  0  0
   -1.2128    0.8680    0.9738 H   0  0  0  0  0  0  0  0  0  0  0  0
   -1.5651    0.7225   -0.7682 H   0  0  0  0  0  0  0  0  0  0  0  0
   -0.0482   -1.1667    0.7219 H   0  0  0  0  0  0  0  0  0  0  0  0
    0.8247    0.0079   -0.0890 H   0  0  0  0  0  0  0  0  0  0  0  0
   -0.3543   -1.5523   -0.9899 H   0  0  0  0  0  0  0  0  0  0  0  0
  1  2  1  0  0  0  0
  1  5  1  0  0  0  0
  2  8  1  0  0  0  0
  3  1  1  0  0  0  0
  4  1  1  0  0  0  0
  6  2  1  0  0  0  0
  6 10  1  0  0  0  0
  7  2  1  0  0  0  0
  9  6  1  0  0  0  0
  9 12  1  0  0  0  0
 11  6  1  0  0  0  0
 13  9  1  0  0  0  0
 14  9  1  0  0  0  0
M  END
$$$$
