14
butane_opt
C  -3.958930   0.276975   0.075970
C  -2.696817  -0.611817  -0.044395
H  -4.766494  -0.260432   0.458658
H  -4.050551   1.122323  -0.897280
H  -3.723381   0.672549   0.758277
C  -1.373481   0.154515  -0.039182
H  -2.829182  -1.519628  -1.017020
H  -2.581013  -1.040252   0.774569
C  -0.177540  -0.695781   0.090767
H  -1.610371   0.893852   0.857888
H  -1.340668   0.783515  -0.951970
H  -0.209233  -1.357188   1.047861
H   0.834740   0.045415   0.156431
H  -0.296399  -1.271115  -0.768132
