butane_opt
 OpenBabel08242015393D

 14 13  0  0  0  0  0  0  0  0999 V2000
   -3.9399    0.2397    0.0953 C   0  0  0  0  0  0  0  0  0  0  0  0
   -2.6826   -0.5516   -0.0643 C   0  0  0  0  0  0  0  0  0  0  0  0
   -4.9934   -0.5139    0.5735 H   0  0  0  0  0  0  0  0  0  0  0  0
   -4.0649    1.0680   -1.0147 H   0  0  0  0  0  0  0  0  0  0  0  0
   -3.7656    0.6683    0.7818 H   0  0  0  0  0  0  0  0  0  0  0  0
   -1.4031    0.2032   -0.0196 C   0  0  0  0  0  0  0  0  0  0  0  0
   -2.7549   -1.5456   -1.1208 H   0  0  0  0  0  0  0  0  0  0  0  0
   -2.6357   -1.1116    0.7066 H   0  0  0  0  0  0  0  0  0  0  0  0
   -0.1527   -0.7063    0.0774 C   0  0  0  0  0  0  0  0  0  0  0  0
   -1.5991    0.8415    0.8148 H   0  0  0  0  0  0  0  0  0  0  0  0
   -1.3934    0.8829   -0.9086 H   0  0  0  0  0  0  0  0  0  0  0  0
   -0.2724   -1.5183    1.1036 H   0  0  0  0  0  0  0  0  0  0  0  0
    0.6679   -0.1565    0.1367 H   0  0  0  0  0  0  0  0  0  0  0  0
   -0.0454   -1.3056   -0.7005 H   0  0  0  0  0  0  0  0  0  0  0  0
  1  3  1  0  0  0  0
  1  5  1  0  0  0  0
  2  6  1  0  0  0  0
  2  1  1  0  0  0  0
  2  8  1  0  0  0  0
  4  1  1  0  0  0  0
  6  9  1  0  0  0  0
  6 10  1  0  0  0  0
  7  2  1  0  0  0  0
  9 13  1  0  0  0  0
  9 12  1  0  0  0  0
 11  6  1  0  0  0  0
 14  9  1  0  0  0  0
M  END
$$$$
