butane_opt
 OpenBabel08242015393D

 14 13  0  0  0  0  0  0  0  0999 V2000
   -3.9270    0.2816   -0.0365 C   0  0  0  0  0  0  0  0  0  0  0  0
   -2.6864   -0.6157    0.0821 C   0  0  0  0  0  0  0  0  0  0  0  0
   -4.8032   -0.3199    0.2727 H   0  0  0  0  0  0  0  0  0  0  0  0
   -4.0312    1.2247   -1.2117 H   0  0  0  0  0  0  0  0  0  0  0  0
   -3.8171    0.5296    0.5846 H   0  0  0  0  0  0  0  0  0  0  0  0
   -1.4112    0.1733    0.0959 C   0  0  0  0  0  0  0  0  0  0  0  0
   -2.6808   -1.3165   -0.7829 H   0  0  0  0  0  0  0  0  0  0  0  0
   -2.7069   -1.2865    0.9820 H   0  0  0  0  0  0  0  0  0  0  0  0
   -0.2222   -0.6914   -0.0360 C   0  0  0  0  0  0  0  0  0  0  0  0
   -1.2754    1.1512    1.0894 H   0  0  0  0  0  0  0  0  0  0  0  0
   -1.2718    0.5709   -0.6316 H   0  0  0  0  0  0  0  0  0  0  0  0
   -0.0969   -1.3557    0.8415 H   0  0  0  0  0  0  0  0  0  0  0  0
    0.7504   -0.0228   -0.0815 H   0  0  0  0  0  0  0  0  0  0  0  0
   -0.1468   -1.3965   -0.9407 H   0  0  0  0  0  0  0  0  0  0  0  0
  1  2  1  0  0  0  0
  1  3  1  0  0  0  0
  1  5  1  0  0  0  0
  2  6  1  0  0  0  0
  2  8  1  0  0  0  0
  4  1  1  0  0  0  0
  6 10  1  0  0  0  0
  7  2  1  0  0  0  0
  9  6  1  0  0  0  0
  9 12  1  0  0  0  0
 11  6  1  0  0  0  0
 13  9  1  0  0  0  0
 14  9  1  0  0  0  0
M  END
$$$$
