14
butane_opt
C  -3.963493   0.244865   0.011801
C  -2.746134  -0.568915   0.046124
H  -4.889764  -0.361748  -0.153869
H  -3.825617   0.567376  -0.649085
H  -4.080429   1.188554   1.097612
C  -1.407139   0.205252  -0.028879
H  -2.861336  -1.229165  -0.696884
H  -2.777942  -1.336380   1.010584
C  -0.108779  -0.741097   0.027589
H  -1.271098   0.830986   0.811535
H  -1.389487   0.885188  -0.969816
H  -0.132289  -1.318415   0.884770
H   0.782208  -0.084194   0.162468
H   0.126146  -1.293414  -0.698394
