14
butane_opt
C  -3.946620   0.232084   0.041872
C  -2.730419  -0.630447   0.058857
H  -4.827865  -0.240959  -0.287955
H  -3.804009   0.589888  -0.719684
H  -4.264968   1.312486   1.092658
C  -1.394327   0.234164  -0.030662
H  -2.878352  -1.212018  -0.828982
H  -2.700360  -1.194558   0.906348
C  -0.148077  -0.734531   0.041757
H  -1.341159   0.842598   0.764993
H  -1.340291   1.045710  -1.084170
H  -0.102751  -1.399655   1.020049
H   0.854173  -0.098196   0.070585
H   0.021271  -1.356444  -0.788652
