butane_opt
 OpenBabel08242015393D

 14 13  0  0  0  0  0  0  0  0999 V2000
   -3.9520    0.2713    0.0339 C   0  0  0  0  0  0  0  0  0  0  0  0
   -2.6908   -0.6217    0.0171 C   0  0  0  0  0  0  0  0  0  0  0  0
   -4.8588   -0.2855    0.0196 H   0  0  0  0  0  0  0  0  0  0  0  0
   -4.0050    0.8155   -0.8248 H   0  0  0  0  0  0  0  0  0  0  0  0
   -3.9798    0.9877    0.9190 H   0  0  0  0  0  0  0  0  0  0  0  0
   -1.4011    0.1714   -0.0055 C   0  0  0  0  0  0  0  0  0  0  0  0
   -2.7004   -1.3192   -0.8441 H   0  0  0  0  0  0  0  0  0  0  0  0
   -2.7354   -1.2305    0.8813 H   0  0  0  0  0  0  0  0  0  0  0  0
   -0.1529   -0.6834    0.0495 C   0  0  0  0  0  0  0  0  0  0  0  0
   -1.3856    0.8566    0.8668 H   0  0  0  0  0  0  0  0  0  0  0  0
   -1.4096    0.7752   -0.8709 H   0  0  0  0  0  0  0  0  0  0  0  0
   -0.1747   -1.3890    1.0173 H   0  0  0  0  0  0  0  0  0  0  0  0
    0.7573   -0.0910   -0.1063 H   0  0  0  0  0  0  0  0  0  0  0  0
   -0.1720   -1.2374   -0.7425 H   0  0  0  0  0  0  0  0  0  0  0  0
  1  5  1  0  0  0  0
  2  1  1  0  0  0  0
  2  8  1  0  0  0  0
  3  1  1  0  0  0  0
  4  1  1  0  0  0  0
  6  2  1  0  0  0  0
  6  9  1  0  0  0  0
  6 10  1  0  0  0  0
  7  2  1  0  0  0  0
  9 12  1  0  0  0  0
 11  6  1  0  0  0  0
 13  9  1  0  0  0  0
 14  9  1  0  0  0  0
M  END
$$$$
