butane_opt
 OpenBabel08242015393D

 14 13  0  0  0  0  0  0  0  0999 V2000
   -3.9476    0.2202   -0.0286 C   0  0  0  0  0  0  0  0  0  0  0  0
   -2.7609   -0.5746    0.0969 C   0  0  0  0  0  0  0  0  0  0  0  0
   -4.8807   -0.3399    0.1064 H   0  0  0  0  0  0  0  0  0  0  0  0
   -3.9924    1.0870   -1.1120 H   0  0  0  0  0  0  0  0  0  0  0  0
   -3.9988    0.7154    0.7501 H   0  0  0  0  0  0  0  0  0  0  0  0
   -1.3920    0.2202    0.0477 C   0  0  0  0  0  0  0  0  0  0  0  0
   -2.6843   -0.9496   -0.5752 H   0  0  0  0  0  0  0  0  0  0  0  0
   -2.8062   -1.3368    1.0692 H   0  0  0  0  0  0  0  0  0  0  0  0
   -0.1185   -0.7409   -0.0401 C   0  0  0  0  0  0  0  0  0  0  0  0
   -1.4854    0.9479    1.0037 H   0  0  0  0  0  0  0  0  0  0  0  0
   -1.3325    0.7271   -0.7686 H   0  0  0  0  0  0  0  0  0  0  0  0
   -0.0333   -1.0328    0.6927 H   0  0  0  0  0  0  0  0  0  0  0  0
    0.8050   -0.0694    0.3650 H   0  0  0  0  0  0  0  0  0  0  0  0
    0.0217   -1.7310   -1.0638 H   0  0  0  0  0  0  0  0  0  0  0  0
  1  2  1  0  0  0  0
  1  3  1  0  0  0  0
  1  5  1  0  0  0  0
  2  8  1  0  0  0  0
  4  1  1  0  0  0  0
  6  2  1  0  0  0  0
  6 10  1  0  0  0  0
  7  2  1  0  0  0  0
  9  6  1  0  0  0  0
  9 13  1  0  0  0  0
  9 12  1  0  0  0  0
 11  6  1  0  0  0  0
 14  9  1  0  0  0  0
M  END
$$$$
