butane_opt
 OpenBabel08242015393D

 14 13  0  0  0  0  0  0  0  0999 V2000
   -3.9271    0.3073   -0.0634 C   0  0  0  0  0  0  0  0  0  0  0  0
   -2.6653   -0.6510    0.1279 C   0  0  0  0  0  0  0  0  0  0  0  0
   -4.8547   -0.3361   -0.2405 H   0  0  0  0  0  0  0  0  0  0  0  0
   -3.8728    0.7555   -0.8650 H   0  0  0  0  0  0  0  0  0  0  0  0
   -4.0487    1.1160    0.9834 H   0  0  0  0  0  0  0  0  0  0  0  0
   -1.4105    0.1423    0.0580 C   0  0  0  0  0  0  0  0  0  0  0  0
   -2.6860   -1.2770   -0.6885 H   0  0  0  0  0  0  0  0  0  0  0  0
   -2.6626   -1.3085    1.0437 H   0  0  0  0  0  0  0  0  0  0  0  0
   -0.1781   -0.6495   -0.0362 C   0  0  0  0  0  0  0  0  0  0  0  0
   -1.3386    0.8765    0.9605 H   0  0  0  0  0  0  0  0  0  0  0  0
   -1.6258    0.5312   -0.7222 H   0  0  0  0  0  0  0  0  0  0  0  0
   -0.3095   -1.3986    0.9924 H   0  0  0  0  0  0  0  0  0  0  0  0
    0.7967    0.0007   -0.2341 H   0  0  0  0  0  0  0  0  0  0  0  0
   -0.2659   -1.1948   -0.8073 H   0  0  0  0  0  0  0  0  0  0  0  0
  1  2  1  0  0  0  0
  1  5  1  0  0  0  0
  2  8  1  0  0  0  0
  3  1  1  0  0  0  0
  4  1  1  0  0  0  0
  6  2  1  0  0  0  0
  6 10  1  0  0  0  0
  7  2  1  0  0  0  0
  9  6  1  0  0  0  0
  9 12  1  0  0  0  0
 11  6  1  0  0  0  0
 13  9  1  0  0  0  0
 14  9  1  0  0  0  0
M  END
$$$$
