butane_opt
 OpenBabel08242015393D

 14 13  0  0  0  0  0  0  0  0999 V2000
   -3.9190    0.2920   -0.0444 C   0  0  0  0  0  0  0  0  0  0  0  0
   -2.6812   -0.6510    0.1225 C   0  0  0  0  0  0  0  0  0  0  0  0
   -4.8021   -0.2958   -0.1210 H   0  0  0  0  0  0  0  0  0  0  0  0
   -3.9572    0.7490   -0.8095 H   0  0  0  0  0  0  0  0  0  0  0  0
   -4.0872    1.0313    0.8420 H   0  0  0  0  0  0  0  0  0  0  0  0
   -1.4214    0.1430    0.0508 C   0  0  0  0  0  0  0  0  0  0  0  0
   -2.5828   -1.3233   -0.7213 H   0  0  0  0  0  0  0  0  0  0  0  0
   -2.5348   -1.2100    0.9658 H   0  0  0  0  0  0  0  0  0  0  0  0
   -0.2043   -0.6522   -0.0105 C   0  0  0  0  0  0  0  0  0  0  0  0
   -1.2885    0.7693    0.8624 H   0  0  0  0  0  0  0  0  0  0  0  0
   -1.4260    0.8261   -0.9583 H   0  0  0  0  0  0  0  0  0  0  0  0
   -0.1252   -1.1387    0.8644 H   0  0  0  0  0  0  0  0  0  0  0  0
    0.6173   -0.0457   -0.0315 H   0  0  0  0  0  0  0  0  0  0  0  0
   -0.1365   -1.4281   -0.8775 H   0  0  0  0  0  0  0  0  0  0  0  0
  1  2  1  0  0  0  0
  1  5  1  0  0  0  0
  2  8  1  0  0  0  0
  3  1  1  0  0  0  0
  4  1  1  0  0  0  0
  6  2  1  0  0  0  0
  6 10  1  0  0  0  0
  7  2  1  0  0  0  0
  9  6  1  0  0  0  0
  9 12  1  0  0  0  0
 11  6  1  0  0  0  0
 13  9  1  0  0  0  0
 14  9  1  0  0  0  0
M  END
$$$$
