butane_opt
 OpenBabel08242015393D

 14 13  0  0  0  0  0  0  0  0999 V2000
   -3.9585    0.2707   -0.0188 C   0  0  0  0  0  0  0  0  0  0  0  0
   -2.7001   -0.6215    0.0930 C   0  0  0  0  0  0  0  0  0  0  0  0
   -4.8314   -0.3009   -0.0496 H   0  0  0  0  0  0  0  0  0  0  0  0
   -3.9264    0.8793   -0.9002 H   0  0  0  0  0  0  0  0  0  0  0  0
   -4.0433    0.9797    0.8466 H   0  0  0  0  0  0  0  0  0  0  0  0
   -1.4063    0.1719    0.0406 C   0  0  0  0  0  0  0  0  0  0  0  0
   -2.6863   -1.3172   -0.7624 H   0  0  0  0  0  0  0  0  0  0  0  0
   -2.7628   -1.2492    0.9610 H   0  0  0  0  0  0  0  0  0  0  0  0
   -0.1519   -0.6854   -0.0013 C   0  0  0  0  0  0  0  0  0  0  0  0
   -1.3434    0.8355    0.8806 H   0  0  0  0  0  0  0  0  0  0  0  0
   -1.3926    0.7958   -0.8508 H   0  0  0  0  0  0  0  0  0  0  0  0
   -0.1212   -1.2770    0.8751 H   0  0  0  0  0  0  0  0  0  0  0  0
    0.8062   -0.0419   -0.0159 H   0  0  0  0  0  0  0  0  0  0  0  0
   -0.1338   -1.3946   -0.9051 H   0  0  0  0  0  0  0  0  0  0  0  0
  1  2  1  0  0  0  0
  1  5  1  0  0  0  0
  2  8  1  0  0  0  0
  3  1  1  0  0  0  0
  4  1  1  0  0  0  0
  6  2  1  0  0  0  0
  6 10  1  0  0  0  0
  7  2  1  0  0  0  0
  9  6  1  0  0  0  0
  9 12  1  0  0  0  0
 11  6  1  0  0  0  0
 13  9  1  0  0  0  0
 14  9  1  0  0  0  0
M  END
$$$$
