butane_opt
 OpenBabel08242015393D

 14 13  0  0  0  0  0  0  0  0999 V2000
   -3.9577    0.2689   -0.0137 C   0  0  0  0  0  0  0  0  0  0  0  0
   -2.7015   -0.6212    0.0694 C   0  0  0  0  0  0  0  0  0  0  0  0
   -4.8529   -0.3304   -0.0028 H   0  0  0  0  0  0  0  0  0  0  0  0
   -3.9823    0.9181   -0.9459 H   0  0  0  0  0  0  0  0  0  0  0  0
   -4.0495    0.8771    0.8119 H   0  0  0  0  0  0  0  0  0  0  0  0
   -1.3978    0.1821    0.0558 C   0  0  0  0  0  0  0  0  0  0  0  0
   -2.6992   -1.3029   -0.7868 H   0  0  0  0  0  0  0  0  0  0  0  0
   -2.6763   -1.2267    0.9488 H   0  0  0  0  0  0  0  0  0  0  0  0
   -0.1527   -0.6871    0.0001 C   0  0  0  0  0  0  0  0  0  0  0  0
   -1.3657    0.8874    0.9188 H   0  0  0  0  0  0  0  0  0  0  0  0
   -1.3920    0.7771   -0.7983 H   0  0  0  0  0  0  0  0  0  0  0  0
   -0.0623   -1.3402    0.9318 H   0  0  0  0  0  0  0  0  0  0  0  0
    0.7639   -0.0999   -0.1317 H   0  0  0  0  0  0  0  0  0  0  0  0
   -0.1892   -1.3424   -0.8554 H   0  0  0  0  0  0  0  0  0  0  0  0
  1  3  1  0  0  0  0
  1  2  1  0  0  0  0
  1  5  1  0  0  0  0
  2  8  1  0  0  0  0
  4  1  1  0  0  0  0
  6  2  1  0  0  0  0
  6 10  1  0  0  0  0
  7  2  1  0  0  0  0
  9  6  1  0  0  0  0
  9 12  1  0  0  0  0
 11  6  1  0  0  0  0
 13  9  1  0  0  0  0
 14  9  1  0  0  0  0
M  END
$$$$
