butane_opt
 OpenBabel08242015393D

 14 13  0  0  0  0  0  0  0  0999 V2000
   -3.9705    0.2738   -0.0585 C   0  0  0  0  0  0  0  0  0  0  0  0
   -2.6553   -0.6238    0.0998 C   0  0  0  0  0  0  0  0  0  0  0  0
   -4.8231   -0.2651    0.1141 H   0  0  0  0  0  0  0  0  0  0  0  0
   -3.8542    1.0119   -1.1079 H   0  0  0  0  0  0  0  0  0  0  0  0
   -3.9894    0.9175    0.7580 H   0  0  0  0  0  0  0  0  0  0  0  0
   -1.4089    0.1310    0.1205 C   0  0  0  0  0  0  0  0  0  0  0  0
   -2.4787   -1.3173   -0.7843 H   0  0  0  0  0  0  0  0  0  0  0  0
   -2.7966   -1.2747    1.0394 H   0  0  0  0  0  0  0  0  0  0  0  0
   -0.1845   -0.6724   -0.0261 C   0  0  0  0  0  0  0  0  0  0  0  0
   -1.3865    0.9337    0.9873 H   0  0  0  0  0  0  0  0  0  0  0  0
   -1.4010    0.7356   -0.7980 H   0  0  0  0  0  0  0  0  0  0  0  0
   -0.0188   -1.2047    0.7860 H   0  0  0  0  0  0  0  0  0  0  0  0
    0.8650   -0.0327   -0.2832 H   0  0  0  0  0  0  0  0  0  0  0  0
   -0.5147   -1.2538   -0.8823 H   0  0  0  0  0  0  0  0  0  0  0  0
  1  2  1  0  0  0  0
  1  3  1  0  0  0  0
  1  5  1  0  0  0  0
  2  6  1  0  0  0  0
  2  8  1  0  0  0  0
  4  1  1  0  0  0  0
  6 10  1  0  0  0  0
  7  2  1  0  0  0  0
  9  6  1  0  0  0  0
  9 12  1  0  0  0  0
 11  6  1  0  0  0  0
 13  9  1  0  0  0  0
 14  9  1  0  0  0  0
M  END
$$$$
