butane_opt
 OpenBabel08242015393D

 14 13  0  0  0  0  0  0  0  0999 V2000
   -3.9461    0.3027   -0.0719 C   0  0  0  0  0  0  0  0  0  0  0  0
   -2.6736   -0.6408    0.1435 C   0  0  0  0  0  0  0  0  0  0  0  0
   -4.7699   -0.2875   -0.1012 H   0  0  0  0  0  0  0  0  0  0  0  0
   -3.9277    0.8772   -0.8701 H   0  0  0  0  0  0  0  0  0  0  0  0
   -3.9929    0.9233    0.7878 H   0  0  0  0  0  0  0  0  0  0  0  0
   -1.3876    0.1050    0.0765 C   0  0  0  0  0  0  0  0  0  0  0  0
   -2.5164   -1.0450   -0.5427 H   0  0  0  0  0  0  0  0  0  0  0  0
   -2.7715   -1.4356    1.1212 H   0  0  0  0  0  0  0  0  0  0  0  0
   -0.2057   -0.6525   -0.0685 C   0  0  0  0  0  0  0  0  0  0  0  0
   -1.4960    0.8721    0.9559 H   0  0  0  0  0  0  0  0  0  0  0  0
   -1.4439    0.7429   -0.7998 H   0  0  0  0  0  0  0  0  0  0  0  0
   -0.2214   -1.0524    0.6552 H   0  0  0  0  0  0  0  0  0  0  0  0
    0.7945    0.0372    0.3000 H   0  0  0  0  0  0  0  0  0  0  0  0
   -0.1601   -1.4679   -1.0367 H   0  0  0  0  0  0  0  0  0  0  0  0
  1  2  1  0  0  0  0
  1  5  1  0  0  0  0
  2  8  1  0  0  0  0
  3  1  1  0  0  0  0
  4  1  1  0  0  0  0
  6  2  1  0  0  0  0
  6 10  1  0  0  0  0
  7  2  1  0  0  0  0
  9  6  1  0  0  0  0
  9 13  1  0  0  0  0
  9 12  1  0  0  0  0
 11  6  1  0  0  0  0
 14  9  1  0  0  0  0
M  END
$$$$
