butane_opt
 OpenBabel08242015393D

 14 13  0  0  0  0  0  0  0  0999 V2000
   -3.9386    0.2270   -0.0252 C   0  0  0  0  0  0  0  0  0  0  0  0
   -2.7309   -0.5397    0.0658 C   0  0  0  0  0  0  0  0  0  0  0  0
   -4.9574   -0.4236    0.0555 H   0  0  0  0  0  0  0  0  0  0  0  0
   -3.8722    0.7351   -0.8614 H   0  0  0  0  0  0  0  0  0  0  0  0
   -3.9759    0.8793    0.7867 H   0  0  0  0  0  0  0  0  0  0  0  0
   -1.4188    0.2221    0.0433 C   0  0  0  0  0  0  0  0  0  0  0  0
   -2.6969   -1.0918   -0.5918 H   0  0  0  0  0  0  0  0  0  0  0  0
   -2.8217   -1.3158    1.0519 H   0  0  0  0  0  0  0  0  0  0  0  0
   -0.1341   -0.7438   -0.0078 C   0  0  0  0  0  0  0  0  0  0  0  0
   -1.2036    0.8416    0.9088 H   0  0  0  0  0  0  0  0  0  0  0  0
   -1.4596    0.8559   -0.8325 H   0  0  0  0  0  0  0  0  0  0  0  0
   -0.0917   -1.2143    0.7768 H   0  0  0  0  0  0  0  0  0  0  0  0
    0.7693   -0.1613    0.1470 H   0  0  0  0  0  0  0  0  0  0  0  0
   -0.0270   -1.5819   -0.9090 H   0  0  0  0  0  0  0  0  0  0  0  0
  1  3  1  0  0  0  0
  1  2  1  0  0  0  0
  1  5  1  0  0  0  0
  2  8  1  0  0  0  0
  4  1  1  0  0  0  0
  6  2  1  0  0  0  0
  6 10  1  0  0  0  0
  7  2  1  0  0  0  0
  9  6  1  0  0  0  0
  9 13  1  0  0  0  0
  9 12  1  0  0  0  0
 11  6  1  0  0  0  0
 14  9  1  0  0  0  0
M  END
$$$$
