14
butane_opt
C  -3.962750   0.228094   0.020306
C  -2.727932  -0.603878  -0.012606
H  -4.846753  -0.325380   0.450902
H  -4.204849   1.019384  -1.007815
H  -3.679823   0.821399   0.910080
C  -1.383617   0.225347   0.008501
H  -2.780828  -1.187222  -0.874707
H  -2.675604  -1.160733   0.781723
C  -0.152076  -0.710576   0.061086
H  -1.339056   0.954439   0.850867
H  -1.355819   0.841121  -0.864574
H  -0.050028  -1.429315   0.961448
H   0.676329  -0.241008   0.109878
H  -0.035914  -1.441376  -0.808735
