14
butane_opt
C  -3.915899   0.221134   0.081709
C  -2.668309  -0.565960  -0.056952
H  -4.802940  -0.352659   0.174060
H  -3.988620   0.823943  -0.780622
H  -3.693340   0.874944   0.948366
C  -1.439358   0.225376  -0.050924
H  -2.851152  -1.440826  -1.096977
H  -2.744013  -1.128764   0.816902
C  -0.173645  -0.723550   0.102294
H  -1.432250   0.955490   0.870614
H  -1.608470   0.795266  -0.819186
H  -0.169642  -1.581064   1.214328
H   0.744343  -0.204813  -0.268719
H  -0.106900  -1.080499  -0.511301
