14
butane_opt
C  -3.947450   0.248815   0.051640
C  -2.716790  -0.592989   0.009076
H  -4.854388  -0.345821   0.090785
H  -4.015094   0.866739  -0.830298
H  -3.933625   0.935999   0.932677
C  -1.397140   0.195692  -0.030469
H  -2.776325  -1.325150  -0.849527
H  -2.687152  -1.189787   0.875371
C  -0.145653  -0.714137   0.060382
H  -1.411319   0.805675   0.769303
H  -1.397098   0.882669  -0.968253
H  -0.195395  -1.268796   0.923715
H   0.757187  -0.106303   0.198188
H  -0.018393  -1.377529  -0.790276
