butane_opt
 OpenBabel08242015393D

 14 13  0  0  0  0  0  0  0  0999 V2000
   -3.9118    0.2565   -0.0782 C   0  0  0  0  0  0  0  0  0  0  0  0
   -2.7325   -0.6372    0.1005 C   0  0  0  0  0  0  0  0  0  0  0  0
   -4.8391   -0.3679   -0.1543 H   0  0  0  0  0  0  0  0  0  0  0  0
   -3.9199    0.8550   -0.9878 H   0  0  0  0  0  0  0  0  0  0  0  0
   -4.0514    0.9865    0.8171 H   0  0  0  0  0  0  0  0  0  0  0  0
   -1.4003    0.2319    0.1408 C   0  0  0  0  0  0  0  0  0  0  0  0
   -2.6499   -1.1050   -0.6264 H   0  0  0  0  0  0  0  0  0  0  0  0
   -2.9226   -1.3531    1.0910 H   0  0  0  0  0  0  0  0  0  0  0  0
   -0.1349   -0.7093   -0.0713 C   0  0  0  0  0  0  0  0  0  0  0  0
   -1.3095    0.9969    1.0449 H   0  0  0  0  0  0  0  0  0  0  0  0
   -1.6899    0.7159   -0.6348 H   0  0  0  0  0  0  0  0  0  0  0  0
    0.1723   -1.4946    0.9136 H   0  0  0  0  0  0  0  0  0  0  0  0
    0.6950   -0.1766   -0.3385 H   0  0  0  0  0  0  0  0  0  0  0  0
   -0.3431   -1.2319   -0.7459 H   0  0  0  0  0  0  0  0  0  0  0  0
  1  2  1  0  0  0  0
  1  5  1  0  0  0  0
  2  6  1  0  0  0  0
  2  8  1  0  0  0  0
  3  1  1  0  0  0  0
  4  1  1  0  0  0  0
  6 10  1  0  0  0  0
  7  2  1  0  0  0  0
  9  6  1  0  0  0  0
  9 12  1  0  0  0  0
 11  6  1  0  0  0  0
 13  9  1  0  0  0  0
 14  9  1  0  0  0  0
M  END
$$$$
