butane_opt
 OpenBabel08242015393D

 14 13  0  0  0  0  0  0  0  0999 V2000
   -3.9134    0.2802   -0.0959 C   0  0  0  0  0  0  0  0  0  0  0  0
   -2.7123   -0.6341    0.1321 C   0  0  0  0  0  0  0  0  0  0  0  0
   -4.9355   -0.4156   -0.2159 H   0  0  0  0  0  0  0  0  0  0  0  0
   -3.7793    0.8775   -0.9927 H   0  0  0  0  0  0  0  0  0  0  0  0
   -4.0259    1.0972    0.9061 H   0  0  0  0  0  0  0  0  0  0  0  0
   -1.3964    0.1710    0.1130 C   0  0  0  0  0  0  0  0  0  0  0  0
   -2.6385   -1.1263   -0.5426 H   0  0  0  0  0  0  0  0  0  0  0  0
   -2.6556   -1.4188    1.2000 H   0  0  0  0  0  0  0  0  0  0  0  0
   -0.1889   -0.6763   -0.0544 C   0  0  0  0  0  0  0  0  0  0  0  0
   -1.3473    0.9878    1.0165 H   0  0  0  0  0  0  0  0  0  0  0  0
   -1.4018    0.6905   -0.6574 H   0  0  0  0  0  0  0  0  0  0  0  0
    0.0404   -1.3143    0.8086 H   0  0  0  0  0  0  0  0  0  0  0  0
    0.7055   -0.2227   -0.2469 H   0  0  0  0  0  0  0  0  0  0  0  0
   -0.4336   -1.3344   -0.9746 H   0  0  0  0  0  0  0  0  0  0  0  0
  1  2  1  0  0  0  0
  1  5  1  0  0  0  0
  2  8  1  0  0  0  0
  3  1  1  0  0  0  0
  4  1  1  0  0  0  0
  6  2  1  0  0  0  0
  6 10  1  0  0  0  0
  7  2  1  0  0  0  0
  9  6  1  0  0  0  0
  9 12  1  0  0  0  0
 11  6  1  0  0  0  0
 13  9  1  0  0  0  0
 14  9  1  0  0  0  0
M  END
$$$$
