14
butane_opt
C  -3.975241   0.283453  -0.058688
C  -2.694234  -0.657337   0.084895
H  -4.822226  -0.240548   0.461429
H  -4.185677   1.324495  -1.247842
H  -3.918650   0.484350   0.452348
C  -1.384804   0.179896   0.119512
H  -2.556522  -1.264435  -0.689623
H  -2.819534  -1.305804   0.975048
C  -0.138289  -0.648542  -0.035823
H  -1.399284   0.995600   1.047660
H  -1.371460   0.570669  -0.622104
H   0.105723  -1.173074   0.788405
H   0.607419  -0.102761   0.016171
H  -0.365304  -1.644148  -1.111365
