butane_opt
 OpenBabel08242015393D

 14 13  0  0  0  0  0  0  0  0999 V2000
   -3.9845    0.2858    0.0004 C   0  0  0  0  0  0  0  0  0  0  0  0
   -2.7399   -0.6497    0.0710 C   0  0  0  0  0  0  0  0  0  0  0  0
   -4.8192   -0.2315   -0.2375 H   0  0  0  0  0  0  0  0  0  0  0  0
   -3.8557    0.6060   -0.7810 H   0  0  0  0  0  0  0  0  0  0  0  0
   -4.1940    1.1912    0.9535 H   0  0  0  0  0  0  0  0  0  0  0  0
   -1.3609    0.1712    0.0338 C   0  0  0  0  0  0  0  0  0  0  0  0
   -2.6385   -1.2922   -0.7628 H   0  0  0  0  0  0  0  0  0  0  0  0
   -2.6372   -1.1986    0.9575 H   0  0  0  0  0  0  0  0  0  0  0  0
   -0.1448   -0.6748    0.0265 C   0  0  0  0  0  0  0  0  0  0  0  0
   -1.4010    0.7761    0.8031 H   0  0  0  0  0  0  0  0  0  0  0  0
   -1.1583    0.9124   -0.9348 H   0  0  0  0  0  0  0  0  0  0  0  0
    0.0645   -1.3796    0.9438 H   0  0  0  0  0  0  0  0  0  0  0  0
    0.7293   -0.2277   -0.2296 H   0  0  0  0  0  0  0  0  0  0  0  0
   -0.3445   -1.2324   -0.8160 H   0  0  0  0  0  0  0  0  0  0  0  0
  1  2  1  0  0  0  0
  1  5  1  0  0  0  0
  2  8  1  0  0  0  0
  3  1  1  0  0  0  0
  4  1  1  0  0  0  0
  6  2  1  0  0  0  0
  6 10  1  0  0  0  0
  7  2  1  0  0  0  0
  9  6  1  0  0  0  0
  9 12  1  0  0  0  0
 11  6  1  0  0  0  0
 13  9  1  0  0  0  0
 14  9  1  0  0  0  0
M  END
$$$$
