14
butane_opt
C  -3.893985   0.225717   0.100336
C  -2.672257  -0.576617  -0.057418
H  -4.903963  -0.457259   0.033599
H  -3.886824   0.705541  -0.688691
H  -3.990221   1.057013   1.089735
C  -1.441740   0.232448  -0.033464
H  -2.731363  -1.435152  -1.113706
H  -2.699532  -0.989563   0.663499
C  -0.197205  -0.723295   0.097703
H  -1.424276   0.783300   0.650821
H  -1.333307   0.854740  -0.904638
H  -0.025524  -1.805267   1.323176
H   0.608910  -0.195816  -0.296546
H  -0.136961  -0.913941  -0.520863
