14
butane_opt
C  -3.950642   0.235392   0.088389
C  -2.712288  -0.595623  -0.014944
H  -4.929408  -0.376365  -0.163349
H  -3.974478   0.570441  -0.605804
H  -4.063048   1.168113   1.078651
C  -1.384453   0.239612  -0.094116
H  -2.807184  -1.323564  -0.919750
H  -2.843382  -1.185624   0.938970
C  -0.139941  -0.725639   0.090766
H  -1.357393   0.946420   0.825227
H  -1.332829   0.907158  -1.008680
H  -0.160684  -1.518693   1.104545
H   0.614796  -0.284684  -0.052265
H   0.113015  -1.257256  -0.562437
