butane_opt
 OpenBabel08242015393D

 14 12  0  0  0  0  0  0  0  0999 V2000
   -3.9274    0.2283    0.0856 C   0  0  0  0  0  0  0  0  0  0  0  0
   -2.7074   -0.5427   -0.0544 C   0  0  0  0  0  0  0  0  0  0  0  0
   -4.8571   -0.4017    0.1267 H   0  0  0  0  0  0  0  0  0  0  0  0
   -3.9007    0.7340   -0.7559 H   0  0  0  0  0  0  0  0  0  0  0  0
   -3.6529    0.9107    0.9547 H   0  0  0  0  0  0  0  0  0  0  0  0
   -1.4341    0.1901   -0.0266 C   0  0  0  0  0  0  0  0  0  0  0  0
   -2.7628   -1.2808   -0.9996 H   0  0  0  0  0  0  0  0  0  0  0  0
   -2.6882   -1.0675    0.7765 H   0  0  0  0  0  0  0  0  0  0  0  0
   -0.1661   -0.7259    0.0673 C   0  0  0  0  0  0  0  0  0  0  0  0
   -1.4387    0.9674    0.8784 H   0  0  0  0  0  0  0  0  0  0  0  0
   -1.3258    0.7897   -0.9555 H   0  0  0  0  0  0  0  0  0  0  0  0
   -0.2463   -1.7075    1.1736 H   0  0  0  0  0  0  0  0  0  0  0  0
    0.7456   -0.1746   -0.1372 H   0  0  0  0  0  0  0  0  0  0  0  0
   -0.0724   -1.0382   -0.4493 H   0  0  0  0  0  0  0  0  0  0  0  0
  1  3  1  0  0  0  0
  1  5  1  0  0  0  0
  2  6  1  0  0  0  0
  2  1  1  0  0  0  0
  2  8  1  0  0  0  0
  4  1  1  0  0  0  0
  6  9  1  0  0  0  0
  6 10  1  0  0  0  0
  7  2  1  0  0  0  0
  9 12  1  0  0  0  0
 11  6  1  0  0  0  0
 13  9  1  0  0  0  0
M  RAD  2   9   2  14   2
M  END
$$$$
