butane_opt
 OpenBabel08242015393D

 14 13  0  0  0  0  0  0  0  0999 V2000
   -3.9715    0.2160    0.1044 C   0  0  0  0  0  0  0  0  0  0  0  0
   -2.7035   -0.5813   -0.1018 C   0  0  0  0  0  0  0  0  0  0  0  0
   -4.8903   -0.3471    0.5307 H   0  0  0  0  0  0  0  0  0  0  0  0
   -4.0998    0.9945   -0.8335 H   0  0  0  0  0  0  0  0  0  0  0  0
   -3.7350    0.8131    0.8794 H   0  0  0  0  0  0  0  0  0  0  0  0
   -1.3872    0.1970   -0.0618 C   0  0  0  0  0  0  0  0  0  0  0  0
   -2.8450   -1.3362   -1.0675 H   0  0  0  0  0  0  0  0  0  0  0  0
   -2.6020   -1.0204    0.7337 H   0  0  0  0  0  0  0  0  0  0  0  0
   -0.1496   -0.7106    0.1577 C   0  0  0  0  0  0  0  0  0  0  0  0
   -1.5416    0.9230    0.7862 H   0  0  0  0  0  0  0  0  0  0  0  0
   -1.3509    1.0175   -1.0748 H   0  0  0  0  0  0  0  0  0  0  0  0
    0.0097   -1.4221    1.0264 H   0  0  0  0  0  0  0  0  0  0  0  0
    0.6858   -0.2073    0.0278 H   0  0  0  0  0  0  0  0  0  0  0  0
   -0.1028   -1.3704   -0.7502 H   0  0  0  0  0  0  0  0  0  0  0  0
  1  3  1  0  0  0  0
  1  5  1  0  0  0  0
  2  6  1  0  0  0  0
  2  1  1  0  0  0  0
  2  8  1  0  0  0  0
  4  1  1  0  0  0  0
  6  9  1  0  0  0  0
  6 10  1  0  0  0  0
  7  2  1  0  0  0  0
  9 12  1  0  0  0  0
 11  6  1  0  0  0  0
 13  9  1  0  0  0  0
 14  9  1  0  0  0  0
M  END
$$$$
