14
butane_opt
C  -3.944167   0.251701   0.082978
C  -2.723887  -0.622588  -0.077299
H  -4.874561  -0.392746   0.164765
H  -3.970358   0.772256  -0.747251
H  -3.887159   1.125660   1.048907
C  -1.415978   0.234759  -0.046913
H  -2.641846  -1.480286  -0.991418
H  -2.666103  -1.212550   0.803472
C  -0.134982  -0.702747   0.098898
H  -1.337660   0.988171   0.816983
H  -1.420417   0.751046  -0.787926
H  -0.025369  -1.792659   1.358559
H   0.637809  -0.163666  -0.353050
H  -0.191535  -1.005535  -0.492248
