14
butane_opt
C  -3.933093   0.289170   0.135680
C  -2.653519  -0.636467  -0.056084
H  -4.753703  -0.274288   0.178125
H  -4.122968   0.920037  -0.800759
H  -3.862992   0.861245   0.907569
C  -1.421394   0.164870  -0.139087
H  -2.840500  -1.441858  -1.019322
H  -2.502226  -1.264968   0.793614
C  -0.199644  -0.678570   0.146114
H  -1.452340   0.811122   0.691032
H  -1.381369   0.763965  -0.950313
H  -0.381748  -1.145520   0.926419
H   0.807831   0.039206   0.314242
H  -0.052841  -1.375809  -0.667355
