butane_opt
 OpenBabel08242015393D

 14 13  0  0  0  0  0  0  0  0999 V2000
   -3.9723    0.2807    0.0843 C   0  0  0  0  0  0  0  0  0  0  0  0
   -2.6888   -0.6574   -0.0594 C   0  0  0  0  0  0  0  0  0  0  0  0
   -4.8286   -0.2992    0.2844 H   0  0  0  0  0  0  0  0  0  0  0  0
   -4.3271    1.1006   -0.8788 H   0  0  0  0  0  0  0  0  0  0  0  0
   -3.8731    0.8389    0.8240 H   0  0  0  0  0  0  0  0  0  0  0  0
   -1.3699    0.1799   -0.0535 C   0  0  0  0  0  0  0  0  0  0  0  0
   -2.7605   -1.2488   -0.8361 H   0  0  0  0  0  0  0  0  0  0  0  0
   -2.7775   -1.1704    0.7681 H   0  0  0  0  0  0  0  0  0  0  0  0
   -0.1675   -0.6682    0.1042 C   0  0  0  0  0  0  0  0  0  0  0  0
   -1.4121    0.9167    0.9331 H   0  0  0  0  0  0  0  0  0  0  0  0
   -1.1497    0.6798   -0.8769 H   0  0  0  0  0  0  0  0  0  0  0  0
   -0.0816   -1.3678    1.0485 H   0  0  0  0  0  0  0  0  0  0  0  0
    0.7463   -0.1462   -0.0417 H   0  0  0  0  0  0  0  0  0  0  0  0
   -0.1784   -1.3877   -0.7253 H   0  0  0  0  0  0  0  0  0  0  0  0
  1  3  1  0  0  0  0
  1  5  1  0  0  0  0
  2  6  1  0  0  0  0
  2  1  1  0  0  0  0
  2  8  1  0  0  0  0
  4  1  1  0  0  0  0
  6  9  1  0  0  0  0
  6 10  1  0  0  0  0
  7  2  1  0  0  0  0
  9 12  1  0  0  0  0
 11  6  1  0  0  0  0
 13  9  1  0  0  0  0
 14  9  1  0  0  0  0
M  END
$$$$
