14
butane_opt
C  -3.970491   0.273806  -0.058515
C  -2.655271  -0.623775   0.099796
H  -4.823056  -0.265150   0.114097
H  -3.854200   1.011909  -1.107943
H  -3.989360   0.917544   0.757965
C  -1.408910   0.131034   0.120509
H  -2.478667  -1.317292  -0.784298
H  -2.796607  -1.274709   1.039429
C  -0.184462  -0.672360  -0.026127
H  -1.386474   0.933672   0.987342
H  -1.401040   0.735554  -0.797970
H  -0.018801  -1.204672   0.786049
H   0.864954  -0.032706  -0.283197
H  -0.514727  -1.253820  -0.882335
