14
butane_opt
C  -4.006236   0.284369   0.049958
C  -2.681365  -0.650653  -0.029762
H  -4.847381  -0.262193   0.401685
H  -4.242804   1.215738  -0.991268
H  -3.720608   0.845290   0.839959
C  -1.404552   0.123767   0.019036
H  -2.582376  -1.351640  -0.938895
H  -2.671603  -1.232769   0.769235
C  -0.149171  -0.646988   0.063279
H  -1.276487   0.764426   0.777234
H  -1.273196   0.870730  -0.927574
H  -0.203923  -1.235182   0.903504
H   0.832724  -0.059523   0.160737
H  -0.152324  -1.333809  -0.794374
