14
butane_opt
C  -3.925421   0.228513  -0.038084
C  -2.762002  -0.575365   0.083424
H  -4.821861  -0.346527   0.093908
H  -4.040768   1.136293  -1.087026
H  -3.953627   0.678449   0.546596
C  -1.406481   0.226528   0.101170
H  -2.759589  -1.074926  -0.685489
H  -2.804259  -1.480120   1.106765
C  -0.111796  -0.717810  -0.032642
H  -1.305712   0.996328   1.067053
H  -1.452957   0.742140  -0.719708
H   0.001001  -1.213899   0.768977
H   0.735233  -0.178995   0.046979
H  -0.143575  -1.683397  -1.118203
