butane_opt
 OpenBabel08242015393D

 14 13  0  0  0  0  0  0  0  0999 V2000
   -3.9194    0.2265   -0.0271 C   0  0  0  0  0  0  0  0  0  0  0  0
   -2.7065   -0.6097    0.0975 C   0  0  0  0  0  0  0  0  0  0  0  0
   -4.9362   -0.3928   -0.3377 H   0  0  0  0  0  0  0  0  0  0  0  0
   -3.7818    0.6003   -0.7697 H   0  0  0  0  0  0  0  0  0  0  0  0
   -4.0920    1.1827    1.0025 H   0  0  0  0  0  0  0  0  0  0  0  0
   -1.4461    0.2440    0.0164 C   0  0  0  0  0  0  0  0  0  0  0  0
   -2.7246   -1.0760   -0.5732 H   0  0  0  0  0  0  0  0  0  0  0  0
   -2.9191   -1.3396    1.1324 H   0  0  0  0  0  0  0  0  0  0  0  0
   -0.1115   -0.7197    0.0155 C   0  0  0  0  0  0  0  0  0  0  0  0
   -1.4872    1.0438    0.9809 H   0  0  0  0  0  0  0  0  0  0  0  0
   -1.4227    0.8589   -0.9216 H   0  0  0  0  0  0  0  0  0  0  0  0
   -0.0261   -1.3505    0.9139 H   0  0  0  0  0  0  0  0  0  0  0  0
    0.7241   -0.2461   -0.2131 H   0  0  0  0  0  0  0  0  0  0  0  0
   -0.1419   -1.4885   -0.9948 H   0  0  0  0  0  0  0  0  0  0  0  0
  1  2  1  0  0  0  0
  1  5  1  0  0  0  0
  2  8  1  0  0  0  0
  3  1  1  0  0  0  0
  4  1  1  0  0  0  0
  6  2  1  0  0  0  0
  6 10  1  0  0  0  0
  7  2  1  0  0  0  0
  9  6  1  0  0  0  0
  9 12  1  0  0  0  0
 11  6  1  0  0  0  0
 13  9  1  0  0  0  0
 14  9  1  0  0  0  0
M  END
$$$$
