butane_opt
 OpenBabel08242015393D

 14 12  0  0  0  0  0  0  0  0999 V2000
   -3.9776    0.3137   -0.0578 C   0  0  0  0  0  0  0  0  0  0  0  0
   -2.6653   -0.6944    0.0797 C   0  0  0  0  0  0  0  0  0  0  0  0
   -4.8493   -0.2742    0.4088 H   0  0  0  0  0  0  0  0  0  0  0  0
   -4.2112    1.4474   -1.2120 H   0  0  0  0  0  0  0  0  0  0  0  0
   -3.8282    0.5366    0.5225 H   0  0  0  0  0  0  0  0  0  0  0  0
   -1.3833    0.1620    0.1050 C   0  0  0  0  0  0  0  0  0  0  0  0
   -2.5901   -1.2984   -0.6930 H   0  0  0  0  0  0  0  0  0  0  0  0
   -2.8400   -1.4638    1.1147 H   0  0  0  0  0  0  0  0  0  0  0  0
   -0.1845   -0.6577   -0.0376 C   0  0  0  0  0  0  0  0  0  0  0  0
   -1.3710    1.0747    1.1201 H   0  0  0  0  0  0  0  0  0  0  0  0
   -1.3573    0.5654   -0.6957 H   0  0  0  0  0  0  0  0  0  0  0  0
   -0.0039   -0.9671    0.6703 H   0  0  0  0  0  0  0  0  0  0  0  0
    0.7057   -0.0184    0.1205 H   0  0  0  0  0  0  0  0  0  0  0  0
   -0.1827   -1.5325   -1.0660 H   0  0  0  0  0  0  0  0  0  0  0  0
  1  2  1  0  0  0  0
  1  3  1  0  0  0  0
  1  5  1  0  0  0  0
  2  6  1  0  0  0  0
  2  8  1  0  0  0  0
  6 10  1  0  0  0  0
  7  2  1  0  0  0  0
  9  6  1  0  0  0  0
  9 13  1  0  0  0  0
  9 12  1  0  0  0  0
 11  6  1  0  0  0  0
 14  9  1  0  0  0  0
M  RAD  2   1   2   4   2
M  END
$$$$
