butane_opt
 OpenBabel08242015393D

 14 13  0  0  0  0  0  0  0  0999 V2000
   -3.9964    0.2782   -0.0160 C   0  0  0  0  0  0  0  0  0  0  0  0
   -2.7087   -0.6524    0.0795 C   0  0  0  0  0  0  0  0  0  0  0  0
   -4.8616   -0.1653    0.0684 H   0  0  0  0  0  0  0  0  0  0  0  0
   -4.1178    1.0338   -1.0413 H   0  0  0  0  0  0  0  0  0  0  0  0
   -3.9544    1.0844    0.9147 H   0  0  0  0  0  0  0  0  0  0  0  0
   -1.3740    0.1249    0.0171 C   0  0  0  0  0  0  0  0  0  0  0  0
   -2.6476   -1.1853   -0.6514 H   0  0  0  0  0  0  0  0  0  0  0  0
   -2.7972   -1.5068    1.0798 H   0  0  0  0  0  0  0  0  0  0  0  0
   -0.1211   -0.6466    0.0090 C   0  0  0  0  0  0  0  0  0  0  0  0
   -1.3294    0.7857    0.9251 H   0  0  0  0  0  0  0  0  0  0  0  0
   -1.5109    0.8400   -0.9038 H   0  0  0  0  0  0  0  0  0  0  0  0
   -0.3066   -0.9496    0.7135 H   0  0  0  0  0  0  0  0  0  0  0  0
    0.8116   -0.0096    0.3155 H   0  0  0  0  0  0  0  0  0  0  0  0
    0.0627   -1.6295   -1.0903 H   0  0  0  0  0  0  0  0  0  0  0  0
  1  3  1  0  0  0  0
  1  2  1  0  0  0  0
  1  5  1  0  0  0  0
  2  8  1  0  0  0  0
  4  1  1  0  0  0  0
  6  2  1  0  0  0  0
  6 10  1  0  0  0  0
  7  2  1  0  0  0  0
  9  6  1  0  0  0  0
  9 13  1  0  0  0  0
  9 12  1  0  0  0  0
 11  6  1  0  0  0  0
 14  9  1  0  0  0  0
M  END
$$$$
