14
butane_opt
C  -3.950151   0.237692   0.045787
C  -2.704733  -0.599773   0.035625
H  -4.913650  -0.347037  -0.410432
H  -3.883666   0.381066  -0.482907
H  -4.117062   1.290509   1.145861
C  -1.404814   0.257661  -0.050576
H  -2.635249  -1.275509  -0.774393
H  -2.669000  -1.338652   0.933097
C  -0.147879  -0.722483   0.046554
H  -1.498343   0.733354   0.684809
H  -1.300761   0.925750  -0.980234
H  -0.037932  -1.515396   1.053684
H   0.662945  -0.186378   0.033969
H  -0.114255  -1.235341  -0.631042
