butane_opt
 OpenBabel08242015393D

 14 13  0  0  0  0  0  0  0  0999 V2000
   -3.9810    0.3081    0.0921 C   0  0  0  0  0  0  0  0  0  0  0  0
   -2.6923   -0.6349   -0.0487 C   0  0  0  0  0  0  0  0  0  0  0  0
   -4.8408   -0.3225    0.3062 H   0  0  0  0  0  0  0  0  0  0  0  0
   -4.2275    1.0303   -0.8763 H   0  0  0  0  0  0  0  0  0  0  0  0
   -3.9380    0.7459    0.7636 H   0  0  0  0  0  0  0  0  0  0  0  0
   -1.4015    0.1319   -0.0381 C   0  0  0  0  0  0  0  0  0  0  0  0
   -2.8937   -1.5482   -1.0101 H   0  0  0  0  0  0  0  0  0  0  0  0
   -2.4324   -1.1800    0.6980 H   0  0  0  0  0  0  0  0  0  0  0  0
   -0.1496   -0.6485    0.0984 C   0  0  0  0  0  0  0  0  0  0  0  0
   -1.3189    0.8910    0.8360 H   0  0  0  0  0  0  0  0  0  0  0  0
   -1.1858    0.7764   -0.9982 H   0  0  0  0  0  0  0  0  0  0  0  0
   -0.1423   -1.3933    1.1137 H   0  0  0  0  0  0  0  0  0  0  0  0
    0.7586   -0.0586    0.0422 H   0  0  0  0  0  0  0  0  0  0  0  0
   -0.1258   -1.2716   -0.7032 H   0  0  0  0  0  0  0  0  0  0  0  0
  1  3  1  0  0  0  0
  1  5  1  0  0  0  0
  2  6  1  0  0  0  0
  2  1  1  0  0  0  0
  2  8  1  0  0  0  0
  4  1  1  0  0  0  0
  6  9  1  0  0  0  0
  6 10  1  0  0  0  0
  7  2  1  0  0  0  0
  9 12  1  0  0  0  0
 11  6  1  0  0  0  0
 13  9  1  0  0  0  0
 14  9  1  0  0  0  0
M  END
$$$$
