butane_opt
 OpenBabel08242015393D

 14 13  0  0  0  0  0  0  0  0999 V2000
   -3.9744    0.2608   -0.0454 C   0  0  0  0  0  0  0  0  0  0  0  0
   -2.7088   -0.6229    0.0838 C   0  0  0  0  0  0  0  0  0  0  0  0
   -4.9919   -0.3723   -0.0074 H   0  0  0  0  0  0  0  0  0  0  0  0
   -3.8421    0.8830   -0.9874 H   0  0  0  0  0  0  0  0  0  0  0  0
   -4.0790    0.9410    0.7661 H   0  0  0  0  0  0  0  0  0  0  0  0
   -1.3741    0.2384    0.1112 C   0  0  0  0  0  0  0  0  0  0  0  0
   -2.7269   -1.3563   -0.7779 H   0  0  0  0  0  0  0  0  0  0  0  0
   -2.8729   -1.1950    0.9002 H   0  0  0  0  0  0  0  0  0  0  0  0
   -0.1500   -0.7333   -0.0307 C   0  0  0  0  0  0  0  0  0  0  0  0
   -1.1390    0.8841    1.0159 H   0  0  0  0  0  0  0  0  0  0  0  0
   -1.5525    0.8217   -0.6833 H   0  0  0  0  0  0  0  0  0  0  0  0
    0.1360   -1.4630    0.9868 H   0  0  0  0  0  0  0  0  0  0  0  0
    0.7356   -0.2028   -0.4155 H   0  0  0  0  0  0  0  0  0  0  0  0
   -0.1937   -1.1287   -0.7444 H   0  0  0  0  0  0  0  0  0  0  0  0
  1  3  1  0  0  0  0
  1  2  1  0  0  0  0
  1  5  1  0  0  0  0
  2  6  1  0  0  0  0
  2  8  1  0  0  0  0
  4  1  1  0  0  0  0
  6 10  1  0  0  0  0
  7  2  1  0  0  0  0
  9  6  1  0  0  0  0
  9 12  1  0  0  0  0
 11  6  1  0  0  0  0
 13  9  1  0  0  0  0
 14  9  1  0  0  0  0
M  END
$$$$
