butane_opt
 OpenBabel08242015393D

 14 13  0  0  0  0  0  0  0  0999 V2000
   -3.9027    0.2381   -0.1092 C   0  0  0  0  0  0  0  0  0  0  0  0
   -2.7153   -0.5655    0.1110 C   0  0  0  0  0  0  0  0  0  0  0  0
   -4.9105   -0.4822    0.0564 H   0  0  0  0  0  0  0  0  0  0  0  0
   -3.7472    0.9556   -1.1255 H   0  0  0  0  0  0  0  0  0  0  0  0
   -3.9879    0.8662    0.7983 H   0  0  0  0  0  0  0  0  0  0  0  0
   -1.4120    0.2082    0.1740 C   0  0  0  0  0  0  0  0  0  0  0  0
   -2.7360   -1.2008   -0.6996 H   0  0  0  0  0  0  0  0  0  0  0  0
   -2.7807   -1.2741    1.0802 H   0  0  0  0  0  0  0  0  0  0  0  0
   -0.1729   -0.7455   -0.0617 C   0  0  0  0  0  0  0  0  0  0  0  0
   -1.4827    0.9817    1.2007 H   0  0  0  0  0  0  0  0  0  0  0  0
   -1.5439    0.8038   -0.6779 H   0  0  0  0  0  0  0  0  0  0  0  0
    0.2248   -1.4530    0.8612 H   0  0  0  0  0  0  0  0  0  0  0  0
    0.8670   -0.0229   -0.5336 H   0  0  0  0  0  0  0  0  0  0  0  0
   -0.4902   -1.2504   -0.8873 H   0  0  0  0  0  0  0  0  0  0  0  0
  1  3  1  0  0  0  0
  1  2  1  0  0  0  0
  1  5  1  0  0  0  0
  2  6  1  0  0  0  0
  2  8  1  0  0  0  0
  4  1  1  0  0  0  0
  6 10  1  0  0  0  0
  7  2  1  0  0  0  0
  9  6  1  0  0  0  0
  9 12  1  0  0  0  0
 11  6  1  0  0  0  0
 13  9  1  0  0  0  0
 14  9  1  0  0  0  0
M  END
$$$$
