butane_opt
 OpenBabel08242015393D

 14 13  0  0  0  0  0  0  0  0999 V2000
   -3.9509    0.2771    0.0125 C   0  0  0  0  0  0  0  0  0  0  0  0
   -2.6980   -0.6391    0.0514 C   0  0  0  0  0  0  0  0  0  0  0  0
   -4.8335   -0.3051   -0.0507 H   0  0  0  0  0  0  0  0  0  0  0  0
   -3.9721    0.7888   -0.7970 H   0  0  0  0  0  0  0  0  0  0  0  0
   -4.0780    1.0568    0.9416 H   0  0  0  0  0  0  0  0  0  0  0  0
   -1.4052    0.1732    0.0050 C   0  0  0  0  0  0  0  0  0  0  0  0
   -2.6880   -1.3123   -0.8048 H   0  0  0  0  0  0  0  0  0  0  0  0
   -2.7229   -1.2203    0.9326 H   0  0  0  0  0  0  0  0  0  0  0  0
   -0.1526   -0.6823    0.0329 C   0  0  0  0  0  0  0  0  0  0  0  0
   -1.3741    0.7946    0.8242 H   0  0  0  0  0  0  0  0  0  0  0  0
   -1.3528    0.8625   -0.9193 H   0  0  0  0  0  0  0  0  0  0  0  0
   -0.1233   -1.2996    0.9265 H   0  0  0  0  0  0  0  0  0  0  0  0
    0.7472   -0.0775   -0.0045 H   0  0  0  0  0  0  0  0  0  0  0  0
   -0.1455   -1.3114   -0.8132 H   0  0  0  0  0  0  0  0  0  0  0  0
  1  2  1  0  0  0  0
  1  5  1  0  0  0  0
  2  8  1  0  0  0  0
  3  1  1  0  0  0  0
  4  1  1  0  0  0  0
  6  9  1  0  0  0  0
  6  2  1  0  0  0  0
  6 10  1  0  0  0  0
  7  2  1  0  0  0  0
  9 12  1  0  0  0  0
 11  6  1  0  0  0  0
 13  9  1  0  0  0  0
 14  9  1  0  0  0  0
M  END
$$$$
