butane_opt
 OpenBabel08242015393D

 14 13  0  0  0  0  0  0  0  0999 V2000
   -3.9769    0.2943   -0.0238 C   0  0  0  0  0  0  0  0  0  0  0  0
   -2.7004   -0.6596    0.0259 C   0  0  0  0  0  0  0  0  0  0  0  0
   -4.9289   -0.2788    0.5202 H   0  0  0  0  0  0  0  0  0  0  0  0
   -4.1760    1.2876   -1.1441 H   0  0  0  0  0  0  0  0  0  0  0  0
   -3.8332    0.5506    0.5862 H   0  0  0  0  0  0  0  0  0  0  0  0
   -1.3974    0.1755    0.0629 C   0  0  0  0  0  0  0  0  0  0  0  0
   -2.6960   -1.1568   -0.7360 H   0  0  0  0  0  0  0  0  0  0  0  0
   -2.8592   -1.3553    1.0347 H   0  0  0  0  0  0  0  0  0  0  0  0
   -0.1233   -0.6924    0.0118 C   0  0  0  0  0  0  0  0  0  0  0  0
   -1.4696    0.9875    1.0722 H   0  0  0  0  0  0  0  0  0  0  0  0
   -1.3412    0.5915   -0.6420 H   0  0  0  0  0  0  0  0  0  0  0  0
   -0.0700   -0.9621    0.6618 H   0  0  0  0  0  0  0  0  0  0  0  0
    0.8378   -0.0301   -0.0244 H   0  0  0  0  0  0  0  0  0  0  0  0
   -0.1251   -1.4994   -0.8916 H   0  0  0  0  0  0  0  0  0  0  0  0
  1  2  1  0  0  0  0
  1  3  1  0  0  0  0
  1  5  1  0  0  0  0
  2  6  1  0  0  0  0
  2  8  1  0  0  0  0
  4  1  1  0  0  0  0
  6 10  1  0  0  0  0
  7  2  1  0  0  0  0
  9  6  1  0  0  0  0
  9 12  1  0  0  0  0
 11  6  1  0  0  0  0
 13  9  1  0  0  0  0
 14  9  1  0  0  0  0
M  END
$$$$
