14
butane_opt
C  -3.942855   0.223747  -0.066425
C  -2.708700  -0.559310   0.159690
H  -4.944702  -0.483888  -0.402808
H  -3.647355   0.799662  -0.962353
H  -3.945874   1.003498   0.781393
C  -1.424121   0.199907   0.118951
H  -2.540627  -1.173471  -0.644126
H  -2.851755  -1.290338   1.116240
C  -0.141645  -0.708353  -0.083371
H  -1.357939   1.014935   1.058707
H  -1.664045   0.743551  -0.791026
H  -0.006924  -1.419796   0.858941
H   0.685072  -0.249004  -0.234107
H  -0.139804  -1.303564  -0.866141
