14
butane_opt
C  -3.905545   0.212850   0.081688
C  -2.705417  -0.562626   0.014129
H  -4.886871  -0.385950  -0.173470
H  -3.759746   0.490004  -0.647902
H  -4.031978   1.234998   1.122357
C  -1.439165   0.222987  -0.072680
H  -2.789340  -1.416594  -0.929313
H  -2.639279  -1.120164   0.867452
C  -0.179607  -0.714872   0.079864
H  -1.468701   0.762756   0.615953
H  -1.490221   1.107996  -1.121076
H  -0.152226  -1.521681   1.138334
H   0.745614  -0.150989   0.159460
H   0.197962  -1.394665  -0.773750
