butane_opt
 OpenBabel08242015393D

 14 13  0  0  0  0  0  0  0  0999 V2000
   -3.9843    0.3261    0.0662 C   0  0  0  0  0  0  0  0  0  0  0  0
   -2.6716   -0.7066   -0.0567 C   0  0  0  0  0  0  0  0  0  0  0  0
   -4.8404   -0.2612    0.3751 H   0  0  0  0  0  0  0  0  0  0  0  0
   -4.2283    0.9925   -0.7861 H   0  0  0  0  0  0  0  0  0  0  0  0
   -3.9420    0.8012    0.7831 H   0  0  0  0  0  0  0  0  0  0  0  0
   -1.3917    0.1763   -0.0069 C   0  0  0  0  0  0  0  0  0  0  0  0
   -2.6932   -1.4703   -0.9311 H   0  0  0  0  0  0  0  0  0  0  0  0
   -2.6922   -1.1731    0.7813 H   0  0  0  0  0  0  0  0  0  0  0  0
   -0.1590   -0.6508    0.0866 C   0  0  0  0  0  0  0  0  0  0  0  0
   -1.2930    0.6817    0.7938 H   0  0  0  0  0  0  0  0  0  0  0  0
   -1.3653    0.8654   -0.9750 H   0  0  0  0  0  0  0  0  0  0  0  0
   -0.1201   -1.3074    1.0727 H   0  0  0  0  0  0  0  0  0  0  0  0
    0.7226   -0.0353    0.0519 H   0  0  0  0  0  0  0  0  0  0  0  0
   -0.1237   -1.2926   -0.7896 H   0  0  0  0  0  0  0  0  0  0  0  0
  1  3  1  0  0  0  0
  1  5  1  0  0  0  0
  2  6  1  0  0  0  0
  2  1  1  0  0  0  0
  2  8  1  0  0  0  0
  4  1  1  0  0  0  0
  6  9  1  0  0  0  0
  6 10  1  0  0  0  0
  7  2  1  0  0  0  0
  9 12  1  0  0  0  0
 11  6  1  0  0  0  0
 13  9  1  0  0  0  0
 14  9  1  0  0  0  0
M  END
$$$$
