butane_opt
 OpenBabel08242015393D

 14 13  0  0  0  0  0  0  0  0999 V2000
   -3.9814    0.3286   -0.0969 C   0  0  0  0  0  0  0  0  0  0  0  0
   -2.7125   -0.6893    0.1834 C   0  0  0  0  0  0  0  0  0  0  0  0
   -4.9124   -0.3397   -0.5005 H   0  0  0  0  0  0  0  0  0  0  0  0
   -3.7472    0.8013   -0.9224 H   0  0  0  0  0  0  0  0  0  0  0  0
   -4.2804    1.1151    0.8588 H   0  0  0  0  0  0  0  0  0  0  0  0
   -1.3638    0.1376    0.1310 C   0  0  0  0  0  0  0  0  0  0  0  0
   -2.6563   -1.1397   -0.4809 H   0  0  0  0  0  0  0  0  0  0  0  0
   -2.7022   -1.3119    1.1910 H   0  0  0  0  0  0  0  0  0  0  0  0
   -0.1433   -0.6537   -0.0786 C   0  0  0  0  0  0  0  0  0  0  0  0
   -1.2925    0.7348    0.9284 H   0  0  0  0  0  0  0  0  0  0  0  0
   -1.4005    0.8536   -0.8234 H   0  0  0  0  0  0  0  0  0  0  0  0
    0.0070   -1.1762    0.7294 H   0  0  0  0  0  0  0  0  0  0  0  0
    0.8154   -0.0357   -0.0793 H   0  0  0  0  0  0  0  0  0  0  0  0
   -0.4540   -1.4687   -1.1312 H   0  0  0  0  0  0  0  0  0  0  0  0
  1  2  1  0  0  0  0
  1  5  1  0  0  0  0
  2  8  1  0  0  0  0
  3  1  1  0  0  0  0
  4  1  1  0  0  0  0
  6  2  1  0  0  0  0
  6 10  1  0  0  0  0
  7  2  1  0  0  0  0
  9  6  1  0  0  0  0
  9 12  1  0  0  0  0
 11  6  1  0  0  0  0
 13  9  1  0  0  0  0
 14  9  1  0  0  0  0
M  END
$$$$
