14
butane_opt
C  -3.925417   0.291953  -0.079648
C  -2.656392  -0.623946   0.172950
H  -4.854870  -0.264154  -0.366971
H  -3.874623   0.723510  -0.951691
H  -4.088273   1.032731   0.792949
C  -1.434377   0.149030   0.124281
H  -2.577130  -1.271596  -0.604301
H  -2.675246  -1.442157   1.154995
C  -0.210506  -0.660940  -0.075841
H  -1.236632   0.655903   0.861734
H  -1.439011   0.788834  -0.869251
H  -0.100660  -1.072750   0.656059
H   0.774633  -0.051454   0.047198
H  -0.246475  -1.416851  -0.982772
