butane_opt
 OpenBabel08242015393D

 14 13  0  0  0  0  0  0  0  0999 V2000
   -3.9254    0.2549   -0.0137 C   0  0  0  0  0  0  0  0  0  0  0  0
   -2.7138   -0.6047    0.0760 C   0  0  0  0  0  0  0  0  0  0  0  0
   -4.8491   -0.3325   -0.0295 H   0  0  0  0  0  0  0  0  0  0  0  0
   -3.8877    0.8811   -0.9192 H   0  0  0  0  0  0  0  0  0  0  0  0
   -3.9901    0.9095    0.8257 H   0  0  0  0  0  0  0  0  0  0  0  0
   -1.4127    0.1941    0.0549 C   0  0  0  0  0  0  0  0  0  0  0  0
   -2.7138   -1.2845   -0.7969 H   0  0  0  0  0  0  0  0  0  0  0  0
   -2.7052   -1.2215    0.9430 H   0  0  0  0  0  0  0  0  0  0  0  0
   -0.1589   -0.6983   -0.0012 C   0  0  0  0  0  0  0  0  0  0  0  0
   -1.3576    0.8731    0.8856 H   0  0  0  0  0  0  0  0  0  0  0  0
   -1.4468    0.8191   -0.8189 H   0  0  0  0  0  0  0  0  0  0  0  0
   -0.1098   -1.3801    0.9315 H   0  0  0  0  0  0  0  0  0  0  0  0
    0.7487   -0.1306   -0.0830 H   0  0  0  0  0  0  0  0  0  0  0  0
   -0.1795   -1.3632   -0.8882 H   0  0  0  0  0  0  0  0  0  0  0  0
  1  2  1  0  0  0  0
  1  5  1  0  0  0  0
  2  8  1  0  0  0  0
  3  1  1  0  0  0  0
  4  1  1  0  0  0  0
  6  2  1  0  0  0  0
  6 10  1  0  0  0  0
  7  2  1  0  0  0  0
  9  6  1  0  0  0  0
  9 12  1  0  0  0  0
 11  6  1  0  0  0  0
 13  9  1  0  0  0  0
 14  9  1  0  0  0  0
M  END
$$$$
