butane_opt
 OpenBabel08242015393D

 14 13  0  0  0  0  0  0  0  0999 V2000
   -3.9551    0.3086    0.0827 C   0  0  0  0  0  0  0  0  0  0  0  0
   -2.6591   -0.6765   -0.0102 C   0  0  0  0  0  0  0  0  0  0  0  0
   -4.8759   -0.2696    0.2627 H   0  0  0  0  0  0  0  0  0  0  0  0
   -4.0439    0.7896   -0.7866 H   0  0  0  0  0  0  0  0  0  0  0  0
   -3.8482    1.1401    1.0726 H   0  0  0  0  0  0  0  0  0  0  0  0
   -1.3742    0.1671   -0.0989 C   0  0  0  0  0  0  0  0  0  0  0  0
   -2.7403   -1.4654   -0.9423 H   0  0  0  0  0  0  0  0  0  0  0  0
   -2.7314   -1.2085    0.8419 H   0  0  0  0  0  0  0  0  0  0  0  0
   -0.2142   -0.6650    0.1193 C   0  0  0  0  0  0  0  0  0  0  0  0
   -1.4463    0.6772    0.6535 H   0  0  0  0  0  0  0  0  0  0  0  0
   -1.1890    0.9934   -1.2279 H   0  0  0  0  0  0  0  0  0  0  0  0
   -0.4063   -1.1065    0.9059 H   0  0  0  0  0  0  0  0  0  0  0  0
    0.7230   -0.1036    0.4221 H   0  0  0  0  0  0  0  0  0  0  0  0
   -0.0470   -1.5226   -0.8672 H   0  0  0  0  0  0  0  0  0  0  0  0
  1  3  1  0  0  0  0
  1  5  1  0  0  0  0
  2  1  1  0  0  0  0
  2  8  1  0  0  0  0
  4  1  1  0  0  0  0
  6  2  1  0  0  0  0
  6  9  1  0  0  0  0
  6 10  1  0  0  0  0
  7  2  1  0  0  0  0
  9 13  1  0  0  0  0
  9 12  1  0  0  0  0
 11  6  1  0  0  0  0
 14  9  1  0  0  0  0
M  END
$$$$
