14
butane_opt
C  -3.981992   0.286378  -0.109497
C  -2.739167  -0.632573   0.185236
H  -4.800554  -0.289104  -0.209091
H  -3.783412   0.730709  -0.923981
H  -4.258588   1.060101   0.846606
C  -1.374872   0.163875   0.084016
H  -2.703868  -1.130649  -0.573751
H  -2.650727  -1.455563   1.191865
C  -0.108779  -0.694880  -0.075245
H  -1.246041   1.077767   1.104204
H  -1.492734   0.739447  -0.749156
H  -0.169551  -1.203380   0.727083
H   0.835953  -0.019510  -0.033361
H  -0.290309  -1.457692  -0.946903
