14
butane_opt
C  -4.014301   0.268623   0.079161
C  -2.705844  -0.623600  -0.030213
H  -4.845200  -0.304300   0.279743
H  -4.252711   0.901198  -0.712985
H  -3.866572   0.940347   0.941988
C  -1.368559   0.154362  -0.091306
H  -2.740755  -1.295880  -0.904403
H  -2.457893  -1.135047   0.714661
C  -0.125248  -0.680264   0.111898
H  -1.295501   0.839731   0.794789
H  -1.338451   0.794061  -1.028302
H  -0.461559  -1.243180   1.017480
H   0.709596  -0.106684   0.246120
H   0.108172  -1.311194  -0.758620
