14
butane_opt
C  -3.919411   0.226468  -0.027118
C  -2.706460  -0.609674   0.097502
H  -4.936200  -0.392768  -0.337673
H  -3.781770   0.600310  -0.769721
H  -4.092021   1.182710   1.002505
C  -1.446117   0.243955   0.016428
H  -2.724601  -1.075957  -0.573221
H  -2.919058  -1.339583   1.132421
C  -0.111541  -0.719663   0.015528
H  -1.487216   1.043829   0.980867
H  -1.422678   0.858866  -0.921636
H  -0.026119  -1.350500   0.913878
H   0.724109  -0.246059  -0.213147
H  -0.141873  -1.488511  -0.994774
