14
butane_opt
C  -3.888047   0.240858   0.094021
C  -2.725316  -0.573367  -0.125482
H  -4.888916  -0.423736   0.640273
H  -4.242630   0.967867  -0.812216
H  -3.476682   0.750248   0.985621
C  -1.414607   0.212201  -0.072915
H  -2.835755  -1.354627  -1.005749
H  -2.681403  -1.134704   0.782287
C  -0.172724  -0.697715   0.141157
H  -1.525717   0.906429   0.825509
H  -1.376550   0.835064  -0.993430
H  -0.262427  -1.518792   1.160449
H   0.619861  -0.264416   0.077856
H   0.058530  -1.421485  -0.684308
