butane_opt
 OpenBabel08242015393D

 14 13  0  0  0  0  0  0  0  0999 V2000
   -3.8815    0.2626    0.1209 C   0  0  0  0  0  0  0  0  0  0  0  0
   -2.6992   -0.6036   -0.0736 C   0  0  0  0  0  0  0  0  0  0  0  0
   -4.9459   -0.3977    0.2065 H   0  0  0  0  0  0  0  0  0  0  0  0
   -3.9767    0.8771   -0.7626 H   0  0  0  0  0  0  0  0  0  0  0  0
   -3.8411    0.7987    0.8916 H   0  0  0  0  0  0  0  0  0  0  0  0
   -1.4368    0.1994   -0.0654 C   0  0  0  0  0  0  0  0  0  0  0  0
   -2.8965   -1.4344   -1.0690 H   0  0  0  0  0  0  0  0  0  0  0  0
   -2.6235   -1.0622    0.6754 H   0  0  0  0  0  0  0  0  0  0  0  0
   -0.1779   -0.7217    0.1213 C   0  0  0  0  0  0  0  0  0  0  0  0
   -1.5668    0.8766    0.7907 H   0  0  0  0  0  0  0  0  0  0  0  0
   -1.2851    0.9938   -0.9989 H   0  0  0  0  0  0  0  0  0  0  0  0
   -0.2144   -1.4206    1.1720 H   0  0  0  0  0  0  0  0  0  0  0  0
    0.7552   -0.1341   -0.1070 H   0  0  0  0  0  0  0  0  0  0  0  0
   -0.0750   -1.2328   -0.6155 H   0  0  0  0  0  0  0  0  0  0  0  0
  1  3  1  0  0  0  0
  1  5  1  0  0  0  0
  2  6  1  0  0  0  0
  2  1  1  0  0  0  0
  2  8  1  0  0  0  0
  4  1  1  0  0  0  0
  6  9  1  0  0  0  0
  6 10  1  0  0  0  0
  7  2  1  0  0  0  0
  9 12  1  0  0  0  0
 11  6  1  0  0  0  0
 13  9  1  0  0  0  0
 14  9  1  0  0  0  0
M  END
$$$$
