14
butane_opt
C  -3.927423   0.228273   0.085589
C  -2.707387  -0.542660  -0.054419
H  -4.857064  -0.401683   0.126668
H  -3.900682   0.733980  -0.755941
H  -3.652887   0.910734   0.954672
C  -1.434096   0.190103  -0.026597
H  -2.762785  -1.280829  -0.999593
H  -2.688169  -1.067516   0.776494
C  -0.166053  -0.725855   0.067284
H  -1.438655   0.967407   0.878413
H  -1.325751   0.789682  -0.955465
H  -0.246264  -1.707530   1.173595
H   0.745625  -0.174608  -0.137173
H  -0.072407  -1.038187  -0.449271
