14
butane_opt
C  -3.885352   0.232191   0.062678
C  -2.729530  -0.553951   0.009269
H  -4.881974  -0.498925  -0.262737
H  -3.872768   0.628910  -0.768618
H  -4.047600   1.029300   1.037893
C  -1.455334   0.198270  -0.050514
H  -2.764112  -1.174639  -0.814628
H  -2.564934  -1.175133   0.946048
C  -0.133679  -0.724307   0.073879
H  -1.403016   0.898774   0.835583
H  -1.551704   0.729475  -0.880067
H  -0.088426  -1.424275   0.981821
H   0.737010  -0.152314  -0.115731
H  -0.104504  -1.175665  -0.640325
