butane_opt
 OpenBabel08242015393D

 14 13  0  0  0  0  0  0  0  0999 V2000
   -3.9381    0.2216    0.0864 C   0  0  0  0  0  0  0  0  0  0  0  0
   -2.7190   -0.6018   -0.0589 C   0  0  0  0  0  0  0  0  0  0  0  0
   -4.8857   -0.4118    0.5342 H   0  0  0  0  0  0  0  0  0  0  0  0
   -4.2068    1.1653   -1.0514 H   0  0  0  0  0  0  0  0  0  0  0  0
   -3.8438    0.5925    0.7026 H   0  0  0  0  0  0  0  0  0  0  0  0
   -1.4019    0.2687   -0.0207 C   0  0  0  0  0  0  0  0  0  0  0  0
   -2.8704   -1.3641   -1.0321 H   0  0  0  0  0  0  0  0  0  0  0  0
   -2.6653   -1.1813    0.8219 H   0  0  0  0  0  0  0  0  0  0  0  0
   -0.1162   -0.7394    0.0642 C   0  0  0  0  0  0  0  0  0  0  0  0
   -1.6384    1.0484    0.9447 H   0  0  0  0  0  0  0  0  0  0  0  0
   -1.3762    0.8709   -0.8514 H   0  0  0  0  0  0  0  0  0  0  0  0
   -0.1239   -1.3895    0.9730 H   0  0  0  0  0  0  0  0  0  0  0  0
    0.7369   -0.3033    0.2358 H   0  0  0  0  0  0  0  0  0  0  0  0
   -0.0069   -1.2987   -0.7196 H   0  0  0  0  0  0  0  0  0  0  0  0
  1  3  1  0  0  0  0
  1  5  1  0  0  0  0
  2  6  1  0  0  0  0
  2  1  1  0  0  0  0
  2  8  1  0  0  0  0
  4  1  1  0  0  0  0
  6  9  1  0  0  0  0
  6 10  1  0  0  0  0
  7  2  1  0  0  0  0
  9 13  1  0  0  0  0
  9 12  1  0  0  0  0
 11  6  1  0  0  0  0
 14  9  1  0  0  0  0
M  END
$$$$
