14
butane_opt
C  -3.944059   0.252031   0.045617
C  -2.706283  -0.604493   0.007502
H  -4.837362  -0.334854   0.083678
H  -4.019219   0.828271  -0.815160
H  -3.912863   0.933048   0.912141
C  -1.415535   0.202160  -0.035672
H  -2.778849  -1.253253  -0.812812
H  -2.708627  -1.254601   0.927671
C  -0.137737  -0.699468   0.069155
H  -1.429869   0.838115   0.813211
H  -1.391159   0.834858  -0.940215
H  -0.180722  -1.246341   0.931392
H   0.750071  -0.149304   0.123675
H  -0.069329  -1.472509  -0.834913
