14
butane_opt
C  -3.937997   0.254125   0.010754
C  -2.693408  -0.599107   0.054035
H  -4.891387  -0.399890   0.032963
H  -3.910850   0.858024  -0.905667
H  -3.940249   0.906095   0.860357
C  -1.411673   0.193153   0.008137
H  -2.708460  -1.216708  -0.786535
H  -2.712228  -1.273773   0.977800
C  -0.159900  -0.703919   0.020367
H  -1.378082   0.916258   0.896890
H  -1.474247   0.843174  -0.883073
H  -0.211347  -1.258870   0.899567
H   0.743197  -0.135602   0.116546
H  -0.093892  -1.457043  -0.892459
