butane_opt
 OpenBabel08242015393D

 14 13  0  0  0  0  0  0  0  0999 V2000
   -3.9159    0.2211    0.0817 C   0  0  0  0  0  0  0  0  0  0  0  0
   -2.6683   -0.5660   -0.0570 C   0  0  0  0  0  0  0  0  0  0  0  0
   -4.8029   -0.3527    0.1741 H   0  0  0  0  0  0  0  0  0  0  0  0
   -3.9886    0.8239   -0.7806 H   0  0  0  0  0  0  0  0  0  0  0  0
   -3.6933    0.8749    0.9484 H   0  0  0  0  0  0  0  0  0  0  0  0
   -1.4394    0.2254   -0.0509 C   0  0  0  0  0  0  0  0  0  0  0  0
   -2.8512   -1.4408   -1.0970 H   0  0  0  0  0  0  0  0  0  0  0  0
   -2.7440   -1.1288    0.8169 H   0  0  0  0  0  0  0  0  0  0  0  0
   -0.1736   -0.7236    0.1023 C   0  0  0  0  0  0  0  0  0  0  0  0
   -1.4323    0.9555    0.8706 H   0  0  0  0  0  0  0  0  0  0  0  0
   -1.6085    0.7953   -0.8192 H   0  0  0  0  0  0  0  0  0  0  0  0
   -0.1696   -1.5811    1.2143 H   0  0  0  0  0  0  0  0  0  0  0  0
    0.7443   -0.2048   -0.2687 H   0  0  0  0  0  0  0  0  0  0  0  0
   -0.1069   -1.0805   -0.5113 H   0  0  0  0  0  0  0  0  0  0  0  0
  1  3  1  0  0  0  0
  1  5  1  0  0  0  0
  2  6  1  0  0  0  0
  2  1  1  0  0  0  0
  2  8  1  0  0  0  0
  4  1  1  0  0  0  0
  6  9  1  0  0  0  0
  6 10  1  0  0  0  0
  7  2  1  0  0  0  0
  9 12  1  0  0  0  0
 11  6  1  0  0  0  0
 13  9  1  0  0  0  0
 14  9  1  0  0  0  0
M  END
$$$$
