14
butane_opt
C  -3.981422   0.328631  -0.096939
C  -2.712489  -0.689287   0.183384
H  -4.912422  -0.339734  -0.500503
H  -3.747234   0.801286  -0.922422
H  -4.280397   1.115100   0.858764
C  -1.363817   0.137623   0.131029
H  -2.656321  -1.139658  -0.480857
H  -2.702199  -1.311949   1.190979
C  -0.143261  -0.653745  -0.078608
H  -1.292469   0.734801   0.928408
H  -1.400476   0.853631  -0.823425
H   0.007049  -1.176218   0.729431
H   0.815448  -0.035736  -0.079264
H  -0.453961  -1.468742  -1.131213
