butane_opt
 OpenBabel08242015393D

 14 13  0  0  0  0  0  0  0  0999 V2000
   -3.9540    0.2453    0.1387 C   0  0  0  0  0  0  0  0  0  0  0  0
   -2.7305   -0.6258   -0.0330 C   0  0  0  0  0  0  0  0  0  0  0  0
   -4.9696   -0.4220    0.1071 H   0  0  0  0  0  0  0  0  0  0  0  0
   -3.9993    0.8464   -0.7548 H   0  0  0  0  0  0  0  0  0  0  0  0
   -3.9484    1.1005    1.0368 H   0  0  0  0  0  0  0  0  0  0  0  0
   -1.4173    0.2383   -0.1398 C   0  0  0  0  0  0  0  0  0  0  0  0
   -2.6658   -1.5463   -1.0202 H   0  0  0  0  0  0  0  0  0  0  0  0
   -2.6307   -1.1054    0.7564 H   0  0  0  0  0  0  0  0  0  0  0  0
   -0.1134   -0.7009    0.1334 C   0  0  0  0  0  0  0  0  0  0  0  0
   -1.4412    0.7572    0.6064 H   0  0  0  0  0  0  0  0  0  0  0  0
   -1.3381    0.9842   -1.1798 H   0  0  0  0  0  0  0  0  0  0  0  0
   -0.2393   -1.2948    1.0464 H   0  0  0  0  0  0  0  0  0  0  0  0
    0.7051   -0.2403    0.4294 H   0  0  0  0  0  0  0  0  0  0  0  0
    0.1095   -1.4575   -0.7506 H   0  0  0  0  0  0  0  0  0  0  0  0
  1  5  1  0  0  0  0
  2  1  1  0  0  0  0
  2  8  1  0  0  0  0
  3  1  1  0  0  0  0
  4  1  1  0  0  0  0
  6  2  1  0  0  0  0
  6  9  1  0  0  0  0
  6 10  1  0  0  0  0
  7  2  1  0  0  0  0
  9 13  1  0  0  0  0
  9 12  1  0  0  0  0
 11  6  1  0  0  0  0
 14  9  1  0  0  0  0
M  END
$$$$
