14
butane_opt
C  -3.914993   0.301406   0.123314
C  -2.666598  -0.650738  -0.015365
H  -4.886795  -0.276743   0.012934
H  -3.986550   0.877215  -0.720629
H  -3.908208   1.001770   1.079740
C  -1.412275   0.137829  -0.145173
H  -2.866412  -1.549024  -0.990630
H  -2.556961  -1.105937   0.794322
C  -0.198492  -0.651950   0.135648
H  -1.473244   0.727366   0.652584
H  -1.192090   0.886275  -1.177162
H  -0.469295  -1.127333   0.967165
H   0.623072  -0.132927   0.368668
H   0.000313  -1.422143  -0.760273
