butane_opt
 OpenBabel08242015393D

 14 13  0  0  0  0  0  0  0  0999 V2000
   -3.9656    0.2696   -0.0605 C   0  0  0  0  0  0  0  0  0  0  0  0
   -2.6646   -0.6203    0.0876 C   0  0  0  0  0  0  0  0  0  0  0  0
   -4.8321   -0.3052    0.3571 H   0  0  0  0  0  0  0  0  0  0  0  0
   -3.9525    1.2337   -1.2346 H   0  0  0  0  0  0  0  0  0  0  0  0
   -4.0346    0.6671    0.5351 H   0  0  0  0  0  0  0  0  0  0  0  0
   -1.4180    0.1627    0.1249 C   0  0  0  0  0  0  0  0  0  0  0  0
   -2.6472   -1.2818   -0.7314 H   0  0  0  0  0  0  0  0  0  0  0  0
   -2.6682   -1.4158    1.0458 H   0  0  0  0  0  0  0  0  0  0  0  0
   -0.1470   -0.6919   -0.0637 C   0  0  0  0  0  0  0  0  0  0  0  0
   -1.3945    1.1235    1.1984 H   0  0  0  0  0  0  0  0  0  0  0  0
   -1.3211    0.5819   -0.5622 H   0  0  0  0  0  0  0  0  0  0  0  0
   -0.2288   -1.2022    0.8033 H   0  0  0  0  0  0  0  0  0  0  0  0
    0.7959   -0.0818   -0.1368 H   0  0  0  0  0  0  0  0  0  0  0  0
   -0.3738   -1.2189   -0.9320 H   0  0  0  0  0  0  0  0  0  0  0  0
  1  2  1  0  0  0  0
  1  3  1  0  0  0  0
  1  5  1  0  0  0  0
  2  6  1  0  0  0  0
  2  8  1  0  0  0  0
  4  1  1  0  0  0  0
  6 10  1  0  0  0  0
  7  2  1  0  0  0  0
  9  6  1  0  0  0  0
  9 12  1  0  0  0  0
 11  6  1  0  0  0  0
 13  9  1  0  0  0  0
 14  9  1  0  0  0  0
M  END
$$$$
