butane_opt
 OpenBabel08242015393D

 14 13  0  0  0  0  0  0  0  0999 V2000
   -3.8880    0.2409    0.0940 C   0  0  0  0  0  0  0  0  0  0  0  0
   -2.7253   -0.5734   -0.1255 C   0  0  0  0  0  0  0  0  0  0  0  0
   -4.8889   -0.4237    0.6403 H   0  0  0  0  0  0  0  0  0  0  0  0
   -4.2426    0.9679   -0.8122 H   0  0  0  0  0  0  0  0  0  0  0  0
   -3.4767    0.7502    0.9856 H   0  0  0  0  0  0  0  0  0  0  0  0
   -1.4146    0.2122   -0.0729 C   0  0  0  0  0  0  0  0  0  0  0  0
   -2.8358   -1.3546   -1.0057 H   0  0  0  0  0  0  0  0  0  0  0  0
   -2.6814   -1.1347    0.7823 H   0  0  0  0  0  0  0  0  0  0  0  0
   -0.1727   -0.6977    0.1412 C   0  0  0  0  0  0  0  0  0  0  0  0
   -1.5257    0.9064    0.8255 H   0  0  0  0  0  0  0  0  0  0  0  0
   -1.3765    0.8351   -0.9934 H   0  0  0  0  0  0  0  0  0  0  0  0
   -0.2624   -1.5188    1.1604 H   0  0  0  0  0  0  0  0  0  0  0  0
    0.6199   -0.2644    0.0779 H   0  0  0  0  0  0  0  0  0  0  0  0
    0.0585   -1.4215   -0.6843 H   0  0  0  0  0  0  0  0  0  0  0  0
  1  3  1  0  0  0  0
  1  5  1  0  0  0  0
  2  6  1  0  0  0  0
  2  1  1  0  0  0  0
  2  8  1  0  0  0  0
  4  1  1  0  0  0  0
  6  9  1  0  0  0  0
  6 10  1  0  0  0  0
  7  2  1  0  0  0  0
  9 12  1  0  0  0  0
 11  6  1  0  0  0  0
 13  9  1  0  0  0  0
 14  9  1  0  0  0  0
M  END
$$$$
