14
butane_opt
C  -3.922356   0.230795  -0.052095
C  -2.733532  -0.587330   0.057365
H  -4.988927  -0.437171   0.404057
H  -4.155828   1.243605  -1.172500
H  -3.805103   0.565917   0.598547
C  -1.418541   0.236835   0.131180
H  -2.541773  -1.272835  -0.790351
H  -2.836005  -1.294435   1.094428
C  -0.135102  -0.707658  -0.049187
H  -1.348851   1.032587   1.054959
H  -1.452384   0.714085  -0.697454
H   0.076802  -1.400753   0.840205
H   0.653276  -0.243509   0.037316
H  -0.083204  -1.470757  -1.001117
