butane_opt
 OpenBabel08242015393D

 14 13  0  0  0  0  0  0  0  0999 V2000
   -3.9081    0.2135   -0.0621 C   0  0  0  0  0  0  0  0  0  0  0  0
   -2.7143   -0.5294    0.1019 C   0  0  0  0  0  0  0  0  0  0  0  0
   -4.8758   -0.4143   -0.0219 H   0  0  0  0  0  0  0  0  0  0  0  0
   -3.7462    1.0523   -1.1183 H   0  0  0  0  0  0  0  0  0  0  0  0
   -3.8967    0.6734    0.6401 H   0  0  0  0  0  0  0  0  0  0  0  0
   -1.4313    0.1938    0.1600 C   0  0  0  0  0  0  0  0  0  0  0  0
   -2.6591   -1.2179   -0.7194 H   0  0  0  0  0  0  0  0  0  0  0  0
   -2.8610   -1.1687    0.9886 H   0  0  0  0  0  0  0  0  0  0  0  0
   -0.1600   -0.7501   -0.0541 C   0  0  0  0  0  0  0  0  0  0  0  0
   -1.3765    0.9556    1.1493 H   0  0  0  0  0  0  0  0  0  0  0  0
   -1.4056    0.9167   -0.7358 H   0  0  0  0  0  0  0  0  0  0  0  0
    0.0481   -1.3210    0.8662 H   0  0  0  0  0  0  0  0  0  0  0  0
    0.7456   -0.1613   -0.4405 H   0  0  0  0  0  0  0  0  0  0  0  0
   -0.4107   -1.3384   -0.9509 H   0  0  0  0  0  0  0  0  0  0  0  0
  1  3  1  0  0  0  0
  1  2  1  0  0  0  0
  1  5  1  0  0  0  0
  2  6  1  0  0  0  0
  2  8  1  0  0  0  0
  4  1  1  0  0  0  0
  6 10  1  0  0  0  0
  7  2  1  0  0  0  0
  9  6  1  0  0  0  0
  9 12  1  0  0  0  0
 11  6  1  0  0  0  0
 13  9  1  0  0  0  0
 14  9  1  0  0  0  0
M  END
$$$$
