14
butane_opt
C  -3.945766   0.277418  -0.103171
C  -2.669718  -0.615874   0.178223
H  -4.896936  -0.350070  -0.132613
H  -3.833456   0.992736  -1.108850
H  -4.052161   0.909211   0.679191
C  -1.422589   0.146706   0.158938
H  -2.470498  -1.447070  -0.727134
H  -2.776223  -1.206976   0.991805
C  -0.161512  -0.688642  -0.091290
H  -1.198424   0.934944   1.140280
H  -1.455096   0.773725  -0.670449
H  -0.036167  -1.407772   0.793807
H   0.704472  -0.003526  -0.329863
H  -0.590256  -1.105056  -0.878852
