14
butane_opt
C  -3.905257   0.261458  -0.084185
C  -2.702938  -0.628610   0.180762
H  -4.842771  -0.356902  -0.012024
H  -3.830362   0.853579  -1.093027
H  -4.028792   0.859778   0.767160
C  -1.430769   0.210809   0.098649
H  -2.602289  -1.207060  -0.602192
H  -2.881649  -1.313649   1.151730
C  -0.160631  -0.695532  -0.071664
H  -1.533039   0.816435   0.893373
H  -1.532692   1.002939  -0.844148
H  -0.199186  -1.020104   0.580739
H   0.782224  -0.100222   0.296771
H   0.025636  -1.790533  -1.216375
