butane_opt
 OpenBabel08242015393D

 14 13  0  0  0  0  0  0  0  0999 V2000
   -3.9625    0.2298    0.0927 C   0  0  0  0  0  0  0  0  0  0  0  0
   -2.7049   -0.5781   -0.0271 C   0  0  0  0  0  0  0  0  0  0  0  0
   -5.0312   -0.5116   -0.1316 H   0  0  0  0  0  0  0  0  0  0  0  0
   -3.9541    0.5813   -0.6786 H   0  0  0  0  0  0  0  0  0  0  0  0
   -3.9799    1.1656    1.0895 H   0  0  0  0  0  0  0  0  0  0  0  0
   -1.4295    0.2264   -0.0641 C   0  0  0  0  0  0  0  0  0  0  0  0
   -2.8552   -1.2892   -0.9367 H   0  0  0  0  0  0  0  0  0  0  0  0
   -2.5883   -1.1454    0.8071 H   0  0  0  0  0  0  0  0  0  0  0  0
   -0.1116   -0.7329    0.0909 C   0  0  0  0  0  0  0  0  0  0  0  0
   -1.3732    0.9142    0.7785 H   0  0  0  0  0  0  0  0  0  0  0  0
   -1.3670    1.0194   -1.0422 H   0  0  0  0  0  0  0  0  0  0  0  0
   -0.2515   -1.6056    1.2163 H   0  0  0  0  0  0  0  0  0  0  0  0
    0.7975   -0.1757   -0.0844 H   0  0  0  0  0  0  0  0  0  0  0  0
    0.1159   -1.2141   -0.6586 H   0  0  0  0  0  0  0  0  0  0  0  0
  1  5  1  0  0  0  0
  2  1  1  0  0  0  0
  2  8  1  0  0  0  0
  3  1  1  0  0  0  0
  4  1  1  0  0  0  0
  6  2  1  0  0  0  0
  6  9  1  0  0  0  0
  6 10  1  0  0  0  0
  7  2  1  0  0  0  0
  9 12  1  0  0  0  0
 11  6  1  0  0  0  0
 13  9  1  0  0  0  0
 14  9  1  0  0  0  0
M  END
$$$$
