14
butane_opt
C  -3.965625   0.269554  -0.060539
C  -2.664550  -0.620324   0.087608
H  -4.832117  -0.305206   0.357092
H  -3.952459   1.233713  -1.234634
H  -4.034603   0.667092   0.535125
C  -1.418044   0.162705   0.124914
H  -2.647176  -1.281816  -0.731399
H  -2.668205  -1.415791   1.045824
C  -0.147006  -0.691879  -0.063713
H  -1.394486   1.123529   1.198370
H  -1.321133   0.581927  -0.562215
H  -0.228839  -1.202169   0.803341
H   0.795939  -0.081828  -0.136752
H  -0.373779  -1.218862  -0.931980
