14
butane_opt
C  -3.967678   0.320309  -0.079072
C  -2.722137  -0.667778   0.169110
H  -4.825429  -0.278852  -0.393561
H  -3.959045   0.647003  -0.767793
H  -4.159013   1.058434   0.766271
C  -1.380969   0.169810   0.092086
H  -2.705293  -1.136131  -0.577475
H  -2.933195  -1.393413   1.176055
C  -0.124321  -0.678166  -0.074000
H  -1.324920   0.841620   0.948560
H  -1.407726   0.756448  -0.763328
H  -0.125696  -1.287276   0.736972
H   0.884191  -0.032964  -0.001604
H  -0.153991  -1.370232  -0.973645
