14
butane_opt
C  -3.989289   0.287672  -0.093390
C  -2.700792  -0.657680   0.145978
H  -4.720151  -0.198354   0.116431
H  -4.033298   1.040201  -1.042217
H  -3.947251   0.851129   0.702037
C  -1.380593   0.145911   0.085515
H  -2.618315  -1.125131  -0.525076
H  -2.777762  -1.352786   1.092391
C  -0.168442  -0.660132  -0.048352
H  -1.105441   0.925393   0.971501
H  -1.470047   0.707888  -0.703496
H  -0.208665  -0.921309   0.665074
H   0.738622  -0.099243   0.113750
H  -0.037127  -1.681637  -1.076920
