butane_opt
 OpenBabel08242015393D

 14 12  0  0  0  0  0  0  0  0999 V2000
   -3.9337    0.3015    0.0727 C   0  0  0  0  0  0  0  0  0  0  0  0
   -2.6660   -0.6411   -0.0285 C   0  0  0  0  0  0  0  0  0  0  0  0
   -4.8612   -0.3374   -0.0073 H   0  0  0  0  0  0  0  0  0  0  0  0
   -3.9158    0.8073   -0.7737 H   0  0  0  0  0  0  0  0  0  0  0  0
   -4.0357    1.1037    1.0991 H   0  0  0  0  0  0  0  0  0  0  0  0
   -1.4012    0.1389   -0.0073 C   0  0  0  0  0  0  0  0  0  0  0  0
   -2.7679   -1.5468   -1.0588 H   0  0  0  0  0  0  0  0  0  0  0  0
   -2.5051   -1.1266    0.7330 H   0  0  0  0  0  0  0  0  0  0  0  0
   -0.1765   -0.6438    0.0699 C   0  0  0  0  0  0  0  0  0  0  0  0
   -1.4769    0.6366    0.7256 H   0  0  0  0  0  0  0  0  0  0  0  0
   -1.4987    0.7810   -0.9971 H   0  0  0  0  0  0  0  0  0  0  0  0
   -0.2722   -1.6403    1.2867 H   0  0  0  0  0  0  0  0  0  0  0  0
    0.7620    0.0076   -0.1886 H   0  0  0  0  0  0  0  0  0  0  0  0
   -0.3324   -0.9923   -0.6036 H   0  0  0  0  0  0  0  0  0  0  0  0
  1  5  1  0  0  0  0
  2  6  1  0  0  0  0
  2  1  1  0  0  0  0
  2  8  1  0  0  0  0
  3  1  1  0  0  0  0
  4  1  1  0  0  0  0
  6  9  1  0  0  0  0
  6 10  1  0  0  0  0
  7  2  1  0  0  0  0
 11  6  1  0  0  0  0
 13  9  1  0  0  0  0
 14  9  1  0  0  0  0
M  RAD  2   9   2  12   2
M  END
$$$$
