14
butane_opt
C  -3.986577   0.279248  -0.032341
C  -2.697280  -0.646496   0.097564
H  -4.879107  -0.243314   0.364275
H  -4.017501   1.285778  -1.238267
H  -4.166027   0.587621   0.594752
C  -1.378828   0.168018   0.089329
H  -2.722947  -1.312559  -0.768655
H  -2.549947  -1.301102   0.903165
C  -0.124624  -0.685888  -0.042765
H  -1.395150   0.915019   1.031347
H  -1.372855   0.759194  -0.793530
H  -0.269688  -0.959349   0.708909
H   0.805859  -0.060529   0.232695
H  -0.190955  -1.513399  -0.997588
