14
butane_opt
C  -3.929514   0.238539   0.027063
C  -2.699610  -0.573502   0.009898
H  -4.925613  -0.353272   0.407646
H  -4.004130   1.144974  -1.002233
H  -3.686295   0.795367   0.894219
C  -1.419267   0.150459  -0.016061
H  -2.735795  -1.373162  -0.962286
H  -2.516705  -1.181637   0.829493
C  -0.173741  -0.687588   0.050350
H  -1.356453   0.923693   0.868235
H  -1.494905   0.799393  -0.858752
H  -0.284801  -1.285617   0.905368
H   0.719286  -0.096515   0.249737
H  -0.061909  -1.382027  -0.761979
