butane_opt
 OpenBabel08242015393D

 14 13  0  0  0  0  0  0  0  0999 V2000
   -3.9176    0.2345   -0.0525 C   0  0  0  0  0  0  0  0  0  0  0  0
   -2.7042   -0.5550    0.1634 C   0  0  0  0  0  0  0  0  0  0  0  0
   -4.8688   -0.3622   -0.3174 H   0  0  0  0  0  0  0  0  0  0  0  0
   -3.4799    0.7441   -0.9683 H   0  0  0  0  0  0  0  0  0  0  0  0
   -4.1738    1.0951    0.9562 H   0  0  0  0  0  0  0  0  0  0  0  0
   -1.4460    0.1758    0.0487 C   0  0  0  0  0  0  0  0  0  0  0  0
   -2.6892   -1.1625   -0.6577 H   0  0  0  0  0  0  0  0  0  0  0  0
   -2.8851   -1.3404    1.1996 H   0  0  0  0  0  0  0  0  0  0  0  0
   -0.1537   -0.7015   -0.0470 C   0  0  0  0  0  0  0  0  0  0  0  0
   -1.3322    0.9436    0.9236 H   0  0  0  0  0  0  0  0  0  0  0  0
   -1.4908    0.6521   -0.8075 H   0  0  0  0  0  0  0  0  0  0  0  0
   -0.1492   -1.2832    0.7660 H   0  0  0  0  0  0  0  0  0  0  0  0
    0.8331   -0.0995    0.0126 H   0  0  0  0  0  0  0  0  0  0  0  0
   -0.1363   -1.4928   -0.9915 H   0  0  0  0  0  0  0  0  0  0  0  0
  1  2  1  0  0  0  0
  1  5  1  0  0  0  0
  2  8  1  0  0  0  0
  3  1  1  0  0  0  0
  4  1  1  0  0  0  0
  6  2  1  0  0  0  0
  6 10  1  0  0  0  0
  7  2  1  0  0  0  0
  9 13  1  0  0  0  0
  9  6  1  0  0  0  0
  9 12  1  0  0  0  0
 11  6  1  0  0  0  0
 14  9  1  0  0  0  0
M  END
$$$$
