14
butane_opt
C  -3.959889   0.264534   0.030695
C  -2.706315  -0.610876   0.003921
H  -4.867171  -0.339596   0.085641
H  -3.985581   0.822634  -0.819847
H  -3.916877   1.017177   0.944805
C  -1.398645   0.181819  -0.000329
H  -2.737772  -1.299245  -0.859582
H  -2.743651  -1.225891   0.894276
C  -0.146277  -0.693395   0.055701
H  -1.353817   0.837994   0.807675
H  -1.395158   0.793239  -0.874334
H  -0.068973  -1.404406   1.036060
H   0.735789  -0.105806  -0.092548
H  -0.159033  -1.271259  -0.737955
