butane_opt
 OpenBabel08242015393D

 14 13  0  0  0  0  0  0  0  0999 V2000
   -3.8951    0.2382    0.0652 C   0  0  0  0  0  0  0  0  0  0  0  0
   -2.7064   -0.5581   -0.0022 C   0  0  0  0  0  0  0  0  0  0  0  0
   -4.9441   -0.4309   -0.1913 H   0  0  0  0  0  0  0  0  0  0  0  0
   -3.8865    0.4204   -0.5565 H   0  0  0  0  0  0  0  0  0  0  0  0
   -4.0154    1.1906    1.1926 H   0  0  0  0  0  0  0  0  0  0  0  0
   -1.4352    0.2213   -0.0466 C   0  0  0  0  0  0  0  0  0  0  0  0
   -2.7404   -1.2581   -0.9686 H   0  0  0  0  0  0  0  0  0  0  0  0
   -2.7150   -1.1604    0.8527 H   0  0  0  0  0  0  0  0  0  0  0  0
   -0.1498   -0.7388    0.0958 C   0  0  0  0  0  0  0  0  0  0  0  0
   -1.4856    0.6077    0.5827 H   0  0  0  0  0  0  0  0  0  0  0  0
   -1.4092    0.9708   -1.0707 H   0  0  0  0  0  0  0  0  0  0  0  0
   -0.1966   -1.4683    1.0230 H   0  0  0  0  0  0  0  0  0  0  0  0
    0.8032   -0.1207   -0.0543 H   0  0  0  0  0  0  0  0  0  0  0  0
   -0.1564   -1.1906   -0.6515 H   0  0  0  0  0  0  0  0  0  0  0  0
  1  5  1  0  0  0  0
  2  1  1  0  0  0  0
  2  8  1  0  0  0  0
  3  1  1  0  0  0  0
  4  1  1  0  0  0  0
  6  2  1  0  0  0  0
  6  9  1  0  0  0  0
  6 10  1  0  0  0  0
  7  2  1  0  0  0  0
  9 12  1  0  0  0  0
 11  6  1  0  0  0  0
 13  9  1  0  0  0  0
 14  9  1  0  0  0  0
M  END
$$$$
