14
butane_opt
C  -3.936512   0.225636  -0.070015
C  -2.728593  -0.596210   0.129190
H  -4.766633  -0.315694  -0.219036
H  -3.900605   0.983567  -1.125433
H  -3.996376   0.984298   0.835050
C  -1.433720   0.220105   0.119150
H  -2.680014  -1.316481  -0.657849
H  -2.949941  -1.248567   1.056411
C  -0.125933  -0.718196  -0.060671
H  -1.181126   1.029474   1.111886
H  -1.475251   0.754373  -0.665453
H   0.150419  -1.445630   0.962767
H   0.765732  -0.204624  -0.391730
H  -0.287770  -1.253598  -0.870936
