14
butane_opt
C  -3.949960   0.292789   0.080801
C  -2.692917  -0.633976  -0.034601
H  -4.949289  -0.389677  -0.005142
H  -3.929114   0.796684  -0.692475
H  -3.933571   1.066158   1.027921
C  -1.397104   0.141469  -0.034708
H  -2.877606  -1.374030  -0.956464
H  -2.603644  -0.960050   0.703096
C  -0.157148  -0.671562   0.076180
H  -1.323604   0.749047   0.754059
H  -1.333372   0.853096  -0.988500
H  -0.176298  -1.668406   1.252033
H   0.695643  -0.066670  -0.047335
H  -0.228197  -1.049084  -0.609636
