14
butane_opt
C  -3.919518   0.233601   0.047631
C  -2.724324  -0.615216  -0.036977
H  -4.772528  -0.258911  -0.099013
H  -3.948786   0.814711  -0.804941
H  -3.819608   0.961005   0.969445
C  -1.422151   0.238330   0.031023
H  -2.781311  -1.130011  -0.866250
H  -2.753597  -1.253798   0.868437
C  -0.152970  -0.741314   0.058735
H  -1.319826   1.005956   0.954262
H  -1.415297   0.841537  -0.866420
H   0.028948  -1.663961   1.042929
H   0.744964  -0.135174  -0.366975
H  -0.347789  -1.037680  -0.559211
