butane_opt
 OpenBabel08242015393D

 14 13  0  0  0  0  0  0  0  0999 V2000
   -3.9702    0.3073    0.1335 C   0  0  0  0  0  0  0  0  0  0  0  0
   -2.6890   -0.6527   -0.1112 C   0  0  0  0  0  0  0  0  0  0  0  0
   -4.8749   -0.2540    0.2517 H   0  0  0  0  0  0  0  0  0  0  0  0
   -4.2348    1.0634   -0.8395 H   0  0  0  0  0  0  0  0  0  0  0  0
   -3.8528    0.8473    0.9657 H   0  0  0  0  0  0  0  0  0  0  0  0
   -1.3704    0.1421   -0.0922 C   0  0  0  0  0  0  0  0  0  0  0  0
   -2.9515   -1.4185   -0.9820 H   0  0  0  0  0  0  0  0  0  0  0  0
   -2.5435   -1.2112    0.7554 H   0  0  0  0  0  0  0  0  0  0  0  0
   -0.1357   -0.6876    0.1346 C   0  0  0  0  0  0  0  0  0  0  0  0
   -1.4249    0.8892    0.8712 H   0  0  0  0  0  0  0  0  0  0  0  0
   -1.2869    0.6946   -0.9723 H   0  0  0  0  0  0  0  0  0  0  0  0
   -0.4303   -1.3407    1.1144 H   0  0  0  0  0  0  0  0  0  0  0  0
    0.7867    0.0193    0.0514 H   0  0  0  0  0  0  0  0  0  0  0  0
   -0.2169   -1.0539   -0.5805 H   0  0  0  0  0  0  0  0  0  0  0  0
  1  3  1  0  0  0  0
  1  5  1  0  0  0  0
  2  6  1  0  0  0  0
  2  1  1  0  0  0  0
  2  8  1  0  0  0  0
  4  1  1  0  0  0  0
  6  9  1  0  0  0  0
  6 10  1  0  0  0  0
  7  2  1  0  0  0  0
  9 12  1  0  0  0  0
 11  6  1  0  0  0  0
 13  9  1  0  0  0  0
 14  9  1  0  0  0  0
M  END
$$$$
