14
butane_opt
C  -3.921335   0.212115   0.063770
C  -2.675339  -0.544895  -0.037678
H  -4.806382  -0.394016   0.146823
H  -3.957403   0.679387  -0.676103
H  -3.801384   0.984316   0.953623
C  -1.435329   0.201981  -0.015085
H  -2.773535  -1.420627  -0.985579
H  -2.781798  -0.959417   0.723354
C  -0.152184  -0.723692   0.099197
H  -1.629424   0.863913   0.768383
H  -1.404284   0.903057  -0.992810
H  -0.106339  -1.676511   1.209900
H   0.688793  -0.129792  -0.344584
H  -0.233488  -1.080121  -0.643765
