14
butane_opt
C  -3.992516   0.276064  -0.049505
C  -2.687404  -0.657158   0.085800
H  -4.766737  -0.231523   0.311874
H  -4.198113   1.310963  -1.218355
H  -4.057674   0.597056   0.567858
C  -1.397008   0.174046   0.093622
H  -2.606119  -1.264425  -0.752282
H  -2.779538  -1.282450   1.043926
C  -0.122921  -0.672653  -0.031784
H  -1.281595   1.023274   1.143149
H  -1.292111   0.599576  -0.579710
H  -0.093702  -1.126472   0.759806
H   0.764282  -0.089668  -0.115629
H  -0.293363  -1.441610  -0.962373
