14
butane_opt
C  -3.938903   0.269671  -0.070470
C  -2.699319  -0.660692   0.174856
H  -4.772877  -0.193365   0.089225
H  -3.907265   1.060187  -1.107990
H  -4.169718   0.982365   0.765706
C  -1.412763   0.171728   0.030955
H  -2.704097  -1.214420  -0.581025
H  -2.825096  -1.277696   1.149884
C  -0.154463  -0.673583  -0.055422
H  -1.241400   0.872079   0.948226
H  -1.416489   0.650496  -0.735036
H  -0.302355  -0.920416   0.590044
H   0.731798  -0.005796   0.418855
H   0.042829  -1.709275  -1.091610
