butane_opt
 OpenBabel08242015393D

 14 13  0  0  0  0  0  0  0  0999 V2000
   -3.9579    0.2922    0.0365 C   0  0  0  0  0  0  0  0  0  0  0  0
   -2.6895   -0.6264    0.0099 C   0  0  0  0  0  0  0  0  0  0  0  0
   -4.8707   -0.2006   -0.1531 H   0  0  0  0  0  0  0  0  0  0  0  0
   -3.9107    0.6722   -0.7113 H   0  0  0  0  0  0  0  0  0  0  0  0
   -4.0306    1.1671    1.0133 H   0  0  0  0  0  0  0  0  0  0  0  0
   -1.3747    0.1286   -0.0198 C   0  0  0  0  0  0  0  0  0  0  0  0
   -2.7387   -1.2869   -0.7327 H   0  0  0  0  0  0  0  0  0  0  0  0
   -2.4700   -1.3859    0.9571 H   0  0  0  0  0  0  0  0  0  0  0  0
   -0.1892   -0.6698    0.0550 C   0  0  0  0  0  0  0  0  0  0  0  0
   -1.3519    0.7984    0.8530 H   0  0  0  0  0  0  0  0  0  0  0  0
   -1.2591    0.8556   -0.9809 H   0  0  0  0  0  0  0  0  0  0  0  0
   -0.3182   -1.2814    1.0168 H   0  0  0  0  0  0  0  0  0  0  0  0
    0.7512   -0.0286   -0.0593 H   0  0  0  0  0  0  0  0  0  0  0  0
   -0.2901   -1.2785   -0.7422 H   0  0  0  0  0  0  0  0  0  0  0  0
  1  5  1  0  0  0  0
  2  1  1  0  0  0  0
  2  8  1  0  0  0  0
  3  1  1  0  0  0  0
  4  1  1  0  0  0  0
  6  2  1  0  0  0  0
  6  9  1  0  0  0  0
  6 10  1  0  0  0  0
  7  2  1  0  0  0  0
  9 12  1  0  0  0  0
 11  6  1  0  0  0  0
 13  9  1  0  0  0  0
 14  9  1  0  0  0  0
M  END
$$$$
