14
butane_opt
C  -3.862708   0.247765  -0.060298
C  -2.711750  -0.604304   0.120205
H  -4.839146  -0.421044   0.176250
H  -3.997936   1.177042  -1.155660
H  -3.920950   0.774778   0.642047
C  -1.422356   0.193572   0.090786
H  -2.717898  -1.123173  -0.633491
H  -2.842661  -1.423275   1.169646
C  -0.182523  -0.713634  -0.064198
H  -1.562940   0.949983   1.078426
H  -1.431456   0.806940  -0.782192
H  -0.120169  -0.978524   0.644863
H   0.692680  -0.109543   0.353525
H  -0.121556  -1.621221  -1.151508
