butane_opt
 OpenBabel08242015393D

 14 13  0  0  0  0  0  0  0  0999 V2000
   -3.9960    0.2933   -0.0180 C   0  0  0  0  0  0  0  0  0  0  0  0
   -2.7175   -0.6341    0.0720 C   0  0  0  0  0  0  0  0  0  0  0  0
   -4.8353   -0.3290    0.1476 H   0  0  0  0  0  0  0  0  0  0  0  0
   -4.1526    1.0085   -0.9639 H   0  0  0  0  0  0  0  0  0  0  0  0
   -3.9021    0.9148    0.8505 H   0  0  0  0  0  0  0  0  0  0  0  0
   -1.3544    0.1607   -0.0102 C   0  0  0  0  0  0  0  0  0  0  0  0
   -2.7285   -1.2161   -0.6872 H   0  0  0  0  0  0  0  0  0  0  0  0
   -2.6115   -1.4738    1.1159 H   0  0  0  0  0  0  0  0  0  0  0  0
   -0.1586   -0.7084    0.0178 C   0  0  0  0  0  0  0  0  0  0  0  0
   -1.3690    0.9441    0.9472 H   0  0  0  0  0  0  0  0  0  0  0  0
   -1.2665    0.7995   -0.8374 H   0  0  0  0  0  0  0  0  0  0  0  0
   -0.2607   -0.8800    0.6813 H   0  0  0  0  0  0  0  0  0  0  0  0
    0.8971   -0.0009    0.3490 H   0  0  0  0  0  0  0  0  0  0  0  0
   -0.0745   -1.5637   -0.9676 H   0  0  0  0  0  0  0  0  0  0  0  0
  1  2  1  0  0  0  0
  1  3  1  0  0  0  0
  1  5  1  0  0  0  0
  2  8  1  0  0  0  0
  4  1  1  0  0  0  0
  6  9  1  0  0  0  0
  6  2  1  0  0  0  0
  6 10  1  0  0  0  0
  7  2  1  0  0  0  0
  9 13  1  0  0  0  0
  9 12  1  0  0  0  0
 11  6  1  0  0  0  0
 14  9  1  0  0  0  0
M  END
$$$$
