butane_opt
 OpenBabel08242015393D

 14 13  0  0  0  0  0  0  0  0999 V2000
   -3.9131    0.2433    0.0337 C   0  0  0  0  0  0  0  0  0  0  0  0
   -2.7068   -0.6275    0.0265 C   0  0  0  0  0  0  0  0  0  0  0  0
   -4.8163   -0.3526    0.1042 H   0  0  0  0  0  0  0  0  0  0  0  0
   -4.0891    0.7474   -0.7952 H   0  0  0  0  0  0  0  0  0  0  0  0
   -3.6587    1.0734    0.9936 H   0  0  0  0  0  0  0  0  0  0  0  0
   -1.4319    0.2119   -0.0489 C   0  0  0  0  0  0  0  0  0  0  0  0
   -2.7187   -1.1378   -0.7194 H   0  0  0  0  0  0  0  0  0  0  0  0
   -2.7403   -1.2088    0.8792 H   0  0  0  0  0  0  0  0  0  0  0  0
   -0.1468   -0.7047    0.0664 C   0  0  0  0  0  0  0  0  0  0  0  0
   -1.6201    0.8938    0.7394 H   0  0  0  0  0  0  0  0  0  0  0  0
   -1.4767    0.8620   -1.0353 H   0  0  0  0  0  0  0  0  0  0  0  0
   -0.2935   -1.2026    0.9810 H   0  0  0  0  0  0  0  0  0  0  0  0
    0.7178   -0.1058    0.2816 H   0  0  0  0  0  0  0  0  0  0  0  0
    0.0401   -1.5390   -0.9330 H   0  0  0  0  0  0  0  0  0  0  0  0
  1  3  1  0  0  0  0
  1  5  1  0  0  0  0
  2  1  1  0  0  0  0
  2  8  1  0  0  0  0
  4  1  1  0  0  0  0
  6  2  1  0  0  0  0
  6  9  1  0  0  0  0
  6 10  1  0  0  0  0
  7  2  1  0  0  0  0
  9 13  1  0  0  0  0
  9 12  1  0  0  0  0
 11  6  1  0  0  0  0
 14  9  1  0  0  0  0
M  END
$$$$
