14
butane_opt
C  -3.938033   0.267334  -0.052420
C  -2.654908  -0.652685   0.099936
H  -4.775042  -0.177428  -0.187334
H  -3.891083   0.663677  -0.835284
H  -4.057097   1.308393   1.040153
C  -1.413355   0.154345   0.054341
H  -2.733874  -1.196255  -0.686671
H  -2.836878  -1.378230   1.044226
C  -0.188671  -0.668029  -0.014139
H  -1.321735   0.919692   0.966777
H  -1.470091   0.861331  -0.824520
H  -0.090279  -1.446737   0.940981
H   0.755346  -0.030377  -0.169020
H  -0.282078  -1.203008  -0.847763
