14
butane_opt
C  -3.947452   0.261668   0.022508
C  -2.706644  -0.618356   0.038087
H  -4.807514  -0.272033  -0.064683
H  -3.919668   0.771064  -0.803752
H  -4.031112   1.062908   0.978512
C  -1.394554   0.187382  -0.011969
H  -2.718264  -1.296492  -0.781191
H  -2.712327  -1.250536   0.933474
C  -0.162925  -0.693025   0.039653
H  -1.337915   0.849688   0.830726
H  -1.430228   0.802832  -0.880184
H  -0.164555  -1.383767   0.993147
H   0.755496  -0.069597  -0.007147
H  -0.124447  -1.332344  -0.796707
