butane_opt
 OpenBabel08242015393D

 14 13  0  0  0  0  0  0  0  0999 V2000
   -3.9808    0.2848    0.0869 C   0  0  0  0  0  0  0  0  0  0  0  0
   -2.7237   -0.6169   -0.0997 C   0  0  0  0  0  0  0  0  0  0  0  0
   -4.9046   -0.2382    0.5061 H   0  0  0  0  0  0  0  0  0  0  0  0
   -4.2782    0.9501   -0.8406 H   0  0  0  0  0  0  0  0  0  0  0  0
   -3.6853    0.7284    0.8027 H   0  0  0  0  0  0  0  0  0  0  0  0
   -1.3617    0.1785   -0.0451 C   0  0  0  0  0  0  0  0  0  0  0  0
   -2.8049   -1.3116   -0.9652 H   0  0  0  0  0  0  0  0  0  0  0  0
   -2.4993   -1.2544    0.7986 H   0  0  0  0  0  0  0  0  0  0  0  0
   -0.1705   -0.7013    0.1181 C   0  0  0  0  0  0  0  0  0  0  0  0
   -1.4355    0.8421    0.8325 H   0  0  0  0  0  0  0  0  0  0  0  0
   -1.2148    0.7663   -0.8983 H   0  0  0  0  0  0  0  0  0  0  0  0
   -0.0251   -1.3844    1.0117 H   0  0  0  0  0  0  0  0  0  0  0  0
    0.8241    0.0045    0.1203 H   0  0  0  0  0  0  0  0  0  0  0  0
   -0.1776   -1.2933   -0.6652 H   0  0  0  0  0  0  0  0  0  0  0  0
  1  3  1  0  0  0  0
  1  5  1  0  0  0  0
  2  6  1  0  0  0  0
  2  1  1  0  0  0  0
  2  8  1  0  0  0  0
  4  1  1  0  0  0  0
  6  9  1  0  0  0  0
  6 10  1  0  0  0  0
  7  2  1  0  0  0  0
  9 13  1  0  0  0  0
  9 12  1  0  0  0  0
 11  6  1  0  0  0  0
 14  9  1  0  0  0  0
M  END
$$$$
