butane_opt
 OpenBabel08242015393D

 14 13  0  0  0  0  0  0  0  0999 V2000
   -3.9380    0.2710   -0.0100 C   0  0  0  0  0  0  0  0  0  0  0  0
   -2.7075   -0.6156    0.0766 C   0  0  0  0  0  0  0  0  0  0  0  0
   -4.8374   -0.3183   -0.0786 H   0  0  0  0  0  0  0  0  0  0  0  0
   -3.9009    0.8185   -0.8865 H   0  0  0  0  0  0  0  0  0  0  0  0
   -4.0198    0.9764    0.8884 H   0  0  0  0  0  0  0  0  0  0  0  0
   -1.4035    0.1787    0.0218 C   0  0  0  0  0  0  0  0  0  0  0  0
   -2.7217   -1.2598   -0.7506 H   0  0  0  0  0  0  0  0  0  0  0  0
   -2.6746   -1.2758    1.0066 H   0  0  0  0  0  0  0  0  0  0  0  0
   -0.1581   -0.6936    0.0057 C   0  0  0  0  0  0  0  0  0  0  0  0
   -1.3554    0.8707    0.8983 H   0  0  0  0  0  0  0  0  0  0  0  0
   -1.4160    0.7639   -0.8253 H   0  0  0  0  0  0  0  0  0  0  0  0
   -0.1518   -1.2848    0.8936 H   0  0  0  0  0  0  0  0  0  0  0  0
    0.7642   -0.0886    0.0185 H   0  0  0  0  0  0  0  0  0  0  0  0
   -0.2217   -1.3593   -0.8511 H   0  0  0  0  0  0  0  0  0  0  0  0
  1  2  1  0  0  0  0
  1  5  1  0  0  0  0
  2  8  1  0  0  0  0
  3  1  1  0  0  0  0
  4  1  1  0  0  0  0
  6  2  1  0  0  0  0
  6 10  1  0  0  0  0
  7  2  1  0  0  0  0
  9 13  1  0  0  0  0
  9  6  1  0  0  0  0
  9 12  1  0  0  0  0
 11  6  1  0  0  0  0
 14  9  1  0  0  0  0
M  END
$$$$
