14
butane_opt
C  -3.981290   0.285147  -0.045841
C  -2.689834  -0.651100   0.126469
H  -4.730591  -0.142698  -0.274320
H  -3.747553   0.738198  -0.913888
H  -4.243002   1.089392   0.838601
C  -1.366156   0.155590   0.079623
H  -2.687260  -1.190775  -0.634638
H  -2.863750  -1.357391   1.097448
C  -0.173345  -0.675330  -0.055807
H  -1.201265   0.985898   0.927739
H  -1.456514   0.693126  -0.716364
H  -0.091841  -1.358562   0.946083
H   0.710554  -0.072900  -0.124010
H  -0.206132  -1.228926  -0.916354
