14
butane_opt
C  -3.900856   0.271365   0.075845
C  -2.681240  -0.632654  -0.052212
H  -4.785820  -0.240548  -0.194873
H  -4.135325   0.526668  -0.561929
H  -4.049885   1.375745   1.313183
C  -1.420883   0.161070  -0.077768
H  -2.626066  -1.353937  -0.923151
H  -2.590096  -1.291356   0.840972
C  -0.192872  -0.655515   0.131170
H  -1.369795   0.685858   0.678645
H  -1.473959   0.802585  -0.879936
H  -0.217582  -1.614501   1.218315
H   0.809350  -0.036619  -0.374039
H  -0.222089  -1.034179  -0.538305
