butane_opt
 OpenBabel08242015393D

 14 13  0  0  0  0  0  0  0  0999 V2000
   -3.9498    0.2510   -0.0103 C   0  0  0  0  0  0  0  0  0  0  0  0
   -2.7101   -0.6063    0.0599 C   0  0  0  0  0  0  0  0  0  0  0  0
   -4.8406   -0.3230    0.0449 H   0  0  0  0  0  0  0  0  0  0  0  0
   -3.9665    0.9433   -0.9592 H   0  0  0  0  0  0  0  0  0  0  0  0
   -3.9423    0.8299    0.8052 H   0  0  0  0  0  0  0  0  0  0  0  0
   -1.4018    0.2138    0.0454 C   0  0  0  0  0  0  0  0  0  0  0  0
   -2.7244   -1.2986   -0.7854 H   0  0  0  0  0  0  0  0  0  0  0  0
   -2.7215   -1.2493    0.9889 H   0  0  0  0  0  0  0  0  0  0  0  0
   -0.1459   -0.7136    0.0020 C   0  0  0  0  0  0  0  0  0  0  0  0
   -1.4148    0.9465    0.9528 H   0  0  0  0  0  0  0  0  0  0  0  0
   -1.4196    0.7298   -0.7751 H   0  0  0  0  0  0  0  0  0  0  0  0
   -0.0711   -1.3410    0.9152 H   0  0  0  0  0  0  0  0  0  0  0  0
    0.7439   -0.1268   -0.0799 H   0  0  0  0  0  0  0  0  0  0  0  0
   -0.1711   -1.3166   -0.8446 H   0  0  0  0  0  0  0  0  0  0  0  0
  1  3  1  0  0  0  0
  1  2  1  0  0  0  0
  1  5  1  0  0  0  0
  2  8  1  0  0  0  0
  4  1  1  0  0  0  0
  6  2  1  0  0  0  0
  6 10  1  0  0  0  0
  7  2  1  0  0  0  0
  9  6  1  0  0  0  0
  9 12  1  0  0  0  0
 11  6  1  0  0  0  0
 13  9  1  0  0  0  0
 14  9  1  0  0  0  0
M  END
$$$$
