butane_opt
 OpenBabel08242015393D

 14 13  0  0  0  0  0  0  0  0999 V2000
   -4.0017    0.2998   -0.0114 C   0  0  0  0  0  0  0  0  0  0  0  0
   -2.6916   -0.6539    0.1106 C   0  0  0  0  0  0  0  0  0  0  0  0
   -4.8523   -0.2360   -0.1870 H   0  0  0  0  0  0  0  0  0  0  0  0
   -3.8626    0.9125   -0.8738 H   0  0  0  0  0  0  0  0  0  0  0  0
   -4.2449    0.9910    0.8567 H   0  0  0  0  0  0  0  0  0  0  0  0
   -1.3543    0.1410    0.0004 C   0  0  0  0  0  0  0  0  0  0  0  0
   -2.7501   -1.2487   -0.5829 H   0  0  0  0  0  0  0  0  0  0  0  0
   -2.6957   -1.4135    1.1332 H   0  0  0  0  0  0  0  0  0  0  0  0
   -0.1670   -0.6535   -0.0125 C   0  0  0  0  0  0  0  0  0  0  0  0
   -1.4177    0.9264    0.9005 H   0  0  0  0  0  0  0  0  0  0  0  0
   -1.3113    0.6902   -0.8343 H   0  0  0  0  0  0  0  0  0  0  0  0
   -0.2770   -1.1011    0.8351 H   0  0  0  0  0  0  0  0  0  0  0  0
    0.7907    0.0144    0.2029 H   0  0  0  0  0  0  0  0  0  0  0  0
    0.1313   -1.6027   -1.1069 H   0  0  0  0  0  0  0  0  0  0  0  0
  1  2  1  0  0  0  0
  1  5  1  0  0  0  0
  2  8  1  0  0  0  0
  3  1  1  0  0  0  0
  4  1  1  0  0  0  0
  6  2  1  0  0  0  0
  6 10  1  0  0  0  0
  7  2  1  0  0  0  0
  9  6  1  0  0  0  0
  9 13  1  0  0  0  0
  9 12  1  0  0  0  0
 11  6  1  0  0  0  0
 14  9  1  0  0  0  0
M  END
$$$$
