14
butane_opt
C  -3.913103   0.243347   0.033686
C  -2.706776  -0.627530   0.026498
H  -4.816300  -0.352632   0.104165
H  -4.089093   0.747424  -0.795233
H  -3.658743   1.073439   0.993644
C  -1.431943   0.211925  -0.048916
H  -2.718675  -1.137790  -0.719449
H  -2.740326  -1.208752   0.879157
C  -0.146837  -0.704705   0.066389
H  -1.620060   0.893803   0.739388
H  -1.476665   0.861953  -1.035287
H  -0.293459  -1.202613   0.981037
H   0.717792  -0.105845   0.281630
H   0.040114  -1.539044  -0.932981
