butane_opt
 OpenBabel08242015393D

 14 13  0  0  0  0  0  0  0  0999 V2000
   -3.9604    0.2846    0.0867 C   0  0  0  0  0  0  0  0  0  0  0  0
   -2.6539   -0.6567    0.0110 C   0  0  0  0  0  0  0  0  0  0  0  0
   -4.8770   -0.2997    0.0264 H   0  0  0  0  0  0  0  0  0  0  0  0
   -4.1439    0.8978   -0.7165 H   0  0  0  0  0  0  0  0  0  0  0  0
   -3.8381    1.1170    1.0413 H   0  0  0  0  0  0  0  0  0  0  0  0
   -1.3960    0.1565   -0.1159 C   0  0  0  0  0  0  0  0  0  0  0  0
   -2.7711   -1.3311   -0.8528 H   0  0  0  0  0  0  0  0  0  0  0  0
   -2.7263   -1.2273    0.8417 H   0  0  0  0  0  0  0  0  0  0  0  0
   -0.1836   -0.6849    0.0982 C   0  0  0  0  0  0  0  0  0  0  0  0
   -1.5098    0.8367    0.6225 H   0  0  0  0  0  0  0  0  0  0  0  0
   -1.3543    0.7966   -1.0493 H   0  0  0  0  0  0  0  0  0  0  0  0
   -0.4596   -1.1291    0.8881 H   0  0  0  0  0  0  0  0  0  0  0  0
    0.8690    0.0840    0.4753 H   0  0  0  0  0  0  0  0  0  0  0  0
    0.0976   -1.4083   -0.8087 H   0  0  0  0  0  0  0  0  0  0  0  0
  1  5  1  0  0  0  0
  2  1  1  0  0  0  0
  2  8  1  0  0  0  0
  3  1  1  0  0  0  0
  4  1  1  0  0  0  0
  6  2  1  0  0  0  0
  6  9  1  0  0  0  0
  6 10  1  0  0  0  0
  7  2  1  0  0  0  0
  9 13  1  0  0  0  0
  9 12  1  0  0  0  0
 11  6  1  0  0  0  0
 14  9  1  0  0  0  0
M  END
$$$$
