butane_opt
 OpenBabel08242015393D

 14 12  0  0  0  0  0  0  0  0999 V2000
   -3.9121    0.2575   -0.0655 C   0  0  0  0  0  0  0  0  0  0  0  0
   -2.6799   -0.5947    0.1351 C   0  0  0  0  0  0  0  0  0  0  0  0
   -4.8398   -0.4318    0.1359 H   0  0  0  0  0  0  0  0  0  0  0  0
   -3.9061    1.0338   -1.0388 H   0  0  0  0  0  0  0  0  0  0  0  0
   -3.8980    0.8016    0.7907 H   0  0  0  0  0  0  0  0  0  0  0  0
   -1.4233    0.1863    0.0740 C   0  0  0  0  0  0  0  0  0  0  0  0
   -2.6810   -1.1983   -0.5774 H   0  0  0  0  0  0  0  0  0  0  0  0
   -2.7621   -1.3399    1.0750 H   0  0  0  0  0  0  0  0  0  0  0  0
   -0.2203   -0.7062   -0.0329 C   0  0  0  0  0  0  0  0  0  0  0  0
   -1.3367    0.8677    0.8881 H   0  0  0  0  0  0  0  0  0  0  0  0
   -1.3055    0.9339   -0.9713 H   0  0  0  0  0  0  0  0  0  0  0  0
   -0.2694   -0.9353    0.5595 H   0  0  0  0  0  0  0  0  0  0  0  0
    0.7294   -0.0373    0.3434 H   0  0  0  0  0  0  0  0  0  0  0  0
    0.0641   -1.8816   -1.1616 H   0  0  0  0  0  0  0  0  0  0  0  0
  1  2  1  0  0  0  0
  1  3  1  0  0  0  0
  1  5  1  0  0  0  0
  2  8  1  0  0  0  0
  4  1  1  0  0  0  0
  6  2  1  0  0  0  0
  6 10  1  0  0  0  0
  7  2  1  0  0  0  0
  9  6  1  0  0  0  0
  9 13  1  0  0  0  0
  9 12  1  0  0  0  0
 11  6  1  0  0  0  0
M  RAD  2   9   2  14   2
M  END
$$$$
