butane_opt
 OpenBabel08242015393D

 14 13  0  0  0  0  0  0  0  0999 V2000
   -3.9126    0.2554    0.0489 C   0  0  0  0  0  0  0  0  0  0  0  0
   -2.6779   -0.6315   -0.0019 C   0  0  0  0  0  0  0  0  0  0  0  0
   -4.8067   -0.2712    0.1104 H   0  0  0  0  0  0  0  0  0  0  0  0
   -4.0355    0.6801   -0.7403 H   0  0  0  0  0  0  0  0  0  0  0  0
   -3.9504    1.1510    1.1366 H   0  0  0  0  0  0  0  0  0  0  0  0
   -1.4431    0.1741   -0.0789 C   0  0  0  0  0  0  0  0  0  0  0  0
   -2.6765   -1.1593   -0.7542 H   0  0  0  0  0  0  0  0  0  0  0  0
   -2.6799   -1.2250    0.8609 H   0  0  0  0  0  0  0  0  0  0  0  0
   -0.1944   -0.6867    0.1021 C   0  0  0  0  0  0  0  0  0  0  0  0
   -1.3409    0.7677    0.7113 H   0  0  0  0  0  0  0  0  0  0  0  0
   -1.4020    0.8999   -1.0033 H   0  0  0  0  0  0  0  0  0  0  0  0
   -0.1711   -1.2245    0.9127 H   0  0  0  0  0  0  0  0  0  0  0  0
    0.7359    0.0033    0.2460 H   0  0  0  0  0  0  0  0  0  0  0  0
    0.0273   -1.4399   -0.8508 H   0  0  0  0  0  0  0  0  0  0  0  0
  1  3  1  0  0  0  0
  1  5  1  0  0  0  0
  2  1  1  0  0  0  0
  2  8  1  0  0  0  0
  4  1  1  0  0  0  0
  6  2  1  0  0  0  0
  6  9  1  0  0  0  0
  6 10  1  0  0  0  0
  7  2  1  0  0  0  0
  9 13  1  0  0  0  0
  9 12  1  0  0  0  0
 11  6  1  0  0  0  0
 14  9  1  0  0  0  0
M  END
$$$$
