14
butane_opt
C  -3.930028   0.222485   0.067628
C  -2.690003  -0.588082  -0.027296
H  -5.023947  -0.461570   0.100704
H  -4.148171   0.836377  -0.765585
H  -3.885513   0.964997   1.034766
C  -1.412418   0.238804  -0.082593
H  -2.859227  -1.175321  -0.824062
H  -2.719703  -1.305027   0.984127
C  -0.145893  -0.723540   0.109524
H  -1.442945   0.986709   0.800261
H  -1.348185   0.885884  -1.041945
H  -0.048052  -1.225953   0.919999
H   0.594692  -0.270361   0.231350
H   0.042584  -1.554991  -0.826041
