14
butane_opt
C  -3.946851   0.271165   0.049375
C  -2.688977  -0.620504   0.028635
H  -4.830430  -0.324127  -0.005857
H  -4.001173   0.855878  -0.813053
H  -3.957861   0.993831   0.961277
C  -1.411169   0.168521  -0.036524
H  -2.756918  -1.369600  -0.903437
H  -2.700678  -1.210234   0.890310
C  -0.154777  -0.678846   0.057910
H  -1.421532   0.790350   0.778328
H  -1.369628   0.855697  -0.966857
H  -0.249804  -1.286645   0.980165
H   0.760372  -0.085695   0.142542
H  -0.077945  -1.373072  -0.816883
