butane_opt
 OpenBabel08242015393D

 14 13  0  0  0  0  0  0  0  0999 V2000
   -3.9525    0.2746   -0.0022 C   0  0  0  0  0  0  0  0  0  0  0  0
   -2.7035   -0.6294    0.0783 C   0  0  0  0  0  0  0  0  0  0  0  0
   -4.8608   -0.3007    0.0049 H   0  0  0  0  0  0  0  0  0  0  0  0
   -4.0035    0.9379   -0.9350 H   0  0  0  0  0  0  0  0  0  0  0  0
   -4.0322    0.9073    0.7977 H   0  0  0  0  0  0  0  0  0  0  0  0
   -1.4020    0.1720    0.0200 C   0  0  0  0  0  0  0  0  0  0  0  0
   -2.7235   -1.2925   -0.7438 H   0  0  0  0  0  0  0  0  0  0  0  0
   -2.6619   -1.2642    0.9718 H   0  0  0  0  0  0  0  0  0  0  0  0
   -0.1513   -0.6800    0.0105 C   0  0  0  0  0  0  0  0  0  0  0  0
   -1.3679    0.8486    0.8651 H   0  0  0  0  0  0  0  0  0  0  0  0
   -1.3944    0.7737   -0.8467 H   0  0  0  0  0  0  0  0  0  0  0  0
   -0.1659   -1.1899    0.8453 H   0  0  0  0  0  0  0  0  0  0  0  0
    0.7930   -0.0634    0.1272 H   0  0  0  0  0  0  0  0  0  0  0  0
   -0.1010   -1.4747   -0.9485 H   0  0  0  0  0  0  0  0  0  0  0  0
  1  3  1  0  0  0  0
  1  2  1  0  0  0  0
  1  5  1  0  0  0  0
  2  8  1  0  0  0  0
  4  1  1  0  0  0  0
  6  2  1  0  0  0  0
  6 10  1  0  0  0  0
  7  2  1  0  0  0  0
  9  6  1  0  0  0  0
  9 13  1  0  0  0  0
  9 12  1  0  0  0  0
 11  6  1  0  0  0  0
 14  9  1  0  0  0  0
M  END
$$$$
