butane_opt
 OpenBabel08242015393D

 14 13  0  0  0  0  0  0  0  0999 V2000
   -3.9394    0.2868   -0.0812 C   0  0  0  0  0  0  0  0  0  0  0  0
   -2.6666   -0.6490    0.0814 C   0  0  0  0  0  0  0  0  0  0  0  0
   -4.7530   -0.1428    0.3860 H   0  0  0  0  0  0  0  0  0  0  0  0
   -4.2284    1.2228   -1.1252 H   0  0  0  0  0  0  0  0  0  0  0  0
   -3.8835    0.6344    0.5567 H   0  0  0  0  0  0  0  0  0  0  0  0
   -1.3835    0.1545    0.1265 C   0  0  0  0  0  0  0  0  0  0  0  0
   -2.6999   -1.2364   -0.7169 H   0  0  0  0  0  0  0  0  0  0  0  0
   -2.8779   -1.3301    1.1122 H   0  0  0  0  0  0  0  0  0  0  0  0
   -0.2000   -0.6715   -0.0279 C   0  0  0  0  0  0  0  0  0  0  0  0
   -1.2377    0.9648    1.0345 H   0  0  0  0  0  0  0  0  0  0  0  0
   -1.4970    0.5523   -0.5964 H   0  0  0  0  0  0  0  0  0  0  0  0
   -0.1399   -1.1016    0.7445 H   0  0  0  0  0  0  0  0  0  0  0  0
    0.8060   -0.0304   -0.1631 H   0  0  0  0  0  0  0  0  0  0  0  0
   -0.2538   -1.4269   -1.0295 H   0  0  0  0  0  0  0  0  0  0  0  0
  1  2  1  0  0  0  0
  1  3  1  0  0  0  0
  1  5  1  0  0  0  0
  2  6  1  0  0  0  0
  2  8  1  0  0  0  0
  4  1  1  0  0  0  0
  6 10  1  0  0  0  0
  7  2  1  0  0  0  0
  9  6  1  0  0  0  0
  9 12  1  0  0  0  0
 11  6  1  0  0  0  0
 13  9  1  0  0  0  0
 14  9  1  0  0  0  0
M  END
$$$$
