butane_opt
 OpenBabel08242015393D

 14 13  0  0  0  0  0  0  0  0999 V2000
   -3.9371    0.2625   -0.0087 C   0  0  0  0  0  0  0  0  0  0  0  0
   -2.6987   -0.5986    0.0783 C   0  0  0  0  0  0  0  0  0  0  0  0
   -4.8988   -0.3967   -0.0538 H   0  0  0  0  0  0  0  0  0  0  0  0
   -3.8100    0.8649   -0.9425 H   0  0  0  0  0  0  0  0  0  0  0  0
   -4.0142    0.8842    0.8136 H   0  0  0  0  0  0  0  0  0  0  0  0
   -1.4103    0.1925    0.0447 C   0  0  0  0  0  0  0  0  0  0  0  0
   -2.7188   -1.2772   -0.7664 H   0  0  0  0  0  0  0  0  0  0  0  0
   -2.7348   -1.2525    1.0075 H   0  0  0  0  0  0  0  0  0  0  0  0
   -0.1578   -0.7058   -0.0001 C   0  0  0  0  0  0  0  0  0  0  0  0
   -1.3438    0.8843    0.8963 H   0  0  0  0  0  0  0  0  0  0  0  0
   -1.4529    0.8119   -0.8264 H   0  0  0  0  0  0  0  0  0  0  0  0
   -0.1128   -1.2786    0.8562 H   0  0  0  0  0  0  0  0  0  0  0  0
    0.7158   -0.1479   -0.0132 H   0  0  0  0  0  0  0  0  0  0  0  0
   -0.1962   -1.3823   -0.9003 H   0  0  0  0  0  0  0  0  0  0  0  0
  1  2  1  0  0  0  0
  1  5  1  0  0  0  0
  2  8  1  0  0  0  0
  3  1  1  0  0  0  0
  4  1  1  0  0  0  0
  6  2  1  0  0  0  0
  6 10  1  0  0  0  0
  7  2  1  0  0  0  0
  9  6  1  0  0  0  0
  9 12  1  0  0  0  0
 11  6  1  0  0  0  0
 13  9  1  0  0  0  0
 14  9  1  0  0  0  0
M  END
$$$$
