14
butane_opt
C  -4.005670   0.259540  -0.081190
C  -2.708819  -0.603462   0.091112
H  -4.941835  -0.394567   0.495341
H  -4.100028   1.302727  -1.232589
H  -3.698449   0.600208   0.546952
C  -1.368458   0.191766   0.119266
H  -2.784918  -1.223351  -0.713461
H  -2.805046  -1.358038   1.077473
C  -0.132386  -0.709540  -0.054028
H  -1.228497   1.112551   1.143878
H  -1.472838   0.701673  -0.612076
H  -0.155506  -1.170316   0.655458
H   0.763284  -0.196471   0.104584
H  -0.012007  -1.499771  -0.987695
