butane_opt
 OpenBabel08242015393D

 14 12  0  0  0  0  0  0  0  0999 V2000
   -3.9841    0.2841   -0.0551 C   0  0  0  0  0  0  0  0  0  0  0  0
   -2.7163   -0.6141    0.1644 C   0  0  0  0  0  0  0  0  0  0  0  0
   -4.8931   -0.3890   -0.0753 H   0  0  0  0  0  0  0  0  0  0  0  0
   -3.9847    1.0155   -1.0160 H   0  0  0  0  0  0  0  0  0  0  0  0
   -4.1075    0.7497    0.6691 H   0  0  0  0  0  0  0  0  0  0  0  0
   -1.3963    0.1584    0.0311 C   0  0  0  0  0  0  0  0  0  0  0  0
   -2.6793   -1.1519   -0.6804 H   0  0  0  0  0  0  0  0  0  0  0  0
   -2.5812   -1.4939    1.2037 H   0  0  0  0  0  0  0  0  0  0  0  0
   -0.1228   -0.6674   -0.0383 C   0  0  0  0  0  0  0  0  0  0  0  0
   -1.2102    0.9527    0.9773 H   0  0  0  0  0  0  0  0  0  0  0  0
   -1.4654    0.6489   -0.7444 H   0  0  0  0  0  0  0  0  0  0  0  0
   -0.2018   -0.8982    0.5797 H   0  0  0  0  0  0  0  0  0  0  0  0
    0.6952   -0.1407    0.4101 H   0  0  0  0  0  0  0  0  0  0  0  0
    0.0492   -1.7158   -1.1696 H   0  0  0  0  0  0  0  0  0  0  0  0
  1  2  1  0  0  0  0
  1  5  1  0  0  0  0
  2  8  1  0  0  0  0
  3  1  1  0  0  0  0
  4  1  1  0  0  0  0
  6  2  1  0  0  0  0
  6 10  1  0  0  0  0
  7  2  1  0  0  0  0
  9  6  1  0  0  0  0
  9 13  1  0  0  0  0
  9 12  1  0  0  0  0
 11  6  1  0  0  0  0
M  RAD  2   9   2  14   2
M  END
$$$$
