butane_opt
 OpenBabel08242015393D

 14 13  0  0  0  0  0  0  0  0999 V2000
   -3.9705    0.2868    0.1400 C   0  0  0  0  0  0  0  0  0  0  0  0
   -2.6684   -0.6227   -0.0956 C   0  0  0  0  0  0  0  0  0  0  0  0
   -4.8663   -0.2557    0.2900 H   0  0  0  0  0  0  0  0  0  0  0  0
   -4.2177    1.0529   -0.7606 H   0  0  0  0  0  0  0  0  0  0  0  0
   -4.0156    0.8701    0.8660 H   0  0  0  0  0  0  0  0  0  0  0  0
   -1.3765    0.1177   -0.0777 C   0  0  0  0  0  0  0  0  0  0  0  0
   -2.8882   -1.5698   -1.1598 H   0  0  0  0  0  0  0  0  0  0  0  0
   -2.4417   -1.2011    0.7197 H   0  0  0  0  0  0  0  0  0  0  0  0
   -0.1575   -0.6553    0.1389 C   0  0  0  0  0  0  0  0  0  0  0  0
   -1.5390    0.7364    0.6824 H   0  0  0  0  0  0  0  0  0  0  0  0
   -1.3017    0.8922   -0.9976 H   0  0  0  0  0  0  0  0  0  0  0  0
   -0.3981   -1.3535    1.0831 H   0  0  0  0  0  0  0  0  0  0  0  0
    0.8203    0.0156    0.0859 H   0  0  0  0  0  0  0  0  0  0  0  0
   -0.0915   -1.1680   -0.6603 H   0  0  0  0  0  0  0  0  0  0  0  0
  1  3  1  0  0  0  0
  1  5  1  0  0  0  0
  2  6  1  0  0  0  0
  2  1  1  0  0  0  0
  2  8  1  0  0  0  0
  4  1  1  0  0  0  0
  6  9  1  0  0  0  0
  6 10  1  0  0  0  0
  7  2  1  0  0  0  0
  9 12  1  0  0  0  0
 11  6  1  0  0  0  0
 13  9  1  0  0  0  0
 14  9  1  0  0  0  0
M  END
$$$$
