butane_opt
 OpenBabel08242015393D

 14 13  0  0  0  0  0  0  0  0999 V2000
   -3.9351    0.2759   -0.0118 C   0  0  0  0  0  0  0  0  0  0  0  0
   -2.6913   -0.6217    0.0840 C   0  0  0  0  0  0  0  0  0  0  0  0
   -4.8703   -0.3246   -0.1000 H   0  0  0  0  0  0  0  0  0  0  0  0
   -3.8895    0.8656   -0.8783 H   0  0  0  0  0  0  0  0  0  0  0  0
   -4.0231    0.9734    0.8626 H   0  0  0  0  0  0  0  0  0  0  0  0
   -1.4026    0.1706    0.0349 C   0  0  0  0  0  0  0  0  0  0  0  0
   -2.6825   -1.3073   -0.7518 H   0  0  0  0  0  0  0  0  0  0  0  0
   -2.7646   -1.2889    0.9946 H   0  0  0  0  0  0  0  0  0  0  0  0
   -0.1811   -0.6803    0.0044 C   0  0  0  0  0  0  0  0  0  0  0  0
   -1.3643    0.8619    0.8812 H   0  0  0  0  0  0  0  0  0  0  0  0
   -1.3831    0.8064   -0.8712 H   0  0  0  0  0  0  0  0  0  0  0  0
   -0.0740   -1.2903    0.8731 H   0  0  0  0  0  0  0  0  0  0  0  0
    0.7354   -0.0790   -0.0110 H   0  0  0  0  0  0  0  0  0  0  0  0
   -0.1973   -1.4210   -0.8954 H   0  0  0  0  0  0  0  0  0  0  0  0
  1  2  1  0  0  0  0
  1  5  1  0  0  0  0
  2  8  1  0  0  0  0
  3  1  1  0  0  0  0
  4  1  1  0  0  0  0
  6  2  1  0  0  0  0
  6 10  1  0  0  0  0
  7  2  1  0  0  0  0
  9  6  1  0  0  0  0
  9 12  1  0  0  0  0
 11  6  1  0  0  0  0
 13  9  1  0  0  0  0
 14  9  1  0  0  0  0
M  END
$$$$
