butane_opt
 OpenBabel08242015393D

 14 12  0  0  0  0  0  0  0  0999 V2000
   -4.0057    0.2595   -0.0812 C   0  0  0  0  0  0  0  0  0  0  0  0
   -2.7088   -0.6035    0.0911 C   0  0  0  0  0  0  0  0  0  0  0  0
   -4.9418   -0.3946    0.4953 H   0  0  0  0  0  0  0  0  0  0  0  0
   -4.1000    1.3027   -1.2326 H   0  0  0  0  0  0  0  0  0  0  0  0
   -3.6984    0.6002    0.5470 H   0  0  0  0  0  0  0  0  0  0  0  0
   -1.3685    0.1918    0.1193 C   0  0  0  0  0  0  0  0  0  0  0  0
   -2.7849   -1.2234   -0.7135 H   0  0  0  0  0  0  0  0  0  0  0  0
   -2.8050   -1.3580    1.0775 H   0  0  0  0  0  0  0  0  0  0  0  0
   -0.1324   -0.7095   -0.0540 C   0  0  0  0  0  0  0  0  0  0  0  0
   -1.2285    1.1126    1.1439 H   0  0  0  0  0  0  0  0  0  0  0  0
   -1.4728    0.7017   -0.6121 H   0  0  0  0  0  0  0  0  0  0  0  0
   -0.1555   -1.1703    0.6555 H   0  0  0  0  0  0  0  0  0  0  0  0
    0.7633   -0.1965    0.1046 H   0  0  0  0  0  0  0  0  0  0  0  0
   -0.0120   -1.4998   -0.9877 H   0  0  0  0  0  0  0  0  0  0  0  0
  1  2  1  0  0  0  0
  1  3  1  0  0  0  0
  1  5  1  0  0  0  0
  2  6  1  0  0  0  0
  2  8  1  0  0  0  0
  6 10  1  0  0  0  0
  7  2  1  0  0  0  0
  9 13  1  0  0  0  0
  9  6  1  0  0  0  0
  9 12  1  0  0  0  0
 11  6  1  0  0  0  0
 14  9  1  0  0  0  0
M  RAD  2   1   2   4   2
M  END
$$$$
