butane_opt
 OpenBabel08242015393D

 14 13  0  0  0  0  0  0  0  0999 V2000
   -3.9358    0.2447   -0.0117 C   0  0  0  0  0  0  0  0  0  0  0  0
   -2.7026   -0.6020    0.0591 C   0  0  0  0  0  0  0  0  0  0  0  0
   -4.8647   -0.3428    0.0204 H   0  0  0  0  0  0  0  0  0  0  0  0
   -3.8700    0.9133   -0.9520 H   0  0  0  0  0  0  0  0  0  0  0  0
   -3.9788    0.9130    0.8316 H   0  0  0  0  0  0  0  0  0  0  0  0
   -1.4183    0.2012    0.0588 C   0  0  0  0  0  0  0  0  0  0  0  0
   -2.6617   -1.2501   -0.7610 H   0  0  0  0  0  0  0  0  0  0  0  0
   -2.7590   -1.2260    0.9692 H   0  0  0  0  0  0  0  0  0  0  0  0
   -0.1612   -0.7045    0.0008 C   0  0  0  0  0  0  0  0  0  0  0  0
   -1.3847    0.8728    0.9343 H   0  0  0  0  0  0  0  0  0  0  0  0
   -1.4003    0.7992   -0.8207 H   0  0  0  0  0  0  0  0  0  0  0  0
   -0.0105   -1.3317    0.9130 H   0  0  0  0  0  0  0  0  0  0  0  0
    0.7246   -0.1522   -0.1300 H   0  0  0  0  0  0  0  0  0  0  0  0
   -0.2000   -1.3424   -0.8473 H   0  0  0  0  0  0  0  0  0  0  0  0
  1  3  1  0  0  0  0
  1  2  1  0  0  0  0
  1  5  1  0  0  0  0
  2  8  1  0  0  0  0
  4  1  1  0  0  0  0
  6  2  1  0  0  0  0
  6 10  1  0  0  0  0
  7  2  1  0  0  0  0
  9  6  1  0  0  0  0
  9 12  1  0  0  0  0
 11  6  1  0  0  0  0
 13  9  1  0  0  0  0
 14  9  1  0  0  0  0
M  END
$$$$
