14
butane_opt
C  -3.948696   0.268897  -0.014127
C  -2.695631  -0.631193   0.058705
H  -4.843081  -0.311194   0.176794
H  -4.091567   1.028511  -1.004239
H  -3.946095   0.824941   0.778435
C  -1.405231   0.184463   0.053230
H  -2.732399  -1.305479  -0.802381
H  -2.743586  -1.245068   0.922496
C  -0.146201  -0.684539   0.008676
H  -1.369036   0.860076   0.903978
H  -1.421489   0.794267  -0.807470
H  -0.110973  -1.235078   0.857438
H   0.748392  -0.103567  -0.004583
H  -0.162275  -1.424134  -0.880011
