14
butane_opt
C  -3.932458   0.269632  -0.077953
C  -2.674788  -0.621683   0.116644
H  -4.806715  -0.343082   0.199192
H  -4.168616   1.151348  -1.043062
H  -3.949516   0.788938   0.734678
C  -1.388434   0.168371   0.075395
H  -2.540244  -1.234723  -0.686820
H  -2.722740  -1.456568   1.240718
C  -0.208802  -0.666709  -0.024825
H  -1.213607   0.901557   0.949547
H  -1.506293   0.706441  -0.784526
H  -0.247850  -0.946468   0.632760
H   0.692376  -0.066334   0.202758
H  -0.089143  -1.767379  -1.136175
