butane_opt
 OpenBabel08242015393D

 14 13  0  0  0  0  0  0  0  0999 V2000
   -3.8983    0.3046   -0.0711 C   0  0  0  0  0  0  0  0  0  0  0  0
   -2.7075   -0.6448    0.1854 C   0  0  0  0  0  0  0  0  0  0  0  0
   -4.8148   -0.2352   -0.3306 H   0  0  0  0  0  0  0  0  0  0  0  0
   -3.8079    0.9130   -0.9413 H   0  0  0  0  0  0  0  0  0  0  0  0
   -4.2314    0.9986    0.7569 H   0  0  0  0  0  0  0  0  0  0  0  0
   -1.4040    0.1151    0.0502 C   0  0  0  0  0  0  0  0  0  0  0  0
   -2.6135   -1.1176   -0.5638 H   0  0  0  0  0  0  0  0  0  0  0  0
   -2.6659   -1.4272    1.1732 H   0  0  0  0  0  0  0  0  0  0  0  0
   -0.1841   -0.6625   -0.0492 C   0  0  0  0  0  0  0  0  0  0  0  0
   -1.2225    0.9069    1.0090 H   0  0  0  0  0  0  0  0  0  0  0  0
   -1.5477    0.5388   -0.7136 H   0  0  0  0  0  0  0  0  0  0  0  0
   -0.3041   -0.9868    0.5599 H   0  0  0  0  0  0  0  0  0  0  0  0
    0.7940    0.0472    0.0907 H   0  0  0  0  0  0  0  0  0  0  0  0
   -0.2829   -1.4546   -1.0032 H   0  0  0  0  0  0  0  0  0  0  0  0
  1  2  1  0  0  0  0
  1  5  1  0  0  0  0
  2  8  1  0  0  0  0
  3  1  1  0  0  0  0
  4  1  1  0  0  0  0
  6  2  1  0  0  0  0
  6 10  1  0  0  0  0
  7  2  1  0  0  0  0
  9  6  1  0  0  0  0
  9 13  1  0  0  0  0
  9 12  1  0  0  0  0
 11  6  1  0  0  0  0
 14  9  1  0  0  0  0
M  END
$$$$
