14
butane_opt
C  -3.952496   0.292036   0.135895
C  -2.683585  -0.657963  -0.053260
H  -4.880919  -0.224011   0.106107
H  -3.988912   0.945341  -0.860375
H  -4.050114   0.963030   0.976792
C  -1.397122   0.122679  -0.089934
H  -2.797053  -1.319697  -0.992742
H  -2.487423  -1.142623   0.700642
C  -0.149185  -0.636108   0.133948
H  -1.475284   0.644189   0.662139
H  -1.446200   0.876125  -1.112939
H  -0.396763  -1.210007   1.018875
H   0.789828  -0.017052   0.226319
H  -0.114284  -1.434901  -0.810101
