14
butane_opt
C  -3.918885   0.233828  -0.053266
C  -2.748661  -0.597088   0.086940
H  -4.867957  -0.400513   0.410907
H  -4.006161   1.277370  -1.259158
H  -3.977962   0.573406   0.555485
C  -1.422805   0.246480   0.136236
H  -2.722177  -1.327267  -0.772521
H  -2.902469  -1.134784   0.959644
C  -0.113830  -0.727227  -0.039021
H  -1.153940   0.920445   0.908793
H  -1.487717   0.767375  -0.646040
H  -0.012192  -1.244216   0.772730
H   0.664929  -0.256348  -0.028070
H  -0.073409  -1.537272  -1.058170
