14
butane_opt
C  -3.899493   0.228103   0.094919
C  -2.684654  -0.582413  -0.047883
H  -4.853081  -0.395410  -0.113265
H  -3.940356   0.738862  -0.765712
H  -3.835036   1.010245   1.077857
C  -1.415279   0.223185  -0.029878
H  -2.783439  -1.457402  -1.094376
H  -2.702561  -1.059318   0.768501
C  -0.173336  -0.725012   0.128296
H  -1.627698   0.909461   0.779902
H  -1.461153   0.931157  -1.055800
H   0.006602  -1.624061   1.132061
H   0.700374  -0.248974  -0.461991
H  -0.421876  -1.003931  -0.534645
