butane_opt
 OpenBabel08242015393D

 14 13  0  0  0  0  0  0  0  0999 V2000
   -3.9547    0.2350    0.1221 C   0  0  0  0  0  0  0  0  0  0  0  0
   -2.7037   -0.6177   -0.0356 C   0  0  0  0  0  0  0  0  0  0  0  0
   -4.7562   -0.2785    0.1501 H   0  0  0  0  0  0  0  0  0  0  0  0
   -4.0756    0.8522   -0.6733 H   0  0  0  0  0  0  0  0  0  0  0  0
   -3.8216    1.0600    1.1385 H   0  0  0  0  0  0  0  0  0  0  0  0
   -1.4267    0.2174   -0.1620 C   0  0  0  0  0  0  0  0  0  0  0  0
   -2.9012   -1.4100   -0.9598 H   0  0  0  0  0  0  0  0  0  0  0  0
   -2.8474   -1.1317    0.7921 H   0  0  0  0  0  0  0  0  0  0  0  0
   -0.1175   -0.6898    0.1436 C   0  0  0  0  0  0  0  0  0  0  0  0
   -1.4638    0.7556    0.5020 H   0  0  0  0  0  0  0  0  0  0  0  0
   -1.4352    0.9200   -1.0827 H   0  0  0  0  0  0  0  0  0  0  0  0
   -0.2789   -1.2043    0.9898 H   0  0  0  0  0  0  0  0  0  0  0  0
    0.7406   -0.2183    0.5518 H   0  0  0  0  0  0  0  0  0  0  0  0
    0.2331   -1.5510   -0.7763 H   0  0  0  0  0  0  0  0  0  0  0  0
  1  3  1  0  0  0  0
  1  5  1  0  0  0  0
  2  1  1  0  0  0  0
  2  8  1  0  0  0  0
  4  1  1  0  0  0  0
  6  2  1  0  0  0  0
  6  9  1  0  0  0  0
  6 10  1  0  0  0  0
  7  2  1  0  0  0  0
  9 13  1  0  0  0  0
  9 12  1  0  0  0  0
 11  6  1  0  0  0  0
 14  9  1  0  0  0  0
M  END
$$$$
