butane_opt
 OpenBabel08242015393D

 14 12  0  0  0  0  0  0  0  0999 V2000
   -3.9879    0.3027    0.0997 C   0  0  0  0  0  0  0  0  0  0  0  0
   -2.7024   -0.6458    0.0250 C   0  0  0  0  0  0  0  0  0  0  0  0
   -4.8791   -0.2474   -0.3947 H   0  0  0  0  0  0  0  0  0  0  0  0
   -3.7988    0.5494   -0.6498 H   0  0  0  0  0  0  0  0  0  0  0  0
   -4.2226    1.3830    1.1687 H   0  0  0  0  0  0  0  0  0  0  0  0
   -1.3877    0.1474   -0.0982 C   0  0  0  0  0  0  0  0  0  0  0  0
   -2.8091   -1.5417   -0.9046 H   0  0  0  0  0  0  0  0  0  0  0  0
   -2.5793   -1.1357    0.7958 H   0  0  0  0  0  0  0  0  0  0  0  0
   -0.1682   -0.6497    0.1057 C   0  0  0  0  0  0  0  0  0  0  0  0
   -1.3570    0.6339    0.6104 H   0  0  0  0  0  0  0  0  0  0  0  0
   -1.0978    0.7941   -1.0592 H   0  0  0  0  0  0  0  0  0  0  0  0
   -0.1753   -1.4610    1.1122 H   0  0  0  0  0  0  0  0  0  0  0  0
    0.8078   -0.0564   -0.1456 H   0  0  0  0  0  0  0  0  0  0  0  0
    0.0115   -1.2168   -0.6477 H   0  0  0  0  0  0  0  0  0  0  0  0
  2  1  1  0  0  0  0
  2  8  1  0  0  0  0
  3  1  1  0  0  0  0
  4  1  1  0  0  0  0
  6  2  1  0  0  0  0
  6  9  1  0  0  0  0
  6 10  1  0  0  0  0
  7  2  1  0  0  0  0
  9 12  1  0  0  0  0
 11  6  1  0  0  0  0
 13  9  1  0  0  0  0
 14  9  1  0  0  0  0
M  RAD  2   1   2   5   2
M  END
$$$$
