butane_opt
 OpenBabel08242015393D

 14 13  0  0  0  0  0  0  0  0999 V2000
   -3.9511    0.3082    0.1105 C   0  0  0  0  0  0  0  0  0  0  0  0
   -2.7122   -0.6714   -0.0409 C   0  0  0  0  0  0  0  0  0  0  0  0
   -4.7967   -0.2078    0.1245 H   0  0  0  0  0  0  0  0  0  0  0  0
   -4.0544    0.8599   -0.7118 H   0  0  0  0  0  0  0  0  0  0  0  0
   -3.9025    0.9802    0.9340 H   0  0  0  0  0  0  0  0  0  0  0  0
   -1.3778    0.1609   -0.1235 C   0  0  0  0  0  0  0  0  0  0  0  0
   -2.8543   -1.2779   -0.8462 H   0  0  0  0  0  0  0  0  0  0  0  0
   -2.6949   -1.4409    0.9554 H   0  0  0  0  0  0  0  0  0  0  0  0
   -0.1722   -0.6766    0.1220 C   0  0  0  0  0  0  0  0  0  0  0  0
   -1.5510    0.8986    0.7335 H   0  0  0  0  0  0  0  0  0  0  0  0
   -1.2563    0.8983   -1.0157 H   0  0  0  0  0  0  0  0  0  0  0  0
   -0.3834   -1.0662    0.8873 H   0  0  0  0  0  0  0  0  0  0  0  0
    0.8193    0.0116    0.3953 H   0  0  0  0  0  0  0  0  0  0  0  0
    0.1666   -1.5747   -0.8791 H   0  0  0  0  0  0  0  0  0  0  0  0
  1  3  1  0  0  0  0
  1  5  1  0  0  0  0
  2  1  1  0  0  0  0
  2  8  1  0  0  0  0
  4  1  1  0  0  0  0
  6  2  1  0  0  0  0
  6  9  1  0  0  0  0
  6 10  1  0  0  0  0
  7  2  1  0  0  0  0
  9 13  1  0  0  0  0
  9 12  1  0  0  0  0
 11  6  1  0  0  0  0
 14  9  1  0  0  0  0
M  END
$$$$
