14
butane_opt
C  -3.947171   0.281581   0.103296
C  -2.682101  -0.616202  -0.078599
H  -4.935877  -0.494894  -0.116114
H  -4.052247   0.736203  -0.609533
H  -3.840562   1.190030   1.171242
C  -1.382018   0.169569  -0.079104
H  -2.671736  -1.353660  -0.908484
H  -2.649754  -1.199782   0.790020
C  -0.193171  -0.696871   0.134105
H  -1.526894   0.906690   0.799368
H  -1.214574   0.811421  -0.980093
H  -0.087168  -1.632722   1.239290
H   0.770304  -0.063420  -0.337687
H  -0.345686  -1.031661  -0.533414
