butane_opt
 OpenBabel08242015393D

 14 13  0  0  0  0  0  0  0  0999 V2000
   -3.9161    0.2987    0.1123 C   0  0  0  0  0  0  0  0  0  0  0  0
   -2.6846   -0.6452   -0.0876 C   0  0  0  0  0  0  0  0  0  0  0  0
   -4.8475   -0.2728    0.3879 H   0  0  0  0  0  0  0  0  0  0  0  0
   -4.2275    0.9407   -0.8400 H   0  0  0  0  0  0  0  0  0  0  0  0
   -3.7364    0.9075    0.9664 H   0  0  0  0  0  0  0  0  0  0  0  0
   -1.4078    0.1243   -0.0431 C   0  0  0  0  0  0  0  0  0  0  0  0
   -2.7017   -1.4746   -1.1372 H   0  0  0  0  0  0  0  0  0  0  0  0
   -2.6192   -1.0456    0.6544 H   0  0  0  0  0  0  0  0  0  0  0  0
   -0.2015   -0.6567    0.1289 C   0  0  0  0  0  0  0  0  0  0  0  0
   -1.3955    0.7039    0.7574 H   0  0  0  0  0  0  0  0  0  0  0  0
   -1.1325    0.9804   -1.1168 H   0  0  0  0  0  0  0  0  0  0  0  0
   -0.3401   -1.4164    1.1431 H   0  0  0  0  0  0  0  0  0  0  0  0
    0.6248   -0.0774   -0.0526 H   0  0  0  0  0  0  0  0  0  0  0  0
   -0.1225   -1.1849   -0.6483 H   0  0  0  0  0  0  0  0  0  0  0  0
  1  3  1  0  0  0  0
  1  5  1  0  0  0  0
  2  6  1  0  0  0  0
  2  1  1  0  0  0  0
  2  8  1  0  0  0  0
  4  1  1  0  0  0  0
  6  9  1  0  0  0  0
  6 10  1  0  0  0  0
  7  2  1  0  0  0  0
  9 12  1  0  0  0  0
 11  6  1  0  0  0  0
 13  9  1  0  0  0  0
 14  9  1  0  0  0  0
M  END
$$$$
