14
butane_opt
C  -3.932896   0.281207  -0.044064
C  -2.681183  -0.626118   0.119975
H  -4.821599  -0.291310   0.182876
H  -4.021364   1.317600  -1.177762
H  -4.040284   0.809454   0.617669
C  -1.370596   0.107040   0.060361
H  -2.591063  -1.175403  -0.583370
H  -2.819836  -1.414599   1.184829
C  -0.180643  -0.656991  -0.062522
H  -1.340142   0.933911   1.071330
H  -1.548669   0.610390  -0.750146
H  -0.529443  -0.870975   0.657691
H   0.784577   0.044471   0.411599
H  -0.108834  -1.693408  -1.127136
