butane_opt
 OpenBabel08242015393D

 14 13  0  0  0  0  0  0  0  0999 V2000
   -3.9540    0.2712    0.0089 C   0  0  0  0  0  0  0  0  0  0  0  0
   -2.6849   -0.6316    0.0590 C   0  0  0  0  0  0  0  0  0  0  0  0
   -4.8536   -0.3190   -0.1097 H   0  0  0  0  0  0  0  0  0  0  0  0
   -3.9352    0.8467   -0.8852 H   0  0  0  0  0  0  0  0  0  0  0  0
   -4.0366    1.0198    0.9187 H   0  0  0  0  0  0  0  0  0  0  0  0
   -1.4038    0.1826    0.0192 C   0  0  0  0  0  0  0  0  0  0  0  0
   -2.6972   -1.3010   -0.7865 H   0  0  0  0  0  0  0  0  0  0  0  0
   -2.6980   -1.3017    0.9724 H   0  0  0  0  0  0  0  0  0  0  0  0
   -0.1701   -0.6879    0.0249 C   0  0  0  0  0  0  0  0  0  0  0  0
   -1.3414    0.8323    0.8566 H   0  0  0  0  0  0  0  0  0  0  0  0
   -1.3788    0.8700   -0.8823 H   0  0  0  0  0  0  0  0  0  0  0  0
   -0.1051   -1.2726    0.8836 H   0  0  0  0  0  0  0  0  0  0  0  0
    0.7533   -0.0688   -0.0352 H   0  0  0  0  0  0  0  0  0  0  0  0
   -0.1751   -1.3873   -0.8375 H   0  0  0  0  0  0  0  0  0  0  0  0
  1  2  1  0  0  0  0
  1  5  1  0  0  0  0
  2  8  1  0  0  0  0
  3  1  1  0  0  0  0
  4  1  1  0  0  0  0
  6  9  1  0  0  0  0
  6  2  1  0  0  0  0
  6 10  1  0  0  0  0
  7  2  1  0  0  0  0
  9 12  1  0  0  0  0
 11  6  1  0  0  0  0
 13  9  1  0  0  0  0
 14  9  1  0  0  0  0
M  END
$$$$
