butane_opt
 OpenBabel08242015393D

 14 13  0  0  0  0  0  0  0  0999 V2000
   -3.9560    0.2866    0.1163 C   0  0  0  0  0  0  0  0  0  0  0  0
   -2.6847   -0.6829   -0.0263 C   0  0  0  0  0  0  0  0  0  0  0  0
   -4.8144   -0.2457    0.2017 H   0  0  0  0  0  0  0  0  0  0  0  0
   -4.0782    0.9827   -0.8323 H   0  0  0  0  0  0  0  0  0  0  0  0
   -4.0633    1.0880    0.9810 H   0  0  0  0  0  0  0  0  0  0  0  0
   -1.4154    0.1655   -0.1131 C   0  0  0  0  0  0  0  0  0  0  0  0
   -2.7052   -1.4009   -0.9346 H   0  0  0  0  0  0  0  0  0  0  0  0
   -2.7141   -1.3247    0.8795 H   0  0  0  0  0  0  0  0  0  0  0  0
   -0.1333   -0.6599    0.1015 C   0  0  0  0  0  0  0  0  0  0  0  0
   -1.3606    0.8631    0.6492 H   0  0  0  0  0  0  0  0  0  0  0  0
   -1.3198    0.8687   -1.0656 H   0  0  0  0  0  0  0  0  0  0  0  0
   -0.5357   -1.0860    0.9516 H   0  0  0  0  0  0  0  0  0  0  0  0
    0.7106   -0.0605    0.4889 H   0  0  0  0  0  0  0  0  0  0  0  0
    0.1418   -1.4853   -0.8194 H   0  0  0  0  0  0  0  0  0  0  0  0
  1  3  1  0  0  0  0
  1  5  1  0  0  0  0
  2  1  1  0  0  0  0
  2  8  1  0  0  0  0
  4  1  1  0  0  0  0
  6  2  1  0  0  0  0
  6  9  1  0  0  0  0
  6 10  1  0  0  0  0
  7  2  1  0  0  0  0
  9 13  1  0  0  0  0
  9 12  1  0  0  0  0
 11  6  1  0  0  0  0
 14  9  1  0  0  0  0
M  END
$$$$
