14
butane_opt
C  -3.898674   0.213955   0.162214
C  -2.697106  -0.582640  -0.100294
H  -4.850905  -0.363051   0.276327
H  -4.081694   1.023726  -0.872954
H  -3.701628   0.766852   0.891994
C  -1.441981   0.237657  -0.100327
H  -2.722966  -1.334144  -0.990564
H  -2.622145  -1.098829   0.622981
C  -0.160498  -0.729987   0.141118
H  -1.625865   0.854290   0.686295
H  -1.359784   0.930994  -1.040488
H  -0.357501  -1.377495   1.143538
H   0.782002  -0.132873   0.243471
H  -0.083580  -1.423711  -0.774900
