14
butane_opt
C  -3.956019   0.286616   0.116270
C  -2.684689  -0.682887  -0.026305
H  -4.814399  -0.245684   0.201674
H  -4.078210   0.982734  -0.832347
H  -4.063287   1.087951   0.980985
C  -1.415409   0.165492  -0.113073
H  -2.705245  -1.400919  -0.934596
H  -2.714147  -1.324742   0.879498
C  -0.133335  -0.659857   0.101548
H  -1.360556   0.863062   0.649186
H  -1.319754   0.868650  -1.065633
H  -0.535714  -1.085999   0.951582
H   0.710588  -0.060538   0.488948
H   0.141772  -1.485325  -0.819413
