14
butane_opt
C  -3.922527   0.257343  -0.022479
C  -2.709699  -0.601310   0.080024
H  -4.890358  -0.409640  -0.058166
H  -3.883778   0.854393  -0.906828
H  -3.987476   0.971474   0.852346
C  -1.411170   0.194110   0.044644
H  -2.728653  -1.237440  -0.727946
H  -2.725411  -1.256822   1.007262
C  -0.158325  -0.705729  -0.001200
H  -1.397726   0.929607   0.919696
H  -1.463148   0.755971  -0.784755
H  -0.106229  -1.342747   0.885040
H   0.764174  -0.122885  -0.105514
H  -0.175073  -1.352796  -0.854654
