butane_opt
 OpenBabel08242015393D

 14 13  0  0  0  0  0  0  0  0999 V2000
   -3.9542    0.2892    0.0650 C   0  0  0  0  0  0  0  0  0  0  0  0
   -2.7129   -0.6523   -0.0347 C   0  0  0  0  0  0  0  0  0  0  0  0
   -4.7411   -0.2237    0.2700 H   0  0  0  0  0  0  0  0  0  0  0  0
   -4.2437    1.1585   -0.8980 H   0  0  0  0  0  0  0  0  0  0  0  0
   -3.8606    0.7359    0.7890 H   0  0  0  0  0  0  0  0  0  0  0  0
   -1.3820    0.1727   -0.0288 C   0  0  0  0  0  0  0  0  0  0  0  0
   -2.8786   -1.4462   -1.0215 H   0  0  0  0  0  0  0  0  0  0  0  0
   -2.7334   -1.2483    0.8429 H   0  0  0  0  0  0  0  0  0  0  0  0
   -0.1376   -0.6697    0.0761 C   0  0  0  0  0  0  0  0  0  0  0  0
   -1.3083    1.0156    0.9141 H   0  0  0  0  0  0  0  0  0  0  0  0
   -1.3549    0.6609   -0.7660 H   0  0  0  0  0  0  0  0  0  0  0  0
   -0.1604   -1.4320    1.1275 H   0  0  0  0  0  0  0  0  0  0  0  0
    0.6864   -0.1344   -0.0572 H   0  0  0  0  0  0  0  0  0  0  0  0
   -0.1918   -1.2251   -0.7126 H   0  0  0  0  0  0  0  0  0  0  0  0
  1  3  1  0  0  0  0
  1  5  1  0  0  0  0
  2  6  1  0  0  0  0
  2  1  1  0  0  0  0
  2  8  1  0  0  0  0
  4  1  1  0  0  0  0
  6  9  1  0  0  0  0
  6 10  1  0  0  0  0
  7  2  1  0  0  0  0
  9 12  1  0  0  0  0
 11  6  1  0  0  0  0
 13  9  1  0  0  0  0
 14  9  1  0  0  0  0
M  END
$$$$
