14
butane_opt
C  -3.938793   0.253442   0.119959
C  -2.685998  -0.574845  -0.059593
H  -4.910241  -0.372819   0.170335
H  -4.043238   0.647934  -0.681847
H  -3.616876   1.055022   1.114009
C  -1.420293   0.194317  -0.136904
H  -2.759588  -1.330413  -1.000006
H  -2.675938  -1.209596   0.809096
C  -0.183265  -0.702795   0.161983
H  -1.346614   0.648869   0.661760
H  -1.319365   1.013729  -1.206726
H  -0.394366  -1.273140   1.085373
H   0.725339  -0.098206   0.330909
H   0.049005  -1.602824  -0.863604
