14
butane_opt
C  -3.919051   0.237653   0.027049
C  -2.670438  -0.598452   0.022658
H  -4.887630  -0.335585   0.211082
H  -3.995990   0.742452  -0.796945
H  -3.723795   1.050351   1.048390
C  -1.451563   0.208732  -0.066541
H  -2.770414  -1.178928  -0.801563
H  -2.675088  -1.289155   1.035103
C  -0.182936  -0.687139   0.066080
H  -1.433534   0.734324   0.646554
H  -1.401308   0.803498  -0.969412
H  -0.263347  -1.090693   0.907696
H   0.680635  -0.163633   0.471771
H   0.129905  -1.685217  -0.915810
