14
butane_opt
C  -3.938424   0.238988   0.050991
C  -2.738027  -0.564468  -0.007260
H  -4.941262  -0.490675  -0.063887
H  -4.003074   0.685859  -0.713048
H  -3.841292   1.031502   0.909310
C  -1.408886   0.218855  -0.001569
H  -2.852733  -1.367611  -0.937932
H  -2.607777  -1.107515   0.748461
C  -0.135520  -0.755689   0.082059
H  -1.390112   0.860895   0.843464
H  -1.268826   1.055127  -0.976143
H   0.067529  -1.533247   1.067314
H   0.735215  -0.167613  -0.294755
H  -0.240582  -1.120393  -0.615068
