14
butane_opt
C  -3.942895   0.216962   0.014907
C  -2.694419  -0.553940   0.008138
H  -4.925771  -0.458737   0.595438
H  -3.976195   1.144287  -1.077144
H  -3.714985   0.593455   0.634132
C  -1.426686   0.224615   0.010081
H  -2.679207  -1.227457  -0.844257
H  -2.584920  -1.165491   0.794687
C  -0.156478  -0.728161   0.044566
H  -1.337939   0.988270   0.936590
H  -1.551428   0.674817  -0.718826
H  -0.205061  -1.284411   0.939571
H   0.717416  -0.093100   0.138166
H  -0.102560  -1.568855  -0.914407
