butane_opt
 OpenBabel08242015393D

 14 13  0  0  0  0  0  0  0  0999 V2000
   -3.9044    0.2676   -0.0429 C   0  0  0  0  0  0  0  0  0  0  0  0
   -2.6724   -0.6005    0.1164 C   0  0  0  0  0  0  0  0  0  0  0  0
   -4.9062   -0.4645    0.1607 H   0  0  0  0  0  0  0  0  0  0  0  0
   -3.8686    0.9932   -0.9279 H   0  0  0  0  0  0  0  0  0  0  0  0
   -4.0024    0.7515    0.6730 H   0  0  0  0  0  0  0  0  0  0  0  0
   -1.4024    0.2217    0.0468 C   0  0  0  0  0  0  0  0  0  0  0  0
   -2.7459   -1.2551   -0.7139 H   0  0  0  0  0  0  0  0  0  0  0  0
   -2.8155   -1.3934    1.1420 H   0  0  0  0  0  0  0  0  0  0  0  0
   -0.2069   -0.7162   -0.0439 C   0  0  0  0  0  0  0  0  0  0  0  0
   -1.2438    0.9271    0.9235 H   0  0  0  0  0  0  0  0  0  0  0  0
   -1.5161    0.7695   -0.8541 H   0  0  0  0  0  0  0  0  0  0  0  0
   -0.3696   -1.0273    0.6639 H   0  0  0  0  0  0  0  0  0  0  0  0
    0.6747   -0.2242    0.4489 H   0  0  0  0  0  0  0  0  0  0  0  0
    0.0263   -1.6346   -1.0149 H   0  0  0  0  0  0  0  0  0  0  0  0
  1  2  1  0  0  0  0
  1  3  1  0  0  0  0
  1  5  1  0  0  0  0
  2  8  1  0  0  0  0
  4  1  1  0  0  0  0
  6  2  1  0  0  0  0
  6 10  1  0  0  0  0
  7  2  1  0  0  0  0
  9  6  1  0  0  0  0
  9 13  1  0  0  0  0
  9 12  1  0  0  0  0
 11  6  1  0  0  0  0
 14  9  1  0  0  0  0
M  END
$$$$
