butane_opt
 OpenBabel08242015393D

 14 13  0  0  0  0  0  0  0  0999 V2000
   -3.9050    0.2261    0.0918 C   0  0  0  0  0  0  0  0  0  0  0  0
   -2.6839   -0.5995   -0.0397 C   0  0  0  0  0  0  0  0  0  0  0  0
   -4.8174   -0.3443   -0.0845 H   0  0  0  0  0  0  0  0  0  0  0  0
   -3.9280    0.6250   -0.6414 H   0  0  0  0  0  0  0  0  0  0  0  0
   -3.8555    1.1203    1.1181 H   0  0  0  0  0  0  0  0  0  0  0  0
   -1.4569    0.2266   -0.0326 C   0  0  0  0  0  0  0  0  0  0  0  0
   -2.6381   -1.3278   -0.9683 H   0  0  0  0  0  0  0  0  0  0  0  0
   -2.7658   -1.0367    0.6881 H   0  0  0  0  0  0  0  0  0  0  0  0
   -0.1883   -0.7301    0.1003 C   0  0  0  0  0  0  0  0  0  0  0  0
   -1.5388    0.7208    0.6998 H   0  0  0  0  0  0  0  0  0  0  0  0
   -1.3112    1.0768   -1.1322 H   0  0  0  0  0  0  0  0  0  0  0  0
   -0.0156   -1.5877    1.1293 H   0  0  0  0  0  0  0  0  0  0  0  0
    0.8324   -0.1278   -0.1303 H   0  0  0  0  0  0  0  0  0  0  0  0
   -0.1795   -1.0666   -0.6098 H   0  0  0  0  0  0  0  0  0  0  0  0
  1  5  1  0  0  0  0
  2  6  1  0  0  0  0
  2  1  1  0  0  0  0
  2  8  1  0  0  0  0
  3  1  1  0  0  0  0
  4  1  1  0  0  0  0
  6  9  1  0  0  0  0
  6 10  1  0  0  0  0
  7  2  1  0  0  0  0
  9 12  1  0  0  0  0
 11  6  1  0  0  0  0
 13  9  1  0  0  0  0
 14  9  1  0  0  0  0
M  END
$$$$
