14
butane_opt
C  -3.954229   0.289182   0.064958
C  -2.712858  -0.652305  -0.034747
H  -4.741103  -0.223725   0.270017
H  -4.243745   1.158523  -0.897974
H  -3.860561   0.735882   0.789039
C  -1.381953   0.172660  -0.028785
H  -2.878623  -1.446154  -1.021453
H  -2.733396  -1.248298   0.842948
C  -0.137566  -0.669749   0.076092
H  -1.308257   1.015643   0.914092
H  -1.354872   0.660906  -0.766034
H  -0.160401  -1.431967   1.127511
H   0.686368  -0.134442  -0.057181
H  -0.191821  -1.225059  -0.712602
