14
butane_opt
C  -3.929927   0.266282   0.040174
C  -2.705277  -0.587622   0.018021
H  -4.852252  -0.406147  -0.091188
H  -3.863141   0.771226  -0.804890
H  -3.922592   1.150031   1.018729
C  -1.421286   0.140141  -0.025209
H  -2.771009  -1.272725  -0.866984
H  -2.625320  -1.238763   0.970928
C  -0.162870  -0.685042   0.028036
H  -1.305091   0.842958   0.925643
H  -1.317964   0.763858  -0.876390
H  -0.273973  -1.438108   1.050722
H   0.691094  -0.126526   0.014606
H  -0.135046  -1.128471  -0.609664
