butane_opt
 OpenBabel08242015393D

 14 13  0  0  0  0  0  0  0  0999 V2000
   -3.8730    0.2383    0.1085 C   0  0  0  0  0  0  0  0  0  0  0  0
   -2.7163   -0.5826   -0.1019 C   0  0  0  0  0  0  0  0  0  0  0  0
   -4.8064   -0.4353    0.4589 H   0  0  0  0  0  0  0  0  0  0  0  0
   -4.1011    0.9145   -0.7421 H   0  0  0  0  0  0  0  0  0  0  0  0
   -3.8036    0.6796    0.9003 H   0  0  0  0  0  0  0  0  0  0  0  0
   -1.4197    0.2534   -0.0613 C   0  0  0  0  0  0  0  0  0  0  0  0
   -2.7963   -1.2955   -0.9914 H   0  0  0  0  0  0  0  0  0  0  0  0
   -2.7760   -1.0825    0.6800 H   0  0  0  0  0  0  0  0  0  0  0  0
   -0.1705   -0.7563    0.1113 C   0  0  0  0  0  0  0  0  0  0  0  0
   -1.4849    0.9420    0.8372 H   0  0  0  0  0  0  0  0  0  0  0  0
   -1.4393    0.8486   -1.0081 H   0  0  0  0  0  0  0  0  0  0  0  0
   -0.2676   -1.5101    1.1009 H   0  0  0  0  0  0  0  0  0  0  0  0
    0.7053   -0.1351    0.1047 H   0  0  0  0  0  0  0  0  0  0  0  0
   -0.0742   -1.2349   -0.5581 H   0  0  0  0  0  0  0  0  0  0  0  0
  1  3  1  0  0  0  0
  1  5  1  0  0  0  0
  2  6  1  0  0  0  0
  2  1  1  0  0  0  0
  2  8  1  0  0  0  0
  4  1  1  0  0  0  0
  6  9  1  0  0  0  0
  6 10  1  0  0  0  0
  7  2  1  0  0  0  0
  9 12  1  0  0  0  0
 11  6  1  0  0  0  0
 13  9  1  0  0  0  0
 14  9  1  0  0  0  0
M  END
$$$$
