butane_opt
 OpenBabel08242015393D

 14 13  0  0  0  0  0  0  0  0999 V2000
   -3.9370    0.2271   -0.0856 C   0  0  0  0  0  0  0  0  0  0  0  0
   -2.7409   -0.5691    0.1418 C   0  0  0  0  0  0  0  0  0  0  0  0
   -4.9392   -0.4314    0.2390 H   0  0  0  0  0  0  0  0  0  0  0  0
   -4.0525    0.8737   -1.0230 H   0  0  0  0  0  0  0  0  0  0  0  0
   -4.0138    0.8319    0.7759 H   0  0  0  0  0  0  0  0  0  0  0  0
   -1.4432    0.2227    0.0617 C   0  0  0  0  0  0  0  0  0  0  0  0
   -2.7020   -1.1015   -0.5767 H   0  0  0  0  0  0  0  0  0  0  0  0
   -2.8540   -1.3333    1.1314 H   0  0  0  0  0  0  0  0  0  0  0  0
   -0.0689   -0.7348   -0.0410 C   0  0  0  0  0  0  0  0  0  0  0  0
   -1.3559    0.8947    0.8407 H   0  0  0  0  0  0  0  0  0  0  0  0
   -1.4824    0.8053   -0.7703 H   0  0  0  0  0  0  0  0  0  0  0  0
   -0.1145   -0.8925    0.5801 H   0  0  0  0  0  0  0  0  0  0  0  0
    0.7199   -0.1697    0.3754 H   0  0  0  0  0  0  0  0  0  0  0  0
    0.0888   -1.7338   -1.0859 H   0  0  0  0  0  0  0  0  0  0  0  0
  1  2  1  0  0  0  0
  1  3  1  0  0  0  0
  1  5  1  0  0  0  0
  2  8  1  0  0  0  0
  4  1  1  0  0  0  0
  6  2  1  0  0  0  0
  6 10  1  0  0  0  0
  7  2  1  0  0  0  0
  9  6  1  0  0  0  0
  9 13  1  0  0  0  0
  9 12  1  0  0  0  0
 11  6  1  0  0  0  0
 14  9  1  0  0  0  0
M  END
$$$$
