14
butane_opt
C  -3.912140   0.257494  -0.065534
C  -2.679907  -0.594680   0.135090
H  -4.839776  -0.431832   0.135853
H  -3.906110   1.033790  -1.038798
H  -3.897998   0.801584   0.790695
C  -1.423280   0.186260   0.073973
H  -2.681026  -1.198269  -0.577448
H  -2.762078  -1.339934   1.074978
C  -0.220257  -0.706216  -0.032918
H  -1.336739   0.867692   0.888094
H  -1.305549   0.933898  -0.971287
H  -0.269406  -0.935289   0.559450
H   0.729448  -0.037262   0.343417
H   0.064068  -1.881624  -1.161581
