butane_opt
 OpenBabel08242015393D

 14 13  0  0  0  0  0  0  0  0999 V2000
   -3.9304    0.2749   -0.0447 C   0  0  0  0  0  0  0  0  0  0  0  0
   -2.6774   -0.6245    0.0643 C   0  0  0  0  0  0  0  0  0  0  0  0
   -4.8409   -0.3698    0.2762 H   0  0  0  0  0  0  0  0  0  0  0  0
   -4.0327    1.1883   -1.1967 H   0  0  0  0  0  0  0  0  0  0  0  0
   -3.9016    0.7348    0.6581 H   0  0  0  0  0  0  0  0  0  0  0  0
   -1.3772    0.1609    0.1336 C   0  0  0  0  0  0  0  0  0  0  0  0
   -2.7047   -1.3000   -0.8282 H   0  0  0  0  0  0  0  0  0  0  0  0
   -2.6577   -1.2994    1.0160 H   0  0  0  0  0  0  0  0  0  0  0  0
   -0.2016   -0.6664   -0.0224 C   0  0  0  0  0  0  0  0  0  0  0  0
   -1.4026    0.8200    1.0230 H   0  0  0  0  0  0  0  0  0  0  0  0
   -1.4264    0.8902   -0.7674 H   0  0  0  0  0  0  0  0  0  0  0  0
   -0.1598   -1.2109    0.8575 H   0  0  0  0  0  0  0  0  0  0  0  0
    0.6694   -0.1670   -0.1627 H   0  0  0  0  0  0  0  0  0  0  0  0
   -0.3130   -1.5005   -1.0611 H   0  0  0  0  0  0  0  0  0  0  0  0
  1  2  1  0  0  0  0
  1  3  1  0  0  0  0
  1  5  1  0  0  0  0
  2  6  1  0  0  0  0
  2  8  1  0  0  0  0
  4  1  1  0  0  0  0
  6 10  1  0  0  0  0
  7  2  1  0  0  0  0
  9  6  1  0  0  0  0
  9 12  1  0  0  0  0
 11  6  1  0  0  0  0
 13  9  1  0  0  0  0
 14  9  1  0  0  0  0
M  END
$$$$
