butane_opt
 OpenBabel08242015393D

 14 13  0  0  0  0  0  0  0  0999 V2000
   -3.9660    0.2937   -0.0512 C   0  0  0  0  0  0  0  0  0  0  0  0
   -2.6747   -0.6347    0.1467 C   0  0  0  0  0  0  0  0  0  0  0  0
   -4.9360   -0.3072   -0.1996 H   0  0  0  0  0  0  0  0  0  0  0  0
   -3.7426    0.8187   -0.9076 H   0  0  0  0  0  0  0  0  0  0  0  0
   -4.2894    1.0554    0.8210 H   0  0  0  0  0  0  0  0  0  0  0  0
   -1.3840    0.1345    0.0686 C   0  0  0  0  0  0  0  0  0  0  0  0
   -2.5168   -1.3229   -0.7722 H   0  0  0  0  0  0  0  0  0  0  0  0
   -2.5950   -1.3483    1.1281 H   0  0  0  0  0  0  0  0  0  0  0  0
   -0.1893   -0.6743   -0.0524 C   0  0  0  0  0  0  0  0  0  0  0  0
   -1.1637    0.7559    0.9569 H   0  0  0  0  0  0  0  0  0  0  0  0
   -1.5356    0.8807   -0.8427 H   0  0  0  0  0  0  0  0  0  0  0  0
   -0.2604   -1.0660    0.7762 H   0  0  0  0  0  0  0  0  0  0  0  0
    0.8099   -0.0286    0.0692 H   0  0  0  0  0  0  0  0  0  0  0  0
   -0.2098   -1.3534   -0.9098 H   0  0  0  0  0  0  0  0  0  0  0  0
  1  2  1  0  0  0  0
  1  5  1  0  0  0  0
  2  8  1  0  0  0  0
  3  1  1  0  0  0  0
  4  1  1  0  0  0  0
  6  2  1  0  0  0  0
  6 10  1  0  0  0  0
  7  2  1  0  0  0  0
  9  6  1  0  0  0  0
  9 13  1  0  0  0  0
  9 12  1  0  0  0  0
 11  6  1  0  0  0  0
 14  9  1  0  0  0  0
M  END
$$$$
