14
butane_opt
C  -3.962745   0.238931   0.112978
C  -2.716790  -0.582999  -0.072943
H  -4.838072  -0.387745   0.285171
H  -4.138935   0.966240  -0.802661
H  -3.749665   0.710005   0.945974
C  -1.434009   0.216682  -0.051610
H  -2.963251  -1.451136  -1.083394
H  -2.681671  -1.020403   0.688568
C  -0.078511  -0.710678   0.108712
H  -1.438767   0.746477   0.605164
H  -1.446516   0.967178  -1.016832
H  -0.268909  -1.392665   1.090691
H   0.728819  -0.243370   0.192217
H   0.092277  -1.312652  -0.644875
