butane_opt
 OpenBabel08242015393D

 14 11  0  0  0  0  0  0  0  0999 V2000
   -3.9037    0.2219    0.0378 C   0  0  0  0  0  0  0  0  0  0  0  0
   -2.7038   -0.5753   -0.0224 C   0  0  0  0  0  0  0  0  0  0  0  0
   -4.9591   -0.5094   -0.0037 H   0  0  0  0  0  0  0  0  0  0  0  0
   -3.9409    0.7268   -0.7668 H   0  0  0  0  0  0  0  0  0  0  0  0
   -3.9691    1.0643    1.0118 H   0  0  0  0  0  0  0  0  0  0  0  0
   -1.4512    0.2254    0.0151 C   0  0  0  0  0  0  0  0  0  0  0  0
   -2.7937   -1.3360   -0.9001 H   0  0  0  0  0  0  0  0  0  0  0  0
   -2.6305   -1.1139    0.8421 H   0  0  0  0  0  0  0  0  0  0  0  0
   -0.1530   -0.7045    0.0355 C   0  0  0  0  0  0  0  0  0  0  0  0
   -1.3531    1.0383    1.0110 H   0  0  0  0  0  0  0  0  0  0  0  0
   -1.4261    0.7906   -0.9143 H   0  0  0  0  0  0  0  0  0  0  0  0
    0.0742   -1.9109    1.2494 H   0  0  0  0  0  0  0  0  0  0  0  0
    0.6355   -0.2540   -0.3358 H   0  0  0  0  0  0  0  0  0  0  0  0
   -0.0961   -0.9949   -0.4811 H   0  0  0  0  0  0  0  0  0  0  0  0
  1  5  1  0  0  0  0
  2  6  1  0  0  0  0
  2  1  1  0  0  0  0
  2  8  1  0  0  0  0
  3  1  1  0  0  0  0
  4  1  1  0  0  0  0
  6  9  1  0  0  0  0
  6 10  1  0  0  0  0
  7  2  1  0  0  0  0
 11  6  1  0  0  0  0
 13  9  1  0  0  0  0
M  RAD  3   9   3  12   2  14   2
M  END
$$$$
