14
butane_opt
C  -3.873011   0.238306   0.108537
C  -2.716250  -0.582638  -0.101929
H  -4.806374  -0.435302   0.458906
H  -4.101071   0.914518  -0.742061
H  -3.803592   0.679560   0.900337
C  -1.419735   0.253356  -0.061279
H  -2.796327  -1.295511  -0.991396
H  -2.775971  -1.082458   0.679994
C  -0.170499  -0.756323   0.111298
H  -1.484907   0.941975   0.837159
H  -1.439300   0.848644  -1.008132
H  -0.267624  -1.510066   1.100885
H   0.705290  -0.135131   0.104677
H  -0.074226  -1.234913  -0.558130
