14
butane_opt
C  -3.980812   0.284816   0.086890
C  -2.723705  -0.616902  -0.099715
H  -4.904584  -0.238155   0.506084
H  -4.278178   0.950144  -0.840639
H  -3.685320   0.728398   0.802692
C  -1.361749   0.178533  -0.045068
H  -2.804856  -1.311610  -0.965219
H  -2.499300  -1.254366   0.798571
C  -0.170484  -0.701323   0.118088
H  -1.435484   0.842103   0.832500
H  -1.214768   0.766307  -0.898334
H  -0.025097  -1.384422   1.011681
H   0.824075   0.004522   0.120347
H  -0.177606  -1.293253  -0.665245
