butane_opt
 OpenBabel08242015393D

 14 13  0  0  0  0  0  0  0  0999 V2000
   -3.8850    0.2391   -0.0976 C   0  0  0  0  0  0  0  0  0  0  0  0
   -2.7269   -0.5763    0.1781 C   0  0  0  0  0  0  0  0  0  0  0  0
   -4.8127   -0.3888   -0.2932 H   0  0  0  0  0  0  0  0  0  0  0  0
   -3.6671    0.7184   -1.0029 H   0  0  0  0  0  0  0  0  0  0  0  0
   -4.0772    0.8901    0.7844 H   0  0  0  0  0  0  0  0  0  0  0  0
   -1.4455    0.2414    0.1522 C   0  0  0  0  0  0  0  0  0  0  0  0
   -2.5413   -1.2447   -0.5944 H   0  0  0  0  0  0  0  0  0  0  0  0
   -2.8294   -1.3115    1.0912 H   0  0  0  0  0  0  0  0  0  0  0  0
   -0.1465   -0.7317   -0.0898 C   0  0  0  0  0  0  0  0  0  0  0  0
   -1.4937    0.7699    0.9387 H   0  0  0  0  0  0  0  0  0  0  0  0
   -1.5075    0.8873   -0.7045 H   0  0  0  0  0  0  0  0  0  0  0  0
   -0.0409   -1.2268    0.7282 H   0  0  0  0  0  0  0  0  0  0  0  0
    0.7230   -0.1996   -0.2608 H   0  0  0  0  0  0  0  0  0  0  0  0
   -0.3124   -1.4302   -0.9704 H   0  0  0  0  0  0  0  0  0  0  0  0
  1  2  1  0  0  0  0
  1  5  1  0  0  0  0
  2  8  1  0  0  0  0
  3  1  1  0  0  0  0
  4  1  1  0  0  0  0
  6  2  1  0  0  0  0
  6 10  1  0  0  0  0
  7  2  1  0  0  0  0
  9  6  1  0  0  0  0
  9 12  1  0  0  0  0
 11  6  1  0  0  0  0
 13  9  1  0  0  0  0
 14  9  1  0  0  0  0
M  END
$$$$
