butane_opt
 OpenBabel08242015393D

 14 13  0  0  0  0  0  0  0  0999 V2000
   -3.9574    0.2872   -0.0963 C   0  0  0  0  0  0  0  0  0  0  0  0
   -2.7120   -0.6579    0.1609 C   0  0  0  0  0  0  0  0  0  0  0  0
   -4.7426   -0.2642   -0.3423 H   0  0  0  0  0  0  0  0  0  0  0  0
   -3.8229    0.6601   -0.7674 H   0  0  0  0  0  0  0  0  0  0  0  0
   -4.3578    1.1584    0.8852 H   0  0  0  0  0  0  0  0  0  0  0  0
   -1.4105    0.1679    0.0678 C   0  0  0  0  0  0  0  0  0  0  0  0
   -2.6566   -1.0186   -0.4674 H   0  0  0  0  0  0  0  0  0  0  0  0
   -2.7632   -1.4917    1.1795 H   0  0  0  0  0  0  0  0  0  0  0  0
   -0.1458   -0.6757   -0.0375 C   0  0  0  0  0  0  0  0  0  0  0  0
   -1.2061    0.9319    1.0551 H   0  0  0  0  0  0  0  0  0  0  0  0
   -1.4133    0.7097   -0.7779 H   0  0  0  0  0  0  0  0  0  0  0  0
    0.1083   -1.1033    0.7011 H   0  0  0  0  0  0  0  0  0  0  0  0
    0.7509   -0.0768   -0.1638 H   0  0  0  0  0  0  0  0  0  0  0  0
   -0.2305   -1.4353   -0.9866 H   0  0  0  0  0  0  0  0  0  0  0  0
  1  2  1  0  0  0  0
  1  5  1  0  0  0  0
  2  8  1  0  0  0  0
  3  1  1  0  0  0  0
  4  1  1  0  0  0  0
  6  2  1  0  0  0  0
  6 10  1  0  0  0  0
  7  2  1  0  0  0  0
  9  6  1  0  0  0  0
  9 12  1  0  0  0  0
 11  6  1  0  0  0  0
 13  9  1  0  0  0  0
 14  9  1  0  0  0  0
M  END
$$$$
