14
butane_opt
C  -3.924858   0.218309  -0.042988
C  -2.740587  -0.581231   0.159028
H  -4.790253  -0.373797  -0.425822
H  -3.718940   0.736614  -0.934946
H  -4.291321   1.092438   0.903285
C  -1.403143   0.233634   0.049030
H  -2.746112  -0.983651  -0.499857
H  -2.737997  -1.366286   1.055199
C  -0.129541  -0.726892  -0.053535
H  -1.418457   0.991253   0.984630
H  -1.386923   0.718497  -0.771564
H  -0.205389  -1.313111   0.772263
H   0.719385  -0.171076  -0.017218
H  -0.042033  -1.546246  -0.979979
