butane_opt
 OpenBabel08242015393D

 14 13  0  0  0  0  0  0  0  0999 V2000
   -3.9425    0.2795   -0.0121 C   0  0  0  0  0  0  0  0  0  0  0  0
   -2.6896   -0.6336    0.0654 C   0  0  0  0  0  0  0  0  0  0  0  0
   -4.8534   -0.3182    0.1066 H   0  0  0  0  0  0  0  0  0  0  0  0
   -4.0011    1.0202   -0.9777 H   0  0  0  0  0  0  0  0  0  0  0  0
   -3.9517    0.8055    0.7591 H   0  0  0  0  0  0  0  0  0  0  0  0
   -1.4099    0.1748    0.0486 C   0  0  0  0  0  0  0  0  0  0  0  0
   -2.7022   -1.3481   -0.7849 H   0  0  0  0  0  0  0  0  0  0  0  0
   -2.6678   -1.2461    0.9582 H   0  0  0  0  0  0  0  0  0  0  0  0
   -0.1752   -0.6812    0.0051 C   0  0  0  0  0  0  0  0  0  0  0  0
   -1.3487    0.8974    0.9531 H   0  0  0  0  0  0  0  0  0  0  0  0
   -1.3594    0.7841   -0.8440 H   0  0  0  0  0  0  0  0  0  0  0  0
   -0.1184   -1.2380    0.8551 H   0  0  0  0  0  0  0  0  0  0  0  0
    0.7591   -0.0925   -0.0036 H   0  0  0  0  0  0  0  0  0  0  0  0
   -0.1798   -1.4021   -0.8937 H   0  0  0  0  0  0  0  0  0  0  0  0
  1  2  1  0  0  0  0
  1  3  1  0  0  0  0
  1  5  1  0  0  0  0
  2  8  1  0  0  0  0
  4  1  1  0  0  0  0
  6  2  1  0  0  0  0
  6 10  1  0  0  0  0
  7  2  1  0  0  0  0
  9  6  1  0  0  0  0
  9 12  1  0  0  0  0
 11  6  1  0  0  0  0
 13  9  1  0  0  0  0
 14  9  1  0  0  0  0
M  END
$$$$
