14
butane_opt
C  -3.991738   0.265248  -0.075154
C  -2.676967  -0.666668   0.179445
H  -4.844306  -0.283886  -0.212429
H  -3.882778   0.935592  -1.030300
H  -4.051319   0.948771   0.785294
C  -1.379566   0.207922   0.068056
H  -2.641719  -1.110553  -0.537742
H  -2.699220  -1.329439   1.117812
C  -0.169745  -0.680605  -0.056242
H  -1.428372   0.890415   0.951347
H  -1.356150   0.853589  -0.764373
H  -0.104221  -1.015217   0.665093
H   0.740930  -0.168605   0.184746
H  -0.142918  -1.721795  -1.169808
