14
butane_opt
C  -3.927612   0.231860  -0.027901
C  -2.699739  -0.551695   0.086526
H  -4.868221  -0.392303  -0.190224
H  -3.811066   0.872042  -1.020043
H  -3.903064   0.818174   0.853173
C  -1.413916   0.174616   0.101054
H  -2.664648  -1.373090  -0.784581
H  -2.810069  -1.088800   0.962019
C  -0.158265  -0.711619  -0.041090
H  -1.464236   1.061306   1.047527
H  -1.573172   0.809677  -0.748572
H  -0.019905  -1.666861   1.067602
H   0.767990  -0.098827  -0.396603
H  -0.284511  -1.128273  -0.761220
