butane_opt
 OpenBabel08242015393D

 14 13  0  0  0  0  0  0  0  0999 V2000
   -3.9299    0.2663    0.0402 C   0  0  0  0  0  0  0  0  0  0  0  0
   -2.7053   -0.5876    0.0180 C   0  0  0  0  0  0  0  0  0  0  0  0
   -4.8523   -0.4061   -0.0912 H   0  0  0  0  0  0  0  0  0  0  0  0
   -3.8631    0.7712   -0.8049 H   0  0  0  0  0  0  0  0  0  0  0  0
   -3.9226    1.1500    1.0187 H   0  0  0  0  0  0  0  0  0  0  0  0
   -1.4213    0.1401   -0.0252 C   0  0  0  0  0  0  0  0  0  0  0  0
   -2.7710   -1.2727   -0.8670 H   0  0  0  0  0  0  0  0  0  0  0  0
   -2.6253   -1.2388    0.9709 H   0  0  0  0  0  0  0  0  0  0  0  0
   -0.1629   -0.6850    0.0280 C   0  0  0  0  0  0  0  0  0  0  0  0
   -1.3051    0.8430    0.9256 H   0  0  0  0  0  0  0  0  0  0  0  0
   -1.3180    0.7639   -0.8764 H   0  0  0  0  0  0  0  0  0  0  0  0
   -0.2740   -1.4381    1.0507 H   0  0  0  0  0  0  0  0  0  0  0  0
    0.6911   -0.1265    0.0146 H   0  0  0  0  0  0  0  0  0  0  0  0
   -0.1350   -1.1285   -0.6097 H   0  0  0  0  0  0  0  0  0  0  0  0
  1  5  1  0  0  0  0
  2  1  1  0  0  0  0
  2  8  1  0  0  0  0
  3  1  1  0  0  0  0
  4  1  1  0  0  0  0
  6  2  1  0  0  0  0
  6  9  1  0  0  0  0
  6 10  1  0  0  0  0
  7  2  1  0  0  0  0
  9 12  1  0  0  0  0
 11  6  1  0  0  0  0
 13  9  1  0  0  0  0
 14  9  1  0  0  0  0
M  END
$$$$
