14
butane_opt
C  -3.929332   0.251456   0.002946
C  -2.707262  -0.588505   0.050878
H  -4.865325  -0.367956  -0.011701
H  -3.934587   0.869078  -0.915234
H  -3.954234   0.951729   0.899081
C  -1.408209   0.186769   0.026827
H  -2.679081  -1.278523  -0.792703
H  -2.761771  -1.264609   0.978015
C  -0.165006  -0.706235   0.021262
H  -1.409307   0.897944   0.907639
H  -1.414391   0.780228  -0.853526
H  -0.082850  -1.336687   0.934080
H   0.770107  -0.082896  -0.098529
H  -0.171639  -1.356228  -0.829223
