butane_opt
 OpenBabel08242015393D

 14 13  0  0  0  0  0  0  0  0999 V2000
   -3.9467    0.2480    0.1088 C   0  0  0  0  0  0  0  0  0  0  0  0
   -2.6858   -0.5775   -0.1146 C   0  0  0  0  0  0  0  0  0  0  0  0
   -4.9625   -0.4335    0.5089 H   0  0  0  0  0  0  0  0  0  0  0  0
   -4.2606    0.9659   -0.8015 H   0  0  0  0  0  0  0  0  0  0  0  0
   -3.4868    0.9000    1.0236 H   0  0  0  0  0  0  0  0  0  0  0  0
   -1.3923    0.1793   -0.0736 C   0  0  0  0  0  0  0  0  0  0  0  0
   -2.7859   -1.3003   -1.0611 H   0  0  0  0  0  0  0  0  0  0  0  0
   -2.7738   -1.0307    0.6856 H   0  0  0  0  0  0  0  0  0  0  0  0
   -0.1854   -0.7209    0.1414 C   0  0  0  0  0  0  0  0  0  0  0  0
   -1.5496    0.8252    0.7365 H   0  0  0  0  0  0  0  0  0  0  0  0
   -1.2113    0.7654   -1.0093 H   0  0  0  0  0  0  0  0  0  0  0  0
   -0.1919   -1.4094    1.2261 H   0  0  0  0  0  0  0  0  0  0  0  0
    0.7430   -0.0941   -0.0394 H   0  0  0  0  0  0  0  0  0  0  0  0
   -0.0170   -1.2097   -0.5813 H   0  0  0  0  0  0  0  0  0  0  0  0
  1  3  1  0  0  0  0
  1  5  1  0  0  0  0
  2  6  1  0  0  0  0
  2  1  1  0  0  0  0
  2  8  1  0  0  0  0
  4  1  1  0  0  0  0
  6  9  1  0  0  0  0
  6 10  1  0  0  0  0
  7  2  1  0  0  0  0
  9 12  1  0  0  0  0
 11  6  1  0  0  0  0
 13  9  1  0  0  0  0
 14  9  1  0  0  0  0
M  END
$$$$
