butane_opt
 OpenBabel08242015393D

 14 13  0  0  0  0  0  0  0  0999 V2000
   -3.9195    0.2336    0.0476 C   0  0  0  0  0  0  0  0  0  0  0  0
   -2.7243   -0.6152   -0.0370 C   0  0  0  0  0  0  0  0  0  0  0  0
   -4.7725   -0.2589   -0.0990 H   0  0  0  0  0  0  0  0  0  0  0  0
   -3.9488    0.8147   -0.8049 H   0  0  0  0  0  0  0  0  0  0  0  0
   -3.8196    0.9610    0.9694 H   0  0  0  0  0  0  0  0  0  0  0  0
   -1.4222    0.2383    0.0310 C   0  0  0  0  0  0  0  0  0  0  0  0
   -2.7813   -1.1300   -0.8662 H   0  0  0  0  0  0  0  0  0  0  0  0
   -2.7536   -1.2538    0.8684 H   0  0  0  0  0  0  0  0  0  0  0  0
   -0.1530   -0.7413    0.0587 C   0  0  0  0  0  0  0  0  0  0  0  0
   -1.3198    1.0060    0.9543 H   0  0  0  0  0  0  0  0  0  0  0  0
   -1.4153    0.8415   -0.8664 H   0  0  0  0  0  0  0  0  0  0  0  0
    0.0289   -1.6640    1.0429 H   0  0  0  0  0  0  0  0  0  0  0  0
    0.7450   -0.1352   -0.3670 H   0  0  0  0  0  0  0  0  0  0  0  0
   -0.3478   -1.0377   -0.5592 H   0  0  0  0  0  0  0  0  0  0  0  0
  1  5  1  0  0  0  0
  2  6  1  0  0  0  0
  2  1  1  0  0  0  0
  2  8  1  0  0  0  0
  3  1  1  0  0  0  0
  4  1  1  0  0  0  0
  6  9  1  0  0  0  0
  6 10  1  0  0  0  0
  7  2  1  0  0  0  0
  9 12  1  0  0  0  0
 11  6  1  0  0  0  0
 13  9  1  0  0  0  0
 14  9  1  0  0  0  0
M  END
$$$$
