14
butane_opt
C  -3.938762   0.290731  -0.009906
C  -2.672620  -0.673041   0.096278
H  -4.769898  -0.164039   0.059687
H  -3.873377   1.079751  -1.048084
H  -3.988081   0.768969   0.789106
C  -1.414050   0.185273  -0.002030
H  -2.736381  -1.253153  -0.677660
H  -2.785391  -1.357042   1.062195
C  -0.174731  -0.665529  -0.004701
H  -1.467571   0.926554   0.970399
H  -1.460008   0.539757  -0.726647
H  -0.216021  -1.089515   0.777689
H   0.751160   0.004463   0.286729
H  -0.121537  -1.543149  -1.050207
