14
butane_opt
C  -3.937444   0.273164  -0.014009
C  -2.702676  -0.621513   0.078065
H  -4.833521  -0.325232  -0.084238
H  -3.923554   0.853690  -0.874499
H  -4.011410   1.001127   0.877490
C  -1.402785   0.162778   0.028946
H  -2.689682  -1.212804  -0.712747
H  -2.727047  -1.271969   1.018172
C  -0.170658  -0.688750   0.004524
H  -1.402430   0.875949   0.906293
H  -1.370045   0.773503  -0.847357
H  -0.101604  -1.261101   0.865067
H   0.781945  -0.029398   0.007599
H  -0.192247  -1.384356  -0.890320
