14
butane_opt
C  -3.962412   0.295636   0.118472
C  -2.675944  -0.669566  -0.111428
H  -4.896180  -0.211988   0.379414
H  -4.270717   1.048286  -0.877189
H  -3.848765   0.994421   0.949511
C  -1.345013   0.151414  -0.036896
H  -2.862291  -1.513089  -1.062558
H  -2.550127  -1.217628   0.650302
C  -0.215815  -0.658318   0.138045
H  -1.457319   0.711273   0.725584
H  -1.250514   0.962751  -1.038828
H  -0.131260  -1.423942   1.102266
H   0.703619  -0.019460  -0.082433
H  -0.088070  -1.209430  -0.611213
