butane_opt
 OpenBabel08242015393D

 14 13  0  0  0  0  0  0  0  0999 V2000
   -3.9824    0.2502   -0.1099 C   0  0  0  0  0  0  0  0  0  0  0  0
   -2.7228   -0.5811    0.1957 C   0  0  0  0  0  0  0  0  0  0  0  0
   -4.8926   -0.3188   -0.2262 H   0  0  0  0  0  0  0  0  0  0  0  0
   -3.7214    0.6538   -0.8762 H   0  0  0  0  0  0  0  0  0  0  0  0
   -4.1568    0.9402    0.7795 H   0  0  0  0  0  0  0  0  0  0  0  0
   -1.4149    0.1932    0.0865 C   0  0  0  0  0  0  0  0  0  0  0  0
   -2.6075   -1.1616   -0.5080 H   0  0  0  0  0  0  0  0  0  0  0  0
   -2.8413   -1.2747    1.2051 H   0  0  0  0  0  0  0  0  0  0  0  0
   -0.1242   -0.7027   -0.0904 C   0  0  0  0  0  0  0  0  0  0  0  0
   -1.2411    0.9963    1.0004 H   0  0  0  0  0  0  0  0  0  0  0  0
   -1.4429    0.6717   -0.6350 H   0  0  0  0  0  0  0  0  0  0  0  0
   -0.0120   -1.2720    0.7484 H   0  0  0  0  0  0  0  0  0  0  0  0
    0.7962   -0.2077   -0.0104 H   0  0  0  0  0  0  0  0  0  0  0  0
    0.0178   -1.4260   -1.0098 H   0  0  0  0  0  0  0  0  0  0  0  0
  1  2  1  0  0  0  0
  1  5  1  0  0  0  0
  2  8  1  0  0  0  0
  3  1  1  0  0  0  0
  4  1  1  0  0  0  0
  6  2  1  0  0  0  0
  6 10  1  0  0  0  0
  7  2  1  0  0  0  0
  9 13  1  0  0  0  0
  9  6  1  0  0  0  0
  9 12  1  0  0  0  0
 11  6  1  0  0  0  0
 14  9  1  0  0  0  0
M  END
$$$$
