butane_opt
 OpenBabel08242015393D

 14 13  0  0  0  0  0  0  0  0999 V2000
   -3.9213    0.2121    0.0638 C   0  0  0  0  0  0  0  0  0  0  0  0
   -2.6753   -0.5449   -0.0377 C   0  0  0  0  0  0  0  0  0  0  0  0
   -4.8064   -0.3940    0.1468 H   0  0  0  0  0  0  0  0  0  0  0  0
   -3.9574    0.6794   -0.6761 H   0  0  0  0  0  0  0  0  0  0  0  0
   -3.8014    0.9843    0.9536 H   0  0  0  0  0  0  0  0  0  0  0  0
   -1.4353    0.2020   -0.0151 C   0  0  0  0  0  0  0  0  0  0  0  0
   -2.7735   -1.4206   -0.9856 H   0  0  0  0  0  0  0  0  0  0  0  0
   -2.7818   -0.9594    0.7234 H   0  0  0  0  0  0  0  0  0  0  0  0
   -0.1522   -0.7237    0.0992 C   0  0  0  0  0  0  0  0  0  0  0  0
   -1.6294    0.8639    0.7684 H   0  0  0  0  0  0  0  0  0  0  0  0
   -1.4043    0.9031   -0.9928 H   0  0  0  0  0  0  0  0  0  0  0  0
   -0.1063   -1.6765    1.2099 H   0  0  0  0  0  0  0  0  0  0  0  0
    0.6888   -0.1298   -0.3446 H   0  0  0  0  0  0  0  0  0  0  0  0
   -0.2335   -1.0801   -0.6438 H   0  0  0  0  0  0  0  0  0  0  0  0
  1  3  1  0  0  0  0
  1  5  1  0  0  0  0
  2  6  1  0  0  0  0
  2  1  1  0  0  0  0
  2  8  1  0  0  0  0
  4  1  1  0  0  0  0
  6  9  1  0  0  0  0
  6 10  1  0  0  0  0
  7  2  1  0  0  0  0
  9 12  1  0  0  0  0
 11  6  1  0  0  0  0
 13  9  1  0  0  0  0
 14  9  1  0  0  0  0
M  END
$$$$
