14
butane_opt
C  -3.904070   0.242883  -0.064239
C  -2.722338  -0.599142   0.107176
H  -4.816599  -0.304880  -0.121345
H  -3.820025   0.886660  -1.046323
H  -4.063854   0.897955   0.800492
C  -1.432630   0.206103   0.133087
H  -2.714861  -1.191961  -0.686871
H  -2.829918  -1.181443   0.872327
C  -0.175985  -0.712512  -0.036992
H  -1.239111   0.878226   1.053230
H  -1.459582   0.804508  -0.740772
H   0.357129  -1.479451   0.911583
H   0.819876  -0.131583  -0.426527
H  -0.453295  -1.273841  -0.810756
