14
butane_opt
C  -4.007020   0.319076   0.091822
C  -2.694221  -0.681512  -0.016084
H  -4.820992  -0.267119  -0.274516
H  -3.826630   0.563495  -0.577240
H  -4.047922   1.264616   1.083287
C  -1.375368   0.150064  -0.077863
H  -2.751584  -1.303522  -0.827154
H  -2.714085  -1.201126   0.806839
C  -0.148249  -0.668185   0.090614
H  -1.363993   0.894698   0.796237
H  -1.256876   0.748539  -1.033453
H  -0.106969  -1.561941   1.159446
H   0.751265  -0.044629  -0.109154
H  -0.225166  -0.991137  -0.572444
