butane_opt
 OpenBabel08242015393D

 14 12  0  0  0  0  0  0  0  0999 V2000
   -3.9086    0.2189    0.0339 C   0  0  0  0  0  0  0  0  0  0  0  0
   -2.6833   -0.5549    0.0273 C   0  0  0  0  0  0  0  0  0  0  0  0
   -4.8534   -0.3899   -0.2506 H   0  0  0  0  0  0  0  0  0  0  0  0
   -3.7908    0.7211   -0.8197 H   0  0  0  0  0  0  0  0  0  0  0  0
   -3.8724    0.9238    1.0153 H   0  0  0  0  0  0  0  0  0  0  0  0
   -1.4141    0.2306    0.0168 C   0  0  0  0  0  0  0  0  0  0  0  0
   -2.7760   -1.3672   -0.8480 H   0  0  0  0  0  0  0  0  0  0  0  0
   -2.6763   -1.2151    0.8953 H   0  0  0  0  0  0  0  0  0  0  0  0
   -0.1989   -0.7164    0.0278 C   0  0  0  0  0  0  0  0  0  0  0  0
   -1.5586    1.0329    0.8904 H   0  0  0  0  0  0  0  0  0  0  0  0
   -1.4207    0.8145   -0.8868 H   0  0  0  0  0  0  0  0  0  0  0  0
   -0.0026   -1.7080    1.2080 H   0  0  0  0  0  0  0  0  0  0  0  0
    0.5917   -0.2167   -0.2981 H   0  0  0  0  0  0  0  0  0  0  0  0
   -0.2026   -1.2115   -0.7236 H   0  0  0  0  0  0  0  0  0  0  0  0
  1  5  1  0  0  0  0
  2  1  1  0  0  0  0
  2  8  1  0  0  0  0
  3  1  1  0  0  0  0
  4  1  1  0  0  0  0
  6  2  1  0  0  0  0
  6  9  1  0  0  0  0
  6 10  1  0  0  0  0
  7  2  1  0  0  0  0
 11  6  1  0  0  0  0
 13  9  1  0  0  0  0
 14  9  1  0  0  0  0
M  RAD  2   9   2  12   2
M  END
$$$$
