butane_opt
 OpenBabel08242015393D

 14 13  0  0  0  0  0  0  0  0999 V2000
   -3.9767    0.2167    0.1090 C   0  0  0  0  0  0  0  0  0  0  0  0
   -2.6973   -0.5926   -0.0297 C   0  0  0  0  0  0  0  0  0  0  0  0
   -4.8215   -0.2988   -0.3315 H   0  0  0  0  0  0  0  0  0  0  0  0
   -3.8749    0.5315   -0.5926 H   0  0  0  0  0  0  0  0  0  0  0  0
   -3.9637    1.1669    1.0701 H   0  0  0  0  0  0  0  0  0  0  0  0
   -1.4173    0.2490   -0.0805 C   0  0  0  0  0  0  0  0  0  0  0  0
   -2.8304   -1.2181   -0.8750 H   0  0  0  0  0  0  0  0  0  0  0  0
   -2.8220   -1.2956    0.9130 H   0  0  0  0  0  0  0  0  0  0  0  0
   -0.1106   -0.7379    0.1048 C   0  0  0  0  0  0  0  0  0  0  0  0
   -1.5760    0.9905    0.7695 H   0  0  0  0  0  0  0  0  0  0  0  0
   -1.3194    0.9557   -1.0873 H   0  0  0  0  0  0  0  0  0  0  0  0
   -0.0652   -1.4920    1.1065 H   0  0  0  0  0  0  0  0  0  0  0  0
    0.7447   -0.1983   -0.1202 H   0  0  0  0  0  0  0  0  0  0  0  0
   -0.0683   -1.2542   -0.6279 H   0  0  0  0  0  0  0  0  0  0  0  0
  1  5  1  0  0  0  0
  2  1  1  0  0  0  0
  2  8  1  0  0  0  0
  3  1  1  0  0  0  0
  4  1  1  0  0  0  0
  6  2  1  0  0  0  0
  6  9  1  0  0  0  0
  6 10  1  0  0  0  0
  7  2  1  0  0  0  0
  9 12  1  0  0  0  0
 11  6  1  0  0  0  0
 13  9  1  0  0  0  0
 14  9  1  0  0  0  0
M  END
$$$$
