butane_opt
 OpenBabel08242015393D

 14 13  0  0  0  0  0  0  0  0999 V2000
   -3.9680    0.3025   -0.0099 C   0  0  0  0  0  0  0  0  0  0  0  0
   -2.6452   -0.6341    0.1219 C   0  0  0  0  0  0  0  0  0  0  0  0
   -4.9574   -0.3604   -0.4793 H   0  0  0  0  0  0  0  0  0  0  0  0
   -3.7945    0.7111   -0.8153 H   0  0  0  0  0  0  0  0  0  0  0  0
   -4.2394    1.1690    0.8998 H   0  0  0  0  0  0  0  0  0  0  0  0
   -1.4012    0.1449    0.0143 C   0  0  0  0  0  0  0  0  0  0  0  0
   -2.6873   -1.2135   -0.6267 H   0  0  0  0  0  0  0  0  0  0  0  0
   -2.5065   -1.4713    1.0751 H   0  0  0  0  0  0  0  0  0  0  0  0
   -0.2013   -0.6672   -0.0184 C   0  0  0  0  0  0  0  0  0  0  0  0
   -1.2631    0.7689    0.8882 H   0  0  0  0  0  0  0  0  0  0  0  0
   -1.3412    0.7034   -0.7868 H   0  0  0  0  0  0  0  0  0  0  0  0
   -0.2538   -1.1936    0.8394 H   0  0  0  0  0  0  0  0  0  0  0  0
    0.8757   -0.0079    0.0674 H   0  0  0  0  0  0  0  0  0  0  0  0
   -0.2602   -1.3247   -0.9184 H   0  0  0  0  0  0  0  0  0  0  0  0
  1  2  1  0  0  0  0
  1  5  1  0  0  0  0
  2  8  1  0  0  0  0
  3  1  1  0  0  0  0
  4  1  1  0  0  0  0
  6  2  1  0  0  0  0
  6 10  1  0  0  0  0
  7  2  1  0  0  0  0
  9  6  1  0  0  0  0
  9 13  1  0  0  0  0
  9 12  1  0  0  0  0
 11  6  1  0  0  0  0
 14  9  1  0  0  0  0
M  END
$$$$
