14
butane_opt
C  -3.962879   0.217499   0.032033
C  -2.709434  -0.582135   0.053396
H  -4.825451  -0.339165  -0.098280
H  -3.870778   0.620634  -0.745109
H  -3.947924   1.083323   1.045524
C  -1.415109   0.224792  -0.075280
H  -2.871442  -1.147839  -0.733143
H  -2.804662  -1.285827   1.021132
C  -0.115779  -0.720343   0.053936
H  -1.584087   1.022114   0.846715
H  -1.322963   0.949686  -0.957126
H  -0.088754  -1.306807   0.814874
H   0.702575  -0.263403   0.313314
H   0.035119  -1.505388  -0.831136
