14
butane_opt
C  -3.928236   0.275198   0.042062
C  -2.697997  -0.643500  -0.009778
H  -4.727223  -0.147014   0.561791
H  -4.194606   1.144039  -1.012354
H  -3.900264   0.760998   0.802972
C  -1.392003   0.168147  -0.025068
H  -2.677007  -1.456313  -0.938797
H  -2.680663  -1.223901   0.815638
C  -0.203110  -0.676963   0.059758
H  -1.335921   1.037821   0.955220
H  -1.340085   0.649291  -0.926190
H  -0.346168  -1.320531   0.997823
H   0.853880  -0.003326   0.182022
H  -0.040608  -1.346449  -0.805499
