butane_opt
 OpenBabel08242015393D

 14 13  0  0  0  0  0  0  0  0999 V2000
   -3.9422    0.2571    0.0423 C   0  0  0  0  0  0  0  0  0  0  0  0
   -2.6982   -0.5920    0.0255 C   0  0  0  0  0  0  0  0  0  0  0  0
   -4.8716   -0.3709   -0.0660 H   0  0  0  0  0  0  0  0  0  0  0  0
   -3.8816    0.7254   -0.7736 H   0  0  0  0  0  0  0  0  0  0  0  0
   -3.9427    1.0359    0.9866 H   0  0  0  0  0  0  0  0  0  0  0  0
   -1.4152    0.1858   -0.0257 C   0  0  0  0  0  0  0  0  0  0  0  0
   -2.7457   -1.3302   -0.8717 H   0  0  0  0  0  0  0  0  0  0  0  0
   -2.7096   -1.2124    0.9013 H   0  0  0  0  0  0  0  0  0  0  0  0
   -0.1589   -0.6997    0.0615 C   0  0  0  0  0  0  0  0  0  0  0  0
   -1.3650    0.8038    0.7951 H   0  0  0  0  0  0  0  0  0  0  0  0
   -1.4270    0.8593   -0.9736 H   0  0  0  0  0  0  0  0  0  0  0  0
   -0.1405   -1.3550    0.9801 H   0  0  0  0  0  0  0  0  0  0  0  0
    0.7207   -0.1273   -0.0020 H   0  0  0  0  0  0  0  0  0  0  0  0
   -0.0874   -1.3153   -0.7570 H   0  0  0  0  0  0  0  0  0  0  0  0
  1  5  1  0  0  0  0
  2  1  1  0  0  0  0
  2  8  1  0  0  0  0
  3  1  1  0  0  0  0
  4  1  1  0  0  0  0
  6  2  1  0  0  0  0
  6  9  1  0  0  0  0
  6 10  1  0  0  0  0
  7  2  1  0  0  0  0
  9 12  1  0  0  0  0
 11  6  1  0  0  0  0
 13  9  1  0  0  0  0
 14  9  1  0  0  0  0
M  END
$$$$
