14
butane_opt
C  -3.913044   0.289486  -0.073905
C  -2.678305  -0.646321   0.181201
H  -4.860013  -0.302594  -0.516812
H  -3.683059   0.879183  -0.965994
H  -4.154063   1.021780   0.825512
C  -1.409441   0.138727   0.119348
H  -2.640079  -1.108918  -0.557928
H  -2.792769  -1.267043   1.135674
C  -0.198321  -0.656867  -0.060785
H  -1.284677   0.768185   0.898651
H  -1.393458   0.770785  -0.840684
H  -0.032898  -1.161222   0.676466
H   0.616417  -0.077337  -0.134446
H  -0.412486  -1.520367  -1.086958
