butane_opt
 OpenBabel08242015393D

 14 13  0  0  0  0  0  0  0  0999 V2000
   -3.9957    0.2898    0.0763 C   0  0  0  0  0  0  0  0  0  0  0  0
   -2.6980   -0.6336   -0.0024 C   0  0  0  0  0  0  0  0  0  0  0  0
   -4.9293   -0.2626    0.2902 H   0  0  0  0  0  0  0  0  0  0  0  0
   -4.2236    0.8667   -0.8005 H   0  0  0  0  0  0  0  0  0  0  0  0
   -3.9270    0.9705    0.8869 H   0  0  0  0  0  0  0  0  0  0  0  0
   -1.3719    0.1632   -0.0801 C   0  0  0  0  0  0  0  0  0  0  0  0
   -2.5656   -1.5417   -0.9506 H   0  0  0  0  0  0  0  0  0  0  0  0
   -2.6238   -1.2954    0.9080 H   0  0  0  0  0  0  0  0  0  0  0  0
   -0.1446   -0.6751    0.1050 C   0  0  0  0  0  0  0  0  0  0  0  0
   -1.4368    0.7197    0.6295 H   0  0  0  0  0  0  0  0  0  0  0  0
   -1.2546    0.9450   -1.0722 H   0  0  0  0  0  0  0  0  0  0  0  0
   -0.4051   -1.0173    0.7995 H   0  0  0  0  0  0  0  0  0  0  0  0
    0.7987   -0.0102    0.3734 H   0  0  0  0  0  0  0  0  0  0  0  0
    0.0755   -1.5732   -0.8325 H   0  0  0  0  0  0  0  0  0  0  0  0
  1  3  1  0  0  0  0
  1  5  1  0  0  0  0
  2  1  1  0  0  0  0
  2  8  1  0  0  0  0
  4  1  1  0  0  0  0
  6  2  1  0  0  0  0
  6  9  1  0  0  0  0
  6 10  1  0  0  0  0
  7  2  1  0  0  0  0
  9 13  1  0  0  0  0
  9 12  1  0  0  0  0
 11  6  1  0  0  0  0
 14  9  1  0  0  0  0
M  END
$$$$
