butane_opt
 OpenBabel08242015393D

 14 13  0  0  0  0  0  0  0  0999 V2000
   -3.9527    0.2952   -0.0726 C   0  0  0  0  0  0  0  0  0  0  0  0
   -2.6640   -0.6721    0.1668 C   0  0  0  0  0  0  0  0  0  0  0  0
   -4.8252   -0.2546   -0.3179 H   0  0  0  0  0  0  0  0  0  0  0  0
   -3.6985    0.9631   -1.0544 H   0  0  0  0  0  0  0  0  0  0  0  0
   -4.2449    1.0179    0.7792 H   0  0  0  0  0  0  0  0  0  0  0  0
   -1.3909    0.1332    0.1008 C   0  0  0  0  0  0  0  0  0  0  0  0
   -2.6203   -1.1552   -0.5585 H   0  0  0  0  0  0  0  0  0  0  0  0
   -2.7300   -1.2790    1.1123 H   0  0  0  0  0  0  0  0  0  0  0  0
   -0.1843   -0.6582   -0.0709 C   0  0  0  0  0  0  0  0  0  0  0  0
   -1.3932    0.9972    1.0750 H   0  0  0  0  0  0  0  0  0  0  0  0
   -1.5754    0.6038   -0.7141 H   0  0  0  0  0  0  0  0  0  0  0  0
   -0.1199   -1.2572    0.7753 H   0  0  0  0  0  0  0  0  0  0  0  0
    0.9108    0.0513   -0.1595 H   0  0  0  0  0  0  0  0  0  0  0  0
   -0.4473   -1.3196   -0.9807 H   0  0  0  0  0  0  0  0  0  0  0  0
  1  2  1  0  0  0  0
  1  5  1  0  0  0  0
  2  8  1  0  0  0  0
  3  1  1  0  0  0  0
  4  1  1  0  0  0  0
  6  2  1  0  0  0  0
  6 10  1  0  0  0  0
  7  2  1  0  0  0  0
  9  6  1  0  0  0  0
  9 12  1  0  0  0  0
 11  6  1  0  0  0  0
 13  9  1  0  0  0  0
 14  9  1  0  0  0  0
M  END
$$$$
