butane_opt
 OpenBabel08242015393D

 14 13  0  0  0  0  0  0  0  0999 V2000
   -3.9046    0.2171    0.0574 C   0  0  0  0  0  0  0  0  0  0  0  0
   -2.7000   -0.5847    0.0210 C   0  0  0  0  0  0  0  0  0  0  0  0
   -4.9535   -0.4201   -0.2467 H   0  0  0  0  0  0  0  0  0  0  0  0
   -3.6903    0.6059   -0.6549 H   0  0  0  0  0  0  0  0  0  0  0  0
   -3.9697    1.1823    1.1385 H   0  0  0  0  0  0  0  0  0  0  0  0
   -1.4376    0.2268   -0.0322 C   0  0  0  0  0  0  0  0  0  0  0  0
   -2.7077   -1.2112   -0.8076 H   0  0  0  0  0  0  0  0  0  0  0  0
   -2.6570   -1.1727    0.8992 H   0  0  0  0  0  0  0  0  0  0  0  0
   -0.1688   -0.7088    0.0728 C   0  0  0  0  0  0  0  0  0  0  0  0
   -1.6669    0.7482    0.6119 H   0  0  0  0  0  0  0  0  0  0  0  0
   -1.3035    0.9931   -1.0720 H   0  0  0  0  0  0  0  0  0  0  0  0
   -0.0989   -1.3416    0.9850 H   0  0  0  0  0  0  0  0  0  0  0  0
    0.5752   -0.3004   -0.0442 H   0  0  0  0  0  0  0  0  0  0  0  0
    0.0010   -1.4058   -0.7880 H   0  0  0  0  0  0  0  0  0  0  0  0
  1  5  1  0  0  0  0
  2  1  1  0  0  0  0
  2  8  1  0  0  0  0
  3  1  1  0  0  0  0
  4  1  1  0  0  0  0
  6  2  1  0  0  0  0
  6  9  1  0  0  0  0
  6 10  1  0  0  0  0
  7  2  1  0  0  0  0
  9 12  1  0  0  0  0
 11  6  1  0  0  0  0
 13  9  1  0  0  0  0
 14  9  1  0  0  0  0
M  END
$$$$
