14
butane_opt
C  -3.907924   0.276590   0.084270
C  -2.685820  -0.637838  -0.031787
H  -4.901717  -0.428538  -0.305342
H  -3.928512   0.592014  -0.554194
H  -4.042509   1.314482   1.127064
C  -1.438454   0.166832  -0.042903
H  -2.873187  -1.255676  -0.925604
H  -2.654254  -1.203157   0.862937
C  -0.153960  -0.688014   0.090960
H  -1.528268   0.717567   0.744498
H  -1.348280   1.101918  -1.105583
H  -0.046773  -1.546982   1.162955
H   0.869204  -0.010767  -0.117872
H  -0.334610  -1.184850  -0.608122
