butane_opt
 OpenBabel08242015393D

 14 11  0  0  0  0  0  0  0  0999 V2000
   -3.8964    0.2097   -0.0091 C   0  0  0  0  0  0  0  0  0  0  0  0
   -2.6957   -0.5454    0.0581 C   0  0  0  0  0  0  0  0  0  0  0  0
   -4.8740   -0.4316    0.3346 H   0  0  0  0  0  0  0  0  0  0  0  0
   -3.9103    1.2219   -1.2770 H   0  0  0  0  0  0  0  0  0  0  0  0
   -3.9496    0.4465    0.5053 H   0  0  0  0  0  0  0  0  0  0  0  0
   -1.4360    0.2346    0.1027 C   0  0  0  0  0  0  0  0  0  0  0  0
   -2.5747   -1.3355   -0.8193 H   0  0  0  0  0  0  0  0  0  0  0  0
   -2.7199   -1.2178    1.0199 H   0  0  0  0  0  0  0  0  0  0  0  0
   -0.1773   -0.7242   -0.0337 C   0  0  0  0  0  0  0  0  0  0  0  0
   -1.4059    1.0547    1.0055 H   0  0  0  0  0  0  0  0  0  0  0  0
   -1.4157    0.7382   -0.6534 H   0  0  0  0  0  0  0  0  0  0  0  0
   -0.0106   -1.2739    0.7592 H   0  0  0  0  0  0  0  0  0  0  0  0
    0.6303   -0.3125    0.0305 H   0  0  0  0  0  0  0  0  0  0  0  0
   -0.2702   -1.4714   -0.9155 H   0  0  0  0  0  0  0  0  0  0  0  0
  1  2  1  0  0  0  0
  1  3  1  0  0  0  0
  2  6  1  0  0  0  0
  2  8  1  0  0  0  0
  6 10  1  0  0  0  0
  7  2  1  0  0  0  0
  9 13  1  0  0  0  0
  9  6  1  0  0  0  0
  9 12  1  0  0  0  0
 11  6  1  0  0  0  0
 14  9  1  0  0  0  0
M  RAD  3   1   3   4   2   5   2
M  END
$$$$
