butane_opt
 OpenBabel08242015393D

 14 13  0  0  0  0  0  0  0  0999 V2000
   -3.9282    0.2752    0.0421 C   0  0  0  0  0  0  0  0  0  0  0  0
   -2.6980   -0.6435   -0.0098 C   0  0  0  0  0  0  0  0  0  0  0  0
   -4.7272   -0.1470    0.5618 H   0  0  0  0  0  0  0  0  0  0  0  0
   -4.1946    1.1440   -1.0124 H   0  0  0  0  0  0  0  0  0  0  0  0
   -3.9003    0.7610    0.8030 H   0  0  0  0  0  0  0  0  0  0  0  0
   -1.3920    0.1681   -0.0251 C   0  0  0  0  0  0  0  0  0  0  0  0
   -2.6770   -1.4563   -0.9388 H   0  0  0  0  0  0  0  0  0  0  0  0
   -2.6807   -1.2239    0.8156 H   0  0  0  0  0  0  0  0  0  0  0  0
   -0.2031   -0.6770    0.0598 C   0  0  0  0  0  0  0  0  0  0  0  0
   -1.3359    1.0378    0.9552 H   0  0  0  0  0  0  0  0  0  0  0  0
   -1.3401    0.6493   -0.9262 H   0  0  0  0  0  0  0  0  0  0  0  0
   -0.3462   -1.3205    0.9978 H   0  0  0  0  0  0  0  0  0  0  0  0
    0.8539   -0.0033    0.1820 H   0  0  0  0  0  0  0  0  0  0  0  0
   -0.0406   -1.3464   -0.8055 H   0  0  0  0  0  0  0  0  0  0  0  0
  1  3  1  0  0  0  0
  1  5  1  0  0  0  0
  2  1  1  0  0  0  0
  2  8  1  0  0  0  0
  4  1  1  0  0  0  0
  6  2  1  0  0  0  0
  6  9  1  0  0  0  0
  6 10  1  0  0  0  0
  7  2  1  0  0  0  0
  9 13  1  0  0  0  0
  9 12  1  0  0  0  0
 11  6  1  0  0  0  0
 14  9  1  0  0  0  0
M  END
$$$$
