butane_opt
 OpenBabel08242015393D

 14 13  0  0  0  0  0  0  0  0999 V2000
   -3.9372    0.2846   -0.0780 C   0  0  0  0  0  0  0  0  0  0  0  0
   -2.6965   -0.6065    0.0911 C   0  0  0  0  0  0  0  0  0  0  0  0
   -4.7940   -0.3115   -0.0400 H   0  0  0  0  0  0  0  0  0  0  0  0
   -4.0729    0.9134   -1.0026 H   0  0  0  0  0  0  0  0  0  0  0  0
   -3.9918    0.8019    0.6923 H   0  0  0  0  0  0  0  0  0  0  0  0
   -1.3825    0.1643    0.1535 C   0  0  0  0  0  0  0  0  0  0  0  0
   -2.4348   -1.2393   -0.6466 H   0  0  0  0  0  0  0  0  0  0  0  0
   -2.8933   -1.4351    1.0853 H   0  0  0  0  0  0  0  0  0  0  0  0
   -0.2074   -0.6845   -0.0769 C   0  0  0  0  0  0  0  0  0  0  0  0
   -1.2154    0.9963    1.1799 H   0  0  0  0  0  0  0  0  0  0  0  0
   -1.3385    0.7087   -0.6109 H   0  0  0  0  0  0  0  0  0  0  0  0
    0.0753   -1.4928    0.9542 H   0  0  0  0  0  0  0  0  0  0  0  0
    0.7335   -0.0951   -0.3913 H   0  0  0  0  0  0  0  0  0  0  0  0
   -0.4077   -1.1943   -0.8444 H   0  0  0  0  0  0  0  0  0  0  0  0
  1  3  1  0  0  0  0
  1  2  1  0  0  0  0
  1  5  1  0  0  0  0
  2  6  1  0  0  0  0
  2  8  1  0  0  0  0
  4  1  1  0  0  0  0
  6 10  1  0  0  0  0
  7  2  1  0  0  0  0
  9  6  1  0  0  0  0
  9 12  1  0  0  0  0
 11  6  1  0  0  0  0
 13  9  1  0  0  0  0
 14  9  1  0  0  0  0
M  END
$$$$
