butane_opt
 OpenBabel08242015393D

 14 13  0  0  0  0  0  0  0  0999 V2000
   -3.8823    0.2247    0.0619 C   0  0  0  0  0  0  0  0  0  0  0  0
   -2.6987   -0.5765   -0.0164 C   0  0  0  0  0  0  0  0  0  0  0  0
   -4.9671   -0.4774    0.1727 H   0  0  0  0  0  0  0  0  0  0  0  0
   -3.9902    0.8010   -0.8360 H   0  0  0  0  0  0  0  0  0  0  0  0
   -3.8585    0.8809    0.9417 H   0  0  0  0  0  0  0  0  0  0  0  0
   -1.4288    0.2445   -0.0406 C   0  0  0  0  0  0  0  0  0  0  0  0
   -2.7090   -1.3555   -0.9325 H   0  0  0  0  0  0  0  0  0  0  0  0
   -2.5419   -1.1731    0.8957 H   0  0  0  0  0  0  0  0  0  0  0  0
   -0.1923   -0.7442    0.1135 C   0  0  0  0  0  0  0  0  0  0  0  0
   -1.4667    0.8282    0.7206 H   0  0  0  0  0  0  0  0  0  0  0  0
   -1.4139    1.0615   -1.0571 H   0  0  0  0  0  0  0  0  0  0  0  0
   -0.0624   -1.1618    0.8486 H   0  0  0  0  0  0  0  0  0  0  0  0
    0.5929   -0.2462    0.0860 H   0  0  0  0  0  0  0  0  0  0  0  0
   -0.1260   -1.4599   -0.8282 H   0  0  0  0  0  0  0  0  0  0  0  0
  1  3  1  0  0  0  0
  1  5  1  0  0  0  0
  2  1  1  0  0  0  0
  2  8  1  0  0  0  0
  4  1  1  0  0  0  0
  6  2  1  0  0  0  0
  6  9  1  0  0  0  0
  6 10  1  0  0  0  0
  7  2  1  0  0  0  0
  9 12  1  0  0  0  0
 11  6  1  0  0  0  0
 13  9  1  0  0  0  0
 14  9  1  0  0  0  0
M  END
$$$$
