14
butane_opt
C  -3.977413   0.255810   0.120581
C  -2.709842  -0.618030  -0.097733
H  -4.986333  -0.420264   0.581750
H  -4.106675   1.057408  -0.886712
H  -3.728857   0.762295   0.887007
C  -1.405307   0.227696  -0.067696
H  -2.824756  -1.448830  -1.075413
H  -2.719241  -1.015717   0.701699
C  -0.124064  -0.708273   0.117812
H  -1.495820   0.806319   0.651744
H  -1.308287   0.800729  -0.952373
H  -0.165430  -1.454071   1.144037
H   0.713405  -0.177908   0.250048
H   0.193991  -1.276506  -0.730936
