butane_opt
 OpenBabel08242015393D

 14 12  0  0  0  0  0  0  0  0999 V2000
   -3.9374    0.2610    0.1019 C   0  0  0  0  0  0  0  0  0  0  0  0
   -2.7131   -0.6467   -0.0460 C   0  0  0  0  0  0  0  0  0  0  0  0
   -4.7900   -0.1999   -0.2333 H   0  0  0  0  0  0  0  0  0  0  0  0
   -4.1210    0.7844   -0.6640 H   0  0  0  0  0  0  0  0  0  0  0  0
   -4.1760    1.1046    1.0784 H   0  0  0  0  0  0  0  0  0  0  0  0
   -1.3854    0.1822   -0.0597 C   0  0  0  0  0  0  0  0  0  0  0  0
   -2.8118   -1.4394   -0.9839 H   0  0  0  0  0  0  0  0  0  0  0  0
   -2.4974   -1.0531    0.6380 H   0  0  0  0  0  0  0  0  0  0  0  0
   -0.1598   -0.6880    0.1192 C   0  0  0  0  0  0  0  0  0  0  0  0
   -1.3534    0.8584    0.8380 H   0  0  0  0  0  0  0  0  0  0  0  0
   -1.3762    0.8307   -0.9355 H   0  0  0  0  0  0  0  0  0  0  0  0
    0.0309   -1.6789    1.2898 H   0  0  0  0  0  0  0  0  0  0  0  0
    0.7625   -0.0879   -0.4257 H   0  0  0  0  0  0  0  0  0  0  0  0
   -0.3290   -0.8949   -0.5055 H   0  0  0  0  0  0  0  0  0  0  0  0
  1  5  1  0  0  0  0
  2  1  1  0  0  0  0
  2  8  1  0  0  0  0
  3  1  1  0  0  0  0
  4  1  1  0  0  0  0
  6  2  1  0  0  0  0
  6  9  1  0  0  0  0
  6 10  1  0  0  0  0
  7  2  1  0  0  0  0
 11  6  1  0  0  0  0
 13  9  1  0  0  0  0
 14  9  1  0  0  0  0
M  RAD  2   9   2  12   2
M  END
$$$$
