butane_opt
 OpenBabel08242015393D

 14 13  0  0  0  0  0  0  0  0999 V2000
   -3.9697    0.2808   -0.0740 C   0  0  0  0  0  0  0  0  0  0  0  0
   -2.6930   -0.6513    0.1370 C   0  0  0  0  0  0  0  0  0  0  0  0
   -4.7728   -0.1606   -0.1975 H   0  0  0  0  0  0  0  0  0  0  0  0
   -3.9369    0.7243   -0.9110 H   0  0  0  0  0  0  0  0  0  0  0  0
   -4.0387    1.1538    0.8547 H   0  0  0  0  0  0  0  0  0  0  0  0
   -1.3846    0.1958    0.0886 C   0  0  0  0  0  0  0  0  0  0  0  0
   -2.5788   -1.1952   -0.5686 H   0  0  0  0  0  0  0  0  0  0  0  0
   -2.8644   -1.4712    1.1456 H   0  0  0  0  0  0  0  0  0  0  0  0
   -0.1713   -0.6843   -0.0648 C   0  0  0  0  0  0  0  0  0  0  0  0
   -1.3006    0.7887    0.9237 H   0  0  0  0  0  0  0  0  0  0  0  0
   -1.3284    0.6859   -0.7075 H   0  0  0  0  0  0  0  0  0  0  0  0
   -0.0752   -1.2591    0.8324 H   0  0  0  0  0  0  0  0  0  0  0  0
    0.7738   -0.1030    0.0253 H   0  0  0  0  0  0  0  0  0  0  0  0
   -0.2931   -1.3037   -0.9716 H   0  0  0  0  0  0  0  0  0  0  0  0
  1  2  1  0  0  0  0
  1  5  1  0  0  0  0
  2  8  1  0  0  0  0
  3  1  1  0  0  0  0
  4  1  1  0  0  0  0
  6  2  1  0  0  0  0
  6 10  1  0  0  0  0
  7  2  1  0  0  0  0
  9 13  1  0  0  0  0
  9  6  1  0  0  0  0
  9 12  1  0  0  0  0
 11  6  1  0  0  0  0
 14  9  1  0  0  0  0
M  END
$$$$
