14
butane_opt
C  -3.973352   0.289376  -0.010311
C  -2.694020  -0.675059   0.038130
H  -4.779277  -0.162394   0.275682
H  -4.177793   1.285322  -1.223954
H  -3.871221   0.665284   0.594667
C  -1.378780   0.148055   0.106992
H  -2.685248  -1.398826  -0.804577
H  -2.706637  -1.236200   0.912878
C  -0.157186  -0.654152   0.008407
H  -1.393690   0.859398   0.922406
H  -1.480322   0.770094  -0.733575
H   0.100182  -1.104585   0.808444
H   0.694320  -0.102082  -0.138236
H  -0.308087  -1.323916  -0.938478
