14
butane_opt
C  -3.884138   0.230899  -0.109288
C  -2.705925  -0.536599   0.192198
H  -4.932236  -0.494161  -0.342049
H  -3.728415   0.722603  -0.949414
H  -4.141467   0.942488   0.790717
C  -1.429852   0.197678   0.132536
H  -2.856944  -1.062754  -0.677150
H  -2.828971  -1.288781   1.197456
C  -0.156979  -0.724527  -0.067757
H  -1.388159   0.881023   0.991386
H  -1.546297   0.810590  -0.742093
H   0.005307  -1.315898   0.731321
H   0.818047  -0.149650  -0.245996
H  -0.277524  -1.550326  -1.100497
