14
butane_opt
C  -3.943388   0.298297   0.150073
C  -2.675913  -0.637304  -0.116110
H  -4.915652  -0.287480   0.497578
H  -4.193246   1.214384  -0.921647
H  -3.750036   0.839149   0.948247
C  -1.389730   0.105922  -0.085047
H  -2.719683  -1.544478  -1.134031
H  -2.741710  -1.060456   0.642329
C  -0.208626  -0.660440   0.135461
H  -1.341643   0.734391   0.688825
H  -1.249568   0.872916  -1.005468
H  -0.280914  -1.377096   1.096344
H   0.796458   0.007690   0.288617
H  -0.031164  -1.133775  -0.655768
