butane_opt
 OpenBabel08242015393D

 14 13  0  0  0  0  0  0  0  0999 V2000
   -3.9414    0.2937   -0.0364 C   0  0  0  0  0  0  0  0  0  0  0  0
   -2.6756   -0.6574    0.0682 C   0  0  0  0  0  0  0  0  0  0  0  0
   -4.8463   -0.2808    0.0207 H   0  0  0  0  0  0  0  0  0  0  0  0
   -3.8288    0.8958   -0.8622 H   0  0  0  0  0  0  0  0  0  0  0  0
   -4.1173    1.0178    0.8098 H   0  0  0  0  0  0  0  0  0  0  0  0
   -1.3874    0.1485    0.0752 C   0  0  0  0  0  0  0  0  0  0  0  0
   -2.7052   -1.3877   -0.7428 H   0  0  0  0  0  0  0  0  0  0  0  0
   -2.6766   -1.1665    0.8830 H   0  0  0  0  0  0  0  0  0  0  0  0
   -0.1967   -0.6551   -0.0141 C   0  0  0  0  0  0  0  0  0  0  0  0
   -1.3703    0.9980    1.0001 H   0  0  0  0  0  0  0  0  0  0  0  0
   -1.3211    0.6029   -0.6884 H   0  0  0  0  0  0  0  0  0  0  0  0
    0.0240   -1.5394    1.0713 H   0  0  0  0  0  0  0  0  0  0  0  0
    0.6068   -0.1746   -0.4563 H   0  0  0  0  0  0  0  0  0  0  0  0
   -0.3807   -0.9956   -0.6789 H   0  0  0  0  0  0  0  0  0  0  0  0
  1  3  1  0  0  0  0
  1  2  1  0  0  0  0
  1  5  1  0  0  0  0
  2  6  1  0  0  0  0
  2  8  1  0  0  0  0
  4  1  1  0  0  0  0
  6 10  1  0  0  0  0
  7  2  1  0  0  0  0
  9  6  1  0  0  0  0
  9 12  1  0  0  0  0
 11  6  1  0  0  0  0
 13  9  1  0  0  0  0
 14  9  1  0  0  0  0
M  END
$$$$
