butane_opt
 OpenBabel08242015393D

 14 13  0  0  0  0  0  0  0  0999 V2000
   -3.9232    0.2969    0.0788 C   0  0  0  0  0  0  0  0  0  0  0  0
   -2.6633   -0.6230   -0.0699 C   0  0  0  0  0  0  0  0  0  0  0  0
   -4.8049   -0.3053    0.5128 H   0  0  0  0  0  0  0  0  0  0  0  0
   -4.2830    1.1865   -0.9987 H   0  0  0  0  0  0  0  0  0  0  0  0
   -3.8882    0.6666    0.7607 H   0  0  0  0  0  0  0  0  0  0  0  0
   -1.3900    0.1151    0.0069 C   0  0  0  0  0  0  0  0  0  0  0  0
   -2.7679   -1.4473   -1.0117 H   0  0  0  0  0  0  0  0  0  0  0  0
   -2.6282   -1.2076    0.7747 H   0  0  0  0  0  0  0  0  0  0  0  0
   -0.1952   -0.6522    0.0832 C   0  0  0  0  0  0  0  0  0  0  0  0
   -1.6534    0.8040    0.8323 H   0  0  0  0  0  0  0  0  0  0  0  0
   -1.2037    0.8731   -0.9000 H   0  0  0  0  0  0  0  0  0  0  0  0
   -0.3286   -1.3448    1.0311 H   0  0  0  0  0  0  0  0  0  0  0  0
    0.8437    0.1189   -0.0180 H   0  0  0  0  0  0  0  0  0  0  0  0
   -0.2544   -1.4304   -0.7908 H   0  0  0  0  0  0  0  0  0  0  0  0
  1  3  1  0  0  0  0
  1  5  1  0  0  0  0
  2  6  1  0  0  0  0
  2  1  1  0  0  0  0
  2  8  1  0  0  0  0
  4  1  1  0  0  0  0
  6  9  1  0  0  0  0
  6 10  1  0  0  0  0
  7  2  1  0  0  0  0
  9 12  1  0  0  0  0
 11  6  1  0  0  0  0
 13  9  1  0  0  0  0
 14  9  1  0  0  0  0
M  END
$$$$
