butane_opt
 OpenBabel08242015393D

 14 13  0  0  0  0  0  0  0  0999 V2000
   -3.9420    0.2591    0.1222 C   0  0  0  0  0  0  0  0  0  0  0  0
   -2.6724   -0.5869   -0.1171 C   0  0  0  0  0  0  0  0  0  0  0  0
   -4.9043   -0.4617    0.4068 H   0  0  0  0  0  0  0  0  0  0  0  0
   -4.1243    1.0493   -0.9036 H   0  0  0  0  0  0  0  0  0  0  0  0
   -3.5318    0.7245    0.9059 H   0  0  0  0  0  0  0  0  0  0  0  0
   -1.4387    0.1995   -0.0623 C   0  0  0  0  0  0  0  0  0  0  0  0
   -2.8225   -1.3769   -0.9413 H   0  0  0  0  0  0  0  0  0  0  0  0
   -2.6451   -1.1861    0.7653 H   0  0  0  0  0  0  0  0  0  0  0  0
   -0.1531   -0.6953    0.1307 C   0  0  0  0  0  0  0  0  0  0  0  0
   -1.5602    0.7304    0.6891 H   0  0  0  0  0  0  0  0  0  0  0  0
   -1.3656    0.7974   -0.9232 H   0  0  0  0  0  0  0  0  0  0  0  0
   -0.2133   -1.3330    1.0598 H   0  0  0  0  0  0  0  0  0  0  0  0
    0.7206   -0.0884    0.1450 H   0  0  0  0  0  0  0  0  0  0  0  0
   -0.1111   -1.4188   -0.6853 H   0  0  0  0  0  0  0  0  0  0  0  0
  1  3  1  0  0  0  0
  1  5  1  0  0  0  0
  2  6  1  0  0  0  0
  2  1  1  0  0  0  0
  2  8  1  0  0  0  0
  4  1  1  0  0  0  0
  6  9  1  0  0  0  0
  6 10  1  0  0  0  0
  7  2  1  0  0  0  0
  9 13  1  0  0  0  0
  9 12  1  0  0  0  0
 11  6  1  0  0  0  0
 14  9  1  0  0  0  0
M  END
$$$$
