14
butane_opt
C  -3.940219   0.298262  -0.004338
C  -2.709063  -0.617537   0.112795
H  -4.815220  -0.270047  -0.475389
H  -3.590224   0.688996  -0.819106
H  -4.212577   1.166928   0.961694
C  -1.391654   0.110741   0.013089
H  -2.541392  -1.157363  -0.587076
H  -2.663951  -1.367574   1.097976
C  -0.201677  -0.656712  -0.021716
H  -1.299507   0.840424   0.855406
H  -1.362515   0.614728  -0.800280
H  -0.118918  -1.321748   0.901488
H   0.747941   0.088126   0.018428
H  -0.286605  -1.362739  -0.878135
