butane_opt
 OpenBabel08242015393D

 14 13  0  0  0  0  0  0  0  0999 V2000
   -3.9360    0.2550    0.0410 C   0  0  0  0  0  0  0  0  0  0  0  0
   -2.7170   -0.6000    0.0212 C   0  0  0  0  0  0  0  0  0  0  0  0
   -4.8722   -0.3681   -0.0803 H   0  0  0  0  0  0  0  0  0  0  0  0
   -3.9889    0.7457   -0.7783 H   0  0  0  0  0  0  0  0  0  0  0  0
   -3.9611    1.0787    1.0078 H   0  0  0  0  0  0  0  0  0  0  0  0
   -1.4106    0.1922   -0.0295 C   0  0  0  0  0  0  0  0  0  0  0  0
   -2.7326   -1.2699   -0.8157 H   0  0  0  0  0  0  0  0  0  0  0  0
   -2.7585   -1.2441    0.9471 H   0  0  0  0  0  0  0  0  0  0  0  0
   -0.1431   -0.7087    0.0589 C   0  0  0  0  0  0  0  0  0  0  0  0
   -1.3850    0.8467    0.7878 H   0  0  0  0  0  0  0  0  0  0  0  0
   -1.3640    0.8492   -0.9407 H   0  0  0  0  0  0  0  0  0  0  0  0
   -0.1286   -1.3421    0.9785 H   0  0  0  0  0  0  0  0  0  0  0  0
    0.7575   -0.1196    0.0406 H   0  0  0  0  0  0  0  0  0  0  0  0
   -0.0985   -1.3218   -0.7888 H   0  0  0  0  0  0  0  0  0  0  0  0
  1  5  1  0  0  0  0
  2  1  1  0  0  0  0
  2  8  1  0  0  0  0
  3  1  1  0  0  0  0
  4  1  1  0  0  0  0
  6  2  1  0  0  0  0
  6  9  1  0  0  0  0
  6 10  1  0  0  0  0
  7  2  1  0  0  0  0
  9 12  1  0  0  0  0
 11  6  1  0  0  0  0
 13  9  1  0  0  0  0
 14  9  1  0  0  0  0
M  END
$$$$
