butane_opt
 OpenBabel08242015393D

 14 13  0  0  0  0  0  0  0  0999 V2000
   -3.9779    0.2842    0.1102 C   0  0  0  0  0  0  0  0  0  0  0  0
   -2.7052   -0.6605   -0.0374 C   0  0  0  0  0  0  0  0  0  0  0  0
   -4.9141   -0.2367    0.1562 H   0  0  0  0  0  0  0  0  0  0  0  0
   -4.1913    0.8386   -0.7557 H   0  0  0  0  0  0  0  0  0  0  0  0
   -3.8560    1.0892    1.0855 H   0  0  0  0  0  0  0  0  0  0  0  0
   -1.3520    0.1659   -0.1230 C   0  0  0  0  0  0  0  0  0  0  0  0
   -2.6183   -1.1896   -0.8645 H   0  0  0  0  0  0  0  0  0  0  0  0
   -2.7975   -1.3272    0.8703 H   0  0  0  0  0  0  0  0  0  0  0  0
   -0.1392   -0.6799    0.1107 C   0  0  0  0  0  0  0  0  0  0  0  0
   -1.4773    0.8072    0.6769 H   0  0  0  0  0  0  0  0  0  0  0  0
   -1.3430    0.9521   -1.1226 H   0  0  0  0  0  0  0  0  0  0  0  0
   -0.4962   -1.1266    0.9387 H   0  0  0  0  0  0  0  0  0  0  0  0
    0.7926   -0.0718    0.5906 H   0  0  0  0  0  0  0  0  0  0  0  0
   -0.0188   -1.5479   -0.8514 H   0  0  0  0  0  0  0  0  0  0  0  0
  1  3  1  0  0  0  0
  1  5  1  0  0  0  0
  2  1  1  0  0  0  0
  2  8  1  0  0  0  0
  4  1  1  0  0  0  0
  6  2  1  0  0  0  0
  6  9  1  0  0  0  0
  6 10  1  0  0  0  0
  7  2  1  0  0  0  0
  9 13  1  0  0  0  0
  9 12  1  0  0  0  0
 11  6  1  0  0  0  0
 14  9  1  0  0  0  0
M  END
$$$$
