butane_opt
 OpenBabel08242015393D

 14 12  0  0  0  0  0  0  0  0999 V2000
   -3.9545    0.2220    0.0601 C   0  0  0  0  0  0  0  0  0  0  0  0
   -2.7430   -0.5976    0.0031 C   0  0  0  0  0  0  0  0  0  0  0  0
   -4.8309   -0.3370    0.0316 H   0  0  0  0  0  0  0  0  0  0  0  0
   -4.0869    0.8144   -0.8342 H   0  0  0  0  0  0  0  0  0  0  0  0
   -3.8986    0.9251    0.9697 H   0  0  0  0  0  0  0  0  0  0  0  0
   -1.4160    0.2585   -0.0213 C   0  0  0  0  0  0  0  0  0  0  0  0
   -2.8127   -1.4418   -1.1019 H   0  0  0  0  0  0  0  0  0  0  0  0
   -2.6209   -1.0482    0.7588 H   0  0  0  0  0  0  0  0  0  0  0  0
   -0.0934   -0.7302    0.0758 C   0  0  0  0  0  0  0  0  0  0  0  0
   -1.3581    0.9391    0.8158 H   0  0  0  0  0  0  0  0  0  0  0  0
   -1.4456    0.9116   -0.9432 H   0  0  0  0  0  0  0  0  0  0  0  0
   -0.0629   -1.7141    1.2378 H   0  0  0  0  0  0  0  0  0  0  0  0
    0.7586   -0.1586   -0.1386 H   0  0  0  0  0  0  0  0  0  0  0  0
   -0.1559   -1.2142   -0.7332 H   0  0  0  0  0  0  0  0  0  0  0  0
  1  5  1  0  0  0  0
  2  1  1  0  0  0  0
  2  8  1  0  0  0  0
  3  1  1  0  0  0  0
  4  1  1  0  0  0  0
  6  2  1  0  0  0  0
  6  9  1  0  0  0  0
  6 10  1  0  0  0  0
  7  2  1  0  0  0  0
 11  6  1  0  0  0  0
 13  9  1  0  0  0  0
 14  9  1  0  0  0  0
M  RAD  2   9   2  12   2
M  END
$$$$
