14
butane_opt
C  -3.902320   0.208045  -0.067189
C  -2.692690  -0.534953   0.177177
H  -4.840961  -0.425298  -0.462624
H  -3.685781   0.640699  -0.851327
H  -4.133213   1.066911   0.886748
C  -1.437104   0.214092   0.066383
H  -2.652074  -1.150865  -0.568041
H  -2.951356  -1.193590   1.084039
C  -0.166677  -0.731823  -0.030115
H  -1.471867   0.762891   0.868665
H  -1.518900   0.908613  -0.788028
H   0.048831  -1.219232   0.713902
H   0.825674  -0.099202  -0.201737
H  -0.251382  -1.631121  -1.002246
