butane_opt
 OpenBabel08242015393D

 14 13  0  0  0  0  0  0  0  0999 V2000
   -3.9740    0.2362   -0.0745 C   0  0  0  0  0  0  0  0  0  0  0  0
   -2.6935   -0.6048    0.1167 C   0  0  0  0  0  0  0  0  0  0  0  0
   -4.8076   -0.3544   -0.1168 H   0  0  0  0  0  0  0  0  0  0  0  0
   -4.0058    0.8539   -1.0229 H   0  0  0  0  0  0  0  0  0  0  0  0
   -3.9608    0.9318    0.7431 H   0  0  0  0  0  0  0  0  0  0  0  0
   -1.4200    0.2282    0.1169 C   0  0  0  0  0  0  0  0  0  0  0  0
   -2.6083   -1.2623   -0.7359 H   0  0  0  0  0  0  0  0  0  0  0  0
   -2.7803   -1.2840    1.0372 H   0  0  0  0  0  0  0  0  0  0  0  0
   -0.1640   -0.6997   -0.0527 C   0  0  0  0  0  0  0  0  0  0  0  0
   -1.1412    1.0396    1.0960 H   0  0  0  0  0  0  0  0  0  0  0  0
   -1.4834    0.7283   -0.5642 H   0  0  0  0  0  0  0  0  0  0  0  0
    0.2584   -1.6356    1.0007 H   0  0  0  0  0  0  0  0  0  0  0  0
    0.7384   -0.1568   -0.3940 H   0  0  0  0  0  0  0  0  0  0  0  0
   -0.2181   -1.2440   -0.8533 H   0  0  0  0  0  0  0  0  0  0  0  0
  1  2  1  0  0  0  0
  1  5  1  0  0  0  0
  2  6  1  0  0  0  0
  2  8  1  0  0  0  0
  3  1  1  0  0  0  0
  4  1  1  0  0  0  0
  6 10  1  0  0  0  0
  7  2  1  0  0  0  0
  9  6  1  0  0  0  0
  9 12  1  0  0  0  0
 11  6  1  0  0  0  0
 13  9  1  0  0  0  0
 14  9  1  0  0  0  0
M  END
$$$$
