butane_opt
 OpenBabel08242015393D

 14 13  0  0  0  0  0  0  0  0999 V2000
   -3.9159    0.3107   -0.0239 C   0  0  0  0  0  0  0  0  0  0  0  0
   -2.6686   -0.6375    0.0953 C   0  0  0  0  0  0  0  0  0  0  0  0
   -4.8179   -0.2699   -0.0761 H   0  0  0  0  0  0  0  0  0  0  0  0
   -3.9763    0.7375   -0.8177 H   0  0  0  0  0  0  0  0  0  0  0  0
   -4.0602    0.9708    0.7543 H   0  0  0  0  0  0  0  0  0  0  0  0
   -1.3968    0.1415    0.0497 C   0  0  0  0  0  0  0  0  0  0  0  0
   -2.7592   -1.4078   -0.8420 H   0  0  0  0  0  0  0  0  0  0  0  0
   -2.6713   -1.1341    0.8831 H   0  0  0  0  0  0  0  0  0  0  0  0
   -0.1992   -0.6816    0.0041 C   0  0  0  0  0  0  0  0  0  0  0  0
   -1.2958    0.7693    0.9588 H   0  0  0  0  0  0  0  0  0  0  0  0
   -1.4857    0.7287   -0.8115 H   0  0  0  0  0  0  0  0  0  0  0  0
   -0.3087   -1.3975    0.9488 H   0  0  0  0  0  0  0  0  0  0  0  0
    0.8078    0.1072   -0.2777 H   0  0  0  0  0  0  0  0  0  0  0  0
   -0.3032   -1.1570   -0.7714 H   0  0  0  0  0  0  0  0  0  0  0  0
  1  2  1  0  0  0  0
  1  5  1  0  0  0  0
  2  8  1  0  0  0  0
  3  1  1  0  0  0  0
  4  1  1  0  0  0  0
  6  2  1  0  0  0  0
  6 10  1  0  0  0  0
  7  2  1  0  0  0  0
  9  6  1  0  0  0  0
  9 12  1  0  0  0  0
 11  6  1  0  0  0  0
 13  9  1  0  0  0  0
 14  9  1  0  0  0  0
M  END
$$$$
