butane_opt
 OpenBabel08242015393D

 14 13  0  0  0  0  0  0  0  0999 V2000
   -3.9987    0.2867    0.0992 C   0  0  0  0  0  0  0  0  0  0  0  0
   -2.6906   -0.6519   -0.0224 C   0  0  0  0  0  0  0  0  0  0  0  0
   -4.7926   -0.2236    0.2276 H   0  0  0  0  0  0  0  0  0  0  0  0
   -4.1180    0.9128   -0.7957 H   0  0  0  0  0  0  0  0  0  0  0  0
   -4.0404    1.0871    0.9475 H   0  0  0  0  0  0  0  0  0  0  0  0
   -1.3671    0.1305   -0.1171 C   0  0  0  0  0  0  0  0  0  0  0  0
   -2.8428   -1.1756   -0.7939 H   0  0  0  0  0  0  0  0  0  0  0  0
   -2.6270   -1.2356    0.8259 H   0  0  0  0  0  0  0  0  0  0  0  0
   -0.1468   -0.6566    0.0943 C   0  0  0  0  0  0  0  0  0  0  0  0
   -1.3958    0.7899    0.7399 H   0  0  0  0  0  0  0  0  0  0  0  0
   -1.1460    0.7901   -0.9643 H   0  0  0  0  0  0  0  0  0  0  0  0
   -0.5821   -1.1517    0.9278 H   0  0  0  0  0  0  0  0  0  0  0  0
    0.8562   -0.0514    0.4975 H   0  0  0  0  0  0  0  0  0  0  0  0
    0.1019   -1.5206   -0.8450 H   0  0  0  0  0  0  0  0  0  0  0  0
  1  3  1  0  0  0  0
  1  5  1  0  0  0  0
  2  1  1  0  0  0  0
  2  8  1  0  0  0  0
  4  1  1  0  0  0  0
  6  2  1  0  0  0  0
  6  9  1  0  0  0  0
  6 10  1  0  0  0  0
  7  2  1  0  0  0  0
  9 13  1  0  0  0  0
  9 12  1  0  0  0  0
 11  6  1  0  0  0  0
 14  9  1  0  0  0  0
M  END
$$$$
