butane_opt
 OpenBabel08242015393D

 14 13  0  0  0  0  0  0  0  0999 V2000
   -3.9567    0.2382    0.0623 C   0  0  0  0  0  0  0  0  0  0  0  0
   -2.7063   -0.6155   -0.0906 C   0  0  0  0  0  0  0  0  0  0  0  0
   -4.7696   -0.3059    0.6836 H   0  0  0  0  0  0  0  0  0  0  0  0
   -4.3060    1.0614   -0.8707 H   0  0  0  0  0  0  0  0  0  0  0  0
   -3.7440    0.6113    0.8371 H   0  0  0  0  0  0  0  0  0  0  0  0
   -1.4310    0.2188   -0.0155 C   0  0  0  0  0  0  0  0  0  0  0  0
   -2.6744   -1.1940   -0.8960 H   0  0  0  0  0  0  0  0  0  0  0  0
   -2.8601   -1.1797    0.7392 H   0  0  0  0  0  0  0  0  0  0  0  0
   -0.1284   -0.7137    0.0866 C   0  0  0  0  0  0  0  0  0  0  0  0
   -1.4045    0.9812    0.8457 H   0  0  0  0  0  0  0  0  0  0  0  0
   -1.3186    0.8588   -0.8421 H   0  0  0  0  0  0  0  0  0  0  0  0
   -0.0546   -1.3471    0.9952 H   0  0  0  0  0  0  0  0  0  0  0  0
    0.6868   -0.1908    0.1383 H   0  0  0  0  0  0  0  0  0  0  0  0
    0.0931   -1.3079   -0.7041 H   0  0  0  0  0  0  0  0  0  0  0  0
  1  3  1  0  0  0  0
  1  5  1  0  0  0  0
  2  6  1  0  0  0  0
  2  1  1  0  0  0  0
  2  8  1  0  0  0  0
  4  1  1  0  0  0  0
  6  9  1  0  0  0  0
  6 10  1  0  0  0  0
  7  2  1  0  0  0  0
  9 13  1  0  0  0  0
  9 12  1  0  0  0  0
 11  6  1  0  0  0  0
 14  9  1  0  0  0  0
M  END
$$$$
