14
butane_opt
C  -3.915907   0.310697  -0.023937
C  -2.668612  -0.637494   0.095327
H  -4.817898  -0.269862  -0.076114
H  -3.976253   0.737503  -0.817737
H  -4.060178   0.970785   0.754343
C  -1.396820   0.141518   0.049724
H  -2.759159  -1.407822  -0.841983
H  -2.671329  -1.134110   0.883115
C  -0.199189  -0.681599   0.004105
H  -1.295826   0.769334   0.958799
H  -1.485674   0.728725  -0.811499
H  -0.308709  -1.397510   0.948752
H   0.807813   0.107190  -0.277744
H  -0.303170  -1.157050  -0.771365
