14
butane_opt
C  -3.915875   0.228421   0.122125
C  -2.706915  -0.599121  -0.022295
H  -4.821764  -0.413536  -0.072157
H  -3.961349   0.690360  -0.609770
H  -3.822294   1.091973   1.126875
C  -1.419063   0.256090  -0.163228
H  -2.689648  -1.267568  -0.962154
H  -2.613839  -1.180560   0.845474
C  -0.187015  -0.736304   0.122576
H  -1.478217   0.838067   0.631023
H  -1.379436   0.840365  -0.982304
H  -0.343330  -1.329108   1.098651
H   0.672513  -0.108988   0.353659
H   0.179631  -1.448133  -0.692822
