butane_opt
 OpenBabel08242015393D

 14 12  0  0  0  0  0  0  0  0999 V2000
   -3.9499    0.2753    0.1142 C   0  0  0  0  0  0  0  0  0  0  0  0
   -2.6777   -0.6188    0.0022 C   0  0  0  0  0  0  0  0  0  0  0  0
   -4.8560   -0.3551   -0.4127 H   0  0  0  0  0  0  0  0  0  0  0  0
   -3.7866    0.6014   -0.6589 H   0  0  0  0  0  0  0  0  0  0  0  0
   -4.0421    1.2817    1.2507 H   0  0  0  0  0  0  0  0  0  0  0  0
   -1.4116    0.1291   -0.1154 C   0  0  0  0  0  0  0  0  0  0  0  0
   -2.7628   -1.4505   -0.9608 H   0  0  0  0  0  0  0  0  0  0  0  0
   -2.5381   -1.1307    0.7691 H   0  0  0  0  0  0  0  0  0  0  0  0
   -0.1788   -0.6483    0.1260 C   0  0  0  0  0  0  0  0  0  0  0  0
   -1.4369    0.7519    0.6456 H   0  0  0  0  0  0  0  0  0  0  0  0
   -1.4383    0.9863   -1.1602 H   0  0  0  0  0  0  0  0  0  0  0  0
   -0.1235   -1.4203    1.1704 H   0  0  0  0  0  0  0  0  0  0  0  0
    0.7100   -0.0854   -0.0286 H   0  0  0  0  0  0  0  0  0  0  0  0
   -0.1531   -1.3007   -0.6583 H   0  0  0  0  0  0  0  0  0  0  0  0
  2  1  1  0  0  0  0
  2  8  1  0  0  0  0
  3  1  1  0  0  0  0
  4  1  1  0  0  0  0
  6  2  1  0  0  0  0
  6  9  1  0  0  0  0
  6 10  1  0  0  0  0
  7  2  1  0  0  0  0
  9 12  1  0  0  0  0
 11  6  1  0  0  0  0
 13  9  1  0  0  0  0
 14  9  1  0  0  0  0
M  RAD  2   1   2   5   2
M  END
$$$$
