14
butane_opt
C  -3.950346   0.272560  -0.056319
C  -2.715936  -0.607728   0.134260
H  -4.947889  -0.382228  -0.438778
H  -3.757371   0.649167  -0.714262
H  -3.872528   1.319433   1.088223
C  -1.395267   0.162536   0.030344
H  -2.560684  -1.222037  -0.634285
H  -2.753017  -1.421742   1.180008
C  -0.172574  -0.687930  -0.021933
H  -1.406462   0.906246   0.863675
H  -1.346717   0.783274  -0.844152
H  -0.138092  -1.329971   0.904630
H   0.775090  -0.084824  -0.102930
H  -0.213921  -1.373437  -0.886457
