14
butane_opt
C  -3.940894   0.246840  -0.069573
C  -2.737471  -0.630011   0.163041
H  -4.791924  -0.339923   0.089111
H  -3.980262   1.065430  -1.109105
H  -3.932924   0.707478   0.684691
C  -1.415071   0.230944   0.062864
H  -2.679523  -1.285778  -0.618334
H  -2.842976  -1.277348   1.006681
C  -0.102438  -0.705133  -0.039468
H  -1.336677   0.970124   1.008631
H  -1.636435   0.987592  -0.825128
H  -0.191613  -0.954173   0.612958
H   0.689968  -0.225670   0.263208
H   0.027889  -1.844165  -1.138264
