14
butane_opt
C  -3.940492   0.258269   0.001467
C  -2.706627  -0.609147   0.059059
H  -4.881567  -0.370176   0.129062
H  -4.029677   0.995804  -0.985563
H  -3.939599   0.779811   0.790719
C  -1.412333   0.194498   0.030150
H  -2.711520  -1.281046  -0.807661
H  -2.782022  -1.176396   0.919039
C  -0.140824  -0.699768   0.014608
H  -1.385823   0.908542   0.914266
H  -1.442083   0.774623  -0.830236
H  -0.114406  -1.284582   0.872356
H   0.762914  -0.116184   0.045976
H  -0.092597  -1.431061  -0.887814
