butane_opt
 OpenBabel08242015393D

 14 13  0  0  0  0  0  0  0  0999 V2000
   -3.9434    0.2562   -0.0109 C   0  0  0  0  0  0  0  0  0  0  0  0
   -2.7049   -0.6127    0.0604 C   0  0  0  0  0  0  0  0  0  0  0  0
   -4.8440   -0.3460    0.0209 H   0  0  0  0  0  0  0  0  0  0  0  0
   -3.9770    0.8743   -0.9314 H   0  0  0  0  0  0  0  0  0  0  0  0
   -4.0053    0.8869    0.8078 H   0  0  0  0  0  0  0  0  0  0  0  0
   -1.4095    0.2124    0.0622 C   0  0  0  0  0  0  0  0  0  0  0  0
   -2.6916   -1.3072   -0.7845 H   0  0  0  0  0  0  0  0  0  0  0  0
   -2.7565   -1.2323    0.9574 H   0  0  0  0  0  0  0  0  0  0  0  0
   -0.1473   -0.7068    0.0002 C   0  0  0  0  0  0  0  0  0  0  0  0
   -1.3972    0.8682    0.8874 H   0  0  0  0  0  0  0  0  0  0  0  0
   -1.3824    0.8283   -0.8228 H   0  0  0  0  0  0  0  0  0  0  0  0
   -0.0195   -1.3751    0.8969 H   0  0  0  0  0  0  0  0  0  0  0  0
    0.7363   -0.1296   -0.0958 H   0  0  0  0  0  0  0  0  0  0  0  0
   -0.2152   -1.3286   -0.8333 H   0  0  0  0  0  0  0  0  0  0  0  0
  1  3  1  0  0  0  0
  1  2  1  0  0  0  0
  1  5  1  0  0  0  0
  2  6  1  0  0  0  0
  2  8  1  0  0  0  0
  4  1  1  0  0  0  0
  6 10  1  0  0  0  0
  7  2  1  0  0  0  0
  9  6  1  0  0  0  0
  9 12  1  0  0  0  0
 11  6  1  0  0  0  0
 13  9  1  0  0  0  0
 14  9  1  0  0  0  0
M  END
$$$$
