butane_opt
 OpenBabel08242015393D

 14 13  0  0  0  0  0  0  0  0999 V2000
   -3.9750    0.2575   -0.0478 C   0  0  0  0  0  0  0  0  0  0  0  0
   -2.7082   -0.5995    0.0843 C   0  0  0  0  0  0  0  0  0  0  0  0
   -5.0259   -0.4716    0.2744 H   0  0  0  0  0  0  0  0  0  0  0  0
   -4.1324    1.1500   -1.1196 H   0  0  0  0  0  0  0  0  0  0  0  0
   -3.7790    0.6655    0.5618 H   0  0  0  0  0  0  0  0  0  0  0  0
   -1.4049    0.2261    0.1192 C   0  0  0  0  0  0  0  0  0  0  0  0
   -2.7460   -1.4152   -0.8577 H   0  0  0  0  0  0  0  0  0  0  0  0
   -2.8359   -1.1696    0.9716 H   0  0  0  0  0  0  0  0  0  0  0  0
   -0.1168   -0.7168   -0.0256 C   0  0  0  0  0  0  0  0  0  0  0  0
   -1.3448    0.8414    0.9903 H   0  0  0  0  0  0  0  0  0  0  0  0
   -1.4519    0.8125   -0.7522 H   0  0  0  0  0  0  0  0  0  0  0  0
    0.0941   -1.3030    0.8083 H   0  0  0  0  0  0  0  0  0  0  0  0
    0.7916   -0.1382   -0.0952 H   0  0  0  0  0  0  0  0  0  0  0  0
   -0.1328   -1.4455   -0.9397 H   0  0  0  0  0  0  0  0  0  0  0  0
  1  2  1  0  0  0  0
  1  3  1  0  0  0  0
  1  5  1  0  0  0  0
  2  6  1  0  0  0  0
  2  8  1  0  0  0  0
  4  1  1  0  0  0  0
  6 10  1  0  0  0  0
  7  2  1  0  0  0  0
  9  6  1  0  0  0  0
  9 12  1  0  0  0  0
 11  6  1  0  0  0  0
 13  9  1  0  0  0  0
 14  9  1  0  0  0  0
M  END
$$$$
