14
butane_opt
C  -3.923201   0.296850   0.078810
C  -2.663294  -0.623008  -0.069882
H  -4.804863  -0.305310   0.512808
H  -4.282997   1.186462  -0.998738
H  -3.888178   0.666559   0.760711
C  -1.390031   0.115071   0.006935
H  -2.767929  -1.447304  -1.011686
H  -2.628246  -1.207565   0.774714
C  -0.195222  -0.652195   0.083246
H  -1.653367   0.803973   0.832310
H  -1.203671   0.873118  -0.900013
H  -0.328589  -1.344791   1.031120
H   0.843674   0.118924  -0.017953
H  -0.254386  -1.430406  -0.790755
