butane_opt
 OpenBabel08242015393D

 14 13  0  0  0  0  0  0  0  0999 V2000
   -3.9123    0.2481    0.0923 C   0  0  0  0  0  0  0  0  0  0  0  0
   -2.7290   -0.5744   -0.0494 C   0  0  0  0  0  0  0  0  0  0  0  0
   -4.9307   -0.4052    0.2251 H   0  0  0  0  0  0  0  0  0  0  0  0
   -4.0170    0.7302   -0.6482 H   0  0  0  0  0  0  0  0  0  0  0  0
   -3.7130    0.9650    1.0496 H   0  0  0  0  0  0  0  0  0  0  0  0
   -1.4115    0.2164   -0.1192 C   0  0  0  0  0  0  0  0  0  0  0  0
   -2.9655   -1.2196   -0.9519 H   0  0  0  0  0  0  0  0  0  0  0  0
   -2.7312   -1.1911    0.8886 H   0  0  0  0  0  0  0  0  0  0  0  0
   -0.1457   -0.7337    0.1422 C   0  0  0  0  0  0  0  0  0  0  0  0
   -1.6752    0.7529    0.6349 H   0  0  0  0  0  0  0  0  0  0  0  0
   -1.2955    0.8298   -0.9863 H   0  0  0  0  0  0  0  0  0  0  0  0
   -0.2262   -1.2096    0.9065 H   0  0  0  0  0  0  0  0  0  0  0  0
    0.7721   -0.0988    0.2141 H   0  0  0  0  0  0  0  0  0  0  0  0
    0.1345   -1.5063   -0.7155 H   0  0  0  0  0  0  0  0  0  0  0  0
  1  3  1  0  0  0  0
  1  5  1  0  0  0  0
  2  1  1  0  0  0  0
  2  8  1  0  0  0  0
  4  1  1  0  0  0  0
  6  2  1  0  0  0  0
  6  9  1  0  0  0  0
  6 10  1  0  0  0  0
  7  2  1  0  0  0  0
  9 13  1  0  0  0  0
  9 12  1  0  0  0  0
 11  6  1  0  0  0  0
 14  9  1  0  0  0  0
M  END
$$$$
