butane_opt
 OpenBabel08242015393D

 14 13  0  0  0  0  0  0  0  0999 V2000
   -3.9740    0.2628   -0.0547 C   0  0  0  0  0  0  0  0  0  0  0  0
   -2.7508   -0.6118    0.1600 C   0  0  0  0  0  0  0  0  0  0  0  0
   -4.8435   -0.3650   -0.3696 H   0  0  0  0  0  0  0  0  0  0  0  0
   -3.8730    0.7402   -0.9013 H   0  0  0  0  0  0  0  0  0  0  0  0
   -4.1454    1.0683    0.9167 H   0  0  0  0  0  0  0  0  0  0  0  0
   -1.3691    0.2103    0.0721 C   0  0  0  0  0  0  0  0  0  0  0  0
   -2.5555   -1.3128   -0.7195 H   0  0  0  0  0  0  0  0  0  0  0  0
   -2.8493   -1.1839    1.0509 H   0  0  0  0  0  0  0  0  0  0  0  0
   -0.1053   -0.7293   -0.0366 C   0  0  0  0  0  0  0  0  0  0  0  0
   -1.3222    0.8402    0.8496 H   0  0  0  0  0  0  0  0  0  0  0  0
   -1.4406    0.8430   -0.8561 H   0  0  0  0  0  0  0  0  0  0  0  0
   -0.0525   -1.1832    0.8354 H   0  0  0  0  0  0  0  0  0  0  0  0
    0.8109   -0.1743   -0.1740 H   0  0  0  0  0  0  0  0  0  0  0  0
   -0.3247   -1.3379   -0.8670 H   0  0  0  0  0  0  0  0  0  0  0  0
  1  2  1  0  0  0  0
  1  5  1  0  0  0  0
  2  8  1  0  0  0  0
  3  1  1  0  0  0  0
  4  1  1  0  0  0  0
  6  2  1  0  0  0  0
  6 10  1  0  0  0  0
  7  2  1  0  0  0  0
  9  6  1  0  0  0  0
  9 12  1  0  0  0  0
 11  6  1  0  0  0  0
 13  9  1  0  0  0  0
 14  9  1  0  0  0  0
M  END
$$$$
