butane_opt
 OpenBabel08242015393D

 14 13  0  0  0  0  0  0  0  0999 V2000
   -3.9756    0.2949   -0.0650 C   0  0  0  0  0  0  0  0  0  0  0  0
   -2.6809   -0.6283    0.1490 C   0  0  0  0  0  0  0  0  0  0  0  0
   -4.7449   -0.1680   -0.3569 H   0  0  0  0  0  0  0  0  0  0  0  0
   -3.7796    0.6030   -0.7984 H   0  0  0  0  0  0  0  0  0  0  0  0
   -4.1055    1.1366    0.8903 H   0  0  0  0  0  0  0  0  0  0  0  0
   -1.4015    0.1244    0.0538 C   0  0  0  0  0  0  0  0  0  0  0  0
   -2.6891   -1.1392   -0.5197 H   0  0  0  0  0  0  0  0  0  0  0  0
   -2.8349   -1.4971    1.1867 H   0  0  0  0  0  0  0  0  0  0  0  0
   -0.1543   -0.6501   -0.0482 C   0  0  0  0  0  0  0  0  0  0  0  0
   -1.5030    0.9001    0.9553 H   0  0  0  0  0  0  0  0  0  0  0  0
   -1.3497    0.6760   -0.8422 H   0  0  0  0  0  0  0  0  0  0  0  0
   -0.0629   -1.1867    0.7707 H   0  0  0  0  0  0  0  0  0  0  0  0
    0.8428    0.0058    0.0084 H   0  0  0  0  0  0  0  0  0  0  0  0
   -0.3049   -1.4547   -0.9242 H   0  0  0  0  0  0  0  0  0  0  0  0
  1  2  1  0  0  0  0
  1  5  1  0  0  0  0
  2  8  1  0  0  0  0
  3  1  1  0  0  0  0
  4  1  1  0  0  0  0
  6  2  1  0  0  0  0
  6 10  1  0  0  0  0
  7  2  1  0  0  0  0
  9 13  1  0  0  0  0
  9  6  1  0  0  0  0
  9 12  1  0  0  0  0
 11  6  1  0  0  0  0
 14  9  1  0  0  0  0
M  END
$$$$
