butane_opt
 OpenBabel08242015393D

 14 12  0  0  0  0  0  0  0  0999 V2000
   -3.9340    0.2097    0.0751 C   0  0  0  0  0  0  0  0  0  0  0  0
   -2.7023   -0.5434   -0.0303 C   0  0  0  0  0  0  0  0  0  0  0  0
   -4.8677   -0.3390   -0.0222 H   0  0  0  0  0  0  0  0  0  0  0  0
   -3.8492    0.6625   -0.7673 H   0  0  0  0  0  0  0  0  0  0  0  0
   -3.9943    1.1699    1.1022 H   0  0  0  0  0  0  0  0  0  0  0  0
   -1.4378    0.1958   -0.0482 C   0  0  0  0  0  0  0  0  0  0  0  0
   -2.8415   -1.4107   -1.0433 H   0  0  0  0  0  0  0  0  0  0  0  0
   -2.6139   -1.1773    0.8628 H   0  0  0  0  0  0  0  0  0  0  0  0
   -0.1362   -0.7156    0.0861 C   0  0  0  0  0  0  0  0  0  0  0  0
   -1.5703    1.0033    0.8053 H   0  0  0  0  0  0  0  0  0  0  0  0
   -1.3556    0.7150   -0.8462 H   0  0  0  0  0  0  0  0  0  0  0  0
   -0.0656   -1.7430    1.3101 H   0  0  0  0  0  0  0  0  0  0  0  0
    0.8425   -0.0976   -0.3731 H   0  0  0  0  0  0  0  0  0  0  0  0
   -0.1704   -1.0039   -0.5300 H   0  0  0  0  0  0  0  0  0  0  0  0
  1  5  1  0  0  0  0
  2  1  1  0  0  0  0
  2  8  1  0  0  0  0
  3  1  1  0  0  0  0
  4  1  1  0  0  0  0
  6  2  1  0  0  0  0
  6  9  1  0  0  0  0
  6 10  1  0  0  0  0
  7  2  1  0  0  0  0
 11  6  1  0  0  0  0
 13  9  1  0  0  0  0
 14  9  1  0  0  0  0
M  RAD  2   9   2  12   2
M  END
$$$$
