butane_opt
 OpenBabel08242015393D

 14 13  0  0  0  0  0  0  0  0999 V2000
   -3.9465    0.2752   -0.0730 C   0  0  0  0  0  0  0  0  0  0  0  0
   -2.6493   -0.6550    0.1477 C   0  0  0  0  0  0  0  0  0  0  0  0
   -4.8181   -0.2852    0.0607 H   0  0  0  0  0  0  0  0  0  0  0  0
   -3.9864    1.0671   -1.0063 H   0  0  0  0  0  0  0  0  0  0  0  0
   -3.9529    0.7857    0.7469 H   0  0  0  0  0  0  0  0  0  0  0  0
   -1.4134    0.1803    0.0624 C   0  0  0  0  0  0  0  0  0  0  0  0
   -2.5715   -1.0357   -0.5292 H   0  0  0  0  0  0  0  0  0  0  0  0
   -2.8013   -1.4308    1.1363 H   0  0  0  0  0  0  0  0  0  0  0  0
   -0.2142   -0.6739   -0.0715 C   0  0  0  0  0  0  0  0  0  0  0  0
   -1.3459    0.9318    1.0399 H   0  0  0  0  0  0  0  0  0  0  0  0
   -1.3903    0.7296   -0.8106 H   0  0  0  0  0  0  0  0  0  0  0  0
   -0.2819   -0.9604    0.6469 H   0  0  0  0  0  0  0  0  0  0  0  0
    0.8172   -0.0905    0.4967 H   0  0  0  0  0  0  0  0  0  0  0  0
   -0.0325   -1.7001   -1.1753 H   0  0  0  0  0  0  0  0  0  0  0  0
  1  3  1  0  0  0  0
  1  2  1  0  0  0  0
  1  5  1  0  0  0  0
  2  8  1  0  0  0  0
  4  1  1  0  0  0  0
  6  2  1  0  0  0  0
  6 10  1  0  0  0  0
  7  2  1  0  0  0  0
  9  6  1  0  0  0  0
  9 13  1  0  0  0  0
  9 12  1  0  0  0  0
 11  6  1  0  0  0  0
 14  9  1  0  0  0  0
M  END
$$$$
