14
butane_opt
C  -3.913913   0.217313   0.166895
C  -2.752476  -0.591516  -0.123724
H  -4.859453  -0.385815   0.353387
H  -4.116892   1.106466  -0.868046
H  -3.879095   0.842227   0.875548
C  -1.420966   0.239162  -0.092595
H  -2.857155  -1.421640  -1.055535
H  -2.669969  -1.021912   0.653593
C  -0.115187  -0.731076   0.150637
H  -1.539796   0.791561   0.640160
H  -1.304193   0.923473  -1.000645
H  -0.094475  -1.418326   1.107814
H   0.756781  -0.185649   0.156960
H  -0.002449  -1.321210  -0.643151
