14
butane_opt
C  -3.896440   0.209687  -0.009089
C  -2.695727  -0.545381   0.058061
H  -4.873987  -0.431633   0.334609
H  -3.910284   1.221853  -1.277026
H  -3.949612   0.446526   0.505296
C  -1.436029   0.234574   0.102721
H  -2.574651  -1.335518  -0.819276
H  -2.719925  -1.217843   1.019940
C  -0.177345  -0.724195  -0.033719
H  -1.405886   1.054675   1.005531
H  -1.415730   0.738154  -0.653413
H  -0.010584  -1.273857   0.759175
H   0.630257  -0.312468   0.030450
H  -0.270180  -1.471413  -0.915516
