butane_opt
 OpenBabel08242015393D

 14 12  0  0  0  0  0  0  0  0999 V2000
   -3.9932    0.2999    0.0975 C   0  0  0  0  0  0  0  0  0  0  0  0
   -2.7007   -0.6737   -0.0251 C   0  0  0  0  0  0  0  0  0  0  0  0
   -4.7918   -0.1548   -0.3352 H   0  0  0  0  0  0  0  0  0  0  0  0
   -3.8918    0.5630   -0.6201 H   0  0  0  0  0  0  0  0  0  0  0  0
   -4.1035    1.3861    1.1854 H   0  0  0  0  0  0  0  0  0  0  0  0
   -1.3479    0.1486   -0.0838 C   0  0  0  0  0  0  0  0  0  0  0  0
   -2.8225   -1.3528   -0.8885 H   0  0  0  0  0  0  0  0  0  0  0  0
   -2.6433   -1.3093    0.8733 H   0  0  0  0  0  0  0  0  0  0  0  0
   -0.1838   -0.6369    0.1310 C   0  0  0  0  0  0  0  0  0  0  0  0
   -1.3684    0.7112    0.6587 H   0  0  0  0  0  0  0  0  0  0  0  0
   -1.2969    0.9522   -1.0338 H   0  0  0  0  0  0  0  0  0  0  0  0
   -0.0584   -1.4887    1.1766 H   0  0  0  0  0  0  0  0  0  0  0  0
    0.7611   -0.1065   -0.2095 H   0  0  0  0  0  0  0  0  0  0  0  0
   -0.1431   -1.3151   -0.7633 H   0  0  0  0  0  0  0  0  0  0  0  0
  2  1  1  0  0  0  0
  2  8  1  0  0  0  0
  3  1  1  0  0  0  0
  4  1  1  0  0  0  0
  6  2  1  0  0  0  0
  6  9  1  0  0  0  0
  6 10  1  0  0  0  0
  7  2  1  0  0  0  0
  9 12  1  0  0  0  0
 11  6  1  0  0  0  0
 13  9  1  0  0  0  0
 14  9  1  0  0  0  0
M  RAD  2   1   2   5   2
M  END
$$$$
