14
butane_opt
C  -3.956745   0.238229   0.062348
C  -2.706317  -0.615519  -0.090590
H  -4.769574  -0.305921   0.683579
H  -4.306039   1.061381  -0.870705
H  -3.743982   0.611320   0.837078
C  -1.430979   0.218846  -0.015546
H  -2.674352  -1.194019  -0.895963
H  -2.860052  -1.179656   0.739215
C  -0.128352  -0.713741   0.086597
H  -1.404494   0.981194   0.845703
H  -1.318601   0.858811  -0.842060
H  -0.054550  -1.347055   0.995164
H   0.686823  -0.190783   0.138287
H   0.093130  -1.307863  -0.704094
