butane_opt
 OpenBabel08242015393D

 14 13  0  0  0  0  0  0  0  0999 V2000
   -3.9525    0.2585   -0.1035 C   0  0  0  0  0  0  0  0  0  0  0  0
   -2.7638   -0.5920    0.2172 C   0  0  0  0  0  0  0  0  0  0  0  0
   -4.8478   -0.2777   -0.3065 H   0  0  0  0  0  0  0  0  0  0  0  0
   -3.8279    0.7067   -0.9474 H   0  0  0  0  0  0  0  0  0  0  0  0
   -4.0942    0.9466    0.7808 H   0  0  0  0  0  0  0  0  0  0  0  0
   -1.3953    0.2101    0.1140 C   0  0  0  0  0  0  0  0  0  0  0  0
   -2.5942   -1.2643   -0.5702 H   0  0  0  0  0  0  0  0  0  0  0  0
   -2.8789   -1.2694    1.0964 H   0  0  0  0  0  0  0  0  0  0  0  0
   -0.1192   -0.7269   -0.0792 C   0  0  0  0  0  0  0  0  0  0  0  0
   -1.3523    0.8326    0.8509 H   0  0  0  0  0  0  0  0  0  0  0  0
   -1.4479    0.8209   -0.8279 H   0  0  0  0  0  0  0  0  0  0  0  0
   -0.0169   -1.1138    0.6206 H   0  0  0  0  0  0  0  0  0  0  0  0
    0.8761   -0.0983    0.0090 H   0  0  0  0  0  0  0  0  0  0  0  0
   -0.0841   -1.5393   -1.0550 H   0  0  0  0  0  0  0  0  0  0  0  0
  1  2  1  0  0  0  0
  1  5  1  0  0  0  0
  2  8  1  0  0  0  0
  3  1  1  0  0  0  0
  4  1  1  0  0  0  0
  6  2  1  0  0  0  0
  6 10  1  0  0  0  0
  7  2  1  0  0  0  0
  9 13  1  0  0  0  0
  9  6  1  0  0  0  0
  9 12  1  0  0  0  0
 11  6  1  0  0  0  0
 14  9  1  0  0  0  0
M  END
$$$$
