butane_opt
 OpenBabel08242015393D

 14 13  0  0  0  0  0  0  0  0999 V2000
   -3.9275    0.2548   -0.0524 C   0  0  0  0  0  0  0  0  0  0  0  0
   -2.7569   -0.5891    0.1383 C   0  0  0  0  0  0  0  0  0  0  0  0
   -4.9061   -0.4531   -0.1312 H   0  0  0  0  0  0  0  0  0  0  0  0
   -3.9256    0.8617   -0.9030 H   0  0  0  0  0  0  0  0  0  0  0  0
   -3.9651    0.7765    0.6688 H   0  0  0  0  0  0  0  0  0  0  0  0
   -1.3978    0.2487    0.0562 C   0  0  0  0  0  0  0  0  0  0  0  0
   -2.6436   -1.0856   -0.5066 H   0  0  0  0  0  0  0  0  0  0  0  0
   -2.7616   -1.4655    1.1714 H   0  0  0  0  0  0  0  0  0  0  0  0
   -0.1449   -0.7292   -0.0458 C   0  0  0  0  0  0  0  0  0  0  0  0
   -1.3772    0.9963    0.9137 H   0  0  0  0  0  0  0  0  0  0  0  0
   -1.3247    0.7059   -0.7787 H   0  0  0  0  0  0  0  0  0  0  0  0
   -0.0905   -1.0721    0.6190 H   0  0  0  0  0  0  0  0  0  0  0  0
    0.6849   -0.2913    0.2928 H   0  0  0  0  0  0  0  0  0  0  0  0
    0.0279   -1.6907   -1.1127 H   0  0  0  0  0  0  0  0  0  0  0  0
  1  2  1  0  0  0  0
  1  5  1  0  0  0  0
  2  8  1  0  0  0  0
  3  1  1  0  0  0  0
  4  1  1  0  0  0  0
  6  2  1  0  0  0  0
  6 10  1  0  0  0  0
  7  2  1  0  0  0  0
  9  6  1  0  0  0  0
  9 13  1  0  0  0  0
  9 12  1  0  0  0  0
 11  6  1  0  0  0  0
 14  9  1  0  0  0  0
M  END
$$$$
