14
butane_opt
C  -3.977876   0.284234   0.110240
C  -2.705174  -0.660512  -0.037382
H  -4.914149  -0.236717   0.156211
H  -4.191288   0.838628  -0.755664
H  -3.855999   1.089242   1.085494
C  -1.351966   0.165858  -0.122960
H  -2.618260  -1.189552  -0.864526
H  -2.797523  -1.327245   0.870251
C  -0.139191  -0.679872   0.110700
H  -1.477283   0.807217   0.676910
H  -1.342987   0.952143  -1.122568
H  -0.496187  -1.126618   0.938720
H   0.792631  -0.071844   0.590629
H  -0.018820  -1.547949  -0.851395
