butane_opt
 OpenBabel08242015393D

 14 12  0  0  0  0  0  0  0  0999 V2000
   -3.8940    0.2091    0.0316 C   0  0  0  0  0  0  0  0  0  0  0  0
   -2.7042   -0.5573    0.0434 C   0  0  0  0  0  0  0  0  0  0  0  0
   -4.8467   -0.3374   -0.3672 H   0  0  0  0  0  0  0  0  0  0  0  0
   -3.7106    0.3913   -0.6006 H   0  0  0  0  0  0  0  0  0  0  0  0
   -3.9998    1.2921    1.1686 H   0  0  0  0  0  0  0  0  0  0  0  0
   -1.4374    0.2534   -0.0480 C   0  0  0  0  0  0  0  0  0  0  0  0
   -2.7460   -1.1726   -0.7396 H   0  0  0  0  0  0  0  0  0  0  0  0
   -2.6620   -1.3325    0.9851 H   0  0  0  0  0  0  0  0  0  0  0  0
   -0.1597   -0.7446    0.0668 C   0  0  0  0  0  0  0  0  0  0  0  0
   -1.6457    0.7881    0.7176 H   0  0  0  0  0  0  0  0  0  0  0  0
   -1.3552    0.8561   -0.9268 H   0  0  0  0  0  0  0  0  0  0  0  0
   -0.1317   -1.4438    1.0027 H   0  0  0  0  0  0  0  0  0  0  0  0
    0.7224   -0.1649   -0.1108 H   0  0  0  0  0  0  0  0  0  0  0  0
   -0.2778   -1.2903   -0.7769 H   0  0  0  0  0  0  0  0  0  0  0  0
  1  2  1  0  0  0  0
  2  8  1  0  0  0  0
  3  1  1  0  0  0  0
  4  1  1  0  0  0  0
  6  2  1  0  0  0  0
  6  9  1  0  0  0  0
  6 10  1  0  0  0  0
  7  2  1  0  0  0  0
  9 12  1  0  0  0  0
 11  6  1  0  0  0  0
 13  9  1  0  0  0  0
 14  9  1  0  0  0  0
M  RAD  2   1   2   5   2
M  END
$$$$
