14
butane_opt
C  -3.895598   0.266895   0.037199
C  -2.716925  -0.576277   0.051810
H  -5.023904  -0.474787   0.080638
H  -3.777066   0.743157  -0.789219
H  -3.913984   0.870922   0.890807
C  -1.414353   0.190675  -0.040288
H  -2.856465  -1.337475  -0.960161
H  -2.612207  -1.163906   0.869841
C  -0.177153  -0.722999   0.048737
H  -1.400493   0.850920   0.806758
H  -1.490828   0.981494  -1.017597
H  -0.244108  -1.254003   0.952007
H   0.741267  -0.101049   0.262805
H   0.006170  -1.519772  -0.821811
