butane_opt
 OpenBabel08242015393D

 14 13  0  0  0  0  0  0  0  0999 V2000
   -3.9094    0.2286    0.1295 C   0  0  0  0  0  0  0  0  0  0  0  0
   -2.6895   -0.5594   -0.1435 C   0  0  0  0  0  0  0  0  0  0  0  0
   -4.8727   -0.4181    0.5193 H   0  0  0  0  0  0  0  0  0  0  0  0
   -4.1299    0.9871   -0.7935 H   0  0  0  0  0  0  0  0  0  0  0  0
   -3.5825    0.6792    0.9390 H   0  0  0  0  0  0  0  0  0  0  0  0
   -1.4538    0.2007   -0.0659 C   0  0  0  0  0  0  0  0  0  0  0  0
   -2.8503   -1.2478   -1.0591 H   0  0  0  0  0  0  0  0  0  0  0  0
   -2.6900   -1.0753    0.6642 H   0  0  0  0  0  0  0  0  0  0  0  0
   -0.1651   -0.7006    0.1481 C   0  0  0  0  0  0  0  0  0  0  0  0
   -1.5535    0.7439    0.7268 H   0  0  0  0  0  0  0  0  0  0  0  0
   -1.4336    0.8535   -1.0213 H   0  0  0  0  0  0  0  0  0  0  0  0
   -0.0229   -1.5016    1.1942 H   0  0  0  0  0  0  0  0  0  0  0  0
    0.8158   -0.1661    0.1459 H   0  0  0  0  0  0  0  0  0  0  0  0
   -0.1102   -1.3419   -0.6853 H   0  0  0  0  0  0  0  0  0  0  0  0
  1  3  1  0  0  0  0
  1  5  1  0  0  0  0
  2  6  1  0  0  0  0
  2  1  1  0  0  0  0
  2  8  1  0  0  0  0
  4  1  1  0  0  0  0
  6  9  1  0  0  0  0
  6 10  1  0  0  0  0
  7  2  1  0  0  0  0
  9 12  1  0  0  0  0
 11  6  1  0  0  0  0
 13  9  1  0  0  0  0
 14  9  1  0  0  0  0
M  END
$$$$
