butane_opt
 OpenBabel08242015393D

 14 13  0  0  0  0  0  0  0  0999 V2000
   -3.9430    0.2513   -0.0016 C   0  0  0  0  0  0  0  0  0  0  0  0
   -2.7080   -0.6168    0.0583 C   0  0  0  0  0  0  0  0  0  0  0  0
   -4.8589   -0.3604   -0.0357 H   0  0  0  0  0  0  0  0  0  0  0  0
   -3.9236    0.9502   -0.9528 H   0  0  0  0  0  0  0  0  0  0  0  0
   -4.0140    0.9087    0.8412 H   0  0  0  0  0  0  0  0  0  0  0  0
   -1.4115    0.2108    0.0511 C   0  0  0  0  0  0  0  0  0  0  0  0
   -2.7755   -1.3165   -0.8074 H   0  0  0  0  0  0  0  0  0  0  0  0
   -2.7366   -1.2205    0.9600 H   0  0  0  0  0  0  0  0  0  0  0  0
   -0.1423   -0.7105    0.0040 C   0  0  0  0  0  0  0  0  0  0  0  0
   -1.3826    0.9173    0.9135 H   0  0  0  0  0  0  0  0  0  0  0  0
   -1.4218    0.8427   -0.8251 H   0  0  0  0  0  0  0  0  0  0  0  0
   -0.0131   -1.3751    0.9279 H   0  0  0  0  0  0  0  0  0  0  0  0
    0.7442   -0.1230   -0.1048 H   0  0  0  0  0  0  0  0  0  0  0  0
   -0.1768   -1.3175   -0.8224 H   0  0  0  0  0  0  0  0  0  0  0  0
  1  2  1  0  0  0  0
  1  5  1  0  0  0  0
  2  8  1  0  0  0  0
  3  1  1  0  0  0  0
  4  1  1  0  0  0  0
  6  2  1  0  0  0  0
  6 10  1  0  0  0  0
  7  2  1  0  0  0  0
  9  6  1  0  0  0  0
  9 12  1  0  0  0  0
 11  6  1  0  0  0  0
 13  9  1  0  0  0  0
 14  9  1  0  0  0  0
M  END
$$$$
