14
butane_opt
C  -3.954627   0.259356  -0.039389
C  -2.712200  -0.575183   0.041878
H  -4.937660  -0.488592   0.516227
H  -4.139489   1.278674  -1.169655
H  -3.834664   0.504968   0.606906
C  -1.398416   0.203052   0.092002
H  -2.706124  -1.154459  -0.744738
H  -2.699035  -1.330840   1.005169
C  -0.155303  -0.715731  -0.019984
H  -1.386558   0.984778   0.966512
H  -1.172828   0.559716  -0.555668
H  -0.117411  -1.190091   0.802424
H   0.769069  -0.121434   0.015487
H  -0.119606  -1.571369  -0.977968
