butane_opt
 OpenBabel08242015393D

 14 13  0  0  0  0  0  0  0  0999 V2000
   -3.9780    0.3137    0.0319 C   0  0  0  0  0  0  0  0  0  0  0  0
   -2.7319   -0.6593    0.0489 C   0  0  0  0  0  0  0  0  0  0  0  0
   -4.7832   -0.2005   -0.3082 H   0  0  0  0  0  0  0  0  0  0  0  0
   -3.9518    0.5924   -0.5658 H   0  0  0  0  0  0  0  0  0  0  0  0
   -4.1444    1.3034    1.1044 H   0  0  0  0  0  0  0  0  0  0  0  0
   -1.3767    0.1430   -0.0409 C   0  0  0  0  0  0  0  0  0  0  0  0
   -2.7073   -1.4401   -0.8367 H   0  0  0  0  0  0  0  0  0  0  0  0
   -2.6944   -1.3332    0.9516 H   0  0  0  0  0  0  0  0  0  0  0  0
   -0.1395   -0.6725    0.0721 C   0  0  0  0  0  0  0  0  0  0  0  0
   -1.4197    0.7636    0.7236 H   0  0  0  0  0  0  0  0  0  0  0  0
   -1.1941    0.8746   -1.0481 H   0  0  0  0  0  0  0  0  0  0  0  0
   -0.1741   -1.3125    1.0146 H   0  0  0  0  0  0  0  0  0  0  0  0
    0.8901    0.0782   -0.1689 H   0  0  0  0  0  0  0  0  0  0  0  0
   -0.1630   -1.2729   -0.7501 H   0  0  0  0  0  0  0  0  0  0  0  0
  1  2  1  0  0  0  0
  1  5  1  0  0  0  0
  2  8  1  0  0  0  0
  3  1  1  0  0  0  0
  4  1  1  0  0  0  0
  6  2  1  0  0  0  0
  6  9  1  0  0  0  0
  6 10  1  0  0  0  0
  7  2  1  0  0  0  0
  9 12  1  0  0  0  0
 11  6  1  0  0  0  0
 13  9  1  0  0  0  0
 14  9  1  0  0  0  0
M  END
$$$$
