14
butane_opt
C  -3.978040   0.313698   0.031867
C  -2.731946  -0.659258   0.048873
H  -4.783230  -0.200516  -0.308202
H  -3.951785   0.592447  -0.565843
H  -4.144358   1.303359   1.104391
C  -1.376708   0.142977  -0.040895
H  -2.707282  -1.440103  -0.836736
H  -2.694445  -1.333242   0.951574
C  -0.139541  -0.672542   0.072075
H  -1.419673   0.763588   0.723589
H  -1.194100   0.874615  -1.048109
H  -0.174130  -1.312515   1.014649
H   0.890086   0.078186  -0.168949
H  -0.163017  -1.272946  -0.750146
