butane_opt
 OpenBabel08242015393D

 14 13  0  0  0  0  0  0  0  0999 V2000
   -3.9289    0.2505    0.0901 C   0  0  0  0  0  0  0  0  0  0  0  0
   -2.7013   -0.5915   -0.0696 C   0  0  0  0  0  0  0  0  0  0  0  0
   -4.9620   -0.4724    0.3088 H   0  0  0  0  0  0  0  0  0  0  0  0
   -4.0068    0.8722   -0.7526 H   0  0  0  0  0  0  0  0  0  0  0  0
   -3.6794    0.9084    0.9657 H   0  0  0  0  0  0  0  0  0  0  0  0
   -1.4271    0.1970   -0.0570 C   0  0  0  0  0  0  0  0  0  0  0  0
   -2.6291   -1.3249   -0.9935 H   0  0  0  0  0  0  0  0  0  0  0  0
   -2.6404   -1.0909    0.7704 H   0  0  0  0  0  0  0  0  0  0  0  0
   -0.1715   -0.7200    0.0927 C   0  0  0  0  0  0  0  0  0  0  0  0
   -1.5259    0.8463    0.8268 H   0  0  0  0  0  0  0  0  0  0  0  0
   -1.3737    0.8294   -0.9029 H   0  0  0  0  0  0  0  0  0  0  0  0
   -0.2202   -1.4907    1.0681 H   0  0  0  0  0  0  0  0  0  0  0  0
    0.7321   -0.1049    0.0328 H   0  0  0  0  0  0  0  0  0  0  0  0
    0.0356   -1.0837   -0.5379 H   0  0  0  0  0  0  0  0  0  0  0  0
  1  3  1  0  0  0  0
  1  5  1  0  0  0  0
  2  6  1  0  0  0  0
  2  1  1  0  0  0  0
  2  8  1  0  0  0  0
  4  1  1  0  0  0  0
  6  9  1  0  0  0  0
  6 10  1  0  0  0  0
  7  2  1  0  0  0  0
  9 12  1  0  0  0  0
 11  6  1  0  0  0  0
 13  9  1  0  0  0  0
 14  9  1  0  0  0  0
M  END
$$$$
