butane_opt
 OpenBabel08242015393D

 14 12  0  0  0  0  0  0  0  0999 V2000
   -3.8952    0.2856   -0.0406 C   0  0  0  0  0  0  0  0  0  0  0  0
   -2.6924   -0.6261    0.0823 C   0  0  0  0  0  0  0  0  0  0  0  0
   -4.9791   -0.4001    0.2908 H   0  0  0  0  0  0  0  0  0  0  0  0
   -4.0701    1.3814   -1.2200 H   0  0  0  0  0  0  0  0  0  0  0  0
   -3.8215    0.5136    0.5501 H   0  0  0  0  0  0  0  0  0  0  0  0
   -1.4158    0.1585    0.1161 C   0  0  0  0  0  0  0  0  0  0  0  0
   -2.7319   -1.2223   -0.7348 H   0  0  0  0  0  0  0  0  0  0  0  0
   -2.7765   -1.1659    0.9641 H   0  0  0  0  0  0  0  0  0  0  0  0
   -0.1739   -0.6990   -0.0341 C   0  0  0  0  0  0  0  0  0  0  0  0
   -1.3247    0.7743    0.9915 H   0  0  0  0  0  0  0  0  0  0  0  0
   -1.5509    0.7722   -0.7348 H   0  0  0  0  0  0  0  0  0  0  0  0
   -0.1842   -0.9938    0.6638 H   0  0  0  0  0  0  0  0  0  0  0  0
    0.8328    0.0198    0.1498 H   0  0  0  0  0  0  0  0  0  0  0  0
   -0.2837   -1.5813   -1.0407 H   0  0  0  0  0  0  0  0  0  0  0  0
  1  2  1  0  0  0  0
  1  3  1  0  0  0  0
  1  5  1  0  0  0  0
  2  6  1  0  0  0  0
  2  8  1  0  0  0  0
  6 10  1  0  0  0  0
  7  2  1  0  0  0  0
  9  6  1  0  0  0  0
  9 13  1  0  0  0  0
  9 12  1  0  0  0  0
 11  6  1  0  0  0  0
 14  9  1  0  0  0  0
M  RAD  2   1   2   4   2
M  END
$$$$
