butane_opt
 OpenBabel08242015393D

 14 13  0  0  0  0  0  0  0  0999 V2000
   -3.9445    0.2554   -0.0178 C   0  0  0  0  0  0  0  0  0  0  0  0
   -2.7097   -0.6027    0.0788 C   0  0  0  0  0  0  0  0  0  0  0  0
   -4.8691   -0.3646   -0.0612 H   0  0  0  0  0  0  0  0  0  0  0  0
   -3.9217    0.8514   -0.9052 H   0  0  0  0  0  0  0  0  0  0  0  0
   -4.0387    0.9394    0.8559 H   0  0  0  0  0  0  0  0  0  0  0  0
   -1.4174    0.1935    0.0383 C   0  0  0  0  0  0  0  0  0  0  0  0
   -2.7168   -1.2254   -0.7402 H   0  0  0  0  0  0  0  0  0  0  0  0
   -2.7747   -1.2924    1.0350 H   0  0  0  0  0  0  0  0  0  0  0  0
   -0.1378   -0.7029    0.0014 C   0  0  0  0  0  0  0  0  0  0  0  0
   -1.3502    0.9245    0.9225 H   0  0  0  0  0  0  0  0  0  0  0  0
   -1.4297    0.7826   -0.8366 H   0  0  0  0  0  0  0  0  0  0  0  0
   -0.0208   -1.2914    0.8847 H   0  0  0  0  0  0  0  0  0  0  0  0
    0.7812   -0.1081   -0.0174 H   0  0  0  0  0  0  0  0  0  0  0  0
   -0.1682   -1.4125   -0.9020 H   0  0  0  0  0  0  0  0  0  0  0  0
  1  2  1  0  0  0  0
  1  5  1  0  0  0  0
  2  8  1  0  0  0  0
  3  1  1  0  0  0  0
  4  1  1  0  0  0  0
  6  2  1  0  0  0  0
  6 10  1  0  0  0  0
  7  2  1  0  0  0  0
  9  6  1  0  0  0  0
  9 12  1  0  0  0  0
 11  6  1  0  0  0  0
 13  9  1  0  0  0  0
 14  9  1  0  0  0  0
M  END
$$$$
