14
butane_opt
C  -3.993198   0.299883   0.097461
C  -2.700744  -0.673678  -0.025067
H  -4.791826  -0.154769  -0.335203
H  -3.891808   0.563039  -0.620113
H  -4.103499   1.386120   1.185413
C  -1.347935   0.148598  -0.083850
H  -2.822460  -1.352808  -0.888523
H  -2.643319  -1.309262   0.873264
C  -0.183766  -0.636892   0.131011
H  -1.368394   0.711172   0.658726
H  -1.296896   0.952204  -1.033847
H  -0.058402  -1.488737   1.176555
H   0.761104  -0.106475  -0.209515
H  -0.143084  -1.315089  -0.763274
