butane_opt
 OpenBabel08242015393D

 14 13  0  0  0  0  0  0  0  0999 V2000
   -3.8917    0.2277   -0.0382 C   0  0  0  0  0  0  0  0  0  0  0  0
   -2.7344   -0.5824    0.1792 C   0  0  0  0  0  0  0  0  0  0  0  0
   -4.8073   -0.2852   -0.3918 H   0  0  0  0  0  0  0  0  0  0  0  0
   -3.7626    0.8390   -0.9418 H   0  0  0  0  0  0  0  0  0  0  0  0
   -4.0913    1.0138    0.8568 H   0  0  0  0  0  0  0  0  0  0  0  0
   -1.4216    0.2240    0.0322 C   0  0  0  0  0  0  0  0  0  0  0  0
   -2.6610   -1.3965   -0.7213 H   0  0  0  0  0  0  0  0  0  0  0  0
   -2.8349   -1.2375    1.0612 H   0  0  0  0  0  0  0  0  0  0  0  0
   -0.1756   -0.7156   -0.0423 C   0  0  0  0  0  0  0  0  0  0  0  0
   -1.3261    0.7819    0.8814 H   0  0  0  0  0  0  0  0  0  0  0  0
   -1.5561    0.8766   -0.7982 H   0  0  0  0  0  0  0  0  0  0  0  0
   -0.0669   -1.2056    0.7990 H   0  0  0  0  0  0  0  0  0  0  0  0
    0.7528   -0.1228    0.1146 H   0  0  0  0  0  0  0  0  0  0  0  0
   -0.0017   -1.5735   -1.0023 H   0  0  0  0  0  0  0  0  0  0  0  0
  1  2  1  0  0  0  0
  1  5  1  0  0  0  0
  2  8  1  0  0  0  0
  3  1  1  0  0  0  0
  4  1  1  0  0  0  0
  6  2  1  0  0  0  0
  6 10  1  0  0  0  0
  7  2  1  0  0  0  0
  9  6  1  0  0  0  0
  9 13  1  0  0  0  0
  9 12  1  0  0  0  0
 11  6  1  0  0  0  0
 14  9  1  0  0  0  0
M  END
$$$$
