butane_opt
 OpenBabel08242015393D

 14 13  0  0  0  0  0  0  0  0999 V2000
   -3.9494    0.2273    0.1034 C   0  0  0  0  0  0  0  0  0  0  0  0
   -2.6884   -0.5636   -0.0577 C   0  0  0  0  0  0  0  0  0  0  0  0
   -4.9327   -0.3944    0.3216 H   0  0  0  0  0  0  0  0  0  0  0  0
   -3.9526    1.0064   -0.8919 H   0  0  0  0  0  0  0  0  0  0  0  0
   -3.7904    0.6617    0.8780 H   0  0  0  0  0  0  0  0  0  0  0  0
   -1.4026    0.1897   -0.0628 C   0  0  0  0  0  0  0  0  0  0  0  0
   -2.7184   -1.4342   -1.0638 H   0  0  0  0  0  0  0  0  0  0  0  0
   -2.6117   -0.9490    0.6645 H   0  0  0  0  0  0  0  0  0  0  0  0
   -0.1710   -0.7098    0.1218 C   0  0  0  0  0  0  0  0  0  0  0  0
   -1.5530    0.9737    0.9369 H   0  0  0  0  0  0  0  0  0  0  0  0
   -1.3986    0.8665   -0.9716 H   0  0  0  0  0  0  0  0  0  0  0  0
   -0.1413   -1.4722    1.0892 H   0  0  0  0  0  0  0  0  0  0  0  0
    0.6991   -0.1968   -0.1705 H   0  0  0  0  0  0  0  0  0  0  0  0
   -0.0784   -1.2648   -0.6269 H   0  0  0  0  0  0  0  0  0  0  0  0
  1  3  1  0  0  0  0
  1  5  1  0  0  0  0
  2  1  1  0  0  0  0
  2  8  1  0  0  0  0
  4  1  1  0  0  0  0
  6  2  1  0  0  0  0
  6  9  1  0  0  0  0
  6 10  1  0  0  0  0
  7  2  1  0  0  0  0
  9 12  1  0  0  0  0
 11  6  1  0  0  0  0
 13  9  1  0  0  0  0
 14  9  1  0  0  0  0
M  END
$$$$
