butane_opt
 OpenBabel08242015393D

 14 13  0  0  0  0  0  0  0  0999 V2000
   -3.9029    0.2361   -0.0344 C   0  0  0  0  0  0  0  0  0  0  0  0
   -2.6979   -0.5697    0.1187 C   0  0  0  0  0  0  0  0  0  0  0  0
   -4.8369   -0.4049   -0.0157 H   0  0  0  0  0  0  0  0  0  0  0  0
   -3.8158    0.9384   -0.9787 H   0  0  0  0  0  0  0  0  0  0  0  0
   -3.9582    0.7974    0.8073 H   0  0  0  0  0  0  0  0  0  0  0  0
   -1.4704    0.1977    0.0572 C   0  0  0  0  0  0  0  0  0  0  0  0
   -2.5163   -1.2041   -0.6833 H   0  0  0  0  0  0  0  0  0  0  0  0
   -2.9031   -1.2015    1.1522 H   0  0  0  0  0  0  0  0  0  0  0  0
   -0.1613   -0.7176   -0.0337 C   0  0  0  0  0  0  0  0  0  0  0  0
   -1.3900    0.6811    0.7570 H   0  0  0  0  0  0  0  0  0  0  0  0
   -1.4825    0.8344   -0.8551 H   0  0  0  0  0  0  0  0  0  0  0  0
   -0.0823   -1.0023    0.6919 H   0  0  0  0  0  0  0  0  0  0  0  0
    0.8193   -0.0211    0.3822 H   0  0  0  0  0  0  0  0  0  0  0  0
   -0.0732   -1.6510   -1.1226 H   0  0  0  0  0  0  0  0  0  0  0  0
  1  3  1  0  0  0  0
  1  2  1  0  0  0  0
  1  5  1  0  0  0  0
  2  8  1  0  0  0  0
  4  1  1  0  0  0  0
  6  2  1  0  0  0  0
  6 10  1  0  0  0  0
  7  2  1  0  0  0  0
  9  6  1  0  0  0  0
  9 13  1  0  0  0  0
  9 12  1  0  0  0  0
 11  6  1  0  0  0  0
 14  9  1  0  0  0  0
M  END
$$$$
