butane_opt
 OpenBabel08242015393D

 14 13  0  0  0  0  0  0  0  0999 V2000
   -3.9473    0.3015   -0.0706 C   0  0  0  0  0  0  0  0  0  0  0  0
   -2.6738   -0.6832    0.1330 C   0  0  0  0  0  0  0  0  0  0  0  0
   -4.7772   -0.3036   -0.2990 H   0  0  0  0  0  0  0  0  0  0  0  0
   -3.7736    0.7820   -0.8762 H   0  0  0  0  0  0  0  0  0  0  0  0
   -4.1632    1.1262    0.9126 H   0  0  0  0  0  0  0  0  0  0  0  0
   -1.3714    0.1700    0.0781 C   0  0  0  0  0  0  0  0  0  0  0  0
   -2.6302   -1.0359   -0.4674 H   0  0  0  0  0  0  0  0  0  0  0  0
   -2.6701   -1.4375    1.2095 H   0  0  0  0  0  0  0  0  0  0  0  0
   -0.2310   -0.6782   -0.0544 C   0  0  0  0  0  0  0  0  0  0  0  0
   -1.3380    0.9233    0.9460 H   0  0  0  0  0  0  0  0  0  0  0  0
   -1.3856    0.7980   -0.8144 H   0  0  0  0  0  0  0  0  0  0  0  0
   -0.0860   -1.1948    0.7153 H   0  0  0  0  0  0  0  0  0  0  0  0
    0.7506    0.0313    0.0950 H   0  0  0  0  0  0  0  0  0  0  0  0
   -0.2848   -1.4878   -1.0135 H   0  0  0  0  0  0  0  0  0  0  0  0
  1  2  1  0  0  0  0
  1  5  1  0  0  0  0
  2  8  1  0  0  0  0
  3  1  1  0  0  0  0
  4  1  1  0  0  0  0
  6  2  1  0  0  0  0
  6 10  1  0  0  0  0
  7  2  1  0  0  0  0
  9  6  1  0  0  0  0
  9 13  1  0  0  0  0
  9 12  1  0  0  0  0
 11  6  1  0  0  0  0
 14  9  1  0  0  0  0
M  END
$$$$
