14
butane_opt
C  -3.893138   0.215678   0.137951
C  -2.707246  -0.549839  -0.066227
H  -4.816476  -0.421350   0.208504
H  -3.935469   0.816433  -0.750345
H  -3.838775   0.935418   1.008981
C  -1.447418   0.206658  -0.145425
H  -2.851891  -1.305469  -0.959879
H  -2.516798  -1.183060   0.863019
C  -0.162580  -0.697508   0.139733
H  -1.630978   0.886155   0.713607
H  -1.365116   0.819957  -1.097214
H  -0.414273  -1.418281   1.024839
H   0.751429  -0.140358   0.424549
H   0.124684  -1.563676  -0.801752
