butane_opt
 OpenBabel08242015393D

 14 13  0  0  0  0  0  0  0  0999 V2000
   -3.9473    0.2872   -0.0430 C   0  0  0  0  0  0  0  0  0  0  0  0
   -2.6509   -0.6189    0.0800 C   0  0  0  0  0  0  0  0  0  0  0  0
   -4.8538   -0.3341    0.2308 H   0  0  0  0  0  0  0  0  0  0  0  0
   -4.0889    1.1850   -1.1682 H   0  0  0  0  0  0  0  0  0  0  0  0
   -3.8767    0.5754    0.5168 H   0  0  0  0  0  0  0  0  0  0  0  0
   -1.4117    0.1461    0.1299 C   0  0  0  0  0  0  0  0  0  0  0  0
   -2.7672   -1.2292   -0.7552 H   0  0  0  0  0  0  0  0  0  0  0  0
   -2.6522   -1.3210    1.0007 H   0  0  0  0  0  0  0  0  0  0  0  0
   -0.2004   -0.6651   -0.0295 C   0  0  0  0  0  0  0  0  0  0  0  0
   -1.4180    0.7816    0.9733 H   0  0  0  0  0  0  0  0  0  0  0  0
   -1.3976    0.6766   -0.7365 H   0  0  0  0  0  0  0  0  0  0  0  0
   -0.0107   -1.0151    0.6915 H   0  0  0  0  0  0  0  0  0  0  0  0
    0.7714   -0.1018   -0.0219 H   0  0  0  0  0  0  0  0  0  0  0  0
   -0.2275   -1.4525   -1.0130 H   0  0  0  0  0  0  0  0  0  0  0  0
  1  2  1  0  0  0  0
  1  3  1  0  0  0  0
  1  5  1  0  0  0  0
  2  6  1  0  0  0  0
  2  8  1  0  0  0  0
  4  1  1  0  0  0  0
  6 10  1  0  0  0  0
  7  2  1  0  0  0  0
  9 13  1  0  0  0  0
  9  6  1  0  0  0  0
  9 12  1  0  0  0  0
 11  6  1  0  0  0  0
 14  9  1  0  0  0  0
M  END
$$$$
