14
butane_opt
C  -3.949379   0.227337   0.103392
C  -2.688415  -0.563633  -0.057732
H  -4.932747  -0.394384   0.321604
H  -3.952582   1.006391  -0.891899
H  -3.790382   0.661717   0.878013
C  -1.402595   0.189694  -0.062759
H  -2.718416  -1.434181  -1.063814
H  -2.611662  -0.949038   0.664502
C  -0.171049  -0.709816   0.121804
H  -1.552958   0.973722   0.936906
H  -1.398645   0.866503  -0.971608
H  -0.141263  -1.472161   1.089243
H   0.699146  -0.196758  -0.170489
H  -0.078385  -1.264814  -0.626938
