14
butane_opt
C  -3.928928   0.250458   0.090117
C  -2.701271  -0.591532  -0.069600
H  -4.961960  -0.472373   0.308847
H  -4.006803   0.872204  -0.752595
H  -3.679371   0.908440   0.965696
C  -1.427071   0.196965  -0.057049
H  -2.629067  -1.324899  -0.993489
H  -2.640359  -1.090881   0.770379
C  -0.171518  -0.720028   0.092670
H  -1.525887   0.846349   0.826835
H  -1.373729   0.829440  -0.902863
H  -0.220191  -1.490654   1.068094
H   0.732144  -0.104861   0.032839
H   0.035615  -1.083696  -0.537910
