14
butane_opt
C  -3.939743   0.305041   0.053753
C  -2.675270  -0.660702   0.020131
H  -4.841439  -0.270560   0.032588
H  -4.007185   0.828544  -0.815457
H  -3.921690   1.026008   0.987706
C  -1.408404   0.160214  -0.086687
H  -2.710316  -1.256433  -0.796386
H  -2.604075  -1.419459   1.035457
C  -0.216993  -0.676176   0.072874
H  -1.277345   0.803351   0.827982
H  -1.319167   0.853661  -0.986893
H  -0.245228  -1.067357   0.879047
H   0.811083   0.098771   0.474954
H  -0.052990  -1.600035  -0.931935
