14
butane_opt
C  -3.956462   0.294487  -0.007093
C  -2.702131  -0.654336   0.055761
H  -4.874163  -0.265113   0.383610
H  -4.104208   1.179014  -1.129300
H  -3.896790   0.602412   0.633858
C  -1.405603   0.183830   0.046144
H  -2.620335  -1.317300  -0.815256
H  -2.572722  -1.353639   1.009869
C  -0.166320  -0.677784  -0.023124
H  -1.355680   0.937207   0.942445
H  -1.363474   0.565085  -0.695890
H  -0.206927  -1.131859   0.795549
H   0.714923  -0.017738   0.327397
H   0.011993  -1.407823  -0.915081
