butane_opt
 OpenBabel08242015393D

 14 13  0  0  0  0  0  0  0  0999 V2000
   -3.9438    0.2981    0.1286 C   0  0  0  0  0  0  0  0  0  0  0  0
   -2.6980   -0.6172   -0.0834 C   0  0  0  0  0  0  0  0  0  0  0  0
   -4.9002   -0.3664    0.1487 H   0  0  0  0  0  0  0  0  0  0  0  0
   -4.0038    0.8206   -0.6761 H   0  0  0  0  0  0  0  0  0  0  0  0
   -3.8340    0.9688    1.0073 H   0  0  0  0  0  0  0  0  0  0  0  0
   -1.3952    0.1339   -0.1043 C   0  0  0  0  0  0  0  0  0  0  0  0
   -2.8321   -1.3472   -1.0352 H   0  0  0  0  0  0  0  0  0  0  0  0
   -2.5502   -1.2055    0.7603 H   0  0  0  0  0  0  0  0  0  0  0  0
   -0.1670   -0.6824    0.1275 C   0  0  0  0  0  0  0  0  0  0  0  0
   -1.5268    0.9327    0.8467 H   0  0  0  0  0  0  0  0  0  0  0  0
   -1.1296    0.7473   -1.0481 H   0  0  0  0  0  0  0  0  0  0  0  0
   -0.4119   -1.4258    1.2588 H   0  0  0  0  0  0  0  0  0  0  0  0
    0.7157   -0.0724   -0.0469 H   0  0  0  0  0  0  0  0  0  0  0  0
   -0.1025   -1.1280   -0.6059 H   0  0  0  0  0  0  0  0  0  0  0  0
  1  3  1  0  0  0  0
  1  5  1  0  0  0  0
  2  1  1  0  0  0  0
  2  8  1  0  0  0  0
  4  1  1  0  0  0  0
  6  2  1  0  0  0  0
  6  9  1  0  0  0  0
  6 10  1  0  0  0  0
  7  2  1  0  0  0  0
  9 12  1  0  0  0  0
 11  6  1  0  0  0  0
 13  9  1  0  0  0  0
 14  9  1  0  0  0  0
M  END
$$$$
