butane_opt
 OpenBabel08242015393D

 14 13  0  0  0  0  0  0  0  0999 V2000
   -3.9853    0.2872   -0.0422 C   0  0  0  0  0  0  0  0  0  0  0  0
   -2.6767   -0.6502    0.0528 C   0  0  0  0  0  0  0  0  0  0  0  0
   -4.8860   -0.3062   -0.0920 H   0  0  0  0  0  0  0  0  0  0  0  0
   -4.0679    0.8153   -0.8016 H   0  0  0  0  0  0  0  0  0  0  0  0
   -3.9493    1.1148    0.9431 H   0  0  0  0  0  0  0  0  0  0  0  0
   -1.3996    0.1719    0.0704 C   0  0  0  0  0  0  0  0  0  0  0  0
   -2.6758   -1.3159   -0.7511 H   0  0  0  0  0  0  0  0  0  0  0  0
   -2.8429   -1.3768    1.0774 H   0  0  0  0  0  0  0  0  0  0  0  0
   -0.1241   -0.6704   -0.0021 C   0  0  0  0  0  0  0  0  0  0  0  0
   -1.2703    0.8988    0.9866 H   0  0  0  0  0  0  0  0  0  0  0  0
   -1.5248    0.7195   -0.8048 H   0  0  0  0  0  0  0  0  0  0  0  0
    0.0344   -1.5093    1.0442 H   0  0  0  0  0  0  0  0  0  0  0  0
    0.7569   -0.0228   -0.2730 H   0  0  0  0  0  0  0  0  0  0  0  0
   -0.3815   -1.1395   -0.7910 H   0  0  0  0  0  0  0  0  0  0  0  0
  1  2  1  0  0  0  0
  1  5  1  0  0  0  0
  2  6  1  0  0  0  0
  2  8  1  0  0  0  0
  3  1  1  0  0  0  0
  4  1  1  0  0  0  0
  6 10  1  0  0  0  0
  7  2  1  0  0  0  0
  9  6  1  0  0  0  0
  9 12  1  0  0  0  0
 11  6  1  0  0  0  0
 13  9  1  0  0  0  0
 14  9  1  0  0  0  0
M  END
$$$$
