butane_opt
 OpenBabel08242015393D

 14 13  0  0  0  0  0  0  0  0999 V2000
   -3.9079    0.2766    0.0843 C   0  0  0  0  0  0  0  0  0  0  0  0
   -2.6858   -0.6378   -0.0318 C   0  0  0  0  0  0  0  0  0  0  0  0
   -4.9017   -0.4285   -0.3053 H   0  0  0  0  0  0  0  0  0  0  0  0
   -3.9285    0.5920   -0.5542 H   0  0  0  0  0  0  0  0  0  0  0  0
   -4.0425    1.3145    1.1271 H   0  0  0  0  0  0  0  0  0  0  0  0
   -1.4385    0.1668   -0.0429 C   0  0  0  0  0  0  0  0  0  0  0  0
   -2.8732   -1.2557   -0.9256 H   0  0  0  0  0  0  0  0  0  0  0  0
   -2.6543   -1.2032    0.8629 H   0  0  0  0  0  0  0  0  0  0  0  0
   -0.1540   -0.6880    0.0910 C   0  0  0  0  0  0  0  0  0  0  0  0
   -1.5283    0.7176    0.7445 H   0  0  0  0  0  0  0  0  0  0  0  0
   -1.3483    1.1019   -1.1056 H   0  0  0  0  0  0  0  0  0  0  0  0
   -0.0468   -1.5470    1.1630 H   0  0  0  0  0  0  0  0  0  0  0  0
    0.8692   -0.0108   -0.1179 H   0  0  0  0  0  0  0  0  0  0  0  0
   -0.3346   -1.1848   -0.6081 H   0  0  0  0  0  0  0  0  0  0  0  0
  1  5  1  0  0  0  0
  2  1  1  0  0  0  0
  2  8  1  0  0  0  0
  3  1  1  0  0  0  0
  4  1  1  0  0  0  0
  6  2  1  0  0  0  0
  6  9  1  0  0  0  0
  6 10  1  0  0  0  0
  7  2  1  0  0  0  0
  9 12  1  0  0  0  0
 11  6  1  0  0  0  0
 13  9  1  0  0  0  0
 14  9  1  0  0  0  0
M  END
$$$$
