butane_opt
 OpenBabel08242015393D

 14 13  0  0  0  0  0  0  0  0999 V2000
   -3.9178    0.2289   -0.0473 C   0  0  0  0  0  0  0  0  0  0  0  0
   -2.7201   -0.6047    0.1099 C   0  0  0  0  0  0  0  0  0  0  0  0
   -4.7762   -0.3436   -0.1557 H   0  0  0  0  0  0  0  0  0  0  0  0
   -3.7162    1.0422   -1.1612 H   0  0  0  0  0  0  0  0  0  0  0  0
   -3.9755    0.8677    0.7049 H   0  0  0  0  0  0  0  0  0  0  0  0
   -1.4347    0.2404    0.1339 C   0  0  0  0  0  0  0  0  0  0  0  0
   -2.8182   -1.3796   -0.7837 H   0  0  0  0  0  0  0  0  0  0  0  0
   -2.7591   -1.1105    0.9267 H   0  0  0  0  0  0  0  0  0  0  0  0
   -0.1533   -0.7304   -0.0377 C   0  0  0  0  0  0  0  0  0  0  0  0
   -1.2492    1.0330    1.1453 H   0  0  0  0  0  0  0  0  0  0  0  0
   -1.5073    0.7805   -0.7478 H   0  0  0  0  0  0  0  0  0  0  0  0
    0.2012   -1.6028    0.9254 H   0  0  0  0  0  0  0  0  0  0  0  0
    0.7527   -0.1360   -0.5196 H   0  0  0  0  0  0  0  0  0  0  0  0
   -0.4700   -1.2111   -0.7893 H   0  0  0  0  0  0  0  0  0  0  0  0
  1  2  1  0  0  0  0
  1  5  1  0  0  0  0
  2  6  1  0  0  0  0
  2  8  1  0  0  0  0
  3  1  1  0  0  0  0
  4  1  1  0  0  0  0
  6 10  1  0  0  0  0
  7  2  1  0  0  0  0
  9  6  1  0  0  0  0
  9 12  1  0  0  0  0
 11  6  1  0  0  0  0
 13  9  1  0  0  0  0
 14  9  1  0  0  0  0
M  END
$$$$
