butane_opt
 OpenBabel08242015393D

 14 13  0  0  0  0  0  0  0  0999 V2000
   -3.9465    0.2508    0.0820 C   0  0  0  0  0  0  0  0  0  0  0  0
   -2.7304   -0.6074    0.0230 C   0  0  0  0  0  0  0  0  0  0  0  0
   -4.7765   -0.3075   -0.0639 H   0  0  0  0  0  0  0  0  0  0  0  0
   -3.9573    0.8576   -0.8569 H   0  0  0  0  0  0  0  0  0  0  0  0
   -3.9564    0.8225    0.9327 H   0  0  0  0  0  0  0  0  0  0  0  0
   -1.3797    0.2245   -0.0807 C   0  0  0  0  0  0  0  0  0  0  0  0
   -2.8243   -1.2757   -0.7872 H   0  0  0  0  0  0  0  0  0  0  0  0
   -2.5427   -1.1610    0.8396 H   0  0  0  0  0  0  0  0  0  0  0  0
   -0.1835   -0.7219    0.0897 C   0  0  0  0  0  0  0  0  0  0  0  0
   -1.3426    0.8568    0.7357 H   0  0  0  0  0  0  0  0  0  0  0  0
   -1.3606    0.8537   -1.0600 H   0  0  0  0  0  0  0  0  0  0  0  0
   -0.1851   -1.1459    0.8213 H   0  0  0  0  0  0  0  0  0  0  0  0
    0.6886   -0.1641    0.3723 H   0  0  0  0  0  0  0  0  0  0  0  0
    0.1105   -1.5609   -0.8946 H   0  0  0  0  0  0  0  0  0  0  0  0
  1  5  1  0  0  0  0
  2  1  1  0  0  0  0
  2  8  1  0  0  0  0
  3  1  1  0  0  0  0
  4  1  1  0  0  0  0
  6  2  1  0  0  0  0
  6  9  1  0  0  0  0
  6 10  1  0  0  0  0
  7  2  1  0  0  0  0
  9 13  1  0  0  0  0
  9 12  1  0  0  0  0
 11  6  1  0  0  0  0
 14  9  1  0  0  0  0
M  END
$$$$
