butane_opt
 OpenBabel08242015393D

 14 13  0  0  0  0  0  0  0  0999 V2000
   -3.9366    0.2907   -0.0413 C   0  0  0  0  0  0  0  0  0  0  0  0
   -2.7000   -0.6221    0.1374 C   0  0  0  0  0  0  0  0  0  0  0  0
   -4.7842   -0.2794    0.1071 H   0  0  0  0  0  0  0  0  0  0  0  0
   -3.8438    1.0125   -0.9460 H   0  0  0  0  0  0  0  0  0  0  0  0
   -4.1134    0.8540    0.7334 H   0  0  0  0  0  0  0  0  0  0  0  0
   -1.3783    0.1110    0.0422 C   0  0  0  0  0  0  0  0  0  0  0  0
   -2.6618   -1.3030   -0.6838 H   0  0  0  0  0  0  0  0  0  0  0  0
   -2.8026   -1.2720    1.0759 H   0  0  0  0  0  0  0  0  0  0  0  0
   -0.1979   -0.6663   -0.0485 C   0  0  0  0  0  0  0  0  0  0  0  0
   -1.3977    0.8983    0.9073 H   0  0  0  0  0  0  0  0  0  0  0  0
   -1.4599    0.8725   -0.9462 H   0  0  0  0  0  0  0  0  0  0  0  0
   -0.3438   -0.9638    0.6449 H   0  0  0  0  0  0  0  0  0  0  0  0
    0.8500    0.0032    0.4547 H   0  0  0  0  0  0  0  0  0  0  0  0
    0.0516   -1.6426   -1.0080 H   0  0  0  0  0  0  0  0  0  0  0  0
  1  3  1  0  0  0  0
  1  2  1  0  0  0  0
  1  5  1  0  0  0  0
  2  8  1  0  0  0  0
  4  1  1  0  0  0  0
  6  2  1  0  0  0  0
  6 10  1  0  0  0  0
  7  2  1  0  0  0  0
  9  6  1  0  0  0  0
  9 13  1  0  0  0  0
  9 12  1  0  0  0  0
 11  6  1  0  0  0  0
 14  9  1  0  0  0  0
M  END
$$$$
