butane_opt
 OpenBabel08242015393D

 14 13  0  0  0  0  0  0  0  0999 V2000
   -3.9849    0.2840   -0.1036 C   0  0  0  0  0  0  0  0  0  0  0  0
   -2.6825   -0.6729    0.1343 C   0  0  0  0  0  0  0  0  0  0  0  0
   -4.7971   -0.2174   -0.0887 H   0  0  0  0  0  0  0  0  0  0  0  0
   -4.0174    0.9215   -0.9903 H   0  0  0  0  0  0  0  0  0  0  0  0
   -4.2051    0.9862    0.7243 H   0  0  0  0  0  0  0  0  0  0  0  0
   -1.3760    0.1920    0.1325 C   0  0  0  0  0  0  0  0  0  0  0  0
   -2.6874   -1.1975   -0.5674 H   0  0  0  0  0  0  0  0  0  0  0  0
   -2.7328   -1.4335    1.1477 H   0  0  0  0  0  0  0  0  0  0  0  0
   -0.1364   -0.6616   -0.0752 C   0  0  0  0  0  0  0  0  0  0  0  0
   -1.4071    0.9824    1.0904 H   0  0  0  0  0  0  0  0  0  0  0  0
   -1.4790    0.5843   -0.6070 H   0  0  0  0  0  0  0  0  0  0  0  0
    0.0723   -1.3627    0.9204 H   0  0  0  0  0  0  0  0  0  0  0  0
    0.8556   -0.0703   -0.2724 H   0  0  0  0  0  0  0  0  0  0  0  0
   -0.4783   -1.3396   -0.9727 H   0  0  0  0  0  0  0  0  0  0  0  0
  1  3  1  0  0  0  0
  1  2  1  0  0  0  0
  1  5  1  0  0  0  0
  2  8  1  0  0  0  0
  4  1  1  0  0  0  0
  6  2  1  0  0  0  0
  6 10  1  0  0  0  0
  7  2  1  0  0  0  0
  9  6  1  0  0  0  0
  9 12  1  0  0  0  0
 11  6  1  0  0  0  0
 13  9  1  0  0  0  0
 14  9  1  0  0  0  0
M  END
$$$$
