14
butane_opt
C  -3.936580   0.290681  -0.041322
C  -2.699958  -0.622129   0.137353
H  -4.784219  -0.279422   0.107050
H  -3.843811   1.012484  -0.946018
H  -4.113392   0.853954   0.733417
C  -1.378251   0.110971   0.042156
H  -2.661783  -1.303018  -0.683804
H  -2.802573  -1.271997   1.075899
C  -0.197884  -0.666301  -0.048524
H  -1.397653   0.898330   0.907311
H  -1.459855   0.872504  -0.946244
H  -0.343787  -0.963804   0.644941
H   0.850029   0.003194   0.454714
H   0.051626  -1.642555  -1.007979
