14
butane_opt
C  -3.906741   0.257776  -0.100318
C  -2.696432  -0.594145   0.184205
H  -4.805664  -0.387155  -0.203338
H  -3.880991   0.852617  -0.955281
H  -4.155862   1.031163   0.794222
C  -1.420556   0.141897   0.092034
H  -2.553295  -1.059175  -0.499426
H  -2.707880  -1.343065   1.175664
C  -0.177044  -0.678961  -0.061405
H  -1.429241   0.933184   0.929559
H  -1.422740   0.682952  -0.773435
H  -0.093399  -1.139960   0.643656
H   0.826225   0.020314   0.088689
H  -0.378041  -1.594684  -1.142875
