butane_opt
 OpenBabel08242015393D

 14 12  0  0  0  0  0  0  0  0999 V2000
   -3.9336    0.2474   -0.0554 C   0  0  0  0  0  0  0  0  0  0  0  0
   -2.7633   -0.5896    0.1308 C   0  0  0  0  0  0  0  0  0  0  0  0
   -4.9221   -0.4228    0.1288 H   0  0  0  0  0  0  0  0  0  0  0  0
   -3.8852    0.9105   -0.9123 H   0  0  0  0  0  0  0  0  0  0  0  0
   -3.9960    0.8242    0.6986 H   0  0  0  0  0  0  0  0  0  0  0  0
   -1.4080    0.2306    0.0120 C   0  0  0  0  0  0  0  0  0  0  0  0
   -2.6978   -1.1046   -0.5544 H   0  0  0  0  0  0  0  0  0  0  0  0
   -2.7794   -1.3056    1.1728 H   0  0  0  0  0  0  0  0  0  0  0  0
   -0.1127   -0.7414   -0.0294 C   0  0  0  0  0  0  0  0  0  0  0  0
   -1.2763    0.9772    0.9008 H   0  0  0  0  0  0  0  0  0  0  0  0
   -1.5854    0.7303   -0.7295 H   0  0  0  0  0  0  0  0  0  0  0  0
   -0.2761   -1.0133    0.6900 H   0  0  0  0  0  0  0  0  0  0  0  0
    0.8765   -0.0382    0.4394 H   0  0  0  0  0  0  0  0  0  0  0  0
    0.1338   -1.8213   -1.1275 H   0  0  0  0  0  0  0  0  0  0  0  0
  1  3  1  0  0  0  0
  1  2  1  0  0  0  0
  1  5  1  0  0  0  0
  2  8  1  0  0  0  0
  4  1  1  0  0  0  0
  6  2  1  0  0  0  0
  6 10  1  0  0  0  0
  7  2  1  0  0  0  0
  9  6  1  0  0  0  0
  9 13  1  0  0  0  0
  9 12  1  0  0  0  0
 11  6  1  0  0  0  0
M  RAD  2   9   2  14   2
M  END
$$$$
