butane_opt
 OpenBabel08242015393D

 14 13  0  0  0  0  0  0  0  0999 V2000
   -3.8845    0.3031   -0.0490 C   0  0  0  0  0  0  0  0  0  0  0  0
   -2.6903   -0.6365    0.1548 C   0  0  0  0  0  0  0  0  0  0  0  0
   -4.7573   -0.3353   -0.3261 H   0  0  0  0  0  0  0  0  0  0  0  0
   -3.8864    0.7815   -0.9214 H   0  0  0  0  0  0  0  0  0  0  0  0
   -4.0687    1.0065    0.7998 H   0  0  0  0  0  0  0  0  0  0  0  0
   -1.4219    0.1777    0.0452 C   0  0  0  0  0  0  0  0  0  0  0  0
   -2.7098   -1.2749   -0.6466 H   0  0  0  0  0  0  0  0  0  0  0  0
   -2.7966   -1.4794    1.1412 H   0  0  0  0  0  0  0  0  0  0  0  0
   -0.1959   -0.6856   -0.0418 C   0  0  0  0  0  0  0  0  0  0  0  0
   -1.1377    0.9154    0.9447 H   0  0  0  0  0  0  0  0  0  0  0  0
   -1.5929    0.6622   -0.7578 H   0  0  0  0  0  0  0  0  0  0  0  0
   -0.2988   -1.1494    0.7505 H   0  0  0  0  0  0  0  0  0  0  0  0
    0.7254   -0.0462    0.0803 H   0  0  0  0  0  0  0  0  0  0  0  0
   -0.1926   -1.4386   -0.9339 H   0  0  0  0  0  0  0  0  0  0  0  0
  1  2  1  0  0  0  0
  1  5  1  0  0  0  0
  2  8  1  0  0  0  0
  3  1  1  0  0  0  0
  4  1  1  0  0  0  0
  6  2  1  0  0  0  0
  6 10  1  0  0  0  0
  7  2  1  0  0  0  0
  9  6  1  0  0  0  0
  9 13  1  0  0  0  0
  9 12  1  0  0  0  0
 11  6  1  0  0  0  0
 14  9  1  0  0  0  0
M  END
$$$$
