14
butane_opt
C  -3.970972   0.305470   0.033692
C  -2.697099  -0.696433   0.063517
H  -4.877044  -0.202226  -0.454674
H  -3.798272   0.546331  -0.628267
H  -4.215294   1.378862   1.141062
C  -1.389075   0.162689  -0.059653
H  -2.740987  -1.356650  -0.729652
H  -2.501066  -1.349419   1.000979
C  -0.187292  -0.662009   0.052907
H  -1.315566   0.930827   0.793597
H  -1.309747   0.865227  -0.985421
H  -0.023316  -1.383065   0.995453
H   0.775440  -0.072726   0.011511
H  -0.110814  -1.153018  -0.741849
