14
butane_opt
C  -3.935056   0.273906  -0.040931
C  -2.657490  -0.624685   0.083704
H  -4.820083  -0.346125   0.331514
H  -4.097628   1.274840  -1.150476
H  -4.012611   0.613147   0.499330
C  -1.416291   0.131825   0.110647
H  -2.609213  -1.280548  -0.726977
H  -2.783340  -1.083374   0.889999
C  -0.176334  -0.669747  -0.036168
H  -1.327025   0.952563   1.134752
H  -1.471675   0.628284  -0.700147
H  -0.257980  -1.257551   0.836011
H   0.780023   0.032211  -0.141332
H  -0.204502  -1.339188  -0.981822
