14
butane_opt
C  -3.954311   0.226830   0.036835
C  -2.729622  -0.594140   0.004863
H  -4.884478  -0.425156  -0.090839
H  -3.701566   0.710055  -0.887506
H  -4.016708   1.053504   0.962995
C  -1.435044   0.232795   0.022735
H  -2.619353  -1.144341  -0.818978
H  -2.770752  -1.146499   0.883681
C  -0.119018  -0.735371   0.033601
H  -1.475373   0.986815   0.965836
H  -1.433177   0.782395  -0.757599
H   0.120140  -1.656059   1.148816
H   0.817622  -0.137456  -0.421238
H  -0.202673  -1.064905  -0.665016
