14
butane_opt
C  -3.962826   0.278574   0.001705
C  -2.700066  -0.633450   0.058316
H  -4.872583  -0.318412   0.030853
H  -4.015605   0.920813  -0.875047
H  -3.945466   0.948284   0.875997
C  -1.388764   0.168772   0.010219
H  -2.662029  -1.260143  -0.755572
H  -2.759779  -1.303540   0.970577
C  -0.163097  -0.678654   0.020964
H  -1.365508   0.886302   0.875119
H  -1.381076   0.801598  -0.868701
H  -0.135764  -1.236862   0.866689
H   0.767827  -0.083788   0.103647
H  -0.088079  -1.447687  -0.886205
