14
butane_opt
C  -3.950221   0.302511   0.062918
C  -2.708105  -0.655716  -0.042900
H  -4.815159  -0.183035   0.373885
H  -4.189424   1.203150  -0.943626
H  -3.662115   0.708250   0.799504
C  -1.407430   0.132642   0.006475
H  -2.676484  -1.409567  -0.949634
H  -2.716075  -1.092314   0.720891
C  -0.166743  -0.666840   0.078472
H  -1.302208   0.673626   0.756494
H  -1.371557   0.868632  -0.854798
H  -0.259784  -1.304972   1.010218
H   0.957960   0.075846   0.096720
H  -0.237641  -1.332915  -0.851409
