14
butane_opt
C  -3.939320   0.237969   0.042843
C  -2.712040  -0.595826   0.011114
H  -4.844474  -0.422174  -0.105414
H  -3.921151   0.453459  -0.560007
H  -3.997994   1.197799   1.185139
C  -1.425579   0.236343  -0.072826
H  -2.814109  -1.188110  -0.816981
H  -2.779924  -1.202846   0.931495
C  -0.123080  -0.699956   0.099860
H  -1.404169   0.724070   0.620335
H  -1.467684   0.970526  -1.037803
H  -0.068798  -1.386261   1.048357
H   0.649649  -0.305881   0.098654
H   0.035417  -1.484809  -0.848311
