butane_opt
 OpenBabel08242015393D

 14 13  0  0  0  0  0  0  0  0999 V2000
   -3.8872    0.2303    0.0466 C   0  0  0  0  0  0  0  0  0  0  0  0
   -2.6875   -0.5601   -0.0080 C   0  0  0  0  0  0  0  0  0  0  0  0
   -4.8524   -0.3541    0.0145 H   0  0  0  0  0  0  0  0  0  0  0  0
   -3.9553    0.8335   -0.7504 H   0  0  0  0  0  0  0  0  0  0  0  0
   -3.9510    0.9308    0.9288 H   0  0  0  0  0  0  0  0  0  0  0  0
   -1.4302    0.2104   -0.0011 C   0  0  0  0  0  0  0  0  0  0  0  0
   -2.6866   -1.5506   -1.0128 H   0  0  0  0  0  0  0  0  0  0  0  0
   -2.8014   -1.0932    0.7861 H   0  0  0  0  0  0  0  0  0  0  0  0
   -0.1840   -0.7236    0.0676 C   0  0  0  0  0  0  0  0  0  0  0  0
   -1.3680    0.8945    0.9282 H   0  0  0  0  0  0  0  0  0  0  0  0
   -1.4308    0.7836   -0.8150 H   0  0  0  0  0  0  0  0  0  0  0  0
   -0.1121   -1.6714    1.1441 H   0  0  0  0  0  0  0  0  0  0  0  0
    0.6674   -0.1286   -0.4984 H   0  0  0  0  0  0  0  0  0  0  0  0
   -0.2414   -0.9919   -0.5132 H   0  0  0  0  0  0  0  0  0  0  0  0
  1  5  1  0  0  0  0
  2  6  1  0  0  0  0
  2  1  1  0  0  0  0
  2  8  1  0  0  0  0
  3  1  1  0  0  0  0
  4  1  1  0  0  0  0
  6  9  1  0  0  0  0
  6 10  1  0  0  0  0
  7  2  1  0  0  0  0
  9 12  1  0  0  0  0
 11  6  1  0  0  0  0
 13  9  1  0  0  0  0
 14  9  1  0  0  0  0
M  END
$$$$
