butane_opt
 OpenBabel08242015393D

 14 13  0  0  0  0  0  0  0  0999 V2000
   -3.9608    0.2806    0.0739 C   0  0  0  0  0  0  0  0  0  0  0  0
   -2.7247   -0.6147   -0.0224 C   0  0  0  0  0  0  0  0  0  0  0  0
   -4.8655   -0.2938    0.0068 H   0  0  0  0  0  0  0  0  0  0  0  0
   -4.0674    0.7293   -0.6282 H   0  0  0  0  0  0  0  0  0  0  0  0
   -3.9110    1.1371    1.1203 H   0  0  0  0  0  0  0  0  0  0  0  0
   -1.4006    0.1624   -0.0875 C   0  0  0  0  0  0  0  0  0  0  0  0
   -2.6088   -1.3502   -0.8444 H   0  0  0  0  0  0  0  0  0  0  0  0
   -2.7785   -1.4197    0.9960 H   0  0  0  0  0  0  0  0  0  0  0  0
   -0.1357   -0.6993    0.0928 C   0  0  0  0  0  0  0  0  0  0  0  0
   -1.4609    0.8036    0.7002 H   0  0  0  0  0  0  0  0  0  0  0  0
   -1.3550    0.8369   -1.0352 H   0  0  0  0  0  0  0  0  0  0  0  0
   -0.3194   -1.1431    1.0020 H   0  0  0  0  0  0  0  0  0  0  0  0
    0.8700    0.0073    0.2159 H   0  0  0  0  0  0  0  0  0  0  0  0
    0.1153   -1.3112   -0.7651 H   0  0  0  0  0  0  0  0  0  0  0  0
  1  5  1  0  0  0  0
  2  1  1  0  0  0  0
  2  8  1  0  0  0  0
  3  1  1  0  0  0  0
  4  1  1  0  0  0  0
  6  2  1  0  0  0  0
  6  9  1  0  0  0  0
  6 10  1  0  0  0  0
  7  2  1  0  0  0  0
  9 13  1  0  0  0  0
  9 12  1  0  0  0  0
 11  6  1  0  0  0  0
 14  9  1  0  0  0  0
M  END
$$$$
