14
butane_opt
C  -3.930819   0.305287  -0.070025
C  -2.702253  -0.629390   0.172207
H  -4.867153  -0.330159  -0.059240
H  -3.644533   0.897162  -1.045962
H  -4.054197   0.783760   0.646493
C  -1.408810   0.157013   0.085277
H  -2.707953  -1.193051  -0.643405
H  -2.570208  -1.411749   1.201020
C  -0.215052  -0.689587  -0.065239
H  -1.260422   0.900596   0.934981
H  -1.362879   0.793676  -0.849309
H  -0.234671  -0.894126   0.595812
H   0.793914  -0.040970   0.295223
H  -0.058938  -1.699830  -1.152468
