14
butane_opt
C  -3.931761   0.272783   0.095797
C  -2.690210  -0.607876  -0.053559
H  -4.775073  -0.264754   0.358746
H  -4.031114   1.005589  -0.827013
H  -3.922569   0.827722   0.929029
C  -1.435685   0.133601  -0.087557
H  -2.720636  -1.314538  -0.873192
H  -2.655302  -1.317741   0.859597
C  -0.179144  -0.685268   0.094932
H  -1.455174   0.973892   0.834504
H  -1.286596   0.743925  -1.016253
H  -0.348601  -1.107262   0.957165
H   0.915712  -0.004843   0.343367
H   0.070244  -1.342780  -0.735913
