butane_opt
 OpenBabel08242015393D

 14 13  0  0  0  0  0  0  0  0999 V2000
   -3.9241    0.2939    0.0596 C   0  0  0  0  0  0  0  0  0  0  0  0
   -2.6792   -0.6252    0.0289 C   0  0  0  0  0  0  0  0  0  0  0  0
   -4.8921   -0.4259    0.1191 H   0  0  0  0  0  0  0  0  0  0  0  0
   -3.9303    0.7989   -0.7923 H   0  0  0  0  0  0  0  0  0  0  0  0
   -3.8196    0.9900    0.9407 H   0  0  0  0  0  0  0  0  0  0  0  0
   -1.4143    0.1550   -0.0926 C   0  0  0  0  0  0  0  0  0  0  0  0
   -2.7275   -1.2935   -0.8257 H   0  0  0  0  0  0  0  0  0  0  0  0
   -2.7062   -1.1822    0.9112 H   0  0  0  0  0  0  0  0  0  0  0  0
   -0.2089   -0.6879    0.0638 C   0  0  0  0  0  0  0  0  0  0  0  0
   -1.3967    0.9531    0.8567 H   0  0  0  0  0  0  0  0  0  0  0  0
   -1.3409    0.7438   -1.0240 H   0  0  0  0  0  0  0  0  0  0  0  0
   -0.3469   -1.2632    0.9735 H   0  0  0  0  0  0  0  0  0  0  0  0
    0.7906   -0.0277    0.4360 H   0  0  0  0  0  0  0  0  0  0  0  0
    0.0377   -1.4003   -0.8583 H   0  0  0  0  0  0  0  0  0  0  0  0
  1  3  1  0  0  0  0
  1  5  1  0  0  0  0
  2  1  1  0  0  0  0
  2  8  1  0  0  0  0
  4  1  1  0  0  0  0
  6  2  1  0  0  0  0
  6  9  1  0  0  0  0
  6 10  1  0  0  0  0
  7  2  1  0  0  0  0
  9 13  1  0  0  0  0
  9 12  1  0  0  0  0
 11  6  1  0  0  0  0
 14  9  1  0  0  0  0
M  END
$$$$
