14
butane_opt
C  -3.945576   0.264153  -0.031791
C  -2.748542  -0.625188   0.095453
H  -4.877756  -0.351542  -0.181281
H  -3.934190   0.908221  -0.952551
H  -4.069640   0.944028   0.688092
C  -1.385186   0.201685   0.075022
H  -2.720978  -1.243845  -0.733464
H  -2.671531  -1.233385   1.021188
C  -0.141240  -0.700569  -0.023849
H  -1.186631   1.053573   1.030545
H  -1.440565   0.585490  -0.641916
H   0.131609  -1.442226   0.923286
H   0.622851  -0.248990  -0.345412
H  -0.210229  -1.144777  -0.738829
