butane_opt
 OpenBabel08242015393D

 14 13  0  0  0  0  0  0  0  0999 V2000
   -3.9362    0.2649    0.0465 C   0  0  0  0  0  0  0  0  0  0  0  0
   -2.6934   -0.6124    0.0171 C   0  0  0  0  0  0  0  0  0  0  0  0
   -4.8472   -0.3109    0.0098 H   0  0  0  0  0  0  0  0  0  0  0  0
   -3.9771    0.8069   -0.8017 H   0  0  0  0  0  0  0  0  0  0  0  0
   -3.9508    0.9943    0.9753 H   0  0  0  0  0  0  0  0  0  0  0  0
   -1.4093    0.1769   -0.0418 C   0  0  0  0  0  0  0  0  0  0  0  0
   -2.7076   -1.3341   -0.8602 H   0  0  0  0  0  0  0  0  0  0  0  0
   -2.6448   -1.2647    0.9490 H   0  0  0  0  0  0  0  0  0  0  0  0
   -0.1698   -0.6844    0.0641 C   0  0  0  0  0  0  0  0  0  0  0  0
   -1.3628    0.8371    0.8110 H   0  0  0  0  0  0  0  0  0  0  0  0
   -1.4174    0.8177   -0.9447 H   0  0  0  0  0  0  0  0  0  0  0  0
   -0.2605   -1.2785    0.9672 H   0  0  0  0  0  0  0  0  0  0  0  0
    0.7041   -0.1099    0.1071 H   0  0  0  0  0  0  0  0  0  0  0  0
   -0.0494   -1.3730   -0.8022 H   0  0  0  0  0  0  0  0  0  0  0  0
  1  5  1  0  0  0  0
  2  1  1  0  0  0  0
  2  8  1  0  0  0  0
  3  1  1  0  0  0  0
  4  1  1  0  0  0  0
  6  2  1  0  0  0  0
  6  9  1  0  0  0  0
  6 10  1  0  0  0  0
  7  2  1  0  0  0  0
  9 13  1  0  0  0  0
  9 12  1  0  0  0  0
 11  6  1  0  0  0  0
 14  9  1  0  0  0  0
M  END
$$$$
