butane_opt
 OpenBabel08242015393D

 14 13  0  0  0  0  0  0  0  0999 V2000
   -3.9456    0.2642   -0.0318 C   0  0  0  0  0  0  0  0  0  0  0  0
   -2.7485   -0.6252    0.0955 C   0  0  0  0  0  0  0  0  0  0  0  0
   -4.8778   -0.3515   -0.1813 H   0  0  0  0  0  0  0  0  0  0  0  0
   -3.9342    0.9082   -0.9526 H   0  0  0  0  0  0  0  0  0  0  0  0
   -4.0696    0.9440    0.6881 H   0  0  0  0  0  0  0  0  0  0  0  0
   -1.3852    0.2017    0.0750 C   0  0  0  0  0  0  0  0  0  0  0  0
   -2.7210   -1.2438   -0.7335 H   0  0  0  0  0  0  0  0  0  0  0  0
   -2.6715   -1.2334    1.0212 H   0  0  0  0  0  0  0  0  0  0  0  0
   -0.1412   -0.7006   -0.0238 C   0  0  0  0  0  0  0  0  0  0  0  0
   -1.1866    1.0536    1.0305 H   0  0  0  0  0  0  0  0  0  0  0  0
   -1.4406    0.5855   -0.6419 H   0  0  0  0  0  0  0  0  0  0  0  0
    0.1316   -1.4422    0.9233 H   0  0  0  0  0  0  0  0  0  0  0  0
    0.6229   -0.2490   -0.3454 H   0  0  0  0  0  0  0  0  0  0  0  0
   -0.2102   -1.1448   -0.7388 H   0  0  0  0  0  0  0  0  0  0  0  0
  1  2  1  0  0  0  0
  1  5  1  0  0  0  0
  2  8  1  0  0  0  0
  3  1  1  0  0  0  0
  4  1  1  0  0  0  0
  6  2  1  0  0  0  0
  6 10  1  0  0  0  0
  7  2  1  0  0  0  0
  9  6  1  0  0  0  0
  9 12  1  0  0  0  0
 11  6  1  0  0  0  0
 13  9  1  0  0  0  0
 14  9  1  0  0  0  0
M  END
$$$$
