14
butane_opt
C  -3.954014   0.228353   0.057453
C  -2.724987  -0.570458   0.021431
H  -4.780778  -0.298408  -0.201439
H  -3.924028   0.705053  -0.762614
H  -3.942954   0.966035   0.979231
C  -1.417543   0.201071  -0.057043
H  -2.827941  -1.215171  -0.852205
H  -2.555541  -1.220228   0.933323
C  -0.113610  -0.711785   0.074152
H  -1.463753   0.904110   0.837007
H  -1.515015   0.753643  -0.868248
H  -0.146476  -1.466615   0.975227
H   0.764185  -0.047703   0.018389
H  -0.109876  -1.317345  -0.768864
