butane_opt
 OpenBabel08242015393D

 14 13  0  0  0  0  0  0  0  0999 V2000
   -3.9182    0.2406   -0.0673 C   0  0  0  0  0  0  0  0  0  0  0  0
   -2.6892   -0.5803    0.1499 C   0  0  0  0  0  0  0  0  0  0  0  0
   -4.8609   -0.4588   -0.0877 H   0  0  0  0  0  0  0  0  0  0  0  0
   -3.8394    0.8210   -0.9405 H   0  0  0  0  0  0  0  0  0  0  0  0
   -4.0498    0.8360    0.7311 H   0  0  0  0  0  0  0  0  0  0  0  0
   -1.4158    0.2280    0.0801 C   0  0  0  0  0  0  0  0  0  0  0  0
   -2.6158   -1.1843   -0.6270 H   0  0  0  0  0  0  0  0  0  0  0  0
   -2.7070   -1.4700    1.2095 H   0  0  0  0  0  0  0  0  0  0  0  0
   -0.1814   -0.7166   -0.0651 C   0  0  0  0  0  0  0  0  0  0  0  0
   -1.3744    0.9712    0.8981 H   0  0  0  0  0  0  0  0  0  0  0  0
   -1.5121    0.8786   -0.8193 H   0  0  0  0  0  0  0  0  0  0  0  0
   -0.1494   -1.1023    0.6465 H   0  0  0  0  0  0  0  0  0  0  0  0
    0.6131   -0.2153    0.3292 H   0  0  0  0  0  0  0  0  0  0  0  0
   -0.0431   -1.6379   -1.0877 H   0  0  0  0  0  0  0  0  0  0  0  0
  1  2  1  0  0  0  0
  1  5  1  0  0  0  0
  2  8  1  0  0  0  0
  3  1  1  0  0  0  0
  4  1  1  0  0  0  0
  6  2  1  0  0  0  0
  6 10  1  0  0  0  0
  7  2  1  0  0  0  0
  9  6  1  0  0  0  0
  9 13  1  0  0  0  0
  9 12  1  0  0  0  0
 11  6  1  0  0  0  0
 14  9  1  0  0  0  0
M  END
$$$$
