14
butane_opt
C  -3.946475   0.250779   0.082048
C  -2.730441  -0.607391   0.023002
H  -4.776455  -0.307525  -0.063907
H  -3.957285   0.857628  -0.856927
H  -3.956355   0.822504   0.932655
C  -1.379725   0.224539  -0.080681
H  -2.824328  -1.275748  -0.787193
H  -2.542701  -1.160976   0.839573
C  -0.183496  -0.721945   0.089735
H  -1.342588   0.856820   0.735666
H  -1.360596   0.853667  -1.060045
H  -0.185059  -1.145891   0.821273
H   0.688584  -0.164145   0.372334
H   0.110537  -1.560936  -0.894623
