butane_opt
 OpenBabel08242015393D

 14 11  0  0  0  0  0  0  0  0999 V2000
   -3.9007    0.2354   -0.0817 C   0  0  0  0  0  0  0  0  0  0  0  0
   -2.6997   -0.5727    0.1635 C   0  0  0  0  0  0  0  0  0  0  0  0
   -4.6977   -0.3032    0.1900 H   0  0  0  0  0  0  0  0  0  0  0  0
   -3.9139    0.9746   -1.0266 H   0  0  0  0  0  0  0  0  0  0  0  0
   -3.8735    0.7828    0.6839 H   0  0  0  0  0  0  0  0  0  0  0  0
   -1.3953    0.1965    0.0638 C   0  0  0  0  0  0  0  0  0  0  0  0
   -2.6456   -1.2187   -0.6002 H   0  0  0  0  0  0  0  0  0  0  0  0
   -2.9293   -1.3366    1.1756 H   0  0  0  0  0  0  0  0  0  0  0  0
   -0.1968   -0.7155   -0.0482 C   0  0  0  0  0  0  0  0  0  0  0  0
   -1.5038    0.8272    0.8295 H   0  0  0  0  0  0  0  0  0  0  0  0
   -1.4873    0.8839   -0.8094 H   0  0  0  0  0  0  0  0  0  0  0  0
   -0.2854   -0.8026    0.5290 H   0  0  0  0  0  0  0  0  0  0  0  0
    0.6544   -0.1405    0.4645 H   0  0  0  0  0  0  0  0  0  0  0  0
   -0.0307   -1.8673   -1.2222 H   0  0  0  0  0  0  0  0  0  0  0  0
  1  2  1  0  0  0  0
  1  3  1  0  0  0  0
  1  5  1  0  0  0  0
  2  8  1  0  0  0  0
  4  1  1  0  0  0  0
  6  2  1  0  0  0  0
  6 10  1  0  0  0  0
  7  2  1  0  0  0  0
  9  6  1  0  0  0  0
  9 13  1  0  0  0  0
 11  6  1  0  0  0  0
M  RAD  3   9   3  12   2  14   2
M  END
$$$$
