14
butane_opt
C  -3.929942   0.254727  -0.006013
C  -2.705618  -0.610070   0.069509
H  -4.848124  -0.305793  -0.105312
H  -3.925862   0.841356  -0.878008
H  -4.011536   1.004085   0.919597
C  -1.405511   0.191538   0.028024
H  -2.714169  -1.232787  -0.739796
H  -2.715644  -1.293032   0.994887
C  -0.161144  -0.697549   0.009251
H  -1.364616   0.830271   0.874738
H  -1.422629   0.811012  -0.852038
H  -0.158878  -1.285272   0.890815
H   0.733327  -0.118871   0.000152
H  -0.160088  -1.390758  -0.877323
