butane_opt
 OpenBabel08242015393D

 14 13  0  0  0  0  0  0  0  0999 V2000
   -3.9356    0.2703    0.0049 C   0  0  0  0  0  0  0  0  0  0  0  0
   -2.6958   -0.6245    0.0635 C   0  0  0  0  0  0  0  0  0  0  0  0
   -4.8099   -0.2787   -0.0863 H   0  0  0  0  0  0  0  0  0  0  0  0
   -3.9042    0.8250   -0.8662 H   0  0  0  0  0  0  0  0  0  0  0  0
   -4.0085    1.0159    0.9117 H   0  0  0  0  0  0  0  0  0  0  0  0
   -1.4029    0.1751    0.0146 C   0  0  0  0  0  0  0  0  0  0  0  0
   -2.6971   -1.2864   -0.7704 H   0  0  0  0  0  0  0  0  0  0  0  0
   -2.7351   -1.2973    0.9854 H   0  0  0  0  0  0  0  0  0  0  0  0
   -0.1769   -0.6805    0.0088 C   0  0  0  0  0  0  0  0  0  0  0  0
   -1.3889    0.8570    0.9027 H   0  0  0  0  0  0  0  0  0  0  0  0
   -1.4147    0.7959   -0.8636 H   0  0  0  0  0  0  0  0  0  0  0  0
   -0.1567   -1.3428    0.9519 H   0  0  0  0  0  0  0  0  0  0  0  0
    0.7647   -0.0810    0.0331 H   0  0  0  0  0  0  0  0  0  0  0  0
   -0.1537   -1.3536   -0.8496 H   0  0  0  0  0  0  0  0  0  0  0  0
  1  2  1  0  0  0  0
  1  5  1  0  0  0  0
  2  8  1  0  0  0  0
  3  1  1  0  0  0  0
  4  1  1  0  0  0  0
  6  2  1  0  0  0  0
  6 10  1  0  0  0  0
  7  2  1  0  0  0  0
  9  6  1  0  0  0  0
  9 13  1  0  0  0  0
  9 12  1  0  0  0  0
 11  6  1  0  0  0  0
 14  9  1  0  0  0  0
M  END
$$$$
