butane_opt
 OpenBabel08242015393D

 14 13  0  0  0  0  0  0  0  0999 V2000
   -3.9450    0.2306    0.0386 C   0  0  0  0  0  0  0  0  0  0  0  0
   -2.6908   -0.5626    0.0040 C   0  0  0  0  0  0  0  0  0  0  0  0
   -4.8621   -0.4083    0.0609 H   0  0  0  0  0  0  0  0  0  0  0  0
   -3.9771    0.8778   -0.8715 H   0  0  0  0  0  0  0  0  0  0  0  0
   -3.7363    0.8586    0.9781 H   0  0  0  0  0  0  0  0  0  0  0  0
   -1.4079    0.1744   -0.0211 C   0  0  0  0  0  0  0  0  0  0  0  0
   -2.7185   -1.1996   -0.8017 H   0  0  0  0  0  0  0  0  0  0  0  0
   -2.4775   -1.1198    0.9429 H   0  0  0  0  0  0  0  0  0  0  0  0
   -0.1889   -0.7081    0.0683 C   0  0  0  0  0  0  0  0  0  0  0  0
   -1.5260    0.7926    0.7820 H   0  0  0  0  0  0  0  0  0  0  0  0
   -1.3488    0.8745   -0.9482 H   0  0  0  0  0  0  0  0  0  0  0  0
   -0.1450   -1.1850    0.8658 H   0  0  0  0  0  0  0  0  0  0  0  0
    0.7111   -0.1809    0.1395 H   0  0  0  0  0  0  0  0  0  0  0  0
   -0.1332   -1.4072   -0.8251 H   0  0  0  0  0  0  0  0  0  0  0  0
  1  3  1  0  0  0  0
  1  5  1  0  0  0  0
  2  1  1  0  0  0  0
  2  8  1  0  0  0  0
  4  1  1  0  0  0  0
  6  2  1  0  0  0  0
  6  9  1  0  0  0  0
  6 10  1  0  0  0  0
  7  2  1  0  0  0  0
  9 13  1  0  0  0  0
  9 12  1  0  0  0  0
 11  6  1  0  0  0  0
 14  9  1  0  0  0  0
M  END
$$$$
