14
butane_opt
C  -3.936952   0.280404  -0.027559
C  -2.675687  -0.607741   0.084990
H  -4.869340  -0.276130   0.057561
H  -4.000961   0.973586  -0.961150
H  -3.953155   0.869836   0.880171
C  -1.436216   0.128264   0.024253
H  -2.597954  -1.241202  -0.712163
H  -2.780738  -1.476166   1.065327
C  -0.153537  -0.661687   0.008692
H  -1.403302   0.889315   0.977326
H  -1.338408   0.708921  -0.857051
H  -0.170142  -1.017735   0.692264
H   0.808380  -0.100304   0.148763
H  -0.291603  -1.449554  -0.957525
