butane_opt
 OpenBabel08242015393D

 14 13  0  0  0  0  0  0  0  0999 V2000
   -3.8847    0.2324    0.0605 C   0  0  0  0  0  0  0  0  0  0  0  0
   -2.6957   -0.5649    0.0436 C   0  0  0  0  0  0  0  0  0  0  0  0
   -4.8447   -0.3481   -0.3600 H   0  0  0  0  0  0  0  0  0  0  0  0
   -3.8220    0.4454   -0.6230 H   0  0  0  0  0  0  0  0  0  0  0  0
   -4.0214    1.2399    1.1530 H   0  0  0  0  0  0  0  0  0  0  0  0
   -1.4033    0.2155   -0.0911 C   0  0  0  0  0  0  0  0  0  0  0  0
   -2.7928   -1.2735   -0.8819 H   0  0  0  0  0  0  0  0  0  0  0  0
   -2.7969   -1.3094    0.9735 H   0  0  0  0  0  0  0  0  0  0  0  0
   -0.1936   -0.7159    0.0679 C   0  0  0  0  0  0  0  0  0  0  0  0
   -1.3410    0.9173    0.7574 H   0  0  0  0  0  0  0  0  0  0  0  0
   -1.5581    0.8848   -0.9710 H   0  0  0  0  0  0  0  0  0  0  0  0
   -0.2332   -1.5177    1.0646 H   0  0  0  0  0  0  0  0  0  0  0  0
    0.6519   -0.2424    0.1318 H   0  0  0  0  0  0  0  0  0  0  0  0
   -0.1089   -1.2965   -0.7039 H   0  0  0  0  0  0  0  0  0  0  0  0
  1  5  1  0  0  0  0
  2  1  1  0  0  0  0
  2  8  1  0  0  0  0
  3  1  1  0  0  0  0
  4  1  1  0  0  0  0
  6  2  1  0  0  0  0
  6  9  1  0  0  0  0
  6 10  1  0  0  0  0
  7  2  1  0  0  0  0
  9 13  1  0  0  0  0
  9 12  1  0  0  0  0
 11  6  1  0  0  0  0
 14  9  1  0  0  0  0
M  END
$$$$
