14
butane_opt
C  -3.948384   0.303428   0.048766
C  -2.705333  -0.680714  -0.041227
H  -4.767927  -0.299046   0.096647
H  -4.328779   0.899590  -0.738728
H  -3.878814   1.068226   1.048723
C  -1.405904   0.159981   0.004030
H  -2.794718  -1.487435  -1.029355
H  -2.689135  -1.046583   0.724618
C  -0.143542  -0.670478   0.093880
H  -1.302952   0.718893   0.820501
H  -1.278459   0.974622  -0.994245
H  -0.041975  -1.591666   1.155176
H   0.825055  -0.004031  -0.310713
H  -0.329662  -1.035092  -0.572017
