butane_opt
 OpenBabel08242015393D

 14 13  0  0  0  0  0  0  0  0999 V2000
   -3.9855    0.2950   -0.0230 C   0  0  0  0  0  0  0  0  0  0  0  0
   -2.6776   -0.6625    0.0526 C   0  0  0  0  0  0  0  0  0  0  0  0
   -4.8663   -0.2441   -0.0493 H   0  0  0  0  0  0  0  0  0  0  0  0
   -4.0489    0.8842   -0.8536 H   0  0  0  0  0  0  0  0  0  0  0  0
   -4.0757    1.0634    0.8584 H   0  0  0  0  0  0  0  0  0  0  0  0
   -1.3546    0.1655    0.0893 C   0  0  0  0  0  0  0  0  0  0  0  0
   -2.6387   -1.4342   -0.8669 H   0  0  0  0  0  0  0  0  0  0  0  0
   -2.7848   -1.1729    0.9205 H   0  0  0  0  0  0  0  0  0  0  0  0
   -0.2004   -0.6681    0.0174 C   0  0  0  0  0  0  0  0  0  0  0  0
   -1.1695    0.7612    0.8189 H   0  0  0  0  0  0  0  0  0  0  0  0
   -1.4003    0.8065   -0.8117 H   0  0  0  0  0  0  0  0  0  0  0  0
    0.1982   -1.5388    0.9660 H   0  0  0  0  0  0  0  0  0  0  0  0
    0.7441   -0.0184   -0.3735 H   0  0  0  0  0  0  0  0  0  0  0  0
   -0.3769   -1.1219   -0.7481 H   0  0  0  0  0  0  0  0  0  0  0  0
  1  2  1  0  0  0  0
  1  5  1  0  0  0  0
  2  6  1  0  0  0  0
  2  8  1  0  0  0  0
  3  1  1  0  0  0  0
  4  1  1  0  0  0  0
  6 10  1  0  0  0  0
  7  2  1  0  0  0  0
  9  6  1  0  0  0  0
  9 12  1  0  0  0  0
 11  6  1  0  0  0  0
 13  9  1  0  0  0  0
 14  9  1  0  0  0  0
M  END
$$$$
