butane_opt
 OpenBabel08242015393D

 14 12  0  0  0  0  0  0  0  0999 V2000
   -3.9710    0.3055    0.0337 C   0  0  0  0  0  0  0  0  0  0  0  0
   -2.6971   -0.6964    0.0635 C   0  0  0  0  0  0  0  0  0  0  0  0
   -4.8770   -0.2022   -0.4547 H   0  0  0  0  0  0  0  0  0  0  0  0
   -3.7983    0.5463   -0.6283 H   0  0  0  0  0  0  0  0  0  0  0  0
   -4.2153    1.3789    1.1411 H   0  0  0  0  0  0  0  0  0  0  0  0
   -1.3891    0.1627   -0.0597 C   0  0  0  0  0  0  0  0  0  0  0  0
   -2.7410   -1.3566   -0.7297 H   0  0  0  0  0  0  0  0  0  0  0  0
   -2.5011   -1.3494    1.0010 H   0  0  0  0  0  0  0  0  0  0  0  0
   -0.1873   -0.6620    0.0529 C   0  0  0  0  0  0  0  0  0  0  0  0
   -1.3156    0.9308    0.7936 H   0  0  0  0  0  0  0  0  0  0  0  0
   -1.3097    0.8652   -0.9854 H   0  0  0  0  0  0  0  0  0  0  0  0
   -0.0233   -1.3831    0.9955 H   0  0  0  0  0  0  0  0  0  0  0  0
    0.7754   -0.0727    0.0115 H   0  0  0  0  0  0  0  0  0  0  0  0
   -0.1108   -1.1530   -0.7418 H   0  0  0  0  0  0  0  0  0  0  0  0
  1  2  1  0  0  0  0
  2  8  1  0  0  0  0
  3  1  1  0  0  0  0
  4  1  1  0  0  0  0
  6  9  1  0  0  0  0
  6  2  1  0  0  0  0
  6 10  1  0  0  0  0
  7  2  1  0  0  0  0
  9 12  1  0  0  0  0
 11  6  1  0  0  0  0
 13  9  1  0  0  0  0
 14  9  1  0  0  0  0
M  RAD  2   1   2   5   2
M  END
$$$$
