14
butane_opt
C  -4.010679   0.293346  -0.065942
C  -2.690683  -0.658660   0.143420
H  -4.908731  -0.239994  -0.193297
H  -3.946075   1.036070  -1.056834
H  -4.107057   0.854259   0.696081
C  -1.369668   0.177192   0.115254
H  -2.678058  -1.217207  -0.590038
H  -2.673887  -1.373877   1.063446
C  -0.139346  -0.684529  -0.076984
H  -1.215827   1.007445   1.021033
H  -1.281834   0.547117  -0.648035
H  -0.196276  -1.226736   0.772664
H   0.781177  -0.168260  -0.101641
H  -0.255208  -1.216884  -0.943263
