14
butane_opt
C  -3.922006   0.221823   0.089272
C  -2.750813  -0.587212   0.020383
H  -4.916198  -0.357551  -0.494706
H  -3.675436   0.511459  -0.614241
H  -4.140959   1.259966   1.151176
C  -1.419418   0.240016  -0.061584
H  -2.829903  -1.338237  -0.822110
H  -2.621393  -1.097367   0.847928
C  -0.142599  -0.737404   0.074326
H  -1.489168   0.764464   0.618259
H  -1.307925   1.035422  -1.059156
H   0.101219  -1.519657   1.008457
H   0.673500  -0.206181  -0.014811
H   0.010633  -1.199548  -0.602414
