14
butane_opt
C  -3.965104   0.265080   0.135594
C  -2.713956  -0.617060  -0.114614
H  -5.017639  -0.370996   0.477301
H  -4.123644   1.093404  -0.907194
H  -3.743914   0.721149   0.857467
C  -1.403494   0.209072  -0.062026
H  -2.801752  -1.535212  -1.110114
H  -2.606755  -1.047710   0.657069
C  -0.113010  -0.689272   0.134907
H  -1.439460   0.746548   0.745398
H  -1.518143   0.803143  -0.987984
H  -0.198218  -1.528254   1.176823
H   0.779666  -0.107803   0.097405
H  -0.016493  -1.246522  -0.683904
