butane_opt
 OpenBabel08242015393D

 14 13  0  0  0  0  0  0  0  0999 V2000
   -3.9220    0.2218    0.0893 C   0  0  0  0  0  0  0  0  0  0  0  0
   -2.7508   -0.5872    0.0204 C   0  0  0  0  0  0  0  0  0  0  0  0
   -4.9162   -0.3576   -0.4947 H   0  0  0  0  0  0  0  0  0  0  0  0
   -3.6754    0.5115   -0.6142 H   0  0  0  0  0  0  0  0  0  0  0  0
   -4.1410    1.2600    1.1512 H   0  0  0  0  0  0  0  0  0  0  0  0
   -1.4194    0.2400   -0.0616 C   0  0  0  0  0  0  0  0  0  0  0  0
   -2.8299   -1.3382   -0.8221 H   0  0  0  0  0  0  0  0  0  0  0  0
   -2.6214   -1.0974    0.8479 H   0  0  0  0  0  0  0  0  0  0  0  0
   -0.1426   -0.7374    0.0743 C   0  0  0  0  0  0  0  0  0  0  0  0
   -1.4892    0.7645    0.6183 H   0  0  0  0  0  0  0  0  0  0  0  0
   -1.3079    1.0354   -1.0592 H   0  0  0  0  0  0  0  0  0  0  0  0
    0.1012   -1.5197    1.0085 H   0  0  0  0  0  0  0  0  0  0  0  0
    0.6735   -0.2062   -0.0148 H   0  0  0  0  0  0  0  0  0  0  0  0
    0.0106   -1.1995   -0.6024 H   0  0  0  0  0  0  0  0  0  0  0  0
  1  5  1  0  0  0  0
  2  1  1  0  0  0  0
  2  8  1  0  0  0  0
  3  1  1  0  0  0  0
  4  1  1  0  0  0  0
  6  2  1  0  0  0  0
  6  9  1  0  0  0  0
  6 10  1  0  0  0  0
  7  2  1  0  0  0  0
  9 12  1  0  0  0  0
 11  6  1  0  0  0  0
 13  9  1  0  0  0  0
 14  9  1  0  0  0  0
M  END
$$$$
