14
butane_opt
C  -3.927947   0.220600   0.078356
C  -2.662982  -0.562394  -0.046198
H  -4.891967  -0.431124  -0.135949
H  -4.011034   0.575969  -0.574587
H  -3.816441   1.095534   1.146464
C  -1.429798   0.214945  -0.030163
H  -2.719064  -1.460896  -1.001481
H  -2.788435  -1.016570   0.692489
C  -0.202912  -0.721519   0.117985
H  -1.463404   0.866950   0.734270
H  -1.364857   1.030268  -1.109964
H   0.199216  -1.714982   1.254728
H   0.707290  -0.248943  -0.437550
H  -0.189108  -0.992592  -0.501051
