14
butane_opt
C  -3.947991   0.222291   0.150599
C  -2.729531  -0.604593  -0.076781
H  -4.776488  -0.270741   0.303198
H  -4.032187   0.806215  -0.775808
H  -3.922007   0.880502   0.965836
C  -1.414442   0.256794  -0.156081
H  -2.876801  -1.188252  -0.968790
H  -2.701415  -1.137921   0.750944
C  -0.138641  -0.752292   0.148483
H  -1.450554   0.966072   0.730411
H  -1.253498   0.877054  -1.072008
H  -0.276771  -1.235488   0.986009
H   0.836175  -0.193063   0.417687
H   0.207552  -1.451984  -0.690154
