butane_opt
 OpenBabel08242015393D

 14 12  0  0  0  0  0  0  0  0999 V2000
   -3.9130    0.2109    0.1004 C   0  0  0  0  0  0  0  0  0  0  0  0
   -2.7137   -0.5515   -0.0449 C   0  0  0  0  0  0  0  0  0  0  0  0
   -4.9221   -0.4205   -0.0245 H   0  0  0  0  0  0  0  0  0  0  0  0
   -3.9853    0.6365   -0.6128 H   0  0  0  0  0  0  0  0  0  0  0  0
   -3.6598    1.2585    1.2125 H   0  0  0  0  0  0  0  0  0  0  0  0
   -1.4527    0.2197   -0.1273 C   0  0  0  0  0  0  0  0  0  0  0  0
   -2.7132   -1.3328   -0.8607 H   0  0  0  0  0  0  0  0  0  0  0  0
   -2.6670   -1.3063    0.9374 H   0  0  0  0  0  0  0  0  0  0  0  0
   -0.1339   -0.7263    0.1188 C   0  0  0  0  0  0  0  0  0  0  0  0
   -1.6583    0.8039    0.6579 H   0  0  0  0  0  0  0  0  0  0  0  0
   -1.3472    0.9269   -1.0764 H   0  0  0  0  0  0  0  0  0  0  0  0
   -0.3538   -1.3767    1.0677 H   0  0  0  0  0  0  0  0  0  0  0  0
    0.7921   -0.0826    0.2589 H   0  0  0  0  0  0  0  0  0  0  0  0
    0.0600   -1.4166   -0.6798 H   0  0  0  0  0  0  0  0  0  0  0  0
  2  1  1  0  0  0  0
  2  8  1  0  0  0  0
  3  1  1  0  0  0  0
  4  1  1  0  0  0  0
  6  2  1  0  0  0  0
  6  9  1  0  0  0  0
  6 10  1  0  0  0  0
  7  2  1  0  0  0  0
  9 13  1  0  0  0  0
  9 12  1  0  0  0  0
 11  6  1  0  0  0  0
 14  9  1  0  0  0  0
M  RAD  2   1   2   5   2
M  END
$$$$
