14
butane_opt
C  -3.943476   0.293295  -0.009956
C  -2.698320  -0.632931   0.066191
H  -4.857715  -0.326169  -0.263502
H  -3.937443   0.792812  -0.836203
H  -3.986070   1.180747   1.014517
C  -1.389060   0.114019   0.042156
H  -2.480664  -1.193799  -0.655018
H  -2.741777  -1.398962   1.031474
C  -0.211839  -0.659563   0.006990
H  -1.219941   0.806184   0.917835
H  -1.408292   0.923199  -0.923192
H  -0.100847  -1.356909   0.852036
H   0.757298   0.078964  -0.043817
H  -0.161061  -1.352948  -0.892925
