14
butane_opt
C  -3.963843   0.216854   0.041603
C  -2.731446  -0.548735  -0.023263
H  -4.870756  -0.346574  -0.053233
H  -3.903319   0.591163  -0.710038
H  -3.854255   1.101688   1.100961
C  -1.436065   0.220624   0.016317
H  -2.863384  -1.282022  -0.984340
H  -2.737633  -1.169936   0.822010
C  -0.102715  -0.730023   0.069321
H  -1.404930   0.778204   0.816941
H  -1.336283   0.927838  -0.996666
H   0.179903  -1.784881   1.226809
H   0.766332  -0.097737  -0.292290
H  -0.203456  -1.088302  -0.668558
