butane_opt
 OpenBabel08242015393D

 14 13  0  0  0  0  0  0  0  0999 V2000
   -4.0107    0.2933   -0.0659 C   0  0  0  0  0  0  0  0  0  0  0  0
   -2.6907   -0.6587    0.1434 C   0  0  0  0  0  0  0  0  0  0  0  0
   -4.9087   -0.2400   -0.1933 H   0  0  0  0  0  0  0  0  0  0  0  0
   -3.9461    1.0361   -1.0568 H   0  0  0  0  0  0  0  0  0  0  0  0
   -4.1071    0.8543    0.6961 H   0  0  0  0  0  0  0  0  0  0  0  0
   -1.3697    0.1772    0.1153 C   0  0  0  0  0  0  0  0  0  0  0  0
   -2.6781   -1.2172   -0.5900 H   0  0  0  0  0  0  0  0  0  0  0  0
   -2.6739   -1.3739    1.0634 H   0  0  0  0  0  0  0  0  0  0  0  0
   -0.1393   -0.6845   -0.0770 C   0  0  0  0  0  0  0  0  0  0  0  0
   -1.2158    1.0074    1.0210 H   0  0  0  0  0  0  0  0  0  0  0  0
   -1.2818    0.5471   -0.6480 H   0  0  0  0  0  0  0  0  0  0  0  0
   -0.1963   -1.2267    0.7727 H   0  0  0  0  0  0  0  0  0  0  0  0
    0.7812   -0.1683   -0.1016 H   0  0  0  0  0  0  0  0  0  0  0  0
   -0.2552   -1.2169   -0.9433 H   0  0  0  0  0  0  0  0  0  0  0  0
  1  2  1  0  0  0  0
  1  5  1  0  0  0  0
  2  8  1  0  0  0  0
  3  1  1  0  0  0  0
  4  1  1  0  0  0  0
  6  2  1  0  0  0  0
  6 10  1  0  0  0  0
  7  2  1  0  0  0  0
  9  6  1  0  0  0  0
  9 12  1  0  0  0  0
 11  6  1  0  0  0  0
 13  9  1  0  0  0  0
 14  9  1  0  0  0  0
M  END
$$$$
