14
butane_opt
C  -3.912345   0.278980   0.108993
C  -2.714864  -0.642310  -0.057637
H  -4.667783  -0.272806   0.133959
H  -4.075642   1.062278  -0.868381
H  -3.911299   0.825136   0.846053
C  -1.387438   0.151680  -0.040485
H  -2.868799  -1.355012  -0.917359
H  -2.629805  -1.070030   0.675289
C  -0.170179  -0.668483   0.101927
H  -1.458014   0.798094   0.838954
H  -1.440917   0.858061  -0.973752
H  -0.285850  -1.393061   1.061256
H   0.675535  -0.118089  -0.000410
H  -0.157684  -1.235014  -0.727768
