butane_opt
 OpenBabel08242015393D

 14 13  0  0  0  0  0  0  0  0999 V2000
   -3.9788    0.3112    0.0114 C   0  0  0  0  0  0  0  0  0  0  0  0
   -2.7323   -0.6358    0.0676 C   0  0  0  0  0  0  0  0  0  0  0  0
   -4.7701   -0.2441   -0.2588 H   0  0  0  0  0  0  0  0  0  0  0  0
   -3.9927    0.5914   -0.6595 H   0  0  0  0  0  0  0  0  0  0  0  0
   -4.1335    1.1623    0.9970 H   0  0  0  0  0  0  0  0  0  0  0  0
   -1.3892    0.1398    0.0029 C   0  0  0  0  0  0  0  0  0  0  0  0
   -2.6603   -1.4198   -0.8646 H   0  0  0  0  0  0  0  0  0  0  0  0
   -2.7927   -1.2352    0.9343 H   0  0  0  0  0  0  0  0  0  0  0  0
   -0.1265   -0.6711    0.0476 C   0  0  0  0  0  0  0  0  0  0  0  0
   -1.1649    0.6942    0.7773 H   0  0  0  0  0  0  0  0  0  0  0  0
   -1.3467    0.8790   -1.0671 H   0  0  0  0  0  0  0  0  0  0  0  0
   -0.0287   -1.3696    1.0134 H   0  0  0  0  0  0  0  0  0  0  0  0
    0.8695   -0.0201   -0.0764 H   0  0  0  0  0  0  0  0  0  0  0  0
   -0.3074   -1.2195   -0.8426 H   0  0  0  0  0  0  0  0  0  0  0  0
  1  2  1  0  0  0  0
  1  5  1  0  0  0  0
  2  8  1  0  0  0  0
  3  1  1  0  0  0  0
  4  1  1  0  0  0  0
  6  9  1  0  0  0  0
  6  2  1  0  0  0  0
  6 10  1  0  0  0  0
  7  2  1  0  0  0  0
  9 12  1  0  0  0  0
 11  6  1  0  0  0  0
 13  9  1  0  0  0  0
 14  9  1  0  0  0  0
M  END
$$$$
