butane_opt
 OpenBabel08242015393D

 14 13  0  0  0  0  0  0  0  0999 V2000
   -3.9192    0.2535   -0.0584 C   0  0  0  0  0  0  0  0  0  0  0  0
   -2.7273   -0.5917    0.1821 C   0  0  0  0  0  0  0  0  0  0  0  0
   -4.8698   -0.4331   -0.3994 H   0  0  0  0  0  0  0  0  0  0  0  0
   -3.5831    0.8306   -0.9611 H   0  0  0  0  0  0  0  0  0  0  0  0
   -4.0821    1.0047    0.9065 H   0  0  0  0  0  0  0  0  0  0  0  0
   -1.4305    0.1779    0.0631 C   0  0  0  0  0  0  0  0  0  0  0  0
   -2.6011   -1.2691   -0.6497 H   0  0  0  0  0  0  0  0  0  0  0  0
   -2.8307   -1.1837    1.0663 H   0  0  0  0  0  0  0  0  0  0  0  0
   -0.1404   -0.7107   -0.0475 C   0  0  0  0  0  0  0  0  0  0  0  0
   -1.3277    1.0101    0.9534 H   0  0  0  0  0  0  0  0  0  0  0  0
   -1.5438    0.8536   -0.8481 H   0  0  0  0  0  0  0  0  0  0  0  0
   -0.1732   -1.2775    0.7982 H   0  0  0  0  0  0  0  0  0  0  0  0
    0.7852   -0.0446   -0.1209 H   0  0  0  0  0  0  0  0  0  0  0  0
   -0.1884   -1.5289   -0.9794 H   0  0  0  0  0  0  0  0  0  0  0  0
  1  2  1  0  0  0  0
  1  5  1  0  0  0  0
  2  8  1  0  0  0  0
  3  1  1  0  0  0  0
  4  1  1  0  0  0  0
  6  2  1  0  0  0  0
  6 10  1  0  0  0  0
  7  2  1  0  0  0  0
  9  6  1  0  0  0  0
  9 12  1  0  0  0  0
 11  6  1  0  0  0  0
 13  9  1  0  0  0  0
 14  9  1  0  0  0  0
M  END
$$$$
