butane_opt
 OpenBabel08242015393D

 14 13  0  0  0  0  0  0  0  0999 V2000
   -3.9280    0.2332   -0.0027 C   0  0  0  0  0  0  0  0  0  0  0  0
   -2.6753   -0.5620    0.0518 C   0  0  0  0  0  0  0  0  0  0  0  0
   -4.9441   -0.4609    0.2180 H   0  0  0  0  0  0  0  0  0  0  0  0
   -3.9342    1.1013   -1.0786 H   0  0  0  0  0  0  0  0  0  0  0  0
   -3.7240    0.5380    0.6220 H   0  0  0  0  0  0  0  0  0  0  0  0
   -1.4258    0.2221    0.0888 C   0  0  0  0  0  0  0  0  0  0  0  0
   -2.7263   -1.3328   -0.8720 H   0  0  0  0  0  0  0  0  0  0  0  0
   -2.7360   -1.0696    0.8503 H   0  0  0  0  0  0  0  0  0  0  0  0
   -0.1766   -0.7265   -0.0210 C   0  0  0  0  0  0  0  0  0  0  0  0
   -1.4008    0.9210    1.0248 H   0  0  0  0  0  0  0  0  0  0  0  0
   -1.4412    0.8095   -0.7808 H   0  0  0  0  0  0  0  0  0  0  0  0
   -0.1633   -1.5015    1.0099 H   0  0  0  0  0  0  0  0  0  0  0  0
    0.6684   -0.1497   -0.0361 H   0  0  0  0  0  0  0  0  0  0  0  0
   -0.1458   -1.3467   -0.9513 H   0  0  0  0  0  0  0  0  0  0  0  0
  1  2  1  0  0  0  0
  1  3  1  0  0  0  0
  1  5  1  0  0  0  0
  2  6  1  0  0  0  0
  2  8  1  0  0  0  0
  4  1  1  0  0  0  0
  6 10  1  0  0  0  0
  7  2  1  0  0  0  0
  9  6  1  0  0  0  0
  9 12  1  0  0  0  0
 11  6  1  0  0  0  0
 13  9  1  0  0  0  0
 14  9  1  0  0  0  0
M  END
$$$$
