14
butane_opt
C  -3.926042   0.265330  -0.068437
C  -2.694967  -0.600807   0.121610
H  -4.896376  -0.319834  -0.094838
H  -3.905189   1.041048  -1.105751
H  -4.210787   0.777042   0.721404
C  -1.408894   0.161984   0.110752
H  -2.623439  -1.254374  -0.721256
H  -2.604553  -1.311700   1.093502
C  -0.173751  -0.672107  -0.055999
H  -1.249080   0.950411   1.102845
H  -1.558751   0.563657  -0.567924
H   0.084625  -1.408031   0.858180
H   0.846495  -0.037420  -0.232624
H  -0.449284  -1.306815  -0.908395
