14
butane_opt
C  -3.981287   0.303991   0.090667
C  -2.696221  -0.651790  -0.029145
H  -4.828904  -0.287896  -0.258287
H  -4.042305   0.585508  -0.561118
H  -4.107641   1.346019   1.214569
C  -1.366946   0.142755  -0.045644
H  -2.811282  -1.446194  -1.009525
H  -2.838907  -1.209659   0.783831
C  -0.123725  -0.676064   0.115938
H  -1.357395   0.653623   0.591466
H  -1.346118   1.083140  -1.126621
H  -0.280298  -1.489932   1.122360
H   0.841803  -0.044304  -0.239375
H  -0.226887  -1.085623  -0.595671
