butane_opt
 OpenBabel08242015393D

 14 12  0  0  0  0  0  0  0  0999 V2000
   -3.9602    0.2922   -0.0334 C   0  0  0  0  0  0  0  0  0  0  0  0
   -2.6854   -0.6377    0.0967 C   0  0  0  0  0  0  0  0  0  0  0  0
   -4.8637   -0.3638   -0.0750 H   0  0  0  0  0  0  0  0  0  0  0  0
   -3.7622    0.9632   -0.9702 H   0  0  0  0  0  0  0  0  0  0  0  0
   -3.9159    0.9400    0.7757 H   0  0  0  0  0  0  0  0  0  0  0  0
   -1.4111    0.1544    0.0416 C   0  0  0  0  0  0  0  0  0  0  0  0
   -2.6183   -1.0306   -0.5461 H   0  0  0  0  0  0  0  0  0  0  0  0
   -2.6651   -1.4871    1.2013 H   0  0  0  0  0  0  0  0  0  0  0  0
   -0.1922   -0.6759   -0.0129 C   0  0  0  0  0  0  0  0  0  0  0  0
   -1.2918    0.8066    0.9427 H   0  0  0  0  0  0  0  0  0  0  0  0
   -1.3537    0.7829   -0.7850 H   0  0  0  0  0  0  0  0  0  0  0  0
   -0.2652   -0.9316    0.6931 H   0  0  0  0  0  0  0  0  0  0  0  0
    0.7805    0.0298    0.1830 H   0  0  0  0  0  0  0  0  0  0  0  0
   -0.1084   -1.7810   -1.1491 H   0  0  0  0  0  0  0  0  0  0  0  0
  1  2  1  0  0  0  0
  1  5  1  0  0  0  0
  2  8  1  0  0  0  0
  3  1  1  0  0  0  0
  4  1  1  0  0  0  0
  6  2  1  0  0  0  0
  6 10  1  0  0  0  0
  7  2  1  0  0  0  0
  9  6  1  0  0  0  0
  9 13  1  0  0  0  0
  9 12  1  0  0  0  0
 11  6  1  0  0  0  0
M  RAD  2   9   2  14   2
M  END
$$$$
