butane_opt
 OpenBabel08242015393D

 14 13  0  0  0  0  0  0  0  0999 V2000
   -3.9441    0.2706    0.0371 C   0  0  0  0  0  0  0  0  0  0  0  0
   -2.6861   -0.6215    0.0086 C   0  0  0  0  0  0  0  0  0  0  0  0
   -4.8367   -0.3125    0.0022 H   0  0  0  0  0  0  0  0  0  0  0  0
   -4.0258    0.8361   -0.8172 H   0  0  0  0  0  0  0  0  0  0  0  0
   -3.9557    0.9950    0.9315 H   0  0  0  0  0  0  0  0  0  0  0  0
   -1.3981    0.1760    0.0012 C   0  0  0  0  0  0  0  0  0  0  0  0
   -2.7176   -1.3600   -0.8801 H   0  0  0  0  0  0  0  0  0  0  0  0
   -2.6913   -1.2515    0.8798 H   0  0  0  0  0  0  0  0  0  0  0  0
   -0.1785   -0.6855    0.0538 C   0  0  0  0  0  0  0  0  0  0  0  0
   -1.4402    0.8750    0.8454 H   0  0  0  0  0  0  0  0  0  0  0  0
   -1.3386    0.7906   -0.8916 H   0  0  0  0  0  0  0  0  0  0  0  0
   -0.0593   -1.4174    1.0482 H   0  0  0  0  0  0  0  0  0  0  0  0
    0.7257   -0.0966   -0.1550 H   0  0  0  0  0  0  0  0  0  0  0  0
   -0.2052   -1.1982   -0.7196 H   0  0  0  0  0  0  0  0  0  0  0  0
  1  5  1  0  0  0  0
  2  1  1  0  0  0  0
  2  8  1  0  0  0  0
  3  1  1  0  0  0  0
  4  1  1  0  0  0  0
  6  2  1  0  0  0  0
  6  9  1  0  0  0  0
  6 10  1  0  0  0  0
  7  2  1  0  0  0  0
  9 12  1  0  0  0  0
 11  6  1  0  0  0  0
 13  9  1  0  0  0  0
 14  9  1  0  0  0  0
M  END
$$$$
