14
butane_opt
C  -3.916953   0.306517   0.084013
C  -2.679234  -0.659185   0.027639
H  -4.780291  -0.300681  -0.460289
H  -3.738065   0.466695  -0.564390
H  -4.247932   1.290779   1.146888
C  -1.410131   0.168311  -0.068384
H  -2.836207  -1.465268  -0.939371
H  -2.439734  -1.250512   0.884477
C  -0.189210  -0.665929   0.092159
H  -1.525120   0.634700   0.601180
H  -1.467725   0.895185  -1.105018
H  -0.297166  -1.353706   1.058763
H   0.758083  -0.027849  -0.082686
H  -0.120470  -1.141795  -0.687699
