butane_opt
 OpenBabel08242015393D

 14 13  0  0  0  0  0  0  0  0999 V2000
   -3.9764    0.2799    0.0434 C   0  0  0  0  0  0  0  0  0  0  0  0
   -2.6882   -0.6549   -0.0565 C   0  0  0  0  0  0  0  0  0  0  0  0
   -4.8403   -0.2060    0.0068 H   0  0  0  0  0  0  0  0  0  0  0  0
   -4.0120    0.8420   -0.8130 H   0  0  0  0  0  0  0  0  0  0  0  0
   -4.1334    1.2739    1.0599 H   0  0  0  0  0  0  0  0  0  0  0  0
   -1.4197    0.1268    0.0242 C   0  0  0  0  0  0  0  0  0  0  0  0
   -2.7447   -1.2778   -0.8337 H   0  0  0  0  0  0  0  0  0  0  0  0
   -2.6830   -1.3497    0.9606 H   0  0  0  0  0  0  0  0  0  0  0  0
   -0.1357   -0.6589    0.0685 C   0  0  0  0  0  0  0  0  0  0  0  0
   -1.3196    0.8239    0.9234 H   0  0  0  0  0  0  0  0  0  0  0  0
   -1.3208    0.7714   -0.8936 H   0  0  0  0  0  0  0  0  0  0  0  0
    0.0952   -1.5312    1.0831 H   0  0  0  0  0  0  0  0  0  0  0  0
    0.8843    0.1016   -0.4275 H   0  0  0  0  0  0  0  0  0  0  0  0
   -0.3297   -1.0005   -0.5294 H   0  0  0  0  0  0  0  0  0  0  0  0
  1  5  1  0  0  0  0
  2  6  1  0  0  0  0
  2  1  1  0  0  0  0
  2  8  1  0  0  0  0
  3  1  1  0  0  0  0
  4  1  1  0  0  0  0
  6  9  1  0  0  0  0
  6 10  1  0  0  0  0
  7  2  1  0  0  0  0
  9 12  1  0  0  0  0
 11  6  1  0  0  0  0
 13  9  1  0  0  0  0
 14  9  1  0  0  0  0
M  END
$$$$
