14
butane_opt
C  -3.923156   0.238506   0.126548
C  -2.755007  -0.590857  -0.078352
H  -4.854362  -0.348346   0.342610
H  -4.225285   0.842694  -0.743214
H  -3.817277   0.850152   0.941340
C  -1.392060   0.263435  -0.092869
H  -2.795118  -1.383469  -1.015406
H  -2.695423  -1.160517   0.645409
C  -0.123278  -0.747325   0.120650
H  -1.516172   0.831701   0.665774
H  -1.302325   0.865555  -0.996726
H  -0.407507  -1.412732   1.058229
H   0.782233  -0.198809   0.188415
H   0.161570  -1.317542  -0.561739
