butane_opt
 OpenBabel08242015393D

 14 13  0  0  0  0  0  0  0  0999 V2000
   -3.9843    0.2309    0.1310 C   0  0  0  0  0  0  0  0  0  0  0  0
   -2.7206   -0.5980   -0.0464 C   0  0  0  0  0  0  0  0  0  0  0  0
   -4.8263   -0.3186   -0.0781 H   0  0  0  0  0  0  0  0  0  0  0  0
   -3.9829    0.7744   -0.7655 H   0  0  0  0  0  0  0  0  0  0  0  0
   -3.8828    0.9841    1.1214 H   0  0  0  0  0  0  0  0  0  0  0  0
   -1.4081    0.2255   -0.1310 C   0  0  0  0  0  0  0  0  0  0  0  0
   -2.8220   -1.2088   -0.8694 H   0  0  0  0  0  0  0  0  0  0  0  0
   -2.5562   -1.2597    0.8348 H   0  0  0  0  0  0  0  0  0  0  0  0
   -0.1111   -0.7297    0.1256 C   0  0  0  0  0  0  0  0  0  0  0  0
   -1.4343    0.9213    0.7352 H   0  0  0  0  0  0  0  0  0  0  0  0
   -1.4380    0.9051   -1.1381 H   0  0  0  0  0  0  0  0  0  0  0  0
   -0.3136   -1.2622    1.0515 H   0  0  0  0  0  0  0  0  0  0  0  0
    0.8398   -0.0692    0.3573 H   0  0  0  0  0  0  0  0  0  0  0  0
    0.0816   -1.4845   -0.7670 H   0  0  0  0  0  0  0  0  0  0  0  0
  1  5  1  0  0  0  0
  2  1  1  0  0  0  0
  2  8  1  0  0  0  0
  3  1  1  0  0  0  0
  4  1  1  0  0  0  0
  6  2  1  0  0  0  0
  6  9  1  0  0  0  0
  6 10  1  0  0  0  0
  7  2  1  0  0  0  0
  9 13  1  0  0  0  0
  9 12  1  0  0  0  0
 11  6  1  0  0  0  0
 14  9  1  0  0  0  0
M  END
$$$$
