14
butane_opt
C  -3.921674   0.252295  -0.052055
C  -2.672687  -0.617596   0.091435
H  -4.714215  -0.192999   0.417583
H  -4.019003   1.289767  -1.225744
H  -3.975519   0.652530   0.499430
C  -1.433417   0.168175   0.089549
H  -2.740715  -1.356636  -0.794961
H  -2.596254  -1.408820   1.050824
C  -0.176140  -0.669285  -0.036014
H  -1.325601   1.025178   1.128295
H  -1.461265   0.621109  -0.606267
H  -0.220867  -1.128411   0.737950
H   0.743393  -0.071263   0.057278
H  -0.265192  -1.477477  -0.994057
