butane_opt
 OpenBabel08242015393D

 14 13  0  0  0  0  0  0  0  0999 V2000
   -3.9123    0.2790    0.1090 C   0  0  0  0  0  0  0  0  0  0  0  0
   -2.7149   -0.6423   -0.0576 C   0  0  0  0  0  0  0  0  0  0  0  0
   -4.6678   -0.2728    0.1340 H   0  0  0  0  0  0  0  0  0  0  0  0
   -4.0756    1.0623   -0.8684 H   0  0  0  0  0  0  0  0  0  0  0  0
   -3.9113    0.8251    0.8461 H   0  0  0  0  0  0  0  0  0  0  0  0
   -1.3874    0.1517   -0.0405 C   0  0  0  0  0  0  0  0  0  0  0  0
   -2.8688   -1.3550   -0.9174 H   0  0  0  0  0  0  0  0  0  0  0  0
   -2.6298   -1.0700    0.6753 H   0  0  0  0  0  0  0  0  0  0  0  0
   -0.1702   -0.6685    0.1019 C   0  0  0  0  0  0  0  0  0  0  0  0
   -1.4580    0.7981    0.8390 H   0  0  0  0  0  0  0  0  0  0  0  0
   -1.4409    0.8581   -0.9738 H   0  0  0  0  0  0  0  0  0  0  0  0
   -0.2858   -1.3931    1.0613 H   0  0  0  0  0  0  0  0  0  0  0  0
    0.6755   -0.1181   -0.0004 H   0  0  0  0  0  0  0  0  0  0  0  0
   -0.1577   -1.2350   -0.7278 H   0  0  0  0  0  0  0  0  0  0  0  0
  1  3  1  0  0  0  0
  1  5  1  0  0  0  0
  2  6  1  0  0  0  0
  2  1  1  0  0  0  0
  2  8  1  0  0  0  0
  4  1  1  0  0  0  0
  6  9  1  0  0  0  0
  6 10  1  0  0  0  0
  7  2  1  0  0  0  0
  9 12  1  0  0  0  0
 11  6  1  0  0  0  0
 13  9  1  0  0  0  0
 14  9  1  0  0  0  0
M  END
$$$$
