butane_opt
 OpenBabel08242015393D

 14 13  0  0  0  0  0  0  0  0999 V2000
   -3.9540    0.2284    0.0575 C   0  0  0  0  0  0  0  0  0  0  0  0
   -2.7250   -0.5705    0.0214 C   0  0  0  0  0  0  0  0  0  0  0  0
   -4.7808   -0.2984   -0.2014 H   0  0  0  0  0  0  0  0  0  0  0  0
   -3.9240    0.7051   -0.7626 H   0  0  0  0  0  0  0  0  0  0  0  0
   -3.9430    0.9660    0.9792 H   0  0  0  0  0  0  0  0  0  0  0  0
   -1.4175    0.2011   -0.0570 C   0  0  0  0  0  0  0  0  0  0  0  0
   -2.8279   -1.2152   -0.8522 H   0  0  0  0  0  0  0  0  0  0  0  0
   -2.5555   -1.2202    0.9333 H   0  0  0  0  0  0  0  0  0  0  0  0
   -0.1136   -0.7118    0.0742 C   0  0  0  0  0  0  0  0  0  0  0  0
   -1.4638    0.9041    0.8370 H   0  0  0  0  0  0  0  0  0  0  0  0
   -1.5150    0.7536   -0.8682 H   0  0  0  0  0  0  0  0  0  0  0  0
   -0.1465   -1.4666    0.9752 H   0  0  0  0  0  0  0  0  0  0  0  0
    0.7642   -0.0477    0.0184 H   0  0  0  0  0  0  0  0  0  0  0  0
   -0.1099   -1.3173   -0.7689 H   0  0  0  0  0  0  0  0  0  0  0  0
  1  5  1  0  0  0  0
  2  1  1  0  0  0  0
  2  8  1  0  0  0  0
  3  1  1  0  0  0  0
  4  1  1  0  0  0  0
  6  2  1  0  0  0  0
  6  9  1  0  0  0  0
  6 10  1  0  0  0  0
  7  2  1  0  0  0  0
  9 12  1  0  0  0  0
 11  6  1  0  0  0  0
 13  9  1  0  0  0  0
 14  9  1  0  0  0  0
M  END
$$$$
