butane_opt
 OpenBabel08242015393D

 14 13  0  0  0  0  0  0  0  0999 V2000
   -3.9421    0.2296   -0.0594 C   0  0  0  0  0  0  0  0  0  0  0  0
   -2.7535   -0.5946    0.1082 C   0  0  0  0  0  0  0  0  0  0  0  0
   -4.7347   -0.2523   -0.1203 H   0  0  0  0  0  0  0  0  0  0  0  0
   -3.6944    0.9596   -1.0323 H   0  0  0  0  0  0  0  0  0  0  0  0
   -4.1268    0.8719    0.6932 H   0  0  0  0  0  0  0  0  0  0  0  0
   -1.4086    0.2204    0.1262 C   0  0  0  0  0  0  0  0  0  0  0  0
   -2.7218   -1.1652   -0.6946 H   0  0  0  0  0  0  0  0  0  0  0  0
   -2.8333   -1.3506    1.1521 H   0  0  0  0  0  0  0  0  0  0  0  0
   -0.1319   -0.7118   -0.0539 C   0  0  0  0  0  0  0  0  0  0  0  0
   -1.2620    1.0687    1.0670 H   0  0  0  0  0  0  0  0  0  0  0  0
   -1.4611    0.6966   -0.6576 H   0  0  0  0  0  0  0  0  0  0  0  0
    0.1498   -1.4954    0.8600 H   0  0  0  0  0  0  0  0  0  0  0  0
    0.7195   -0.1718   -0.2980 H   0  0  0  0  0  0  0  0  0  0  0  0
   -0.2373   -1.3548   -0.9707 H   0  0  0  0  0  0  0  0  0  0  0  0
  1  2  1  0  0  0  0
  1  5  1  0  0  0  0
  2  6  1  0  0  0  0
  2  8  1  0  0  0  0
  3  1  1  0  0  0  0
  4  1  1  0  0  0  0
  6 10  1  0  0  0  0
  7  2  1  0  0  0  0
  9  6  1  0  0  0  0
  9 12  1  0  0  0  0
 11  6  1  0  0  0  0
 13  9  1  0  0  0  0
 14  9  1  0  0  0  0
M  END
$$$$
