14
butane_opt
C  -3.900727   0.235366  -0.081663
C  -2.699676  -0.572728   0.163486
H  -4.697726  -0.303176   0.189974
H  -3.913887   0.974644  -1.026601
H  -3.873499   0.782784   0.683932
C  -1.395309   0.196538   0.063775
H  -2.645586  -1.218689  -0.600240
H  -2.929349  -1.336630   1.175635
C  -0.196806  -0.715546  -0.048247
H  -1.503796   0.827177   0.829523
H  -1.487311   0.883938  -0.809384
H  -0.285414  -0.802646   0.529023
H   0.654371  -0.140506   0.464530
H  -0.030669  -1.867279  -1.222241
