butane_opt
 OpenBabel08242015393D

 14 13  0  0  0  0  0  0  0  0999 V2000
   -3.9315    0.2463    0.0995 C   0  0  0  0  0  0  0  0  0  0  0  0
   -2.6871   -0.5482   -0.1228 C   0  0  0  0  0  0  0  0  0  0  0  0
   -4.9747   -0.4621    0.2908 H   0  0  0  0  0  0  0  0  0  0  0  0
   -4.0228    0.7531   -0.7333 H   0  0  0  0  0  0  0  0  0  0  0  0
   -3.6006    0.8092    0.9661 H   0  0  0  0  0  0  0  0  0  0  0  0
   -1.4016    0.2191   -0.0378 C   0  0  0  0  0  0  0  0  0  0  0  0
   -2.9059   -1.2932   -0.9821 H   0  0  0  0  0  0  0  0  0  0  0  0
   -2.6503   -1.2251    0.8683 H   0  0  0  0  0  0  0  0  0  0  0  0
   -0.1896   -0.7464    0.1104 C   0  0  0  0  0  0  0  0  0  0  0  0
   -1.5566    0.9137    0.8604 H   0  0  0  0  0  0  0  0  0  0  0  0
   -1.2847    0.8433   -0.9757 H   0  0  0  0  0  0  0  0  0  0  0  0
   -0.0102   -1.6412    1.2146 H   0  0  0  0  0  0  0  0  0  0  0  0
    0.7007   -0.0857   -0.0704 H   0  0  0  0  0  0  0  0  0  0  0  0
   -0.2009   -1.1336   -0.5776 H   0  0  0  0  0  0  0  0  0  0  0  0
  1  3  1  0  0  0  0
  1  5  1  0  0  0  0
  2  6  1  0  0  0  0
  2  1  1  0  0  0  0
  2  8  1  0  0  0  0
  4  1  1  0  0  0  0
  6  9  1  0  0  0  0
  6 10  1  0  0  0  0
  7  2  1  0  0  0  0
  9 12  1  0  0  0  0
 11  6  1  0  0  0  0
 13  9  1  0  0  0  0
 14  9  1  0  0  0  0
M  END
$$$$
