butane_opt
 OpenBabel08242015393D

 14 12  0  0  0  0  0  0  0  0999 V2000
   -3.9217    0.2523   -0.0521 C   0  0  0  0  0  0  0  0  0  0  0  0
   -2.6727   -0.6176    0.0914 C   0  0  0  0  0  0  0  0  0  0  0  0
   -4.7142   -0.1930    0.4176 H   0  0  0  0  0  0  0  0  0  0  0  0
   -4.0190    1.2898   -1.2257 H   0  0  0  0  0  0  0  0  0  0  0  0
   -3.9755    0.6525    0.4994 H   0  0  0  0  0  0  0  0  0  0  0  0
   -1.4334    0.1682    0.0895 C   0  0  0  0  0  0  0  0  0  0  0  0
   -2.7407   -1.3566   -0.7950 H   0  0  0  0  0  0  0  0  0  0  0  0
   -2.5963   -1.4088    1.0508 H   0  0  0  0  0  0  0  0  0  0  0  0
   -0.1761   -0.6693   -0.0360 C   0  0  0  0  0  0  0  0  0  0  0  0
   -1.3256    1.0252    1.1283 H   0  0  0  0  0  0  0  0  0  0  0  0
   -1.4613    0.6211   -0.6063 H   0  0  0  0  0  0  0  0  0  0  0  0
   -0.2209   -1.1284    0.7379 H   0  0  0  0  0  0  0  0  0  0  0  0
    0.7434   -0.0713    0.0573 H   0  0  0  0  0  0  0  0  0  0  0  0
   -0.2652   -1.4775   -0.9941 H   0  0  0  0  0  0  0  0  0  0  0  0
  1  2  1  0  0  0  0
  1  3  1  0  0  0  0
  1  5  1  0  0  0  0
  2  8  1  0  0  0  0
  6  2  1  0  0  0  0
  6 10  1  0  0  0  0
  7  2  1  0  0  0  0
  9 13  1  0  0  0  0
  9  6  1  0  0  0  0
  9 12  1  0  0  0  0
 11  6  1  0  0  0  0
 14  9  1  0  0  0  0
M  RAD  2   1   2   4   2
M  END
$$$$
