14
butane_opt
C  -3.931506   0.246341   0.099542
C  -2.687116  -0.548227  -0.122808
H  -4.974735  -0.462079   0.290783
H  -4.022791   0.753065  -0.733285
H  -3.600643   0.809207   0.966140
C  -1.401585   0.219091  -0.037782
H  -2.905865  -1.293197  -0.982098
H  -2.650322  -1.225100   0.868257
C  -0.189635  -0.746384   0.110438
H  -1.556563   0.913721   0.860398
H  -1.284729   0.843264  -0.975740
H  -0.010173  -1.641177   1.214631
H   0.700675  -0.085716  -0.070353
H  -0.200920  -1.133614  -0.577563
