butane_opt
 OpenBabel08242015393D

 14 13  0  0  0  0  0  0  0  0999 V2000
   -3.9274    0.2722    0.1087 C   0  0  0  0  0  0  0  0  0  0  0  0
   -2.7301   -0.6389   -0.0769 C   0  0  0  0  0  0  0  0  0  0  0  0
   -4.7774   -0.3279    0.4898 H   0  0  0  0  0  0  0  0  0  0  0  0
   -4.1309    1.0494   -0.8459 H   0  0  0  0  0  0  0  0  0  0  0  0
   -3.7704    0.8951    1.0223 H   0  0  0  0  0  0  0  0  0  0  0  0
   -1.4064    0.1964   -0.0975 C   0  0  0  0  0  0  0  0  0  0  0  0
   -2.7495   -1.5341   -1.1148 H   0  0  0  0  0  0  0  0  0  0  0  0
   -2.6272   -1.0752    0.6765 H   0  0  0  0  0  0  0  0  0  0  0  0
   -0.1456   -0.6922    0.1432 C   0  0  0  0  0  0  0  0  0  0  0  0
   -1.3876    0.7818    0.7512 H   0  0  0  0  0  0  0  0  0  0  0  0
   -1.3434    0.9401   -1.0419 H   0  0  0  0  0  0  0  0  0  0  0  0
   -0.3517   -1.3967    1.0604 H   0  0  0  0  0  0  0  0  0  0  0  0
    0.7570   -0.0798    0.1908 H   0  0  0  0  0  0  0  0  0  0  0  0
   -0.1199   -1.3616   -0.6683 H   0  0  0  0  0  0  0  0  0  0  0  0
  1  3  1  0  0  0  0
  1  5  1  0  0  0  0
  2  1  1  0  0  0  0
  2  8  1  0  0  0  0
  4  1  1  0  0  0  0
  6  2  1  0  0  0  0
  6  9  1  0  0  0  0
  6 10  1  0  0  0  0
  7  2  1  0  0  0  0
  9 13  1  0  0  0  0
  9 12  1  0  0  0  0
 11  6  1  0  0  0  0
 14  9  1  0  0  0  0
M  END
$$$$
