14
butane_opt
C  -3.984923   0.262727  -0.057030
C  -2.691420  -0.644087   0.157694
H  -4.768411  -0.233500  -0.357090
H  -3.879449   0.860433  -0.887761
H  -4.194470   1.081276   0.946562
C  -1.375817   0.185318   0.055435
H  -2.686934  -1.234768  -0.668332
H  -2.562269  -1.353330   1.067501
C  -0.170002  -0.672153  -0.023939
H  -1.314881   0.738279   0.887086
H  -1.315549   0.846418  -0.903960
H  -0.039614  -1.088157   0.673089
H   0.646130  -0.140662   0.049788
H  -0.232657  -1.526936  -0.978977
