14
butane_opt
C  -3.975073   0.229681  -0.036265
C  -2.719803  -0.563438   0.132861
H  -4.874926  -0.398943   0.119143
H  -3.934276   1.047527  -1.090307
H  -4.044544   0.657398   0.679597
C  -1.378239   0.211749   0.063047
H  -2.751168  -1.226821  -0.695065
H  -2.833817  -1.252086   0.988052
C  -0.116931  -0.730654  -0.051368
H  -1.500037   0.886148   0.911553
H  -1.508824   0.843232  -0.795071
H  -0.199915  -0.978823   0.631021
H   0.721722  -0.147014   0.312514
H   0.190746  -1.671233  -0.982448
