14
butane_opt
C  -3.976445   0.279931   0.043380
C  -2.688169  -0.654861  -0.056482
H  -4.840308  -0.206026   0.006785
H  -4.011961   0.841976  -0.813046
H  -4.133421   1.273910   1.059890
C  -1.419728   0.126810   0.024155
H  -2.744723  -1.277791  -0.833656
H  -2.683047  -1.349661   0.960572
C  -0.135748  -0.658881   0.068523
H  -1.319594   0.823931   0.923440
H  -1.320794   0.771430  -0.893585
H   0.095166  -1.531216   1.083118
H   0.884265   0.101579  -0.427484
H  -0.329730  -1.000483  -0.529358
