butane_opt
 OpenBabel08242015393D

 14 12  0  0  0  0  0  0  0  0999 V2000
   -3.9638    0.2169    0.0416 C   0  0  0  0  0  0  0  0  0  0  0  0
   -2.7314   -0.5487   -0.0233 C   0  0  0  0  0  0  0  0  0  0  0  0
   -4.8708   -0.3466   -0.0532 H   0  0  0  0  0  0  0  0  0  0  0  0
   -3.9033    0.5912   -0.7100 H   0  0  0  0  0  0  0  0  0  0  0  0
   -3.8543    1.1017    1.1010 H   0  0  0  0  0  0  0  0  0  0  0  0
   -1.4361    0.2206    0.0163 C   0  0  0  0  0  0  0  0  0  0  0  0
   -2.8634   -1.2820   -0.9843 H   0  0  0  0  0  0  0  0  0  0  0  0
   -2.7376   -1.1699    0.8220 H   0  0  0  0  0  0  0  0  0  0  0  0
   -0.1027   -0.7300    0.0693 C   0  0  0  0  0  0  0  0  0  0  0  0
   -1.4049    0.7782    0.8169 H   0  0  0  0  0  0  0  0  0  0  0  0
   -1.3363    0.9278   -0.9967 H   0  0  0  0  0  0  0  0  0  0  0  0
    0.1799   -1.7849    1.2268 H   0  0  0  0  0  0  0  0  0  0  0  0
    0.7663   -0.0977   -0.2923 H   0  0  0  0  0  0  0  0  0  0  0  0
   -0.2035   -1.0883   -0.6686 H   0  0  0  0  0  0  0  0  0  0  0  0
  1  5  1  0  0  0  0
  2  6  1  0  0  0  0
  2  1  1  0  0  0  0
  2  8  1  0  0  0  0
  3  1  1  0  0  0  0
  4  1  1  0  0  0  0
  6  9  1  0  0  0  0
  6 10  1  0  0  0  0
  7  2  1  0  0  0  0
 11  6  1  0  0  0  0
 13  9  1  0  0  0  0
 14  9  1  0  0  0  0
M  RAD  2   9   2  12   2
M  END
$$$$
