butane_opt
 OpenBabel08242015393D

 14 13  0  0  0  0  0  0  0  0999 V2000
   -3.9482    0.2459    0.0350 C   0  0  0  0  0  0  0  0  0  0  0  0
   -2.7248   -0.6139    0.0109 C   0  0  0  0  0  0  0  0  0  0  0  0
   -4.9548   -0.4670    0.0260 H   0  0  0  0  0  0  0  0  0  0  0  0
   -3.9546    0.6265   -0.7047 H   0  0  0  0  0  0  0  0  0  0  0  0
   -4.0069    1.1158    1.0682 H   0  0  0  0  0  0  0  0  0  0  0  0
   -1.4285    0.2311   -0.0365 C   0  0  0  0  0  0  0  0  0  0  0  0
   -2.7492   -1.0227   -0.6971 H   0  0  0  0  0  0  0  0  0  0  0  0
   -2.8576   -1.2967    0.9124 H   0  0  0  0  0  0  0  0  0  0  0  0
   -0.0915   -0.7280    0.0683 C   0  0  0  0  0  0  0  0  0  0  0  0
   -1.3899    0.8182    0.7229 H   0  0  0  0  0  0  0  0  0  0  0  0
   -1.5569    1.0126   -1.0077 H   0  0  0  0  0  0  0  0  0  0  0  0
   -0.1736   -1.2581    0.9020 H   0  0  0  0  0  0  0  0  0  0  0  0
    0.8504   -0.1647    0.2565 H   0  0  0  0  0  0  0  0  0  0  0  0
    0.0936   -1.4919   -0.9301 H   0  0  0  0  0  0  0  0  0  0  0  0
  1  5  1  0  0  0  0
  2  1  1  0  0  0  0
  2  8  1  0  0  0  0
  3  1  1  0  0  0  0
  4  1  1  0  0  0  0
  6  2  1  0  0  0  0
  6  9  1  0  0  0  0
  6 10  1  0  0  0  0
  7  2  1  0  0  0  0
  9 13  1  0  0  0  0
  9 12  1  0  0  0  0
 11  6  1  0  0  0  0
 14  9  1  0  0  0  0
M  END
$$$$
