14
butane_opt
C  -3.976626   0.279687   0.104474
C  -2.706092  -0.655806  -0.070590
H  -4.831543  -0.220924   0.008969
H  -4.097060   0.742994  -0.704670
H  -4.034776   1.217441   1.105288
C  -1.390411   0.154454  -0.035800
H  -2.646779  -1.548880  -1.125349
H  -2.535371  -1.174212   0.767149
C  -0.146463  -0.652301   0.123433
H  -1.486013   0.693348   0.736990
H  -1.136154   0.960939  -1.058469
H  -0.063113  -1.552460   1.234873
H   0.628226  -0.178224  -0.382160
H  -0.174589  -0.928306  -0.562972
