butane_opt
 OpenBabel08242015393D

 14 13  0  0  0  0  0  0  0  0999 V2000
   -3.8891    0.2319    0.1306 C   0  0  0  0  0  0  0  0  0  0  0  0
   -2.7053   -0.5634   -0.1057 C   0  0  0  0  0  0  0  0  0  0  0  0
   -4.9592   -0.4436    0.3853 H   0  0  0  0  0  0  0  0  0  0  0  0
   -4.1278    0.9351   -0.8326 H   0  0  0  0  0  0  0  0  0  0  0  0
   -3.7492    0.7318    0.9281 H   0  0  0  0  0  0  0  0  0  0  0  0
   -1.4375    0.2145   -0.0807 C   0  0  0  0  0  0  0  0  0  0  0  0
   -2.6766   -1.4012   -1.0228 H   0  0  0  0  0  0  0  0  0  0  0  0
   -2.6495   -1.1905    0.7312 H   0  0  0  0  0  0  0  0  0  0  0  0
   -0.1810   -0.7077    0.1385 C   0  0  0  0  0  0  0  0  0  0  0  0
   -1.5731    0.7935    0.7441 H   0  0  0  0  0  0  0  0  0  0  0  0
   -1.3061    1.0404   -1.0483 H   0  0  0  0  0  0  0  0  0  0  0  0
   -0.0146   -1.3833    1.0900 H   0  0  0  0  0  0  0  0  0  0  0  0
    0.6791   -0.1957    0.2171 H   0  0  0  0  0  0  0  0  0  0  0  0
   -0.0782   -1.4773   -0.7497 H   0  0  0  0  0  0  0  0  0  0  0  0
  1  3  1  0  0  0  0
  1  5  1  0  0  0  0
  2  6  1  0  0  0  0
  2  1  1  0  0  0  0
  2  8  1  0  0  0  0
  4  1  1  0  0  0  0
  6  9  1  0  0  0  0
  6 10  1  0  0  0  0
  7  2  1  0  0  0  0
  9 13  1  0  0  0  0
  9 12  1  0  0  0  0
 11  6  1  0  0  0  0
 14  9  1  0  0  0  0
M  END
$$$$
