butane_opt
 OpenBabel08242015393D

 14 11  0  0  0  0  0  0  0  0999 V2000
   -3.9017    0.2227    0.0805 C   0  0  0  0  0  0  0  0  0  0  0  0
   -2.7124   -0.5396   -0.0742 C   0  0  0  0  0  0  0  0  0  0  0  0
   -4.8444   -0.4263    0.0454 H   0  0  0  0  0  0  0  0  0  0  0  0
   -3.8793    0.5734   -0.6883 H   0  0  0  0  0  0  0  0  0  0  0  0
   -3.7967    1.1446    1.1393 H   0  0  0  0  0  0  0  0  0  0  0  0
   -1.4667    0.1755   -0.0131 C   0  0  0  0  0  0  0  0  0  0  0  0
   -2.7114   -1.2804   -0.9359 H   0  0  0  0  0  0  0  0  0  0  0  0
   -2.7526   -1.1328    0.7599 H   0  0  0  0  0  0  0  0  0  0  0  0
   -0.1463   -0.7223    0.0897 C   0  0  0  0  0  0  0  0  0  0  0  0
   -1.5717    0.9036    0.8021 H   0  0  0  0  0  0  0  0  0  0  0  0
   -1.2606    0.9544   -1.0165 H   0  0  0  0  0  0  0  0  0  0  0  0
   -0.0585   -1.7625    1.2315 H   0  0  0  0  0  0  0  0  0  0  0  0
    0.7851   -0.0879   -0.3770 H   0  0  0  0  0  0  0  0  0  0  0  0
   -0.2052   -0.9911   -0.4510 H   0  0  0  0  0  0  0  0  0  0  0  0
  1  5  1  0  0  0  0
  2  6  1  0  0  0  0
  2  1  1  0  0  0  0
  2  8  1  0  0  0  0
  3  1  1  0  0  0  0
  4  1  1  0  0  0  0
  6  9  1  0  0  0  0
  6 10  1  0  0  0  0
  7  2  1  0  0  0  0
 11  6  1  0  0  0  0
 13  9  1  0  0  0  0
M  RAD  3   9   3  12   2  14   2
M  END
$$$$
