14
butane_opt
C  -3.967291   0.277363  -0.057003
C  -2.712092  -0.663852   0.101139
H  -4.854921  -0.297710   0.471319
H  -4.094739   1.487465  -1.271679
H  -4.174636   0.558578   0.484483
C  -1.395273   0.163657   0.128688
H  -2.697315  -1.366955  -0.842771
H  -2.537005  -1.251065   0.948803
C  -0.147851  -0.655894  -0.055861
H  -1.281179   0.968928   1.076563
H  -1.328881   0.725991  -0.711767
H  -0.003869  -1.125406   0.755127
H   0.738622  -0.052664   0.097390
H  -0.116432  -1.575280  -1.035698
