14
butane_opt
C  -3.954847   0.326187   0.030323
C  -2.686512  -0.688752   0.055409
H  -4.844555  -0.265923  -0.417704
H  -3.741796   0.577857  -0.651707
H  -4.161135   1.230133   1.073582
C  -1.358412   0.155011  -0.021828
H  -2.682572  -1.260944  -0.784114
H  -2.596296  -1.271556   0.959124
C  -0.206014  -0.642711   0.019684
H  -1.254044   0.726340   0.821765
H  -1.493324   0.819872  -0.866490
H  -0.242915  -1.532535   1.123999
H   0.733553  -0.114503  -0.001800
H  -0.287851  -1.182181  -0.756985
