butane_opt
 OpenBabel08242015393D

 14 13  0  0  0  0  0  0  0  0999 V2000
   -3.9409    0.2327   -0.1080 C   0  0  0  0  0  0  0  0  0  0  0  0
   -2.7084   -0.6208    0.1808 C   0  0  0  0  0  0  0  0  0  0  0  0
   -4.9179   -0.3776   -0.3119 H   0  0  0  0  0  0  0  0  0  0  0  0
   -3.7753    0.8444   -0.9821 H   0  0  0  0  0  0  0  0  0  0  0  0
   -4.0759    1.0168    0.8309 H   0  0  0  0  0  0  0  0  0  0  0  0
   -1.4301    0.2378    0.1010 C   0  0  0  0  0  0  0  0  0  0  0  0
   -2.7014   -1.1418   -0.5979 H   0  0  0  0  0  0  0  0  0  0  0  0
   -2.9081   -1.3788    1.2293 H   0  0  0  0  0  0  0  0  0  0  0  0
   -0.1302   -0.7150   -0.0822 C   0  0  0  0  0  0  0  0  0  0  0  0
   -1.2184    1.1161    1.1498 H   0  0  0  0  0  0  0  0  0  0  0  0
   -1.7059    0.7855   -0.6333 H   0  0  0  0  0  0  0  0  0  0  0  0
    0.1867   -1.3760    0.8032 H   0  0  0  0  0  0  0  0  0  0  0  0
    0.7340   -0.2085   -0.1275 H   0  0  0  0  0  0  0  0  0  0  0  0
   -0.1293   -1.3894   -0.9992 H   0  0  0  0  0  0  0  0  0  0  0  0
  1  2  1  0  0  0  0
  1  5  1  0  0  0  0
  2  8  1  0  0  0  0
  3  1  1  0  0  0  0
  4  1  1  0  0  0  0
  6  2  1  0  0  0  0
  6 10  1  0  0  0  0
  7  2  1  0  0  0  0
  9  6  1  0  0  0  0
  9 12  1  0  0  0  0
 11  6  1  0  0  0  0
 13  9  1  0  0  0  0
 14  9  1  0  0  0  0
M  END
$$$$
