butane_opt
 OpenBabel08242015393D

 14 13  0  0  0  0  0  0  0  0999 V2000
   -3.9802    0.2869   -0.0096 C   0  0  0  0  0  0  0  0  0  0  0  0
   -2.6966   -0.6407    0.0968 C   0  0  0  0  0  0  0  0  0  0  0  0
   -4.8985   -0.2972   -0.1104 H   0  0  0  0  0  0  0  0  0  0  0  0
   -3.8656    0.8575   -0.9649 H   0  0  0  0  0  0  0  0  0  0  0  0
   -4.0930    0.9332    0.8043 H   0  0  0  0  0  0  0  0  0  0  0  0
   -1.4133    0.1813    0.0442 C   0  0  0  0  0  0  0  0  0  0  0  0
   -2.6665   -1.2483   -0.6351 H   0  0  0  0  0  0  0  0  0  0  0  0
   -2.8550   -1.4468    1.0636 H   0  0  0  0  0  0  0  0  0  0  0  0
   -0.1303   -0.6853   -0.0067 C   0  0  0  0  0  0  0  0  0  0  0  0
   -1.3972    0.8503    0.8338 H   0  0  0  0  0  0  0  0  0  0  0  0
   -1.4002    0.8933   -0.9658 H   0  0  0  0  0  0  0  0  0  0  0  0
    0.0269   -1.0953    0.7671 H   0  0  0  0  0  0  0  0  0  0  0  0
    0.8573    0.0648    0.2436 H   0  0  0  0  0  0  0  0  0  0  0  0
   -0.1327   -1.6758   -1.0978 H   0  0  0  0  0  0  0  0  0  0  0  0
  1  2  1  0  0  0  0
  1  5  1  0  0  0  0
  2  8  1  0  0  0  0
  3  1  1  0  0  0  0
  4  1  1  0  0  0  0
  6  2  1  0  0  0  0
  6 10  1  0  0  0  0
  7  2  1  0  0  0  0
  9  6  1  0  0  0  0
  9 13  1  0  0  0  0
  9 12  1  0  0  0  0
 11  6  1  0  0  0  0
 14  9  1  0  0  0  0
M  END
$$$$
