butane_opt
 OpenBabel08242015393D

 14 13  0  0  0  0  0  0  0  0999 V2000
   -3.8918    0.2629    0.0870 C   0  0  0  0  0  0  0  0  0  0  0  0
   -2.7151   -0.6007   -0.0744 C   0  0  0  0  0  0  0  0  0  0  0  0
   -4.8247   -0.3804    0.0996 H   0  0  0  0  0  0  0  0  0  0  0  0
   -4.0918    0.6215   -0.6696 H   0  0  0  0  0  0  0  0  0  0  0  0
   -3.7321    1.0640    1.0328 H   0  0  0  0  0  0  0  0  0  0  0  0
   -1.4086    0.1921   -0.0571 C   0  0  0  0  0  0  0  0  0  0  0  0
   -2.7738   -1.3497   -0.8991 H   0  0  0  0  0  0  0  0  0  0  0  0
   -2.6284   -1.1268    0.7012 H   0  0  0  0  0  0  0  0  0  0  0  0
   -0.2075   -0.6980    0.1265 C   0  0  0  0  0  0  0  0  0  0  0  0
   -1.4078    0.8671    0.7956 H   0  0  0  0  0  0  0  0  0  0  0  0
   -1.4538    0.8457   -0.9727 H   0  0  0  0  0  0  0  0  0  0  0  0
   -0.0462   -1.6099    1.1954 H   0  0  0  0  0  0  0  0  0  0  0  0
    0.6405   -0.1557   -0.3029 H   0  0  0  0  0  0  0  0  0  0  0  0
   -0.0467   -1.1143   -0.4890 H   0  0  0  0  0  0  0  0  0  0  0  0
  1  3  1  0  0  0  0
  1  5  1  0  0  0  0
  2  6  1  0  0  0  0
  2  1  1  0  0  0  0
  2  8  1  0  0  0  0
  4  1  1  0  0  0  0
  6  9  1  0  0  0  0
  6 10  1  0  0  0  0
  7  2  1  0  0  0  0
  9 12  1  0  0  0  0
 11  6  1  0  0  0  0
 13  9  1  0  0  0  0
 14  9  1  0  0  0  0
M  END
$$$$
