14
butane_opt
C  -3.980166   0.286875  -0.009571
C  -2.696619  -0.640688   0.096831
H  -4.898520  -0.297162  -0.110416
H  -3.865562   0.857541  -0.964858
H  -4.092982   0.933174   0.804262
C  -1.413288   0.181300   0.044194
H  -2.666486  -1.248253  -0.635094
H  -2.855049  -1.446763   1.063568
C  -0.130268  -0.685281  -0.006679
H  -1.397229   0.850251   0.833788
H  -1.400243   0.893331  -0.965810
H   0.026866  -1.095320   0.767088
H   0.857274   0.064798   0.243638
H  -0.132700  -1.675837  -1.097820
