14
butane_opt
C  -3.865131   0.247164   0.027406
C  -2.734772  -0.584262   0.064955
H  -4.872939  -0.440831  -0.139819
H  -3.814822   0.609108  -0.711615
H  -3.946511   1.088219   1.010248
C  -1.422347   0.207381  -0.031349
H  -2.692795  -1.292932  -0.783673
H  -2.858137  -1.195359   0.896698
C  -0.168317  -0.734820   0.059041
H  -1.468332   0.889921   0.741497
H  -1.502188   1.087591  -1.145205
H  -0.091599  -1.245210   0.924442
H   0.687242  -0.178582   0.191749
H  -0.167891  -1.461706  -0.939365
