butane_opt
 OpenBabel08242015393D

 14 13  0  0  0  0  0  0  0  0999 V2000
   -4.0122    0.3258   -0.0565 C   0  0  0  0  0  0  0  0  0  0  0  0
   -2.7060   -0.6708    0.1613 C   0  0  0  0  0  0  0  0  0  0  0  0
   -4.8091   -0.2599   -0.0289 H   0  0  0  0  0  0  0  0  0  0  0  0
   -3.8761    1.1610   -1.0665 H   0  0  0  0  0  0  0  0  0  0  0  0
   -4.0352    0.6869    0.6493 H   0  0  0  0  0  0  0  0  0  0  0  0
   -1.3349    0.1545    0.0639 C   0  0  0  0  0  0  0  0  0  0  0  0
   -2.7430   -1.2794   -0.6998 H   0  0  0  0  0  0  0  0  0  0  0  0
   -2.5803   -1.4000    1.1018 H   0  0  0  0  0  0  0  0  0  0  0  0
   -0.1759   -0.6639   -0.0535 C   0  0  0  0  0  0  0  0  0  0  0  0
   -1.2593    0.7766    0.9008 H   0  0  0  0  0  0  0  0  0  0  0  0
   -1.4275    0.6819   -0.7179 H   0  0  0  0  0  0  0  0  0  0  0  0
   -0.2451   -0.8585    0.5849 H   0  0  0  0  0  0  0  0  0  0  0  0
    0.7474   -0.0505    0.3906 H   0  0  0  0  0  0  0  0  0  0  0  0
   -0.0762   -1.6534   -1.1309 H   0  0  0  0  0  0  0  0  0  0  0  0
  1  3  1  0  0  0  0
  1  2  1  0  0  0  0
  1  5  1  0  0  0  0
  2  8  1  0  0  0  0
  4  1  1  0  0  0  0
  6  2  1  0  0  0  0
  6 10  1  0  0  0  0
  7  2  1  0  0  0  0
  9  6  1  0  0  0  0
  9 13  1  0  0  0  0
  9 12  1  0  0  0  0
 11  6  1  0  0  0  0
 14  9  1  0  0  0  0
M  END
$$$$
