14
butane_opt
C  -3.947606   0.256489   0.027711
C  -2.698693  -0.611765   0.023904
H  -4.882832  -0.363861   0.032542
H  -3.955756   0.856044  -0.858167
H  -3.952601   0.918342   0.888454
C  -1.403637   0.214732   0.008459
H  -2.785759  -1.337215  -0.856706
H  -2.714952  -1.174655   0.865121
C  -0.157931  -0.710345   0.045396
H  -1.403890   0.896760   0.852929
H  -1.376960   0.795924  -0.853778
H  -0.064688  -1.444644   1.028154
H   0.733628  -0.130028  -0.142728
H  -0.123438  -1.279823  -0.777474
