butane_opt
 OpenBabel08242015393D

 14 13  0  0  0  0  0  0  0  0999 V2000
   -3.9721    0.2365    0.0070 C   0  0  0  0  0  0  0  0  0  0  0  0
   -2.6993   -0.6023    0.0621 C   0  0  0  0  0  0  0  0  0  0  0  0
   -4.9481   -0.4225    0.1887 H   0  0  0  0  0  0  0  0  0  0  0  0
   -3.9232    0.9384   -0.9356 H   0  0  0  0  0  0  0  0  0  0  0  0
   -3.9076    0.9598    0.9309 H   0  0  0  0  0  0  0  0  0  0  0  0
   -1.3832    0.2401   -0.0462 C   0  0  0  0  0  0  0  0  0  0  0  0
   -2.7726   -1.2557   -0.7297 H   0  0  0  0  0  0  0  0  0  0  0  0
   -2.8785   -1.3059    1.0565 H   0  0  0  0  0  0  0  0  0  0  0  0
   -0.1469   -0.7194    0.0324 C   0  0  0  0  0  0  0  0  0  0  0  0
   -1.2950    1.0226    0.8686 H   0  0  0  0  0  0  0  0  0  0  0  0
   -1.4096    0.8425   -0.8498 H   0  0  0  0  0  0  0  0  0  0  0  0
   -0.2342   -1.1886    0.7715 H   0  0  0  0  0  0  0  0  0  0  0  0
    0.6716   -0.2608    0.3891 H   0  0  0  0  0  0  0  0  0  0  0  0
    0.1166   -1.6846   -0.9247 H   0  0  0  0  0  0  0  0  0  0  0  0
  1  2  1  0  0  0  0
  1  3  1  0  0  0  0
  1  5  1  0  0  0  0
  2  8  1  0  0  0  0
  4  1  1  0  0  0  0
  6  9  1  0  0  0  0
  6  2  1  0  0  0  0
  6 10  1  0  0  0  0
  7  2  1  0  0  0  0
  9 13  1  0  0  0  0
  9 12  1  0  0  0  0
 11  6  1  0  0  0  0
 14  9  1  0  0  0  0
M  END
$$$$
