butane_opt
 OpenBabel08242015393D

 14 13  0  0  0  0  0  0  0  0999 V2000
   -3.8983    0.2177    0.0840 C   0  0  0  0  0  0  0  0  0  0  0  0
   -2.7069   -0.5765   -0.0382 C   0  0  0  0  0  0  0  0  0  0  0  0
   -4.8951   -0.4205    0.3668 H   0  0  0  0  0  0  0  0  0  0  0  0
   -4.0782    0.9381   -0.9282 H   0  0  0  0  0  0  0  0  0  0  0  0
   -3.5291    0.8922    1.0070 H   0  0  0  0  0  0  0  0  0  0  0  0
   -1.4178    0.2468   -0.0800 C   0  0  0  0  0  0  0  0  0  0  0  0
   -2.7304   -1.3177   -1.0500 H   0  0  0  0  0  0  0  0  0  0  0  0
   -2.6343   -1.1608    0.8104 H   0  0  0  0  0  0  0  0  0  0  0  0
   -0.2058   -0.7435    0.0953 C   0  0  0  0  0  0  0  0  0  0  0  0
   -1.4679    0.9922    0.8338 H   0  0  0  0  0  0  0  0  0  0  0  0
   -1.3296    0.8347   -0.9491 H   0  0  0  0  0  0  0  0  0  0  0  0
   -0.3326   -1.3965    1.0298 H   0  0  0  0  0  0  0  0  0  0  0  0
    0.6760   -0.2468    0.2193 H   0  0  0  0  0  0  0  0  0  0  0  0
    0.0775   -1.3324   -0.6418 H   0  0  0  0  0  0  0  0  0  0  0  0
  1  3  1  0  0  0  0
  1  5  1  0  0  0  0
  2  1  1  0  0  0  0
  2  8  1  0  0  0  0
  4  1  1  0  0  0  0
  6  2  1  0  0  0  0
  6  9  1  0  0  0  0
  6 10  1  0  0  0  0
  7  2  1  0  0  0  0
  9 13  1  0  0  0  0
  9 12  1  0  0  0  0
 11  6  1  0  0  0  0
 14  9  1  0  0  0  0
M  END
$$$$
