14
butane_opt
C  -3.954137   0.232269   0.041620
C  -2.740230  -0.562028  -0.018550
H  -4.967399  -0.529707   0.198736
H  -4.222448   0.837145  -0.783592
H  -3.766675   0.875007   0.884377
C  -1.429201   0.221805  -0.015965
H  -2.723831  -1.253136  -0.946411
H  -2.659978  -1.244282   0.868740
C  -0.101350  -0.706317   0.069813
H  -1.395391   0.950077   0.914007
H  -1.382445   0.807899  -0.923771
H   0.029148  -1.600738   1.076108
H   0.763894  -0.214622   0.005113
H   0.014539  -1.341339  -0.763706
