butane_opt
 OpenBabel08242015393D

 14 13  0  0  0  0  0  0  0  0999 V2000
   -3.9623    0.2685    0.0507 C   0  0  0  0  0  0  0  0  0  0  0  0
   -2.7468   -0.6040   -0.0486 C   0  0  0  0  0  0  0  0  0  0  0  0
   -4.8578   -0.3158    0.1950 H   0  0  0  0  0  0  0  0  0  0  0  0
   -4.0138    0.6230   -0.6626 H   0  0  0  0  0  0  0  0  0  0  0  0
   -3.8804    1.0765    0.9430 H   0  0  0  0  0  0  0  0  0  0  0  0
   -1.3927    0.1869   -0.0270 C   0  0  0  0  0  0  0  0  0  0  0  0
   -2.7859   -1.3456   -0.8936 H   0  0  0  0  0  0  0  0  0  0  0  0
   -2.7070   -1.2263    0.8809 H   0  0  0  0  0  0  0  0  0  0  0  0
   -0.1255   -0.7108    0.0926 C   0  0  0  0  0  0  0  0  0  0  0  0
   -1.5846    0.9368    0.8043 H   0  0  0  0  0  0  0  0  0  0  0  0
   -1.3130    0.8433   -0.8869 H   0  0  0  0  0  0  0  0  0  0  0  0
    0.0957   -1.5592    1.1551 H   0  0  0  0  0  0  0  0  0  0  0  0
    0.8682   -0.0405   -0.2548 H   0  0  0  0  0  0  0  0  0  0  0  0
   -0.1481   -1.1388   -0.6141 H   0  0  0  0  0  0  0  0  0  0  0  0
  1  3  1  0  0  0  0
  1  5  1  0  0  0  0
  2  6  1  0  0  0  0
  2  1  1  0  0  0  0
  2  8  1  0  0  0  0
  4  1  1  0  0  0  0
  6  9  1  0  0  0  0
  6 10  1  0  0  0  0
  7  2  1  0  0  0  0
  9 12  1  0  0  0  0
 11  6  1  0  0  0  0
 13  9  1  0  0  0  0
 14  9  1  0  0  0  0
M  END
$$$$
