butane_opt
 OpenBabel08242015393D

 14 12  0  0  0  0  0  0  0  0999 V2000
   -3.9748    0.2907    0.1204 C   0  0  0  0  0  0  0  0  0  0  0  0
   -2.7202   -0.6488   -0.0612 C   0  0  0  0  0  0  0  0  0  0  0  0
   -4.8760   -0.2051   -0.2698 H   0  0  0  0  0  0  0  0  0  0  0  0
   -3.9622    0.6588   -0.6544 H   0  0  0  0  0  0  0  0  0  0  0  0
   -4.0817    1.1839    1.1144 H   0  0  0  0  0  0  0  0  0  0  0  0
   -1.3880    0.1689   -0.0601 C   0  0  0  0  0  0  0  0  0  0  0  0
   -2.8522   -1.3995   -0.9957 H   0  0  0  0  0  0  0  0  0  0  0  0
   -2.6157   -1.1249    0.7152 H   0  0  0  0  0  0  0  0  0  0  0  0
   -0.1219   -0.6736    0.1147 C   0  0  0  0  0  0  0  0  0  0  0  0
   -1.3531    0.6535    0.6881 H   0  0  0  0  0  0  0  0  0  0  0  0
   -1.2691    0.9092   -0.9374 H   0  0  0  0  0  0  0  0  0  0  0  0
   -0.0725   -1.7014    1.3033 H   0  0  0  0  0  0  0  0  0  0  0  0
    0.8453   -0.0152   -0.2923 H   0  0  0  0  0  0  0  0  0  0  0  0
   -0.3366   -1.0700   -0.5491 H   0  0  0  0  0  0  0  0  0  0  0  0
  1  5  1  0  0  0  0
  2  6  1  0  0  0  0
  2  1  1  0  0  0  0
  2  8  1  0  0  0  0
  3  1  1  0  0  0  0
  4  1  1  0  0  0  0
  6  9  1  0  0  0  0
  6 10  1  0  0  0  0
  7  2  1  0  0  0  0
 11  6  1  0  0  0  0
 13  9  1  0  0  0  0
 14  9  1  0  0  0  0
M  RAD  2   9   2  12   2
M  END
$$$$
