14
butane_opt
C  -3.964990   0.242949  -0.073208
C  -2.686437  -0.572792   0.169630
H  -4.899944  -0.380847  -0.469631
H  -3.556554   0.663234  -0.864435
H  -4.095307   1.105958   0.941521
C  -1.411756   0.220008   0.059935
H  -2.590389  -1.125601  -0.592798
H  -2.828179  -1.473057   1.292050
C  -0.177331  -0.718656  -0.037257
H  -1.290742   0.916347   0.963889
H  -1.364314   0.678096  -0.785066
H  -0.062833  -1.158403   0.756333
H   0.799071  -0.193415  -0.203176
H  -0.241836  -1.557108  -1.034941
