butane_opt
 OpenBabel08242015393D

 14 13  0  0  0  0  0  0  0  0999 V2000
   -3.9373    0.2969   -0.0880 C   0  0  0  0  0  0  0  0  0  0  0  0
   -2.6852   -0.6244    0.1609 C   0  0  0  0  0  0  0  0  0  0  0  0
   -4.8783   -0.2764   -0.2167 H   0  0  0  0  0  0  0  0  0  0  0  0
   -3.8298    0.8659   -1.0328 H   0  0  0  0  0  0  0  0  0  0  0  0
   -4.1719    0.9914    0.7560 H   0  0  0  0  0  0  0  0  0  0  0  0
   -1.3911    0.1362    0.1612 C   0  0  0  0  0  0  0  0  0  0  0  0
   -2.5750   -1.2612   -0.7016 H   0  0  0  0  0  0  0  0  0  0  0  0
   -3.0415   -1.3052    1.0525 H   0  0  0  0  0  0  0  0  0  0  0  0
   -0.1817   -0.6715   -0.0914 C   0  0  0  0  0  0  0  0  0  0  0  0
   -1.2639    0.7813    0.9515 H   0  0  0  0  0  0  0  0  0  0  0  0
   -1.4638    0.7279   -0.6837 H   0  0  0  0  0  0  0  0  0  0  0  0
    0.1001   -1.4124    0.8469 H   0  0  0  0  0  0  0  0  0  0  0  0
    0.8209    0.0657   -0.2610 H   0  0  0  0  0  0  0  0  0  0  0  0
   -0.4021   -1.2718   -0.9356 H   0  0  0  0  0  0  0  0  0  0  0  0
  1  2  1  0  0  0  0
  1  5  1  0  0  0  0
  2  6  1  0  0  0  0
  2  8  1  0  0  0  0
  3  1  1  0  0  0  0
  4  1  1  0  0  0  0
  6 10  1  0  0  0  0
  7  2  1  0  0  0  0
  9  6  1  0  0  0  0
  9 12  1  0  0  0  0
 11  6  1  0  0  0  0
 13  9  1  0  0  0  0
 14  9  1  0  0  0  0
M  END
$$$$
