butane_opt
 OpenBabel08242015393D

 14 12  0  0  0  0  0  0  0  0999 V2000
   -3.9273    0.2333   -0.0301 C   0  0  0  0  0  0  0  0  0  0  0  0
   -2.6919   -0.5927    0.0744 C   0  0  0  0  0  0  0  0  0  0  0  0
   -4.9156   -0.3788    0.2996 H   0  0  0  0  0  0  0  0  0  0  0  0
   -3.9608    1.2049   -1.2098 H   0  0  0  0  0  0  0  0  0  0  0  0
   -3.8516    0.6251    0.6979 H   0  0  0  0  0  0  0  0  0  0  0  0
   -1.4183    0.1971    0.0940 C   0  0  0  0  0  0  0  0  0  0  0  0
   -2.6804   -1.3405   -0.9317 H   0  0  0  0  0  0  0  0  0  0  0  0
   -2.7641   -1.1169    0.8945 H   0  0  0  0  0  0  0  0  0  0  0  0
   -0.1376   -0.7153   -0.0124 C   0  0  0  0  0  0  0  0  0  0  0  0
   -1.3810    1.0445    1.0627 H   0  0  0  0  0  0  0  0  0  0  0  0
   -1.6967    0.7932   -0.7671 H   0  0  0  0  0  0  0  0  0  0  0  0
   -0.0834   -1.3465    0.8733 H   0  0  0  0  0  0  0  0  0  0  0  0
    0.7481   -0.1060   -0.1179 H   0  0  0  0  0  0  0  0  0  0  0  0
   -0.3149   -1.3264   -0.8769 H   0  0  0  0  0  0  0  0  0  0  0  0
  1  2  1  0  0  0  0
  1  3  1  0  0  0  0
  1  5  1  0  0  0  0
  2  6  1  0  0  0  0
  2  8  1  0  0  0  0
  6 10  1  0  0  0  0
  7  2  1  0  0  0  0
  9  6  1  0  0  0  0
  9 12  1  0  0  0  0
 11  6  1  0  0  0  0
 13  9  1  0  0  0  0
 14  9  1  0  0  0  0
M  RAD  2   1   2   4   2
M  END
$$$$
