butane_opt
 OpenBabel08242015393D

 14 13  0  0  0  0  0  0  0  0999 V2000
   -3.9322    0.2634    0.0049 C   0  0  0  0  0  0  0  0  0  0  0  0
   -2.6973   -0.6103    0.0385 C   0  0  0  0  0  0  0  0  0  0  0  0
   -4.7961   -0.2999    0.1589 H   0  0  0  0  0  0  0  0  0  0  0  0
   -4.0069    0.9908   -0.9668 H   0  0  0  0  0  0  0  0  0  0  0  0
   -3.9093    0.8312    0.8019 H   0  0  0  0  0  0  0  0  0  0  0  0
   -1.4107    0.1822    0.0332 C   0  0  0  0  0  0  0  0  0  0  0  0
   -2.7229   -1.3002   -0.7986 H   0  0  0  0  0  0  0  0  0  0  0  0
   -2.7168   -1.3104    0.9836 H   0  0  0  0  0  0  0  0  0  0  0  0
   -0.1696   -0.6905    0.0190 C   0  0  0  0  0  0  0  0  0  0  0  0
   -1.4140    0.8809    0.9056 H   0  0  0  0  0  0  0  0  0  0  0  0
   -1.3580    0.7697   -0.8468 H   0  0  0  0  0  0  0  0  0  0  0  0
   -0.1583   -1.2544    0.8443 H   0  0  0  0  0  0  0  0  0  0  0  0
    0.7387   -0.0942    0.0712 H   0  0  0  0  0  0  0  0  0  0  0  0
   -0.1661   -1.4079   -0.8806 H   0  0  0  0  0  0  0  0  0  0  0  0
  1  2  1  0  0  0  0
  1  3  1  0  0  0  0
  1  5  1  0  0  0  0
  2  8  1  0  0  0  0
  4  1  1  0  0  0  0
  6  2  1  0  0  0  0
  6 10  1  0  0  0  0
  7  2  1  0  0  0  0
  9  6  1  0  0  0  0
  9 13  1  0  0  0  0
  9 12  1  0  0  0  0
 11  6  1  0  0  0  0
 14  9  1  0  0  0  0
M  END
$$$$
