14
butane_opt
C  -3.955674   0.275761   0.000196
C  -2.702886  -0.633371   0.062063
H  -4.833329  -0.293056  -0.058079
H  -3.935492   0.815128  -0.826482
H  -4.048002   0.992476   0.884495
C  -1.383938   0.187694   0.016263
H  -2.732058  -1.284057  -0.768267
H  -2.705299  -1.307848   0.984848
C  -0.159079  -0.686537   0.013146
H  -1.351035   0.881934   0.903197
H  -1.419066   0.820676  -0.865767
H  -0.190516  -1.336910   0.922772
H   0.744611  -0.118817   0.022840
H  -0.136675  -1.364467  -0.853978
