butane_opt
 OpenBabel08242015393D

 14 11  0  0  0  0  0  0  0  0999 V2000
   -3.9788    0.2260   -0.0221 C   0  0  0  0  0  0  0  0  0  0  0  0
   -2.7475   -0.5494    0.0536 C   0  0  0  0  0  0  0  0  0  0  0  0
   -4.8715   -0.3524    0.4871 H   0  0  0  0  0  0  0  0  0  0  0  0
   -4.0784    1.1661   -1.1137 H   0  0  0  0  0  0  0  0  0  0  0  0
   -3.6651    0.4461    0.5774 H   0  0  0  0  0  0  0  0  0  0  0  0
   -1.3963    0.2195    0.0552 C   0  0  0  0  0  0  0  0  0  0  0  0
   -2.6404   -1.2025   -0.8415 H   0  0  0  0  0  0  0  0  0  0  0  0
   -2.7420   -1.1719    0.9057 H   0  0  0  0  0  0  0  0  0  0  0  0
   -0.1259   -0.7314   -0.0160 C   0  0  0  0  0  0  0  0  0  0  0  0
   -1.2802    1.0055    1.0441 H   0  0  0  0  0  0  0  0  0  0  0  0
   -1.4335    0.6043   -0.6580 H   0  0  0  0  0  0  0  0  0  0  0  0
   -0.0654   -1.2468    0.9433 H   0  0  0  0  0  0  0  0  0  0  0  0
    0.7131   -0.1976    0.1399 H   0  0  0  0  0  0  0  0  0  0  0  0
    0.0204   -1.5010   -0.9380 H   0  0  0  0  0  0  0  0  0  0  0  0
  1  3  1  0  0  0  0
  1  5  1  0  0  0  0
  2  8  1  0  0  0  0
  4  1  1  0  0  0  0
  6 10  1  0  0  0  0
  7  2  1  0  0  0  0
  9  6  1  0  0  0  0
  9 13  1  0  0  0  0
  9 12  1  0  0  0  0
 11  6  1  0  0  0  0
 14  9  1  0  0  0  0
M  RAD  3   1   2   2   3   6   2
M  END
$$$$
