butane_opt
 OpenBabel08242015393D

 14 13  0  0  0  0  0  0  0  0999 V2000
   -3.9454    0.2461   -0.0317 C   0  0  0  0  0  0  0  0  0  0  0  0
   -2.7434   -0.6173    0.0506 C   0  0  0  0  0  0  0  0  0  0  0  0
   -4.8486   -0.3447   -0.0285 H   0  0  0  0  0  0  0  0  0  0  0  0
   -3.9035    0.7764   -0.9363 H   0  0  0  0  0  0  0  0  0  0  0  0
   -3.8161    1.0214    0.9294 H   0  0  0  0  0  0  0  0  0  0  0  0
   -1.3933    0.2492    0.0857 C   0  0  0  0  0  0  0  0  0  0  0  0
   -2.5325   -1.2424   -0.7679 H   0  0  0  0  0  0  0  0  0  0  0  0
   -2.8706   -1.2309    0.9353 H   0  0  0  0  0  0  0  0  0  0  0  0
   -0.1475   -0.7371   -0.0018 C   0  0  0  0  0  0  0  0  0  0  0  0
   -1.3519    1.0229    1.0245 H   0  0  0  0  0  0  0  0  0  0  0  0
   -1.4148    0.6727   -0.7288 H   0  0  0  0  0  0  0  0  0  0  0  0
    0.0796   -1.5908    1.0488 H   0  0  0  0  0  0  0  0  0  0  0  0
    0.6330   -0.2097   -0.5769 H   0  0  0  0  0  0  0  0  0  0  0  0
   -0.2339   -1.0330   -0.6556 H   0  0  0  0  0  0  0  0  0  0  0  0
  1  3  1  0  0  0  0
  1  2  1  0  0  0  0
  1  5  1  0  0  0  0
  2  6  1  0  0  0  0
  2  8  1  0  0  0  0
  4  1  1  0  0  0  0
  6 10  1  0  0  0  0
  7  2  1  0  0  0  0
  9  6  1  0  0  0  0
  9 12  1  0  0  0  0
 11  6  1  0  0  0  0
 13  9  1  0  0  0  0
 14  9  1  0  0  0  0
M  END
$$$$
