14
butane_opt
C  -3.962979   0.302662   0.077056
C  -2.683347  -0.701617  -0.047149
H  -4.758740  -0.129358   0.009985
H  -4.109206   0.514645  -0.605262
H  -4.053542   1.343602   1.187158
C  -1.374370   0.170158  -0.069847
H  -2.690904  -1.399648  -0.877210
H  -2.663541  -1.186815   0.669544
C  -0.183953  -0.674127   0.112030
H  -1.548778   0.813161   0.792647
H  -1.314063   0.876912  -0.995832
H  -0.079370  -1.604940   1.247511
H   0.814774   0.065229  -0.272036
H  -0.202868  -0.900087  -0.501819
