14
butane_opt
C  -3.972079   0.261981   0.068266
C  -2.705669  -0.634339  -0.078618
H  -4.867810  -0.224252   0.493228
H  -4.283389   1.230865  -0.994091
H  -3.700474   0.797684   0.898177
C  -1.366578   0.169321  -0.022018
H  -2.752498  -1.373432  -0.920173
H  -2.678649  -1.272668   0.764727
C  -0.171226  -0.669612   0.102652
H  -1.319292   0.894012   0.916364
H  -1.408311   0.784329  -0.852257
H  -0.153125  -1.343751   1.038998
H   0.703988  -0.146932  -0.019558
H   0.007165  -1.323579  -0.759407
