butane_opt
 OpenBabel08242015393D

 14 13  0  0  0  0  0  0  0  0999 V2000
   -3.9649    0.2365    0.1159 C   0  0  0  0  0  0  0  0  0  0  0  0
   -2.7324   -0.5803   -0.0618 C   0  0  0  0  0  0  0  0  0  0  0  0
   -4.7879   -0.3410    0.1271 H   0  0  0  0  0  0  0  0  0  0  0  0
   -3.9451    0.6469   -0.6749 H   0  0  0  0  0  0  0  0  0  0  0  0
   -3.9662    1.1230    1.1513 H   0  0  0  0  0  0  0  0  0  0  0  0
   -1.4322    0.2101   -0.1256 C   0  0  0  0  0  0  0  0  0  0  0  0
   -2.9722   -1.2556   -0.9496 H   0  0  0  0  0  0  0  0  0  0  0  0
   -2.6344   -1.3118    0.8739 H   0  0  0  0  0  0  0  0  0  0  0  0
   -0.0877   -0.6995    0.1180 C   0  0  0  0  0  0  0  0  0  0  0  0
   -1.5009    0.7795    0.7151 H   0  0  0  0  0  0  0  0  0  0  0  0
   -1.2871    0.9125   -1.1099 H   0  0  0  0  0  0  0  0  0  0  0  0
   -0.2775   -1.4119    1.1303 H   0  0  0  0  0  0  0  0  0  0  0  0
    0.7680   -0.1062    0.3490 H   0  0  0  0  0  0  0  0  0  0  0  0
    0.1731   -1.4989   -0.7163 H   0  0  0  0  0  0  0  0  0  0  0  0
  1  3  1  0  0  0  0
  1  5  1  0  0  0  0
  2  1  1  0  0  0  0
  2  8  1  0  0  0  0
  4  1  1  0  0  0  0
  6  2  1  0  0  0  0
  6  9  1  0  0  0  0
  6 10  1  0  0  0  0
  7  2  1  0  0  0  0
  9 13  1  0  0  0  0
  9 12  1  0  0  0  0
 11  6  1  0  0  0  0
 14  9  1  0  0  0  0
M  END
$$$$
