butane_opt
 OpenBabel08242015393D

 14 12  0  0  0  0  0  0  0  0999 V2000
   -3.9646    0.2408    0.1033 C   0  0  0  0  0  0  0  0  0  0  0  0
   -2.7487   -0.5879   -0.0213 C   0  0  0  0  0  0  0  0  0  0  0  0
   -4.9720   -0.4657   -0.4432 H   0  0  0  0  0  0  0  0  0  0  0  0
   -3.7906    0.3876   -0.5453 H   0  0  0  0  0  0  0  0  0  0  0  0
   -4.0820    1.3716    1.2240 H   0  0  0  0  0  0  0  0  0  0  0  0
   -1.4165    0.2174   -0.1013 C   0  0  0  0  0  0  0  0  0  0  0  0
   -2.7622   -1.0953   -0.8339 H   0  0  0  0  0  0  0  0  0  0  0  0
   -2.6087   -1.3723    0.9259 H   0  0  0  0  0  0  0  0  0  0  0  0
   -0.0903   -0.7195    0.1074 C   0  0  0  0  0  0  0  0  0  0  0  0
   -1.3834    0.8731    0.7290 H   0  0  0  0  0  0  0  0  0  0  0  0
   -1.3764    0.9711   -1.0966 H   0  0  0  0  0  0  0  0  0  0  0  0
   -0.0219   -1.4872    1.1194 H   0  0  0  0  0  0  0  0  0  0  0  0
    0.7640   -0.2810    0.0326 H   0  0  0  0  0  0  0  0  0  0  0  0
   -0.1188   -1.2248   -0.6544 H   0  0  0  0  0  0  0  0  0  0  0  0
  2  1  1  0  0  0  0
  2  8  1  0  0  0  0
  3  1  1  0  0  0  0
  4  1  1  0  0  0  0
  6  2  1  0  0  0  0
  6  9  1  0  0  0  0
  6 10  1  0  0  0  0
  7  2  1  0  0  0  0
  9 12  1  0  0  0  0
 11  6  1  0  0  0  0
 13  9  1  0  0  0  0
 14  9  1  0  0  0  0
M  RAD  2   1   2   5   2
M  END
$$$$
