butane_opt
 OpenBabel08242015393D

 14 13  0  0  0  0  0  0  0  0999 V2000
   -3.9263    0.2987   -0.0940 C   0  0  0  0  0  0  0  0  0  0  0  0
   -2.6783   -0.6411    0.1306 C   0  0  0  0  0  0  0  0  0  0  0  0
   -4.7996   -0.2282    0.3721 H   0  0  0  0  0  0  0  0  0  0  0  0
   -4.0558    1.2108   -1.1640 H   0  0  0  0  0  0  0  0  0  0  0  0
   -3.8598    0.5372    0.5145 H   0  0  0  0  0  0  0  0  0  0  0  0
   -1.3928    0.1417    0.1410 C   0  0  0  0  0  0  0  0  0  0  0  0
   -2.6476   -1.4307   -0.7988 H   0  0  0  0  0  0  0  0  0  0  0  0
   -2.6743   -1.2423    0.9746 H   0  0  0  0  0  0  0  0  0  0  0  0
   -0.2261   -0.6589   -0.0635 C   0  0  0  0  0  0  0  0  0  0  0  0
   -1.2574    0.9618    1.1492 H   0  0  0  0  0  0  0  0  0  0  0  0
   -1.5240    0.6929   -0.7298 H   0  0  0  0  0  0  0  0  0  0  0  0
   -0.1353   -1.1416    0.8106 H   0  0  0  0  0  0  0  0  0  0  0  0
    0.6849   -0.0203   -0.1140 H   0  0  0  0  0  0  0  0  0  0  0  0
   -0.1144   -1.4711   -1.0012 H   0  0  0  0  0  0  0  0  0  0  0  0
  1  2  1  0  0  0  0
  1  3  1  0  0  0  0
  1  5  1  0  0  0  0
  2  6  1  0  0  0  0
  2  8  1  0  0  0  0
  4  1  1  0  0  0  0
  6 10  1  0  0  0  0
  7  2  1  0  0  0  0
  9  6  1  0  0  0  0
  9 12  1  0  0  0  0
 11  6  1  0  0  0  0
 13  9  1  0  0  0  0
 14  9  1  0  0  0  0
M  END
$$$$
