14
butane_opt
C  -3.977127   0.206643  -0.044857
C  -2.739160  -0.547714   0.093031
H  -4.856278  -0.400248   0.332434
H  -3.986422   1.220753  -1.166020
H  -3.933127   0.492652   0.545758
C  -1.396277   0.221867   0.090522
H  -2.774564  -1.237849  -0.662680
H  -2.668736  -1.151231   0.978725
C  -0.094779  -0.733082  -0.047503
H  -1.430125   1.012509   1.041462
H  -1.474307   0.799828  -0.749416
H  -0.033523  -1.125034   0.700001
H   0.764378  -0.284197   0.274379
H  -0.116512  -1.580875  -1.008768
