butane_opt
 OpenBabel08242015393D

 14 13  0  0  0  0  0  0  0  0999 V2000
   -3.9474    0.3024   -0.0887 C   0  0  0  0  0  0  0  0  0  0  0  0
   -2.6645   -0.6284    0.2096 C   0  0  0  0  0  0  0  0  0  0  0  0
   -4.8541   -0.3458   -0.5733 H   0  0  0  0  0  0  0  0  0  0  0  0
   -3.7003    0.7259   -0.9009 H   0  0  0  0  0  0  0  0  0  0  0  0
   -4.1896    1.1471    0.7489 H   0  0  0  0  0  0  0  0  0  0  0  0
   -1.3652    0.1431    0.0770 C   0  0  0  0  0  0  0  0  0  0  0  0
   -2.7092   -1.1489   -0.5676 H   0  0  0  0  0  0  0  0  0  0  0  0
   -2.6322   -1.5309    1.2605 H   0  0  0  0  0  0  0  0  0  0  0  0
   -0.2088   -0.6638   -0.0813 C   0  0  0  0  0  0  0  0  0  0  0  0
   -1.2805    0.9261    1.1018 H   0  0  0  0  0  0  0  0  0  0  0  0
   -1.5044    0.5967   -0.6817 H   0  0  0  0  0  0  0  0  0  0  0  0
   -0.2205   -1.1958    0.7363 H   0  0  0  0  0  0  0  0  0  0  0  0
    0.7391   -0.0816   -0.0801 H   0  0  0  0  0  0  0  0  0  0  0  0
   -0.4386   -1.4011   -1.0118 H   0  0  0  0  0  0  0  0  0  0  0  0
  1  2  1  0  0  0  0
  1  5  1  0  0  0  0
  2  8  1  0  0  0  0
  3  1  1  0  0  0  0
  4  1  1  0  0  0  0
  6  2  1  0  0  0  0
  6 10  1  0  0  0  0
  7  2  1  0  0  0  0
  9 13  1  0  0  0  0
  9  6  1  0  0  0  0
  9 12  1  0  0  0  0
 11  6  1  0  0  0  0
 14  9  1  0  0  0  0
M  END
$$$$
