butane_opt
 OpenBabel08242015393D

 14 13  0  0  0  0  0  0  0  0999 V2000
   -4.0089    0.3114    0.1008 C   0  0  0  0  0  0  0  0  0  0  0  0
   -2.6961   -0.6532   -0.0654 C   0  0  0  0  0  0  0  0  0  0  0  0
   -4.9314   -0.2485    0.3088 H   0  0  0  0  0  0  0  0  0  0  0  0
   -4.1905    1.0756   -0.9032 H   0  0  0  0  0  0  0  0  0  0  0  0
   -3.8677    0.7919    0.7788 H   0  0  0  0  0  0  0  0  0  0  0  0
   -1.3404    0.1496   -0.0487 C   0  0  0  0  0  0  0  0  0  0  0  0
   -2.7940   -1.3610   -0.9436 H   0  0  0  0  0  0  0  0  0  0  0  0
   -2.5535   -1.3348    0.7557 H   0  0  0  0  0  0  0  0  0  0  0  0
   -0.1422   -0.6617    0.0854 C   0  0  0  0  0  0  0  0  0  0  0  0
   -1.3515    0.9036    0.8494 H   0  0  0  0  0  0  0  0  0  0  0  0
   -1.3291    0.6233   -0.8376 H   0  0  0  0  0  0  0  0  0  0  0  0
   -0.3106   -1.3727    1.0517 H   0  0  0  0  0  0  0  0  0  0  0  0
    0.7544   -0.0642    0.1496 H   0  0  0  0  0  0  0  0  0  0  0  0
   -0.1994   -1.2192   -0.6431 H   0  0  0  0  0  0  0  0  0  0  0  0
  1  3  1  0  0  0  0
  1  5  1  0  0  0  0
  2  6  1  0  0  0  0
  2  1  1  0  0  0  0
  2  8  1  0  0  0  0
  4  1  1  0  0  0  0
  6  9  1  0  0  0  0
  6 10  1  0  0  0  0
  7  2  1  0  0  0  0
  9 13  1  0  0  0  0
  9 12  1  0  0  0  0
 11  6  1  0  0  0  0
 14  9  1  0  0  0  0
M  END
$$$$
