butane_opt
 OpenBabel08242015393D

 14 13  0  0  0  0  0  0  0  0999 V2000
   -3.9336    0.2738   -0.0088 C   0  0  0  0  0  0  0  0  0  0  0  0
   -2.6945   -0.6303    0.0563 C   0  0  0  0  0  0  0  0  0  0  0  0
   -4.8484   -0.3223    0.1507 H   0  0  0  0  0  0  0  0  0  0  0  0
   -4.0295    1.0281   -0.9958 H   0  0  0  0  0  0  0  0  0  0  0  0
   -3.9520    0.8332    0.7711 H   0  0  0  0  0  0  0  0  0  0  0  0
   -1.4058    0.1782    0.0522 C   0  0  0  0  0  0  0  0  0  0  0  0
   -2.6471   -1.3181   -0.7781 H   0  0  0  0  0  0  0  0  0  0  0  0
   -2.7589   -1.2525    0.9308 H   0  0  0  0  0  0  0  0  0  0  0  0
   -0.1707   -0.6917    0.0067 C   0  0  0  0  0  0  0  0  0  0  0  0
   -1.3443    0.8954    0.9472 H   0  0  0  0  0  0  0  0  0  0  0  0
   -1.3827    0.8241   -0.8330 H   0  0  0  0  0  0  0  0  0  0  0  0
   -0.1408   -1.2729    0.8629 H   0  0  0  0  0  0  0  0  0  0  0  0
    0.7550   -0.0433   -0.0014 H   0  0  0  0  0  0  0  0  0  0  0  0
   -0.2178   -1.4013   -0.9036 H   0  0  0  0  0  0  0  0  0  0  0  0
  1  2  1  0  0  0  0
  1  3  1  0  0  0  0
  1  5  1  0  0  0  0
  2  8  1  0  0  0  0
  4  1  1  0  0  0  0
  6  2  1  0  0  0  0
  6 10  1  0  0  0  0
  7  2  1  0  0  0  0
  9  6  1  0  0  0  0
  9 12  1  0  0  0  0
 11  6  1  0  0  0  0
 13  9  1  0  0  0  0
 14  9  1  0  0  0  0
M  END
$$$$
