butane_opt
 OpenBabel08242015393D

 14 13  0  0  0  0  0  0  0  0999 V2000
   -3.9191    0.2342   -0.0750 C   0  0  0  0  0  0  0  0  0  0  0  0
   -2.7238   -0.5803    0.1311 C   0  0  0  0  0  0  0  0  0  0  0  0
   -4.8435   -0.4038   -0.0583 H   0  0  0  0  0  0  0  0  0  0  0  0
   -3.7112    0.8607   -0.9715 H   0  0  0  0  0  0  0  0  0  0  0  0
   -3.8947    0.9392    0.7378 H   0  0  0  0  0  0  0  0  0  0  0  0
   -1.4105    0.2228    0.1020 C   0  0  0  0  0  0  0  0  0  0  0  0
   -2.6778   -1.1939   -0.6639 H   0  0  0  0  0  0  0  0  0  0  0  0
   -2.7776   -1.2666    1.0586 H   0  0  0  0  0  0  0  0  0  0  0  0
   -0.1829   -0.7127   -0.0789 C   0  0  0  0  0  0  0  0  0  0  0  0
   -1.2895    0.9310    1.0959 H   0  0  0  0  0  0  0  0  0  0  0  0
   -1.5494    0.7475   -0.6623 H   0  0  0  0  0  0  0  0  0  0  0  0
    0.0160   -1.5041    0.9691 H   0  0  0  0  0  0  0  0  0  0  0  0
    0.6260   -0.1574   -0.0712 H   0  0  0  0  0  0  0  0  0  0  0  0
   -0.1044   -1.3998   -0.9302 H   0  0  0  0  0  0  0  0  0  0  0  0
  1  3  1  0  0  0  0
  1  2  1  0  0  0  0
  1  5  1  0  0  0  0
  2  8  1  0  0  0  0
  4  1  1  0  0  0  0
  6  2  1  0  0  0  0
  6 10  1  0  0  0  0
  7  2  1  0  0  0  0
  9 13  1  0  0  0  0
  9  6  1  0  0  0  0
  9 12  1  0  0  0  0
 11  6  1  0  0  0  0
 14  9  1  0  0  0  0
M  END
$$$$
