14
butane_opt
C  -3.945457   0.263122   0.044255
C  -2.707094  -0.602495   0.011914
H  -4.871140  -0.338582  -0.046191
H  -3.959832   0.763416  -0.776411
H  -3.926689   1.001140   0.952472
C  -1.399259   0.183865  -0.011724
H  -2.679873  -1.319682  -0.873068
H  -2.719051  -1.223176   0.882112
C  -0.166138  -0.701947   0.052079
H  -1.388133   0.863786   0.820901
H  -1.365083   0.842005  -0.912066
H  -0.105974  -1.442757   1.040073
H   0.743120  -0.079806  -0.077367
H  -0.136648  -1.250927  -0.706501
