14
butane_opt
C  -3.892296   0.238323   0.116040
C  -2.668469  -0.599775  -0.106666
H  -4.939351  -0.411226   0.373291
H  -4.302875   0.801846  -0.719866
H  -3.602801   0.852438   0.966320
C  -1.426419   0.230482  -0.086061
H  -2.674086  -1.315624  -0.939361
H  -2.644662  -1.104561   0.737494
C  -0.202146  -0.706188   0.139101
H  -1.647389   0.894894   0.674018
H  -1.296063   0.876723  -0.975479
H  -0.247639  -1.548764   1.139595
H   0.671658  -0.186041   0.123975
H  -0.041140  -1.314089  -0.690805
