14
butane_opt
C  -3.919727   0.236643   0.118015
C  -2.710673  -0.592206   0.006044
H  -4.850127  -0.324422  -0.239506
H  -3.675547   0.649083  -0.639278
H  -4.044593   1.194452   1.146091
C  -1.420892   0.196563  -0.111354
H  -2.822668  -1.328078  -0.920840
H  -2.585266  -1.063697   0.703449
C  -0.168736  -0.725263   0.105683
H  -1.602269   0.742544   0.592430
H  -1.332679   0.989354  -1.146651
H  -0.284785  -1.417071   1.080224
H   0.888539  -0.030478   0.259191
H  -0.082770  -1.282778  -0.773834
