14
butane_opt
C  -3.978784   0.225963  -0.022056
C  -2.747506  -0.549357   0.053642
H  -4.871495  -0.352409   0.487059
H  -4.078386   1.166116  -1.113686
H  -3.665140   0.446058   0.577376
C  -1.396346   0.219465   0.055248
H  -2.640420  -1.202487  -0.841467
H  -2.741953  -1.171867   0.905651
C  -0.125869  -0.731384  -0.015971
H  -1.280220   1.005543   1.044071
H  -1.433490   0.604263  -0.658014
H  -0.065426  -1.246845   0.943253
H   0.713081  -0.197552   0.139948
H   0.020428  -1.500983  -0.938049
