butane_opt
 OpenBabel08242015393D

 14 13  0  0  0  0  0  0  0  0999 V2000
   -3.9065    0.2952    0.0630 C   0  0  0  0  0  0  0  0  0  0  0  0
   -2.6926   -0.6591   -0.0466 C   0  0  0  0  0  0  0  0  0  0  0  0
   -4.7243   -0.2470    0.3544 H   0  0  0  0  0  0  0  0  0  0  0  0
   -4.1455    1.0907   -0.9251 H   0  0  0  0  0  0  0  0  0  0  0  0
   -3.8213    0.8457    0.7799 H   0  0  0  0  0  0  0  0  0  0  0  0
   -1.4258    0.1500   -0.0133 C   0  0  0  0  0  0  0  0  0  0  0  0
   -2.8255   -1.2763   -0.8479 H   0  0  0  0  0  0  0  0  0  0  0  0
   -2.5535   -1.3224    0.9020 H   0  0  0  0  0  0  0  0  0  0  0  0
   -0.2065   -0.6791    0.0672 C   0  0  0  0  0  0  0  0  0  0  0  0
   -1.4010    0.8964    0.8340 H   0  0  0  0  0  0  0  0  0  0  0  0
   -1.2263    0.7947   -0.8899 H   0  0  0  0  0  0  0  0  0  0  0  0
   -0.2241   -1.2689    0.9672 H   0  0  0  0  0  0  0  0  0  0  0  0
    0.8222    0.1203    0.2433 H   0  0  0  0  0  0  0  0  0  0  0  0
   -0.1743   -1.3748   -0.8509 H   0  0  0  0  0  0  0  0  0  0  0  0
  1  3  1  0  0  0  0
  1  5  1  0  0  0  0
  2  6  1  0  0  0  0
  2  1  1  0  0  0  0
  2  8  1  0  0  0  0
  4  1  1  0  0  0  0
  6  9  1  0  0  0  0
  6 10  1  0  0  0  0
  7  2  1  0  0  0  0
  9 13  1  0  0  0  0
  9 12  1  0  0  0  0
 11  6  1  0  0  0  0
 14  9  1  0  0  0  0
M  END
$$$$
