14
butane_opt
C  -3.918556   0.315939   0.090988
C  -2.671692  -0.678796  -0.055022
H  -4.754416  -0.246304   0.233061
H  -4.116681   0.953284  -0.883801
H  -3.859102   0.907928   0.904681
C  -1.397644   0.125585  -0.020409
H  -2.871003  -1.301562  -0.951866
H  -2.628465  -1.100347   0.700385
C  -0.226412  -0.649382   0.096417
H  -1.413377   0.699337   0.727346
H  -1.264431   0.857111  -1.059232
H  -0.081721  -1.330424   1.009164
H   0.700357   0.020734   0.096140
H  -0.202740  -1.271072  -0.672895
