butane_opt
 OpenBabel08242015393D

 14 13  0  0  0  0  0  0  0  0999 V2000
   -3.9091    0.2174   -0.0415 C   0  0  0  0  0  0  0  0  0  0  0  0
   -2.6854   -0.5753    0.1319 C   0  0  0  0  0  0  0  0  0  0  0  0
   -4.8352   -0.4892   -0.1275 H   0  0  0  0  0  0  0  0  0  0  0  0
   -3.7320    0.8914   -0.9647 H   0  0  0  0  0  0  0  0  0  0  0  0
   -3.9320    0.9975    0.8818 H   0  0  0  0  0  0  0  0  0  0  0  0
   -1.4477    0.2348    0.0347 C   0  0  0  0  0  0  0  0  0  0  0  0
   -2.6202   -1.1648   -0.5883 H   0  0  0  0  0  0  0  0  0  0  0  0
   -2.8140   -1.2664    1.0234 H   0  0  0  0  0  0  0  0  0  0  0  0
   -0.1932   -0.7268   -0.0267 C   0  0  0  0  0  0  0  0  0  0  0  0
   -1.2461    1.0106    0.8978 H   0  0  0  0  0  0  0  0  0  0  0  0
   -1.5382    0.6588   -0.7527 H   0  0  0  0  0  0  0  0  0  0  0  0
   -0.2032   -1.2295    0.7758 H   0  0  0  0  0  0  0  0  0  0  0  0
    0.6443   -0.2196    0.0506 H   0  0  0  0  0  0  0  0  0  0  0  0
    0.0909   -1.4719   -0.9392 H   0  0  0  0  0  0  0  0  0  0  0  0
  1  2  1  0  0  0  0
  1  5  1  0  0  0  0
  2  8  1  0  0  0  0
  3  1  1  0  0  0  0
  4  1  1  0  0  0  0
  6  2  1  0  0  0  0
  6 10  1  0  0  0  0
  7  2  1  0  0  0  0
  9  6  1  0  0  0  0
  9 13  1  0  0  0  0
  9 12  1  0  0  0  0
 11  6  1  0  0  0  0
 14  9  1  0  0  0  0
M  END
$$$$
