butane_opt
 OpenBabel08242015393D

 14 13  0  0  0  0  0  0  0  0999 V2000
   -3.9650    0.2429   -0.0732 C   0  0  0  0  0  0  0  0  0  0  0  0
   -2.6864   -0.5728    0.1696 C   0  0  0  0  0  0  0  0  0  0  0  0
   -4.8999   -0.3808   -0.4696 H   0  0  0  0  0  0  0  0  0  0  0  0
   -3.5566    0.6632   -0.8644 H   0  0  0  0  0  0  0  0  0  0  0  0
   -4.0953    1.1060    0.9415 H   0  0  0  0  0  0  0  0  0  0  0  0
   -1.4118    0.2200    0.0599 C   0  0  0  0  0  0  0  0  0  0  0  0
   -2.5904   -1.1256   -0.5928 H   0  0  0  0  0  0  0  0  0  0  0  0
   -2.8282   -1.4731    1.2920 H   0  0  0  0  0  0  0  0  0  0  0  0
   -0.1773   -0.7187   -0.0373 C   0  0  0  0  0  0  0  0  0  0  0  0
   -1.2907    0.9163    0.9639 H   0  0  0  0  0  0  0  0  0  0  0  0
   -1.3643    0.6781   -0.7851 H   0  0  0  0  0  0  0  0  0  0  0  0
   -0.0628   -1.1584    0.7563 H   0  0  0  0  0  0  0  0  0  0  0  0
    0.7991   -0.1934   -0.2032 H   0  0  0  0  0  0  0  0  0  0  0  0
   -0.2418   -1.5571   -1.0349 H   0  0  0  0  0  0  0  0  0  0  0  0
  1  2  1  0  0  0  0
  1  5  1  0  0  0  0
  2  8  1  0  0  0  0
  3  1  1  0  0  0  0
  4  1  1  0  0  0  0
  6  2  1  0  0  0  0
  6 10  1  0  0  0  0
  7  2  1  0  0  0  0
  9  6  1  0  0  0  0
  9 12  1  0  0  0  0
 11  6  1  0  0  0  0
 13  9  1  0  0  0  0
 14  9  1  0  0  0  0
M  END
$$$$
