butane_opt
 OpenBabel08242015393D

 14 13  0  0  0  0  0  0  0  0999 V2000
   -3.9502    0.2721    0.0273 C   0  0  0  0  0  0  0  0  0  0  0  0
   -2.6594   -0.6534   -0.0106 C   0  0  0  0  0  0  0  0  0  0  0  0
   -4.7705   -0.2740    0.4332 H   0  0  0  0  0  0  0  0  0  0  0  0
   -4.1612    1.1755   -1.0255 H   0  0  0  0  0  0  0  0  0  0  0  0
   -3.6806    0.7325    0.7848 H   0  0  0  0  0  0  0  0  0  0  0  0
   -1.4176    0.1504    0.0163 C   0  0  0  0  0  0  0  0  0  0  0  0
   -2.7184   -1.1859   -0.8550 H   0  0  0  0  0  0  0  0  0  0  0  0
   -2.6630   -1.1812    0.8241 H   0  0  0  0  0  0  0  0  0  0  0  0
   -0.1948   -0.6565    0.0516 C   0  0  0  0  0  0  0  0  0  0  0  0
   -1.5249    0.9616    0.9298 H   0  0  0  0  0  0  0  0  0  0  0  0
   -1.2427    0.6973   -0.8587 H   0  0  0  0  0  0  0  0  0  0  0  0
   -0.1203   -1.2851    0.9646 H   0  0  0  0  0  0  0  0  0  0  0  0
    0.6651   -0.0603    0.0689 H   0  0  0  0  0  0  0  0  0  0  0  0
   -0.1695   -1.4014   -0.8828 H   0  0  0  0  0  0  0  0  0  0  0  0
  1  3  1  0  0  0  0
  1  5  1  0  0  0  0
  2  6  1  0  0  0  0
  2  1  1  0  0  0  0
  2  8  1  0  0  0  0
  4  1  1  0  0  0  0
  6  9  1  0  0  0  0
  6 10  1  0  0  0  0
  7  2  1  0  0  0  0
  9 13  1  0  0  0  0
  9 12  1  0  0  0  0
 11  6  1  0  0  0  0
 14  9  1  0  0  0  0
M  END
$$$$
