butane_opt
 OpenBabel08242015393D

 14 12  0  0  0  0  0  0  0  0999 V2000
   -3.9099    0.2209    0.1085 C   0  0  0  0  0  0  0  0  0  0  0  0
   -2.6705   -0.5572   -0.0025 C   0  0  0  0  0  0  0  0  0  0  0  0
   -4.9995   -0.4767   -0.5102 H   0  0  0  0  0  0  0  0  0  0  0  0
   -3.7763    0.5174   -0.5723 H   0  0  0  0  0  0  0  0  0  0  0  0
   -4.0484    1.2944    1.2060 H   0  0  0  0  0  0  0  0  0  0  0  0
   -1.4228    0.1870   -0.0801 C   0  0  0  0  0  0  0  0  0  0  0  0
   -2.8865   -1.3254   -0.8920 H   0  0  0  0  0  0  0  0  0  0  0  0
   -2.5270   -1.1170    0.7929 H   0  0  0  0  0  0  0  0  0  0  0  0
   -0.1813   -0.7130    0.0989 C   0  0  0  0  0  0  0  0  0  0  0  0
   -1.5567    0.7655    0.6481 H   0  0  0  0  0  0  0  0  0  0  0  0
   -1.4495    1.0919   -1.2201 H   0  0  0  0  0  0  0  0  0  0  0  0
   -0.1543   -1.4936    1.1994 H   0  0  0  0  0  0  0  0  0  0  0  0
    0.7360   -0.1415   -0.0362 H   0  0  0  0  0  0  0  0  0  0  0  0
   -0.1254   -1.2811   -0.6421 H   0  0  0  0  0  0  0  0  0  0  0  0
  2  1  1  0  0  0  0
  2  8  1  0  0  0  0
  3  1  1  0  0  0  0
  4  1  1  0  0  0  0
  6  2  1  0  0  0  0
  6  9  1  0  0  0  0
  6 10  1  0  0  0  0
  7  2  1  0  0  0  0
  9 12  1  0  0  0  0
 11  6  1  0  0  0  0
 13  9  1  0  0  0  0
 14  9  1  0  0  0  0
M  RAD  2   1   2   5   2
M  END
$$$$
