butane_opt
 OpenBabel08242015393D

 14 11  0  0  0  0  0  0  0  0999 V2000
   -3.9110    0.2881   -0.0316 C   0  0  0  0  0  0  0  0  0  0  0  0
   -2.6800   -0.6299    0.0923 C   0  0  0  0  0  0  0  0  0  0  0  0
   -4.8745   -0.3987    0.4171 H   0  0  0  0  0  0  0  0  0  0  0  0
   -4.0078    1.2602   -1.2979 H   0  0  0  0  0  0  0  0  0  0  0  0
   -3.9782    0.5054    0.5275 H   0  0  0  0  0  0  0  0  0  0  0  0
   -1.3975    0.2130    0.0758 C   0  0  0  0  0  0  0  0  0  0  0  0
   -2.6690   -1.3438   -0.8015 H   0  0  0  0  0  0  0  0  0  0  0  0
   -2.6530   -1.2517    0.9880 H   0  0  0  0  0  0  0  0  0  0  0  0
   -0.2212   -0.7014   -0.0129 C   0  0  0  0  0  0  0  0  0  0  0  0
   -1.2462    0.8790    1.0092 H   0  0  0  0  0  0  0  0  0  0  0  0
   -1.3564    0.6335   -0.6864 H   0  0  0  0  0  0  0  0  0  0  0  0
   -0.1656   -1.0442    0.6963 H   0  0  0  0  0  0  0  0  0  0  0  0
    0.7096   -0.0790    0.1349 H   0  0  0  0  0  0  0  0  0  0  0  0
   -0.2470   -1.6568   -1.0931 H   0  0  0  0  0  0  0  0  0  0  0  0
  1  2  1  0  0  0  0
  1  3  1  0  0  0  0
  2  8  1  0  0  0  0
  6  2  1  0  0  0  0
  6 10  1  0  0  0  0
  7  2  1  0  0  0  0
  9  6  1  0  0  0  0
  9 13  1  0  0  0  0
  9 12  1  0  0  0  0
 11  6  1  0  0  0  0
 14  9  1  0  0  0  0
M  RAD  3   1   3   4   2   5   2
M  END
$$$$
