butane_opt
 OpenBabel08242015393D

 14 13  0  0  0  0  0  0  0  0999 V2000
   -3.8735    0.2281   -0.0685 C   0  0  0  0  0  0  0  0  0  0  0  0
   -2.7012   -0.5854    0.1603 C   0  0  0  0  0  0  0  0  0  0  0  0
   -4.8034   -0.4229   -0.2571 H   0  0  0  0  0  0  0  0  0  0  0  0
   -3.8111    0.7589   -0.8899 H   0  0  0  0  0  0  0  0  0  0  0  0
   -4.1701    1.0390    0.8719 H   0  0  0  0  0  0  0  0  0  0  0  0
   -1.4378    0.2199    0.0619 C   0  0  0  0  0  0  0  0  0  0  0  0
   -2.7537   -0.9873   -0.5695 H   0  0  0  0  0  0  0  0  0  0  0  0
   -2.7457   -1.2889    1.0547 H   0  0  0  0  0  0  0  0  0  0  0  0
   -0.1844   -0.7333   -0.0522 C   0  0  0  0  0  0  0  0  0  0  0  0
   -1.2324    0.9468    1.0086 H   0  0  0  0  0  0  0  0  0  0  0  0
   -1.5290    0.7528   -0.8078 H   0  0  0  0  0  0  0  0  0  0  0  0
   -0.2814   -1.2562    0.8117 H   0  0  0  0  0  0  0  0  0  0  0  0
    0.7373   -0.1056    0.0458 H   0  0  0  0  0  0  0  0  0  0  0  0
   -0.0432   -1.4928   -1.0483 H   0  0  0  0  0  0  0  0  0  0  0  0
  1  2  1  0  0  0  0
  1  5  1  0  0  0  0
  2  8  1  0  0  0  0
  3  1  1  0  0  0  0
  4  1  1  0  0  0  0
  6  2  1  0  0  0  0
  6 10  1  0  0  0  0
  7  2  1  0  0  0  0
  9 13  1  0  0  0  0
  9  6  1  0  0  0  0
  9 12  1  0  0  0  0
 11  6  1  0  0  0  0
 14  9  1  0  0  0  0
M  END
$$$$
