butane_opt
 OpenBabel08242015393D

 14 12  0  0  0  0  0  0  0  0999 V2000
   -3.9626    0.3037    0.0729 C   0  0  0  0  0  0  0  0  0  0  0  0
   -2.7357   -0.6424   -0.0191 C   0  0  0  0  0  0  0  0  0  0  0  0
   -4.8320   -0.3083   -0.0404 H   0  0  0  0  0  0  0  0  0  0  0  0
   -4.1393    0.9088   -0.7900 H   0  0  0  0  0  0  0  0  0  0  0  0
   -4.0724    0.9158    0.9077 H   0  0  0  0  0  0  0  0  0  0  0  0
   -1.3627    0.1586    0.0018 C   0  0  0  0  0  0  0  0  0  0  0  0
   -2.7522   -1.5502   -0.9553 H   0  0  0  0  0  0  0  0  0  0  0  0
   -2.7870   -1.0303    0.6373 H   0  0  0  0  0  0  0  0  0  0  0  0
   -0.1298   -0.6616    0.0709 C   0  0  0  0  0  0  0  0  0  0  0  0
   -1.3361    0.7416    0.8171 H   0  0  0  0  0  0  0  0  0  0  0  0
   -1.4708    0.8199   -0.8815 H   0  0  0  0  0  0  0  0  0  0  0  0
   -0.0413   -1.7222    1.2085 H   0  0  0  0  0  0  0  0  0  0  0  0
    0.8384   -0.0059   -0.3326 H   0  0  0  0  0  0  0  0  0  0  0  0
   -0.1716   -1.1040   -0.6148 H   0  0  0  0  0  0  0  0  0  0  0  0
  1  5  1  0  0  0  0
  2  6  1  0  0  0  0
  2  1  1  0  0  0  0
  2  8  1  0  0  0  0
  3  1  1  0  0  0  0
  4  1  1  0  0  0  0
  6  9  1  0  0  0  0
  6 10  1  0  0  0  0
  7  2  1  0  0  0  0
 11  6  1  0  0  0  0
 13  9  1  0  0  0  0
 14  9  1  0  0  0  0
M  RAD  2   9   2  12   2
M  END
$$$$
