butane_opt
 OpenBabel08242015393D

 14 13  0  0  0  0  0  0  0  0999 V2000
   -3.9446    0.2578    0.0310 C   0  0  0  0  0  0  0  0  0  0  0  0
   -2.7109   -0.6098    0.0012 C   0  0  0  0  0  0  0  0  0  0  0  0
   -4.8853   -0.3756    0.1533 H   0  0  0  0  0  0  0  0  0  0  0  0
   -4.0583    0.8974   -0.8580 H   0  0  0  0  0  0  0  0  0  0  0  0
   -3.8837    0.9064    0.8796 H   0  0  0  0  0  0  0  0  0  0  0  0
   -1.4142    0.1991    0.0084 C   0  0  0  0  0  0  0  0  0  0  0  0
   -2.7371   -1.2764   -0.8502 H   0  0  0  0  0  0  0  0  0  0  0  0
   -2.7071   -1.2200    0.8959 H   0  0  0  0  0  0  0  0  0  0  0  0
   -0.1389   -0.7061    0.0488 C   0  0  0  0  0  0  0  0  0  0  0  0
   -1.3975    0.8653    0.8439 H   0  0  0  0  0  0  0  0  0  0  0  0
   -1.3980    0.8186   -0.9004 H   0  0  0  0  0  0  0  0  0  0  0  0
   -0.0980   -1.3615    0.9518 H   0  0  0  0  0  0  0  0  0  0  0  0
    0.7817   -0.1227    0.0162 H   0  0  0  0  0  0  0  0  0  0  0  0
   -0.1286   -1.2974   -0.7573 H   0  0  0  0  0  0  0  0  0  0  0  0
  1  3  1  0  0  0  0
  1  5  1  0  0  0  0
  2  6  1  0  0  0  0
  2  1  1  0  0  0  0
  2  8  1  0  0  0  0
  4  1  1  0  0  0  0
  6  9  1  0  0  0  0
  6 10  1  0  0  0  0
  7  2  1  0  0  0  0
  9 12  1  0  0  0  0
 11  6  1  0  0  0  0
 13  9  1  0  0  0  0
 14  9  1  0  0  0  0
M  END
$$$$
