butane_opt
 OpenBabel08242015393D

 14 13  0  0  0  0  0  0  0  0999 V2000
   -3.9868    0.2977   -0.0622 C   0  0  0  0  0  0  0  0  0  0  0  0
   -2.6822   -0.6934    0.1162 C   0  0  0  0  0  0  0  0  0  0  0  0
   -4.7722   -0.2246   -0.1735 H   0  0  0  0  0  0  0  0  0  0  0  0
   -4.0484    0.8475   -0.8935 H   0  0  0  0  0  0  0  0  0  0  0  0
   -4.1588    1.2230    0.8680 H   0  0  0  0  0  0  0  0  0  0  0  0
   -1.3596    0.1801    0.0853 C   0  0  0  0  0  0  0  0  0  0  0  0
   -2.6599   -1.2211   -0.6159 H   0  0  0  0  0  0  0  0  0  0  0  0
   -2.8027   -1.5441    1.1729 H   0  0  0  0  0  0  0  0  0  0  0  0
   -0.1718   -0.6782   -0.0603 C   0  0  0  0  0  0  0  0  0  0  0  0
   -1.3026    0.9053    0.9648 H   0  0  0  0  0  0  0  0  0  0  0  0
   -1.4781    0.7827   -0.8230 H   0  0  0  0  0  0  0  0  0  0  0  0
   -0.0779   -1.2387    0.8289 H   0  0  0  0  0  0  0  0  0  0  0  0
    0.8420    0.0608    0.0916 H   0  0  0  0  0  0  0  0  0  0  0  0
   -0.1822   -1.3124   -0.9012 H   0  0  0  0  0  0  0  0  0  0  0  0
  1  2  1  0  0  0  0
  1  5  1  0  0  0  0
  2  8  1  0  0  0  0
  3  1  1  0  0  0  0
  4  1  1  0  0  0  0
  6  2  1  0  0  0  0
  6 10  1  0  0  0  0
  7  2  1  0  0  0  0
  9  6  1  0  0  0  0
  9 13  1  0  0  0  0
  9 12  1  0  0  0  0
 11  6  1  0  0  0  0
 14  9  1  0  0  0  0
M  END
$$$$
