14
butane_opt
C  -3.921410   0.286951  -0.010543
C  -2.663366  -0.657021   0.048767
H  -4.703198  -0.212569   0.358956
H  -4.119231   1.452193  -1.248969
H  -3.893309   0.425003   0.488234
C  -1.432035   0.172219   0.106742
H  -2.628511  -1.383315  -0.868751
H  -2.671641  -1.277292   0.976745
C  -0.186439  -0.666371  -0.015413
H  -1.335225   0.842778   0.994354
H  -1.401729   0.663403  -0.642970
H  -0.230270  -1.122381   0.682738
H   0.794304   0.000379   0.041050
H  -0.393143  -1.449874  -0.970026
