14
butane_opt
C  -3.953893   0.271749  -0.014381
C  -2.703195  -0.619023   0.066866
H  -4.883064  -0.321254   0.054397
H  -3.992950   0.955659  -0.943971
H  -3.962509   0.895613   0.800235
C  -1.391360   0.176625   0.051732
H  -2.661873  -1.323617  -0.779726
H  -2.780116  -1.240606   0.943184
C  -0.161456  -0.685334   0.004671
H  -1.356572   0.841161   0.909019
H  -1.388542   0.777429  -0.800704
H  -0.038112  -1.314201   0.890660
H   0.744808  -0.086707  -0.079002
H  -0.192621  -1.376457  -0.865055
