14
butane_opt
C  -3.880879   0.241221   0.095865
C  -2.711824  -0.593455  -0.012873
H  -4.820091  -0.370370   0.194510
H  -3.873704   0.703088  -0.703972
H  -3.826011   0.970237   1.021121
C  -1.441155   0.216613  -0.116703
H  -2.877272  -1.322469  -0.885486
H  -2.800013  -1.119423   0.801136
C  -0.160921  -0.734031   0.090710
H  -1.542331   0.861349   0.728635
H  -1.372497   1.095544  -1.116069
H  -0.435255  -1.207438   0.995811
H   0.691645  -0.213911   0.523724
H   0.171953  -1.466281  -0.796040
