14
butane_opt
C  -3.952082   0.272762   0.018159
C  -2.683511  -0.619532   0.027036
H  -4.853791  -0.326697   0.176267
H  -4.007860   1.006798  -0.943925
H  -3.923219   0.802115   0.772727
C  -1.402068   0.168652   0.024853
H  -2.715844  -1.282172  -0.829004
H  -2.686756  -1.233751   0.899820
C  -0.176397  -0.686502   0.026799
H  -1.370348   0.878672   0.915126
H  -1.389500   0.768305  -0.859828
H  -0.113157  -1.264220   0.904419
H   0.779788  -0.070011   0.052216
H  -0.182787  -1.365538  -0.820864
