14
butane_opt
C  -3.963688   0.288842   0.082211
C  -2.740018  -0.639588   0.018271
H  -4.912129  -0.331388   0.013823
H  -3.879254   0.903795  -0.845480
H  -4.027689   0.902756   0.894224
C  -1.376247   0.184629  -0.069303
H  -2.741093  -1.296927  -0.831254
H  -2.540866  -1.173451   0.929344
C  -0.139642  -0.684425   0.073184
H  -1.332635   0.676494   0.632901
H  -1.329684   0.882069  -1.005722
H  -0.320375  -1.148407   0.905387
H   0.730223  -0.105341   0.544024
H  -0.029385  -1.607381  -1.061832
