14
butane_opt
C  -3.986811   0.297707  -0.062225
C  -2.682189  -0.693364   0.116185
H  -4.772162  -0.224596  -0.173501
H  -4.048375   0.847501  -0.893457
H  -4.158758   1.222953   0.867979
C  -1.359632   0.180117   0.085317
H  -2.659878  -1.221076  -0.615909
H  -2.802721  -1.544100   1.172919
C  -0.171847  -0.678225  -0.060304
H  -1.302559   0.905271   0.964842
H  -1.478061   0.782741  -0.822995
H  -0.077888  -1.238705   0.828893
H   0.841972   0.060843   0.091566
H  -0.182233  -1.312430  -0.901250
