14
butane_opt
C  -3.942491   0.219606  -0.057100
C  -2.745173  -0.546847   0.078690
H  -4.836612  -0.446432  -0.001292
H  -3.844605   0.905617  -0.977055
H  -3.998188   0.903601   0.776200
C  -1.398605   0.213452   0.104410
H  -2.692354  -1.151350  -0.657154
H  -2.757044  -1.338539   1.057296
C  -0.118756  -0.746165  -0.004930
H  -1.303163   1.044795   1.010361
H  -1.474602   0.771361  -0.758626
H   0.078937  -1.307053   0.776848
H   0.712622  -0.231510  -0.337916
H  -0.405105  -1.316571  -0.895066
