14
butane_opt
C  -3.938792   0.231999  -0.005485
C  -2.716464  -0.594525   0.039702
H  -4.791179  -0.359382   0.422449
H  -4.065055   1.108751  -0.990666
H  -3.858335   0.490674   0.566678
C  -1.406847   0.265773   0.033621
H  -2.744695  -1.341745  -0.811683
H  -2.837715  -1.154396   0.875444
C  -0.144840  -0.749108   0.013522
H  -1.425969   1.100249   1.031413
H  -1.536658   0.720605  -0.672297
H  -0.054140  -1.313461   0.891458
H   0.727611  -0.141910  -0.011730
H   0.039505  -1.426597  -0.875008
