14
butane_opt
C  -3.955017   0.296468  -0.077099
C  -2.693284  -0.682061   0.162101
H  -4.807900  -0.180609  -0.262498
H  -3.933174   0.863685  -0.927680
H  -3.962920   1.096400   0.861237
C  -1.401005   0.156003   0.063970
H  -2.437971  -1.208465  -0.580179
H  -2.677309  -1.436199   1.167013
C  -0.199107  -0.643951  -0.046867
H  -1.328584   0.871969   0.936496
H  -1.329032   0.703061  -0.685130
H  -0.122216  -1.198091   0.779184
H   0.737241  -0.031293   0.029701
H  -0.207228  -1.470903  -1.121857
