14
butane_opt
C  -3.974753   0.290672   0.120386
C  -2.720201  -0.648848  -0.061202
H  -4.876044  -0.205081  -0.269775
H  -3.962185   0.658805  -0.654385
H  -4.081675   1.183873   1.114409
C  -1.388029   0.168879  -0.060121
H  -2.852232  -1.399546  -0.995700
H  -2.615721  -1.124870   0.715233
C  -0.121864  -0.673562   0.114734
H  -1.353113   0.653541   0.688085
H  -1.269098   0.909243  -0.937432
H  -0.072541  -1.701407   1.303275
H   0.845347  -0.015160  -0.292305
H  -0.336557  -1.069995  -0.549067
