butane_opt
 OpenBabel08242015393D

 14 13  0  0  0  0  0  0  0  0999 V2000
   -3.9903    0.2984    0.1041 C   0  0  0  0  0  0  0  0  0  0  0  0
   -2.7067   -0.6799   -0.0957 C   0  0  0  0  0  0  0  0  0  0  0  0
   -4.8109   -0.1404    0.0714 H   0  0  0  0  0  0  0  0  0  0  0  0
   -4.0490    0.8200   -0.6678 H   0  0  0  0  0  0  0  0  0  0  0  0
   -4.0295    1.0351    1.0327 H   0  0  0  0  0  0  0  0  0  0  0  0
   -1.4074    0.1486   -0.0251 C   0  0  0  0  0  0  0  0  0  0  0  0
   -2.7725   -1.4530   -0.9659 H   0  0  0  0  0  0  0  0  0  0  0  0
   -2.4965   -1.1314    0.6798 H   0  0  0  0  0  0  0  0  0  0  0  0
   -0.1245   -0.6670    0.1286 C   0  0  0  0  0  0  0  0  0  0  0  0
   -1.4437    0.7272    0.7027 H   0  0  0  0  0  0  0  0  0  0  0  0
   -1.2427    0.9554   -1.0241 H   0  0  0  0  0  0  0  0  0  0  0  0
   -0.0664   -1.4846    1.1802 H   0  0  0  0  0  0  0  0  0  0  0  0
    0.8987   -0.0055   -0.3289 H   0  0  0  0  0  0  0  0  0  0  0  0
   -0.2891   -0.9756   -0.5599 H   0  0  0  0  0  0  0  0  0  0  0  0
  1  5  1  0  0  0  0
  2  6  1  0  0  0  0
  2  1  1  0  0  0  0
  2  8  1  0  0  0  0
  3  1  1  0  0  0  0
  4  1  1  0  0  0  0
  6  9  1  0  0  0  0
  6 10  1  0  0  0  0
  7  2  1  0  0  0  0
  9 12  1  0  0  0  0
 11  6  1  0  0  0  0
 13  9  1  0  0  0  0
 14  9  1  0  0  0  0
M  END
$$$$
