14
butane_opt
C  -3.957136   0.301088   0.073849
C  -2.698853  -0.675393  -0.079919
H  -4.726737  -0.158590   0.607857
H  -4.341685   1.063524  -0.848048
H  -3.925912   0.785635   0.777483
C  -1.385436   0.152421  -0.032834
H  -2.926147  -1.390897  -0.979729
H  -2.642849  -1.241326   0.764887
C  -0.147086  -0.649087   0.076416
H  -1.350417   0.943478   0.920215
H  -1.368082   0.720975  -0.929479
H  -0.327908  -1.393295   1.172370
H   0.798635  -0.101236   0.170475
H   0.021901  -1.222385  -0.668682
