14
butane_opt
C  -3.972117   0.236531   0.006959
C  -2.699299  -0.602254   0.062124
H  -4.948085  -0.422528   0.188720
H  -3.923205   0.938380  -0.935621
H  -3.907590   0.959795   0.930920
C  -1.383154   0.240102  -0.046173
H  -2.772577  -1.255710  -0.729697
H  -2.878512  -1.305864   1.056530
C  -0.146908  -0.719355   0.032422
H  -1.295007   1.022604   0.868648
H  -1.409628   0.842471  -0.849769
H  -0.234168  -1.188566   0.771451
H   0.671555  -0.260775   0.389141
H   0.116581  -1.684566  -0.924684
