14
butane_opt
C  -3.949176   0.234094   0.064100
C  -2.729393  -0.598316   0.031157
H  -4.832890  -0.300768  -0.056716
H  -3.900469   0.705486  -0.777064
H  -3.975691   1.105151   1.100560
C  -1.395469   0.233260  -0.074423
H  -2.967530  -1.362569  -0.917012
H  -2.793534  -1.105690   0.848121
C  -0.123072  -0.719891   0.096769
H  -1.373075   0.738701   0.579156
H  -1.512319   0.902995  -1.035002
H  -0.189617  -1.273747   0.953218
H   0.692283  -0.195141   0.168757
H   0.190693  -1.479734  -0.820179
