14
butane_opt
C  -3.961370   0.291644   0.082788
C  -2.668752  -0.644859   0.049529
H  -4.866403  -0.214335  -0.523511
H  -3.786414   0.656159  -0.687967
H  -4.127059   1.310330   1.111555
C  -1.395890   0.095043  -0.070188
H  -2.772537  -1.405659  -0.906566
H  -2.507983  -1.258230   0.858044
C  -0.184289  -0.633409   0.086210
H  -1.408790   0.715490   0.661406
H  -1.412593   0.945855  -1.084658
H  -0.152070  -1.254862   0.933269
H   0.680070  -0.027250  -0.005979
H  -0.167580  -1.244073  -0.672492
