butane_opt
 OpenBabel08242015393D

 14 12  0  0  0  0  0  0  0  0999 V2000
   -3.9630    0.3027    0.0771 C   0  0  0  0  0  0  0  0  0  0  0  0
   -2.6833   -0.7016   -0.0471 C   0  0  0  0  0  0  0  0  0  0  0  0
   -4.7587   -0.1294    0.0100 H   0  0  0  0  0  0  0  0  0  0  0  0
   -4.1092    0.5146   -0.6053 H   0  0  0  0  0  0  0  0  0  0  0  0
   -4.0535    1.3436    1.1872 H   0  0  0  0  0  0  0  0  0  0  0  0
   -1.3744    0.1702   -0.0698 C   0  0  0  0  0  0  0  0  0  0  0  0
   -2.6909   -1.3996   -0.8772 H   0  0  0  0  0  0  0  0  0  0  0  0
   -2.6635   -1.1868    0.6695 H   0  0  0  0  0  0  0  0  0  0  0  0
   -0.1840   -0.6741    0.1120 C   0  0  0  0  0  0  0  0  0  0  0  0
   -1.5488    0.8132    0.7926 H   0  0  0  0  0  0  0  0  0  0  0  0
   -1.3141    0.8769   -0.9958 H   0  0  0  0  0  0  0  0  0  0  0  0
   -0.0794   -1.6049    1.2475 H   0  0  0  0  0  0  0  0  0  0  0  0
    0.8148    0.0652   -0.2720 H   0  0  0  0  0  0  0  0  0  0  0  0
   -0.2029   -0.9001   -0.5018 H   0  0  0  0  0  0  0  0  0  0  0  0
  2  1  1  0  0  0  0
  2  8  1  0  0  0  0
  3  1  1  0  0  0  0
  4  1  1  0  0  0  0
  6  2  1  0  0  0  0
  6  9  1  0  0  0  0
  6 10  1  0  0  0  0
  7  2  1  0  0  0  0
  9 12  1  0  0  0  0
 11  6  1  0  0  0  0
 13  9  1  0  0  0  0
 14  9  1  0  0  0  0
M  RAD  2   1   2   5   2
M  END
$$$$
