butane_opt
 OpenBabel08242015393D

 14 13  0  0  0  0  0  0  0  0999 V2000
   -3.9834    0.2594    0.0629 C   0  0  0  0  0  0  0  0  0  0  0  0
   -2.7143   -0.6094   -0.0513 C   0  0  0  0  0  0  0  0  0  0  0  0
   -4.8615   -0.2439    0.0831 H   0  0  0  0  0  0  0  0  0  0  0  0
   -4.1225    0.8136   -0.7874 H   0  0  0  0  0  0  0  0  0  0  0  0
   -3.9844    0.9955    1.0695 H   0  0  0  0  0  0  0  0  0  0  0  0
   -1.3829    0.1599   -0.0011 C   0  0  0  0  0  0  0  0  0  0  0  0
   -2.8422   -1.3431   -0.9979 H   0  0  0  0  0  0  0  0  0  0  0  0
   -2.5698   -1.2742    0.8161 H   0  0  0  0  0  0  0  0  0  0  0  0
   -0.1285   -0.7009    0.0966 C   0  0  0  0  0  0  0  0  0  0  0  0
   -1.5159    0.8240    0.7847 H   0  0  0  0  0  0  0  0  0  0  0  0
   -1.3152    0.9906   -0.9963 H   0  0  0  0  0  0  0  0  0  0  0  0
    0.0358   -1.3989    1.0473 H   0  0  0  0  0  0  0  0  0  0  0  0
    0.8017   -0.0279   -0.2368 H   0  0  0  0  0  0  0  0  0  0  0  0
   -0.1421   -1.1059   -0.6214 H   0  0  0  0  0  0  0  0  0  0  0  0
  1  3  1  0  0  0  0
  1  5  1  0  0  0  0
  2  6  1  0  0  0  0
  2  1  1  0  0  0  0
  2  8  1  0  0  0  0
  4  1  1  0  0  0  0
  6  9  1  0  0  0  0
  6 10  1  0  0  0  0
  7  2  1  0  0  0  0
  9 12  1  0  0  0  0
 11  6  1  0  0  0  0
 13  9  1  0  0  0  0
 14  9  1  0  0  0  0
M  END
$$$$
