14
butane_opt
C  -3.941732   0.276125   0.078286
C  -2.641054  -0.638968   0.006230
H  -4.838107  -0.312069   0.048713
H  -4.037355   0.961845  -0.925639
H  -4.047670   0.997827   1.048919
C  -1.417916   0.155506  -0.080547
H  -2.659197  -1.236688  -0.773569
H  -2.588449  -1.431101   0.983247
C  -0.206987  -0.659132   0.085827
H  -1.367889   0.885213   0.707754
H  -1.158723   0.764674  -1.001052
H  -0.486408  -1.038517   0.819545
H   0.668772  -0.090175   0.400241
H   0.013085  -1.587142  -0.983283
