butane_opt
 OpenBabel08242015393D

 14 13  0  0  0  0  0  0  0  0999 V2000
   -3.9045    0.3075    0.0869 C   0  0  0  0  0  0  0  0  0  0  0  0
   -2.7091   -0.6666   -0.0369 C   0  0  0  0  0  0  0  0  0  0  0  0
   -4.7499   -0.2391    0.4112 H   0  0  0  0  0  0  0  0  0  0  0  0
   -4.1395    1.0690   -0.8108 H   0  0  0  0  0  0  0  0  0  0  0  0
   -3.7275    0.7582    0.8830 H   0  0  0  0  0  0  0  0  0  0  0  0
   -1.3903    0.1587   -0.0803 C   0  0  0  0  0  0  0  0  0  0  0  0
   -2.6684   -1.4699   -0.9750 H   0  0  0  0  0  0  0  0  0  0  0  0
   -2.7584   -1.1192    0.6750 H   0  0  0  0  0  0  0  0  0  0  0  0
   -0.2122   -0.6827    0.1136 C   0  0  0  0  0  0  0  0  0  0  0  0
   -1.4674    0.8531    0.7861 H   0  0  0  0  0  0  0  0  0  0  0  0
   -1.4373    0.8182   -0.9762 H   0  0  0  0  0  0  0  0  0  0  0  0
   -0.3981   -1.1471    0.9905 H   0  0  0  0  0  0  0  0  0  0  0  0
    0.8358   -0.0251    0.1583 H   0  0  0  0  0  0  0  0  0  0  0  0
    0.0395   -1.3417   -0.7245 H   0  0  0  0  0  0  0  0  0  0  0  0
  1  3  1  0  0  0  0
  1  5  1  0  0  0  0
  2  1  1  0  0  0  0
  2  8  1  0  0  0  0
  4  1  1  0  0  0  0
  6  2  1  0  0  0  0
  6  9  1  0  0  0  0
  6 10  1  0  0  0  0
  7  2  1  0  0  0  0
  9 13  1  0  0  0  0
  9 12  1  0  0  0  0
 11  6  1  0  0  0  0
 14  9  1  0  0  0  0
M  END
$$$$
