14
butane_opt
C  -3.873541   0.228120  -0.068518
C  -2.701164  -0.585447   0.160329
H  -4.803403  -0.422916  -0.257121
H  -3.811054   0.758891  -0.889854
H  -4.170066   1.038998   0.871933
C  -1.437808   0.219948   0.061938
H  -2.753692  -0.987301  -0.569505
H  -2.745697  -1.288886   1.054665
C  -0.184369  -0.733331  -0.052193
H  -1.232409   0.946784   1.008639
H  -1.528999   0.752766  -0.807822
H  -0.281364  -1.256231   0.811666
H   0.737329  -0.105609   0.045821
H  -0.043207  -1.492787  -1.048339
