14
butane_opt
C  -3.962317   0.268451   0.050668
C  -2.746798  -0.603994  -0.048560
H  -4.857826  -0.315776   0.195029
H  -4.013789   0.623035  -0.662564
H  -3.880426   1.076480   0.943011
C  -1.392727   0.186929  -0.026961
H  -2.785873  -1.345607  -0.893592
H  -2.707044  -1.226332   0.880859
C  -0.125461  -0.710804   0.092572
H  -1.584635   0.936800   0.804287
H  -1.312990   0.843295  -0.886938
H   0.095681  -1.559156   1.155143
H   0.868213  -0.040486  -0.254774
H  -0.148110  -1.138827  -0.614086
