14
butane_opt
C  -3.898421   0.256062  -0.037690
C  -2.661177  -0.619197   0.079471
H  -4.810647  -0.317622  -0.154692
H  -3.968988   0.944293  -0.972444
H  -4.161766   1.063387   0.885255
C  -1.405642   0.152550   0.105286
H  -2.618972  -1.333353  -0.739060
H  -2.797154  -1.290759   0.961076
C  -0.193035  -0.673880  -0.014468
H  -1.369216   0.823245   0.983478
H  -1.594929   0.899199  -0.785084
H  -0.047515  -1.396003   0.896988
H   0.698633  -0.038552  -0.384918
H  -0.433238  -1.208414  -0.820842
