14
butane_opt
C  -3.929426   0.287798  -0.099285
C  -2.674127  -0.646434   0.164740
H  -4.762389  -0.198463  -0.303027
H  -3.786553   0.709782  -0.820589
H  -4.140346   1.138759   0.782704
C  -1.436470   0.136640   0.125653
H  -2.508082  -1.240184  -0.578981
H  -2.846723  -1.423197   1.224192
C  -0.185813  -0.665737  -0.094707
H  -1.332797   0.848096   0.981804
H  -1.418963   0.867532  -0.754809
H  -0.037605  -1.237886   0.784047
H   0.847867   0.041792  -0.087634
H  -0.357279  -1.317169  -0.916331
