butane_opt
 OpenBabel08242015393D

 14 13  0  0  0  0  0  0  0  0999 V2000
   -3.9731    0.2573    0.1412 C   0  0  0  0  0  0  0  0  0  0  0  0
   -2.7088   -0.5811   -0.1272 C   0  0  0  0  0  0  0  0  0  0  0  0
   -4.9088   -0.4656    0.4706 H   0  0  0  0  0  0  0  0  0  0  0  0
   -4.0940    1.0456   -0.8529 H   0  0  0  0  0  0  0  0  0  0  0  0
   -3.7217    0.6726    0.8455 H   0  0  0  0  0  0  0  0  0  0  0  0
   -1.3807    0.2191   -0.0558 C   0  0  0  0  0  0  0  0  0  0  0  0
   -2.8423   -1.4141   -1.1010 H   0  0  0  0  0  0  0  0  0  0  0  0
   -2.8128   -1.0854    0.6730 H   0  0  0  0  0  0  0  0  0  0  0  0
   -0.1490   -0.7360    0.1478 C   0  0  0  0  0  0  0  0  0  0  0  0
   -1.5428    0.7783    0.6479 H   0  0  0  0  0  0  0  0  0  0  0  0
   -1.2159    0.9202   -0.9487 H   0  0  0  0  0  0  0  0  0  0  0  0
    0.0394   -1.4372    0.9982 H   0  0  0  0  0  0  0  0  0  0  0  0
    0.7417   -0.1646    0.0798 H   0  0  0  0  0  0  0  0  0  0  0  0
   -0.1194   -1.2238   -0.6377 H   0  0  0  0  0  0  0  0  0  0  0  0
  1  3  1  0  0  0  0
  1  5  1  0  0  0  0
  2  6  1  0  0  0  0
  2  1  1  0  0  0  0
  2  8  1  0  0  0  0
  4  1  1  0  0  0  0
  6  9  1  0  0  0  0
  6 10  1  0  0  0  0
  7  2  1  0  0  0  0
  9 12  1  0  0  0  0
 11  6  1  0  0  0  0
 13  9  1  0  0  0  0
 14  9  1  0  0  0  0
M  END
$$$$
