butane_opt
 OpenBabel08242015393D

 14 13  0  0  0  0  0  0  0  0999 V2000
   -3.8809    0.2412    0.0959 C   0  0  0  0  0  0  0  0  0  0  0  0
   -2.7118   -0.5935   -0.0129 C   0  0  0  0  0  0  0  0  0  0  0  0
   -4.8201   -0.3704    0.1945 H   0  0  0  0  0  0  0  0  0  0  0  0
   -3.8737    0.7031   -0.7040 H   0  0  0  0  0  0  0  0  0  0  0  0
   -3.8260    0.9702    1.0211 H   0  0  0  0  0  0  0  0  0  0  0  0
   -1.4412    0.2166   -0.1167 C   0  0  0  0  0  0  0  0  0  0  0  0
   -2.8773   -1.3225   -0.8855 H   0  0  0  0  0  0  0  0  0  0  0  0
   -2.8000   -1.1194    0.8011 H   0  0  0  0  0  0  0  0  0  0  0  0
   -0.1609   -0.7340    0.0907 C   0  0  0  0  0  0  0  0  0  0  0  0
   -1.5423    0.8613    0.7286 H   0  0  0  0  0  0  0  0  0  0  0  0
   -1.3725    1.0955   -1.1161 H   0  0  0  0  0  0  0  0  0  0  0  0
   -0.4353   -1.2074    0.9958 H   0  0  0  0  0  0  0  0  0  0  0  0
    0.6916   -0.2139    0.5237 H   0  0  0  0  0  0  0  0  0  0  0  0
    0.1720   -1.4663   -0.7960 H   0  0  0  0  0  0  0  0  0  0  0  0
  1  3  1  0  0  0  0
  1  5  1  0  0  0  0
  2  1  1  0  0  0  0
  2  8  1  0  0  0  0
  4  1  1  0  0  0  0
  6  2  1  0  0  0  0
  6  9  1  0  0  0  0
  6 10  1  0  0  0  0
  7  2  1  0  0  0  0
  9 13  1  0  0  0  0
  9 12  1  0  0  0  0
 11  6  1  0  0  0  0
 14  9  1  0  0  0  0
M  END
$$$$
