14
butane_opt
C  -3.906456   0.295233   0.063019
C  -2.692620  -0.659149  -0.046576
H  -4.724267  -0.246999   0.354355
H  -4.145523   1.090743  -0.925075
H  -3.821343   0.845738   0.779933
C  -1.425820   0.149961  -0.013279
H  -2.825480  -1.276310  -0.847886
H  -2.553507  -1.322421   0.902001
C  -0.206480  -0.679065   0.067215
H  -1.401028   0.896413   0.833998
H  -1.226309   0.794685  -0.889934
H  -0.224065  -1.268943   0.967201
H   0.822170   0.120335   0.243316
H  -0.174285  -1.374777  -0.850933
