14
butane_opt
C  -3.997264   0.277177   0.095892
C  -2.697310  -0.658183  -0.002987
H  -4.883665  -0.204645   0.162872
H  -4.042458   0.993376  -0.833956
H  -4.016046   1.088242   1.048990
C  -1.372068   0.174825  -0.131487
H  -2.899660  -1.391999  -0.900328
H  -2.554325  -1.223265   0.826391
C  -0.135150  -0.687694   0.122950
H  -1.337305   0.716784   0.678374
H  -1.270893   0.883551  -1.072406
H  -0.427321  -1.062827   0.817364
H   0.858803   0.010825   0.559194
H  -0.024344  -1.548574  -0.875414
