14
butane_opt
C  -3.973071   0.257318   0.141215
C  -2.708838  -0.581103  -0.127201
H  -4.908832  -0.465557   0.470593
H  -4.094047   1.045611  -0.852930
H  -3.721712   0.672598   0.845470
C  -1.380694   0.219128  -0.055770
H  -2.842254  -1.414069  -1.101004
H  -2.812777  -1.085385   0.672956
C  -0.149030  -0.736018   0.147834
H  -1.542761   0.778303   0.647885
H  -1.215949   0.920169  -0.948729
H   0.039400  -1.437156   0.998197
H   0.741680  -0.164559   0.079797
H  -0.119373  -1.223755  -0.637741
