butane_opt
 OpenBabel08242015393D

 14 13  0  0  0  0  0  0  0  0999 V2000
   -3.9350    0.2093   -0.0033 C   0  0  0  0  0  0  0  0  0  0  0  0
   -2.7358   -0.5899    0.0316 C   0  0  0  0  0  0  0  0  0  0  0  0
   -4.7901   -0.3119    0.3841 H   0  0  0  0  0  0  0  0  0  0  0  0
   -3.9759    1.1469   -1.1291 H   0  0  0  0  0  0  0  0  0  0  0  0
   -3.9786    0.7114    0.8039 H   0  0  0  0  0  0  0  0  0  0  0  0
   -1.4312    0.2300    0.0417 C   0  0  0  0  0  0  0  0  0  0  0  0
   -2.7938   -1.3451   -0.8012 H   0  0  0  0  0  0  0  0  0  0  0  0
   -2.6408   -1.0675    0.8395 H   0  0  0  0  0  0  0  0  0  0  0  0
   -0.1139   -0.7216    0.0407 C   0  0  0  0  0  0  0  0  0  0  0  0
   -1.4086    0.9167    0.9350 H   0  0  0  0  0  0  0  0  0  0  0  0
   -1.5019    0.8143   -0.8609 H   0  0  0  0  0  0  0  0  0  0  0  0
    0.0793   -1.2404    0.8642 H   0  0  0  0  0  0  0  0  0  0  0  0
    0.7140   -0.1615   -0.0242 H   0  0  0  0  0  0  0  0  0  0  0  0
   -0.1295   -1.4611   -0.9222 H   0  0  0  0  0  0  0  0  0  0  0  0
  1  2  1  0  0  0  0
  1  3  1  0  0  0  0
  1  5  1  0  0  0  0
  2  6  1  0  0  0  0
  2  8  1  0  0  0  0
  4  1  1  0  0  0  0
  6 10  1  0  0  0  0
  7  2  1  0  0  0  0
  9  6  1  0  0  0  0
  9 12  1  0  0  0  0
 11  6  1  0  0  0  0
 13  9  1  0  0  0  0
 14  9  1  0  0  0  0
M  END
$$$$
