butane_opt
 OpenBabel08242015393D

 14 13  0  0  0  0  0  0  0  0999 V2000
   -3.9231    0.2304   -0.0387 C   0  0  0  0  0  0  0  0  0  0  0  0
   -2.6538   -0.5865    0.1272 C   0  0  0  0  0  0  0  0  0  0  0  0
   -4.8835   -0.3583   -0.3579 H   0  0  0  0  0  0  0  0  0  0  0  0
   -3.6500    0.6830   -0.8569 H   0  0  0  0  0  0  0  0  0  0  0  0
   -4.1544    1.0905    0.8542 H   0  0  0  0  0  0  0  0  0  0  0  0
   -1.4273    0.2088    0.0313 C   0  0  0  0  0  0  0  0  0  0  0  0
   -2.7355   -1.1578   -0.5824 H   0  0  0  0  0  0  0  0  0  0  0  0
   -2.7348   -1.4421    1.1802 H   0  0  0  0  0  0  0  0  0  0  0  0
   -0.2058   -0.7163   -0.0193 C   0  0  0  0  0  0  0  0  0  0  0  0
   -1.2929    1.0512    1.0110 H   0  0  0  0  0  0  0  0  0  0  0  0
   -1.5393    0.7996   -0.7769 H   0  0  0  0  0  0  0  0  0  0  0  0
   -0.0105   -1.2223    0.7264 H   0  0  0  0  0  0  0  0  0  0  0  0
    0.6325   -0.1595   -0.0719 H   0  0  0  0  0  0  0  0  0  0  0  0
   -0.1254   -1.4122   -0.8824 H   0  0  0  0  0  0  0  0  0  0  0  0
  1  2  1  0  0  0  0
  1  5  1  0  0  0  0
  2  8  1  0  0  0  0
  3  1  1  0  0  0  0
  4  1  1  0  0  0  0
  6  2  1  0  0  0  0
  6 10  1  0  0  0  0
  7  2  1  0  0  0  0
  9  6  1  0  0  0  0
  9 12  1  0  0  0  0
 11  6  1  0  0  0  0
 13  9  1  0  0  0  0
 14  9  1  0  0  0  0
M  END
$$$$
