14
butane_opt
C  -3.978124   0.294380  -0.051906
C  -2.684594  -0.684150   0.150773
H  -4.807016  -0.289495  -0.337122
H  -3.744154   0.765987  -0.959168
H  -4.224207   1.228513   0.975532
C  -1.382518   0.181225   0.037987
H  -2.688841  -1.205357  -0.601715
H  -2.582331  -1.409515   1.082604
C  -0.170299  -0.653157  -0.031643
H  -1.373873   0.920327   0.974314
H  -1.444455   0.588640  -0.772604
H  -0.130056  -1.244878   0.852969
H   0.696973  -0.089437  -0.127887
H  -0.157899  -1.375362  -0.907541
