butane_opt
 OpenBabel08242015393D

 14 13  0  0  0  0  0  0  0  0999 V2000
   -3.9776    0.2832   -0.0048 C   0  0  0  0  0  0  0  0  0  0  0  0
   -2.6702   -0.6408    0.0856 C   0  0  0  0  0  0  0  0  0  0  0  0
   -4.8597   -0.2946    0.0749 H   0  0  0  0  0  0  0  0  0  0  0  0
   -3.8304    0.9369   -0.9136 H   0  0  0  0  0  0  0  0  0  0  0  0
   -4.0464    0.9916    0.8812 H   0  0  0  0  0  0  0  0  0  0  0  0
   -1.4038    0.1494    0.0037 C   0  0  0  0  0  0  0  0  0  0  0  0
   -2.5288   -1.2800   -0.8145 H   0  0  0  0  0  0  0  0  0  0  0  0
   -2.6298   -1.3953    1.0608 H   0  0  0  0  0  0  0  0  0  0  0  0
   -0.1817   -0.6785    0.0406 C   0  0  0  0  0  0  0  0  0  0  0  0
   -1.3932    0.7822    0.7807 H   0  0  0  0  0  0  0  0  0  0  0  0
   -1.3159    0.8822   -0.9611 H   0  0  0  0  0  0  0  0  0  0  0  0
   -0.2010   -0.9058    0.6322 H   0  0  0  0  0  0  0  0  0  0  0  0
    0.7796   -0.0001    0.2409 H   0  0  0  0  0  0  0  0  0  0  0  0
   -0.1980   -1.5520   -1.0539 H   0  0  0  0  0  0  0  0  0  0  0  0
  1  3  1  0  0  0  0
  1  2  1  0  0  0  0
  1  5  1  0  0  0  0
  2  8  1  0  0  0  0
  4  1  1  0  0  0  0
  6  9  1  0  0  0  0
  6  2  1  0  0  0  0
  6 10  1  0  0  0  0
  7  2  1  0  0  0  0
  9 13  1  0  0  0  0
  9 12  1  0  0  0  0
 11  6  1  0  0  0  0
 14  9  1  0  0  0  0
M  END
$$$$
