14
butane_opt
C  -3.980046   0.303626  -0.079091
C  -2.704246  -0.705423   0.106478
H  -4.639811  -0.114001  -0.158487
H  -3.986670   0.962210  -1.079220
H  -4.033240   0.936756   0.702437
C  -1.397603   0.178191   0.165174
H  -2.606862  -1.149985  -0.526944
H  -2.798418  -1.391661   1.070309
C  -0.148781  -0.674426  -0.077479
H  -1.367111   1.021162   1.185095
H  -1.224618   0.597004  -0.684726
H   0.049000  -1.393351   0.824777
H   0.783928   0.004582  -0.471924
H  -0.467507  -1.122388  -0.818032
