14
butane_opt
C  -3.883383   0.231569   0.109962
C  -2.741368  -0.582516  -0.046539
H  -4.851646  -0.399387   0.137573
H  -4.056193   0.757764  -0.644925
H  -3.845828   0.857332   1.013727
C  -1.410714   0.245703  -0.114899
H  -2.755383  -1.250824  -0.928949
H  -2.742525  -1.098138   0.761140
C  -0.158141  -0.758621   0.140238
H  -1.621120   0.872084   0.660764
H  -1.305554   1.040435  -1.095744
H  -0.161435  -1.249378   0.968659
H   0.812406  -0.209771   0.288116
H  -0.139813  -1.460057  -0.783427
