butane_opt
 OpenBabel08242015393D

 14 13  0  0  0  0  0  0  0  0999 V2000
   -3.8881    0.2249    0.0787 C   0  0  0  0  0  0  0  0  0  0  0  0
   -2.7045   -0.5861   -0.0302 C   0  0  0  0  0  0  0  0  0  0  0  0
   -4.7890   -0.3451   -0.1110 H   0  0  0  0  0  0  0  0  0  0  0  0
   -3.9241    0.7151   -0.7016 H   0  0  0  0  0  0  0  0  0  0  0  0
   -3.8986    0.8807    0.9692 H   0  0  0  0  0  0  0  0  0  0  0  0
   -1.4509    0.2244   -0.0172 C   0  0  0  0  0  0  0  0  0  0  0  0
   -2.9614   -1.3503   -1.0334 H   0  0  0  0  0  0  0  0  0  0  0  0
   -2.5880   -0.9525    0.6965 H   0  0  0  0  0  0  0  0  0  0  0  0
   -0.1585   -0.7284    0.0898 C   0  0  0  0  0  0  0  0  0  0  0  0
   -1.5359    0.8818    0.7993 H   0  0  0  0  0  0  0  0  0  0  0  0
   -1.4944    0.9186   -0.9351 H   0  0  0  0  0  0  0  0  0  0  0  0
    0.0762   -1.6897    1.1836 H   0  0  0  0  0  0  0  0  0  0  0  0
    0.6811   -0.1271   -0.3555 H   0  0  0  0  0  0  0  0  0  0  0  0
   -0.1673   -1.0326   -0.5034 H   0  0  0  0  0  0  0  0  0  0  0  0
  1  5  1  0  0  0  0
  2  6  1  0  0  0  0
  2  1  1  0  0  0  0
  2  8  1  0  0  0  0
  3  1  1  0  0  0  0
  4  1  1  0  0  0  0
  6  9  1  0  0  0  0
  6 10  1  0  0  0  0
  7  2  1  0  0  0  0
  9 12  1  0  0  0  0
 11  6  1  0  0  0  0
 13  9  1  0  0  0  0
 14  9  1  0  0  0  0
M  END
$$$$
