14
butane_opt
C  -3.975798   0.234671   0.129342
C  -2.715133  -0.599384  -0.055642
H  -4.910808  -0.315773   0.065775
H  -3.859701   0.714114  -0.620669
H  -3.881034   0.934142   1.029901
C  -1.435656   0.256860  -0.131532
H  -2.956033  -1.386612  -1.020375
H  -2.511801  -1.245344   0.832646
C  -0.115947  -0.720149   0.126209
H  -1.444668   0.801683   0.718224
H  -1.235644   0.999823  -1.123218
H  -0.168819  -1.367932   1.098746
H   0.699173  -0.291051   0.413620
H   0.151004  -1.397461  -0.772431
