14
butane_opt
C  -3.938811   0.255588  -0.037235
C  -2.743240  -0.630507   0.092583
H  -4.831571  -0.248845   0.049523
H  -4.026548   0.934397  -0.951083
H  -3.910025   0.733185   0.638812
C  -1.405140   0.245631   0.045647
H  -2.860946  -1.056598  -0.478951
H  -2.774668  -1.484857   1.169031
C  -0.124318  -0.724740  -0.022880
H  -1.474032   0.939869   0.909629
H  -1.442660   0.822935  -0.793190
H  -0.058171  -0.921552   0.617942
H   0.791420  -0.152430   0.407651
H   0.074238  -1.793298  -1.145822
