14
butane_opt
C  -3.914143   0.261856  -0.081639
C  -2.687192  -0.623718   0.157475
H  -4.810099  -0.318675  -0.062609
H  -3.839881   1.018757  -1.011728
H  -4.054486   0.870495   0.759161
C  -1.411190   0.216347   0.095114
H  -2.659613  -1.191456  -0.643062
H  -2.771978  -1.358746   1.099669
C  -0.189699  -0.713928  -0.062824
H  -1.388921   0.845890   0.933177
H  -1.289063   0.671579  -0.690430
H  -0.098865  -1.118365   0.749160
H   0.720206  -0.081571   0.094128
H  -0.385118  -1.500819  -1.110802
