14
butane_opt
C  -3.946947   0.257356   0.137860
C  -2.735697  -0.578410  -0.108893
H  -4.783428  -0.347307   0.394927
H  -4.205384   1.031787  -0.845125
H  -3.635422   0.802559   0.969152
C  -1.393103   0.165924  -0.085155
H  -2.863573  -1.503975  -1.154045
H  -2.702218  -1.137632   0.713945
C  -0.131181  -0.696124   0.119431
H  -1.542518   0.881873   0.745940
H  -1.394365   0.818852  -0.945721
H  -0.313232  -1.552592   1.179708
H   0.779357  -0.100876   0.170088
H   0.106387  -1.118539  -0.546858
