butane_opt
 OpenBabel08242015393D

 14 13  0  0  0  0  0  0  0  0999 V2000
   -3.9496    0.2567    0.0341 C   0  0  0  0  0  0  0  0  0  0  0  0
   -2.6982   -0.6066    0.0306 C   0  0  0  0  0  0  0  0  0  0  0  0
   -4.9057   -0.3869   -0.0836 H   0  0  0  0  0  0  0  0  0  0  0  0
   -3.9566    0.7136   -0.7588 H   0  0  0  0  0  0  0  0  0  0  0  0
   -3.9822    1.0704    0.9934 H   0  0  0  0  0  0  0  0  0  0  0  0
   -1.4072    0.1982   -0.0241 C   0  0  0  0  0  0  0  0  0  0  0  0
   -2.7195   -1.2569   -0.8383 H   0  0  0  0  0  0  0  0  0  0  0  0
   -2.7444   -1.2307    0.9127 H   0  0  0  0  0  0  0  0  0  0  0  0
   -0.1477   -0.7056    0.0545 C   0  0  0  0  0  0  0  0  0  0  0  0
   -1.3926    0.8795    0.8296 H   0  0  0  0  0  0  0  0  0  0  0  0
   -1.4054    0.8561   -0.9401 H   0  0  0  0  0  0  0  0  0  0  0  0
   -0.1427   -1.3962    1.0085 H   0  0  0  0  0  0  0  0  0  0  0  0
    0.7854   -0.1280   -0.0286 H   0  0  0  0  0  0  0  0  0  0  0  0
   -0.1162   -1.3168   -0.7722 H   0  0  0  0  0  0  0  0  0  0  0  0
  1  5  1  0  0  0  0
  2  1  1  0  0  0  0
  2  8  1  0  0  0  0
  3  1  1  0  0  0  0
  4  1  1  0  0  0  0
  6  2  1  0  0  0  0
  6  9  1  0  0  0  0
  6 10  1  0  0  0  0
  7  2  1  0  0  0  0
  9 12  1  0  0  0  0
 11  6  1  0  0  0  0
 13  9  1  0  0  0  0
 14  9  1  0  0  0  0
M  END
$$$$
