14
butane_opt
C  -3.941360   0.247607  -0.003824
C  -2.703203  -0.600551   0.059341
H  -4.844958  -0.345663   0.099050
H  -3.929280   0.981806  -0.960683
H  -3.925745   0.823682   0.795542
C  -1.413731   0.196569   0.043985
H  -2.671703  -1.302540  -0.798911
H  -2.750644  -1.197333   0.932704
C  -0.153683  -0.709805   0.006334
H  -1.374483   0.930317   0.905531
H  -1.465871   0.820310  -0.833625
H  -0.146286  -1.303536   0.906282
H   0.769411  -0.079024  -0.018373
H  -0.138279  -1.408412  -0.867141
