14
butane_opt
C  -3.925736   0.271167   0.093605
C  -2.661524  -0.626765  -0.058927
H  -4.714819  -0.230123   0.244015
H  -4.186024   0.883562  -0.728628
H  -3.844720   0.990297   0.935757
C  -1.421030   0.162681  -0.054768
H  -2.711910  -1.531183  -1.001549
H  -2.607666  -1.103519   0.711208
C  -0.192893  -0.672203   0.121299
H  -1.376449   0.641201   0.631516
H  -1.372180   0.840277  -1.009150
H  -0.259851  -1.365112   1.039157
H   0.754027  -0.068484   0.089472
H  -0.285721  -1.119945  -0.652060
