14
butane_opt
C  -3.967775   0.269143   0.038984
C  -2.693787  -0.628942  -0.001302
H  -4.848297  -0.299675   0.013206
H  -3.999429   0.784039  -0.794754
H  -3.947223   0.992437   0.981489
C  -1.394066   0.186852  -0.005263
H  -2.721035  -1.297588  -0.864923
H  -2.672311  -1.244893   0.870648
C  -0.156838  -0.690128   0.057721
H  -1.396848   0.884926   0.853606
H  -1.366905   0.848001  -0.910790
H  -0.061149  -1.460728   1.043161
H   0.733805  -0.112792  -0.098970
H  -0.197041  -1.206834  -0.709382
