butane_opt
 OpenBabel08242015393D

 14 13  0  0  0  0  0  0  0  0999 V2000
   -3.9449    0.2738    0.1092 C   0  0  0  0  0  0  0  0  0  0  0  0
   -2.6920   -0.6100   -0.0523 C   0  0  0  0  0  0  0  0  0  0  0  0
   -4.8473   -0.3463    0.1585 H   0  0  0  0  0  0  0  0  0  0  0  0
   -4.0820    0.7950   -0.7071 H   0  0  0  0  0  0  0  0  0  0  0  0
   -3.8569    1.1508    1.0897 H   0  0  0  0  0  0  0  0  0  0  0  0
   -1.4081    0.1224   -0.1182 C   0  0  0  0  0  0  0  0  0  0  0  0
   -2.7491   -1.2235   -0.9167 H   0  0  0  0  0  0  0  0  0  0  0  0
   -2.4375   -1.4082    0.9103 H   0  0  0  0  0  0  0  0  0  0  0  0
   -0.1739   -0.6595    0.1297 C   0  0  0  0  0  0  0  0  0  0  0  0
   -1.4867    0.7473    0.6274 H   0  0  0  0  0  0  0  0  0  0  0  0
   -1.2398    0.9345   -1.1132 H   0  0  0  0  0  0  0  0  0  0  0  0
   -0.5197   -1.0473    0.8980 H   0  0  0  0  0  0  0  0  0  0  0  0
    0.7504   -0.1208    0.4379 H   0  0  0  0  0  0  0  0  0  0  0  0
    0.0884   -1.4862   -0.7882 H   0  0  0  0  0  0  0  0  0  0  0  0
  1  3  1  0  0  0  0
  1  5  1  0  0  0  0
  2  1  1  0  0  0  0
  2  8  1  0  0  0  0
  4  1  1  0  0  0  0
  6  2  1  0  0  0  0
  6  9  1  0  0  0  0
  6 10  1  0  0  0  0
  7  2  1  0  0  0  0
  9 13  1  0  0  0  0
  9 12  1  0  0  0  0
 11  6  1  0  0  0  0
 14  9  1  0  0  0  0
M  END
$$$$
