butane_opt
 OpenBabel08242015393D

 14 13  0  0  0  0  0  0  0  0999 V2000
   -3.9706    0.2895   -0.0466 C   0  0  0  0  0  0  0  0  0  0  0  0
   -2.6927   -0.6696    0.1292 C   0  0  0  0  0  0  0  0  0  0  0  0
   -4.7470   -0.2059   -0.3618 H   0  0  0  0  0  0  0  0  0  0  0  0
   -3.9201    0.8607   -0.9805 H   0  0  0  0  0  0  0  0  0  0  0  0
   -4.3625    1.1963    0.9117 H   0  0  0  0  0  0  0  0  0  0  0  0
   -1.3526    0.1696    0.0528 C   0  0  0  0  0  0  0  0  0  0  0  0
   -2.7764   -1.2801   -0.5806 H   0  0  0  0  0  0  0  0  0  0  0  0
   -2.7421   -1.5258    1.2083 H   0  0  0  0  0  0  0  0  0  0  0  0
   -0.1709   -0.6666   -0.0474 C   0  0  0  0  0  0  0  0  0  0  0  0
   -1.2673    0.9522    0.9906 H   0  0  0  0  0  0  0  0  0  0  0  0
   -1.5436    0.7001   -0.7198 H   0  0  0  0  0  0  0  0  0  0  0  0
   -0.0293   -1.2345    0.9024 H   0  0  0  0  0  0  0  0  0  0  0  0
    0.8217   -0.0119   -0.0082 H   0  0  0  0  0  0  0  0  0  0  0  0
   -0.2312   -1.3704   -0.9689 H   0  0  0  0  0  0  0  0  0  0  0  0
  1  2  1  0  0  0  0
  1  5  1  0  0  0  0
  2  8  1  0  0  0  0
  3  1  1  0  0  0  0
  4  1  1  0  0  0  0
  6  2  1  0  0  0  0
  6 10  1  0  0  0  0
  7  2  1  0  0  0  0
  9 13  1  0  0  0  0
  9  6  1  0  0  0  0
  9 12  1  0  0  0  0
 11  6  1  0  0  0  0
 14  9  1  0  0  0  0
M  END
$$$$
