butane_opt
 OpenBabel08242015393D

 14 13  0  0  0  0  0  0  0  0999 V2000
   -3.9538    0.2944    0.0638 C   0  0  0  0  0  0  0  0  0  0  0  0
   -2.6343   -0.6553   -0.0005 C   0  0  0  0  0  0  0  0  0  0  0  0
   -4.7973   -0.1814    0.1208 H   0  0  0  0  0  0  0  0  0  0  0  0
   -4.0799    0.8769   -0.7686 H   0  0  0  0  0  0  0  0  0  0  0  0
   -3.9487    0.8349    0.9205 H   0  0  0  0  0  0  0  0  0  0  0  0
   -1.3991    0.1486   -0.0672 C   0  0  0  0  0  0  0  0  0  0  0  0
   -2.6175   -1.2304   -0.8483 H   0  0  0  0  0  0  0  0  0  0  0  0
   -2.6871   -1.4273    1.0023 H   0  0  0  0  0  0  0  0  0  0  0  0
   -0.2095   -0.6418    0.0760 C   0  0  0  0  0  0  0  0  0  0  0  0
   -1.4684    0.8279    0.8111 H   0  0  0  0  0  0  0  0  0  0  0  0
   -1.2585    0.8044   -1.0144 H   0  0  0  0  0  0  0  0  0  0  0  0
   -0.3292   -1.0854    0.9014 H   0  0  0  0  0  0  0  0  0  0  0  0
    0.6412   -0.0814    0.4099 H   0  0  0  0  0  0  0  0  0  0  0  0
   -0.1284   -1.5678   -0.9815 H   0  0  0  0  0  0  0  0  0  0  0  0
  1  3  1  0  0  0  0
  1  5  1  0  0  0  0
  2  1  1  0  0  0  0
  2  8  1  0  0  0  0
  4  1  1  0  0  0  0
  6  2  1  0  0  0  0
  6  9  1  0  0  0  0
  6 10  1  0  0  0  0
  7  2  1  0  0  0  0
  9 13  1  0  0  0  0
  9 12  1  0  0  0  0
 11  6  1  0  0  0  0
 14  9  1  0  0  0  0
M  END
$$$$
