14
butane_opt
C  -3.978766   0.215826   0.117332
C  -2.710360  -0.574762  -0.093060
H  -4.964451  -0.423646   0.474051
H  -4.122170   0.985611  -0.809082
H  -3.782209   0.837360   0.884895
C  -1.425985   0.203819  -0.099888
H  -2.798646  -1.264764  -0.996311
H  -2.555253  -0.999094   0.634524
C  -0.106688  -0.712987   0.132190
H  -1.496401   0.987483   0.807422
H  -1.161450   0.785008  -0.869412
H  -0.116180  -1.508957   1.181085
H   0.715902  -0.217255   0.057277
H  -0.044881  -1.277613  -0.607455
