butane_opt
 OpenBabel08242015393D

 14 13  0  0  0  0  0  0  0  0999 V2000
   -3.9352    0.2491    0.0324 C   0  0  0  0  0  0  0  0  0  0  0  0
   -2.6932   -0.6042    0.0240 C   0  0  0  0  0  0  0  0  0  0  0  0
   -4.8256   -0.3118    0.0286 H   0  0  0  0  0  0  0  0  0  0  0  0
   -3.9149    0.9089   -0.8874 H   0  0  0  0  0  0  0  0  0  0  0  0
   -3.9615    0.8974    0.8446 H   0  0  0  0  0  0  0  0  0  0  0  0
   -1.4117    0.1926    0.0156 C   0  0  0  0  0  0  0  0  0  0  0  0
   -2.7537   -1.3404   -0.8619 H   0  0  0  0  0  0  0  0  0  0  0  0
   -2.7295   -1.1816    0.8938 H   0  0  0  0  0  0  0  0  0  0  0  0
   -0.1668   -0.6977    0.0347 C   0  0  0  0  0  0  0  0  0  0  0  0
   -1.4141    0.8881    0.8557 H   0  0  0  0  0  0  0  0  0  0  0  0
   -1.4247    0.8357   -0.8688 H   0  0  0  0  0  0  0  0  0  0  0  0
   -0.0754   -1.4137    1.0070 H   0  0  0  0  0  0  0  0  0  0  0  0
    0.7402   -0.1084   -0.0633 H   0  0  0  0  0  0  0  0  0  0  0  0
   -0.1862   -1.3237   -0.7835 H   0  0  0  0  0  0  0  0  0  0  0  0
  1  5  1  0  0  0  0
  2  1  1  0  0  0  0
  2  8  1  0  0  0  0
  3  1  1  0  0  0  0
  4  1  1  0  0  0  0
  6  2  1  0  0  0  0
  6  9  1  0  0  0  0
  6 10  1  0  0  0  0
  7  2  1  0  0  0  0
  9 12  1  0  0  0  0
 11  6  1  0  0  0  0
 13  9  1  0  0  0  0
 14  9  1  0  0  0  0
M  END
$$$$
