butane_opt
 OpenBabel08242015393D

 14 13  0  0  0  0  0  0  0  0999 V2000
   -3.9067    0.2276   -0.0548 C   0  0  0  0  0  0  0  0  0  0  0  0
   -2.6976   -0.5940    0.1883 C   0  0  0  0  0  0  0  0  0  0  0  0
   -4.8143   -0.3621   -0.5678 H   0  0  0  0  0  0  0  0  0  0  0  0
   -3.6356    0.7958   -0.9862 H   0  0  0  0  0  0  0  0  0  0  0  0
   -4.1291    1.1109    0.8851 H   0  0  0  0  0  0  0  0  0  0  0  0
   -1.4280    0.2385    0.0962 C   0  0  0  0  0  0  0  0  0  0  0  0
   -2.6123   -1.2460   -0.6755 H   0  0  0  0  0  0  0  0  0  0  0  0
   -2.9307   -1.3206    1.0852 H   0  0  0  0  0  0  0  0  0  0  0  0
   -0.1892   -0.7514   -0.0754 C   0  0  0  0  0  0  0  0  0  0  0  0
   -1.2153    0.9191    0.9786 H   0  0  0  0  0  0  0  0  0  0  0  0
   -1.5024    0.8951   -0.8328 H   0  0  0  0  0  0  0  0  0  0  0  0
   -0.0736   -1.2746    0.8322 H   0  0  0  0  0  0  0  0  0  0  0  0
    0.7426   -0.1143   -0.1402 H   0  0  0  0  0  0  0  0  0  0  0  0
   -0.1807   -1.3337   -0.9692 H   0  0  0  0  0  0  0  0  0  0  0  0
  1  2  1  0  0  0  0
  1  5  1  0  0  0  0
  2  8  1  0  0  0  0
  3  1  1  0  0  0  0
  4  1  1  0  0  0  0
  6  2  1  0  0  0  0
  6 10  1  0  0  0  0
  7  2  1  0  0  0  0
  9  6  1  0  0  0  0
  9 12  1  0  0  0  0
 11  6  1  0  0  0  0
 13  9  1  0  0  0  0
 14  9  1  0  0  0  0
M  END
$$$$
