butane_opt
 OpenBabel08242015393D

 14 13  0  0  0  0  0  0  0  0999 V2000
   -3.9240    0.2411   -0.0321 C   0  0  0  0  0  0  0  0  0  0  0  0
   -2.7359   -0.5571    0.0786 C   0  0  0  0  0  0  0  0  0  0  0  0
   -4.9892   -0.4484   -0.3388 H   0  0  0  0  0  0  0  0  0  0  0  0
   -3.7997    0.5702   -0.7081 H   0  0  0  0  0  0  0  0  0  0  0  0
   -4.1167    1.1182    0.9576 H   0  0  0  0  0  0  0  0  0  0  0  0
   -1.4112    0.2136    0.0489 C   0  0  0  0  0  0  0  0  0  0  0  0
   -2.9259   -1.1033   -0.6589 H   0  0  0  0  0  0  0  0  0  0  0  0
   -2.8346   -1.4285    1.2494 H   0  0  0  0  0  0  0  0  0  0  0  0
   -0.1012   -0.7352   -0.0141 C   0  0  0  0  0  0  0  0  0  0  0  0
   -1.4756    0.8980    0.8893 H   0  0  0  0  0  0  0  0  0  0  0  0
   -1.4183    0.8615   -0.8603 H   0  0  0  0  0  0  0  0  0  0  0  0
    0.0945   -1.3944    0.7953 H   0  0  0  0  0  0  0  0  0  0  0  0
    0.7482   -0.1749   -0.0271 H   0  0  0  0  0  0  0  0  0  0  0  0
   -0.2136   -1.3432   -0.8132 H   0  0  0  0  0  0  0  0  0  0  0  0
  1  2  1  0  0  0  0
  1  5  1  0  0  0  0
  2  8  1  0  0  0  0
  3  1  1  0  0  0  0
  4  1  1  0  0  0  0
  6  2  1  0  0  0  0
  6 10  1  0  0  0  0
  7  2  1  0  0  0  0
  9  6  1  0  0  0  0
  9 12  1  0  0  0  0
 11  6  1  0  0  0  0
 13  9  1  0  0  0  0
 14  9  1  0  0  0  0
M  END
$$$$
