butane_opt
 OpenBabel08242015393D

 14 13  0  0  0  0  0  0  0  0999 V2000
   -3.9321    0.2609    0.0051 C   0  0  0  0  0  0  0  0  0  0  0  0
   -2.6970   -0.6157    0.0511 C   0  0  0  0  0  0  0  0  0  0  0  0
   -4.8638   -0.3370    0.0721 H   0  0  0  0  0  0  0  0  0  0  0  0
   -3.9466    0.9124   -0.9044 H   0  0  0  0  0  0  0  0  0  0  0  0
   -3.9296    0.9036    0.8533 H   0  0  0  0  0  0  0  0  0  0  0  0
   -1.4078    0.1957    0.0234 C   0  0  0  0  0  0  0  0  0  0  0  0
   -2.6680   -1.2821   -0.8040 H   0  0  0  0  0  0  0  0  0  0  0  0
   -2.7488   -1.2543    0.9781 H   0  0  0  0  0  0  0  0  0  0  0  0
   -0.1766   -0.7054    0.0218 C   0  0  0  0  0  0  0  0  0  0  0  0
   -1.3751    0.8506    0.8703 H   0  0  0  0  0  0  0  0  0  0  0  0
   -1.3720    0.8590   -0.8868 H   0  0  0  0  0  0  0  0  0  0  0  0
   -0.1714   -1.2158    0.8603 H   0  0  0  0  0  0  0  0  0  0  0  0
    0.7342   -0.1228    0.0550 H   0  0  0  0  0  0  0  0  0  0  0  0
   -0.1140   -1.4183   -0.8814 H   0  0  0  0  0  0  0  0  0  0  0  0
  1  2  1  0  0  0  0
  1  3  1  0  0  0  0
  1  5  1  0  0  0  0
  2  8  1  0  0  0  0
  4  1  1  0  0  0  0
  6  2  1  0  0  0  0
  6 10  1  0  0  0  0
  7  2  1  0  0  0  0
  9  6  1  0  0  0  0
  9 13  1  0  0  0  0
  9 12  1  0  0  0  0
 11  6  1  0  0  0  0
 14  9  1  0  0  0  0
M  END
$$$$
