14
butane_opt
C  -3.919410   0.246018   0.110683
C  -2.715593  -0.562548  -0.074712
H  -4.908811  -0.418524  -0.085270
H  -3.845490   0.795929  -0.747344
H  -3.806270   0.922615   1.017577
C  -1.408835   0.179807  -0.037237
H  -2.741947  -1.288356  -0.970920
H  -2.737768  -1.124998   0.791629
C  -0.170951  -0.694541   0.088834
H  -1.538640   0.963589   0.772469
H  -1.405451   0.674786  -0.824183
H  -0.026509  -1.762147   1.325142
H   0.737261  -0.213687  -0.347010
H  -0.178226  -1.043777  -0.509147
