14
butane_opt
C  -3.970319   0.251989   0.002999
C  -2.734867  -0.597472   0.047469
H  -4.869976  -0.349900   0.299628
H  -4.059074   1.367285  -1.179943
H  -3.939602   0.341786   0.513188
C  -1.410605   0.196239   0.089976
H  -2.773520  -1.296794  -0.871925
H  -2.646194  -1.145849   0.930098
C  -0.118088  -0.706714  -0.008604
H  -1.342215   0.932845   0.956722
H  -1.481144   0.710652  -0.756715
H   0.049451  -1.144373   0.818306
H   0.805543  -0.078485   0.082895
H   0.023109  -1.531738  -1.013405
