14
butane_opt
C  -3.985244   0.293073   0.033452
C  -2.699195  -0.639039   0.030969
H  -4.890862  -0.240420  -0.010833
H  -4.096348   0.975502  -0.964995
H  -4.031796   0.866594   0.805828
C  -1.374303   0.169021   0.031780
H  -2.889645  -1.417031  -0.985343
H  -2.625700  -1.196485   0.803589
C  -0.153839  -0.694590   0.030950
H  -1.299663   0.898176   0.988813
H  -1.281093   0.744591  -0.879050
H  -0.038217  -1.515272   1.073441
H   0.939893   0.075530  -0.225668
H  -0.278114  -1.170311  -0.695172
