14
butane_opt
C  -3.926927   0.258635  -0.078486
C  -2.718697  -0.574520   0.094746
H  -4.875327  -0.430160   0.160028
H  -3.916565   1.031268  -1.091246
H  -3.917587   0.507073   0.620147
C  -1.420041   0.202364   0.176548
H  -2.727348  -1.262716  -0.758806
H  -2.894412  -1.143120   0.971864
C  -0.130493  -0.703503  -0.068494
H  -1.244449   0.880099   1.071037
H  -1.543366   0.797595  -0.771722
H   0.191409  -1.440219   0.876575
H   0.623746  -0.248390  -0.191761
H  -0.364645  -1.360685  -0.932742
