14
butane_opt
C  -3.978404   0.306836  -0.033042
C  -2.732074  -0.629504   0.141499
H  -4.892144  -0.343602  -0.424757
H  -3.756258   0.623160  -0.805637
H  -4.404298   1.155540   0.914275
C  -1.355066   0.126937   0.028481
H  -2.635589  -1.251140  -0.586208
H  -2.617285  -1.272265   1.025390
C  -0.157169  -0.671150  -0.002711
H  -1.189135   0.787063   0.878177
H  -1.358995   0.863540  -0.901468
H  -0.006596  -1.132009   0.831559
H   0.762569  -0.092764  -0.099477
H  -0.251754  -1.427101  -0.984471
