14
butane_opt
C  -3.910719   0.322993   0.064219
C  -2.685280  -0.674095  -0.058173
H  -4.847810  -0.302233   0.098884
H  -3.957222   0.782056  -0.725884
H  -3.962600   1.171243   1.027109
C  -1.380777   0.146315   0.016255
H  -2.647405  -1.516824  -1.051232
H  -2.653869  -1.201220   0.676029
C  -0.212504  -0.652700   0.092130
H  -1.341225   0.626558   0.723641
H  -1.451053   0.850252  -0.890898
H  -0.068527  -1.617993   1.331983
H   0.663655  -0.047171  -0.477104
H  -0.496058  -0.910865  -0.562842
