14
butane_opt
C  -3.991328   0.273225  -0.028025
C  -2.698131  -0.629829   0.154535
H  -4.855120  -0.317269  -0.548510
H  -3.899291   0.786502  -0.943403
H  -4.340397   1.228655   0.963812
C  -1.390122   0.144492   0.053594
H  -2.642345  -1.259942  -0.663029
H  -2.678121  -1.366792   1.094595
C  -0.137346  -0.675528  -0.045544
H  -1.355449   0.837689   0.906758
H  -1.332127   0.828066  -0.832607
H  -0.090026  -1.257302   0.810098
H   0.915099   0.011015  -0.039081
H  -0.137679  -1.301503  -0.921973
