14
butane_opt
C  -3.970559   0.289544  -0.046560
C  -2.692685  -0.669638   0.129201
H  -4.747048  -0.205902  -0.361787
H  -3.920139   0.860712  -0.980535
H  -4.362463   1.196278   0.911746
C  -1.352599   0.169617   0.052772
H  -2.776390  -1.280102  -0.580610
H  -2.742063  -1.525805   1.208334
C  -0.170937  -0.666604  -0.047354
H  -1.267347   0.952225   0.990555
H  -1.543636   0.700084  -0.719788
H  -0.029341  -1.234521   0.902425
H   0.821707  -0.011926  -0.008243
H  -0.231232  -1.370384  -0.968894
