14
butane_opt
C  -3.930464   0.244964  -0.029636
C  -2.689304  -0.583982   0.068082
H  -4.866900  -0.401454   0.423735
H  -3.949989   1.030089  -1.120030
H  -3.803674   0.455724   0.556610
C  -1.402674   0.253114   0.065778
H  -2.605487  -1.355344  -0.775646
H  -2.788126  -1.184696   0.899517
C  -0.197750  -0.730233  -0.014656
H  -1.392308   1.095298   1.088865
H  -1.576598   0.683519  -0.640638
H  -0.028353  -1.373040   0.843528
H   0.673179  -0.192976  -0.025355
H  -0.052047  -1.419879  -0.902466
