butane_opt
 OpenBabel08242015393D

 14 12  0  0  0  0  0  0  0  0999 V2000
   -3.9125    0.2885    0.0711 C   0  0  0  0  0  0  0  0  0  0  0  0
   -2.6937   -0.6438   -0.0751 C   0  0  0  0  0  0  0  0  0  0  0  0
   -4.8333   -0.3127    0.1551 H   0  0  0  0  0  0  0  0  0  0  0  0
   -3.9715    0.8209   -0.7443 H   0  0  0  0  0  0  0  0  0  0  0  0
   -3.9272    1.0358    0.9633 H   0  0  0  0  0  0  0  0  0  0  0  0
   -1.3969    0.1599    0.0143 C   0  0  0  0  0  0  0  0  0  0  0  0
   -2.8255   -1.3609   -0.9541 H   0  0  0  0  0  0  0  0  0  0  0  0
   -2.5388   -1.1137    0.6760 H   0  0  0  0  0  0  0  0  0  0  0  0
   -0.2156   -0.6669    0.0995 C   0  0  0  0  0  0  0  0  0  0  0  0
   -1.4709    0.6971    0.8302 H   0  0  0  0  0  0  0  0  0  0  0  0
   -1.2710    0.8805   -0.9708 H   0  0  0  0  0  0  0  0  0  0  0  0
    0.0817   -1.6902    1.1911 H   0  0  0  0  0  0  0  0  0  0  0  0
    0.6484   -0.0368   -0.3732 H   0  0  0  0  0  0  0  0  0  0  0  0
   -0.3195   -1.0311   -0.6112 H   0  0  0  0  0  0  0  0  0  0  0  0
  1  3  1  0  0  0  0
  1  5  1  0  0  0  0
  2  6  1  0  0  0  0
  2  1  1  0  0  0  0
  2  8  1  0  0  0  0
  4  1  1  0  0  0  0
  6  9  1  0  0  0  0
  6 10  1  0  0  0  0
  7  2  1  0  0  0  0
 11  6  1  0  0  0  0
 13  9  1  0  0  0  0
 14  9  1  0  0  0  0
M  RAD  2   9   2  12   2
M  END
$$$$
