butane_opt
 OpenBabel08242015393D

 14 13  0  0  0  0  0  0  0  0999 V2000
   -3.9423    0.3026   -0.0139 C   0  0  0  0  0  0  0  0  0  0  0  0
   -2.7058   -0.6904    0.1362 C   0  0  0  0  0  0  0  0  0  0  0  0
   -4.9818   -0.3031   -0.4930 H   0  0  0  0  0  0  0  0  0  0  0  0
   -3.7496    0.7426   -0.8519 H   0  0  0  0  0  0  0  0  0  0  0  0
   -4.3627    1.2242    0.9694 H   0  0  0  0  0  0  0  0  0  0  0  0
   -1.3755    0.1944    0.0159 C   0  0  0  0  0  0  0  0  0  0  0  0
   -2.8296   -1.2984   -0.7208 H   0  0  0  0  0  0  0  0  0  0  0  0
   -2.7102   -1.2423    1.0356 H   0  0  0  0  0  0  0  0  0  0  0  0
   -0.1545   -0.6797    0.0165 C   0  0  0  0  0  0  0  0  0  0  0  0
   -1.2315    0.7748    0.8551 H   0  0  0  0  0  0  0  0  0  0  0  0
   -1.4351    0.8410   -0.8761 H   0  0  0  0  0  0  0  0  0  0  0  0
   -0.0994   -1.2445    0.7954 H   0  0  0  0  0  0  0  0  0  0  0  0
    0.7030   -0.1100   -0.1854 H   0  0  0  0  0  0  0  0  0  0  0  0
   -0.1775   -1.4057   -0.9397 H   0  0  0  0  0  0  0  0  0  0  0  0
  1  2  1  0  0  0  0
  1  5  1  0  0  0  0
  2  8  1  0  0  0  0
  3  1  1  0  0  0  0
  4  1  1  0  0  0  0
  6  9  1  0  0  0  0
  6  2  1  0  0  0  0
  6 10  1  0  0  0  0
  7  2  1  0  0  0  0
  9 12  1  0  0  0  0
 11  6  1  0  0  0  0
 13  9  1  0  0  0  0
 14  9  1  0  0  0  0
M  END
$$$$
