14
butane_opt
C  -3.973218   0.221497  -0.079340
C  -2.702343  -0.574322   0.094423
H  -4.949419  -0.508156   0.333151
H  -4.089375   1.211928  -1.241691
H  -3.882896   0.655357   0.541290
C  -1.411651   0.232133   0.180168
H  -2.753459  -1.235238  -0.685962
H  -2.902604  -1.157179   1.003182
C  -0.113218  -0.735148  -0.060889
H  -1.345149   0.848069   0.993474
H  -1.458550   0.868531  -0.710531
H   0.098681  -1.185812   0.723192
H   0.727779  -0.176461  -0.160117
H  -0.043269  -1.531954  -1.022810
