butane_opt
 OpenBabel08242015393D

 14 12  0  0  0  0  0  0  0  0999 V2000
   -3.9350    0.3083   -0.0317 C   0  0  0  0  0  0  0  0  0  0  0  0
   -2.6696   -0.6856    0.1215 C   0  0  0  0  0  0  0  0  0  0  0  0
   -4.8140   -0.1918    0.1001 H   0  0  0  0  0  0  0  0  0  0  0  0
   -3.9232    1.0585   -0.9663 H   0  0  0  0  0  0  0  0  0  0  0  0
   -3.9086    0.8860    0.7587 H   0  0  0  0  0  0  0  0  0  0  0  0
   -1.3862    0.1492   -0.0110 C   0  0  0  0  0  0  0  0  0  0  0  0
   -2.5857   -1.2126   -0.5331 H   0  0  0  0  0  0  0  0  0  0  0  0
   -2.7373   -1.4133    1.0855 H   0  0  0  0  0  0  0  0  0  0  0  0
   -0.2277   -0.6453   -0.0251 C   0  0  0  0  0  0  0  0  0  0  0  0
   -1.3475    0.8937    0.9383 H   0  0  0  0  0  0  0  0  0  0  0  0
   -1.4454    0.6800   -0.7771 H   0  0  0  0  0  0  0  0  0  0  0  0
   -0.3970   -0.9274    0.7421 H   0  0  0  0  0  0  0  0  0  0  0  0
    0.7533   -0.0269    0.5819 H   0  0  0  0  0  0  0  0  0  0  0  0
   -0.0409   -1.7306   -1.1793 H   0  0  0  0  0  0  0  0  0  0  0  0
  1  3  1  0  0  0  0
  1  2  1  0  0  0  0
  1  5  1  0  0  0  0
  2  8  1  0  0  0  0
  4  1  1  0  0  0  0
  6  2  1  0  0  0  0
  6 10  1  0  0  0  0
  7  2  1  0  0  0  0
  9  6  1  0  0  0  0
  9 13  1  0  0  0  0
  9 12  1  0  0  0  0
 11  6  1  0  0  0  0
M  RAD  2   9   2  14   2
M  END
$$$$
