butane_opt
 OpenBabel08242015393D

 14 12  0  0  0  0  0  0  0  0999 V2000
   -3.9484    0.2383   -0.0442 C   0  0  0  0  0  0  0  0  0  0  0  0
   -2.7402   -0.5986    0.1004 C   0  0  0  0  0  0  0  0  0  0  0  0
   -4.9549   -0.4281    0.2223 H   0  0  0  0  0  0  0  0  0  0  0  0
   -3.8686    1.3027   -1.3190 H   0  0  0  0  0  0  0  0  0  0  0  0
   -3.9549    0.4871    0.5891 H   0  0  0  0  0  0  0  0  0  0  0  0
   -1.4128    0.2584    0.1264 C   0  0  0  0  0  0  0  0  0  0  0  0
   -2.7946   -1.2477   -0.7256 H   0  0  0  0  0  0  0  0  0  0  0  0
   -2.7248   -1.2589    1.0155 H   0  0  0  0  0  0  0  0  0  0  0  0
   -0.1356   -0.7453   -0.0440 C   0  0  0  0  0  0  0  0  0  0  0  0
   -1.1931    1.0291    0.9678 H   0  0  0  0  0  0  0  0  0  0  0  0
   -1.4167    0.7407   -0.6503 H   0  0  0  0  0  0  0  0  0  0  0  0
    0.0130   -1.1237    0.6633 H   0  0  0  0  0  0  0  0  0  0  0  0
    0.6707   -0.2355   -0.0056 H   0  0  0  0  0  0  0  0  0  0  0  0
    0.0670   -1.5853   -1.0543 H   0  0  0  0  0  0  0  0  0  0  0  0
  1  2  1  0  0  0  0
  1  3  1  0  0  0  0
  1  5  1  0  0  0  0
  2  6  1  0  0  0  0
  2  8  1  0  0  0  0
  6 10  1  0  0  0  0
  7  2  1  0  0  0  0
  9 13  1  0  0  0  0
  9  6  1  0  0  0  0
  9 12  1  0  0  0  0
 11  6  1  0  0  0  0
 14  9  1  0  0  0  0
M  RAD  2   1   2   4   2
M  END
$$$$
