butane_opt
 OpenBabel08242015393D

 14 13  0  0  0  0  0  0  0  0999 V2000
   -3.9750    0.2849    0.0549 C   0  0  0  0  0  0  0  0  0  0  0  0
   -2.6938   -0.6766   -0.0463 C   0  0  0  0  0  0  0  0  0  0  0  0
   -4.8840   -0.2014    0.0351 H   0  0  0  0  0  0  0  0  0  0  0  0
   -4.1010    0.9530   -0.8505 H   0  0  0  0  0  0  0  0  0  0  0  0
   -4.0347    1.0551    1.0120 H   0  0  0  0  0  0  0  0  0  0  0  0
   -1.3740    0.1968    0.0157 C   0  0  0  0  0  0  0  0  0  0  0  0
   -2.8135   -1.4081   -0.8754 H   0  0  0  0  0  0  0  0  0  0  0  0
   -2.6946   -1.2229    0.7319 H   0  0  0  0  0  0  0  0  0  0  0  0
   -0.1712   -0.6889    0.0786 C   0  0  0  0  0  0  0  0  0  0  0  0
   -1.3263    0.7737    0.8633 H   0  0  0  0  0  0  0  0  0  0  0  0
   -1.2426    0.8449   -0.8536 H   0  0  0  0  0  0  0  0  0  0  0  0
    0.2116   -1.5608    1.0913 H   0  0  0  0  0  0  0  0  0  0  0  0
    0.7881   -0.0642   -0.3394 H   0  0  0  0  0  0  0  0  0  0  0  0
   -0.3706   -1.0050   -0.5744 H   0  0  0  0  0  0  0  0  0  0  0  0
  1  5  1  0  0  0  0
  2  6  1  0  0  0  0
  2  1  1  0  0  0  0
  2  8  1  0  0  0  0
  3  1  1  0  0  0  0
  4  1  1  0  0  0  0
  6  9  1  0  0  0  0
  6 10  1  0  0  0  0
  7  2  1  0  0  0  0
  9 12  1  0  0  0  0
 11  6  1  0  0  0  0
 13  9  1  0  0  0  0
 14  9  1  0  0  0  0
M  END
$$$$
