butane_opt
 OpenBabel08242015393D

 14 11  0  0  0  0  0  0  0  0999 V2000
   -3.9636    0.2966    0.0818 C   0  0  0  0  0  0  0  0  0  0  0  0
   -2.7051   -0.6696   -0.0828 C   0  0  0  0  0  0  0  0  0  0  0  0
   -4.7481   -0.1907    0.0150 H   0  0  0  0  0  0  0  0  0  0  0  0
   -4.0966    0.7761   -0.7102 H   0  0  0  0  0  0  0  0  0  0  0  0
   -4.0086    1.1202    1.0869 H   0  0  0  0  0  0  0  0  0  0  0  0
   -1.3701    0.1715   -0.0349 C   0  0  0  0  0  0  0  0  0  0  0  0
   -2.8745   -1.4372   -0.9962 H   0  0  0  0  0  0  0  0  0  0  0  0
   -2.5112   -1.2108    0.8232 H   0  0  0  0  0  0  0  0  0  0  0  0
   -0.1871   -0.6793    0.1098 C   0  0  0  0  0  0  0  0  0  0  0  0
   -1.3530    0.9766    0.9209 H   0  0  0  0  0  0  0  0  0  0  0  0
   -1.2880    0.7637   -0.8853 H   0  0  0  0  0  0  0  0  0  0  0  0
   -0.1049   -1.7815    1.2621 H   0  0  0  0  0  0  0  0  0  0  0  0
    0.8762    0.0556   -0.5235 H   0  0  0  0  0  0  0  0  0  0  0  0
   -0.2260   -0.9326   -0.4128 H   0  0  0  0  0  0  0  0  0  0  0  0
  1  5  1  0  0  0  0
  2  6  1  0  0  0  0
  2  1  1  0  0  0  0
  2  8  1  0  0  0  0
  3  1  1  0  0  0  0
  4  1  1  0  0  0  0
  6  9  1  0  0  0  0
  6 10  1  0  0  0  0
  7  2  1  0  0  0  0
 11  6  1  0  0  0  0
 13  9  1  0  0  0  0
M  RAD  3   9   3  12   2  14   2
M  END
$$$$
