14
butane_opt
C  -3.939285   0.237539  -0.094383
C  -2.712651  -0.588593   0.152239
H  -4.841488  -0.295334   0.182521
H  -4.025918   0.912907  -1.063244
H  -3.902800   0.684352   0.655039
C  -1.431009   0.228761   0.094637
H  -2.742760  -1.168718  -0.534996
H  -2.973488  -1.307033   1.108661
C  -0.098156  -0.709263  -0.062428
H  -1.425821   0.947181   0.965084
H  -1.473912   0.747621  -0.721294
H  -0.071185  -1.130058   0.668227
H   0.671337  -0.213827   0.283345
H  -0.068055  -1.681784  -1.217345
