14
butane_opt
C  -3.942608   0.251116   0.040484
C  -2.706235  -0.610030  -0.006248
H  -4.827348  -0.323863   0.177681
H  -4.020350   0.896712  -0.872380
H  -3.883052   0.905183   0.896308
C  -1.409768   0.205338  -0.007598
H  -2.784294  -1.290740  -0.879669
H  -2.693631  -1.209310   0.867431
C  -0.154600  -0.710677   0.060059
H  -1.394495   0.892660   0.879545
H  -1.361705   0.847387  -0.904601
H  -0.114368  -1.367613   0.995848
H   0.766002  -0.138493  -0.008827
H  -0.147179  -1.310043  -0.749044
