14
butane_opt
C  -3.936659   0.290871  -0.067411
C  -2.690324  -0.652583   0.124258
H  -4.808435  -0.260303  -0.260034
H  -3.678229   0.638312  -0.834313
H  -4.094958   1.050001   0.805392
C  -1.408938   0.180276   0.097712
H  -2.528333  -1.065530  -0.547122
H  -2.698935  -1.521165   1.193185
C  -0.194763  -0.663991  -0.049973
H  -1.471463   0.939980   0.899609
H  -1.421121   0.688466  -0.721339
H  -0.013087  -1.257902   0.808988
H   0.718630  -0.143807  -0.159716
H  -0.286471  -1.394261  -0.984534
