butane_opt
 OpenBabel08242015393D

 14 13  0  0  0  0  0  0  0  0999 V2000
   -3.9788    0.2158    0.1173 C   0  0  0  0  0  0  0  0  0  0  0  0
   -2.7104   -0.5748   -0.0931 C   0  0  0  0  0  0  0  0  0  0  0  0
   -4.9645   -0.4236    0.4741 H   0  0  0  0  0  0  0  0  0  0  0  0
   -4.1222    0.9856   -0.8091 H   0  0  0  0  0  0  0  0  0  0  0  0
   -3.7822    0.8374    0.8849 H   0  0  0  0  0  0  0  0  0  0  0  0
   -1.4260    0.2038   -0.0999 C   0  0  0  0  0  0  0  0  0  0  0  0
   -2.7986   -1.2648   -0.9963 H   0  0  0  0  0  0  0  0  0  0  0  0
   -2.5553   -0.9991    0.6345 H   0  0  0  0  0  0  0  0  0  0  0  0
   -0.1067   -0.7130    0.1322 C   0  0  0  0  0  0  0  0  0  0  0  0
   -1.4964    0.9875    0.8074 H   0  0  0  0  0  0  0  0  0  0  0  0
   -1.1615    0.7850   -0.8694 H   0  0  0  0  0  0  0  0  0  0  0  0
   -0.1162   -1.5090    1.1811 H   0  0  0  0  0  0  0  0  0  0  0  0
    0.7159   -0.2173    0.0573 H   0  0  0  0  0  0  0  0  0  0  0  0
   -0.0449   -1.2776   -0.6075 H   0  0  0  0  0  0  0  0  0  0  0  0
  1  3  1  0  0  0  0
  1  5  1  0  0  0  0
  2  1  1  0  0  0  0
  2  8  1  0  0  0  0
  4  1  1  0  0  0  0
  6  2  1  0  0  0  0
  6  9  1  0  0  0  0
  6 10  1  0  0  0  0
  7  2  1  0  0  0  0
  9 12  1  0  0  0  0
 11  6  1  0  0  0  0
 13  9  1  0  0  0  0
 14  9  1  0  0  0  0
M  END
$$$$
