14
butane_opt
C  -3.981033   0.303515  -0.022956
C  -2.682432  -0.666876   0.113308
H  -4.773056  -0.150821   0.039688
H  -4.005083   1.007049  -0.922348
H  -4.012004   0.928432   0.815747
C  -1.372091   0.146914   0.017413
H  -2.767548  -1.390158  -0.720259
H  -2.782588  -1.345578   1.010283
C  -0.188965  -0.638259   0.017171
H  -1.162029   0.734431   0.771981
H  -1.372096   0.859772  -0.978339
H  -0.304448  -0.942446   0.749187
H   0.758801  -0.117918   0.298545
H   0.047005  -1.778746  -1.168856
