butane_opt
 OpenBabel08242015393D

 14 13  0  0  0  0  0  0  0  0999 V2000
   -3.9407    0.2502    0.0149 C   0  0  0  0  0  0  0  0  0  0  0  0
   -2.6938   -0.5967    0.0587 C   0  0  0  0  0  0  0  0  0  0  0  0
   -4.8761   -0.3946   -0.1263 H   0  0  0  0  0  0  0  0  0  0  0  0
   -3.8822    0.8185   -0.8633 H   0  0  0  0  0  0  0  0  0  0  0  0
   -4.0061    1.0207    0.9102 H   0  0  0  0  0  0  0  0  0  0  0  0
   -1.4057    0.1904    0.0102 C   0  0  0  0  0  0  0  0  0  0  0  0
   -2.6792   -1.2748   -0.7587 H   0  0  0  0  0  0  0  0  0  0  0  0
   -2.7409   -1.2576    0.9808 H   0  0  0  0  0  0  0  0  0  0  0  0
   -0.1615   -0.6971    0.0171 C   0  0  0  0  0  0  0  0  0  0  0  0
   -1.3926    0.8907    0.8701 H   0  0  0  0  0  0  0  0  0  0  0  0
   -1.4376    0.8201   -0.8758 H   0  0  0  0  0  0  0  0  0  0  0  0
   -0.1612   -1.3533    0.9360 H   0  0  0  0  0  0  0  0  0  0  0  0
    0.7157   -0.1532    0.0026 H   0  0  0  0  0  0  0  0  0  0  0  0
   -0.1314   -1.3606   -0.8376 H   0  0  0  0  0  0  0  0  0  0  0  0
  1  2  1  0  0  0  0
  1  5  1  0  0  0  0
  2  8  1  0  0  0  0
  3  1  1  0  0  0  0
  4  1  1  0  0  0  0
  6  9  1  0  0  0  0
  6  2  1  0  0  0  0
  6 10  1  0  0  0  0
  7  2  1  0  0  0  0
  9 12  1  0  0  0  0
 11  6  1  0  0  0  0
 13  9  1  0  0  0  0
 14  9  1  0  0  0  0
M  END
$$$$
