butane_opt
 OpenBabel08242015393D

 14 13  0  0  0  0  0  0  0  0999 V2000
   -3.9522    0.2249   -0.0747 C   0  0  0  0  0  0  0  0  0  0  0  0
   -2.7293   -0.5722    0.1191 C   0  0  0  0  0  0  0  0  0  0  0  0
   -4.8812   -0.3525   -0.0010 H   0  0  0  0  0  0  0  0  0  0  0  0
   -3.8741    0.9792   -1.1228 H   0  0  0  0  0  0  0  0  0  0  0  0
   -4.0855    0.8595    0.7484 H   0  0  0  0  0  0  0  0  0  0  0  0
   -1.3995    0.2116    0.1208 C   0  0  0  0  0  0  0  0  0  0  0  0
   -2.7201   -1.1217   -0.5549 H   0  0  0  0  0  0  0  0  0  0  0  0
   -2.9267   -1.2543    1.0682 H   0  0  0  0  0  0  0  0  0  0  0  0
   -0.1108   -0.7248   -0.0595 C   0  0  0  0  0  0  0  0  0  0  0  0
   -1.2273    1.0026    1.0598 H   0  0  0  0  0  0  0  0  0  0  0  0
   -1.5030    0.6834   -0.6687 H   0  0  0  0  0  0  0  0  0  0  0  0
    0.0002   -1.3388    0.7584 H   0  0  0  0  0  0  0  0  0  0  0  0
    0.7620   -0.2412   -0.1361 H   0  0  0  0  0  0  0  0  0  0  0  0
   -0.2388   -1.3677   -0.9721 H   0  0  0  0  0  0  0  0  0  0  0  0
  1  3  1  0  0  0  0
  1  2  1  0  0  0  0
  1  5  1  0  0  0  0
  2  6  1  0  0  0  0
  2  8  1  0  0  0  0
  4  1  1  0  0  0  0
  6 10  1  0  0  0  0
  7  2  1  0  0  0  0
  9  6  1  0  0  0  0
  9 12  1  0  0  0  0
 11  6  1  0  0  0  0
 13  9  1  0  0  0  0
 14  9  1  0  0  0  0
M  END
$$$$
