butane_opt
 OpenBabel08242015393D

 14 13  0  0  0  0  0  0  0  0999 V2000
   -4.0071    0.2709   -0.0651 C   0  0  0  0  0  0  0  0  0  0  0  0
   -2.6861   -0.6526    0.1674 C   0  0  0  0  0  0  0  0  0  0  0  0
   -4.8859   -0.2301   -0.1113 H   0  0  0  0  0  0  0  0  0  0  0  0
   -3.9477    1.1095   -1.1197 H   0  0  0  0  0  0  0  0  0  0  0  0
   -4.0141    0.9474    0.7480 H   0  0  0  0  0  0  0  0  0  0  0  0
   -1.3788    0.1563    0.0764 C   0  0  0  0  0  0  0  0  0  0  0  0
   -2.5134   -1.1878   -0.4947 H   0  0  0  0  0  0  0  0  0  0  0  0
   -2.6575   -1.3700    1.1426 H   0  0  0  0  0  0  0  0  0  0  0  0
   -0.1533   -0.6682   -0.0776 C   0  0  0  0  0  0  0  0  0  0  0  0
   -1.3372    0.8404    0.9367 H   0  0  0  0  0  0  0  0  0  0  0  0
   -1.4143    0.7262   -0.7757 H   0  0  0  0  0  0  0  0  0  0  0  0
   -0.3481   -0.9497    0.5763 H   0  0  0  0  0  0  0  0  0  0  0  0
    0.8067    0.0375    0.3769 H   0  0  0  0  0  0  0  0  0  0  0  0
   -0.0179   -1.6660   -1.1129 H   0  0  0  0  0  0  0  0  0  0  0  0
  1  2  1  0  0  0  0
  1  5  1  0  0  0  0
  2  8  1  0  0  0  0
  3  1  1  0  0  0  0
  4  1  1  0  0  0  0
  6  2  1  0  0  0  0
  6 10  1  0  0  0  0
  7  2  1  0  0  0  0
  9  6  1  0  0  0  0
  9 13  1  0  0  0  0
  9 12  1  0  0  0  0
 11  6  1  0  0  0  0
 14  9  1  0  0  0  0
M  END
$$$$
