butane_opt
 OpenBabel08242015393D

 14 11  0  0  0  0  0  0  0  0999 V2000
   -3.9697    0.3001    0.0192 C   0  0  0  0  0  0  0  0  0  0  0  0
   -2.7005   -0.6434    0.0163 C   0  0  0  0  0  0  0  0  0  0  0  0
   -4.8233   -0.1852    0.4342 H   0  0  0  0  0  0  0  0  0  0  0  0
   -4.2148    1.2874   -1.1690 H   0  0  0  0  0  0  0  0  0  0  0  0
   -4.0383    0.5161    0.5359 H   0  0  0  0  0  0  0  0  0  0  0  0
   -1.4084    0.1173    0.0569 C   0  0  0  0  0  0  0  0  0  0  0  0
   -2.6157   -1.3334   -0.8131 H   0  0  0  0  0  0  0  0  0  0  0  0
   -2.7483   -1.2749    0.9422 H   0  0  0  0  0  0  0  0  0  0  0  0
   -0.1213   -0.6638   -0.0015 C   0  0  0  0  0  0  0  0  0  0  0  0
   -1.3109    0.9713    1.1222 H   0  0  0  0  0  0  0  0  0  0  0  0
   -1.3027    0.6550   -0.8231 H   0  0  0  0  0  0  0  0  0  0  0  0
   -0.1638   -1.1447    0.8312 H   0  0  0  0  0  0  0  0  0  0  0  0
    0.8399    0.0683    0.1802 H   0  0  0  0  0  0  0  0  0  0  0  0
   -0.2594   -1.3339   -0.9262 H   0  0  0  0  0  0  0  0  0  0  0  0
  1  3  1  0  0  0  0
  2  1  1  0  0  0  0
  2  6  1  0  0  0  0
  2  8  1  0  0  0  0
  6 10  1  0  0  0  0
  7  2  1  0  0  0  0
  9  6  1  0  0  0  0
  9 13  1  0  0  0  0
  9 12  1  0  0  0  0
 11  6  1  0  0  0  0
 14  9  1  0  0  0  0
M  RAD  3   1   3   4   2   5   2
M  END
$$$$
