butane_opt
 OpenBabel08242015393D

 14 13  0  0  0  0  0  0  0  0999 V2000
   -3.8921    0.2378    0.0131 C   0  0  0  0  0  0  0  0  0  0  0  0
   -2.7144   -0.5373    0.0417 C   0  0  0  0  0  0  0  0  0  0  0  0
   -4.9713   -0.4661    0.1558 H   0  0  0  0  0  0  0  0  0  0  0  0
   -3.8152    0.9804   -1.0266 H   0  0  0  0  0  0  0  0  0  0  0  0
   -3.8068    0.6774    0.6418 H   0  0  0  0  0  0  0  0  0  0  0  0
   -1.4170    0.2099    0.0570 C   0  0  0  0  0  0  0  0  0  0  0  0
   -2.7092   -1.4298   -0.9699 H   0  0  0  0  0  0  0  0  0  0  0  0
   -2.7990   -1.1275    0.8876 H   0  0  0  0  0  0  0  0  0  0  0  0
   -0.1852   -0.7296    0.0362 C   0  0  0  0  0  0  0  0  0  0  0  0
   -1.4994    0.8766    0.9888 H   0  0  0  0  0  0  0  0  0  0  0  0
   -1.4636    0.7441   -0.7810 H   0  0  0  0  0  0  0  0  0  0  0  0
    0.1033   -1.3985    0.8792 H   0  0  0  0  0  0  0  0  0  0  0  0
    0.6838   -0.1623   -0.3789 H   0  0  0  0  0  0  0  0  0  0  0  0
   -0.2422   -1.3224   -0.7486 H   0  0  0  0  0  0  0  0  0  0  0  0
  1  2  1  0  0  0  0
  1  3  1  0  0  0  0
  1  5  1  0  0  0  0
  2  6  1  0  0  0  0
  2  8  1  0  0  0  0
  4  1  1  0  0  0  0
  6 10  1  0  0  0  0
  7  2  1  0  0  0  0
  9  6  1  0  0  0  0
  9 12  1  0  0  0  0
 11  6  1  0  0  0  0
 13  9  1  0  0  0  0
 14  9  1  0  0  0  0
M  END
$$$$
