butane_opt
 OpenBabel08242015393D

 14 13  0  0  0  0  0  0  0  0999 V2000
   -3.9993    0.2956    0.0898 C   0  0  0  0  0  0  0  0  0  0  0  0
   -2.6694   -0.6727   -0.0506 C   0  0  0  0  0  0  0  0  0  0  0  0
   -4.9520   -0.2605   -0.0125 H   0  0  0  0  0  0  0  0  0  0  0  0
   -4.1841    0.7893   -0.7194 H   0  0  0  0  0  0  0  0  0  0  0  0
   -4.0195    0.9815    0.9532 H   0  0  0  0  0  0  0  0  0  0  0  0
   -1.3773    0.1806   -0.0191 C   0  0  0  0  0  0  0  0  0  0  0  0
   -2.6015   -1.4091   -0.8874 H   0  0  0  0  0  0  0  0  0  0  0  0
   -2.7411   -1.1031    0.7161 H   0  0  0  0  0  0  0  0  0  0  0  0
   -0.1481   -0.6693    0.0921 C   0  0  0  0  0  0  0  0  0  0  0  0
   -1.3637    0.7937    0.8059 H   0  0  0  0  0  0  0  0  0  0  0  0
   -1.2725    0.8384   -1.0146 H   0  0  0  0  0  0  0  0  0  0  0  0
   -0.0890   -1.5665    1.1303 H   0  0  0  0  0  0  0  0  0  0  0  0
    0.7343   -0.1134   -0.2286 H   0  0  0  0  0  0  0  0  0  0  0  0
   -0.2023   -1.0352   -0.6108 H   0  0  0  0  0  0  0  0  0  0  0  0
  1  5  1  0  0  0  0
  2  6  1  0  0  0  0
  2  1  1  0  0  0  0
  2  8  1  0  0  0  0
  3  1  1  0  0  0  0
  4  1  1  0  0  0  0
  6  9  1  0  0  0  0
  6 10  1  0  0  0  0
  7  2  1  0  0  0  0
  9 12  1  0  0  0  0
 11  6  1  0  0  0  0
 13  9  1  0  0  0  0
 14  9  1  0  0  0  0
M  END
$$$$
