14
butane_opt
C  -4.016151   0.300636   0.041453
C  -2.683610  -0.638207   0.045699
H  -4.799257  -0.216264  -0.475614
H  -3.947623   0.529825  -0.640830
H  -4.174182   1.225140   1.068435
C  -1.370428   0.123284  -0.027879
H  -2.688171  -1.331711  -0.819188
H  -2.629984  -1.387047   0.984544
C  -0.159840  -0.650748   0.074839
H  -1.345679   0.738028   0.766923
H  -1.376994   0.970421  -0.988023
H   0.024200  -1.347762   0.991084
H   0.850547   0.004457  -0.163706
H  -0.213282  -1.260807  -0.862341
