butane_opt
 OpenBabel08242015393D

 14 12  0  0  0  0  0  0  0  0999 V2000
   -3.9771    0.3140   -0.1015 C   0  0  0  0  0  0  0  0  0  0  0  0
   -2.6844   -0.6814    0.1524 C   0  0  0  0  0  0  0  0  0  0  0  0
   -4.8721   -0.2443    0.2784 H   0  0  0  0  0  0  0  0  0  0  0  0
   -4.0853    1.0691   -1.1111 H   0  0  0  0  0  0  0  0  0  0  0  0
   -4.0486    0.8319    0.6746 H   0  0  0  0  0  0  0  0  0  0  0  0
   -1.3946    0.1627    0.1048 C   0  0  0  0  0  0  0  0  0  0  0  0
   -2.6087   -1.3612   -0.6440 H   0  0  0  0  0  0  0  0  0  0  0  0
   -2.7121   -1.3964    1.1383 H   0  0  0  0  0  0  0  0  0  0  0  0
   -0.1751   -0.6543   -0.0413 C   0  0  0  0  0  0  0  0  0  0  0  0
   -1.1132    0.8124    0.9235 H   0  0  0  0  0  0  0  0  0  0  0  0
   -1.3141    0.8758   -0.8183 H   0  0  0  0  0  0  0  0  0  0  0  0
   -0.1666   -0.9354    0.5778 H   0  0  0  0  0  0  0  0  0  0  0  0
    0.8285   -0.0680    0.2678 H   0  0  0  0  0  0  0  0  0  0  0  0
   -0.1654   -1.7402   -1.2564 H   0  0  0  0  0  0  0  0  0  0  0  0
  1  2  1  0  0  0  0
  1  3  1  0  0  0  0
  1  5  1  0  0  0  0
  2  8  1  0  0  0  0
  4  1  1  0  0  0  0
  6  2  1  0  0  0  0
  6 10  1  0  0  0  0
  7  2  1  0  0  0  0
  9  6  1  0  0  0  0
  9 13  1  0  0  0  0
  9 12  1  0  0  0  0
 11  6  1  0  0  0  0
M  RAD  2   9   2  14   2
M  END
$$$$
