butane_opt
 OpenBabel08242015393D

 14 13  0  0  0  0  0  0  0  0999 V2000
   -3.9585    0.3073   -0.0148 C   0  0  0  0  0  0  0  0  0  0  0  0
   -2.6704   -0.6799    0.1172 C   0  0  0  0  0  0  0  0  0  0  0  0
   -4.8141   -0.2555   -0.3489 H   0  0  0  0  0  0  0  0  0  0  0  0
   -3.9388    0.9440   -0.8452 H   0  0  0  0  0  0  0  0  0  0  0  0
   -4.2688    0.9770    0.7894 H   0  0  0  0  0  0  0  0  0  0  0  0
   -1.3968    0.1639    0.0576 C   0  0  0  0  0  0  0  0  0  0  0  0
   -2.8084   -1.4316   -0.7460 H   0  0  0  0  0  0  0  0  0  0  0  0
   -2.6962   -1.3579    1.0422 H   0  0  0  0  0  0  0  0  0  0  0  0
   -0.1532   -0.6615   -0.0187 C   0  0  0  0  0  0  0  0  0  0  0  0
   -1.3544    0.7891    0.8188 H   0  0  0  0  0  0  0  0  0  0  0  0
   -1.4330    0.8225   -0.8564 H   0  0  0  0  0  0  0  0  0  0  0  0
   -0.1256   -1.1409    0.8083 H   0  0  0  0  0  0  0  0  0  0  0  0
    0.7415   -0.0311   -0.0122 H   0  0  0  0  0  0  0  0  0  0  0  0
   -0.1895   -1.3398   -0.9300 H   0  0  0  0  0  0  0  0  0  0  0  0
  1  2  1  0  0  0  0
  1  5  1  0  0  0  0
  2  8  1  0  0  0  0
  3  1  1  0  0  0  0
  4  1  1  0  0  0  0
  6  2  1  0  0  0  0
  6 10  1  0  0  0  0
  7  2  1  0  0  0  0
  9 13  1  0  0  0  0
  9  6  1  0  0  0  0
  9 12  1  0  0  0  0
 11  6  1  0  0  0  0
 14  9  1  0  0  0  0
M  END
$$$$
