14
butane_opt
C  -3.932354   0.286816   0.121231
C  -2.708176  -0.624125  -0.057571
H  -4.841658  -0.271660   0.189178
H  -3.919355   0.860622  -0.769907
H  -3.805446   0.936135   1.036042
C  -1.392789   0.168666  -0.134973
H  -2.784830  -1.321235  -0.944357
H  -2.622153  -1.193117   0.748511
C  -0.186837  -0.684999   0.131824
H  -1.545426   0.861833   0.813128
H  -1.350540   0.664737  -0.955808
H  -0.408270  -1.357900   1.125036
H   0.902669   0.012690   0.126671
H  -0.045801  -1.381445  -0.664702
