14
butane_opt
C  -3.944560   0.266911  -0.011281
C  -2.695867  -0.611609   0.058348
H  -4.837470  -0.309453   0.066280
H  -3.961663   0.936472  -0.929756
H  -3.995992   0.893503   0.801597
C  -1.403896   0.168349   0.041885
H  -2.682178  -1.261319  -0.774486
H  -2.726644  -1.334166   0.993588
C  -0.155536  -0.680303   0.008444
H  -1.395454   0.895508   0.930236
H  -1.439611   0.741373  -0.789867
H  -0.106688  -1.262341   0.881677
H   0.755629  -0.101137  -0.046470
H  -0.236081  -1.382558  -0.867296
