butane_opt
 OpenBabel08242015393D

 14 13  0  0  0  0  0  0  0  0999 V2000
   -3.8915    0.2436   -0.1087 C   0  0  0  0  0  0  0  0  0  0  0  0
   -2.7068   -0.5914    0.1423 C   0  0  0  0  0  0  0  0  0  0  0  0
   -4.8559   -0.5237   -0.0730 H   0  0  0  0  0  0  0  0  0  0  0  0
   -3.8278    0.9161   -1.0095 H   0  0  0  0  0  0  0  0  0  0  0  0
   -4.0276    0.8682    0.7242 H   0  0  0  0  0  0  0  0  0  0  0  0
   -1.4559    0.2078    0.1546 C   0  0  0  0  0  0  0  0  0  0  0  0
   -2.6119   -1.1556   -0.6957 H   0  0  0  0  0  0  0  0  0  0  0  0
   -2.6758   -1.2086    1.0264 H   0  0  0  0  0  0  0  0  0  0  0  0
   -0.1544   -0.7200   -0.0905 C   0  0  0  0  0  0  0  0  0  0  0  0
   -1.2928    1.0675    1.1372 H   0  0  0  0  0  0  0  0  0  0  0  0
   -1.6354    0.6331   -0.5366 H   0  0  0  0  0  0  0  0  0  0  0  0
    0.0697   -1.5559    0.8984 H   0  0  0  0  0  0  0  0  0  0  0  0
    0.7641   -0.1163   -0.4036 H   0  0  0  0  0  0  0  0  0  0  0  0
   -0.3952   -1.0866   -0.7692 H   0  0  0  0  0  0  0  0  0  0  0  0
  1  3  1  0  0  0  0
  1  2  1  0  0  0  0
  1  5  1  0  0  0  0
  2  6  1  0  0  0  0
  2  8  1  0  0  0  0
  4  1  1  0  0  0  0
  6 10  1  0  0  0  0
  7  2  1  0  0  0  0
  9  6  1  0  0  0  0
  9 12  1  0  0  0  0
 11  6  1  0  0  0  0
 13  9  1  0  0  0  0
 14  9  1  0  0  0  0
M  END
$$$$
