14
butane_opt
C  -3.953770   0.248318   0.038980
C  -2.705731  -0.608802  -0.036862
H  -4.724912  -0.303467   0.565906
H  -4.203737   1.035235  -0.949450
H  -3.660804   0.709793   0.804360
C  -1.446971   0.214602  -0.021228
H  -2.677147  -1.301105  -0.849386
H  -2.816488  -1.257039   0.840303
C  -0.133738  -0.694998   0.080678
H  -1.372076   0.928265   0.895109
H  -1.359967   0.734332  -0.830000
H  -0.155547  -1.306555   0.982094
H   0.772902  -0.151742   0.134619
H   0.030815  -1.440279  -0.907382
