butane_opt
 OpenBabel08242015393D

 14 13  0  0  0  0  0  0  0  0999 V2000
   -3.9702    0.2520    0.0627 C   0  0  0  0  0  0  0  0  0  0  0  0
   -2.6946   -0.6234   -0.0335 C   0  0  0  0  0  0  0  0  0  0  0  0
   -4.8064   -0.3586   -0.0322 H   0  0  0  0  0  0  0  0  0  0  0  0
   -3.9222    0.6775   -0.7080 H   0  0  0  0  0  0  0  0  0  0  0  0
   -4.1393    1.0638    0.9775 H   0  0  0  0  0  0  0  0  0  0  0  0
   -1.3853    0.2124   -0.0332 C   0  0  0  0  0  0  0  0  0  0  0  0
   -2.8828   -1.2198   -0.8998 H   0  0  0  0  0  0  0  0  0  0  0  0
   -2.7001   -1.1161    0.8093 H   0  0  0  0  0  0  0  0  0  0  0  0
   -0.1364   -0.6998    0.0938 C   0  0  0  0  0  0  0  0  0  0  0  0
   -1.3190    0.9999    0.9359 H   0  0  0  0  0  0  0  0  0  0  0  0
   -1.3722    0.7473   -0.8201 H   0  0  0  0  0  0  0  0  0  0  0  0
    0.0341   -1.7209    1.1916 H   0  0  0  0  0  0  0  0  0  0  0  0
    0.5914   -0.2727   -0.4145 H   0  0  0  0  0  0  0  0  0  0  0  0
   -0.2440   -0.9947   -0.6181 H   0  0  0  0  0  0  0  0  0  0  0  0
  1  5  1  0  0  0  0
  2  6  1  0  0  0  0
  2  1  1  0  0  0  0
  2  8  1  0  0  0  0
  3  1  1  0  0  0  0
  4  1  1  0  0  0  0
  6  9  1  0  0  0  0
  6 10  1  0  0  0  0
  7  2  1  0  0  0  0
  9 12  1  0  0  0  0
 11  6  1  0  0  0  0
 13  9  1  0  0  0  0
 14  9  1  0  0  0  0
M  END
$$$$
