butane_opt
 OpenBabel08242015393D

 14 13  0  0  0  0  0  0  0  0999 V2000
   -3.9002    0.3088   -0.1059 C   0  0  0  0  0  0  0  0  0  0  0  0
   -2.6783   -0.6636    0.1399 C   0  0  0  0  0  0  0  0  0  0  0  0
   -4.7771   -0.2236   -0.0407 H   0  0  0  0  0  0  0  0  0  0  0  0
   -3.9540    0.9886   -1.0818 H   0  0  0  0  0  0  0  0  0  0  0  0
   -3.9768    0.8591    0.7089 H   0  0  0  0  0  0  0  0  0  0  0  0
   -1.4157    0.1449    0.1678 C   0  0  0  0  0  0  0  0  0  0  0  0
   -2.5758   -1.3324   -0.6975 H   0  0  0  0  0  0  0  0  0  0  0  0
   -2.9349   -1.3002    1.0690 H   0  0  0  0  0  0  0  0  0  0  0  0
   -0.2028   -0.6504   -0.0625 C   0  0  0  0  0  0  0  0  0  0  0  0
   -1.3032    0.8996    1.0854 H   0  0  0  0  0  0  0  0  0  0  0  0
   -1.4705    0.7492   -0.6138 H   0  0  0  0  0  0  0  0  0  0  0  0
   -0.0385   -1.4369    0.8514 H   0  0  0  0  0  0  0  0  0  0  0  0
    0.8211    0.0053   -0.4953 H   0  0  0  0  0  0  0  0  0  0  0  0
   -0.4800   -1.3279   -1.0241 H   0  0  0  0  0  0  0  0  0  0  0  0
  1  3  1  0  0  0  0
  1  2  1  0  0  0  0
  1  5  1  0  0  0  0
  2  6  1  0  0  0  0
  2  8  1  0  0  0  0
  4  1  1  0  0  0  0
  6 10  1  0  0  0  0
  7  2  1  0  0  0  0
  9  6  1  0  0  0  0
  9 12  1  0  0  0  0
 11  6  1  0  0  0  0
 13  9  1  0  0  0  0
 14  9  1  0  0  0  0
M  END
$$$$
