14
butane_opt
C  -3.890459   0.251993   0.067394
C  -2.754113  -0.565189  -0.008574
H  -4.812093  -0.407589  -0.046169
H  -3.987703   0.834418  -0.766133
H  -3.914674   0.813544   0.802169
C  -1.426269   0.175369   0.011561
H  -2.729411  -1.329621  -1.015225
H  -2.625215  -1.017003   0.749858
C  -0.150356  -0.710101   0.057492
H  -1.321905   0.770666   0.831787
H  -1.527292   0.868901  -0.918402
H  -0.108340  -1.560204   1.092482
H   0.836813  -0.121780  -0.194422
H  -0.173472  -1.148636  -0.607675
