14
butane_opt
C  -3.968945   0.232455  -0.049755
C  -2.684675  -0.584864   0.109956
H  -4.982849  -0.437925  -0.215419
H  -3.786619   0.624706  -0.842300
H  -4.083904   1.183028   0.944092
C  -1.423022   0.222709   0.055140
H  -2.572896  -1.123096  -0.548780
H  -2.826683  -1.409708   1.169843
C  -0.160444  -0.737450  -0.023476
H  -1.188042   0.882515   0.928614
H  -1.463377   0.958621  -0.916492
H  -0.016730  -1.179953   0.811456
H   0.779433  -0.111153   0.043694
H  -0.024442  -1.481973  -1.006270
