14
butane_opt
C  -3.951436   0.285352  -0.007738
C  -2.720141  -0.659426   0.070884
H  -4.719865  -0.136020  -0.186115
H  -3.966095   0.781502  -0.873354
H  -4.176042   1.032176   0.836233
C  -1.376999   0.163628   0.058533
H  -2.896546  -1.411289  -0.899025
H  -2.637513  -1.206765   0.884702
C  -0.134019  -0.649259   0.020410
H  -1.402735   0.869714   0.974137
H  -1.438697   0.824376  -0.818124
H   0.009222  -1.560796   1.052895
H   0.711496  -0.119916  -0.493419
H  -0.337005  -1.210475  -0.736932
