butane_opt
 OpenBabel08242015393D

 14 13  0  0  0  0  0  0  0  0999 V2000
   -3.9931    0.2753   -0.0475 C   0  0  0  0  0  0  0  0  0  0  0  0
   -2.6783   -0.6435    0.1192 C   0  0  0  0  0  0  0  0  0  0  0  0
   -4.9293   -0.2625   -0.1338 H   0  0  0  0  0  0  0  0  0  0  0  0
   -4.0597    0.9615   -0.9967 H   0  0  0  0  0  0  0  0  0  0  0  0
   -4.1701    1.0097    0.8869 H   0  0  0  0  0  0  0  0  0  0  0  0
   -1.3885    0.1554    0.0439 C   0  0  0  0  0  0  0  0  0  0  0  0
   -2.6258   -1.1086   -0.5511 H   0  0  0  0  0  0  0  0  0  0  0  0
   -2.6877   -1.5120    1.2382 H   0  0  0  0  0  0  0  0  0  0  0  0
   -0.1534   -0.6776   -0.0364 C   0  0  0  0  0  0  0  0  0  0  0  0
   -1.3993    0.9243    0.9373 H   0  0  0  0  0  0  0  0  0  0  0  0
   -1.1932    0.7279   -0.7882 H   0  0  0  0  0  0  0  0  0  0  0  0
   -0.1139   -0.9709    0.6370 H   0  0  0  0  0  0  0  0  0  0  0  0
    0.8202   -0.0063    0.2569 H   0  0  0  0  0  0  0  0  0  0  0  0
   -0.0913   -1.5573   -1.0466 H   0  0  0  0  0  0  0  0  0  0  0  0
  1  2  1  0  0  0  0
  1  5  1  0  0  0  0
  2  8  1  0  0  0  0
  3  1  1  0  0  0  0
  4  1  1  0  0  0  0
  6  2  1  0  0  0  0
  6 10  1  0  0  0  0
  7  2  1  0  0  0  0
  9  6  1  0  0  0  0
  9 13  1  0  0  0  0
  9 12  1  0  0  0  0
 11  6  1  0  0  0  0
 14  9  1  0  0  0  0
M  END
$$$$
