butane_opt
 OpenBabel08242015393D

 14 13  0  0  0  0  0  0  0  0999 V2000
   -3.9364    0.2644    0.0376 C   0  0  0  0  0  0  0  0  0  0  0  0
   -2.6966   -0.6102    0.0012 C   0  0  0  0  0  0  0  0  0  0  0  0
   -4.8468   -0.3509    0.0171 H   0  0  0  0  0  0  0  0  0  0  0  0
   -3.9635    0.7832   -0.7951 H   0  0  0  0  0  0  0  0  0  0  0  0
   -3.9006    1.0144    0.9600 H   0  0  0  0  0  0  0  0  0  0  0  0
   -1.4067    0.1898    0.0011 C   0  0  0  0  0  0  0  0  0  0  0  0
   -2.7209   -1.3074   -0.8374 H   0  0  0  0  0  0  0  0  0  0  0  0
   -2.7328   -1.2053    0.8754 H   0  0  0  0  0  0  0  0  0  0  0  0
   -0.1660   -0.6992    0.0537 C   0  0  0  0  0  0  0  0  0  0  0  0
   -1.4220    0.8528    0.8296 H   0  0  0  0  0  0  0  0  0  0  0  0
   -1.3726    0.8171   -0.8955 H   0  0  0  0  0  0  0  0  0  0  0  0
   -0.1729   -1.4950    1.0456 H   0  0  0  0  0  0  0  0  0  0  0  0
    0.7603   -0.0817   -0.1375 H   0  0  0  0  0  0  0  0  0  0  0  0
   -0.1847   -1.2311   -0.7242 H   0  0  0  0  0  0  0  0  0  0  0  0
  1  5  1  0  0  0  0
  2  1  1  0  0  0  0
  2  8  1  0  0  0  0
  3  1  1  0  0  0  0
  4  1  1  0  0  0  0
  6  2  1  0  0  0  0
  6  9  1  0  0  0  0
  6 10  1  0  0  0  0
  7  2  1  0  0  0  0
  9 12  1  0  0  0  0
 11  6  1  0  0  0  0
 13  9  1  0  0  0  0
 14  9  1  0  0  0  0
M  END
$$$$
