butane_opt
 OpenBabel08242015393D

 14 13  0  0  0  0  0  0  0  0999 V2000
   -3.9689    0.2325   -0.0498 C   0  0  0  0  0  0  0  0  0  0  0  0
   -2.6847   -0.5849    0.1100 C   0  0  0  0  0  0  0  0  0  0  0  0
   -4.9828   -0.4379   -0.2154 H   0  0  0  0  0  0  0  0  0  0  0  0
   -3.7866    0.6247   -0.8423 H   0  0  0  0  0  0  0  0  0  0  0  0
   -4.0839    1.1830    0.9441 H   0  0  0  0  0  0  0  0  0  0  0  0
   -1.4230    0.2227    0.0551 C   0  0  0  0  0  0  0  0  0  0  0  0
   -2.5729   -1.1231   -0.5488 H   0  0  0  0  0  0  0  0  0  0  0  0
   -2.8267   -1.4097    1.1698 H   0  0  0  0  0  0  0  0  0  0  0  0
   -0.1604   -0.7375   -0.0235 C   0  0  0  0  0  0  0  0  0  0  0  0
   -1.1880    0.8825    0.9286 H   0  0  0  0  0  0  0  0  0  0  0  0
   -1.4634    0.9586   -0.9165 H   0  0  0  0  0  0  0  0  0  0  0  0
   -0.0167   -1.1800    0.8115 H   0  0  0  0  0  0  0  0  0  0  0  0
    0.7794   -0.1112    0.0437 H   0  0  0  0  0  0  0  0  0  0  0  0
   -0.0244   -1.4820   -1.0063 H   0  0  0  0  0  0  0  0  0  0  0  0
  1  2  1  0  0  0  0
  1  5  1  0  0  0  0
  2  8  1  0  0  0  0
  3  1  1  0  0  0  0
  4  1  1  0  0  0  0
  6  2  1  0  0  0  0
  6 10  1  0  0  0  0
  7  2  1  0  0  0  0
  9 13  1  0  0  0  0
  9  6  1  0  0  0  0
  9 12  1  0  0  0  0
 11  6  1  0  0  0  0
 14  9  1  0  0  0  0
M  END
$$$$
