butane_opt
 OpenBabel08242015393D

 14 13  0  0  0  0  0  0  0  0999 V2000
   -3.9141    0.2619   -0.0816 C   0  0  0  0  0  0  0  0  0  0  0  0
   -2.6872   -0.6237    0.1575 C   0  0  0  0  0  0  0  0  0  0  0  0
   -4.8101   -0.3187   -0.0626 H   0  0  0  0  0  0  0  0  0  0  0  0
   -3.8399    1.0188   -1.0117 H   0  0  0  0  0  0  0  0  0  0  0  0
   -4.0545    0.8705    0.7592 H   0  0  0  0  0  0  0  0  0  0  0  0
   -1.4112    0.2163    0.0951 C   0  0  0  0  0  0  0  0  0  0  0  0
   -2.6596   -1.1915   -0.6431 H   0  0  0  0  0  0  0  0  0  0  0  0
   -2.7720   -1.3587    1.0997 H   0  0  0  0  0  0  0  0  0  0  0  0
   -0.1897   -0.7139   -0.0628 C   0  0  0  0  0  0  0  0  0  0  0  0
   -1.3889    0.8459    0.9332 H   0  0  0  0  0  0  0  0  0  0  0  0
   -1.2891    0.6716   -0.6904 H   0  0  0  0  0  0  0  0  0  0  0  0
   -0.0989   -1.1184    0.7492 H   0  0  0  0  0  0  0  0  0  0  0  0
    0.7202   -0.0816    0.0941 H   0  0  0  0  0  0  0  0  0  0  0  0
   -0.3851   -1.5008   -1.1108 H   0  0  0  0  0  0  0  0  0  0  0  0
  1  3  1  0  0  0  0
  1  2  1  0  0  0  0
  1  5  1  0  0  0  0
  2  8  1  0  0  0  0
  4  1  1  0  0  0  0
  6  2  1  0  0  0  0
  6 10  1  0  0  0  0
  7  2  1  0  0  0  0
  9 13  1  0  0  0  0
  9  6  1  0  0  0  0
  9 12  1  0  0  0  0
 11  6  1  0  0  0  0
 14  9  1  0  0  0  0
M  END
$$$$
