butane_opt
 OpenBabel08242015393D

 14 13  0  0  0  0  0  0  0  0999 V2000
   -3.9393    0.2375   -0.0944 C   0  0  0  0  0  0  0  0  0  0  0  0
   -2.7127   -0.5886    0.1522 C   0  0  0  0  0  0  0  0  0  0  0  0
   -4.8415   -0.2953    0.1825 H   0  0  0  0  0  0  0  0  0  0  0  0
   -4.0259    0.9129   -1.0632 H   0  0  0  0  0  0  0  0  0  0  0  0
   -3.9028    0.6844    0.6550 H   0  0  0  0  0  0  0  0  0  0  0  0
   -1.4310    0.2288    0.0946 C   0  0  0  0  0  0  0  0  0  0  0  0
   -2.7428   -1.1687   -0.5350 H   0  0  0  0  0  0  0  0  0  0  0  0
   -2.9735   -1.3070    1.1087 H   0  0  0  0  0  0  0  0  0  0  0  0
   -0.0982   -0.7093   -0.0624 C   0  0  0  0  0  0  0  0  0  0  0  0
   -1.4258    0.9472    0.9651 H   0  0  0  0  0  0  0  0  0  0  0  0
   -1.4739    0.7476   -0.7213 H   0  0  0  0  0  0  0  0  0  0  0  0
   -0.0712   -1.1301    0.6682 H   0  0  0  0  0  0  0  0  0  0  0  0
    0.6713   -0.2138    0.2833 H   0  0  0  0  0  0  0  0  0  0  0  0
   -0.0681   -1.6818   -1.2173 H   0  0  0  0  0  0  0  0  0  0  0  0
  1  2  1  0  0  0  0
  1  3  1  0  0  0  0
  1  5  1  0  0  0  0
  2  8  1  0  0  0  0
  4  1  1  0  0  0  0
  6  2  1  0  0  0  0
  6 10  1  0  0  0  0
  7  2  1  0  0  0  0
  9  6  1  0  0  0  0
  9 13  1  0  0  0  0
  9 12  1  0  0  0  0
 11  6  1  0  0  0  0
 14  9  1  0  0  0  0
M  END
$$$$
