14
butane_opt
C  -3.933494   0.246865   0.048586
C  -2.700666  -0.594807   0.015611
H  -4.857590  -0.359847   0.082064
H  -3.915572   0.890215  -0.860431
H  -3.918636   0.941370   0.903155
C  -1.416862   0.188183  -0.025771
H  -2.778944  -1.311491  -0.876350
H  -2.690458  -1.192931   0.908355
C  -0.155693  -0.700868   0.063104
H  -1.425525   0.833249   0.792734
H  -1.455789   0.863164  -0.948293
H  -0.190471  -1.284997   0.933821
H   0.748440  -0.100755   0.122836
H  -0.059108  -1.427420  -0.837971
