butane_opt
 OpenBabel08242015393D

 14 13  0  0  0  0  0  0  0  0999 V2000
   -3.9329    0.2590   -0.0038 C   0  0  0  0  0  0  0  0  0  0  0  0
   -2.6984   -0.5995    0.0696 C   0  0  0  0  0  0  0  0  0  0  0  0
   -4.8934   -0.3836    0.0291 H   0  0  0  0  0  0  0  0  0  0  0  0
   -3.9532    0.9257   -0.9317 H   0  0  0  0  0  0  0  0  0  0  0  0
   -3.9382    0.8624    0.8246 H   0  0  0  0  0  0  0  0  0  0  0  0
   -1.4120    0.1776    0.0320 C   0  0  0  0  0  0  0  0  0  0  0  0
   -2.6625   -1.2623   -0.7362 H   0  0  0  0  0  0  0  0  0  0  0  0
   -2.7720   -1.2484    0.9891 H   0  0  0  0  0  0  0  0  0  0  0  0
   -0.1622   -0.6962    0.0087 C   0  0  0  0  0  0  0  0  0  0  0  0
   -1.4027    0.8554    0.8808 H   0  0  0  0  0  0  0  0  0  0  0  0
   -1.4242    0.8851   -0.9069 H   0  0  0  0  0  0  0  0  0  0  0  0
   -0.1527   -1.1886    0.8149 H   0  0  0  0  0  0  0  0  0  0  0  0
    0.7300   -0.0952    0.1276 H   0  0  0  0  0  0  0  0  0  0  0  0
   -0.0869   -1.5245   -0.9494 H   0  0  0  0  0  0  0  0  0  0  0  0
  1  3  1  0  0  0  0
  1  2  1  0  0  0  0
  1  5  1  0  0  0  0
  2  8  1  0  0  0  0
  4  1  1  0  0  0  0
  6  2  1  0  0  0  0
  6 10  1  0  0  0  0
  7  2  1  0  0  0  0
  9  6  1  0  0  0  0
  9 13  1  0  0  0  0
  9 12  1  0  0  0  0
 11  6  1  0  0  0  0
 14  9  1  0  0  0  0
M  END
$$$$
