14
butane_opt
C  -3.934970   0.308282  -0.031697
C  -2.669573  -0.685609   0.121487
H  -4.814047  -0.191772   0.100125
H  -3.923197   1.058525  -0.966340
H  -3.908583   0.886023   0.758683
C  -1.386237   0.149156  -0.010996
H  -2.585708  -1.212612  -0.533099
H  -2.737331  -1.413307   1.085524
C  -0.227743  -0.645290  -0.025058
H  -1.347507   0.893726   0.938258
H  -1.445364   0.680012  -0.777121
H  -0.396971  -0.927429   0.742096
H   0.753329  -0.026930   0.581904
H  -0.040895  -1.730565  -1.179349
