butane_opt
 OpenBabel08242015393D

 14 13  0  0  0  0  0  0  0  0999 V2000
   -4.0162    0.2842    0.1413 C   0  0  0  0  0  0  0  0  0  0  0  0
   -2.6631   -0.6773   -0.0846 C   0  0  0  0  0  0  0  0  0  0  0  0
   -4.7742   -0.1795    0.2541 H   0  0  0  0  0  0  0  0  0  0  0  0
   -4.2082    0.8993   -0.7070 H   0  0  0  0  0  0  0  0  0  0  0  0
   -3.9201    0.9920    0.9951 H   0  0  0  0  0  0  0  0  0  0  0  0
   -1.3807    0.1534   -0.1361 C   0  0  0  0  0  0  0  0  0  0  0  0
   -2.7486   -1.2921   -0.8789 H   0  0  0  0  0  0  0  0  0  0  0  0
   -2.6623   -1.2088    0.7786 H   0  0  0  0  0  0  0  0  0  0  0  0
   -0.1596   -0.6462    0.1275 C   0  0  0  0  0  0  0  0  0  0  0  0
   -1.3364    0.8636    0.6429 H   0  0  0  0  0  0  0  0  0  0  0  0
   -1.2821    0.8220   -1.0417 H   0  0  0  0  0  0  0  0  0  0  0  0
   -0.3906   -1.2676    0.9951 H   0  0  0  0  0  0  0  0  0  0  0  0
    0.7238   -0.1621    0.5316 H   0  0  0  0  0  0  0  0  0  0  0  0
    0.1971   -1.3102   -0.6906 H   0  0  0  0  0  0  0  0  0  0  0  0
  1  3  1  0  0  0  0
  1  5  1  0  0  0  0
  2  1  1  0  0  0  0
  2  8  1  0  0  0  0
  4  1  1  0  0  0  0
  6  2  1  0  0  0  0
  6  9  1  0  0  0  0
  6 10  1  0  0  0  0
  7  2  1  0  0  0  0
  9 13  1  0  0  0  0
  9 12  1  0  0  0  0
 11  6  1  0  0  0  0
 14  9  1  0  0  0  0
M  END
$$$$
