14
butane_opt
C  -3.940869   0.262710  -0.009086
C  -2.694556  -0.612038   0.052484
H  -4.864519  -0.311325   0.136071
H  -4.025204   1.012853  -0.968795
H  -3.911920   0.809826   0.793721
C  -1.405447   0.176560   0.039261
H  -2.696190  -1.263493  -0.786859
H  -2.653982  -1.307338   0.976899
C  -0.161978  -0.694183   0.011203
H  -1.397203   0.926437   0.959921
H  -1.416044   0.765273  -0.822541
H  -0.182374  -1.219450   0.854701
H   0.768322  -0.081734   0.030405
H  -0.203052  -1.397767  -0.887631
