14
butane_opt
C  -3.983404   0.271744   0.105539
C  -2.713222  -0.654503  -0.061941
H  -4.677035  -0.168553   0.348758
H  -4.142849   1.119695  -0.930082
H  -3.919976   0.785148   0.798138
C  -1.370899   0.162038  -0.056505
H  -2.924478  -1.461700  -1.104723
H  -2.622869  -1.064779   0.705671
C  -0.142696  -0.673985   0.129594
H  -1.369185   0.932949   0.892795
H  -1.394116   0.882966  -0.953939
H  -0.169341  -1.355519   1.030420
H   0.784346  -0.111634  -0.109124
H  -0.085837  -1.272488  -0.660773
