butane_opt
 OpenBabel08242015393D

 14 13  0  0  0  0  0  0  0  0999 V2000
   -3.9390    0.2473   -0.0344 C   0  0  0  0  0  0  0  0  0  0  0  0
   -2.7188   -0.6352    0.1304 C   0  0  0  0  0  0  0  0  0  0  0  0
   -4.7601   -0.3612   -0.2287 H   0  0  0  0  0  0  0  0  0  0  0  0
   -3.7632    0.9197   -0.9818 H   0  0  0  0  0  0  0  0  0  0  0  0
   -4.1989    0.9292    0.7874 H   0  0  0  0  0  0  0  0  0  0  0  0
   -1.4176    0.2126    0.0540 C   0  0  0  0  0  0  0  0  0  0  0  0
   -2.7275   -1.0739   -0.5257 H   0  0  0  0  0  0  0  0  0  0  0  0
   -2.8244   -1.3170    1.0576 H   0  0  0  0  0  0  0  0  0  0  0  0
   -0.1404   -0.6996   -0.0375 C   0  0  0  0  0  0  0  0  0  0  0  0
   -1.4326    1.0859    0.9865 H   0  0  0  0  0  0  0  0  0  0  0  0
   -1.5888    0.7054   -0.7811 H   0  0  0  0  0  0  0  0  0  0  0  0
   -0.0482   -1.2129    0.7787 H   0  0  0  0  0  0  0  0  0  0  0  0
    0.7793   -0.1026   -0.0072 H   0  0  0  0  0  0  0  0  0  0  0  0
    0.1001   -1.5461   -1.0170 H   0  0  0  0  0  0  0  0  0  0  0  0
  1  2  1  0  0  0  0
  1  5  1  0  0  0  0
  2  8  1  0  0  0  0
  3  1  1  0  0  0  0
  4  1  1  0  0  0  0
  6  2  1  0  0  0  0
  6 10  1  0  0  0  0
  7  2  1  0  0  0  0
  9 13  1  0  0  0  0
  9  6  1  0  0  0  0
  9 12  1  0  0  0  0
 11  6  1  0  0  0  0
 14  9  1  0  0  0  0
M  END
$$$$
