butane_opt
 OpenBabel08242015393D

 14 13  0  0  0  0  0  0  0  0999 V2000
   -3.9451    0.3118    0.0463 C   0  0  0  0  0  0  0  0  0  0  0  0
   -2.6955   -0.6657    0.0061 C   0  0  0  0  0  0  0  0  0  0  0  0
   -4.7703   -0.2384   -0.3669 H   0  0  0  0  0  0  0  0  0  0  0  0
   -3.8309    0.5374   -0.5757 H   0  0  0  0  0  0  0  0  0  0  0  0
   -3.9624    1.2966    1.0831 H   0  0  0  0  0  0  0  0  0  0  0  0
   -1.3985    0.1439   -0.0327 C   0  0  0  0  0  0  0  0  0  0  0  0
   -2.6933   -1.2469   -0.8480 H   0  0  0  0  0  0  0  0  0  0  0  0
   -2.4821   -1.4222    1.0185 H   0  0  0  0  0  0  0  0  0  0  0  0
   -0.2148   -0.6620    0.0592 C   0  0  0  0  0  0  0  0  0  0  0  0
   -1.3457    0.8023    0.8405 H   0  0  0  0  0  0  0  0  0  0  0  0
   -1.2687    0.8567   -0.9275 H   0  0  0  0  0  0  0  0  0  0  0  0
   -0.1025   -1.4855    1.1392 H   0  0  0  0  0  0  0  0  0  0  0  0
    0.7342    0.0285   -0.1694 H   0  0  0  0  0  0  0  0  0  0  0  0
   -0.2879   -1.1337   -0.6643 H   0  0  0  0  0  0  0  0  0  0  0  0
  1  5  1  0  0  0  0
  2  1  1  0  0  0  0
  2  8  1  0  0  0  0
  3  1  1  0  0  0  0
  4  1  1  0  0  0  0
  6  2  1  0  0  0  0
  6  9  1  0  0  0  0
  6 10  1  0  0  0  0
  7  2  1  0  0  0  0
  9 12  1  0  0  0  0
 11  6  1  0  0  0  0
 13  9  1  0  0  0  0
 14  9  1  0  0  0  0
M  END
$$$$
