14
butane_opt
C  -3.974444   0.285067   0.054491
C  -2.694583  -0.681803   0.013387
H  -4.813420  -0.179367  -0.054808
H  -4.102790   0.781831  -0.789139
H  -4.116864   1.216609   0.992573
C  -1.365007   0.168947  -0.010795
H  -2.727748  -1.623824  -1.079731
H  -2.688879  -1.103045   0.760516
C  -0.129392  -0.673578   0.064878
H  -1.458623   0.855445   0.841875
H  -1.405907   0.954813  -0.918834
H  -0.195060  -1.559626   1.208087
H   0.751254  -0.118349  -0.363926
H  -0.285647  -0.884380  -0.569038
