14
butane_opt
C  -3.958476   0.307340  -0.014809
C  -2.670436  -0.679893   0.117205
H  -4.814052  -0.255534  -0.348893
H  -3.938828   0.943996  -0.845171
H  -4.268808   0.976959   0.789386
C  -1.396817   0.163925   0.057553
H  -2.808426  -1.431609  -0.745952
H  -2.696206  -1.357877   1.042157
C  -0.153187  -0.661457  -0.018701
H  -1.354381   0.789091   0.818826
H  -1.433004   0.822490  -0.856415
H  -0.125598  -1.140941   0.808330
H   0.741462  -0.031135  -0.012190
H  -0.189532  -1.339779  -0.929977
