butane_opt
 OpenBabel08242015393D

 14 13  0  0  0  0  0  0  0  0999 V2000
   -3.9829    0.2511    0.1055 C   0  0  0  0  0  0  0  0  0  0  0  0
   -2.6733   -0.6129   -0.0285 C   0  0  0  0  0  0  0  0  0  0  0  0
   -4.9056   -0.3672   -0.0970 H   0  0  0  0  0  0  0  0  0  0  0  0
   -3.9329    0.5325   -0.6469 H   0  0  0  0  0  0  0  0  0  0  0  0
   -3.9100    1.2474    1.1685 H   0  0  0  0  0  0  0  0  0  0  0  0
   -1.3883    0.2224   -0.1329 C   0  0  0  0  0  0  0  0  0  0  0  0
   -2.7199   -1.2977   -0.8458 H   0  0  0  0  0  0  0  0  0  0  0  0
   -2.7842   -1.3622    0.8787 H   0  0  0  0  0  0  0  0  0  0  0  0
   -0.1578   -0.7156    0.1341 C   0  0  0  0  0  0  0  0  0  0  0  0
   -1.5356    0.8744    0.7029 H   0  0  0  0  0  0  0  0  0  0  0  0
   -1.3108    0.9576   -1.0779 H   0  0  0  0  0  0  0  0  0  0  0  0
   -0.0866   -1.2823    0.9477 H   0  0  0  0  0  0  0  0  0  0  0  0
    0.6428   -0.1883    0.1803 H   0  0  0  0  0  0  0  0  0  0  0  0
   -0.0464   -1.3333   -0.6650 H   0  0  0  0  0  0  0  0  0  0  0  0
  1  5  1  0  0  0  0
  2  1  1  0  0  0  0
  2  8  1  0  0  0  0
  3  1  1  0  0  0  0
  4  1  1  0  0  0  0
  6  2  1  0  0  0  0
  6  9  1  0  0  0  0
  6 10  1  0  0  0  0
  7  2  1  0  0  0  0
  9 13  1  0  0  0  0
  9 12  1  0  0  0  0
 11  6  1  0  0  0  0
 14  9  1  0  0  0  0
M  END
$$$$
