14
butane_opt
C  -3.968350   0.295464   0.136698
C  -2.727091  -0.688153  -0.055509
H  -4.797300  -0.182204   0.172764
H  -4.061395   0.852339  -0.652376
H  -4.108325   1.107578   1.040420
C  -1.388903   0.171314  -0.152513
H  -2.732051  -1.314984  -0.951003
H  -2.598622  -1.313210   0.827994
C  -0.124489  -0.659528   0.123228
H  -1.465905   0.781532   0.687044
H  -1.228709   0.885138  -1.108036
H  -0.487117  -1.198414   1.034304
H   0.823803  -0.014962   0.512792
H   0.125985  -1.507446  -0.742605
