14
butane_opt
C  -3.942256   0.302601  -0.013938
C  -2.705776  -0.690439   0.136186
H  -4.981762  -0.303149  -0.493013
H  -3.749582   0.742588  -0.851894
H  -4.362735   1.224239   0.969386
C  -1.375454   0.194381   0.015917
H  -2.829558  -1.298381  -0.720782
H  -2.710205  -1.242265   1.035572
C  -0.154536  -0.679726   0.016539
H  -1.231451   0.774786   0.855066
H  -1.435109   0.841021  -0.876113
H  -0.099413  -1.244454   0.795394
H   0.702965  -0.109980  -0.185430
H  -0.177467  -1.405680  -0.939748
