butane_opt
 OpenBabel08242015393D

 14 13  0  0  0  0  0  0  0  0999 V2000
   -3.9257    0.2712    0.0936 C   0  0  0  0  0  0  0  0  0  0  0  0
   -2.6615   -0.6268   -0.0589 C   0  0  0  0  0  0  0  0  0  0  0  0
   -4.7148   -0.2301    0.2440 H   0  0  0  0  0  0  0  0  0  0  0  0
   -4.1860    0.8836   -0.7286 H   0  0  0  0  0  0  0  0  0  0  0  0
   -3.8447    0.9903    0.9358 H   0  0  0  0  0  0  0  0  0  0  0  0
   -1.4210    0.1627   -0.0548 C   0  0  0  0  0  0  0  0  0  0  0  0
   -2.7119   -1.5312   -1.0015 H   0  0  0  0  0  0  0  0  0  0  0  0
   -2.6077   -1.1035    0.7112 H   0  0  0  0  0  0  0  0  0  0  0  0
   -0.1929   -0.6722    0.1213 C   0  0  0  0  0  0  0  0  0  0  0  0
   -1.3764    0.6412    0.6315 H   0  0  0  0  0  0  0  0  0  0  0  0
   -1.3722    0.8403   -1.0091 H   0  0  0  0  0  0  0  0  0  0  0  0
   -0.2599   -1.3651    1.0392 H   0  0  0  0  0  0  0  0  0  0  0  0
    0.7540   -0.0685    0.0895 H   0  0  0  0  0  0  0  0  0  0  0  0
   -0.2857   -1.1199   -0.6521 H   0  0  0  0  0  0  0  0  0  0  0  0
  1  3  1  0  0  0  0
  1  5  1  0  0  0  0
  2  6  1  0  0  0  0
  2  1  1  0  0  0  0
  2  8  1  0  0  0  0
  4  1  1  0  0  0  0
  6  9  1  0  0  0  0
  6 10  1  0  0  0  0
  7  2  1  0  0  0  0
  9 12  1  0  0  0  0
 11  6  1  0  0  0  0
 13  9  1  0  0  0  0
 14  9  1  0  0  0  0
M  END
$$$$
