butane_opt
 OpenBabel08242015393D

 14 12  0  0  0  0  0  0  0  0999 V2000
   -3.9194    0.2460    0.1107 C   0  0  0  0  0  0  0  0  0  0  0  0
   -2.7156   -0.5625   -0.0747 C   0  0  0  0  0  0  0  0  0  0  0  0
   -4.9088   -0.4185   -0.0853 H   0  0  0  0  0  0  0  0  0  0  0  0
   -3.8455    0.7959   -0.7473 H   0  0  0  0  0  0  0  0  0  0  0  0
   -3.8063    0.9226    1.0176 H   0  0  0  0  0  0  0  0  0  0  0  0
   -1.4088    0.1798   -0.0372 C   0  0  0  0  0  0  0  0  0  0  0  0
   -2.7419   -1.2884   -0.9709 H   0  0  0  0  0  0  0  0  0  0  0  0
   -2.7378   -1.1250    0.7916 H   0  0  0  0  0  0  0  0  0  0  0  0
   -0.1710   -0.6945    0.0888 C   0  0  0  0  0  0  0  0  0  0  0  0
   -1.5386    0.9636    0.7725 H   0  0  0  0  0  0  0  0  0  0  0  0
   -1.4055    0.6748   -0.8242 H   0  0  0  0  0  0  0  0  0  0  0  0
   -0.0265   -1.7621    1.3251 H   0  0  0  0  0  0  0  0  0  0  0  0
    0.7373   -0.2137   -0.3470 H   0  0  0  0  0  0  0  0  0  0  0  0
   -0.1782   -1.0438   -0.5091 H   0  0  0  0  0  0  0  0  0  0  0  0
  1  5  1  0  0  0  0
  2  6  1  0  0  0  0
  2  1  1  0  0  0  0
  2  8  1  0  0  0  0
  3  1  1  0  0  0  0
  4  1  1  0  0  0  0
  6  9  1  0  0  0  0
  6 10  1  0  0  0  0
  7  2  1  0  0  0  0
 11  6  1  0  0  0  0
 13  9  1  0  0  0  0
 14  9  1  0  0  0  0
M  RAD  2   9   2  12   2
M  END
$$$$
