14
butane_opt
C  -3.924047   0.241055  -0.032061
C  -2.735941  -0.557086   0.078637
H  -4.989159  -0.448385  -0.338835
H  -3.799686   0.570221  -0.708124
H  -4.116657   1.118176   0.957604
C  -1.411160   0.213551   0.048859
H  -2.925852  -1.103348  -0.658939
H  -2.834631  -1.428526   1.249370
C  -0.101181  -0.735223  -0.014085
H  -1.475560   0.898033   0.889280
H  -1.418340   0.861523  -0.860342
H   0.094496  -1.394369   0.795255
H   0.748249  -0.174928  -0.027118
H  -0.213601  -1.343232  -0.813242
