14
butane_opt
C  -3.969732   0.300053   0.019193
C  -2.700465  -0.643439   0.016321
H  -4.823289  -0.185166   0.434162
H  -4.214812   1.287400  -1.169046
H  -4.038271   0.516136   0.535907
C  -1.408424   0.117284   0.056854
H  -2.615664  -1.333350  -0.813082
H  -2.748296  -1.274919   0.942193
C  -0.121297  -0.663753  -0.001478
H  -1.310891   0.971289   1.122171
H  -1.302656   0.654968  -0.823124
H  -0.163774  -1.144729   0.831224
H   0.839937   0.068314   0.180227
H  -0.259415  -1.333896  -0.926151
