butane_opt
 OpenBabel08242015393D

 14 13  0  0  0  0  0  0  0  0999 V2000
   -3.9222    0.2932   -0.0096 C   0  0  0  0  0  0  0  0  0  0  0  0
   -2.6670   -0.6560    0.0824 C   0  0  0  0  0  0  0  0  0  0  0  0
   -4.8056   -0.2790    0.1365 H   0  0  0  0  0  0  0  0  0  0  0  0
   -4.0419    1.1472   -1.0194 H   0  0  0  0  0  0  0  0  0  0  0  0
   -3.9278    0.7709    0.7520 H   0  0  0  0  0  0  0  0  0  0  0  0
   -1.4018    0.1624    0.0061 C   0  0  0  0  0  0  0  0  0  0  0  0
   -2.7262   -1.2579   -0.6303 H   0  0  0  0  0  0  0  0  0  0  0  0
   -2.6183   -1.2586    0.9541 H   0  0  0  0  0  0  0  0  0  0  0  0
   -0.2431   -0.6854   -0.0070 C   0  0  0  0  0  0  0  0  0  0  0  0
   -1.3056    1.0001    0.9795 H   0  0  0  0  0  0  0  0  0  0  0  0
   -1.2471    0.6114   -0.7917 H   0  0  0  0  0  0  0  0  0  0  0  0
   -0.3032   -1.0758    0.7917 H   0  0  0  0  0  0  0  0  0  0  0  0
    0.8421   -0.0285    0.3063 H   0  0  0  0  0  0  0  0  0  0  0  0
   -0.0970   -1.4552   -0.9586 H   0  0  0  0  0  0  0  0  0  0  0  0
  1  2  1  0  0  0  0
  1  3  1  0  0  0  0
  1  5  1  0  0  0  0
  2  8  1  0  0  0  0
  4  1  1  0  0  0  0
  6  2  1  0  0  0  0
  6 10  1  0  0  0  0
  7  2  1  0  0  0  0
  9  6  1  0  0  0  0
  9 13  1  0  0  0  0
  9 12  1  0  0  0  0
 11  6  1  0  0  0  0
 14  9  1  0  0  0  0
M  END
$$$$
