butane_opt
 OpenBabel08242015393D

 14 12  0  0  0  0  0  0  0  0999 V2000
   -3.9732    0.3050   -0.0262 C   0  0  0  0  0  0  0  0  0  0  0  0
   -2.6959   -0.6730    0.1054 C   0  0  0  0  0  0  0  0  0  0  0  0
   -4.8431   -0.2853    0.3714 H   0  0  0  0  0  0  0  0  0  0  0  0
   -3.9881    1.4070   -1.3834 H   0  0  0  0  0  0  0  0  0  0  0  0
   -4.1410    0.5958    0.5576 H   0  0  0  0  0  0  0  0  0  0  0  0
   -1.3871    0.1558    0.0896 C   0  0  0  0  0  0  0  0  0  0  0  0
   -2.6621   -1.3945   -0.7956 H   0  0  0  0  0  0  0  0  0  0  0  0
   -2.7506   -1.2639    1.0074 H   0  0  0  0  0  0  0  0  0  0  0  0
   -0.1548   -0.6556   -0.0384 C   0  0  0  0  0  0  0  0  0  0  0  0
   -1.1750    0.9250    1.0459 H   0  0  0  0  0  0  0  0  0  0  0  0
   -1.2745    0.7088   -0.7841 H   0  0  0  0  0  0  0  0  0  0  0  0
   -0.1766   -1.0259    0.6674 H   0  0  0  0  0  0  0  0  0  0  0  0
    0.7120   -0.0689    0.2492 H   0  0  0  0  0  0  0  0  0  0  0  0
   -0.1873   -1.6435   -1.1126 H   0  0  0  0  0  0  0  0  0  0  0  0
  1  2  1  0  0  0  0
  1  3  1  0  0  0  0
  1  5  1  0  0  0  0
  2  8  1  0  0  0  0
  6  2  1  0  0  0  0
  6 10  1  0  0  0  0
  7  2  1  0  0  0  0
  9  6  1  0  0  0  0
  9 13  1  0  0  0  0
  9 12  1  0  0  0  0
 11  6  1  0  0  0  0
 14  9  1  0  0  0  0
M  RAD  2   1   2   4   2
M  END
$$$$
