butane_opt
 OpenBabel08242015393D

 14 12  0  0  0  0  0  0  0  0999 V2000
   -4.0027    0.2950    0.0551 C   0  0  0  0  0  0  0  0  0  0  0  0
   -2.6876   -0.6677    0.0619 C   0  0  0  0  0  0  0  0  0  0  0  0
   -4.7785   -0.2168   -0.4937 H   0  0  0  0  0  0  0  0  0  0  0  0
   -3.9109    0.6000   -0.6517 H   0  0  0  0  0  0  0  0  0  0  0  0
   -4.1368    1.3925    1.2047 H   0  0  0  0  0  0  0  0  0  0  0  0
   -1.3599    0.1492   -0.0655 C   0  0  0  0  0  0  0  0  0  0  0  0
   -2.7279   -1.3895   -0.8745 H   0  0  0  0  0  0  0  0  0  0  0  0
   -2.6311   -1.1782    0.8602 H   0  0  0  0  0  0  0  0  0  0  0  0
   -0.1877   -0.6600    0.0712 C   0  0  0  0  0  0  0  0  0  0  0  0
   -1.2446    0.7544    0.7776 H   0  0  0  0  0  0  0  0  0  0  0  0
   -1.2014    0.8860   -1.0568 H   0  0  0  0  0  0  0  0  0  0  0  0
   -0.1800   -1.5062    1.1172 H   0  0  0  0  0  0  0  0  0  0  0  0
    0.7628   -0.0536   -0.0902 H   0  0  0  0  0  0  0  0  0  0  0  0
   -0.1394   -1.1558   -0.7801 H   0  0  0  0  0  0  0  0  0  0  0  0
  1  2  1  0  0  0  0
  2  8  1  0  0  0  0
  3  1  1  0  0  0  0
  4  1  1  0  0  0  0
  6  2  1  0  0  0  0
  6  9  1  0  0  0  0
  6 10  1  0  0  0  0
  7  2  1  0  0  0  0
  9 12  1  0  0  0  0
 11  6  1  0  0  0  0
 13  9  1  0  0  0  0
 14  9  1  0  0  0  0
M  RAD  2   1   2   5   2
M  END
$$$$
