14
butane_opt
C  -3.933860   0.282892  -0.009546
C  -2.729023  -0.594970   0.053225
H  -5.056843  -0.468973   0.392365
H  -3.947593   1.281306  -1.183107
H  -3.869641   0.365628   0.566237
C  -1.389311   0.196167   0.090768
H  -2.649494  -1.356818  -0.874823
H  -2.804133  -1.177216   0.947468
C  -0.144973  -0.709380  -0.024014
H  -1.350377   0.971490   0.975997
H  -1.431028   0.730712  -0.745005
H  -0.054025  -1.236536   0.785454
H   0.740171  -0.198155   0.145778
H  -0.215277  -1.489522  -0.931082
