butane_opt
 OpenBabel08242015393D

 14 13  0  0  0  0  0  0  0  0999 V2000
   -3.9851    0.3132    0.0483 C   0  0  0  0  0  0  0  0  0  0  0  0
   -2.6833   -0.6627   -0.0417 C   0  0  0  0  0  0  0  0  0  0  0  0
   -4.8977   -0.2894    0.3993 H   0  0  0  0  0  0  0  0  0  0  0  0
   -4.2190    0.9420   -0.8446 H   0  0  0  0  0  0  0  0  0  0  0  0
   -3.9516    0.8257    0.8032 H   0  0  0  0  0  0  0  0  0  0  0  0
   -1.3731    0.1549   -0.0237 C   0  0  0  0  0  0  0  0  0  0  0  0
   -2.7057   -1.3231   -0.8975 H   0  0  0  0  0  0  0  0  0  0  0  0
   -2.7669   -1.2808    0.8658 H   0  0  0  0  0  0  0  0  0  0  0  0
   -0.1493   -0.6787    0.0878 C   0  0  0  0  0  0  0  0  0  0  0  0
   -1.4221    0.9335    0.9740 H   0  0  0  0  0  0  0  0  0  0  0  0
   -1.1996    0.7502   -0.8836 H   0  0  0  0  0  0  0  0  0  0  0  0
   -0.0698   -1.2783    1.0149 H   0  0  0  0  0  0  0  0  0  0  0  0
    0.7562   -0.0202   -0.0833 H   0  0  0  0  0  0  0  0  0  0  0  0
   -0.2630   -1.2508   -0.7601 H   0  0  0  0  0  0  0  0  0  0  0  0
  1  3  1  0  0  0  0
  1  5  1  0  0  0  0
  2  6  1  0  0  0  0
  2  1  1  0  0  0  0
  2  8  1  0  0  0  0
  4  1  1  0  0  0  0
  6  9  1  0  0  0  0
  6 10  1  0  0  0  0
  7  2  1  0  0  0  0
  9 12  1  0  0  0  0
 11  6  1  0  0  0  0
 13  9  1  0  0  0  0
 14  9  1  0  0  0  0
M  END
$$$$
