butane_opt
 OpenBabel08242015393D

 14 13  0  0  0  0  0  0  0  0999 V2000
   -3.9744    0.2851    0.0545 C   0  0  0  0  0  0  0  0  0  0  0  0
   -2.6946   -0.6818    0.0134 C   0  0  0  0  0  0  0  0  0  0  0  0
   -4.8134   -0.1794   -0.0548 H   0  0  0  0  0  0  0  0  0  0  0  0
   -4.1028    0.7818   -0.7891 H   0  0  0  0  0  0  0  0  0  0  0  0
   -4.1169    1.2166    0.9926 H   0  0  0  0  0  0  0  0  0  0  0  0
   -1.3650    0.1689   -0.0108 C   0  0  0  0  0  0  0  0  0  0  0  0
   -2.7277   -1.6238   -1.0797 H   0  0  0  0  0  0  0  0  0  0  0  0
   -2.6889   -1.1030    0.7605 H   0  0  0  0  0  0  0  0  0  0  0  0
   -0.1294   -0.6736    0.0649 C   0  0  0  0  0  0  0  0  0  0  0  0
   -1.4586    0.8554    0.8419 H   0  0  0  0  0  0  0  0  0  0  0  0
   -1.4059    0.9548   -0.9188 H   0  0  0  0  0  0  0  0  0  0  0  0
   -0.1951   -1.5596    1.2081 H   0  0  0  0  0  0  0  0  0  0  0  0
    0.7513   -0.1183   -0.3639 H   0  0  0  0  0  0  0  0  0  0  0  0
   -0.2856   -0.8844   -0.5690 H   0  0  0  0  0  0  0  0  0  0  0  0
  1  5  1  0  0  0  0
  2  1  1  0  0  0  0
  2  8  1  0  0  0  0
  3  1  1  0  0  0  0
  4  1  1  0  0  0  0
  6  2  1  0  0  0  0
  6  9  1  0  0  0  0
  6 10  1  0  0  0  0
  7  2  1  0  0  0  0
  9 12  1  0  0  0  0
 11  6  1  0  0  0  0
 13  9  1  0  0  0  0
 14  9  1  0  0  0  0
M  END
$$$$
