butane_opt
 OpenBabel08242015393D

 14 13  0  0  0  0  0  0  0  0999 V2000
   -3.9404    0.2457    0.0841 C   0  0  0  0  0  0  0  0  0  0  0  0
   -2.7322   -0.5796   -0.0172 C   0  0  0  0  0  0  0  0  0  0  0  0
   -4.8736   -0.4561    0.0515 H   0  0  0  0  0  0  0  0  0  0  0  0
   -3.9862    0.5701   -0.5722 H   0  0  0  0  0  0  0  0  0  0  0  0
   -3.9676    1.0830    1.0097 H   0  0  0  0  0  0  0  0  0  0  0  0
   -1.4252    0.2398   -0.1020 C   0  0  0  0  0  0  0  0  0  0  0  0
   -2.7292   -1.1362   -0.8333 H   0  0  0  0  0  0  0  0  0  0  0  0
   -2.8634   -1.2736    0.9242 H   0  0  0  0  0  0  0  0  0  0  0  0
   -0.1055   -0.7395    0.0947 C   0  0  0  0  0  0  0  0  0  0  0  0
   -1.3974    0.7735    0.6892 H   0  0  0  0  0  0  0  0  0  0  0  0
   -1.3781    0.9092   -1.0647 H   0  0  0  0  0  0  0  0  0  0  0  0
   -0.3358   -1.3033    0.9823 H   0  0  0  0  0  0  0  0  0  0  0  0
    0.8934   -0.1182    0.3845 H   0  0  0  0  0  0  0  0  0  0  0  0
    0.0692   -1.5325   -0.8070 H   0  0  0  0  0  0  0  0  0  0  0  0
  1  5  1  0  0  0  0
  2  1  1  0  0  0  0
  2  8  1  0  0  0  0
  3  1  1  0  0  0  0
  4  1  1  0  0  0  0
  6  2  1  0  0  0  0
  6  9  1  0  0  0  0
  6 10  1  0  0  0  0
  7  2  1  0  0  0  0
  9 13  1  0  0  0  0
  9 12  1  0  0  0  0
 11  6  1  0  0  0  0
 14  9  1  0  0  0  0
M  END
$$$$
