butane_opt
 OpenBabel08242015393D

 14 13  0  0  0  0  0  0  0  0999 V2000
   -3.9089    0.2295   -0.0819 C   0  0  0  0  0  0  0  0  0  0  0  0
   -2.7183   -0.5757    0.0590 C   0  0  0  0  0  0  0  0  0  0  0  0
   -4.8117   -0.3388    0.6654 H   0  0  0  0  0  0  0  0  0  0  0  0
   -4.1698    1.1873   -1.1371 H   0  0  0  0  0  0  0  0  0  0  0  0
   -3.7388    0.5488    0.6068 H   0  0  0  0  0  0  0  0  0  0  0  0
   -1.3975    0.2190    0.1046 C   0  0  0  0  0  0  0  0  0  0  0  0
   -2.7407   -1.1800   -0.7483 H   0  0  0  0  0  0  0  0  0  0  0  0
   -2.7882   -1.2424    1.1095 H   0  0  0  0  0  0  0  0  0  0  0  0
   -0.1503   -0.7155   -0.0302 C   0  0  0  0  0  0  0  0  0  0  0  0
   -1.4252    0.9912    1.0053 H   0  0  0  0  0  0  0  0  0  0  0  0
   -1.5137    0.6118   -0.5980 H   0  0  0  0  0  0  0  0  0  0  0  0
   -0.1524   -1.1790    0.8113 H   0  0  0  0  0  0  0  0  0  0  0  0
    0.6257   -0.2250    0.1007 H   0  0  0  0  0  0  0  0  0  0  0  0
   -0.1762   -1.5478   -1.0438 H   0  0  0  0  0  0  0  0  0  0  0  0
  1  2  1  0  0  0  0
  1  5  1  0  0  0  0
  1  3  1  0  0  0  0
  2  6  1  0  0  0  0
  2  8  1  0  0  0  0
  4  1  1  0  0  0  0
  6 10  1  0  0  0  0
  7  2  1  0  0  0  0
  9 13  1  0  0  0  0
  9  6  1  0  0  0  0
  9 12  1  0  0  0  0
 11  6  1  0  0  0  0
 14  9  1  0  0  0  0
M  END
$$$$
