butane_opt
 OpenBabel08242015393D

 14 13  0  0  0  0  0  0  0  0999 V2000
   -3.9784    0.3068   -0.0330 C   0  0  0  0  0  0  0  0  0  0  0  0
   -2.7321   -0.6295    0.1415 C   0  0  0  0  0  0  0  0  0  0  0  0
   -4.8921   -0.3436   -0.4248 H   0  0  0  0  0  0  0  0  0  0  0  0
   -3.7563    0.6232   -0.8056 H   0  0  0  0  0  0  0  0  0  0  0  0
   -4.4043    1.1555    0.9143 H   0  0  0  0  0  0  0  0  0  0  0  0
   -1.3551    0.1269    0.0285 C   0  0  0  0  0  0  0  0  0  0  0  0
   -2.6356   -1.2511   -0.5862 H   0  0  0  0  0  0  0  0  0  0  0  0
   -2.6173   -1.2723    1.0254 H   0  0  0  0  0  0  0  0  0  0  0  0
   -0.1572   -0.6712   -0.0027 C   0  0  0  0  0  0  0  0  0  0  0  0
   -1.1891    0.7871    0.8782 H   0  0  0  0  0  0  0  0  0  0  0  0
   -1.3590    0.8635   -0.9015 H   0  0  0  0  0  0  0  0  0  0  0  0
   -0.0066   -1.1320    0.8316 H   0  0  0  0  0  0  0  0  0  0  0  0
    0.7626   -0.0928   -0.0995 H   0  0  0  0  0  0  0  0  0  0  0  0
   -0.2518   -1.4271   -0.9845 H   0  0  0  0  0  0  0  0  0  0  0  0
  1  2  1  0  0  0  0
  1  5  1  0  0  0  0
  2  8  1  0  0  0  0
  3  1  1  0  0  0  0
  4  1  1  0  0  0  0
  6  2  1  0  0  0  0
  6 10  1  0  0  0  0
  7  2  1  0  0  0  0
  9  6  1  0  0  0  0
  9 12  1  0  0  0  0
 11  6  1  0  0  0  0
 13  9  1  0  0  0  0
 14  9  1  0  0  0  0
M  END
$$$$
