14
butane_opt
C  -3.977585   0.283171  -0.004819
C  -2.670238  -0.640799   0.085622
H  -4.859720  -0.294606   0.074920
H  -3.830381   0.936877  -0.913567
H  -4.046373   0.991565   0.881206
C  -1.403767   0.149433   0.003708
H  -2.528798  -1.279992  -0.814543
H  -2.629815  -1.395258   1.060771
C  -0.181691  -0.678479   0.040631
H  -1.393224   0.782167   0.780714
H  -1.315888   0.882159  -0.961098
H  -0.201013  -0.905763   0.632217
H   0.779586  -0.000119   0.240946
H  -0.197990  -1.551999  -1.053886
