butane_opt
 OpenBabel08242015393D

 14 13  0  0  0  0  0  0  0  0999 V2000
   -3.9434    0.2732    0.0199 C   0  0  0  0  0  0  0  0  0  0  0  0
   -2.6975   -0.6185    0.0296 C   0  0  0  0  0  0  0  0  0  0  0  0
   -4.8550   -0.3387   -0.0098 H   0  0  0  0  0  0  0  0  0  0  0  0
   -3.9635    0.8169   -0.8286 H   0  0  0  0  0  0  0  0  0  0  0  0
   -3.9595    1.0119    0.9354 H   0  0  0  0  0  0  0  0  0  0  0  0
   -1.3961    0.1707    0.0172 C   0  0  0  0  0  0  0  0  0  0  0  0
   -2.6981   -1.3197   -0.8617 H   0  0  0  0  0  0  0  0  0  0  0  0
   -2.6972   -1.2227    0.9079 H   0  0  0  0  0  0  0  0  0  0  0  0
   -0.1656   -0.6895    0.0375 C   0  0  0  0  0  0  0  0  0  0  0  0
   -1.3827    0.8235    0.8529 H   0  0  0  0  0  0  0  0  0  0  0  0
   -1.3811    0.8587   -0.9206 H   0  0  0  0  0  0  0  0  0  0  0  0
   -0.1702   -1.3711    0.9878 H   0  0  0  0  0  0  0  0  0  0  0  0
    0.7346   -0.0862   -0.1160 H   0  0  0  0  0  0  0  0  0  0  0  0
   -0.2140   -1.2768   -0.7461 H   0  0  0  0  0  0  0  0  0  0  0  0
  1  2  1  0  0  0  0
  1  5  1  0  0  0  0
  2  8  1  0  0  0  0
  3  1  1  0  0  0  0
  4  1  1  0  0  0  0
  6  2  1  0  0  0  0
  6  9  1  0  0  0  0
  6 10  1  0  0  0  0
  7  2  1  0  0  0  0
  9 12  1  0  0  0  0
 11  6  1  0  0  0  0
 13  9  1  0  0  0  0
 14  9  1  0  0  0  0
M  END
$$$$
