butane_opt
 OpenBabel08242015393D

 14 13  0  0  0  0  0  0  0  0999 V2000
   -3.9305    0.2450   -0.0296 C   0  0  0  0  0  0  0  0  0  0  0  0
   -2.6893   -0.5840    0.0681 C   0  0  0  0  0  0  0  0  0  0  0  0
   -4.8669   -0.4015    0.4237 H   0  0  0  0  0  0  0  0  0  0  0  0
   -3.9500    1.0301   -1.1200 H   0  0  0  0  0  0  0  0  0  0  0  0
   -3.8037    0.4557    0.5566 H   0  0  0  0  0  0  0  0  0  0  0  0
   -1.4027    0.2531    0.0658 C   0  0  0  0  0  0  0  0  0  0  0  0
   -2.6055   -1.3553   -0.7756 H   0  0  0  0  0  0  0  0  0  0  0  0
   -2.7881   -1.1847    0.8995 H   0  0  0  0  0  0  0  0  0  0  0  0
   -0.1978   -0.7302   -0.0147 C   0  0  0  0  0  0  0  0  0  0  0  0
   -1.3923    1.0953    1.0889 H   0  0  0  0  0  0  0  0  0  0  0  0
   -1.5766    0.6835   -0.6406 H   0  0  0  0  0  0  0  0  0  0  0  0
   -0.0284   -1.3730    0.8435 H   0  0  0  0  0  0  0  0  0  0  0  0
    0.6732   -0.1930   -0.0254 H   0  0  0  0  0  0  0  0  0  0  0  0
   -0.0520   -1.4199   -0.9025 H   0  0  0  0  0  0  0  0  0  0  0  0
  1  2  1  0  0  0  0
  1  3  1  0  0  0  0
  1  5  1  0  0  0  0
  2  8  1  0  0  0  0
  4  1  1  0  0  0  0
  6  2  1  0  0  0  0
  6 10  1  0  0  0  0
  7  2  1  0  0  0  0
  9  6  1  0  0  0  0
  9 12  1  0  0  0  0
 11  6  1  0  0  0  0
 13  9  1  0  0  0  0
 14  9  1  0  0  0  0
M  END
$$$$
