14
butane_opt
C  -3.888068   0.224852   0.078691
C  -2.704479  -0.586064  -0.030228
H  -4.788960  -0.345103  -0.110986
H  -3.924092   0.715076  -0.701622
H  -3.898559   0.880737   0.969245
C  -1.450908   0.224438  -0.017192
H  -2.961446  -1.350317  -1.033411
H  -2.587970  -0.952480   0.696490
C  -0.158525  -0.728406   0.089786
H  -1.535888   0.881763   0.799288
H  -1.494447   0.918629  -0.935074
H   0.076209  -1.689663   1.183613
H   0.681141  -0.127067  -0.355518
H  -0.167263  -1.032608  -0.503447
