butane_opt
 OpenBabel08242015393D

 14 13  0  0  0  0  0  0  0  0999 V2000
   -3.9367    0.2909   -0.0674 C   0  0  0  0  0  0  0  0  0  0  0  0
   -2.6903   -0.6526    0.1243 C   0  0  0  0  0  0  0  0  0  0  0  0
   -4.8084   -0.2603   -0.2600 H   0  0  0  0  0  0  0  0  0  0  0  0
   -3.6782    0.6383   -0.8343 H   0  0  0  0  0  0  0  0  0  0  0  0
   -4.0950    1.0500    0.8054 H   0  0  0  0  0  0  0  0  0  0  0  0
   -1.4089    0.1803    0.0977 C   0  0  0  0  0  0  0  0  0  0  0  0
   -2.5283   -1.0655   -0.5471 H   0  0  0  0  0  0  0  0  0  0  0  0
   -2.6989   -1.5212    1.1932 H   0  0  0  0  0  0  0  0  0  0  0  0
   -0.1948   -0.6640   -0.0500 C   0  0  0  0  0  0  0  0  0  0  0  0
   -1.4715    0.9400    0.8996 H   0  0  0  0  0  0  0  0  0  0  0  0
   -1.4211    0.6885   -0.7213 H   0  0  0  0  0  0  0  0  0  0  0  0
   -0.0131   -1.2579    0.8090 H   0  0  0  0  0  0  0  0  0  0  0  0
    0.7186   -0.1438   -0.1597 H   0  0  0  0  0  0  0  0  0  0  0  0
   -0.2865   -1.3943   -0.9845 H   0  0  0  0  0  0  0  0  0  0  0  0
  1  2  1  0  0  0  0
  1  5  1  0  0  0  0
  2  8  1  0  0  0  0
  3  1  1  0  0  0  0
  4  1  1  0  0  0  0
  6  2  1  0  0  0  0
  6 10  1  0  0  0  0
  7  2  1  0  0  0  0
  9  6  1  0  0  0  0
  9 12  1  0  0  0  0
 11  6  1  0  0  0  0
 13  9  1  0  0  0  0
 14  9  1  0  0  0  0
M  END
$$$$
