butane_opt
 OpenBabel08242015393D

 14 13  0  0  0  0  0  0  0  0999 V2000
   -3.9833    0.2934    0.1042 C   0  0  0  0  0  0  0  0  0  0  0  0
   -2.7016   -0.6670   -0.0608 C   0  0  0  0  0  0  0  0  0  0  0  0
   -4.7794   -0.2080    0.2779 H   0  0  0  0  0  0  0  0  0  0  0  0
   -4.1932    1.1484   -0.8574 H   0  0  0  0  0  0  0  0  0  0  0  0
   -3.9592    0.8259    0.8568 H   0  0  0  0  0  0  0  0  0  0  0  0
   -1.3522    0.1767   -0.0825 C   0  0  0  0  0  0  0  0  0  0  0  0
   -2.8900   -1.4252   -1.0001 H   0  0  0  0  0  0  0  0  0  0  0  0
   -2.6240   -1.3632    0.8740 H   0  0  0  0  0  0  0  0  0  0  0  0
   -0.1412   -0.6801    0.1073 C   0  0  0  0  0  0  0  0  0  0  0  0
   -1.3672    0.9219    0.8171 H   0  0  0  0  0  0  0  0  0  0  0  0
   -1.3874    0.7974   -0.8795 H   0  0  0  0  0  0  0  0  0  0  0  0
   -0.3306   -1.2350    1.0091 H   0  0  0  0  0  0  0  0  0  0  0  0
    0.7659   -0.0283    0.2663 H   0  0  0  0  0  0  0  0  0  0  0  0
   -0.1166   -1.3703   -0.7704 H   0  0  0  0  0  0  0  0  0  0  0  0
  1  3  1  0  0  0  0
  1  5  1  0  0  0  0
  2  1  1  0  0  0  0
  2  8  1  0  0  0  0
  4  1  1  0  0  0  0
  6  2  1  0  0  0  0
  6  9  1  0  0  0  0
  6 10  1  0  0  0  0
  7  2  1  0  0  0  0
  9 13  1  0  0  0  0
  9 12  1  0  0  0  0
 11  6  1  0  0  0  0
 14  9  1  0  0  0  0
M  END
$$$$
