14
butane_opt
C  -3.900299   0.283789   0.078105
C  -2.693551  -0.608899  -0.046785
H  -4.850842  -0.357819   0.090235
H  -4.036673   0.932048  -0.801329
H  -3.999580   0.962555   0.937271
C  -1.425283   0.151471  -0.050944
H  -2.809557  -1.316568  -0.939633
H  -2.607038  -1.192227   0.824704
C  -0.180034  -0.687192   0.100614
H  -1.299838   0.811698   0.901353
H  -1.365638   0.544604  -0.781653
H  -0.243931  -1.459780   1.180651
H   0.805864   0.039153  -0.270322
H  -0.221991  -1.089215  -0.669966
