14
butane_opt
C  -3.930619   0.282840  -0.079074
C  -2.667179  -0.608553   0.107838
H  -4.928138  -0.345554   0.340034
H  -4.109575   1.245179  -1.145086
H  -3.871430   0.600553   0.574889
C  -1.434372   0.112557   0.116427
H  -2.571688  -1.261150  -0.721425
H  -2.660924  -1.356776   1.098281
C  -0.185591  -0.660161  -0.043700
H  -1.380871   1.048430   1.071428
H  -1.259539   0.629922  -0.697111
H  -0.158328  -0.982377   0.693971
H   0.759961  -0.080260  -0.054400
H  -0.219903  -1.496631  -1.021016
