14
butane_opt
C  -3.944413   0.251499  -0.046752
C  -2.711790  -0.607697   0.118997
H  -4.910909  -0.370866   0.249137
H  -3.943641   1.269564  -1.218776
H  -3.930626   0.481944   0.501272
C  -1.380049   0.235747   0.107470
H  -2.750133  -1.428078  -0.822873
H  -2.748684  -1.123572   0.960741
C  -0.175863  -0.722509  -0.051516
H  -1.455832   1.066233   1.067645
H  -1.412813   0.719180  -0.722864
H   0.091048  -1.311189   0.890300
H   0.755730  -0.086512   0.001176
H  -0.185111  -1.571679  -1.061437
