butane_opt
 OpenBabel08242015393D

 14 13  0  0  0  0  0  0  0  0999 V2000
   -3.8800    0.2325    0.0477 C   0  0  0  0  0  0  0  0  0  0  0  0
   -2.7016   -0.5669   -0.0248 C   0  0  0  0  0  0  0  0  0  0  0  0
   -4.7624   -0.3509   -0.0603 H   0  0  0  0  0  0  0  0  0  0  0  0
   -3.8953    0.6620   -0.6906 H   0  0  0  0  0  0  0  0  0  0  0  0
   -3.8898    1.0268    0.9394 H   0  0  0  0  0  0  0  0  0  0  0  0
   -1.4468    0.2134    0.0313 C   0  0  0  0  0  0  0  0  0  0  0  0
   -2.7280   -1.3636   -0.9157 H   0  0  0  0  0  0  0  0  0  0  0  0
   -2.8247   -1.1146    0.7546 H   0  0  0  0  0  0  0  0  0  0  0  0
   -0.2046   -0.7238    0.0578 C   0  0  0  0  0  0  0  0  0  0  0  0
   -1.2944    0.6764    0.7985 H   0  0  0  0  0  0  0  0  0  0  0  0
   -1.4775    1.0202   -0.9268 H   0  0  0  0  0  0  0  0  0  0  0  0
    0.1471   -1.6414    1.1437 H   0  0  0  0  0  0  0  0  0  0  0  0
    0.7586   -0.1420   -0.3122 H   0  0  0  0  0  0  0  0  0  0  0  0
   -0.2749   -1.0893   -0.5650 H   0  0  0  0  0  0  0  0  0  0  0  0
  1  5  1  0  0  0  0
  2  6  1  0  0  0  0
  2  1  1  0  0  0  0
  2  8  1  0  0  0  0
  3  1  1  0  0  0  0
  4  1  1  0  0  0  0
  6  9  1  0  0  0  0
  6 10  1  0  0  0  0
  7  2  1  0  0  0  0
  9 12  1  0  0  0  0
 11  6  1  0  0  0  0
 13  9  1  0  0  0  0
 14  9  1  0  0  0  0
M  END
$$$$
