butane_opt
 OpenBabel08242015393D

 14 12  0  0  0  0  0  0  0  0999 V2000
   -3.9261    0.3083    0.0532 C   0  0  0  0  0  0  0  0  0  0  0  0
   -2.6754   -0.6321    0.0234 C   0  0  0  0  0  0  0  0  0  0  0  0
   -4.8484   -0.2785   -0.3545 H   0  0  0  0  0  0  0  0  0  0  0  0
   -4.0373    0.4374   -0.5177 H   0  0  0  0  0  0  0  0  0  0  0  0
   -4.0462    1.3084    1.1423 H   0  0  0  0  0  0  0  0  0  0  0  0
   -1.3989    0.1269   -0.0760 C   0  0  0  0  0  0  0  0  0  0  0  0
   -2.7318   -1.3213   -0.7618 H   0  0  0  0  0  0  0  0  0  0  0  0
   -2.6147   -1.2243    0.8364 H   0  0  0  0  0  0  0  0  0  0  0  0
   -0.1944   -0.6830    0.0793 C   0  0  0  0  0  0  0  0  0  0  0  0
   -1.2837    0.8077    0.7914 H   0  0  0  0  0  0  0  0  0  0  0  0
   -1.3607    0.7796   -1.0008 H   0  0  0  0  0  0  0  0  0  0  0  0
   -0.3513   -1.5048    1.1042 H   0  0  0  0  0  0  0  0  0  0  0  0
    0.8319    0.0925   -0.0678 H   0  0  0  0  0  0  0  0  0  0  0  0
   -0.2470   -1.0087   -0.6312 H   0  0  0  0  0  0  0  0  0  0  0  0
  1  5  1  0  0  0  0
  2  1  1  0  0  0  0
  2  8  1  0  0  0  0
  3  1  1  0  0  0  0
  6  2  1  0  0  0  0
  6  9  1  0  0  0  0
  6 10  1  0  0  0  0
  7  2  1  0  0  0  0
  9 12  1  0  0  0  0
 11  6  1  0  0  0  0
 13  9  1  0  0  0  0
 14  9  1  0  0  0  0
M  RAD  2   1   2   4   2
M  END
$$$$
