butane_opt
 OpenBabel08242015393D

 14 13  0  0  0  0  0  0  0  0999 V2000
   -3.9794    0.2764    0.0518 C   0  0  0  0  0  0  0  0  0  0  0  0
   -2.6767   -0.6617   -0.0025 C   0  0  0  0  0  0  0  0  0  0  0  0
   -4.7178   -0.1039   -0.0515 H   0  0  0  0  0  0  0  0  0  0  0  0
   -4.1217    0.6890   -0.7812 H   0  0  0  0  0  0  0  0  0  0  0  0
   -3.9980    1.2222    1.0878 H   0  0  0  0  0  0  0  0  0  0  0  0
   -1.3925    0.1696   -0.0088 C   0  0  0  0  0  0  0  0  0  0  0  0
   -2.7246   -1.5640   -1.0341 H   0  0  0  0  0  0  0  0  0  0  0  0
   -2.7935   -1.1254    0.7543 H   0  0  0  0  0  0  0  0  0  0  0  0
   -0.1520   -0.6821    0.0700 C   0  0  0  0  0  0  0  0  0  0  0  0
   -1.4267    0.7476    0.8521 H   0  0  0  0  0  0  0  0  0  0  0  0
   -1.2928    0.9145   -0.9841 H   0  0  0  0  0  0  0  0  0  0  0  0
    0.0276   -1.5806    1.1763 H   0  0  0  0  0  0  0  0  0  0  0  0
    0.7489   -0.0203   -0.3141 H   0  0  0  0  0  0  0  0  0  0  0  0
   -0.3354   -0.8398   -0.5193 H   0  0  0  0  0  0  0  0  0  0  0  0
  1  5  1  0  0  0  0
  2  1  1  0  0  0  0
  2  8  1  0  0  0  0
  3  1  1  0  0  0  0
  4  1  1  0  0  0  0
  6  2  1  0  0  0  0
  6  9  1  0  0  0  0
  6 10  1  0  0  0  0
  7  2  1  0  0  0  0
  9 12  1  0  0  0  0
 11  6  1  0  0  0  0
 13  9  1  0  0  0  0
 14  9  1  0  0  0  0
M  END
$$$$
