14
butane_opt
C  -3.941003   0.290670   0.128481
C  -2.742932  -0.682336  -0.038117
H  -4.694711  -0.197955   0.063459
H  -4.057151   0.751807  -0.615811
H  -3.964050   1.123299   1.060074
C  -1.396115   0.186431  -0.171073
H  -2.717015  -1.262519  -0.825714
H  -2.615283  -1.268822   0.810113
C  -0.131812  -0.686798   0.154850
H  -1.469776   0.898876   0.674741
H  -1.265404   0.785959  -1.146638
H  -0.524153  -1.088382   0.945838
H   0.712788  -0.065823   0.366940
H   0.104176  -1.454361  -0.791339
