14
butane_opt
C  -3.995653   0.283091  -0.068031
C  -2.679995  -0.683937   0.162974
H  -4.730713  -0.076233  -0.187156
H  -3.843678   0.973656  -1.013274
H  -4.291515   0.957952   0.743474
C  -1.354334   0.155496   0.104097
H  -2.676905  -1.296621  -0.647134
H  -2.749659  -1.344061   1.078514
C  -0.165530  -0.657754  -0.083405
H  -1.419145   0.892243   1.080083
H  -1.426878   0.874694  -0.849954
H  -0.080141  -1.138317   0.769576
H   0.753572  -0.075881   0.080740
H  -0.242146  -1.389859  -1.013341
