butane_opt
 OpenBabel08242015393D

 14 13  0  0  0  0  0  0  0  0999 V2000
   -3.9559    0.3144   -0.0885 C   0  0  0  0  0  0  0  0  0  0  0  0
   -2.6645   -0.6547    0.1939 C   0  0  0  0  0  0  0  0  0  0  0  0
   -4.9477   -0.2972   -0.4817 H   0  0  0  0  0  0  0  0  0  0  0  0
   -3.7539    0.7305   -0.9102 H   0  0  0  0  0  0  0  0  0  0  0  0
   -4.0506    1.2435    0.8458 H   0  0  0  0  0  0  0  0  0  0  0  0
   -1.3891    0.1220    0.0859 C   0  0  0  0  0  0  0  0  0  0  0  0
   -2.6120   -1.1950   -0.4966 H   0  0  0  0  0  0  0  0  0  0  0  0
   -2.8015   -1.4016    1.1283 H   0  0  0  0  0  0  0  0  0  0  0  0
   -0.1948   -0.6613   -0.0752 C   0  0  0  0  0  0  0  0  0  0  0  0
   -1.1744    0.8215    1.0078 H   0  0  0  0  0  0  0  0  0  0  0  0
   -1.4959    0.6866   -0.7157 H   0  0  0  0  0  0  0  0  0  0  0  0
   -0.2465   -1.2083    0.7273 H   0  0  0  0  0  0  0  0  0  0  0  0
    0.7659    0.0481   -0.1137 H   0  0  0  0  0  0  0  0  0  0  0  0
   -0.2765   -1.3391   -0.9356 H   0  0  0  0  0  0  0  0  0  0  0  0
  1  2  1  0  0  0  0
  1  5  1  0  0  0  0
  2  8  1  0  0  0  0
  3  1  1  0  0  0  0
  4  1  1  0  0  0  0
  6  2  1  0  0  0  0
  6 10  1  0  0  0  0
  7  2  1  0  0  0  0
  9  6  1  0  0  0  0
  9 12  1  0  0  0  0
 11  6  1  0  0  0  0
 13  9  1  0  0  0  0
 14  9  1  0  0  0  0
M  END
$$$$
