butane_opt
 OpenBabel08242015393D

 14 13  0  0  0  0  0  0  0  0999 V2000
   -3.9598    0.2922    0.0616 C   0  0  0  0  0  0  0  0  0  0  0  0
   -2.6764   -0.6576    0.0123 C   0  0  0  0  0  0  0  0  0  0  0  0
   -4.8499   -0.2660    0.2089 H   0  0  0  0  0  0  0  0  0  0  0  0
   -4.1839    0.9414   -0.8928 H   0  0  0  0  0  0  0  0  0  0  0  0
   -3.7409    0.8009    0.8256 H   0  0  0  0  0  0  0  0  0  0  0  0
   -1.3811    0.1798   -0.0149 C   0  0  0  0  0  0  0  0  0  0  0  0
   -2.5978   -1.3798   -0.8565 H   0  0  0  0  0  0  0  0  0  0  0  0
   -2.6489   -1.1676    0.7772 H   0  0  0  0  0  0  0  0  0  0  0  0
   -0.2013   -0.6772    0.0584 C   0  0  0  0  0  0  0  0  0  0  0  0
   -1.5513    0.6937    0.6738 H   0  0  0  0  0  0  0  0  0  0  0  0
   -1.3187    0.9290   -1.0892 H   0  0  0  0  0  0  0  0  0  0  0  0
   -0.3082   -1.1159    0.8837 H   0  0  0  0  0  0  0  0  0  0  0  0
    0.7444   -0.0039    0.3634 H   0  0  0  0  0  0  0  0  0  0  0  0
    0.0252   -1.5385   -0.8982 H   0  0  0  0  0  0  0  0  0  0  0  0
  1  3  1  0  0  0  0
  1  5  1  0  0  0  0
  2  1  1  0  0  0  0
  2  8  1  0  0  0  0
  4  1  1  0  0  0  0
  6  2  1  0  0  0  0
  6  9  1  0  0  0  0
  6 10  1  0  0  0  0
  7  2  1  0  0  0  0
  9 13  1  0  0  0  0
  9 12  1  0  0  0  0
 11  6  1  0  0  0  0
 14  9  1  0  0  0  0
M  END
$$$$
