butane_opt
 OpenBabel08242015393D

 14 13  0  0  0  0  0  0  0  0999 V2000
   -3.9837    0.2460   -0.0874 C   0  0  0  0  0  0  0  0  0  0  0  0
   -2.6988   -0.5980    0.1217 C   0  0  0  0  0  0  0  0  0  0  0  0
   -4.8466   -0.3921   -0.0613 H   0  0  0  0  0  0  0  0  0  0  0  0
   -3.8822    0.8540   -0.9865 H   0  0  0  0  0  0  0  0  0  0  0  0
   -4.1296    0.8965    0.7147 H   0  0  0  0  0  0  0  0  0  0  0  0
   -1.4039    0.1970    0.1578 C   0  0  0  0  0  0  0  0  0  0  0  0
   -2.6895   -1.1473   -0.6929 H   0  0  0  0  0  0  0  0  0  0  0  0
   -2.9025   -1.3149    1.0239 H   0  0  0  0  0  0  0  0  0  0  0  0
   -0.0931   -0.7147   -0.0684 C   0  0  0  0  0  0  0  0  0  0  0  0
   -1.3004    0.9935    1.1211 H   0  0  0  0  0  0  0  0  0  0  0  0
   -1.5841    0.8953   -0.7747 H   0  0  0  0  0  0  0  0  0  0  0  0
    0.0835   -1.4026    0.8657 H   0  0  0  0  0  0  0  0  0  0  0  0
    0.8101   -0.1585   -0.3209 H   0  0  0  0  0  0  0  0  0  0  0  0
   -0.4134   -1.2688   -0.9001 H   0  0  0  0  0  0  0  0  0  0  0  0
  1  3  1  0  0  0  0
  1  2  1  0  0  0  0
  1  5  1  0  0  0  0
  2  6  1  0  0  0  0
  2  8  1  0  0  0  0
  4  1  1  0  0  0  0
  6 10  1  0  0  0  0
  7  2  1  0  0  0  0
  9  6  1  0  0  0  0
  9 12  1  0  0  0  0
 11  6  1  0  0  0  0
 13  9  1  0  0  0  0
 14  9  1  0  0  0  0
M  END
$$$$
