14
butane_opt
C  -3.879983   0.232507   0.047701
C  -2.701576  -0.566877  -0.024765
H  -4.762376  -0.350873  -0.060258
H  -3.895331   0.661952  -0.690562
H  -3.889819   1.026826   0.939393
C  -1.446836   0.213429   0.031343
H  -2.727988  -1.363648  -0.915669
H  -2.824677  -1.114618   0.754621
C  -0.204628  -0.723785   0.057845
H  -1.294380   0.676429   0.798548
H  -1.477492   1.020199  -0.926839
H   0.147071  -1.641399   1.143728
H   0.758566  -0.141989  -0.312195
H  -0.274941  -1.089283  -0.564997
