14
butane_opt
C  -3.959805   0.292170   0.061639
C  -2.676438  -0.657594   0.012271
H  -4.849894  -0.266003   0.208930
H  -4.183857   0.941352  -0.892758
H  -3.740871   0.800897   0.825573
C  -1.381063   0.179759  -0.014884
H  -2.597786  -1.379847  -0.856457
H  -2.648940  -1.167606   0.777169
C  -0.201271  -0.677171   0.058371
H  -1.551300   0.693658   0.673756
H  -1.318664   0.928954  -1.089156
H  -0.308203  -1.115879   0.883659
H   0.744433  -0.003910   0.363402
H   0.025227  -1.538463  -0.898207
