14
butane_opt
C  -3.943031   0.246968  -0.071125
C  -2.754922  -0.586672   0.078842
H  -5.001343  -0.415736   0.439843
H  -3.991660   1.185090  -1.141539
H  -3.811306   0.542354   0.628733
C  -1.404206   0.238635   0.129360
H  -2.635870  -1.333918  -0.783527
H  -2.775217  -1.170401   0.926661
C  -0.124308  -0.743434  -0.016203
H  -1.252402   0.905142   0.979961
H  -1.535822   0.746610  -0.738690
H   0.139382  -1.157863   0.716211
H   0.740532  -0.177693  -0.150559
H  -0.170897  -1.456544  -0.913596
