14
butane_opt
C  -3.925142   0.294340  -0.031144
C  -2.737395  -0.661382   0.100189
H  -4.828986  -0.296068   0.129701
H  -4.121469   0.988807  -0.948647
H  -3.946057   0.789866   0.769838
C  -1.380455   0.187995   0.022221
H  -2.669963  -1.171810  -0.579386
H  -2.904853  -1.434119   1.150084
C  -0.138357  -0.693777  -0.034382
H  -1.444131   0.982445   0.922808
H  -1.399502   0.897286  -0.886198
H  -0.310993  -0.949511   0.649882
H   0.687940  -0.090623   0.577523
H   0.085568  -1.737735  -1.080173
