14
butane_opt
C  -3.946400   0.265050   0.043156
C  -2.694616  -0.623305   0.012733
H  -4.837228  -0.296060   0.097535
H  -4.022833   0.848462  -0.789133
H  -3.947768   0.957753   0.925986
C  -1.402961   0.190597  -0.035395
H  -2.745409  -1.327459  -0.863475
H  -2.690222  -1.277693   0.893518
C  -0.165050  -0.695150   0.063478
H  -1.384449   0.869669   0.818915
H  -1.424908   0.846713  -0.939795
H  -0.191097  -1.282660   0.958321
H   0.768446  -0.087352   0.139216
H  -0.046791  -1.366110  -0.802108
