butane_opt
 OpenBabel08242015393D

 14 12  0  0  0  0  0  0  0  0999 V2000
   -3.9721    0.2736    0.0296 C   0  0  0  0  0  0  0  0  0  0  0  0
   -2.6658   -0.6805    0.0255 C   0  0  0  0  0  0  0  0  0  0  0  0
   -4.7496   -0.1175   -0.2495 H   0  0  0  0  0  0  0  0  0  0  0  0
   -4.0449    0.6119   -0.6976 H   0  0  0  0  0  0  0  0  0  0  0  0
   -4.0775    1.4622    1.1771 H   0  0  0  0  0  0  0  0  0  0  0  0
   -1.3814    0.1496   -0.0360 C   0  0  0  0  0  0  0  0  0  0  0  0
   -2.6456   -1.2236   -0.7560 H   0  0  0  0  0  0  0  0  0  0  0  0
   -2.8586   -1.2730    0.9538 H   0  0  0  0  0  0  0  0  0  0  0  0
   -0.1689   -0.6517    0.0575 C   0  0  0  0  0  0  0  0  0  0  0  0
   -1.3786    0.8126    0.8139 H   0  0  0  0  0  0  0  0  0  0  0  0
   -1.4530    0.7762   -0.9422 H   0  0  0  0  0  0  0  0  0  0  0  0
   -0.0474   -1.4890    1.0516 H   0  0  0  0  0  0  0  0  0  0  0  0
    0.7639    0.0059   -0.1096 H   0  0  0  0  0  0  0  0  0  0  0  0
   -0.2945   -1.1127   -0.6383 H   0  0  0  0  0  0  0  0  0  0  0  0
  2  1  1  0  0  0  0
  2  8  1  0  0  0  0
  3  1  1  0  0  0  0
  4  1  1  0  0  0  0
  6  2  1  0  0  0  0
  6  9  1  0  0  0  0
  6 10  1  0  0  0  0
  7  2  1  0  0  0  0
  9 12  1  0  0  0  0
 11  6  1  0  0  0  0
 13  9  1  0  0  0  0
 14  9  1  0  0  0  0
M  RAD  2   1   2   5   2
M  END
$$$$
