butane_opt
 OpenBabel08242015393D

 14 12  0  0  0  0  0  0  0  0999 V2000
   -3.8967    0.2212   -0.0831 C   0  0  0  0  0  0  0  0  0  0  0  0
   -2.7069   -0.5915    0.0629 C   0  0  0  0  0  0  0  0  0  0  0  0
   -4.9203   -0.4160    0.5584 H   0  0  0  0  0  0  0  0  0  0  0  0
   -4.0767    1.3003   -1.2294 H   0  0  0  0  0  0  0  0  0  0  0  0
   -3.6310    0.6187    0.6267 H   0  0  0  0  0  0  0  0  0  0  0  0
   -1.4368    0.2319    0.1365 C   0  0  0  0  0  0  0  0  0  0  0  0
   -2.7377   -1.1628   -0.6533 H   0  0  0  0  0  0  0  0  0  0  0  0
   -2.8062   -1.3721    1.0992 H   0  0  0  0  0  0  0  0  0  0  0  0
   -0.1633   -0.7277   -0.0604 C   0  0  0  0  0  0  0  0  0  0  0  0
   -1.4724    1.0125    1.1259 H   0  0  0  0  0  0  0  0  0  0  0  0
   -1.6173    0.8072   -0.6934 H   0  0  0  0  0  0  0  0  0  0  0  0
   -0.0696   -1.1265    0.7448 H   0  0  0  0  0  0  0  0  0  0  0  0
    0.7602   -0.1597    0.1637 H   0  0  0  0  0  0  0  0  0  0  0  0
   -0.0142   -1.5753   -1.0373 H   0  0  0  0  0  0  0  0  0  0  0  0
  1  2  1  0  0  0  0
  1  3  1  0  0  0  0
  1  5  1  0  0  0  0
  2  6  1  0  0  0  0
  2  8  1  0  0  0  0
  6 10  1  0  0  0  0
  7  2  1  0  0  0  0
  9  6  1  0  0  0  0
  9 13  1  0  0  0  0
  9 12  1  0  0  0  0
 11  6  1  0  0  0  0
 14  9  1  0  0  0  0
M  RAD  2   1   2   4   2
M  END
$$$$
