butane_opt
 OpenBabel08242015393D

 14 13  0  0  0  0  0  0  0  0999 V2000
   -3.8944    0.2923    0.1119 C   0  0  0  0  0  0  0  0  0  0  0  0
   -2.6943   -0.6422   -0.1135 C   0  0  0  0  0  0  0  0  0  0  0  0
   -4.7490   -0.1858    0.4946 H   0  0  0  0  0  0  0  0  0  0  0  0
   -4.2575    1.0658   -0.8392 H   0  0  0  0  0  0  0  0  0  0  0  0
   -3.7699    0.7860    0.8283 H   0  0  0  0  0  0  0  0  0  0  0  0
   -1.4176    0.1442   -0.0537 C   0  0  0  0  0  0  0  0  0  0  0  0
   -2.7253   -1.4170   -1.0140 H   0  0  0  0  0  0  0  0  0  0  0  0
   -2.5598   -1.3368    0.7914 H   0  0  0  0  0  0  0  0  0  0  0  0
   -0.2063   -0.6627    0.1419 C   0  0  0  0  0  0  0  0  0  0  0  0
   -1.4239    0.7928    0.7783 H   0  0  0  0  0  0  0  0  0  0  0  0
   -1.3172    0.8531   -0.9883 H   0  0  0  0  0  0  0  0  0  0  0  0
   -0.3364   -1.2472    1.0422 H   0  0  0  0  0  0  0  0  0  0  0  0
    0.8108   -0.0182    0.0939 H   0  0  0  0  0  0  0  0  0  0  0  0
   -0.1611   -1.3201   -0.8086 H   0  0  0  0  0  0  0  0  0  0  0  0
  1  3  1  0  0  0  0
  1  5  1  0  0  0  0
  2  6  1  0  0  0  0
  2  1  1  0  0  0  0
  2  8  1  0  0  0  0
  4  1  1  0  0  0  0
  6  9  1  0  0  0  0
  6 10  1  0  0  0  0
  7  2  1  0  0  0  0
  9 12  1  0  0  0  0
 11  6  1  0  0  0  0
 13  9  1  0  0  0  0
 14  9  1  0  0  0  0
M  END
$$$$
