butane_opt
 OpenBabel08242015393D

 14 12  0  0  0  0  0  0  0  0999 V2000
   -3.9745    0.2407    0.0039 C   0  0  0  0  0  0  0  0  0  0  0  0
   -2.7183   -0.5609    0.0108 C   0  0  0  0  0  0  0  0  0  0  0  0
   -4.9071   -0.4649    0.0084 H   0  0  0  0  0  0  0  0  0  0  0  0
   -3.9104    0.6187   -0.7686 H   0  0  0  0  0  0  0  0  0  0  0  0
   -3.7648    1.0715    1.0118 H   0  0  0  0  0  0  0  0  0  0  0  0
   -1.4056    0.2114    0.0380 C   0  0  0  0  0  0  0  0  0  0  0  0
   -2.7697   -1.2526   -0.8651 H   0  0  0  0  0  0  0  0  0  0  0  0
   -2.8851   -1.1418    0.8787 H   0  0  0  0  0  0  0  0  0  0  0  0
   -0.1285   -0.7205    0.0445 C   0  0  0  0  0  0  0  0  0  0  0  0
   -1.4583    0.9621    0.8123 H   0  0  0  0  0  0  0  0  0  0  0  0
   -1.3264    0.7502   -0.7774 H   0  0  0  0  0  0  0  0  0  0  0  0
    0.0844   -1.7618    1.1940 H   0  0  0  0  0  0  0  0  0  0  0  0
    0.7488   -0.1770   -0.5076 H   0  0  0  0  0  0  0  0  0  0  0  0
   -0.1207   -1.1252   -0.6687 H   0  0  0  0  0  0  0  0  0  0  0  0
  1  3  1  0  0  0  0
  1  2  1  0  0  0  0
  1  5  1  0  0  0  0
  2  6  1  0  0  0  0
  2  8  1  0  0  0  0
  4  1  1  0  0  0  0
  6  9  1  0  0  0  0
  6 10  1  0  0  0  0
  7  2  1  0  0  0  0
 11  6  1  0  0  0  0
 13  9  1  0  0  0  0
 14  9  1  0  0  0  0
M  RAD  2   9   2  12   2
M  END
$$$$
