butane_opt
 OpenBabel08242015393D

 14 13  0  0  0  0  0  0  0  0999 V2000
   -3.9547    0.2858   -0.0905 C   0  0  0  0  0  0  0  0  0  0  0  0
   -2.6861   -0.6270    0.1033 C   0  0  0  0  0  0  0  0  0  0  0  0
   -4.9126   -0.3117   -0.0585 H   0  0  0  0  0  0  0  0  0  0  0  0
   -4.1177    1.0234   -1.0283 H   0  0  0  0  0  0  0  0  0  0  0  0
   -4.0669    0.9835    0.7099 H   0  0  0  0  0  0  0  0  0  0  0  0
   -1.3727    0.1416    0.1516 C   0  0  0  0  0  0  0  0  0  0  0  0
   -2.7279   -1.1609   -0.7278 H   0  0  0  0  0  0  0  0  0  0  0  0
   -2.9090   -1.4280    1.0952 H   0  0  0  0  0  0  0  0  0  0  0  0
   -0.1454   -0.6808   -0.0481 C   0  0  0  0  0  0  0  0  0  0  0  0
   -1.2491    0.9946    1.1879 H   0  0  0  0  0  0  0  0  0  0  0  0
   -1.4680    0.5790   -0.6258 H   0  0  0  0  0  0  0  0  0  0  0  0
    0.1013   -1.4299    0.8739 H   0  0  0  0  0  0  0  0  0  0  0  0
    0.8095    0.0106   -0.5469 H   0  0  0  0  0  0  0  0  0  0  0  0
   -0.5643   -1.1539   -0.8254 H   0  0  0  0  0  0  0  0  0  0  0  0
  1  3  1  0  0  0  0
  1  2  1  0  0  0  0
  1  5  1  0  0  0  0
  2  6  1  0  0  0  0
  2  8  1  0  0  0  0
  4  1  1  0  0  0  0
  6 10  1  0  0  0  0
  7  2  1  0  0  0  0
  9  6  1  0  0  0  0
  9 12  1  0  0  0  0
 11  6  1  0  0  0  0
 13  9  1  0  0  0  0
 14  9  1  0  0  0  0
M  END
$$$$
