butane_opt
 OpenBabel08242015393D

 14 13  0  0  0  0  0  0  0  0999 V2000
   -3.9410    0.2907    0.1285 C   0  0  0  0  0  0  0  0  0  0  0  0
   -2.7429   -0.6823   -0.0381 C   0  0  0  0  0  0  0  0  0  0  0  0
   -4.6947   -0.1980    0.0635 H   0  0  0  0  0  0  0  0  0  0  0  0
   -4.0572    0.7518   -0.6158 H   0  0  0  0  0  0  0  0  0  0  0  0
   -3.9640    1.1233    1.0601 H   0  0  0  0  0  0  0  0  0  0  0  0
   -1.3961    0.1864   -0.1711 C   0  0  0  0  0  0  0  0  0  0  0  0
   -2.7170   -1.2625   -0.8257 H   0  0  0  0  0  0  0  0  0  0  0  0
   -2.6153   -1.2688    0.8101 H   0  0  0  0  0  0  0  0  0  0  0  0
   -0.1318   -0.6868    0.1548 C   0  0  0  0  0  0  0  0  0  0  0  0
   -1.4698    0.8989    0.6747 H   0  0  0  0  0  0  0  0  0  0  0  0
   -1.2654    0.7860   -1.1466 H   0  0  0  0  0  0  0  0  0  0  0  0
   -0.5242   -1.0884    0.9458 H   0  0  0  0  0  0  0  0  0  0  0  0
    0.7128   -0.0658    0.3669 H   0  0  0  0  0  0  0  0  0  0  0  0
    0.1042   -1.4544   -0.7913 H   0  0  0  0  0  0  0  0  0  0  0  0
  1  5  1  0  0  0  0
  2  1  1  0  0  0  0
  2  8  1  0  0  0  0
  3  1  1  0  0  0  0
  4  1  1  0  0  0  0
  6  2  1  0  0  0  0
  6  9  1  0  0  0  0
  6 10  1  0  0  0  0
  7  2  1  0  0  0  0
  9 13  1  0  0  0  0
  9 12  1  0  0  0  0
 11  6  1  0  0  0  0
 14  9  1  0  0  0  0
M  END
$$$$
