14
butane_opt
C  -3.896712   0.221172  -0.083077
C  -2.706911  -0.591454   0.062874
H  -4.920318  -0.416017   0.558406
H  -4.076663   1.300323  -1.229376
H  -3.631019   0.618650   0.626709
C  -1.436768   0.231926   0.136523
H  -2.737744  -1.162842  -0.653263
H  -2.806195  -1.372071   1.099182
C  -0.163285  -0.727739  -0.060351
H  -1.472407   1.012485   1.125877
H  -1.617335   0.807181  -0.693439
H  -0.069648  -1.126523   0.744781
H   0.760218  -0.159722   0.163723
H  -0.014176  -1.575267  -1.037298
