butane_opt
 OpenBabel08242015393D

 14 12  0  0  0  0  0  0  0  0999 V2000
   -3.9822    0.2597   -0.0423 C   0  0  0  0  0  0  0  0  0  0  0  0
   -2.6885   -0.6043    0.0572 C   0  0  0  0  0  0  0  0  0  0  0  0
   -4.8752   -0.3068    0.4051 H   0  0  0  0  0  0  0  0  0  0  0  0
   -4.2598    1.4969   -1.2880 H   0  0  0  0  0  0  0  0  0  0  0  0
   -3.8923    0.4692    0.5523 H   0  0  0  0  0  0  0  0  0  0  0  0
   -1.3980    0.1626    0.1440 C   0  0  0  0  0  0  0  0  0  0  0  0
   -2.7262   -1.3189   -0.7686 H   0  0  0  0  0  0  0  0  0  0  0  0
   -2.7412   -1.3321    0.9335 H   0  0  0  0  0  0  0  0  0  0  0  0
   -0.1187   -0.6779   -0.0273 C   0  0  0  0  0  0  0  0  0  0  0  0
   -1.2772    0.8463    1.0252 H   0  0  0  0  0  0  0  0  0  0  0  0
   -1.3513    0.7977   -0.7590 H   0  0  0  0  0  0  0  0  0  0  0  0
   -0.1070   -1.0737    0.6658 H   0  0  0  0  0  0  0  0  0  0  0  0
    0.8275   -0.0903    0.0326 H   0  0  0  0  0  0  0  0  0  0  0  0
   -0.3522   -1.6148   -1.0255 H   0  0  0  0  0  0  0  0  0  0  0  0
  1  2  1  0  0  0  0
  1  3  1  0  0  0  0
  1  5  1  0  0  0  0
  2  6  1  0  0  0  0
  2  8  1  0  0  0  0
  6 10  1  0  0  0  0
  7  2  1  0  0  0  0
  9 13  1  0  0  0  0
  9  6  1  0  0  0  0
  9 12  1  0  0  0  0
 11  6  1  0  0  0  0
 14  9  1  0  0  0  0
M  RAD  2   1   2   4   2
M  END
$$$$
