14
butane_opt
C  -3.933824   0.273255  -0.000496
C  -2.679608  -0.643510   0.032251
H  -4.780023  -0.231832   0.077947
H  -3.947745   0.962998  -0.924457
H  -3.817251   0.979568   0.803606
C  -1.403482   0.137737   0.088241
H  -2.458061  -1.303894  -0.827914
H  -2.781484  -1.204216   0.807842
C  -0.215916  -0.648262   0.001065
H  -1.388753   0.788968   0.914346
H  -1.438094   0.863646  -0.859769
H   0.031084  -1.494865   1.018773
H   0.664464  -0.074118  -0.212079
H  -0.349139  -1.176523  -0.768164
