butane_opt
 OpenBabel08242015393D

 14 13  0  0  0  0  0  0  0  0999 V2000
   -3.9587    0.2711    0.0458 C   0  0  0  0  0  0  0  0  0  0  0  0
   -2.7039   -0.6303    0.0161 C   0  0  0  0  0  0  0  0  0  0  0  0
   -4.8431   -0.2850    0.1006 H   0  0  0  0  0  0  0  0  0  0  0  0
   -4.0130    0.9092   -0.8547 H   0  0  0  0  0  0  0  0  0  0  0  0
   -3.9654    0.9012    0.8848 H   0  0  0  0  0  0  0  0  0  0  0  0
   -1.3994    0.1823   -0.0186 C   0  0  0  0  0  0  0  0  0  0  0  0
   -2.7473   -1.2915   -0.8459 H   0  0  0  0  0  0  0  0  0  0  0  0
   -2.6923   -1.2035    0.8783 H   0  0  0  0  0  0  0  0  0  0  0  0
   -0.1526   -0.6995    0.0544 C   0  0  0  0  0  0  0  0  0  0  0  0
   -1.4175    0.8181    0.8033 H   0  0  0  0  0  0  0  0  0  0  0  0
   -1.3129    0.8680   -0.9433 H   0  0  0  0  0  0  0  0  0  0  0  0
   -0.1795   -1.2350    0.9015 H   0  0  0  0  0  0  0  0  0  0  0  0
    0.8149   -0.0610    0.1689 H   0  0  0  0  0  0  0  0  0  0  0  0
   -0.0978   -1.3755   -0.8335 H   0  0  0  0  0  0  0  0  0  0  0  0
  1  3  1  0  0  0  0
  1  5  1  0  0  0  0
  2  1  1  0  0  0  0
  2  8  1  0  0  0  0
  4  1  1  0  0  0  0
  6  2  1  0  0  0  0
  6  9  1  0  0  0  0
  6 10  1  0  0  0  0
  7  2  1  0  0  0  0
  9 13  1  0  0  0  0
  9 12  1  0  0  0  0
 11  6  1  0  0  0  0
 14  9  1  0  0  0  0
M  END
$$$$
