butane_opt
 OpenBabel08242015393D

 14 13  0  0  0  0  0  0  0  0999 V2000
   -3.9673    0.2616    0.0740 C   0  0  0  0  0  0  0  0  0  0  0  0
   -2.7296   -0.6311    0.0408 C   0  0  0  0  0  0  0  0  0  0  0  0
   -4.8818   -0.3531   -0.4312 H   0  0  0  0  0  0  0  0  0  0  0  0
   -3.7708    0.4238   -0.5202 H   0  0  0  0  0  0  0  0  0  0  0  0
   -4.1273    1.2979    1.1668 H   0  0  0  0  0  0  0  0  0  0  0  0
   -1.4015    0.2180   -0.0870 C   0  0  0  0  0  0  0  0  0  0  0  0
   -2.6913   -1.3840   -0.9179 H   0  0  0  0  0  0  0  0  0  0  0  0
   -2.5716   -1.1411    0.7677 H   0  0  0  0  0  0  0  0  0  0  0  0
   -0.1232   -0.6902    0.0887 C   0  0  0  0  0  0  0  0  0  0  0  0
   -1.3166    0.7676    0.7301 H   0  0  0  0  0  0  0  0  0  0  0  0
   -1.4659    1.0035   -1.1235 H   0  0  0  0  0  0  0  0  0  0  0  0
   -0.1695   -1.4803    1.1590 H   0  0  0  0  0  0  0  0  0  0  0  0
    0.6948   -0.3092   -0.0925 H   0  0  0  0  0  0  0  0  0  0  0  0
   -0.0552   -1.2213   -0.6307 H   0  0  0  0  0  0  0  0  0  0  0  0
  1  5  1  0  0  0  0
  2  1  1  0  0  0  0
  2  8  1  0  0  0  0
  3  1  1  0  0  0  0
  4  1  1  0  0  0  0
  6  2  1  0  0  0  0
  6  9  1  0  0  0  0
  6 10  1  0  0  0  0
  7  2  1  0  0  0  0
  9 12  1  0  0  0  0
 11  6  1  0  0  0  0
 13  9  1  0  0  0  0
 14  9  1  0  0  0  0
M  END
$$$$
