14
butane_opt
C  -3.951812   0.280247   0.101946
C  -2.698515  -0.618399  -0.046601
H  -4.885545  -0.297619   0.069253
H  -4.112640   0.746296  -0.681898
H  -3.994625   0.977076   1.063629
C  -1.399799   0.145239  -0.115491
H  -2.798214  -1.176164  -0.785380
H  -2.659178  -1.306147   0.918232
C  -0.130586  -0.671023   0.110642
H  -1.655546   0.777455   0.664408
H  -1.294508   0.831452  -0.963557
H  -0.269663  -1.209331   0.965739
H   0.785770   0.009510   0.411875
H   0.019441  -1.468464  -0.844928
