14
butane_opt
C  -3.933383   0.273205   0.040884
C  -2.694040  -0.625262   0.018493
H  -4.816742  -0.312340  -0.087271
H  -3.985243   0.772988  -0.764537
H  -3.979988   1.056973   0.991874
C  -1.400957   0.182575  -0.018880
H  -2.690632  -1.321991  -0.838857
H  -2.694242  -1.283365   0.959373
C  -0.180238  -0.693550   0.050729
H  -1.422624   0.820012   0.800133
H  -1.354749   0.846890  -0.944666
H  -0.199360  -1.346217   0.971526
H   0.766407  -0.042837   0.018960
H  -0.142851  -1.299159  -0.750929
