butane_opt
 OpenBabel08242015393D

 14 13  0  0  0  0  0  0  0  0999 V2000
   -3.9009    0.2463    0.1298 C   0  0  0  0  0  0  0  0  0  0  0  0
   -2.7199   -0.5664   -0.0702 C   0  0  0  0  0  0  0  0  0  0  0  0
   -4.9528   -0.5574    0.0300 H   0  0  0  0  0  0  0  0  0  0  0  0
   -3.9258    0.6020   -0.6237 H   0  0  0  0  0  0  0  0  0  0  0  0
   -3.8141    1.0510    1.0725 H   0  0  0  0  0  0  0  0  0  0  0  0
   -1.4394    0.2194   -0.1353 C   0  0  0  0  0  0  0  0  0  0  0  0
   -2.6931   -1.1262   -0.8849 H   0  0  0  0  0  0  0  0  0  0  0  0
   -2.4990   -1.2884    0.8624 H   0  0  0  0  0  0  0  0  0  0  0  0
   -0.1657   -0.7151    0.1442 C   0  0  0  0  0  0  0  0  0  0  0  0
   -1.5466    0.7328    0.6284 H   0  0  0  0  0  0  0  0  0  0  0  0
   -1.3112    0.8909   -1.0383 H   0  0  0  0  0  0  0  0  0  0  0  0
   -0.2164   -1.3799    1.0036 H   0  0  0  0  0  0  0  0  0  0  0  0
    0.7131   -0.1218    0.3575 H   0  0  0  0  0  0  0  0  0  0  0  0
   -0.0431   -1.5132   -0.7714 H   0  0  0  0  0  0  0  0  0  0  0  0
  1  5  1  0  0  0  0
  2  1  1  0  0  0  0
  2  8  1  0  0  0  0
  3  1  1  0  0  0  0
  4  1  1  0  0  0  0
  6  2  1  0  0  0  0
  6  9  1  0  0  0  0
  6 10  1  0  0  0  0
  7  2  1  0  0  0  0
  9 13  1  0  0  0  0
  9 12  1  0  0  0  0
 11  6  1  0  0  0  0
 14  9  1  0  0  0  0
M  END
$$$$
