butane_opt
 OpenBabel08242015393D

 14 13  0  0  0  0  0  0  0  0999 V2000
   -3.9703    0.2849    0.0423 C   0  0  0  0  0  0  0  0  0  0  0  0
   -2.7074   -0.6510    0.0127 C   0  0  0  0  0  0  0  0  0  0  0  0
   -4.8203   -0.2059    0.1857 H   0  0  0  0  0  0  0  0  0  0  0  0
   -4.2170    0.8188   -0.7845 H   0  0  0  0  0  0  0  0  0  0  0  0
   -3.9446    0.9844    1.0062 H   0  0  0  0  0  0  0  0  0  0  0  0
   -1.3731    0.1813   -0.0749 C   0  0  0  0  0  0  0  0  0  0  0  0
   -2.6400   -1.1928   -0.7229 H   0  0  0  0  0  0  0  0  0  0  0  0
   -2.7009   -1.3169    0.9242 H   0  0  0  0  0  0  0  0  0  0  0  0
   -0.1659   -0.6659    0.0822 C   0  0  0  0  0  0  0  0  0  0  0  0
   -1.2310    0.7870    0.6710 H   0  0  0  0  0  0  0  0  0  0  0  0
   -1.2465    0.7956   -0.9887 H   0  0  0  0  0  0  0  0  0  0  0  0
   -0.2961   -1.1169    0.8775 H   0  0  0  0  0  0  0  0  0  0  0  0
    0.7496   -0.1254    0.4743 H   0  0  0  0  0  0  0  0  0  0  0  0
   -0.0686   -1.6985   -0.9514 H   0  0  0  0  0  0  0  0  0  0  0  0
  1  3  1  0  0  0  0
  1  5  1  0  0  0  0
  2  1  1  0  0  0  0
  2  8  1  0  0  0  0
  4  1  1  0  0  0  0
  6  2  1  0  0  0  0
  6  9  1  0  0  0  0
  6 10  1  0  0  0  0
  7  2  1  0  0  0  0
  9 13  1  0  0  0  0
  9 12  1  0  0  0  0
 11  6  1  0  0  0  0
 14  9  1  0  0  0  0
M  END
$$$$
