butane_opt
 OpenBabel08242015393D

 14 13  0  0  0  0  0  0  0  0999 V2000
   -3.9549    0.2711    0.0014 C   0  0  0  0  0  0  0  0  0  0  0  0
   -2.7012   -0.6226    0.0393 C   0  0  0  0  0  0  0  0  0  0  0  0
   -4.8551   -0.2950    0.1300 H   0  0  0  0  0  0  0  0  0  0  0  0
   -4.0658    0.9716   -0.9151 H   0  0  0  0  0  0  0  0  0  0  0  0
   -3.9613    0.8665    0.8239 H   0  0  0  0  0  0  0  0  0  0  0  0
   -1.4054    0.1727    0.0398 C   0  0  0  0  0  0  0  0  0  0  0  0
   -2.7180   -1.3187   -0.8228 H   0  0  0  0  0  0  0  0  0  0  0  0
   -2.7061   -1.2461    0.9343 H   0  0  0  0  0  0  0  0  0  0  0  0
   -0.1450   -0.6852    0.0194 C   0  0  0  0  0  0  0  0  0  0  0  0
   -1.3416    0.8405    0.8547 H   0  0  0  0  0  0  0  0  0  0  0  0
   -1.3811    0.7866   -0.8373 H   0  0  0  0  0  0  0  0  0  0  0  0
   -0.1503   -1.2685    0.9098 H   0  0  0  0  0  0  0  0  0  0  0  0
    0.7790   -0.0898   -0.0150 H   0  0  0  0  0  0  0  0  0  0  0  0
   -0.1423   -1.3455   -0.8336 H   0  0  0  0  0  0  0  0  0  0  0  0
  1  2  1  0  0  0  0
  1  3  1  0  0  0  0
  1  5  1  0  0  0  0
  2  6  1  0  0  0  0
  2  8  1  0  0  0  0
  4  1  1  0  0  0  0
  6 10  1  0  0  0  0
  7  2  1  0  0  0  0
  9  6  1  0  0  0  0
  9 12  1  0  0  0  0
 11  6  1  0  0  0  0
 13  9  1  0  0  0  0
 14  9  1  0  0  0  0
M  END
$$$$
