butane_opt
 OpenBabel08242015393D

 14 13  0  0  0  0  0  0  0  0999 V2000
   -3.9148    0.2430    0.0938 C   0  0  0  0  0  0  0  0  0  0  0  0
   -2.7230   -0.5911   -0.0440 C   0  0  0  0  0  0  0  0  0  0  0  0
   -4.9136   -0.3594    0.2455 H   0  0  0  0  0  0  0  0  0  0  0  0
   -3.9976    0.9549   -0.8380 H   0  0  0  0  0  0  0  0  0  0  0  0
   -3.6010    0.7113    0.9324 H   0  0  0  0  0  0  0  0  0  0  0  0
   -1.4048    0.2431   -0.0557 C   0  0  0  0  0  0  0  0  0  0  0  0
   -2.7204   -1.5527   -1.1335 H   0  0  0  0  0  0  0  0  0  0  0  0
   -2.7537   -0.9743    0.7170 H   0  0  0  0  0  0  0  0  0  0  0  0
   -0.1721   -0.7173    0.1069 C   0  0  0  0  0  0  0  0  0  0  0  0
   -1.5051    0.8214    0.7687 H   0  0  0  0  0  0  0  0  0  0  0  0
   -1.4365    0.8409   -0.8948 H   0  0  0  0  0  0  0  0  0  0  0  0
   -0.0983   -1.5447    1.1117 H   0  0  0  0  0  0  0  0  0  0  0  0
    0.6012   -0.2854   -0.0776 H   0  0  0  0  0  0  0  0  0  0  0  0
   -0.0211   -1.2129   -0.6028 H   0  0  0  0  0  0  0  0  0  0  0  0
  1  3  1  0  0  0  0
  1  5  1  0  0  0  0
  2  1  1  0  0  0  0
  2  8  1  0  0  0  0
  4  1  1  0  0  0  0
  6  2  1  0  0  0  0
  6  9  1  0  0  0  0
  6 10  1  0  0  0  0
  7  2  1  0  0  0  0
  9 12  1  0  0  0  0
 11  6  1  0  0  0  0
 13  9  1  0  0  0  0
 14  9  1  0  0  0  0
M  END
$$$$
