butane_opt
 OpenBabel08242015393D

 14 13  0  0  0  0  0  0  0  0999 V2000
   -3.9006    0.2333    0.0932 C   0  0  0  0  0  0  0  0  0  0  0  0
   -2.7028   -0.5753   -0.0613 C   0  0  0  0  0  0  0  0  0  0  0  0
   -4.7772   -0.2377    0.2993 H   0  0  0  0  0  0  0  0  0  0  0  0
   -4.1699    0.9491   -0.8373 H   0  0  0  0  0  0  0  0  0  0  0  0
   -3.7607    0.8164    0.8626 H   0  0  0  0  0  0  0  0  0  0  0  0
   -1.4222    0.1940   -0.0583 C   0  0  0  0  0  0  0  0  0  0  0  0
   -2.8215   -1.3896   -0.9620 H   0  0  0  0  0  0  0  0  0  0  0  0
   -2.7212   -1.2102    0.7969 H   0  0  0  0  0  0  0  0  0  0  0  0
   -0.1629   -0.7043    0.1172 C   0  0  0  0  0  0  0  0  0  0  0  0
   -1.5110    0.9470    0.7918 H   0  0  0  0  0  0  0  0  0  0  0  0
   -1.2770    0.7826   -0.9818 H   0  0  0  0  0  0  0  0  0  0  0  0
   -0.1922   -1.3917    1.0655 H   0  0  0  0  0  0  0  0  0  0  0  0
    0.6958   -0.1129    0.0166 H   0  0  0  0  0  0  0  0  0  0  0  0
   -0.2179   -1.3915   -0.7168 H   0  0  0  0  0  0  0  0  0  0  0  0
  1  3  1  0  0  0  0
  1  5  1  0  0  0  0
  2  6  1  0  0  0  0
  2  1  1  0  0  0  0
  2  8  1  0  0  0  0
  4  1  1  0  0  0  0
  6  9  1  0  0  0  0
  6 10  1  0  0  0  0
  7  2  1  0  0  0  0
  9 12  1  0  0  0  0
 11  6  1  0  0  0  0
 13  9  1  0  0  0  0
 14  9  1  0  0  0  0
M  END
$$$$
