14
butane_opt
C  -3.961398   0.229208  -0.048935
C  -2.737322  -0.572999   0.122924
H  -4.862670  -0.387632   0.153497
H  -3.960543   0.992594  -1.056380
H  -3.809065   0.770959   0.629442
C  -1.420007   0.209395   0.059218
H  -2.825134  -1.136040  -0.611898
H  -2.931398  -1.212726   1.084020
C  -0.083424  -0.729525  -0.017413
H  -1.334227   0.830480   0.903014
H  -1.555239   0.899167  -0.879065
H  -0.133276  -0.902066   0.617931
H   0.738922  -0.164619   0.330271
H   0.065606  -1.816446  -1.177991
