14
butane_opt
C  -3.903187   0.284532   0.085057
C  -2.722757  -0.665122  -0.040633
H  -4.822746  -0.262453  -0.026271
H  -4.045680   0.780228  -0.690728
H  -3.981752   1.157892   1.033252
C  -1.407200   0.185086  -0.012555
H  -2.762706  -1.478028  -1.067204
H  -2.572786  -1.060815   0.619619
C  -0.172416  -0.698343   0.075381
H  -1.346838   0.745859   0.723327
H  -1.385050   0.907558  -0.965605
H  -0.117939  -1.663752   1.244261
H   0.771446  -0.082023  -0.218181
H  -0.281705  -0.789118  -0.422040
