butane_opt
 OpenBabel08242015393D

 14 12  0  0  0  0  0  0  0  0999 V2000
   -3.9547    0.3086   -0.0083 C   0  0  0  0  0  0  0  0  0  0  0  0
   -2.6739   -0.6627    0.0765 C   0  0  0  0  0  0  0  0  0  0  0  0
   -4.8427   -0.2375    0.0230 H   0  0  0  0  0  0  0  0  0  0  0  0
   -3.9367    1.0539   -0.9792 H   0  0  0  0  0  0  0  0  0  0  0  0
   -3.8722    0.7917    0.7362 H   0  0  0  0  0  0  0  0  0  0  0  0
   -1.3750    0.1446    0.0172 C   0  0  0  0  0  0  0  0  0  0  0  0
   -2.6829   -1.1170   -0.6310 H   0  0  0  0  0  0  0  0  0  0  0  0
   -2.6386   -1.4894    1.1776 H   0  0  0  0  0  0  0  0  0  0  0  0
   -0.2024   -0.6485    0.0088 C   0  0  0  0  0  0  0  0  0  0  0  0
   -1.4050    0.8033    0.8557 H   0  0  0  0  0  0  0  0  0  0  0  0
   -1.4084    0.6566   -0.7971 H   0  0  0  0  0  0  0  0  0  0  0  0
   -0.3144   -0.8923    0.5689 H   0  0  0  0  0  0  0  0  0  0  0  0
    0.6249   -0.0571    0.3805 H   0  0  0  0  0  0  0  0  0  0  0  0
   -0.0978   -1.6849   -1.0966 H   0  0  0  0  0  0  0  0  0  0  0  0
  1  3  1  0  0  0  0
  1  2  1  0  0  0  0
  1  5  1  0  0  0  0
  2  8  1  0  0  0  0
  4  1  1  0  0  0  0
  6  2  1  0  0  0  0
  6 10  1  0  0  0  0
  7  2  1  0  0  0  0
  9  6  1  0  0  0  0
  9 13  1  0  0  0  0
 11  6  1  0  0  0  0
 14  9  1  0  0  0  0
M  RAD  2   9   2  12   2
M  END
$$$$
