butane_opt
 OpenBabel08242015393D

 14 13  0  0  0  0  0  0  0  0999 V2000
   -3.9079    0.2351    0.0556 C   0  0  0  0  0  0  0  0  0  0  0  0
   -2.7264   -0.5874   -0.0374 C   0  0  0  0  0  0  0  0  0  0  0  0
   -4.9068   -0.4270   -0.0894 H   0  0  0  0  0  0  0  0  0  0  0  0
   -4.0636    0.7664   -0.6826 H   0  0  0  0  0  0  0  0  0  0  0  0
   -3.8942    1.1619    1.0476 H   0  0  0  0  0  0  0  0  0  0  0  0
   -1.3912    0.2196   -0.0179 C   0  0  0  0  0  0  0  0  0  0  0  0
   -2.8455   -1.2903   -0.9176 H   0  0  0  0  0  0  0  0  0  0  0  0
   -2.5921   -1.1647    0.7730 H   0  0  0  0  0  0  0  0  0  0  0  0
   -0.1578   -0.7338    0.0896 C   0  0  0  0  0  0  0  0  0  0  0  0
   -1.5204    0.9127    0.8372 H   0  0  0  0  0  0  0  0  0  0  0  0
   -1.3313    0.7959   -0.8450 H   0  0  0  0  0  0  0  0  0  0  0  0
    0.0158   -1.6946    1.2386 H   0  0  0  0  0  0  0  0  0  0  0  0
    0.7681   -0.1259   -0.4434 H   0  0  0  0  0  0  0  0  0  0  0  0
   -0.4137   -1.0225   -0.5277 H   0  0  0  0  0  0  0  0  0  0  0  0
  1  5  1  0  0  0  0
  2  6  1  0  0  0  0
  2  1  1  0  0  0  0
  2  8  1  0  0  0  0
  3  1  1  0  0  0  0
  4  1  1  0  0  0  0
  6  9  1  0  0  0  0
  6 10  1  0  0  0  0
  7  2  1  0  0  0  0
  9 12  1  0  0  0  0
 11  6  1  0  0  0  0
 13  9  1  0  0  0  0
 14  9  1  0  0  0  0
M  END
$$$$
