butane_opt
 OpenBabel08242015393D

 14 11  0  0  0  0  0  0  0  0999 V2000
   -3.9444    0.2515   -0.0468 C   0  0  0  0  0  0  0  0  0  0  0  0
   -2.7118   -0.6077    0.1190 C   0  0  0  0  0  0  0  0  0  0  0  0
   -4.9109   -0.3709    0.2491 H   0  0  0  0  0  0  0  0  0  0  0  0
   -3.9436    1.2696   -1.2188 H   0  0  0  0  0  0  0  0  0  0  0  0
   -3.9306    0.4819    0.5013 H   0  0  0  0  0  0  0  0  0  0  0  0
   -1.3800    0.2357    0.1075 C   0  0  0  0  0  0  0  0  0  0  0  0
   -2.7501   -1.4281   -0.8229 H   0  0  0  0  0  0  0  0  0  0  0  0
   -2.7487   -1.1236    0.9607 H   0  0  0  0  0  0  0  0  0  0  0  0
   -0.1759   -0.7225   -0.0515 C   0  0  0  0  0  0  0  0  0  0  0  0
   -1.4558    1.0662    1.0676 H   0  0  0  0  0  0  0  0  0  0  0  0
   -1.4128    0.7192   -0.7229 H   0  0  0  0  0  0  0  0  0  0  0  0
    0.0910   -1.3112    0.8903 H   0  0  0  0  0  0  0  0  0  0  0  0
    0.7557   -0.0865    0.0012 H   0  0  0  0  0  0  0  0  0  0  0  0
   -0.1851   -1.5717   -1.0614 H   0  0  0  0  0  0  0  0  0  0  0  0
  1  2  1  0  0  0  0
  1  3  1  0  0  0  0
  2  8  1  0  0  0  0
  6  2  1  0  0  0  0
  6 10  1  0  0  0  0
  7  2  1  0  0  0  0
  9 13  1  0  0  0  0
  9  6  1  0  0  0  0
  9 12  1  0  0  0  0
 11  6  1  0  0  0  0
 14  9  1  0  0  0  0
M  RAD  3   1   3   4   2   5   2
M  END
$$$$
