butane_opt
 OpenBabel08242015393D

 14 13  0  0  0  0  0  0  0  0999 V2000
   -3.9482    0.2626    0.0905 C   0  0  0  0  0  0  0  0  0  0  0  0
   -2.6762   -0.5923   -0.0706 C   0  0  0  0  0  0  0  0  0  0  0  0
   -4.8777   -0.3130    0.1606 H   0  0  0  0  0  0  0  0  0  0  0  0
   -4.0332    0.7910   -0.6937 H   0  0  0  0  0  0  0  0  0  0  0  0
   -3.9415    1.0062    0.9554 H   0  0  0  0  0  0  0  0  0  0  0  0
   -1.3948    0.1631   -0.0585 C   0  0  0  0  0  0  0  0  0  0  0  0
   -2.7990   -1.3941   -1.0088 H   0  0  0  0  0  0  0  0  0  0  0  0
   -2.4235   -1.2280    0.7676 H   0  0  0  0  0  0  0  0  0  0  0  0
   -0.2049   -0.6874    0.1096 C   0  0  0  0  0  0  0  0  0  0  0  0
   -1.4488    0.8648    0.7902 H   0  0  0  0  0  0  0  0  0  0  0  0
   -1.3376    0.6424   -0.8809 H   0  0  0  0  0  0  0  0  0  0  0  0
   -0.0669   -1.4885    1.2134 H   0  0  0  0  0  0  0  0  0  0  0  0
    0.7616   -0.0720   -0.2135 H   0  0  0  0  0  0  0  0  0  0  0  0
   -0.1699   -1.0115   -0.4779 H   0  0  0  0  0  0  0  0  0  0  0  0
  1  3  1  0  0  0  0
  1  5  1  0  0  0  0
  2  6  1  0  0  0  0
  2  1  1  0  0  0  0
  2  8  1  0  0  0  0
  4  1  1  0  0  0  0
  6  9  1  0  0  0  0
  6 10  1  0  0  0  0
  7  2  1  0  0  0  0
  9 12  1  0  0  0  0
 11  6  1  0  0  0  0
 13  9  1  0  0  0  0
 14  9  1  0  0  0  0
M  END
$$$$
