butane_opt
 OpenBabel08242015393D

 14 13  0  0  0  0  0  0  0  0999 V2000
   -3.9359    0.2542    0.0475 C   0  0  0  0  0  0  0  0  0  0  0  0
   -2.6946   -0.6004    0.0106 C   0  0  0  0  0  0  0  0  0  0  0  0
   -4.8545   -0.3493    0.0384 H   0  0  0  0  0  0  0  0  0  0  0  0
   -3.9494    0.7461   -0.7924 H   0  0  0  0  0  0  0  0  0  0  0  0
   -3.8846    0.9746    0.9437 H   0  0  0  0  0  0  0  0  0  0  0  0
   -1.4183    0.2034   -0.0376 C   0  0  0  0  0  0  0  0  0  0  0  0
   -2.7534   -1.2761   -0.8234 H   0  0  0  0  0  0  0  0  0  0  0  0
   -2.6720   -1.2546    0.9202 H   0  0  0  0  0  0  0  0  0  0  0  0
   -0.1676   -0.7082    0.0644 C   0  0  0  0  0  0  0  0  0  0  0  0
   -1.4423    0.8747    0.7952 H   0  0  0  0  0  0  0  0  0  0  0  0
   -1.3341    0.8596   -0.9467 H   0  0  0  0  0  0  0  0  0  0  0  0
   -0.1577   -1.3246    0.9523 H   0  0  0  0  0  0  0  0  0  0  0  0
    0.7330   -0.1199    0.1285 H   0  0  0  0  0  0  0  0  0  0  0  0
   -0.1087   -1.3951   -0.7896 H   0  0  0  0  0  0  0  0  0  0  0  0
  1  5  1  0  0  0  0
  2  1  1  0  0  0  0
  2  8  1  0  0  0  0
  3  1  1  0  0  0  0
  4  1  1  0  0  0  0
  6  2  1  0  0  0  0
  6  9  1  0  0  0  0
  6 10  1  0  0  0  0
  7  2  1  0  0  0  0
  9 13  1  0  0  0  0
  9 12  1  0  0  0  0
 11  6  1  0  0  0  0
 14  9  1  0  0  0  0
M  END
$$$$
