butane_opt
 OpenBabel08242015393D

 14 13  0  0  0  0  0  0  0  0999 V2000
   -3.9740    0.3015    0.1059 C   0  0  0  0  0  0  0  0  0  0  0  0
   -2.7126   -0.6803   -0.0778 C   0  0  0  0  0  0  0  0  0  0  0  0
   -4.8947   -0.1864    0.3537 H   0  0  0  0  0  0  0  0  0  0  0  0
   -4.2968    1.0247   -0.7924 H   0  0  0  0  0  0  0  0  0  0  0  0
   -3.8616    0.6765    0.8108 H   0  0  0  0  0  0  0  0  0  0  0  0
   -1.3865    0.2025   -0.0768 C   0  0  0  0  0  0  0  0  0  0  0  0
   -2.7542   -1.4782   -0.9348 H   0  0  0  0  0  0  0  0  0  0  0  0
   -2.4481   -1.2487    0.7410 H   0  0  0  0  0  0  0  0  0  0  0  0
   -0.1549   -0.6705    0.1161 C   0  0  0  0  0  0  0  0  0  0  0  0
   -1.4470    0.9655    0.8096 H   0  0  0  0  0  0  0  0  0  0  0  0
   -1.2188    0.6872   -0.9114 H   0  0  0  0  0  0  0  0  0  0  0  0
   -0.1625   -1.3625    1.0809 H   0  0  0  0  0  0  0  0  0  0  0  0
    0.7394   -0.0924    0.1164 H   0  0  0  0  0  0  0  0  0  0  0  0
    0.0360   -1.2826   -0.6818 H   0  0  0  0  0  0  0  0  0  0  0  0
  1  3  1  0  0  0  0
  1  5  1  0  0  0  0
  2  6  1  0  0  0  0
  2  1  1  0  0  0  0
  2  8  1  0  0  0  0
  4  1  1  0  0  0  0
  6  9  1  0  0  0  0
  6 10  1  0  0  0  0
  7  2  1  0  0  0  0
  9 13  1  0  0  0  0
  9 12  1  0  0  0  0
 11  6  1  0  0  0  0
 14  9  1  0  0  0  0
M  END
$$$$
