butane_opt
 OpenBabel08242015393D

 14 13  0  0  0  0  0  0  0  0999 V2000
   -3.9871    0.2369   -0.0524 C   0  0  0  0  0  0  0  0  0  0  0  0
   -2.7166   -0.5877    0.0586 C   0  0  0  0  0  0  0  0  0  0  0  0
   -4.9226   -0.4177    0.4422 H   0  0  0  0  0  0  0  0  0  0  0  0
   -4.0928    1.1493   -1.1354 H   0  0  0  0  0  0  0  0  0  0  0  0
   -3.7950    0.4249    0.5786 H   0  0  0  0  0  0  0  0  0  0  0  0
   -1.4166    0.2444    0.0792 C   0  0  0  0  0  0  0  0  0  0  0  0
   -2.7752   -1.1228   -0.6083 H   0  0  0  0  0  0  0  0  0  0  0  0
   -2.5702   -1.2568    0.9951 H   0  0  0  0  0  0  0  0  0  0  0  0
   -0.0999   -0.7312   -0.0100 C   0  0  0  0  0  0  0  0  0  0  0  0
   -1.3074    1.1505    1.0731 H   0  0  0  0  0  0  0  0  0  0  0  0
   -1.3405    0.6614   -0.6553 H   0  0  0  0  0  0  0  0  0  0  0  0
   -0.1282   -1.1404    0.7113 H   0  0  0  0  0  0  0  0  0  0  0  0
    0.6919   -0.2700    0.0255 H   0  0  0  0  0  0  0  0  0  0  0  0
   -0.1039   -1.6214   -0.9827 H   0  0  0  0  0  0  0  0  0  0  0  0
  1  2  1  0  0  0  0
  1  3  1  0  0  0  0
  1  5  1  0  0  0  0
  2  6  1  0  0  0  0
  2  8  1  0  0  0  0
  4  1  1  0  0  0  0
  6 10  1  0  0  0  0
  7  2  1  0  0  0  0
  9 13  1  0  0  0  0
  9  6  1  0  0  0  0
  9 12  1  0  0  0  0
 11  6  1  0  0  0  0
 14  9  1  0  0  0  0
M  END
$$$$
