14
butane_opt
C  -3.897068   0.245660  -0.001598
C  -2.708895  -0.559860   0.041550
H  -4.970543  -0.547250   0.268990
H  -4.012778   1.042588  -1.053644
H  -3.613448   0.641248   0.754364
C  -1.441092   0.238056   0.046038
H  -2.793092  -1.383163  -0.848699
H  -2.656317  -1.104402   0.917312
C  -0.158647  -0.728558   0.013451
H  -1.344499   0.773895   0.849989
H  -1.480947   0.779635  -0.812885
H  -0.246014  -1.306236   0.910380
H   0.695417  -0.220064   0.131596
H  -0.106541  -1.495079  -0.915106
