butane_opt
 OpenBabel08242015393D

 14 13  0  0  0  0  0  0  0  0999 V2000
   -3.9429    0.2265    0.0980 C   0  0  0  0  0  0  0  0  0  0  0  0
   -2.7440   -0.6183   -0.0852 C   0  0  0  0  0  0  0  0  0  0  0  0
   -4.8346   -0.3184    0.3872 H   0  0  0  0  0  0  0  0  0  0  0  0
   -4.1790    0.9364   -0.8579 H   0  0  0  0  0  0  0  0  0  0  0  0
   -3.7430    0.8989    1.0275 H   0  0  0  0  0  0  0  0  0  0  0  0
   -1.3852    0.2647   -0.0771 C   0  0  0  0  0  0  0  0  0  0  0  0
   -2.9754   -1.3051   -0.9633 H   0  0  0  0  0  0  0  0  0  0  0  0
   -2.6190   -1.0903    0.6881 H   0  0  0  0  0  0  0  0  0  0  0  0
   -0.1187   -0.7431    0.1408 C   0  0  0  0  0  0  0  0  0  0  0  0
   -1.5903    0.8045    0.7913 H   0  0  0  0  0  0  0  0  0  0  0  0
   -1.3206    1.0006   -1.0428 H   0  0  0  0  0  0  0  0  0  0  0  0
   -0.0297   -1.3856    1.1156 H   0  0  0  0  0  0  0  0  0  0  0  0
    0.6962   -0.1725    0.1251 H   0  0  0  0  0  0  0  0  0  0  0  0
   -0.1276   -1.4093   -0.7656 H   0  0  0  0  0  0  0  0  0  0  0  0
  1  3  1  0  0  0  0
  1  5  1  0  0  0  0
  2  6  1  0  0  0  0
  2  1  1  0  0  0  0
  2  8  1  0  0  0  0
  4  1  1  0  0  0  0
  6  9  1  0  0  0  0
  6 10  1  0  0  0  0
  7  2  1  0  0  0  0
  9 12  1  0  0  0  0
 11  6  1  0  0  0  0
 13  9  1  0  0  0  0
 14  9  1  0  0  0  0
M  END
$$$$
