14
butane_opt
C  -3.949812   0.249720   0.049317
C  -2.714172  -0.570993   0.013440
H  -4.826822  -0.409203  -0.051053
H  -3.932523   0.788575  -0.833087
H  -3.930990   0.940048   0.874981
C  -1.426907   0.196597   0.017982
H  -2.943885  -1.540593  -1.083754
H  -2.728083  -1.053014   0.793618
C  -0.120522  -0.716783   0.054568
H  -1.426854   0.883470   0.763039
H  -1.439178   0.815742  -0.865660
H   0.103643  -1.624780   1.143773
H   0.816113  -0.113513  -0.357950
H  -0.185837  -1.036628  -0.533575
