14
butane_opt
C  -3.932283   0.234557  -0.006705
C  -2.734465  -0.602540   0.083197
H  -4.896908  -0.429508   0.116408
H  -4.004116   0.946583  -0.968488
H  -3.913224   0.758877   0.803409
C  -1.444342   0.244187   0.019255
H  -2.663568  -1.075920  -0.658569
H  -2.841288  -1.252560   0.966401
C  -0.092828  -0.736818  -0.002185
H  -1.385515   0.777933   0.819381
H  -1.503650   0.997256  -0.946458
H  -0.133349  -0.977018   0.686320
H   0.772012  -0.104602   0.522854
H   0.007228  -1.814498  -1.053065
