14
butane_opt
C  -3.973054   0.290602  -0.060248
C  -2.716312  -0.648105   0.121274
H  -4.925233  -0.290348   0.012815
H  -4.080316   1.129261  -1.051369
H  -4.059363   0.695739   0.609441
C  -1.343405   0.169556   0.123526
H  -2.563504  -1.486484  -0.769034
H  -2.784290  -1.088411   0.908364
C  -0.165179  -0.687305  -0.054258
H  -1.191159   1.047889   1.134901
H  -1.441601   0.770444  -0.739318
H   0.009005  -1.425528   0.892017
H   0.690185  -0.113705  -0.321980
H  -0.291656  -1.218769  -0.811385
