14
butane_opt
C  -3.946052   0.266833   0.059829
C  -2.681044  -0.622293  -0.031360
H  -4.755933  -0.234399   0.087800
H  -3.955512   0.848459  -0.786828
H  -3.889358   0.937204   0.919982
C  -1.383918   0.163017  -0.001473
H  -2.629062  -1.340626  -0.898883
H  -2.670264  -1.165094   0.735980
C  -0.216783  -0.684794   0.060400
H  -1.377481   1.026897   0.956135
H  -1.331723   0.704527  -0.827397
H  -0.226988  -1.658216   1.215765
H   0.669384  -0.132337  -0.375464
H  -0.135490  -0.924333  -0.604393
