butane_opt
 OpenBabel08242015393D

 14 13  0  0  0  0  0  0  0  0999 V2000
   -3.9009    0.2771    0.1255 C   0  0  0  0  0  0  0  0  0  0  0  0
   -2.6936   -0.6313   -0.0853 C   0  0  0  0  0  0  0  0  0  0  0  0
   -4.9136   -0.4762    0.3311 H   0  0  0  0  0  0  0  0  0  0  0  0
   -4.1205    0.9185   -0.7987 H   0  0  0  0  0  0  0  0  0  0  0  0
   -3.7082    0.8572    0.9729 H   0  0  0  0  0  0  0  0  0  0  0  0
   -1.4154    0.2104   -0.1268 C   0  0  0  0  0  0  0  0  0  0  0  0
   -2.8609   -1.2960   -0.8989 H   0  0  0  0  0  0  0  0  0  0  0  0
   -2.6666   -1.0721    0.7005 H   0  0  0  0  0  0  0  0  0  0  0  0
   -0.1904   -0.7105    0.1270 C   0  0  0  0  0  0  0  0  0  0  0  0
   -1.3791    0.9351    0.8265 H   0  0  0  0  0  0  0  0  0  0  0  0
   -1.4033    0.7644   -1.0115 H   0  0  0  0  0  0  0  0  0  0  0  0
   -0.2691   -1.4141    1.1447 H   0  0  0  0  0  0  0  0  0  0  0  0
    0.6844   -0.1054    0.3260 H   0  0  0  0  0  0  0  0  0  0  0  0
    0.0169   -1.3424   -0.6314 H   0  0  0  0  0  0  0  0  0  0  0  0
  1  3  1  0  0  0  0
  1  5  1  0  0  0  0
  2  1  1  0  0  0  0
  2  8  1  0  0  0  0
  4  1  1  0  0  0  0
  6  2  1  0  0  0  0
  6  9  1  0  0  0  0
  6 10  1  0  0  0  0
  7  2  1  0  0  0  0
  9 13  1  0  0  0  0
  9 12  1  0  0  0  0
 11  6  1  0  0  0  0
 14  9  1  0  0  0  0
M  END
$$$$
