14
butane_opt
C  -3.953118   0.288374   0.093462
C  -2.677281  -0.644378  -0.057473
H  -4.848077  -0.310444   0.176405
H  -4.083202   0.762103  -0.675502
H  -3.862337   1.002077   1.026671
C  -1.412449   0.177438  -0.067883
H  -2.739985  -1.486047  -1.095192
H  -2.630083  -1.088337   0.738901
C  -0.181380  -0.670935   0.108710
H  -1.402354   0.839181   0.722638
H  -1.324151   0.658872  -0.915402
H  -0.128536  -1.594809   1.191185
H   0.626997  -0.078020  -0.176295
H   0.043401  -0.966521  -0.432980
