14
butane_opt
C  -3.937650   0.267232   0.066114
C  -2.707497  -0.597462  -0.080777
H  -4.929916  -0.318465   0.687292
H  -4.203406   0.954172  -0.830320
H  -3.584835   0.688844   0.846732
C  -1.413309   0.185307  -0.055236
H  -2.599109  -1.321205  -0.997721
H  -2.737161  -1.199035   0.822381
C  -0.147947  -0.704653   0.112225
H  -1.451289   0.934374   0.918335
H  -1.280400   0.802176  -0.926378
H  -0.350386  -1.337240   1.047824
H   0.763472  -0.136018   0.119250
H  -0.159942  -1.354543  -0.760712
