14
butane_opt
C  -3.943231   0.273645  -0.018263
C  -2.713038  -0.637895   0.120316
H  -4.723468  -0.262390   0.097691
H  -4.173942   1.036326  -0.958467
H  -4.084295   0.741320   0.668529
C  -1.417836   0.184513  -0.000887
H  -2.750989  -1.355713  -0.671219
H  -2.718879  -1.238774   0.981695
C  -0.129825  -0.682921  -0.004876
H  -1.220688   0.834565   0.872699
H  -1.496309   0.803630  -0.861892
H  -0.281239  -0.899808   0.697231
H   0.756197  -0.081541   0.471745
H   0.110024  -1.695366  -1.069655
