butane_opt
 OpenBabel08242015393D

 14 13  0  0  0  0  0  0  0  0999 V2000
   -3.9672    0.3193   -0.0057 C   0  0  0  0  0  0  0  0  0  0  0  0
   -2.7158   -0.6566   -0.0066 C   0  0  0  0  0  0  0  0  0  0  0  0
   -4.8412   -0.2704    0.1740 H   0  0  0  0  0  0  0  0  0  0  0  0
   -4.1781    0.9421   -0.7697 H   0  0  0  0  0  0  0  0  0  0  0  0
   -3.9203    0.8065    0.7565 H   0  0  0  0  0  0  0  0  0  0  0  0
   -1.4003    0.1478    0.0724 C   0  0  0  0  0  0  0  0  0  0  0  0
   -2.6213   -1.2479   -0.8532 H   0  0  0  0  0  0  0  0  0  0  0  0
   -2.7376   -1.3301    0.9281 H   0  0  0  0  0  0  0  0  0  0  0  0
   -0.1383   -0.6718    0.0260 C   0  0  0  0  0  0  0  0  0  0  0  0
   -1.1790    0.8495    0.9606 H   0  0  0  0  0  0  0  0  0  0  0  0
   -1.3948    0.6933   -0.7525 H   0  0  0  0  0  0  0  0  0  0  0  0
   -0.1513   -1.4175    1.0063 H   0  0  0  0  0  0  0  0  0  0  0  0
    0.9033    0.0189   -0.3478 H   0  0  0  0  0  0  0  0  0  0  0  0
   -0.2612   -1.1572   -0.6925 H   0  0  0  0  0  0  0  0  0  0  0  0
  1  3  1  0  0  0  0
  1  5  1  0  0  0  0
  2  1  1  0  0  0  0
  2  6  1  0  0  0  0
  2  8  1  0  0  0  0
  4  1  1  0  0  0  0
  6 10  1  0  0  0  0
  7  2  1  0  0  0  0
  9  6  1  0  0  0  0
  9 12  1  0  0  0  0
 11  6  1  0  0  0  0
 13  9  1  0  0  0  0
 14  9  1  0  0  0  0
M  END
$$$$
