butane_opt
 OpenBabel08242015393D

 14 13  0  0  0  0  0  0  0  0999 V2000
   -3.9085    0.3149    0.0703 C   0  0  0  0  0  0  0  0  0  0  0  0
   -2.6813   -0.6456   -0.0173 C   0  0  0  0  0  0  0  0  0  0  0  0
   -4.8864   -0.3479   -0.3052 H   0  0  0  0  0  0  0  0  0  0  0  0
   -3.9050    0.5097   -0.5596 H   0  0  0  0  0  0  0  0  0  0  0  0
   -4.0288    1.3570    1.1221 H   0  0  0  0  0  0  0  0  0  0  0  0
   -1.4116    0.1414   -0.0500 C   0  0  0  0  0  0  0  0  0  0  0  0
   -2.7400   -1.2558   -0.8050 H   0  0  0  0  0  0  0  0  0  0  0  0
   -2.8023   -1.2994    0.9259 H   0  0  0  0  0  0  0  0  0  0  0  0
   -0.1829   -0.6737    0.0787 C   0  0  0  0  0  0  0  0  0  0  0  0
   -1.4120    0.6453    0.7192 H   0  0  0  0  0  0  0  0  0  0  0  0
   -1.4093    0.7857   -0.9690 H   0  0  0  0  0  0  0  0  0  0  0  0
   -0.1418   -1.5207    1.1803 H   0  0  0  0  0  0  0  0  0  0  0  0
    0.8389    0.0905   -0.0803 H   0  0  0  0  0  0  0  0  0  0  0  0
   -0.3503   -1.0721   -0.6898 H   0  0  0  0  0  0  0  0  0  0  0  0
  1  5  1  0  0  0  0
  2  1  1  0  0  0  0
  2  8  1  0  0  0  0
  3  1  1  0  0  0  0
  4  1  1  0  0  0  0
  6  2  1  0  0  0  0
  6  9  1  0  0  0  0
  6 10  1  0  0  0  0
  7  2  1  0  0  0  0
  9 12  1  0  0  0  0
 11  6  1  0  0  0  0
 13  9  1  0  0  0  0
 14  9  1  0  0  0  0
M  END
$$$$
