14
butane_opt
C  -3.941934   0.229542  -0.003390
C  -2.718022  -0.583045   0.025013
H  -4.968267  -0.494090   0.475261
H  -4.075507   1.274958  -1.105460
H  -3.861402   0.578928   0.632134
C  -1.394742   0.240881   0.077127
H  -2.794903  -1.292346  -0.870718
H  -2.843651  -1.096329   0.766791
C  -0.134554  -0.735011  -0.000130
H  -1.191557   0.898335   0.957199
H  -1.517098   0.809623  -0.741840
H  -0.032552  -1.293610   0.938420
H   0.599681  -0.304850   0.034347
H  -0.029014  -1.408905  -0.846086
