butane_opt
 OpenBabel08242015393D

 14 13  0  0  0  0  0  0  0  0999 V2000
   -3.9754    0.2341   -0.0570 C   0  0  0  0  0  0  0  0  0  0  0  0
   -2.6948   -0.5982    0.1694 C   0  0  0  0  0  0  0  0  0  0  0  0
   -4.6937   -0.2461   -0.3262 H   0  0  0  0  0  0  0  0  0  0  0  0
   -3.7150    0.8077   -0.9857 H   0  0  0  0  0  0  0  0  0  0  0  0
   -4.2392    0.8835    0.7700 H   0  0  0  0  0  0  0  0  0  0  0  0
   -1.4013    0.2024    0.0815 C   0  0  0  0  0  0  0  0  0  0  0  0
   -2.7994   -1.1458   -0.5600 H   0  0  0  0  0  0  0  0  0  0  0  0
   -2.8553   -1.3158    1.1096 H   0  0  0  0  0  0  0  0  0  0  0  0
   -0.1299   -0.7071   -0.0566 C   0  0  0  0  0  0  0  0  0  0  0  0
   -1.2964    0.9788    0.9061 H   0  0  0  0  0  0  0  0  0  0  0  0
   -1.5580    0.8856   -0.8598 H   0  0  0  0  0  0  0  0  0  0  0  0
    0.0055   -1.1443    0.6458 H   0  0  0  0  0  0  0  0  0  0  0  0
    0.7089   -0.1646    0.1697 H   0  0  0  0  0  0  0  0  0  0  0  0
   -0.1726   -1.5903   -1.0758 H   0  0  0  0  0  0  0  0  0  0  0  0
  1  2  1  0  0  0  0
  1  5  1  0  0  0  0
  2  8  1  0  0  0  0
  3  1  1  0  0  0  0
  4  1  1  0  0  0  0
  6  2  1  0  0  0  0
  6 10  1  0  0  0  0
  7  2  1  0  0  0  0
  9  6  1  0  0  0  0
  9 13  1  0  0  0  0
  9 12  1  0  0  0  0
 11  6  1  0  0  0  0
 14  9  1  0  0  0  0
M  END
$$$$
