butane_opt
 OpenBabel08242015393D

 14 13  0  0  0  0  0  0  0  0999 V2000
   -3.9003    0.2838    0.0781 C   0  0  0  0  0  0  0  0  0  0  0  0
   -2.6936   -0.6089   -0.0468 C   0  0  0  0  0  0  0  0  0  0  0  0
   -4.8508   -0.3578    0.0902 H   0  0  0  0  0  0  0  0  0  0  0  0
   -4.0367    0.9320   -0.8013 H   0  0  0  0  0  0  0  0  0  0  0  0
   -3.9996    0.9626    0.9373 H   0  0  0  0  0  0  0  0  0  0  0  0
   -1.4253    0.1515   -0.0509 C   0  0  0  0  0  0  0  0  0  0  0  0
   -2.8096   -1.3166   -0.9396 H   0  0  0  0  0  0  0  0  0  0  0  0
   -2.6070   -1.1922    0.8247 H   0  0  0  0  0  0  0  0  0  0  0  0
   -0.1800   -0.6872    0.1006 C   0  0  0  0  0  0  0  0  0  0  0  0
   -1.2998    0.8117    0.9014 H   0  0  0  0  0  0  0  0  0  0  0  0
   -1.3656    0.5446   -0.7817 H   0  0  0  0  0  0  0  0  0  0  0  0
   -0.2439   -1.4598    1.1807 H   0  0  0  0  0  0  0  0  0  0  0  0
    0.8059    0.0392   -0.2703 H   0  0  0  0  0  0  0  0  0  0  0  0
   -0.2220   -1.0892   -0.6700 H   0  0  0  0  0  0  0  0  0  0  0  0
  1  3  1  0  0  0  0
  1  5  1  0  0  0  0
  2  1  1  0  0  0  0
  2  8  1  0  0  0  0
  4  1  1  0  0  0  0
  6  2  1  0  0  0  0
  6  9  1  0  0  0  0
  6 10  1  0  0  0  0
  7  2  1  0  0  0  0
  9 12  1  0  0  0  0
 11  6  1  0  0  0  0
 13  9  1  0  0  0  0
 14  9  1  0  0  0  0
M  END
$$$$
