14
butane_opt
C  -3.900864   0.246272   0.129750
C  -2.719917  -0.566415  -0.070210
H  -4.952827  -0.557394   0.029961
H  -3.925804   0.602038  -0.623650
H  -3.814113   1.050976   1.072474
C  -1.439400   0.219356  -0.135283
H  -2.693103  -1.126168  -0.884918
H  -2.498962  -1.288407   0.862409
C  -0.165727  -0.715092   0.144198
H  -1.546579   0.732814   0.628432
H  -1.311162   0.890864  -1.038288
H  -0.216392  -1.379856   1.003612
H   0.713092  -0.121755   0.357544
H  -0.043115  -1.513175  -0.771372
