butane_opt
 OpenBabel08242015393D

 14 12  0  0  0  0  0  0  0  0999 V2000
   -3.9430    0.2713    0.0751 C   0  0  0  0  0  0  0  0  0  0  0  0
   -2.6421   -0.6205   -0.0402 C   0  0  0  0  0  0  0  0  0  0  0  0
   -4.7384   -0.2878   -0.0299 H   0  0  0  0  0  0  0  0  0  0  0  0
   -4.0483    0.6741   -0.6592 H   0  0  0  0  0  0  0  0  0  0  0  0
   -4.0324    1.2164    1.1790 H   0  0  0  0  0  0  0  0  0  0  0  0
   -1.4150    0.1493   -0.0592 C   0  0  0  0  0  0  0  0  0  0  0  0
   -2.8017   -1.4027   -1.0737 H   0  0  0  0  0  0  0  0  0  0  0  0
   -2.6850   -1.2335    0.8344 H   0  0  0  0  0  0  0  0  0  0  0  0
   -0.1722   -0.6541    0.1042 C   0  0  0  0  0  0  0  0  0  0  0  0
   -1.5584    0.8879    0.8122 H   0  0  0  0  0  0  0  0  0  0  0  0
   -1.2593    0.6817   -0.9177 H   0  0  0  0  0  0  0  0  0  0  0  0
   -0.1874   -1.7580    1.2545 H   0  0  0  0  0  0  0  0  0  0  0  0
    0.7207   -0.0190   -0.3382 H   0  0  0  0  0  0  0  0  0  0  0  0
   -0.3584   -0.9578   -0.5196 H   0  0  0  0  0  0  0  0  0  0  0  0
  1  5  1  0  0  0  0
  2  1  1  0  0  0  0
  2  8  1  0  0  0  0
  3  1  1  0  0  0  0
  4  1  1  0  0  0  0
  6  2  1  0  0  0  0
  6  9  1  0  0  0  0
  6 10  1  0  0  0  0
  7  2  1  0  0  0  0
 11  6  1  0  0  0  0
 13  9  1  0  0  0  0
 14  9  1  0  0  0  0
M  RAD  2   9   2  12   2
M  END
$$$$
