butane_opt
 OpenBabel08242015393D

 14 13  0  0  0  0  0  0  0  0999 V2000
   -3.9489    0.2551   -0.0151 C   0  0  0  0  0  0  0  0  0  0  0  0
   -2.7080   -0.6057    0.0904 C   0  0  0  0  0  0  0  0  0  0  0  0
   -4.8624   -0.3183   -0.0610 H   0  0  0  0  0  0  0  0  0  0  0  0
   -3.8592    0.8499   -0.9226 H   0  0  0  0  0  0  0  0  0  0  0  0
   -4.0179    0.9288    0.8518 H   0  0  0  0  0  0  0  0  0  0  0  0
   -1.4066    0.2028    0.0419 C   0  0  0  0  0  0  0  0  0  0  0  0
   -2.7076   -1.3125   -0.7715 H   0  0  0  0  0  0  0  0  0  0  0  0
   -2.8007   -1.2692    1.0117 H   0  0  0  0  0  0  0  0  0  0  0  0
   -0.1481   -0.7003   -0.0075 C   0  0  0  0  0  0  0  0  0  0  0  0
   -1.3537    0.8706    0.8890 H   0  0  0  0  0  0  0  0  0  0  0  0
   -1.4287    0.8226   -0.8701 H   0  0  0  0  0  0  0  0  0  0  0  0
   -0.0991   -1.2678    0.8792 H   0  0  0  0  0  0  0  0  0  0  0  0
    0.7179   -0.1556    0.0108 H   0  0  0  0  0  0  0  0  0  0  0  0
   -0.0766   -1.4423   -0.8948 H   0  0  0  0  0  0  0  0  0  0  0  0
  1  2  1  0  0  0  0
  1  5  1  0  0  0  0
  2  8  1  0  0  0  0
  3  1  1  0  0  0  0
  4  1  1  0  0  0  0
  6  2  1  0  0  0  0
  6 10  1  0  0  0  0
  7  2  1  0  0  0  0
  9 13  1  0  0  0  0
  9  6  1  0  0  0  0
  9 12  1  0  0  0  0
 11  6  1  0  0  0  0
 14  9  1  0  0  0  0
M  END
$$$$
