butane_opt
 OpenBabel08242015393D

 14 13  0  0  0  0  0  0  0  0999 V2000
   -3.9430    0.2470   -0.0711 C   0  0  0  0  0  0  0  0  0  0  0  0
   -2.7549   -0.5867    0.0788 C   0  0  0  0  0  0  0  0  0  0  0  0
   -5.0013   -0.4157    0.4398 H   0  0  0  0  0  0  0  0  0  0  0  0
   -3.9917    1.1851   -1.1415 H   0  0  0  0  0  0  0  0  0  0  0  0
   -3.8113    0.5424    0.6287 H   0  0  0  0  0  0  0  0  0  0  0  0
   -1.4042    0.2386    0.1294 C   0  0  0  0  0  0  0  0  0  0  0  0
   -2.6359   -1.3339   -0.7835 H   0  0  0  0  0  0  0  0  0  0  0  0
   -2.7752   -1.1704    0.9267 H   0  0  0  0  0  0  0  0  0  0  0  0
   -0.1243   -0.7434   -0.0162 C   0  0  0  0  0  0  0  0  0  0  0  0
   -1.2524    0.9051    0.9800 H   0  0  0  0  0  0  0  0  0  0  0  0
   -1.5358    0.7466   -0.7387 H   0  0  0  0  0  0  0  0  0  0  0  0
    0.1394   -1.1579    0.7162 H   0  0  0  0  0  0  0  0  0  0  0  0
    0.7405   -0.1777   -0.1506 H   0  0  0  0  0  0  0  0  0  0  0  0
   -0.1709   -1.4565   -0.9136 H   0  0  0  0  0  0  0  0  0  0  0  0
  1  2  1  0  0  0  0
  1  3  1  0  0  0  0
  1  5  1  0  0  0  0
  2  6  1  0  0  0  0
  2  8  1  0  0  0  0
  4  1  1  0  0  0  0
  6 10  1  0  0  0  0
  7  2  1  0  0  0  0
  9  6  1  0  0  0  0
  9 12  1  0  0  0  0
 11  6  1  0  0  0  0
 13  9  1  0  0  0  0
 14  9  1  0  0  0  0
M  END
$$$$
