14
butane_opt
C  -3.930080   0.305093  -0.086623
C  -2.729871  -0.652525   0.156821
H  -4.787854  -0.232843  -0.054778
H  -3.926926   0.946362  -0.998228
H  -4.312348   0.948985   0.717263
C  -1.376971   0.149603   0.109147
H  -2.579277  -1.272341  -0.658875
H  -2.794073  -1.523658   1.174233
C  -0.167350  -0.653441  -0.077632
H  -1.114512   0.917034   1.000963
H  -1.525992   0.687021  -0.672004
H  -0.163719  -1.199878   0.658473
H   0.741036  -0.089365   0.057429
H  -0.110006  -1.421774  -0.988217
