butane_opt
 OpenBabel08242015393D

 14 13  0  0  0  0  0  0  0  0999 V2000
   -3.8971    0.2457   -0.0016 C   0  0  0  0  0  0  0  0  0  0  0  0
   -2.7089   -0.5599    0.0415 C   0  0  0  0  0  0  0  0  0  0  0  0
   -4.9705   -0.5473    0.2690 H   0  0  0  0  0  0  0  0  0  0  0  0
   -4.0128    1.0426   -1.0536 H   0  0  0  0  0  0  0  0  0  0  0  0
   -3.6134    0.6412    0.7544 H   0  0  0  0  0  0  0  0  0  0  0  0
   -1.4411    0.2381    0.0460 C   0  0  0  0  0  0  0  0  0  0  0  0
   -2.7931   -1.3832   -0.8487 H   0  0  0  0  0  0  0  0  0  0  0  0
   -2.6563   -1.1044    0.9173 H   0  0  0  0  0  0  0  0  0  0  0  0
   -0.1586   -0.7286    0.0135 C   0  0  0  0  0  0  0  0  0  0  0  0
   -1.3445    0.7739    0.8500 H   0  0  0  0  0  0  0  0  0  0  0  0
   -1.4809    0.7796   -0.8129 H   0  0  0  0  0  0  0  0  0  0  0  0
   -0.2460   -1.3062    0.9104 H   0  0  0  0  0  0  0  0  0  0  0  0
    0.6954   -0.2201    0.1316 H   0  0  0  0  0  0  0  0  0  0  0  0
   -0.1065   -1.4951   -0.9151 H   0  0  0  0  0  0  0  0  0  0  0  0
  1  2  1  0  0  0  0
  1  3  1  0  0  0  0
  1  5  1  0  0  0  0
  2  6  1  0  0  0  0
  2  8  1  0  0  0  0
  4  1  1  0  0  0  0
  6 10  1  0  0  0  0
  7  2  1  0  0  0  0
  9  6  1  0  0  0  0
  9 13  1  0  0  0  0
  9 12  1  0  0  0  0
 11  6  1  0  0  0  0
 14  9  1  0  0  0  0
M  END
$$$$
