butane_opt
 OpenBabel08242015393D

 14 13  0  0  0  0  0  0  0  0999 V2000
   -3.9432    0.2736   -0.0183 C   0  0  0  0  0  0  0  0  0  0  0  0
   -2.7130   -0.6379    0.1203 C   0  0  0  0  0  0  0  0  0  0  0  0
   -4.7235   -0.2624    0.0977 H   0  0  0  0  0  0  0  0  0  0  0  0
   -4.1739    1.0363   -0.9585 H   0  0  0  0  0  0  0  0  0  0  0  0
   -4.0843    0.7413    0.6685 H   0  0  0  0  0  0  0  0  0  0  0  0
   -1.4178    0.1845   -0.0009 C   0  0  0  0  0  0  0  0  0  0  0  0
   -2.7510   -1.3557   -0.6712 H   0  0  0  0  0  0  0  0  0  0  0  0
   -2.7189   -1.2388    0.9817 H   0  0  0  0  0  0  0  0  0  0  0  0
   -0.1298   -0.6829   -0.0049 C   0  0  0  0  0  0  0  0  0  0  0  0
   -1.2207    0.8346    0.8727 H   0  0  0  0  0  0  0  0  0  0  0  0
   -1.4963    0.8036   -0.8619 H   0  0  0  0  0  0  0  0  0  0  0  0
   -0.2812   -0.8998    0.6972 H   0  0  0  0  0  0  0  0  0  0  0  0
    0.7562   -0.0815    0.4717 H   0  0  0  0  0  0  0  0  0  0  0  0
    0.1100   -1.6954   -1.0697 H   0  0  0  0  0  0  0  0  0  0  0  0
  1  3  1  0  0  0  0
  1  2  1  0  0  0  0
  1  5  1  0  0  0  0
  2  8  1  0  0  0  0
  4  1  1  0  0  0  0
  6  2  1  0  0  0  0
  6 10  1  0  0  0  0
  7  2  1  0  0  0  0
  9  6  1  0  0  0  0
  9 13  1  0  0  0  0
  9 12  1  0  0  0  0
 11  6  1  0  0  0  0
 14  9  1  0  0  0  0
M  END
$$$$
