14
butane_opt
C  -3.932115   0.271125   0.097617
C  -2.732879  -0.632584  -0.034114
H  -4.926407  -0.354839   0.116072
H  -4.113427   0.742148  -0.619343
H  -3.860664   0.982851   0.968743
C  -1.413996   0.199134  -0.132029
H  -2.868950  -1.125194  -0.812794
H  -2.676998  -1.219212   0.861669
C  -0.113002  -0.718275   0.154092
H  -1.506282   0.793961   0.693606
H  -1.340071   0.948889  -1.089520
H  -0.316429  -1.023905   0.796972
H   0.811909  -0.092848   0.335568
H   0.082520  -1.592552  -0.873784
