14
butane_opt
C  -3.904555   0.295436   0.062676
C  -2.687913  -0.645100  -0.031031
H  -4.845138  -0.378482   0.000840
H  -4.018442   0.701143  -0.638633
H  -3.990815   1.177970   0.981332
C  -1.413258   0.143213  -0.008029
H  -2.789748  -1.445993  -1.045490
H  -2.562130  -1.096365   0.664938
C  -0.172709  -0.669425   0.090958
H  -1.573400   0.753947   0.807942
H  -1.464723   0.859013  -1.007200
H   0.008627  -1.618684   1.209344
H   0.816105  -0.037977  -0.375657
H  -0.472003  -0.860110  -0.459821
