butane_opt
 OpenBabel08242015393D

 14 12  0  0  0  0  0  0  0  0999 V2000
   -3.9809    0.2566   -0.0636 C   0  0  0  0  0  0  0  0  0  0  0  0
   -2.7314   -0.6045    0.1020 C   0  0  0  0  0  0  0  0  0  0  0  0
   -5.0192   -0.4641    0.4459 H   0  0  0  0  0  0  0  0  0  0  0  0
   -4.0951    1.2526   -1.2221 H   0  0  0  0  0  0  0  0  0  0  0  0
   -3.7883    0.5502    0.5560 H   0  0  0  0  0  0  0  0  0  0  0  0
   -1.4055    0.2173    0.1038 C   0  0  0  0  0  0  0  0  0  0  0  0
   -2.5095   -1.2329   -0.6740 H   0  0  0  0  0  0  0  0  0  0  0  0
   -2.9051   -1.1713    0.9483 H   0  0  0  0  0  0  0  0  0  0  0  0
   -0.0977   -0.7216   -0.0389 C   0  0  0  0  0  0  0  0  0  0  0  0
   -1.2205    0.9803    1.0106 H   0  0  0  0  0  0  0  0  0  0  0  0
   -1.3726    0.7307   -0.6375 H   0  0  0  0  0  0  0  0  0  0  0  0
   -0.0376   -1.1984    0.6942 H   0  0  0  0  0  0  0  0  0  0  0  0
    0.6968   -0.1304    0.1507 H   0  0  0  0  0  0  0  0  0  0  0  0
   -0.1581   -1.5936   -1.1045 H   0  0  0  0  0  0  0  0  0  0  0  0
  1  2  1  0  0  0  0
  1  3  1  0  0  0  0
  1  5  1  0  0  0  0
  2  6  1  0  0  0  0
  2  8  1  0  0  0  0
  6 10  1  0  0  0  0
  7  2  1  0  0  0  0
  9  6  1  0  0  0  0
  9 13  1  0  0  0  0
  9 12  1  0  0  0  0
 11  6  1  0  0  0  0
 14  9  1  0  0  0  0
M  RAD  2   1   2   4   2
M  END
$$$$
