butane_opt
 OpenBabel08242015393D

 14 11  0  0  0  0  0  0  0  0999 V2000
   -3.9559    0.2334    0.0664 C   0  0  0  0  0  0  0  0  0  0  0  0
   -2.7426   -0.5596    0.0106 C   0  0  0  0  0  0  0  0  0  0  0  0
   -4.8309   -0.3886   -0.2799 H   0  0  0  0  0  0  0  0  0  0  0  0
   -3.8955    0.3658   -0.5356 H   0  0  0  0  0  0  0  0  0  0  0  0
   -4.0813    1.2578    1.2220 H   0  0  0  0  0  0  0  0  0  0  0  0
   -1.4307    0.2225   -0.0633 C   0  0  0  0  0  0  0  0  0  0  0  0
   -2.7889   -1.3657   -0.9127 H   0  0  0  0  0  0  0  0  0  0  0  0
   -2.7464   -1.2057    0.8742 H   0  0  0  0  0  0  0  0  0  0  0  0
   -0.0766   -0.7217    0.0815 C   0  0  0  0  0  0  0  0  0  0  0  0
   -1.4431    0.5678    0.5938 H   0  0  0  0  0  0  0  0  0  0  0  0
   -1.3993    1.1309   -1.1067 H   0  0  0  0  0  0  0  0  0  0  0  0
   -0.0680   -1.4354    1.1083 H   0  0  0  0  0  0  0  0  0  0  0  0
    0.7803   -0.2138    0.1098 H   0  0  0  0  0  0  0  0  0  0  0  0
   -0.0657   -1.2876   -0.7086 H   0  0  0  0  0  0  0  0  0  0  0  0
  2  1  1  0  0  0  0
  2  8  1  0  0  0  0
  3  1  1  0  0  0  0
  6  2  1  0  0  0  0
  6  9  1  0  0  0  0
  6 10  1  0  0  0  0
  7  2  1  0  0  0  0
  9 13  1  0  0  0  0
  9 12  1  0  0  0  0
 11  6  1  0  0  0  0
 14  9  1  0  0  0  0
M  RAD  3   1   3   4   2   5   2
M  END
$$$$
