14
butane_opt
C  -3.938240   0.223088   0.099371
C  -2.678473  -0.569430  -0.029147
H  -4.838407  -0.477752   0.257058
H  -3.978276   0.801682  -0.786868
H  -3.895960   0.894763   0.915736
C  -1.440291   0.233169  -0.072514
H  -2.745674  -1.331858  -0.955889
H  -2.617929  -1.066933   0.679651
C  -0.166637  -0.713842   0.107870
H  -1.300260   0.699674   0.649926
H  -1.395633   1.009955  -1.078316
H  -0.305136  -1.351888   1.034492
H   0.667278  -0.197882   0.312360
H   0.093267  -1.549579  -0.836886
