butane_opt
 OpenBabel08242015393D

 14 13  0  0  0  0  0  0  0  0999 V2000
   -3.9783    0.2746    0.0732 C   0  0  0  0  0  0  0  0  0  0  0  0
   -2.6952   -0.6153    0.0011 C   0  0  0  0  0  0  0  0  0  0  0  0
   -4.9800   -0.3793   -0.1966 H   0  0  0  0  0  0  0  0  0  0  0  0
   -3.8837    0.6424   -0.6920 H   0  0  0  0  0  0  0  0  0  0  0  0
   -3.9889    1.3040    1.1646 H   0  0  0  0  0  0  0  0  0  0  0  0
   -1.3722    0.1598   -0.0672 C   0  0  0  0  0  0  0  0  0  0  0  0
   -2.9795   -1.3334   -0.9489 H   0  0  0  0  0  0  0  0  0  0  0  0
   -2.6194   -1.1692    0.8482 H   0  0  0  0  0  0  0  0  0  0  0  0
   -0.1567   -0.6963    0.1140 C   0  0  0  0  0  0  0  0  0  0  0  0
   -1.4437    0.7432    0.6691 H   0  0  0  0  0  0  0  0  0  0  0  0
   -1.2647    0.9325   -1.0865 H   0  0  0  0  0  0  0  0  0  0  0  0
   -0.0762   -1.3700    1.0256 H   0  0  0  0  0  0  0  0  0  0  0  0
    0.7246   -0.0280   -0.1397 H   0  0  0  0  0  0  0  0  0  0  0  0
   -0.0867   -1.2999   -0.6430 H   0  0  0  0  0  0  0  0  0  0  0  0
  1  5  1  0  0  0  0
  2  1  1  0  0  0  0
  2  8  1  0  0  0  0
  3  1  1  0  0  0  0
  4  1  1  0  0  0  0
  6  2  1  0  0  0  0
  6  9  1  0  0  0  0
  6 10  1  0  0  0  0
  7  2  1  0  0  0  0
  9 12  1  0  0  0  0
 11  6  1  0  0  0  0
 13  9  1  0  0  0  0
 14  9  1  0  0  0  0
M  END
$$$$
