butane_opt
 OpenBabel08242015393D

 14 13  0  0  0  0  0  0  0  0999 V2000
   -3.9166    0.2868   -0.0953 C   0  0  0  0  0  0  0  0  0  0  0  0
   -2.6661   -0.6530    0.1812 C   0  0  0  0  0  0  0  0  0  0  0  0
   -4.8225   -0.3854   -0.1730 H   0  0  0  0  0  0  0  0  0  0  0  0
   -3.7143    0.8608   -0.9828 H   0  0  0  0  0  0  0  0  0  0  0  0
   -4.1996    0.9948    0.7087 H   0  0  0  0  0  0  0  0  0  0  0  0
   -1.4186    0.1494    0.1315 C   0  0  0  0  0  0  0  0  0  0  0  0
   -2.5617   -1.2133   -0.5641 H   0  0  0  0  0  0  0  0  0  0  0  0
   -2.6810   -1.2417    1.0655 H   0  0  0  0  0  0  0  0  0  0  0  0
   -0.2234   -0.6537   -0.0893 C   0  0  0  0  0  0  0  0  0  0  0  0
   -1.2320    0.8827    0.9234 H   0  0  0  0  0  0  0  0  0  0  0  0
   -1.6105    0.8149   -0.7419 H   0  0  0  0  0  0  0  0  0  0  0  0
   -0.1015   -1.2341    0.7407 H   0  0  0  0  0  0  0  0  0  0  0  0
    0.6763   -0.0713   -0.0282 H   0  0  0  0  0  0  0  0  0  0  0  0
   -0.0987   -1.4519   -1.0303 H   0  0  0  0  0  0  0  0  0  0  0  0
  1  2  1  0  0  0  0
  1  5  1  0  0  0  0
  2  8  1  0  0  0  0
  3  1  1  0  0  0  0
  4  1  1  0  0  0  0
  6  2  1  0  0  0  0
  6 10  1  0  0  0  0
  7  2  1  0  0  0  0
  9 13  1  0  0  0  0
  9  6  1  0  0  0  0
  9 12  1  0  0  0  0
 11  6  1  0  0  0  0
 14  9  1  0  0  0  0
M  END
$$$$
