butane_opt
 OpenBabel08242015393D

 14 12  0  0  0  0  0  0  0  0999 V2000
   -3.9075    0.2522   -0.0366 C   0  0  0  0  0  0  0  0  0  0  0  0
   -2.7094   -0.6164    0.1276 C   0  0  0  0  0  0  0  0  0  0  0  0
   -4.8045   -0.3833   -0.0695 H   0  0  0  0  0  0  0  0  0  0  0  0
   -3.7677    1.1473   -1.0686 H   0  0  0  0  0  0  0  0  0  0  0  0
   -3.9103    0.6623    0.6605 H   0  0  0  0  0  0  0  0  0  0  0  0
   -1.4172    0.1899    0.0766 C   0  0  0  0  0  0  0  0  0  0  0  0
   -2.7389   -1.1007   -0.6532 H   0  0  0  0  0  0  0  0  0  0  0  0
   -2.7069   -1.2627    1.0491 H   0  0  0  0  0  0  0  0  0  0  0  0
   -0.1836   -0.6977   -0.0348 C   0  0  0  0  0  0  0  0  0  0  0  0
   -1.3683    0.8849    0.9583 H   0  0  0  0  0  0  0  0  0  0  0  0
   -1.5532    0.9235   -0.8370 H   0  0  0  0  0  0  0  0  0  0  0  0
   -0.1102   -1.0010    0.6276 H   0  0  0  0  0  0  0  0  0  0  0  0
    0.6341   -0.1552    0.2749 H   0  0  0  0  0  0  0  0  0  0  0  0
   -0.0967   -1.7516   -1.1639 H   0  0  0  0  0  0  0  0  0  0  0  0
  1  2  1  0  0  0  0
  1  5  1  0  0  0  0
  2  8  1  0  0  0  0
  3  1  1  0  0  0  0
  4  1  1  0  0  0  0
  6  2  1  0  0  0  0
  6 10  1  0  0  0  0
  7  2  1  0  0  0  0
  9  6  1  0  0  0  0
  9 13  1  0  0  0  0
  9 12  1  0  0  0  0
 11  6  1  0  0  0  0
M  RAD  2   9   2  14   2
M  END
$$$$
