14
butane_opt
C  -3.938445   0.324957   0.068393
C  -2.706095  -0.628878   0.028721
H  -4.849811  -0.321354  -0.188078
H  -3.989925   0.716686  -0.650542
H  -4.053489   0.985303   0.974911
C  -1.382918   0.106129  -0.073809
H  -2.525869  -1.257343  -0.733895
H  -2.617145  -1.322746   0.958229
C  -0.206848  -0.651106   0.047835
H  -1.287956   0.775631   0.718144
H  -1.305444   0.700211  -0.986916
H  -0.448689  -1.160483   0.978248
H   0.805047  -0.021704   0.364260
H   0.044328  -1.379378  -0.844990
