butane_opt
 OpenBabel08242015393D

 14 13  0  0  0  0  0  0  0  0999 V2000
   -3.9257    0.2613    0.0115 C   0  0  0  0  0  0  0  0  0  0  0  0
   -2.7072   -0.6195    0.0548 C   0  0  0  0  0  0  0  0  0  0  0  0
   -4.8417   -0.3544    0.0917 H   0  0  0  0  0  0  0  0  0  0  0  0
   -3.9755    0.9861   -0.9668 H   0  0  0  0  0  0  0  0  0  0  0  0
   -3.9255    0.8523    0.8302 H   0  0  0  0  0  0  0  0  0  0  0  0
   -1.4109    0.1974    0.0143 C   0  0  0  0  0  0  0  0  0  0  0  0
   -2.7292   -1.3030   -0.8159 H   0  0  0  0  0  0  0  0  0  0  0  0
   -2.6875   -1.2152    0.9293 H   0  0  0  0  0  0  0  0  0  0  0  0
   -0.1606   -0.6987    0.0223 C   0  0  0  0  0  0  0  0  0  0  0  0
   -1.4258    0.8928    0.8611 H   0  0  0  0  0  0  0  0  0  0  0  0
   -1.3959    0.7888   -0.8533 H   0  0  0  0  0  0  0  0  0  0  0  0
   -0.1662   -1.2371    0.9023 H   0  0  0  0  0  0  0  0  0  0  0  0
    0.7337   -0.1245    0.0925 H   0  0  0  0  0  0  0  0  0  0  0  0
   -0.1492   -1.4473   -0.8875 H   0  0  0  0  0  0  0  0  0  0  0  0
  1  2  1  0  0  0  0
  1  3  1  0  0  0  0
  1  5  1  0  0  0  0
  2  8  1  0  0  0  0
  4  1  1  0  0  0  0
  6  9  1  0  0  0  0
  6  2  1  0  0  0  0
  6 10  1  0  0  0  0
  7  2  1  0  0  0  0
  9 13  1  0  0  0  0
  9 12  1  0  0  0  0
 11  6  1  0  0  0  0
 14  9  1  0  0  0  0
M  END
$$$$
