butane_opt
 OpenBabel08242015393D

 14 13  0  0  0  0  0  0  0  0999 V2000
   -3.9333    0.2290    0.0377 C   0  0  0  0  0  0  0  0  0  0  0  0
   -2.7109   -0.5677   -0.0224 C   0  0  0  0  0  0  0  0  0  0  0  0
   -4.7187   -0.3288    0.1594 H   0  0  0  0  0  0  0  0  0  0  0  0
   -3.8788    0.6642   -0.7005 H   0  0  0  0  0  0  0  0  0  0  0  0
   -3.8225    1.0156    1.0415 H   0  0  0  0  0  0  0  0  0  0  0  0
   -1.4254    0.2207    0.0030 C   0  0  0  0  0  0  0  0  0  0  0  0
   -2.6973   -1.4664   -1.0356 H   0  0  0  0  0  0  0  0  0  0  0  0
   -2.8142   -1.0392    0.7689 H   0  0  0  0  0  0  0  0  0  0  0  0
   -0.1639   -0.7410    0.0863 C   0  0  0  0  0  0  0  0  0  0  0  0
   -1.4542    0.8420    0.7763 H   0  0  0  0  0  0  0  0  0  0  0  0
   -1.2510    1.0247   -0.9451 H   0  0  0  0  0  0  0  0  0  0  0  0
    0.0192   -1.6441    1.1445 H   0  0  0  0  0  0  0  0  0  0  0  0
    0.7518   -0.1360   -0.3888 H   0  0  0  0  0  0  0  0  0  0  0  0
   -0.3466   -1.0889   -0.5769 H   0  0  0  0  0  0  0  0  0  0  0  0
  1  3  1  0  0  0  0
  1  5  1  0  0  0  0
  2  6  1  0  0  0  0
  2  1  1  0  0  0  0
  2  8  1  0  0  0  0
  4  1  1  0  0  0  0
  6  9  1  0  0  0  0
  6 10  1  0  0  0  0
  7  2  1  0  0  0  0
  9 12  1  0  0  0  0
 11  6  1  0  0  0  0
 13  9  1  0  0  0  0
 14  9  1  0  0  0  0
M  END
$$$$
