butane_opt
 OpenBabel08242015393D

 14 13  0  0  0  0  0  0  0  0999 V2000
   -3.9259    0.2346    0.0879 C   0  0  0  0  0  0  0  0  0  0  0  0
   -2.7076   -0.5668   -0.0309 C   0  0  0  0  0  0  0  0  0  0  0  0
   -4.9128   -0.4671    0.1735 H   0  0  0  0  0  0  0  0  0  0  0  0
   -3.7638    0.7729   -0.7216 H   0  0  0  0  0  0  0  0  0  0  0  0
   -3.7425    0.9928    1.0554 H   0  0  0  0  0  0  0  0  0  0  0  0
   -1.4446    0.1992   -0.1203 C   0  0  0  0  0  0  0  0  0  0  0  0
   -2.7218   -1.1484   -0.7778 H   0  0  0  0  0  0  0  0  0  0  0  0
   -2.6984   -1.1612    0.9440 H   0  0  0  0  0  0  0  0  0  0  0  0
   -0.1633   -0.7356    0.1257 C   0  0  0  0  0  0  0  0  0  0  0  0
   -1.4918    0.8504    0.6975 H   0  0  0  0  0  0  0  0  0  0  0  0
   -1.2462    0.8849   -1.0514 H   0  0  0  0  0  0  0  0  0  0  0  0
   -0.2787   -1.1204    0.8823 H   0  0  0  0  0  0  0  0  0  0  0  0
    0.7221   -0.1021    0.3716 H   0  0  0  0  0  0  0  0  0  0  0  0
    0.0140   -1.5861   -0.8942 H   0  0  0  0  0  0  0  0  0  0  0  0
  1  3  1  0  0  0  0
  1  5  1  0  0  0  0
  2  1  1  0  0  0  0
  2  8  1  0  0  0  0
  4  1  1  0  0  0  0
  6  2  1  0  0  0  0
  6  9  1  0  0  0  0
  6 10  1  0  0  0  0
  7  2  1  0  0  0  0
  9 13  1  0  0  0  0
  9 12  1  0  0  0  0
 11  6  1  0  0  0  0
 14  9  1  0  0  0  0
M  END
$$$$
