14
butane_opt
C  -3.982991   0.281372   0.057367
C  -2.724750  -0.620339   0.032005
H  -4.827045  -0.173658  -0.188287
H  -4.043920   0.612285  -0.602652
H  -4.162810   1.197400   1.048230
C  -1.357621   0.158692  -0.061888
H  -2.827842  -1.407921  -0.921115
H  -2.556910  -1.339112   0.847630
C  -0.134265  -0.683879   0.100219
H  -1.439076   0.697794   0.665814
H  -1.235021   0.985450  -1.136558
H  -0.130622  -1.302474   0.919405
H   0.838137   0.026271   0.120515
H  -0.248621  -1.388979  -0.819599
