butane_opt
 OpenBabel08242015393D

 14 13  0  0  0  0  0  0  0  0999 V2000
   -3.9590    0.2851   -0.0612 C   0  0  0  0  0  0  0  0  0  0  0  0
   -2.6797   -0.6026    0.1232 C   0  0  0  0  0  0  0  0  0  0  0  0
   -4.7983   -0.3014   -0.4067 H   0  0  0  0  0  0  0  0  0  0  0  0
   -3.7678    0.6980   -0.8761 H   0  0  0  0  0  0  0  0  0  0  0  0
   -4.1545    1.1317    0.9246 H   0  0  0  0  0  0  0  0  0  0  0  0
   -1.3754    0.1365    0.1023 C   0  0  0  0  0  0  0  0  0  0  0  0
   -2.7008   -1.1297   -0.6562 H   0  0  0  0  0  0  0  0  0  0  0  0
   -2.6489   -1.4938    1.2196 H   0  0  0  0  0  0  0  0  0  0  0  0
   -0.2045   -0.6740   -0.0401 C   0  0  0  0  0  0  0  0  0  0  0  0
   -1.2859    0.8132    0.9275 H   0  0  0  0  0  0  0  0  0  0  0  0
   -1.3488    0.7403   -0.8041 H   0  0  0  0  0  0  0  0  0  0  0  0
   -0.0924   -1.3168    0.7847 H   0  0  0  0  0  0  0  0  0  0  0  0
    0.7364    0.0169   -0.2300 H   0  0  0  0  0  0  0  0  0  0  0  0
   -0.3425   -1.3568   -0.9308 H   0  0  0  0  0  0  0  0  0  0  0  0
  1  2  1  0  0  0  0
  1  5  1  0  0  0  0
  2  8  1  0  0  0  0
  3  1  1  0  0  0  0
  4  1  1  0  0  0  0
  6  2  1  0  0  0  0
  6 10  1  0  0  0  0
  7  2  1  0  0  0  0
  9  6  1  0  0  0  0
  9 12  1  0  0  0  0
 11  6  1  0  0  0  0
 13  9  1  0  0  0  0
 14  9  1  0  0  0  0
M  END
$$$$
