14
butane_opt
C  -3.924949   0.199542   0.137597
C  -2.715795  -0.530720  -0.038993
H  -4.801427  -0.344935  -0.022430
H  -3.877618   0.744723  -0.801620
H  -3.857130   1.019169   1.091117
C  -1.424988   0.215617  -0.130540
H  -2.892801  -1.369117  -1.026912
H  -2.715996  -1.079411   0.778255
C  -0.142400  -0.757727   0.141431
H  -1.536700   0.837193   0.753703
H  -1.282805   0.941340  -1.120640
H  -0.277112  -1.287850   1.022450
H   0.705769  -0.145750   0.099967
H   0.032679  -1.313225  -0.653730
