14
butane_opt
C  -3.925880   0.234596   0.087941
C  -2.707576  -0.566757  -0.030890
H  -4.912814  -0.467052   0.173505
H  -3.763760   0.772900  -0.721618
H  -3.742472   0.992849   1.055422
C  -1.444618   0.199178  -0.120342
H  -2.721820  -1.148366  -0.777785
H  -2.698413  -1.161181   0.944033
C  -0.163321  -0.735609   0.125736
H  -1.491806   0.850413   0.697472
H  -1.246235   0.884931  -1.051385
H  -0.278667  -1.120398   0.882338
H   0.722054  -0.102106   0.371616
H   0.014035  -1.586132  -0.894236
