14
butane_opt
C  -3.906587   0.212951  -0.072776
C  -2.700768  -0.572702   0.098053
H  -4.800149  -0.325453  -0.068681
H  -3.758911   0.967843  -1.031812
H  -3.951478   0.914055   0.735222
C  -1.405356   0.220716   0.145918
H  -2.770448  -1.218839  -0.672824
H  -2.783463  -1.205884   1.057138
C  -0.181749  -0.722891  -0.082467
H  -1.361514   0.994778   1.017773
H  -1.674263   0.680224  -0.525811
H   0.014426  -1.635171   1.000119
H   0.716337  -0.129681  -0.325779
H  -0.313917  -1.167612  -0.789116
