14
butane_opt
C  -3.972239   0.245292  -0.104183
C  -2.724997  -0.584929   0.189922
H  -4.829569  -0.300142  -0.296932
H  -3.710294   0.626992  -0.907458
H  -4.136150   1.068001   0.889090
C  -1.411651   0.194225   0.078103
H  -2.594473  -1.116733  -0.533134
H  -2.950379  -1.445943   1.276202
C  -0.098887  -0.697423  -0.076517
H  -1.341234   0.947660   0.914758
H  -1.667877   0.699150  -0.672663
H  -0.005406  -1.092258   0.728797
H   0.797487  -0.214340  -0.001984
H  -0.101483  -1.523733  -0.983341
