14
butane_opt
C  -3.923499   0.287363  -0.026273
C  -2.664009  -0.612898   0.044331
H  -4.959876  -0.396206   0.309336
H  -4.022991   1.007638  -1.014025
H  -3.937680   0.831062   0.725240
C  -1.396171   0.145927   0.082549
H  -2.646289  -1.290751  -0.789496
H  -2.793481  -1.213178   1.005611
C  -0.208963  -0.665857  -0.021459
H  -1.404796   0.809185   0.927353
H  -1.332882   0.694900  -0.716971
H  -0.140982  -1.341722   0.895015
H   0.721405  -0.071701  -0.049280
H  -0.188924  -1.352200  -0.809652
