butane_opt
 OpenBabel08242015393D

 14 13  0  0  0  0  0  0  0  0999 V2000
   -3.9469    0.2941   -0.0274 C   0  0  0  0  0  0  0  0  0  0  0  0
   -2.6927   -0.6284    0.1019 C   0  0  0  0  0  0  0  0  0  0  0  0
   -4.7977   -0.2581    0.1795 H   0  0  0  0  0  0  0  0  0  0  0  0
   -3.9771    1.1053   -0.9822 H   0  0  0  0  0  0  0  0  0  0  0  0
   -3.9903    0.7977    0.7124 H   0  0  0  0  0  0  0  0  0  0  0  0
   -1.3951    0.1463    0.0365 C   0  0  0  0  0  0  0  0  0  0  0  0
   -2.6893   -1.3566   -0.7286 H   0  0  0  0  0  0  0  0  0  0  0  0
   -2.6710   -1.2907    0.9745 H   0  0  0  0  0  0  0  0  0  0  0  0
   -0.1667   -0.6729    0.0013 C   0  0  0  0  0  0  0  0  0  0  0  0
   -1.4455    0.7378    0.8448 H   0  0  0  0  0  0  0  0  0  0  0  0
   -1.2073    0.7502   -0.8445 H   0  0  0  0  0  0  0  0  0  0  0  0
   -0.2868   -0.9958    0.6505 H   0  0  0  0  0  0  0  0  0  0  0  0
    0.8552   -0.0155    0.2937 H   0  0  0  0  0  0  0  0  0  0  0  0
   -0.3963   -1.5909   -1.0542 H   0  0  0  0  0  0  0  0  0  0  0  0
  1  2  1  0  0  0  0
  1  3  1  0  0  0  0
  1  5  1  0  0  0  0
  2  8  1  0  0  0  0
  4  1  1  0  0  0  0
  6  2  1  0  0  0  0
  6 10  1  0  0  0  0
  7  2  1  0  0  0  0
  9  6  1  0  0  0  0
  9 13  1  0  0  0  0
  9 12  1  0  0  0  0
 11  6  1  0  0  0  0
 14  9  1  0  0  0  0
M  END
$$$$
