14
butane_opt
C  -3.945499   0.231625  -0.062259
C  -2.737107  -0.582330   0.087131
H  -4.967491  -0.347877   0.105143
H  -4.012656   0.858829  -1.017098
H  -3.847969   0.852864   0.764646
C  -1.388124   0.229174   0.121778
H  -2.729045  -1.219534  -0.772886
H  -2.943528  -1.131130   0.930892
C  -0.117866  -0.758053  -0.029963
H  -1.470726   1.057362   1.000789
H  -1.505399   0.760809  -0.678115
H   0.070129  -1.475832   0.897944
H   0.825685  -0.123579  -0.469864
H  -0.166333  -1.154661  -0.715821
