14
butane_opt
C  -4.000951   0.259861  -0.054995
C  -2.733188  -0.624555   0.103614
H  -4.765144  -0.214057  -0.077341
H  -3.946500   0.979533  -1.046919
H  -4.078865   0.993285   0.750819
C  -1.372773   0.161227   0.144721
H  -2.443189  -1.298296  -0.800731
H  -2.933059  -1.189677   1.006403
C  -0.128594  -0.680682  -0.060299
H  -1.264730   0.819465   1.029872
H  -1.405164   0.856547  -0.733803
H   0.138756  -1.543528   0.945749
H   0.921420  -0.007143  -0.327214
H  -0.436388  -1.233399  -0.856709
