14
butane_opt
C  -3.959532   0.324017   0.052301
C  -2.731666  -0.668833   0.040761
H  -4.786432  -0.208241  -0.189991
H  -4.027459   0.675794  -0.732350
H  -4.000028   1.106842   0.968561
C  -1.365941   0.144778  -0.042858
H  -2.772628  -1.430599  -0.951875
H  -2.650327  -1.263175   0.912319
C  -0.156911  -0.664503   0.069899
H  -1.514488   0.763220   0.801822
H  -1.272496   0.909880  -1.005241
H  -0.185402  -1.326208   1.017885
H   0.914759  -0.002119  -0.028002
H  -0.198512  -1.297314  -0.793671
