butane_opt
 OpenBabel08242015393D

 14 13  0  0  0  0  0  0  0  0999 V2000
   -3.9587    0.3197    0.1052 C   0  0  0  0  0  0  0  0  0  0  0  0
   -2.6851   -0.6783   -0.0400 C   0  0  0  0  0  0  0  0  0  0  0  0
   -4.8497   -0.3144    0.1664 H   0  0  0  0  0  0  0  0  0  0  0  0
   -4.2410    0.9141   -0.7821 H   0  0  0  0  0  0  0  0  0  0  0  0
   -3.8392    0.8869    0.8225 H   0  0  0  0  0  0  0  0  0  0  0  0
   -1.3897    0.1591   -0.1042 C   0  0  0  0  0  0  0  0  0  0  0  0
   -2.7744   -1.4072   -0.8961 H   0  0  0  0  0  0  0  0  0  0  0  0
   -2.5112   -1.3471    0.8958 H   0  0  0  0  0  0  0  0  0  0  0  0
   -0.1722   -0.6409    0.1308 C   0  0  0  0  0  0  0  0  0  0  0  0
   -1.4316    0.8205    0.7704 H   0  0  0  0  0  0  0  0  0  0  0  0
   -1.3382    0.8418   -1.0724 H   0  0  0  0  0  0  0  0  0  0  0  0
   -0.2705   -1.1115    0.9167 H   0  0  0  0  0  0  0  0  0  0  0  0
    0.7317   -0.0914    0.3494 H   0  0  0  0  0  0  0  0  0  0  0  0
   -0.0548   -1.5717   -0.8742 H   0  0  0  0  0  0  0  0  0  0  0  0
  1  3  1  0  0  0  0
  1  5  1  0  0  0  0
  2  1  1  0  0  0  0
  2  8  1  0  0  0  0
  4  1  1  0  0  0  0
  6  2  1  0  0  0  0
  6  9  1  0  0  0  0
  6 10  1  0  0  0  0
  7  2  1  0  0  0  0
  9 13  1  0  0  0  0
  9 12  1  0  0  0  0
 11  6  1  0  0  0  0
 14  9  1  0  0  0  0
M  END
$$$$
