butane_opt
 OpenBabel08242015393D

 14 12  0  0  0  0  0  0  0  0999 V2000
   -3.9841    0.2714    0.0533 C   0  0  0  0  0  0  0  0  0  0  0  0
   -2.7143   -0.6274   -0.0204 C   0  0  0  0  0  0  0  0  0  0  0  0
   -4.9890   -0.4018   -0.1400 H   0  0  0  0  0  0  0  0  0  0  0  0
   -3.9554    0.5838   -0.6806 H   0  0  0  0  0  0  0  0  0  0  0  0
   -3.9031    1.2796    1.2100 H   0  0  0  0  0  0  0  0  0  0  0  0
   -1.3753    0.2053   -0.0299 C   0  0  0  0  0  0  0  0  0  0  0  0
   -2.6886   -1.2922   -0.8893 H   0  0  0  0  0  0  0  0  0  0  0  0
   -2.8938   -1.1739    0.8824 H   0  0  0  0  0  0  0  0  0  0  0  0
   -0.1403   -0.7092    0.0857 C   0  0  0  0  0  0  0  0  0  0  0  0
   -1.3962    0.8615    0.7936 H   0  0  0  0  0  0  0  0  0  0  0  0
   -1.2851    0.8442   -0.9992 H   0  0  0  0  0  0  0  0  0  0  0  0
    0.0143   -1.5720    1.1810 H   0  0  0  0  0  0  0  0  0  0  0  0
    0.7397   -0.1691   -0.4043 H   0  0  0  0  0  0  0  0  0  0  0  0
   -0.0968   -1.1185   -0.5233 H   0  0  0  0  0  0  0  0  0  0  0  0
  2  1  1  0  0  0  0
  2  8  1  0  0  0  0
  3  1  1  0  0  0  0
  4  1  1  0  0  0  0
  6  2  1  0  0  0  0
  6  9  1  0  0  0  0
  6 10  1  0  0  0  0
  7  2  1  0  0  0  0
  9 12  1  0  0  0  0
 11  6  1  0  0  0  0
 13  9  1  0  0  0  0
 14  9  1  0  0  0  0
M  RAD  2   1   2   5   2
M  END
$$$$
