14
butane_opt
C  -3.911579   0.298465  -0.012889
C  -2.685165  -0.636297   0.080337
H  -4.710486  -0.265165   0.114318
H  -3.950722   1.181709  -1.051592
H  -4.150396   0.670416   0.628405
C  -1.385961   0.128933   0.080489
H  -2.582197  -1.397001  -0.894155
H  -2.670459  -1.254333   0.985538
C  -0.225802  -0.655157  -0.025682
H  -1.346018   0.934675   1.014275
H  -1.335396   0.702357  -0.761938
H  -0.131836  -1.316947   0.872146
H   0.750428   0.022628  -0.040941
H  -0.397636  -1.364163  -0.908999
