14
butane_opt
C  -3.922216   0.221477   0.078357
C  -2.700168  -0.534269  -0.003334
H  -4.836020  -0.445243  -0.340422
H  -3.778768   0.386773  -0.453610
H  -3.987509   1.199704   1.160485
C  -1.431078   0.201939  -0.099585
H  -2.719804  -1.197788  -0.777357
H  -2.675478  -1.176622   0.885565
C  -0.159367  -0.726240   0.099930
H  -1.527818   0.912169   0.700064
H  -1.292312   0.830964  -1.021652
H  -0.122051  -1.545718   1.146125
H   0.702432  -0.205026  -0.060967
H  -0.208009  -1.216145  -0.649249
