butane_opt
 OpenBabel08242015393D

 14 13  0  0  0  0  0  0  0  0999 V2000
   -3.9272    0.2781   -0.0984 C   0  0  0  0  0  0  0  0  0  0  0  0
   -2.6964   -0.6038    0.1416 C   0  0  0  0  0  0  0  0  0  0  0  0
   -4.9333   -0.2839   -0.1164 H   0  0  0  0  0  0  0  0  0  0  0  0
   -3.8108    0.9062   -1.0350 H   0  0  0  0  0  0  0  0  0  0  0  0
   -4.0953    0.9753    0.7564 H   0  0  0  0  0  0  0  0  0  0  0  0
   -1.3776    0.1221    0.1228 C   0  0  0  0  0  0  0  0  0  0  0  0
   -2.5331   -1.1551   -0.5719 H   0  0  0  0  0  0  0  0  0  0  0  0
   -2.7043   -1.3343    1.0928 H   0  0  0  0  0  0  0  0  0  0  0  0
   -0.1896   -0.6699   -0.0814 C   0  0  0  0  0  0  0  0  0  0  0  0
   -1.2012    0.9263    1.1841 H   0  0  0  0  0  0  0  0  0  0  0  0
   -1.5564    0.5635   -0.5832 H   0  0  0  0  0  0  0  0  0  0  0  0
   -0.1064   -1.2896    0.8500 H   0  0  0  0  0  0  0  0  0  0  0  0
    0.6771   -0.1107   -0.3036 H   0  0  0  0  0  0  0  0  0  0  0  0
   -0.4528   -1.1923   -0.8360 H   0  0  0  0  0  0  0  0  0  0  0  0
  1  2  1  0  0  0  0
  1  5  1  0  0  0  0
  2  8  1  0  0  0  0
  3  1  1  0  0  0  0
  4  1  1  0  0  0  0
  6  2  1  0  0  0  0
  6 10  1  0  0  0  0
  7  2  1  0  0  0  0
  9  6  1  0  0  0  0
  9 12  1  0  0  0  0
 11  6  1  0  0  0  0
 13  9  1  0  0  0  0
 14  9  1  0  0  0  0
M  END
$$$$
