butane_opt
 OpenBabel08242015393D

 14 12  0  0  0  0  0  0  0  0999 V2000
   -3.9377    0.2833   -0.0658 C   0  0  0  0  0  0  0  0  0  0  0  0
   -2.6774   -0.6491    0.0705 C   0  0  0  0  0  0  0  0  0  0  0  0
   -4.7884   -0.2305    0.5145 H   0  0  0  0  0  0  0  0  0  0  0  0
   -4.4107    1.2751   -1.2555 H   0  0  0  0  0  0  0  0  0  0  0  0
   -3.9087    0.6276    0.5831 H   0  0  0  0  0  0  0  0  0  0  0  0
   -1.3993    0.1407    0.1028 C   0  0  0  0  0  0  0  0  0  0  0  0
   -2.5462   -1.2528   -0.7095 H   0  0  0  0  0  0  0  0  0  0  0  0
   -2.8841   -1.3353    1.1255 H   0  0  0  0  0  0  0  0  0  0  0  0
   -0.1586   -0.6726   -0.0392 C   0  0  0  0  0  0  0  0  0  0  0  0
   -1.2910    1.0421    1.1341 H   0  0  0  0  0  0  0  0  0  0  0  0
   -1.4424    0.6268   -0.6757 H   0  0  0  0  0  0  0  0  0  0  0  0
   -0.0921   -1.0289    0.6911 H   0  0  0  0  0  0  0  0  0  0  0  0
    0.7371   -0.0071    0.1355 H   0  0  0  0  0  0  0  0  0  0  0  0
   -0.3012   -1.4070   -0.9595 H   0  0  0  0  0  0  0  0  0  0  0  0
  1  2  1  0  0  0  0
  1  3  1  0  0  0  0
  1  5  1  0  0  0  0
  2  6  1  0  0  0  0
  2  8  1  0  0  0  0
  6 10  1  0  0  0  0
  7  2  1  0  0  0  0
  9  6  1  0  0  0  0
  9 13  1  0  0  0  0
  9 12  1  0  0  0  0
 11  6  1  0  0  0  0
 14  9  1  0  0  0  0
M  RAD  2   1   2   4   2
M  END
$$$$
