butane_opt
 OpenBabel08242015393D

 14 13  0  0  0  0  0  0  0  0999 V2000
   -3.9312    0.2437   -0.1017 C   0  0  0  0  0  0  0  0  0  0  0  0
   -2.6990   -0.5746    0.1303 C   0  0  0  0  0  0  0  0  0  0  0  0
   -4.8580   -0.3860   -0.0589 H   0  0  0  0  0  0  0  0  0  0  0  0
   -3.7958    0.9300   -1.1128 H   0  0  0  0  0  0  0  0  0  0  0  0
   -3.9120    0.8747    0.8350 H   0  0  0  0  0  0  0  0  0  0  0  0
   -1.4136    0.1932    0.1683 C   0  0  0  0  0  0  0  0  0  0  0  0
   -2.4872   -1.3056   -0.7142 H   0  0  0  0  0  0  0  0  0  0  0  0
   -2.9364   -1.2495    1.0608 H   0  0  0  0  0  0  0  0  0  0  0  0
   -0.1642   -0.7340   -0.0778 C   0  0  0  0  0  0  0  0  0  0  0  0
   -1.2666    1.0317    1.0767 H   0  0  0  0  0  0  0  0  0  0  0  0
   -1.5269    0.7948   -0.6754 H   0  0  0  0  0  0  0  0  0  0  0  0
    0.0966   -1.4270    0.8701 H   0  0  0  0  0  0  0  0  0  0  0  0
    0.7770   -0.1054   -0.4531 H   0  0  0  0  0  0  0  0  0  0  0  0
   -0.5897   -1.1601   -0.7783 H   0  0  0  0  0  0  0  0  0  0  0  0
  1  3  1  0  0  0  0
  1  2  1  0  0  0  0
  1  5  1  0  0  0  0
  2  6  1  0  0  0  0
  2  8  1  0  0  0  0
  4  1  1  0  0  0  0
  6 10  1  0  0  0  0
  7  2  1  0  0  0  0
  9  6  1  0  0  0  0
  9 12  1  0  0  0  0
 11  6  1  0  0  0  0
 13  9  1  0  0  0  0
 14  9  1  0  0  0  0
M  END
$$$$
