butane_opt
 OpenBabel08242015393D

 14 13  0  0  0  0  0  0  0  0999 V2000
   -3.9847    0.3046   -0.0117 C   0  0  0  0  0  0  0  0  0  0  0  0
   -2.6740   -0.6320    0.0436 C   0  0  0  0  0  0  0  0  0  0  0  0
   -4.9199   -0.2955    0.1603 H   0  0  0  0  0  0  0  0  0  0  0  0
   -4.0734    0.9193   -0.8932 H   0  0  0  0  0  0  0  0  0  0  0  0
   -3.8971    0.8361    0.8108 H   0  0  0  0  0  0  0  0  0  0  0  0
   -1.3955    0.1288    0.0539 C   0  0  0  0  0  0  0  0  0  0  0  0
   -2.6300   -1.2848   -0.8089 H   0  0  0  0  0  0  0  0  0  0  0  0
   -2.7857   -1.4406    1.0185 H   0  0  0  0  0  0  0  0  0  0  0  0
   -0.1661   -0.6493    0.0052 C   0  0  0  0  0  0  0  0  0  0  0  0
   -1.4231    0.9052    0.9147 H   0  0  0  0  0  0  0  0  0  0  0  0
   -1.3388    0.7430   -0.8161 H   0  0  0  0  0  0  0  0  0  0  0  0
   -0.1855   -1.2424    0.8435 H   0  0  0  0  0  0  0  0  0  0  0  0
    0.8186   -0.1087   -0.0231 H   0  0  0  0  0  0  0  0  0  0  0  0
    0.0232   -1.3061   -0.8754 H   0  0  0  0  0  0  0  0  0  0  0  0
  1  2  1  0  0  0  0
  1  3  1  0  0  0  0
  1  5  1  0  0  0  0
  2  6  1  0  0  0  0
  2  8  1  0  0  0  0
  4  1  1  0  0  0  0
  6 10  1  0  0  0  0
  7  2  1  0  0  0  0
  9  6  1  0  0  0  0
  9 12  1  0  0  0  0
 11  6  1  0  0  0  0
 13  9  1  0  0  0  0
 14  9  1  0  0  0  0
M  END
$$$$
