butane_opt
 OpenBabel08242015393D

 14 13  0  0  0  0  0  0  0  0999 V2000
   -3.9234    0.2241    0.1195 C   0  0  0  0  0  0  0  0  0  0  0  0
   -2.7521   -0.5955   -0.0548 C   0  0  0  0  0  0  0  0  0  0  0  0
   -4.7868   -0.3352    0.1969 H   0  0  0  0  0  0  0  0  0  0  0  0
   -3.9649    0.6802   -0.7017 H   0  0  0  0  0  0  0  0  0  0  0  0
   -3.7796    1.0126    1.0505 H   0  0  0  0  0  0  0  0  0  0  0  0
   -1.4352    0.2443   -0.1208 C   0  0  0  0  0  0  0  0  0  0  0  0
   -2.8392   -1.2512   -0.8794 H   0  0  0  0  0  0  0  0  0  0  0  0
   -2.6099   -1.1505    0.7344 H   0  0  0  0  0  0  0  0  0  0  0  0
   -0.1138   -0.7415    0.1525 C   0  0  0  0  0  0  0  0  0  0  0  0
   -1.6790    0.8489    0.5773 H   0  0  0  0  0  0  0  0  0  0  0  0
   -1.2270    0.9962   -1.1744 H   0  0  0  0  0  0  0  0  0  0  0  0
   -0.2204   -1.1401    0.9924 H   0  0  0  0  0  0  0  0  0  0  0  0
    0.6936   -0.2435    0.2631 H   0  0  0  0  0  0  0  0  0  0  0  0
    0.0903   -1.4909   -0.7900 H   0  0  0  0  0  0  0  0  0  0  0  0
  1  3  1  0  0  0  0
  1  5  1  0  0  0  0
  2  1  1  0  0  0  0
  2  8  1  0  0  0  0
  4  1  1  0  0  0  0
  6  2  1  0  0  0  0
  6  9  1  0  0  0  0
  6 10  1  0  0  0  0
  7  2  1  0  0  0  0
  9 13  1  0  0  0  0
  9 12  1  0  0  0  0
 11  6  1  0  0  0  0
 14  9  1  0  0  0  0
M  END
$$$$
