butane_opt
 OpenBabel08242015393D

 14 13  0  0  0  0  0  0  0  0999 V2000
   -3.9089    0.2527   -0.0086 C   0  0  0  0  0  0  0  0  0  0  0  0
   -2.6915   -0.5913    0.0629 C   0  0  0  0  0  0  0  0  0  0  0  0
   -4.9315   -0.4371    0.2834 H   0  0  0  0  0  0  0  0  0  0  0  0
   -3.9214    0.9147   -0.9867 H   0  0  0  0  0  0  0  0  0  0  0  0
   -3.9294    0.5994    0.6626 H   0  0  0  0  0  0  0  0  0  0  0  0
   -1.4136    0.2383    0.0582 C   0  0  0  0  0  0  0  0  0  0  0  0
   -2.6515   -1.2150   -0.7960 H   0  0  0  0  0  0  0  0  0  0  0  0
   -2.6731   -1.2233    0.9047 H   0  0  0  0  0  0  0  0  0  0  0  0
   -0.1888   -0.7192    0.0171 C   0  0  0  0  0  0  0  0  0  0  0  0
   -1.6007    0.8100    0.8601 H   0  0  0  0  0  0  0  0  0  0  0  0
   -1.3925    0.8556   -0.9123 H   0  0  0  0  0  0  0  0  0  0  0  0
   -0.0606   -1.1436    0.7684 H   0  0  0  0  0  0  0  0  0  0  0  0
    0.6977   -0.1473    0.1066 H   0  0  0  0  0  0  0  0  0  0  0  0
   -0.1244   -1.6617   -1.0451 H   0  0  0  0  0  0  0  0  0  0  0  0
  1  2  1  0  0  0  0
  1  3  1  0  0  0  0
  1  5  1  0  0  0  0
  2  8  1  0  0  0  0
  4  1  1  0  0  0  0
  6  2  1  0  0  0  0
  6 10  1  0  0  0  0
  7  2  1  0  0  0  0
  9  6  1  0  0  0  0
  9 13  1  0  0  0  0
  9 12  1  0  0  0  0
 11  6  1  0  0  0  0
 14  9  1  0  0  0  0
M  END
$$$$
