14
butane_opt
C  -3.968414   0.250466   0.115378
C  -2.691268  -0.578993  -0.051987
H  -4.880979  -0.381836   0.223591
H  -4.003970   0.765608  -0.622552
H  -3.946693   0.942109   1.050935
C  -1.402614   0.193342  -0.150839
H  -2.939335  -1.280917  -0.951138
H  -2.540137  -1.360287   0.872183
C  -0.155340  -0.708105   0.128829
H  -1.462349   0.841564   0.697060
H  -1.348350   0.858639  -1.080846
H  -0.370183  -1.127736   0.989237
H   0.721805  -0.139956   0.536366
H   0.352113  -1.475632  -0.787478
