14
butane_opt
C  -3.896983   0.263980  -0.034400
C  -2.694686  -0.625673   0.070167
H  -4.758014  -0.329308   0.425404
H  -4.074126   1.246437  -1.173079
H  -3.918088   0.699092   0.554463
C  -1.440701   0.168397   0.086764
H  -2.554115  -1.299226  -0.742169
H  -2.750866  -1.238352   0.998410
C  -0.173452  -0.663074  -0.039371
H  -1.295818   0.946400   0.971599
H  -1.542809   0.579402  -0.624538
H  -0.264720  -1.248782   0.843407
H   0.773183  -0.071948   0.130287
H  -0.165191  -1.464610  -0.959771
