14
butane_opt
C  -3.948141   0.293717   0.146967
C  -2.670434  -0.656652  -0.107572
H  -4.827675  -0.324874   0.338268
H  -4.252126   1.129763  -0.866024
H  -3.759193   0.797558   0.848970
C  -1.392533   0.155155  -0.060002
H  -2.556962  -1.519667  -1.156455
H  -2.503158  -1.100147   0.679541
C  -0.227417  -0.657554   0.121199
H  -1.379008   0.841089   0.756677
H  -1.270951   0.838727  -1.034767
H  -0.340985  -1.538372   1.203749
H   0.829027   0.037896   0.060248
H  -0.106746  -1.232503  -0.598890
