14
butane_opt
C  -3.922692   0.234022   0.081927
C  -2.707511  -0.590229   0.021181
H  -4.820554  -0.231643  -0.226769
H  -3.735767   0.535766  -0.659748
H  -4.073088   1.215029   1.100995
C  -1.398944   0.213526  -0.088146
H  -2.632336  -1.174796  -0.819342
H  -2.709316  -1.246650   0.872724
C  -0.209682  -0.707388   0.072177
H  -1.325573   0.776954   0.725704
H  -1.352116   0.795468  -1.025321
H  -0.231352  -1.445972   1.079226
H   0.700787  -0.132090   0.189001
H   0.015582  -1.372034  -0.779033
