butane_opt
 OpenBabel08242015393D

 14 13  0  0  0  0  0  0  0  0999 V2000
   -3.9235    0.2874   -0.0263 C   0  0  0  0  0  0  0  0  0  0  0  0
   -2.6640   -0.6129    0.0443 C   0  0  0  0  0  0  0  0  0  0  0  0
   -4.9599   -0.3962    0.3093 H   0  0  0  0  0  0  0  0  0  0  0  0
   -4.0230    1.0076   -1.0140 H   0  0  0  0  0  0  0  0  0  0  0  0
   -3.9377    0.8311    0.7252 H   0  0  0  0  0  0  0  0  0  0  0  0
   -1.3962    0.1459    0.0825 C   0  0  0  0  0  0  0  0  0  0  0  0
   -2.6463   -1.2908   -0.7895 H   0  0  0  0  0  0  0  0  0  0  0  0
   -2.7935   -1.2132    1.0056 H   0  0  0  0  0  0  0  0  0  0  0  0
   -0.2090   -0.6659   -0.0215 C   0  0  0  0  0  0  0  0  0  0  0  0
   -1.4048    0.8092    0.9274 H   0  0  0  0  0  0  0  0  0  0  0  0
   -1.3329    0.6949   -0.7170 H   0  0  0  0  0  0  0  0  0  0  0  0
   -0.1410   -1.3417    0.8950 H   0  0  0  0  0  0  0  0  0  0  0  0
    0.7214   -0.0717   -0.0493 H   0  0  0  0  0  0  0  0  0  0  0  0
   -0.1889   -1.3522   -0.8097 H   0  0  0  0  0  0  0  0  0  0  0  0
  1  2  1  0  0  0  0
  1  3  1  0  0  0  0
  1  5  1  0  0  0  0
  2  6  1  0  0  0  0
  2  8  1  0  0  0  0
  4  1  1  0  0  0  0
  6 10  1  0  0  0  0
  7  2  1  0  0  0  0
  9  6  1  0  0  0  0
  9 12  1  0  0  0  0
 11  6  1  0  0  0  0
 13  9  1  0  0  0  0
 14  9  1  0  0  0  0
M  END
$$$$
