14
butane_opt
C  -3.982178   0.298255  -0.099860
C  -2.705342  -0.685259   0.157961
H  -4.769954  -0.214942  -0.096837
H  -3.831105   0.930675  -1.115240
H  -4.078808   0.907794   0.681904
C  -1.395465   0.189279   0.157330
H  -2.551110  -1.308794  -0.669582
H  -2.616532  -1.279314   1.053910
C  -0.170170  -0.652414  -0.083230
H  -1.297423   0.870253   1.057254
H  -1.382106   0.702070  -0.625209
H   0.140135  -1.453202   0.830988
H   0.760642  -0.018700  -0.313047
H  -0.395589  -1.373982  -0.949394
