14
butane_opt
C  -3.898401   0.244484   0.089588
C  -2.711369  -0.616065  -0.084512
H  -4.871764  -0.383621   0.502124
H  -4.141426   0.976380  -0.878191
H  -3.817433   0.658062   0.858071
C  -1.441150   0.239424  -0.036093
H  -2.841172  -1.249302  -0.979954
H  -2.638125  -1.202793   0.799192
C  -0.140448  -0.727394   0.095527
H  -1.680185   0.981469   0.841390
H  -1.285814   0.917383  -0.971488
H  -0.152086  -1.344052   1.067003
H   0.700181  -0.111899   0.120240
H   0.012974  -1.420841  -0.727704
