14
butane_opt
C  -3.978690   0.240504  -0.089214
C  -2.723962  -0.589254   0.100498
H  -4.993158  -0.407615   0.448263
H  -4.140282   1.189008  -1.207607
H  -3.758559   0.480806   0.599701
C  -1.385291   0.240189   0.121843
H  -2.691466  -1.243238  -0.687903
H  -2.725847  -1.294015   1.066923
C  -0.106090  -0.723097  -0.056800
H  -1.338866   1.033248   1.084137
H  -1.470278   0.842696  -0.649679
H  -0.042998  -1.246964   0.801073
H   0.674680  -0.181556   0.191711
H  -0.180685  -1.696458  -1.183789
