butane_opt
 OpenBabel08242015393D

 14 13  0  0  0  0  0  0  0  0999 V2000
   -3.9116    0.2985   -0.0129 C   0  0  0  0  0  0  0  0  0  0  0  0
   -2.6852   -0.6363    0.0803 C   0  0  0  0  0  0  0  0  0  0  0  0
   -4.7105   -0.2652    0.1143 H   0  0  0  0  0  0  0  0  0  0  0  0
   -3.9507    1.1817   -1.0516 H   0  0  0  0  0  0  0  0  0  0  0  0
   -4.1504    0.6704    0.6284 H   0  0  0  0  0  0  0  0  0  0  0  0
   -1.3860    0.1289    0.0805 C   0  0  0  0  0  0  0  0  0  0  0  0
   -2.5822   -1.3970   -0.8942 H   0  0  0  0  0  0  0  0  0  0  0  0
   -2.6705   -1.2543    0.9855 H   0  0  0  0  0  0  0  0  0  0  0  0
   -0.2258   -0.6552   -0.0257 C   0  0  0  0  0  0  0  0  0  0  0  0
   -1.3460    0.9347    1.0143 H   0  0  0  0  0  0  0  0  0  0  0  0
   -1.3354    0.7024   -0.7619 H   0  0  0  0  0  0  0  0  0  0  0  0
   -0.1318   -1.3169    0.8721 H   0  0  0  0  0  0  0  0  0  0  0  0
    0.7504    0.0226   -0.0409 H   0  0  0  0  0  0  0  0  0  0  0  0
   -0.3976   -1.3642   -0.9090 H   0  0  0  0  0  0  0  0  0  0  0  0
  1  2  1  0  0  0  0
  1  3  1  0  0  0  0
  1  5  1  0  0  0  0
  2  6  1  0  0  0  0
  2  8  1  0  0  0  0
  4  1  1  0  0  0  0
  6 10  1  0  0  0  0
  7  2  1  0  0  0  0
  9  6  1  0  0  0  0
  9 12  1  0  0  0  0
 11  6  1  0  0  0  0
 13  9  1  0  0  0  0
 14  9  1  0  0  0  0
M  END
$$$$
