butane_opt
 OpenBabel08242015393D

 14 13  0  0  0  0  0  0  0  0999 V2000
   -3.9440    0.2441    0.1012 C   0  0  0  0  0  0  0  0  0  0  0  0
   -2.7492   -0.5943   -0.0544 C   0  0  0  0  0  0  0  0  0  0  0  0
   -4.8078   -0.3115   -0.0326 H   0  0  0  0  0  0  0  0  0  0  0  0
   -3.8983    0.8962   -0.7839 H   0  0  0  0  0  0  0  0  0  0  0  0
   -3.9773    0.8502    0.8825 H   0  0  0  0  0  0  0  0  0  0  0  0
   -1.4042    0.2162   -0.0171 C   0  0  0  0  0  0  0  0  0  0  0  0
   -2.8812   -1.4974   -1.0561 H   0  0  0  0  0  0  0  0  0  0  0  0
   -2.6117   -1.0820    0.7408 H   0  0  0  0  0  0  0  0  0  0  0  0
   -0.1519   -0.7161    0.0970 C   0  0  0  0  0  0  0  0  0  0  0  0
   -1.2967    0.8934    0.8364 H   0  0  0  0  0  0  0  0  0  0  0  0
   -1.3601    0.9846   -0.9295 H   0  0  0  0  0  0  0  0  0  0  0  0
    0.1385   -1.6913    1.1341 H   0  0  0  0  0  0  0  0  0  0  0  0
    0.7632   -0.1789   -0.2885 H   0  0  0  0  0  0  0  0  0  0  0  0
   -0.1131   -1.1232   -0.5599 H   0  0  0  0  0  0  0  0  0  0  0  0
  1  5  1  0  0  0  0
  2  6  1  0  0  0  0
  2  1  1  0  0  0  0
  2  8  1  0  0  0  0
  3  1  1  0  0  0  0
  4  1  1  0  0  0  0
  6  9  1  0  0  0  0
  6 10  1  0  0  0  0
  7  2  1  0  0  0  0
  9 12  1  0  0  0  0
 11  6  1  0  0  0  0
 13  9  1  0  0  0  0
 14  9  1  0  0  0  0
M  END
$$$$
