14
butane_opt
C  -3.958675   0.319717   0.105203
C  -2.685084  -0.678250  -0.039954
H  -4.849709  -0.314444   0.166404
H  -4.241017   0.914139  -0.782066
H  -3.839175   0.886914   0.822489
C  -1.389652   0.159077  -0.104177
H  -2.774400  -1.407180  -0.896097
H  -2.511150  -1.347093   0.895754
C  -0.172235  -0.640910   0.130765
H  -1.431560   0.820487   0.770389
H  -1.338223   0.841802  -1.072432
H  -0.270492  -1.111549   0.916699
H   0.731693  -0.091388   0.349358
H  -0.054750  -1.571656  -0.874236
