14
butane_opt
C  -3.926958   0.276463   0.087495
C  -2.735545  -0.592942   0.010834
H  -4.912698  -0.399350   0.121406
H  -4.004219   0.840072  -0.752566
H  -3.981051   0.914624   0.882253
C  -1.382027   0.184487  -0.126355
H  -3.013857  -1.410527  -0.912100
H  -2.572408  -1.266594   0.956016
C  -0.127959  -0.710296   0.108319
H  -1.524154   0.813313   0.732862
H  -1.413688   0.871039  -1.061447
H  -0.427261  -1.010840   0.865242
H   0.752611  -0.038669   0.473185
H   0.144829  -1.689192  -0.885315
