14
butane_opt
C  -3.922152   0.239955   0.054175
C  -2.687194  -0.588324  -0.048515
H  -4.852776  -0.373902   0.436232
H  -4.161179   1.010518  -0.884640
H  -3.650465   0.558930   0.766540
C  -1.425054   0.240753  -0.024096
H  -2.598715  -1.250544  -0.827772
H  -2.623236  -1.252992   0.841203
C  -0.184273  -0.713705   0.081410
H  -1.574852   0.950475   0.885475
H  -1.261196   0.755790  -0.791766
H  -0.169934  -1.298635   0.979634
H   0.705350  -0.267882   0.087544
H  -0.191093  -1.451731  -0.856911
