14
butane_opt
C  -3.922500   0.238118   0.103194
C  -2.708598  -0.569375  -0.073033
H  -4.887100  -0.377286   0.086271
H  -3.946742   0.920052  -0.832138
H  -3.691779   0.950825   1.103443
C  -1.434662   0.186183  -0.063549
H  -2.795568  -1.404359  -1.071684
H  -2.747644  -1.076813   0.808843
C  -0.153963  -0.720940   0.112781
H  -1.434415   1.013321   0.867798
H  -1.344134   0.696114  -0.921798
H  -0.150609  -1.665734   1.193357
H   0.834081  -0.109636  -0.275264
H  -0.214199  -1.005556  -0.446050
