14
butane_opt
C  -3.956178   0.291338  -0.055687
C  -2.671233  -0.650982   0.149774
H  -4.772661  -0.249397   0.080125
H  -3.921109   1.029094  -1.039966
H  -4.109837   0.786707   0.670284
C  -1.394153   0.134099   0.069607
H  -2.524407  -1.267770  -0.564884
H  -2.564328  -1.282548   1.009591
C  -0.221403  -0.665408  -0.056368
H  -1.293319   0.831076   0.919052
H  -1.416663   0.845324  -0.886664
H  -0.339122  -0.812693   0.632555
H   0.768530  -0.000604   0.358131
H   0.042569  -1.655518  -1.083084
