14
butane_opt
C  -3.927185   0.278134  -0.098368
C  -2.696395  -0.603768   0.141625
H  -4.933292  -0.283932  -0.116363
H  -3.810786   0.906217  -1.035027
H  -4.095296   0.975270   0.756373
C  -1.377639   0.122054   0.122816
H  -2.533072  -1.155067  -0.571878
H  -2.704304  -1.334309   1.092819
C  -0.189618  -0.669889  -0.081356
H  -1.201218   0.926271   1.184065
H  -1.556366   0.563468  -0.583178
H  -0.106434  -1.289615   0.850005
H   0.677058  -0.110676  -0.303584
H  -0.452754  -1.192307  -0.835979
