14
butane_opt
C  -3.910424   0.247376  -0.054191
C  -2.682087  -0.607010   0.108648
H  -4.829401  -0.343871   0.196998
H  -4.027230   0.936834  -1.022798
H  -3.917553   0.640211   0.550726
C  -1.428386   0.233050   0.056347
H  -2.702425  -1.049944  -0.529372
H  -2.790736  -1.416131   1.195974
C  -0.172798  -0.723495  -0.021816
H  -1.444804   1.039578   0.969512
H  -1.483281   0.783336  -0.729952
H  -0.266097  -0.890176   0.573525
H   0.791927  -0.165029   0.262828
H  -0.018233  -1.825891  -1.177121
