14
butane_opt
C  -3.965138   0.236966   0.130427
C  -2.718513  -0.567604  -0.081627
H  -4.907735  -0.394946   0.207170
H  -4.008218   0.741420  -0.682857
H  -3.699952   0.915224   1.050692
C  -1.444656   0.231863  -0.145922
H  -2.761350  -1.322657  -0.930685
H  -2.709224  -1.325264   0.864303
C  -0.120740  -0.727675   0.158780
H  -1.493788   0.865753   0.684821
H  -1.214650   0.897398  -1.042053
H  -0.124947  -1.276031   0.984604
H   0.800552  -0.210516   0.358797
H   0.078533  -1.440702  -0.792480
