butane_opt
 OpenBabel08242015393D

 14 13  0  0  0  0  0  0  0  0999 V2000
   -3.9075    0.2225   -0.0412 C   0  0  0  0  0  0  0  0  0  0  0  0
   -2.7105   -0.5366    0.1132 C   0  0  0  0  0  0  0  0  0  0  0  0
   -4.9247   -0.4358    0.2108 H   0  0  0  0  0  0  0  0  0  0  0  0
   -3.8819    0.8791   -0.9945 H   0  0  0  0  0  0  0  0  0  0  0  0
   -3.8433    0.8023    0.8154 H   0  0  0  0  0  0  0  0  0  0  0  0
   -1.4166    0.1928    0.0021 C   0  0  0  0  0  0  0  0  0  0  0  0
   -2.6805   -1.1442   -0.6641 H   0  0  0  0  0  0  0  0  0  0  0  0
   -2.6365   -1.2956    1.0651 H   0  0  0  0  0  0  0  0  0  0  0  0
   -0.1711   -0.7293   -0.0024 C   0  0  0  0  0  0  0  0  0  0  0  0
   -1.2885    0.9555    0.9760 H   0  0  0  0  0  0  0  0  0  0  0  0
   -1.5481    0.8256   -0.8804 H   0  0  0  0  0  0  0  0  0  0  0  0
   -0.3822   -1.0298    0.6998 H   0  0  0  0  0  0  0  0  0  0  0  0
    0.6338   -0.1581    0.4501 H   0  0  0  0  0  0  0  0  0  0  0  0
    0.0295   -1.7049   -1.1276 H   0  0  0  0  0  0  0  0  0  0  0  0
  1  2  1  0  0  0  0
  1  3  1  0  0  0  0
  1  5  1  0  0  0  0
  2  8  1  0  0  0  0
  4  1  1  0  0  0  0
  6  2  1  0  0  0  0
  6 10  1  0  0  0  0
  7  2  1  0  0  0  0
  9  6  1  0  0  0  0
  9 13  1  0  0  0  0
  9 12  1  0  0  0  0
 11  6  1  0  0  0  0
 14  9  1  0  0  0  0
M  END
$$$$
