14
butane_opt
C  -3.933893   0.321747   0.167111
C  -2.694758  -0.642585  -0.117996
H  -4.978116  -0.380559   0.431632
H  -4.116853   1.195032  -0.880717
H  -3.867133   0.737235   0.836266
C  -1.369901   0.133147  -0.093895
H  -2.764398  -1.568400  -1.132691
H  -2.594193  -1.158453   0.613420
C  -0.194274  -0.668563   0.142895
H  -1.500957   0.783370   0.682412
H  -1.279533   0.761010  -0.992994
H  -0.314739  -1.368016   1.205985
H   0.833681   0.057298   0.202195
H  -0.143137  -1.239586  -0.708906
