butane_opt
 OpenBabel08242015393D

 14 13  0  0  0  0  0  0  0  0999 V2000
   -4.0024    0.2247    0.0598 C   0  0  0  0  0  0  0  0  0  0  0  0
   -2.6848   -0.6045   -0.0553 C   0  0  0  0  0  0  0  0  0  0  0  0
   -4.9676   -0.4486    0.1208 H   0  0  0  0  0  0  0  0  0  0  0  0
   -3.8853    0.8428   -0.8355 H   0  0  0  0  0  0  0  0  0  0  0  0
   -3.9185    1.0017    0.9782 H   0  0  0  0  0  0  0  0  0  0  0  0
   -1.4018    0.2579    0.0252 C   0  0  0  0  0  0  0  0  0  0  0  0
   -2.7875   -1.2588   -0.9163 H   0  0  0  0  0  0  0  0  0  0  0  0
   -2.7745   -1.1098    0.7808 H   0  0  0  0  0  0  0  0  0  0  0  0
   -0.1161   -0.7296    0.0757 C   0  0  0  0  0  0  0  0  0  0  0  0
   -1.4396    0.8141    0.7925 H   0  0  0  0  0  0  0  0  0  0  0  0
   -1.4071    0.8828   -0.9035 H   0  0  0  0  0  0  0  0  0  0  0  0
    0.1438   -1.5734    1.1396 H   0  0  0  0  0  0  0  0  0  0  0  0
    0.7048   -0.2428   -0.3749 H   0  0  0  0  0  0  0  0  0  0  0  0
   -0.2121   -1.1671   -0.5667 H   0  0  0  0  0  0  0  0  0  0  0  0
  1  3  1  0  0  0  0
  1  5  1  0  0  0  0
  2  6  1  0  0  0  0
  2  1  1  0  0  0  0
  2  8  1  0  0  0  0
  4  1  1  0  0  0  0
  6  9  1  0  0  0  0
  6 10  1  0  0  0  0
  7  2  1  0  0  0  0
  9 12  1  0  0  0  0
 11  6  1  0  0  0  0
 13  9  1  0  0  0  0
 14  9  1  0  0  0  0
M  END
$$$$
