butane_opt
 OpenBabel08242015393D

 14 12  0  0  0  0  0  0  0  0999 V2000
   -3.9161    0.2242    0.1004 C   0  0  0  0  0  0  0  0  0  0  0  0
   -2.6704   -0.5865   -0.0849 C   0  0  0  0  0  0  0  0  0  0  0  0
   -4.9187   -0.4048   -0.0303 H   0  0  0  0  0  0  0  0  0  0  0  0
   -4.1216    0.7442   -0.7069 H   0  0  0  0  0  0  0  0  0  0  0  0
   -3.7940    1.1206    1.0846 H   0  0  0  0  0  0  0  0  0  0  0  0
   -1.4395    0.1982   -0.0136 C   0  0  0  0  0  0  0  0  0  0  0  0
   -2.8259   -1.4115   -1.0449 H   0  0  0  0  0  0  0  0  0  0  0  0
   -2.6644   -1.0172    0.7198 H   0  0  0  0  0  0  0  0  0  0  0  0
   -0.1532   -0.7050    0.1144 C   0  0  0  0  0  0  0  0  0  0  0  0
   -1.4381    0.7790    0.7393 H   0  0  0  0  0  0  0  0  0  0  0  0
   -1.4052    1.0454   -1.0596 H   0  0  0  0  0  0  0  0  0  0  0  0
   -0.0805   -1.7830    1.2250 H   0  0  0  0  0  0  0  0  0  0  0  0
    0.6744   -0.1640   -0.3325 H   0  0  0  0  0  0  0  0  0  0  0  0
   -0.2631   -0.9775   -0.5010 H   0  0  0  0  0  0  0  0  0  0  0  0
  1  5  1  0  0  0  0
  2  6  1  0  0  0  0
  2  1  1  0  0  0  0
  2  8  1  0  0  0  0
  3  1  1  0  0  0  0
  4  1  1  0  0  0  0
  6  9  1  0  0  0  0
  6 10  1  0  0  0  0
  7  2  1  0  0  0  0
 11  6  1  0  0  0  0
 13  9  1  0  0  0  0
 14  9  1  0  0  0  0
M  RAD  2   9   2  12   2
M  END
$$$$
