14
butane_opt
C  -3.907532   0.222543  -0.041209
C  -2.710518  -0.536567   0.113165
H  -4.924703  -0.435826   0.210831
H  -3.881937   0.879068  -0.994512
H  -3.843268   0.802276   0.815406
C  -1.416596   0.192799   0.002087
H  -2.680545  -1.144179  -0.664076
H  -2.636474  -1.295639   1.065095
C  -0.171107  -0.729251  -0.002432
H  -1.288531   0.955462   0.975951
H  -1.548108   0.825592  -0.880372
H  -0.382235  -1.029768   0.699823
H   0.633754  -0.158137   0.450117
H   0.029475  -1.704921  -1.127634
