14
butane_opt
C  -3.939725   0.297093  -0.087151
C  -2.651292  -0.644346   0.174272
H  -4.771133  -0.310232  -0.306034
H  -3.831890   0.762701  -0.863835
H  -4.211817   1.188343   0.915193
C  -1.383120   0.143722   0.061145
H  -2.605759  -1.289172  -0.581438
H  -2.823007  -1.361054   1.224301
C  -0.220897  -0.645201  -0.079728
H  -1.211674   0.922874   0.978086
H  -1.369884   0.620866  -0.684901
H  -0.231837  -1.369844   0.892910
H   0.675172  -0.086367   0.028503
H  -0.295440  -1.364372  -0.957448
