butane_opt
 OpenBabel08242015393D

 14 13  0  0  0  0  0  0  0  0999 V2000
   -3.9382    0.2231    0.0994 C   0  0  0  0  0  0  0  0  0  0  0  0
   -2.6785   -0.5694   -0.0291 C   0  0  0  0  0  0  0  0  0  0  0  0
   -4.8384   -0.4778    0.2571 H   0  0  0  0  0  0  0  0  0  0  0  0
   -3.9783    0.8017   -0.7869 H   0  0  0  0  0  0  0  0  0  0  0  0
   -3.8960    0.8948    0.9157 H   0  0  0  0  0  0  0  0  0  0  0  0
   -1.4403    0.2332   -0.0725 C   0  0  0  0  0  0  0  0  0  0  0  0
   -2.7457   -1.3319   -0.9559 H   0  0  0  0  0  0  0  0  0  0  0  0
   -2.6179   -1.0669    0.6797 H   0  0  0  0  0  0  0  0  0  0  0  0
   -0.1666   -0.7138    0.1079 C   0  0  0  0  0  0  0  0  0  0  0  0
   -1.3003    0.6997    0.6499 H   0  0  0  0  0  0  0  0  0  0  0  0
   -1.3956    1.0100   -1.0783 H   0  0  0  0  0  0  0  0  0  0  0  0
   -0.3051   -1.3519    1.0345 H   0  0  0  0  0  0  0  0  0  0  0  0
    0.6673   -0.1979    0.3124 H   0  0  0  0  0  0  0  0  0  0  0  0
    0.0933   -1.5496   -0.8369 H   0  0  0  0  0  0  0  0  0  0  0  0
  1  3  1  0  0  0  0
  1  5  1  0  0  0  0
  2  1  1  0  0  0  0
  2  8  1  0  0  0  0
  4  1  1  0  0  0  0
  6  2  1  0  0  0  0
  6  9  1  0  0  0  0
  6 10  1  0  0  0  0
  7  2  1  0  0  0  0
  9 13  1  0  0  0  0
  9 12  1  0  0  0  0
 11  6  1  0  0  0  0
 14  9  1  0  0  0  0
M  END
$$$$
