butane_opt
 OpenBabel08242015393D

 14 12  0  0  0  0  0  0  0  0999 V2000
   -3.8977    0.2095    0.0740 C   0  0  0  0  0  0  0  0  0  0  0  0
   -2.6937   -0.5739    0.0310 C   0  0  0  0  0  0  0  0  0  0  0  0
   -4.8595   -0.4419   -0.4212 H   0  0  0  0  0  0  0  0  0  0  0  0
   -3.7235    0.4564   -0.5316 H   0  0  0  0  0  0  0  0  0  0  0  0
   -4.0966    1.3380    1.2357 H   0  0  0  0  0  0  0  0  0  0  0  0
   -1.4391    0.2223   -0.0970 C   0  0  0  0  0  0  0  0  0  0  0  0
   -2.5516   -1.3182   -0.8600 H   0  0  0  0  0  0  0  0  0  0  0  0
   -2.6530   -1.0906    0.8594 H   0  0  0  0  0  0  0  0  0  0  0  0
   -0.1889   -0.7078    0.0831 C   0  0  0  0  0  0  0  0  0  0  0  0
   -1.3719    0.7867    0.7829 H   0  0  0  0  0  0  0  0  0  0  0  0
   -1.4468    1.0746   -1.1210 H   0  0  0  0  0  0  0  0  0  0  0  0
   -0.1235   -1.5917    1.1250 H   0  0  0  0  0  0  0  0  0  0  0  0
    0.6178   -0.2524    0.0395 H   0  0  0  0  0  0  0  0  0  0  0  0
   -0.1469   -1.2803   -0.6783 H   0  0  0  0  0  0  0  0  0  0  0  0
  2  1  1  0  0  0  0
  2  8  1  0  0  0  0
  3  1  1  0  0  0  0
  4  1  1  0  0  0  0
  6  2  1  0  0  0  0
  6  9  1  0  0  0  0
  6 10  1  0  0  0  0
  7  2  1  0  0  0  0
  9 12  1  0  0  0  0
 11  6  1  0  0  0  0
 13  9  1  0  0  0  0
 14  9  1  0  0  0  0
M  RAD  2   1   2   5   2
M  END
$$$$
