14
butane_opt
C  -3.944087   0.243534  -0.063967
C  -2.696369  -0.587041   0.102394
H  -4.852124  -0.299053   0.388545
H  -4.039650   1.321242  -1.204907
H  -3.773941   0.566605   0.575980
C  -1.383998   0.153049   0.106055
H  -2.754029  -1.259079  -0.787089
H  -2.707277  -1.147532   0.996936
C  -0.182058  -0.694105  -0.021102
H  -1.408151   0.930380   1.079158
H  -1.448930   0.849229  -0.789030
H  -0.169698  -1.063861   0.716813
H   0.803505  -0.069808   0.037462
H  -0.201860  -1.689723  -1.144113
