14
butane_opt
C  -3.953750   0.294648  -0.079121
C  -2.680750  -0.632932   0.163315
H  -4.816481  -0.242650  -0.424905
H  -3.678385   0.736997  -0.867335
H  -4.162349   1.123720   0.893580
C  -1.404499   0.115078   0.072817
H  -2.428420  -1.140074  -0.430917
H  -2.648612  -1.413132   1.197466
C  -0.203393  -0.638137  -0.045801
H  -1.355080   0.809537   0.958346
H  -1.362004   0.623624  -0.751605
H  -0.104560  -1.158418   0.770218
H   0.734842   0.066211  -0.166530
H  -0.329683  -1.531075  -1.088368
