butane_opt
 OpenBabel08242015393D

 14 12  0  0  0  0  0  0  0  0999 V2000
   -4.0092    0.2950    0.0350 C   0  0  0  0  0  0  0  0  0  0  0  0
   -2.6707   -0.6762    0.0126 C   0  0  0  0  0  0  0  0  0  0  0  0
   -4.8807   -0.3023    0.0189 H   0  0  0  0  0  0  0  0  0  0  0  0
   -3.9636    0.8181   -0.8262 H   0  0  0  0  0  0  0  0  0  0  0  0
   -4.1032    1.0747    0.8797 H   0  0  0  0  0  0  0  0  0  0  0  0
   -1.3833    0.1863    0.0366 C   0  0  0  0  0  0  0  0  0  0  0  0
   -2.7610   -1.5286   -0.9999 H   0  0  0  0  0  0  0  0  0  0  0  0
   -2.6604   -1.0850    0.8115 H   0  0  0  0  0  0  0  0  0  0  0  0
   -0.1363   -0.6540    0.0284 C   0  0  0  0  0  0  0  0  0  0  0  0
   -1.2538    0.8266    0.8402 H   0  0  0  0  0  0  0  0  0  0  0  0
   -1.3651    0.8611   -0.8951 H   0  0  0  0  0  0  0  0  0  0  0  0
   -0.1055   -1.7203    1.2247 H   0  0  0  0  0  0  0  0  0  0  0  0
    0.7466   -0.1333   -0.2848 H   0  0  0  0  0  0  0  0  0  0  0  0
   -0.2806   -1.0950   -0.6227 H   0  0  0  0  0  0  0  0  0  0  0  0
  1  5  1  0  0  0  0
  2  1  1  0  0  0  0
  2  6  1  0  0  0  0
  2  8  1  0  0  0  0
  3  1  1  0  0  0  0
  4  1  1  0  0  0  0
  6 10  1  0  0  0  0
  7  2  1  0  0  0  0
  9  6  1  0  0  0  0
 11  6  1  0  0  0  0
 13  9  1  0  0  0  0
 14  9  1  0  0  0  0
M  RAD  2   9   2  12   2
M  END
$$$$
