14
butane_opt
C  -3.939962   0.288850   0.107994
C  -2.693771  -0.646181  -0.061521
H  -4.757658  -0.233564   0.323847
H  -4.177048   0.965245  -0.816575
H  -3.799889   0.864923   0.902308
C  -1.420563   0.122413  -0.081792
H  -2.695882  -1.473090  -1.014412
H  -2.487366  -0.957391   0.657507
C  -0.180669  -0.670516   0.123944
H  -1.312641   0.780719   0.747494
H  -1.492388   0.823932  -1.033158
H  -0.237755  -1.351643   1.022047
H   0.825643   0.119908   0.211805
H  -0.097945  -1.125371  -0.598458
