14
butane_opt
C  -3.982591   0.321986   0.090139
C  -2.673022  -0.688521   0.004050
H  -4.831147  -0.223406  -0.328276
H  -3.961899   0.513153  -0.554170
H  -4.068491   1.321257   1.127458
C  -1.359732   0.176041  -0.099334
H  -2.669690  -1.445698  -0.902244
H  -2.729097  -1.281522   0.852339
C  -0.212294  -0.669438   0.093669
H  -1.235289   0.844008   0.658050
H  -1.347685   0.737666  -0.948211
H  -0.203855  -1.471250   1.146182
H   0.789113  -0.087086  -0.083215
H  -0.056199  -1.037859  -0.517333
