14
butane_opt
C  -3.984739   0.304647  -0.011749
C  -2.673989  -0.632028   0.043575
H  -4.919928  -0.295484   0.160260
H  -4.073375   0.919306  -0.893195
H  -3.897050   0.836133   0.810778
C  -1.395495   0.128830   0.053937
H  -2.630019  -1.284828  -0.808911
H  -2.785660  -1.440575   1.018538
C  -0.166102  -0.649262   0.005165
H  -1.423101   0.905247   0.914684
H  -1.338798   0.743001  -0.816124
H  -0.185531  -1.242378   0.843457
H   0.818642  -0.108660  -0.023141
H   0.023156  -1.306059  -0.875401
