14
butane_opt
C  -3.923558   0.307197  -0.057707
C  -2.706704  -0.665748   0.162858
H  -4.667880  -0.242827  -0.111242
H  -3.787688   1.033522  -1.016657
H  -4.124370   0.829397   0.666524
C  -1.401903   0.165703   0.087597
H  -2.656247  -1.281629  -0.627470
H  -2.674205  -1.377392   1.075696
C  -0.181370  -0.669290  -0.068133
H  -1.380109   0.831316   0.915698
H  -1.347097   0.692628  -0.814561
H  -0.289664  -0.999477   0.653501
H   0.744566  -0.068146   0.247638
H  -0.294740  -1.520828  -1.080174
