14
butane_opt
C  -3.959606   0.298973  -0.020090
C  -2.664712  -0.648612   0.072285
H  -4.709222  -0.244252  -0.169048
H  -3.716897   0.961477  -0.956739
H  -4.193107   1.006501   0.861659
C  -1.390541   0.147104   0.070812
H  -2.616315  -1.281571  -0.726902
H  -2.744282  -1.344843   1.041042
C  -0.215105  -0.650085  -0.027305
H  -1.226879   0.828109   1.040298
H  -1.322552   0.512420  -0.628652
H  -0.084098  -1.490216   0.963473
H   0.706826  -0.019846  -0.321547
H  -0.380041  -1.121307  -0.787024
