butane_opt
 OpenBabel08242015393D

 14 13  0  0  0  0  0  0  0  0999 V2000
   -4.0328    0.3028   -0.0127 C   0  0  0  0  0  0  0  0  0  0  0  0
   -2.6934   -0.6440    0.1046 C   0  0  0  0  0  0  0  0  0  0  0  0
   -4.8804   -0.2135   -0.2855 H   0  0  0  0  0  0  0  0  0  0  0  0
   -3.8576    0.6177   -0.7251 H   0  0  0  0  0  0  0  0  0  0  0  0
   -4.1146    1.2525    0.9699 H   0  0  0  0  0  0  0  0  0  0  0  0
   -1.3299    0.1428    0.0008 C   0  0  0  0  0  0  0  0  0  0  0  0
   -2.6679   -1.2678   -0.7958 H   0  0  0  0  0  0  0  0  0  0  0  0
   -2.7407   -1.4912    1.0999 H   0  0  0  0  0  0  0  0  0  0  0  0
   -0.1489   -0.6649    0.0251 C   0  0  0  0  0  0  0  0  0  0  0  0
   -1.4580    0.8429    0.7974 H   0  0  0  0  0  0  0  0  0  0  0  0
   -1.2543    0.8007   -0.8783 H   0  0  0  0  0  0  0  0  0  0  0  0
   -0.1665   -1.1993    0.8309 H   0  0  0  0  0  0  0  0  0  0  0  0
    0.7749   -0.0493   -0.1032 H   0  0  0  0  0  0  0  0  0  0  0  0
   -0.2112   -1.4006   -0.8744 H   0  0  0  0  0  0  0  0  0  0  0  0
  1  2  1  0  0  0  0
  1  5  1  0  0  0  0
  2  8  1  0  0  0  0
  3  1  1  0  0  0  0
  4  1  1  0  0  0  0
  6  9  1  0  0  0  0
  6  2  1  0  0  0  0
  6 10  1  0  0  0  0
  7  2  1  0  0  0  0
  9 12  1  0  0  0  0
 11  6  1  0  0  0  0
 13  9  1  0  0  0  0
 14  9  1  0  0  0  0
M  END
$$$$
