14
butane_opt
C  -3.994784   0.302456   0.112035
C  -2.711514  -0.649721  -0.039522
H  -4.911403  -0.218608   0.006127
H  -4.022438   0.787063  -0.695529
H  -4.051218   0.994411   0.947182
C  -1.386402   0.145400  -0.078532
H  -2.792509  -1.587636  -1.086487
H  -2.431784  -1.134841   0.704406
C  -0.145531  -0.655883   0.117837
H  -1.373471   0.787091   0.779776
H  -1.261163   0.848270  -1.086684
H   0.013594  -1.492629   1.161073
H   0.782749  -0.002849  -0.054720
H  -0.150730  -1.139541  -0.547694
