butane_opt
 OpenBabel08242015393D

 14 13  0  0  0  0  0  0  0  0999 V2000
   -4.0123    0.2887    0.1186 C   0  0  0  0  0  0  0  0  0  0  0  0
   -2.6763   -0.6666   -0.0374 C   0  0  0  0  0  0  0  0  0  0  0  0
   -4.8435   -0.1225    0.1213 H   0  0  0  0  0  0  0  0  0  0  0  0
   -4.1277    0.8525   -0.7439 H   0  0  0  0  0  0  0  0  0  0  0  0
   -3.8909    1.0692    1.0436 H   0  0  0  0  0  0  0  0  0  0  0  0
   -1.3595    0.1635   -0.1633 C   0  0  0  0  0  0  0  0  0  0  0  0
   -2.8844   -1.4728   -0.8919 H   0  0  0  0  0  0  0  0  0  0  0  0
   -2.4098   -1.3923    0.9166 H   0  0  0  0  0  0  0  0  0  0  0  0
   -0.1637   -0.6615    0.1389 C   0  0  0  0  0  0  0  0  0  0  0  0
   -1.4495    0.8393    0.6724 H   0  0  0  0  0  0  0  0  0  0  0  0
   -1.3257    0.8561   -1.0717 H   0  0  0  0  0  0  0  0  0  0  0  0
   -0.4833   -0.9750    0.9480 H   0  0  0  0  0  0  0  0  0  0  0  0
    0.7584   -0.0895    0.5057 H   0  0  0  0  0  0  0  0  0  0  0  0
    0.1574   -1.5128   -0.7900 H   0  0  0  0  0  0  0  0  0  0  0  0
  1  3  1  0  0  0  0
  1  5  1  0  0  0  0
  2  1  1  0  0  0  0
  2  8  1  0  0  0  0
  4  1  1  0  0  0  0
  6  2  1  0  0  0  0
  6  9  1  0  0  0  0
  6 10  1  0  0  0  0
  7  2  1  0  0  0  0
  9 13  1  0  0  0  0
  9 12  1  0  0  0  0
 11  6  1  0  0  0  0
 14  9  1  0  0  0  0
M  END
$$$$
