butane_opt
 OpenBabel08242015393D

 14 13  0  0  0  0  0  0  0  0999 V2000
   -3.9384    0.3250    0.0684 C   0  0  0  0  0  0  0  0  0  0  0  0
   -2.7061   -0.6289    0.0287 C   0  0  0  0  0  0  0  0  0  0  0  0
   -4.8498   -0.3214   -0.1881 H   0  0  0  0  0  0  0  0  0  0  0  0
   -3.9899    0.7167   -0.6505 H   0  0  0  0  0  0  0  0  0  0  0  0
   -4.0535    0.9853    0.9749 H   0  0  0  0  0  0  0  0  0  0  0  0
   -1.3829    0.1061   -0.0738 C   0  0  0  0  0  0  0  0  0  0  0  0
   -2.5259   -1.2573   -0.7339 H   0  0  0  0  0  0  0  0  0  0  0  0
   -2.6171   -1.3227    0.9582 H   0  0  0  0  0  0  0  0  0  0  0  0
   -0.2068   -0.6511    0.0478 C   0  0  0  0  0  0  0  0  0  0  0  0
   -1.2880    0.7756    0.7181 H   0  0  0  0  0  0  0  0  0  0  0  0
   -1.3054    0.7002   -0.9869 H   0  0  0  0  0  0  0  0  0  0  0  0
   -0.4487   -1.1605    0.9782 H   0  0  0  0  0  0  0  0  0  0  0  0
    0.8050   -0.0217    0.3643 H   0  0  0  0  0  0  0  0  0  0  0  0
    0.0443   -1.3794   -0.8450 H   0  0  0  0  0  0  0  0  0  0  0  0
  1  5  1  0  0  0  0
  2  1  1  0  0  0  0
  2  8  1  0  0  0  0
  3  1  1  0  0  0  0
  4  1  1  0  0  0  0
  6  2  1  0  0  0  0
  6  9  1  0  0  0  0
  6 10  1  0  0  0  0
  7  2  1  0  0  0  0
  9 13  1  0  0  0  0
  9 12  1  0  0  0  0
 11  6  1  0  0  0  0
 14  9  1  0  0  0  0
M  END
$$$$
