butane_opt
 OpenBabel08242015393D

 14 13  0  0  0  0  0  0  0  0999 V2000
   -4.0010    0.2599   -0.0550 C   0  0  0  0  0  0  0  0  0  0  0  0
   -2.7332   -0.6246    0.1036 C   0  0  0  0  0  0  0  0  0  0  0  0
   -4.7651   -0.2141   -0.0773 H   0  0  0  0  0  0  0  0  0  0  0  0
   -3.9465    0.9795   -1.0469 H   0  0  0  0  0  0  0  0  0  0  0  0
   -4.0789    0.9933    0.7508 H   0  0  0  0  0  0  0  0  0  0  0  0
   -1.3728    0.1612    0.1447 C   0  0  0  0  0  0  0  0  0  0  0  0
   -2.4432   -1.2983   -0.8007 H   0  0  0  0  0  0  0  0  0  0  0  0
   -2.9331   -1.1897    1.0064 H   0  0  0  0  0  0  0  0  0  0  0  0
   -0.1286   -0.6807   -0.0603 C   0  0  0  0  0  0  0  0  0  0  0  0
   -1.2647    0.8195    1.0299 H   0  0  0  0  0  0  0  0  0  0  0  0
   -1.4052    0.8565   -0.7338 H   0  0  0  0  0  0  0  0  0  0  0  0
    0.1388   -1.5435    0.9457 H   0  0  0  0  0  0  0  0  0  0  0  0
    0.9214   -0.0071   -0.3272 H   0  0  0  0  0  0  0  0  0  0  0  0
   -0.4364   -1.2334   -0.8567 H   0  0  0  0  0  0  0  0  0  0  0  0
  1  2  1  0  0  0  0
  1  5  1  0  0  0  0
  2  6  1  0  0  0  0
  2  8  1  0  0  0  0
  3  1  1  0  0  0  0
  4  1  1  0  0  0  0
  6 10  1  0  0  0  0
  7  2  1  0  0  0  0
  9  6  1  0  0  0  0
  9 12  1  0  0  0  0
 11  6  1  0  0  0  0
 13  9  1  0  0  0  0
 14  9  1  0  0  0  0
M  END
$$$$
