butane_opt
 OpenBabel08242015393D

 14 13  0  0  0  0  0  0  0  0999 V2000
   -3.9948    0.3025    0.1120 C   0  0  0  0  0  0  0  0  0  0  0  0
   -2.7115   -0.6497   -0.0395 C   0  0  0  0  0  0  0  0  0  0  0  0
   -4.9114   -0.2186    0.0061 H   0  0  0  0  0  0  0  0  0  0  0  0
   -4.0224    0.7871   -0.6955 H   0  0  0  0  0  0  0  0  0  0  0  0
   -4.0512    0.9944    0.9472 H   0  0  0  0  0  0  0  0  0  0  0  0
   -1.3864    0.1454   -0.0785 C   0  0  0  0  0  0  0  0  0  0  0  0
   -2.7925   -1.5876   -1.0865 H   0  0  0  0  0  0  0  0  0  0  0  0
   -2.4318   -1.1348    0.7044 H   0  0  0  0  0  0  0  0  0  0  0  0
   -0.1455   -0.6559    0.1178 C   0  0  0  0  0  0  0  0  0  0  0  0
   -1.3735    0.7871    0.7798 H   0  0  0  0  0  0  0  0  0  0  0  0
   -1.2612    0.8483   -1.0867 H   0  0  0  0  0  0  0  0  0  0  0  0
    0.0136   -1.4926    1.1611 H   0  0  0  0  0  0  0  0  0  0  0  0
    0.7827   -0.0028   -0.0547 H   0  0  0  0  0  0  0  0  0  0  0  0
   -0.1507   -1.1395   -0.5477 H   0  0  0  0  0  0  0  0  0  0  0  0
  1  5  1  0  0  0  0
  2  1  1  0  0  0  0
  2  8  1  0  0  0  0
  3  1  1  0  0  0  0
  4  1  1  0  0  0  0
  6  2  1  0  0  0  0
  6  9  1  0  0  0  0
  6 10  1  0  0  0  0
  7  2  1  0  0  0  0
  9 12  1  0  0  0  0
 11  6  1  0  0  0  0
 13  9  1  0  0  0  0
 14  9  1  0  0  0  0
M  END
$$$$
