butane_opt
 OpenBabel08242015393D

 14 13  0  0  0  0  0  0  0  0999 V2000
   -3.9822    0.2983   -0.0999 C   0  0  0  0  0  0  0  0  0  0  0  0
   -2.7053   -0.6853    0.1580 C   0  0  0  0  0  0  0  0  0  0  0  0
   -4.7700   -0.2149   -0.0968 H   0  0  0  0  0  0  0  0  0  0  0  0
   -3.8311    0.9307   -1.1152 H   0  0  0  0  0  0  0  0  0  0  0  0
   -4.0788    0.9078    0.6819 H   0  0  0  0  0  0  0  0  0  0  0  0
   -1.3955    0.1893    0.1573 C   0  0  0  0  0  0  0  0  0  0  0  0
   -2.5511   -1.3088   -0.6696 H   0  0  0  0  0  0  0  0  0  0  0  0
   -2.6165   -1.2793    1.0539 H   0  0  0  0  0  0  0  0  0  0  0  0
   -0.1702   -0.6524   -0.0832 C   0  0  0  0  0  0  0  0  0  0  0  0
   -1.2974    0.8703    1.0573 H   0  0  0  0  0  0  0  0  0  0  0  0
   -1.3821    0.7021   -0.6252 H   0  0  0  0  0  0  0  0  0  0  0  0
    0.1401   -1.4532    0.8310 H   0  0  0  0  0  0  0  0  0  0  0  0
    0.7606   -0.0187   -0.3130 H   0  0  0  0  0  0  0  0  0  0  0  0
   -0.3956   -1.3740   -0.9494 H   0  0  0  0  0  0  0  0  0  0  0  0
  1  3  1  0  0  0  0
  1  2  1  0  0  0  0
  1  5  1  0  0  0  0
  2  8  1  0  0  0  0
  4  1  1  0  0  0  0
  6  2  1  0  0  0  0
  6 10  1  0  0  0  0
  7  2  1  0  0  0  0
  9  6  1  0  0  0  0
  9 12  1  0  0  0  0
 11  6  1  0  0  0  0
 13  9  1  0  0  0  0
 14  9  1  0  0  0  0
M  END
$$$$
