14
butane_opt
C  -3.908886   0.252687  -0.008587
C  -2.691464  -0.591260   0.062894
H  -4.931545  -0.437128   0.283386
H  -3.921413   0.914748  -0.986680
H  -3.929394   0.599380   0.662578
C  -1.413551   0.238311   0.058217
H  -2.651479  -1.214988  -0.795983
H  -2.673074  -1.223308   0.904702
C  -0.188823  -0.719218   0.017127
H  -1.600745   0.810038   0.860093
H  -1.392484   0.855647  -0.912345
H  -0.060567  -1.143621   0.768423
H   0.697658  -0.147288   0.106650
H  -0.124449  -1.661692  -1.045090
