14
butane_opt
C  -4.012343   0.288715   0.118584
C  -2.676331  -0.666583  -0.037360
H  -4.843472  -0.122502   0.121264
H  -4.127701   0.852487  -0.743876
H  -3.890912   1.069188   1.043610
C  -1.359531   0.163486  -0.163343
H  -2.884438  -1.472817  -0.891949
H  -2.409828  -1.392345   0.916644
C  -0.163681  -0.661487   0.138912
H  -1.449490   0.839303   0.672440
H  -1.325698   0.856144  -1.071742
H  -0.483287  -0.974986   0.948048
H   0.758442  -0.089457   0.505658
H   0.157355  -1.512840  -0.789962
