14
butane_opt
C  -3.960801   0.269816  -0.001324
C  -2.696393  -0.621168   0.052582
H  -4.870768  -0.298007   0.146330
H  -4.009373   0.989399  -0.967081
H  -3.997944   0.830306   0.810753
C  -1.397740   0.181466   0.035444
H  -2.683135  -1.323064  -0.820103
H  -2.736682  -1.277360   0.979363
C  -0.145363  -0.687586   0.019362
H  -1.394723   0.862640   0.880593
H  -1.365993   0.791660  -0.866064
H  -0.133141  -1.206079   0.847433
H   0.782596  -0.095146   0.046189
H  -0.205256  -1.450251  -0.905812
