butane_opt
 OpenBabel08242015393D

 14 13  0  0  0  0  0  0  0  0999 V2000
   -3.9414    0.2945   -0.0956 C   0  0  0  0  0  0  0  0  0  0  0  0
   -2.6652   -0.6622    0.1551 C   0  0  0  0  0  0  0  0  0  0  0  0
   -4.8222   -0.2187   -0.0968 H   0  0  0  0  0  0  0  0  0  0  0  0
   -3.8759    0.8666   -0.9683 H   0  0  0  0  0  0  0  0  0  0  0  0
   -4.1631    1.0458    0.8040 H   0  0  0  0  0  0  0  0  0  0  0  0
   -1.4249    0.1279    0.1045 C   0  0  0  0  0  0  0  0  0  0  0  0
   -2.4196   -1.0478   -0.4563 H   0  0  0  0  0  0  0  0  0  0  0  0
   -2.8321   -1.5014    1.1141 H   0  0  0  0  0  0  0  0  0  0  0  0
   -0.1885   -0.6374   -0.0791 C   0  0  0  0  0  0  0  0  0  0  0  0
   -1.1717    0.8632    1.0418 H   0  0  0  0  0  0  0  0  0  0  0  0
   -1.4096    0.7006   -0.7365 H   0  0  0  0  0  0  0  0  0  0  0  0
   -0.1730   -1.0812    0.7321 H   0  0  0  0  0  0  0  0  0  0  0  0
    0.7190   -0.0567    0.0579 H   0  0  0  0  0  0  0  0  0  0  0  0
   -0.2500   -1.5178   -1.0581 H   0  0  0  0  0  0  0  0  0  0  0  0
  1  2  1  0  0  0  0
  1  5  1  0  0  0  0
  2  8  1  0  0  0  0
  3  1  1  0  0  0  0
  4  1  1  0  0  0  0
  6  2  1  0  0  0  0
  6 10  1  0  0  0  0
  7  2  1  0  0  0  0
  9 13  1  0  0  0  0
  9  6  1  0  0  0  0
  9 12  1  0  0  0  0
 11  6  1  0  0  0  0
 14  9  1  0  0  0  0
M  END
$$$$
