14
butane_opt
C  -4.001272   0.299963  -0.047199
C  -2.665221  -0.662400   0.079828
H  -4.832794  -0.278497  -0.087657
H  -3.968928   0.904626  -0.980115
H  -4.223055   1.017329   0.813857
C  -1.381413   0.124270   0.125559
H  -2.726084  -1.235343  -0.665381
H  -2.745464  -1.175710   0.948547
C  -0.131727  -0.640177  -0.035757
H  -1.413819   0.773381   1.008123
H  -1.282022   0.774887  -0.841675
H   0.076000  -1.433347   0.974955
H   0.806453  -0.015882  -0.341767
H  -0.568768  -1.249145  -0.844378
