14
butane_opt
C  -4.002435   0.224679   0.059825
C  -2.684760  -0.604538  -0.055340
H  -4.967622  -0.448634   0.120799
H  -3.885340   0.842791  -0.835478
H  -3.918496   1.001684   0.978223
C  -1.401757   0.257850   0.025174
H  -2.787464  -1.258773  -0.916287
H  -2.774487  -1.109813   0.780822
C  -0.116115  -0.729570   0.075735
H  -1.439612   0.814095   0.792452
H  -1.407060   0.882844  -0.903530
H   0.143780  -1.573428   1.139635
H   0.704760  -0.242832  -0.374899
H  -0.212133  -1.167118  -0.566665
