butane_opt
 OpenBabel08242015393D

 14 13  0  0  0  0  0  0  0  0999 V2000
   -3.9236    0.3072   -0.0577 C   0  0  0  0  0  0  0  0  0  0  0  0
   -2.7067   -0.6657    0.1629 C   0  0  0  0  0  0  0  0  0  0  0  0
   -4.6679   -0.2428   -0.1112 H   0  0  0  0  0  0  0  0  0  0  0  0
   -3.7877    1.0335   -1.0167 H   0  0  0  0  0  0  0  0  0  0  0  0
   -4.1244    0.8294    0.6665 H   0  0  0  0  0  0  0  0  0  0  0  0
   -1.4019    0.1657    0.0876 C   0  0  0  0  0  0  0  0  0  0  0  0
   -2.6562   -1.2816   -0.6275 H   0  0  0  0  0  0  0  0  0  0  0  0
   -2.6742   -1.3774    1.0757 H   0  0  0  0  0  0  0  0  0  0  0  0
   -0.1814   -0.6693   -0.0681 C   0  0  0  0  0  0  0  0  0  0  0  0
   -1.3801    0.8313    0.9157 H   0  0  0  0  0  0  0  0  0  0  0  0
   -1.3471    0.6926   -0.8146 H   0  0  0  0  0  0  0  0  0  0  0  0
   -0.2897   -0.9995    0.6535 H   0  0  0  0  0  0  0  0  0  0  0  0
    0.7446   -0.0681    0.2476 H   0  0  0  0  0  0  0  0  0  0  0  0
   -0.2947   -1.5208   -1.0802 H   0  0  0  0  0  0  0  0  0  0  0  0
  1  2  1  0  0  0  0
  1  5  1  0  0  0  0
  2  8  1  0  0  0  0
  3  1  1  0  0  0  0
  4  1  1  0  0  0  0
  6  2  1  0  0  0  0
  6 10  1  0  0  0  0
  7  2  1  0  0  0  0
  9  6  1  0  0  0  0
  9 13  1  0  0  0  0
  9 12  1  0  0  0  0
 11  6  1  0  0  0  0
 14  9  1  0  0  0  0
M  END
$$$$
