butane_opt
 OpenBabel08242015393D

 14 13  0  0  0  0  0  0  0  0999 V2000
   -3.9562    0.2913   -0.0557 C   0  0  0  0  0  0  0  0  0  0  0  0
   -2.6712   -0.6510    0.1498 C   0  0  0  0  0  0  0  0  0  0  0  0
   -4.7727   -0.2494    0.0801 H   0  0  0  0  0  0  0  0  0  0  0  0
   -3.9211    1.0291   -1.0400 H   0  0  0  0  0  0  0  0  0  0  0  0
   -4.1098    0.7867    0.6703 H   0  0  0  0  0  0  0  0  0  0  0  0
   -1.3942    0.1341    0.0696 C   0  0  0  0  0  0  0  0  0  0  0  0
   -2.5244   -1.2678   -0.5649 H   0  0  0  0  0  0  0  0  0  0  0  0
   -2.5643   -1.2825    1.0096 H   0  0  0  0  0  0  0  0  0  0  0  0
   -0.2214   -0.6654   -0.0564 C   0  0  0  0  0  0  0  0  0  0  0  0
   -1.2933    0.8311    0.9191 H   0  0  0  0  0  0  0  0  0  0  0  0
   -1.4167    0.8453   -0.8867 H   0  0  0  0  0  0  0  0  0  0  0  0
   -0.3391   -0.8127    0.6326 H   0  0  0  0  0  0  0  0  0  0  0  0
    0.7685   -0.0006    0.3581 H   0  0  0  0  0  0  0  0  0  0  0  0
    0.0426   -1.6555   -1.0831 H   0  0  0  0  0  0  0  0  0  0  0  0
  1  3  1  0  0  0  0
  1  2  1  0  0  0  0
  1  5  1  0  0  0  0
  2  8  1  0  0  0  0
  4  1  1  0  0  0  0
  6  2  1  0  0  0  0
  6 10  1  0  0  0  0
  7  2  1  0  0  0  0
  9  6  1  0  0  0  0
  9 13  1  0  0  0  0
  9 12  1  0  0  0  0
 11  6  1  0  0  0  0
 14  9  1  0  0  0  0
M  END
$$$$
