14
butane_opt
C  -3.946908   0.294056  -0.027422
C  -2.692685  -0.628380   0.101931
H  -4.797742  -0.258129   0.179479
H  -3.977095   1.105327  -0.982246
H  -3.990250   0.797695   0.712371
C  -1.395134   0.146257   0.036459
H  -2.689252  -1.356647  -0.728587
H  -2.671013  -1.290661   0.974452
C  -0.166668  -0.672877   0.001325
H  -1.445520   0.737809   0.844760
H  -1.207251   0.750153  -0.844540
H  -0.286819  -0.995783   0.650493
H   0.855221  -0.015477   0.293675
H  -0.396259  -1.590938  -1.054182
