butane_opt
 OpenBabel08242015393D

 14 13  0  0  0  0  0  0  0  0999 V2000
   -3.9429    0.2726   -0.0005 C   0  0  0  0  0  0  0  0  0  0  0  0
   -2.6998   -0.6276    0.0702 C   0  0  0  0  0  0  0  0  0  0  0  0
   -4.8122   -0.2630    0.0210 H   0  0  0  0  0  0  0  0  0  0  0  0
   -3.9712    0.9469   -0.9511 H   0  0  0  0  0  0  0  0  0  0  0  0
   -3.9744    0.9239    0.8691 H   0  0  0  0  0  0  0  0  0  0  0  0
   -1.3992    0.1723    0.0111 C   0  0  0  0  0  0  0  0  0  0  0  0
   -2.6743   -1.2836   -0.7714 H   0  0  0  0  0  0  0  0  0  0  0  0
   -2.7319   -1.3186    1.0212 H   0  0  0  0  0  0  0  0  0  0  0  0
   -0.1740   -0.6786    0.0124 C   0  0  0  0  0  0  0  0  0  0  0  0
   -1.3232    0.8738    0.9019 H   0  0  0  0  0  0  0  0  0  0  0  0
   -1.4023    0.7618   -0.8401 H   0  0  0  0  0  0  0  0  0  0  0  0
   -0.2159   -1.2235    0.8426 H   0  0  0  0  0  0  0  0  0  0  0  0
    0.7707   -0.0713    0.1445 H   0  0  0  0  0  0  0  0  0  0  0  0
   -0.1058   -1.4704   -0.9288 H   0  0  0  0  0  0  0  0  0  0  0  0
  1  3  1  0  0  0  0
  1  2  1  0  0  0  0
  1  5  1  0  0  0  0
  2  8  1  0  0  0  0
  4  1  1  0  0  0  0
  6  9  1  0  0  0  0
  6  2  1  0  0  0  0
  6 10  1  0  0  0  0
  7  2  1  0  0  0  0
  9 13  1  0  0  0  0
  9 12  1  0  0  0  0
 11  6  1  0  0  0  0
 14  9  1  0  0  0  0
M  END
$$$$
