14
butane_opt
C  -3.960299   0.275642   0.026287
C  -2.698918  -0.621730   0.025597
H  -4.860709  -0.298391  -0.014936
H  -3.984726   0.831655  -0.835359
H  -3.979320   0.982428   0.927147
C  -1.395179   0.167114   0.014170
H  -2.693906  -1.370529  -0.892412
H  -2.704879  -1.231998   0.914456
C  -0.153730  -0.675820   0.036260
H  -1.395142   0.803951   0.857958
H  -1.362352   0.840846  -0.902980
H  -0.085885  -1.410465   1.009454
H   0.741463  -0.115282  -0.086627
H  -0.204342  -1.239360  -0.747537
