14
butane_opt
C  -3.991325   0.277429   0.062342
C  -2.694751  -0.659919   0.003771
H  -4.673962  -0.117610  -0.132068
H  -4.002339   0.749254  -0.805683
H  -4.136680   1.098170   1.040826
C  -1.398710   0.151440   0.001571
H  -2.746943  -1.404256  -0.960894
H  -2.675679  -1.053239   0.636214
C  -0.134867  -0.668832   0.079756
H  -1.423197   0.812691   0.793149
H  -1.181868   0.861116  -0.943059
H  -0.048243  -1.572572   1.117337
H   0.790872  -0.027342  -0.493452
H  -0.304009  -0.992286  -0.546896
