butane_opt
 OpenBabel08242015393D

 14 13  0  0  0  0  0  0  0  0999 V2000
   -3.9595    0.3240    0.0523 C   0  0  0  0  0  0  0  0  0  0  0  0
   -2.7317   -0.6688    0.0408 C   0  0  0  0  0  0  0  0  0  0  0  0
   -4.7864   -0.2082   -0.1900 H   0  0  0  0  0  0  0  0  0  0  0  0
   -4.0275    0.6758   -0.7323 H   0  0  0  0  0  0  0  0  0  0  0  0
   -4.0000    1.1068    0.9686 H   0  0  0  0  0  0  0  0  0  0  0  0
   -1.3659    0.1448   -0.0429 C   0  0  0  0  0  0  0  0  0  0  0  0
   -2.7726   -1.4306   -0.9519 H   0  0  0  0  0  0  0  0  0  0  0  0
   -2.6503   -1.2632    0.9123 H   0  0  0  0  0  0  0  0  0  0  0  0
   -0.1569   -0.6645    0.0699 C   0  0  0  0  0  0  0  0  0  0  0  0
   -1.5145    0.7632    0.8018 H   0  0  0  0  0  0  0  0  0  0  0  0
   -1.2725    0.9099   -1.0052 H   0  0  0  0  0  0  0  0  0  0  0  0
   -0.1854   -1.3262    1.0179 H   0  0  0  0  0  0  0  0  0  0  0  0
    0.9148   -0.0021   -0.0280 H   0  0  0  0  0  0  0  0  0  0  0  0
   -0.1985   -1.2973   -0.7937 H   0  0  0  0  0  0  0  0  0  0  0  0
  1  5  1  0  0  0  0
  2  1  1  0  0  0  0
  2  8  1  0  0  0  0
  3  1  1  0  0  0  0
  4  1  1  0  0  0  0
  6  2  1  0  0  0  0
  6  9  1  0  0  0  0
  6 10  1  0  0  0  0
  7  2  1  0  0  0  0
  9 12  1  0  0  0  0
 11  6  1  0  0  0  0
 13  9  1  0  0  0  0
 14  9  1  0  0  0  0
M  END
$$$$
