14
butane_opt
C  -3.967310   0.268610   0.007496
C  -2.697359  -0.622539   0.055063
H  -4.875642  -0.304178   0.027863
H  -3.951342   0.919176  -0.894345
H  -3.994182   0.916336   0.846511
C  -1.401464   0.183194   0.010369
H  -2.677068  -1.263023  -0.772059
H  -2.722775  -1.342747   1.028831
C  -0.148716  -0.691795   0.021448
H  -1.378189   0.855000   0.876612
H  -1.355496   0.818240  -0.869610
H  -0.142604  -1.174960   0.825561
H   0.779749  -0.082445   0.147394
H  -0.129177  -1.463169  -0.922867
