butane_opt
 OpenBabel08242015393D

 14 13  0  0  0  0  0  0  0  0999 V2000
   -3.9400    0.2888    0.1080 C   0  0  0  0  0  0  0  0  0  0  0  0
   -2.6938   -0.6462   -0.0615 C   0  0  0  0  0  0  0  0  0  0  0  0
   -4.7577   -0.2336    0.3238 H   0  0  0  0  0  0  0  0  0  0  0  0
   -4.1770    0.9652   -0.8166 H   0  0  0  0  0  0  0  0  0  0  0  0
   -3.7999    0.8649    0.9023 H   0  0  0  0  0  0  0  0  0  0  0  0
   -1.4206    0.1224   -0.0818 C   0  0  0  0  0  0  0  0  0  0  0  0
   -2.6959   -1.4731   -1.0144 H   0  0  0  0  0  0  0  0  0  0  0  0
   -2.4874   -0.9574    0.6575 H   0  0  0  0  0  0  0  0  0  0  0  0
   -0.1807   -0.6705    0.1239 C   0  0  0  0  0  0  0  0  0  0  0  0
   -1.3126    0.7807    0.7475 H   0  0  0  0  0  0  0  0  0  0  0  0
   -1.4924    0.8239   -1.0332 H   0  0  0  0  0  0  0  0  0  0  0  0
   -0.2378   -1.3516    1.0220 H   0  0  0  0  0  0  0  0  0  0  0  0
    0.8256    0.1199    0.2118 H   0  0  0  0  0  0  0  0  0  0  0  0
   -0.0979   -1.1254   -0.5985 H   0  0  0  0  0  0  0  0  0  0  0  0
  1  3  1  0  0  0  0
  1  5  1  0  0  0  0
  2  1  1  0  0  0  0
  2  8  1  0  0  0  0
  4  1  1  0  0  0  0
  6  2  1  0  0  0  0
  6  9  1  0  0  0  0
  6 10  1  0  0  0  0
  7  2  1  0  0  0  0
  9 13  1  0  0  0  0
  9 12  1  0  0  0  0
 11  6  1  0  0  0  0
 14  9  1  0  0  0  0
M  END
$$$$
