butane_opt
 OpenBabel08242015393D

 14 13  0  0  0  0  0  0  0  0999 V2000
   -3.9617    0.3103   -0.0265 C   0  0  0  0  0  0  0  0  0  0  0  0
   -2.6591   -0.6531    0.1070 C   0  0  0  0  0  0  0  0  0  0  0  0
   -4.9202   -0.3336   -0.4087 H   0  0  0  0  0  0  0  0  0  0  0  0
   -3.7469    0.7553   -0.8871 H   0  0  0  0  0  0  0  0  0  0  0  0
   -4.1407    1.1503    0.9057 H   0  0  0  0  0  0  0  0  0  0  0  0
   -1.4111    0.1397    0.0559 C   0  0  0  0  0  0  0  0  0  0  0  0
   -2.6634   -1.1720   -0.6689 H   0  0  0  0  0  0  0  0  0  0  0  0
   -2.5469   -1.4123    1.1352 H   0  0  0  0  0  0  0  0  0  0  0  0
   -0.1862   -0.6577   -0.0348 C   0  0  0  0  0  0  0  0  0  0  0  0
   -1.2464    0.7627    0.9340 H   0  0  0  0  0  0  0  0  0  0  0  0
   -1.3438    0.6466   -0.7167 H   0  0  0  0  0  0  0  0  0  0  0  0
   -0.1772   -1.3285    0.9509 H   0  0  0  0  0  0  0  0  0  0  0  0
    0.7728    0.0167   -0.0907 H   0  0  0  0  0  0  0  0  0  0  0  0
   -0.3918   -1.2296   -0.9220 H   0  0  0  0  0  0  0  0  0  0  0  0
  1  2  1  0  0  0  0
  1  5  1  0  0  0  0
  2  8  1  0  0  0  0
  3  1  1  0  0  0  0
  4  1  1  0  0  0  0
  6  2  1  0  0  0  0
  6 10  1  0  0  0  0
  7  2  1  0  0  0  0
  9  6  1  0  0  0  0
  9 12  1  0  0  0  0
 11  6  1  0  0  0  0
 13  9  1  0  0  0  0
 14  9  1  0  0  0  0
M  END
$$$$
