14
butane_opt
C  -3.913421   0.282667  -0.043109
C  -2.699761  -0.608007   0.104336
H  -4.816311  -0.327452   0.378877
H  -4.120152   1.400758  -1.246942
H  -3.946424   0.471076   0.478739
C  -1.378337   0.137715   0.113877
H  -2.524454  -1.373026  -0.784696
H  -2.805104  -1.096598   0.915202
C  -0.201397  -0.693804  -0.054813
H  -1.297330   0.833200   1.056222
H  -1.526546   0.661781  -0.699615
H  -0.270697  -1.041579   0.679329
H   0.876141  -0.024780   0.168618
H  -0.268241  -1.372372  -0.993658
