14
butane_opt
C  -3.916102   0.224239   0.100414
C  -2.670359  -0.586537  -0.084881
H  -4.918738  -0.404831  -0.030345
H  -4.121596   0.744206  -0.706948
H  -3.794002   1.120641   1.084639
C  -1.439494   0.198223  -0.013607
H  -2.825851  -1.411469  -1.044911
H  -2.664355  -1.017197   0.719838
C  -0.153202  -0.704971   0.114361
H  -1.438054   0.778961   0.739309
H  -1.405230   1.045385  -1.059581
H  -0.080506  -1.782968   1.225048
H   0.674432  -0.163959  -0.332488
H  -0.263111  -0.977465  -0.501048
