butane_opt
 OpenBabel08242015393D

 14 12  0  0  0  0  0  0  0  0999 V2000
   -3.9222    0.2215    0.0784 C   0  0  0  0  0  0  0  0  0  0  0  0
   -2.7002   -0.5343   -0.0033 C   0  0  0  0  0  0  0  0  0  0  0  0
   -4.8360   -0.4452   -0.3404 H   0  0  0  0  0  0  0  0  0  0  0  0
   -3.7788    0.3868   -0.4536 H   0  0  0  0  0  0  0  0  0  0  0  0
   -3.9875    1.1997    1.1605 H   0  0  0  0  0  0  0  0  0  0  0  0
   -1.4311    0.2019   -0.0996 C   0  0  0  0  0  0  0  0  0  0  0  0
   -2.7198   -1.1978   -0.7774 H   0  0  0  0  0  0  0  0  0  0  0  0
   -2.6755   -1.1766    0.8856 H   0  0  0  0  0  0  0  0  0  0  0  0
   -0.1594   -0.7262    0.0999 C   0  0  0  0  0  0  0  0  0  0  0  0
   -1.5278    0.9122    0.7001 H   0  0  0  0  0  0  0  0  0  0  0  0
   -1.2923    0.8310   -1.0217 H   0  0  0  0  0  0  0  0  0  0  0  0
   -0.1221   -1.5457    1.1461 H   0  0  0  0  0  0  0  0  0  0  0  0
    0.7024   -0.2050   -0.0610 H   0  0  0  0  0  0  0  0  0  0  0  0
   -0.2080   -1.2161   -0.6492 H   0  0  0  0  0  0  0  0  0  0  0  0
  1  5  1  0  0  0  0
  2  1  1  0  0  0  0
  2  8  1  0  0  0  0
  3  1  1  0  0  0  0
  6  2  1  0  0  0  0
  6  9  1  0  0  0  0
  6 10  1  0  0  0  0
  7  2  1  0  0  0  0
  9 12  1  0  0  0  0
 11  6  1  0  0  0  0
 13  9  1  0  0  0  0
 14  9  1  0  0  0  0
M  RAD  2   1   2   4   2
M  END
$$$$
