butane_opt
 OpenBabel08242015393D

 14 13  0  0  0  0  0  0  0  0999 V2000
   -3.9885    0.2770   -0.0594 C   0  0  0  0  0  0  0  0  0  0  0  0
   -2.6729   -0.6802    0.0636 C   0  0  0  0  0  0  0  0  0  0  0  0
   -4.7684   -0.1731    0.3259 H   0  0  0  0  0  0  0  0  0  0  0  0
   -4.0650    1.2652   -1.1649 H   0  0  0  0  0  0  0  0  0  0  0  0
   -4.0431    0.7535    0.5790 H   0  0  0  0  0  0  0  0  0  0  0  0
   -1.3767    0.1987    0.1436 C   0  0  0  0  0  0  0  0  0  0  0  0
   -2.6415   -1.2571   -0.6793 H   0  0  0  0  0  0  0  0  0  0  0  0
   -2.7921   -1.4222    1.0033 H   0  0  0  0  0  0  0  0  0  0  0  0
   -0.1515   -0.6646   -0.0312 C   0  0  0  0  0  0  0  0  0  0  0  0
   -1.3743    0.8221    1.0110 H   0  0  0  0  0  0  0  0  0  0  0  0
   -1.4913    0.7051   -0.5965 H   0  0  0  0  0  0  0  0  0  0  0  0
   -0.0271   -1.2106    0.7365 H   0  0  0  0  0  0  0  0  0  0  0  0
    0.7894   -0.0452   -0.1701 H   0  0  0  0  0  0  0  0  0  0  0  0
   -0.3521   -1.4424   -1.0352 H   0  0  0  0  0  0  0  0  0  0  0  0
  1  2  1  0  0  0  0
  1  3  1  0  0  0  0
  1  5  1  0  0  0  0
  2  6  1  0  0  0  0
  2  8  1  0  0  0  0
  4  1  1  0  0  0  0
  6 10  1  0  0  0  0
  7  2  1  0  0  0  0
  9  6  1  0  0  0  0
  9 12  1  0  0  0  0
 11  6  1  0  0  0  0
 13  9  1  0  0  0  0
 14  9  1  0  0  0  0
M  END
$$$$
