butane_opt
 OpenBabel08242015393D

 14 13  0  0  0  0  0  0  0  0999 V2000
   -3.9413    0.2664   -0.0578 C   0  0  0  0  0  0  0  0  0  0  0  0
   -2.6780   -0.6094    0.1059 C   0  0  0  0  0  0  0  0  0  0  0  0
   -4.8107   -0.3269    0.2872 H   0  0  0  0  0  0  0  0  0  0  0  0
   -4.1237    1.2087   -1.1067 H   0  0  0  0  0  0  0  0  0  0  0  0
   -3.9972    0.6371    0.5405 H   0  0  0  0  0  0  0  0  0  0  0  0
   -1.4151    0.1547    0.1152 C   0  0  0  0  0  0  0  0  0  0  0  0
   -2.5587   -1.2960   -0.7889 H   0  0  0  0  0  0  0  0  0  0  0  0
   -2.8263   -1.1488    0.9855 H   0  0  0  0  0  0  0  0  0  0  0  0
   -0.1662   -0.6872   -0.0431 C   0  0  0  0  0  0  0  0  0  0  0  0
   -1.2602    0.9145    0.9925 H   0  0  0  0  0  0  0  0  0  0  0  0
   -1.4349    0.6118   -0.7342 H   0  0  0  0  0  0  0  0  0  0  0  0
   -0.0609   -1.1619    0.6945 H   0  0  0  0  0  0  0  0  0  0  0  0
    0.8184   -0.0584    0.0259 H   0  0  0  0  0  0  0  0  0  0  0  0
   -0.3450   -1.3346   -0.9076 H   0  0  0  0  0  0  0  0  0  0  0  0
  1  2  1  0  0  0  0
  1  3  1  0  0  0  0
  1  5  1  0  0  0  0
  2  6  1  0  0  0  0
  2  8  1  0  0  0  0
  4  1  1  0  0  0  0
  6 10  1  0  0  0  0
  7  2  1  0  0  0  0
  9 13  1  0  0  0  0
  9  6  1  0  0  0  0
  9 12  1  0  0  0  0
 11  6  1  0  0  0  0
 14  9  1  0  0  0  0
M  END
$$$$
