14
butane_opt
C  -3.923232   0.315765   0.041747
C  -2.666496  -0.683802   0.005407
H  -4.846332  -0.245387  -0.100939
H  -3.952638   0.774371  -0.681029
H  -3.980074   1.169171   1.042137
C  -1.396275   0.144411  -0.023603
H  -2.773580  -1.392598  -0.821097
H  -2.657504  -1.142306   0.727825
C  -0.224989  -0.656928   0.048743
H  -1.331322   0.806214   0.879441
H  -1.336673   0.750243  -0.862665
H  -0.139012  -1.670952   1.156624
H   0.778607   0.047007  -0.145286
H  -0.289562  -0.977803  -0.566371
