butane_opt
 OpenBabel08242015393D

 14 13  0  0  0  0  0  0  0  0999 V2000
   -3.9437    0.2373    0.0589 C   0  0  0  0  0  0  0  0  0  0  0  0
   -2.7039   -0.5494    0.0025 C   0  0  0  0  0  0  0  0  0  0  0  0
   -4.9706   -0.4837    0.1327 H   0  0  0  0  0  0  0  0  0  0  0  0
   -4.0464    0.7215   -0.7019 H   0  0  0  0  0  0  0  0  0  0  0  0
   -3.8803    0.8328    0.9411 H   0  0  0  0  0  0  0  0  0  0  0  0
   -1.4340    0.2004   -0.0703 C   0  0  0  0  0  0  0  0  0  0  0  0
   -2.8243   -1.1600   -0.7922 H   0  0  0  0  0  0  0  0  0  0  0  0
   -2.7491   -1.3114    1.0241 H   0  0  0  0  0  0  0  0  0  0  0  0
   -0.1212   -0.7197    0.0581 C   0  0  0  0  0  0  0  0  0  0  0  0
   -1.5049    0.9115    0.7068 H   0  0  0  0  0  0  0  0  0  0  0  0
   -1.3032    0.9272   -1.0361 H   0  0  0  0  0  0  0  0  0  0  0  0
   -0.2127   -1.1780    0.9232 H   0  0  0  0  0  0  0  0  0  0  0  0
    0.7210   -0.2070    0.6011 H   0  0  0  0  0  0  0  0  0  0  0  0
    0.1964   -1.5945   -0.9625 H   0  0  0  0  0  0  0  0  0  0  0  0
  1  3  1  0  0  0  0
  1  5  1  0  0  0  0
  2  1  1  0  0  0  0
  2  8  1  0  0  0  0
  4  1  1  0  0  0  0
  6  2  1  0  0  0  0
  6  9  1  0  0  0  0
  6 10  1  0  0  0  0
  7  2  1  0  0  0  0
  9 13  1  0  0  0  0
  9 12  1  0  0  0  0
 11  6  1  0  0  0  0
 14  9  1  0  0  0  0
M  END
$$$$
