14
butane_opt
C  -3.951952   0.284736   0.103452
C  -2.687372  -0.607978  -0.094814
H  -4.854630  -0.349544   0.363317
H  -4.131867   0.912385  -0.819238
H  -3.619536   1.004458   1.136985
C  -1.412316   0.138415  -0.091770
H  -2.809237  -1.310481  -1.049132
H  -2.533012  -1.290315   0.788772
C  -0.188861  -0.676273   0.149014
H  -1.395601   0.757561   0.746841
H  -1.158692   0.781429  -1.048510
H  -0.206577  -1.348243   1.029219
H   0.747981  -0.045584   0.183727
H  -0.183682  -1.223239  -0.672075
