14
butane_opt
C  -3.979642   0.290103   0.085597
C  -2.709972  -0.621389  -0.072557
H  -4.794121  -0.207381   0.457567
H  -4.253001   1.075739  -0.904993
H  -3.756220   0.679133   0.883783
C  -1.371768   0.140072  -0.056566
H  -2.860863  -1.402831  -0.991312
H  -2.686533  -1.160607   0.758175
C  -0.139174  -0.668518   0.102678
H  -1.344704   0.882793   0.783029
H  -1.525583   0.625314  -0.853556
H  -0.178884  -1.349365   1.049637
H   0.815720  -0.049270   0.189412
H  -0.064109  -1.203592  -0.638484
