butane_opt
 OpenBabel08242015393D

 14 11  0  0  0  0  0  0  0  0999 V2000
   -3.9789    0.3036   -0.0463 C   0  0  0  0  0  0  0  0  0  0  0  0
   -2.7042   -0.6914    0.0806 C   0  0  0  0  0  0  0  0  0  0  0  0
   -4.7163   -0.1585    0.4936 H   0  0  0  0  0  0  0  0  0  0  0  0
   -4.1263    1.3935   -1.1966 H   0  0  0  0  0  0  0  0  0  0  0  0
   -3.8501    0.5036    0.4832 H   0  0  0  0  0  0  0  0  0  0  0  0
   -1.3838    0.1423    0.0988 C   0  0  0  0  0  0  0  0  0  0  0  0
   -2.5776   -1.2813   -0.7519 H   0  0  0  0  0  0  0  0  0  0  0  0
   -2.8135   -1.2961    0.9020 H   0  0  0  0  0  0  0  0  0  0  0  0
   -0.1443   -0.6561   -0.0067 C   0  0  0  0  0  0  0  0  0  0  0  0
   -1.4458    1.0355    1.0639 H   0  0  0  0  0  0  0  0  0  0  0  0
   -1.4085    0.7095   -0.7105 H   0  0  0  0  0  0  0  0  0  0  0  0
   -0.1043   -0.9654    0.6756 H   0  0  0  0  0  0  0  0  0  0  0  0
    0.7503   -0.0116   -0.0320 H   0  0  0  0  0  0  0  0  0  0  0  0
   -0.2389   -1.5629   -1.0796 H   0  0  0  0  0  0  0  0  0  0  0  0
  1  2  1  0  0  0  0
  1  3  1  0  0  0  0
  2  6  1  0  0  0  0
  2  8  1  0  0  0  0
  6 10  1  0  0  0  0
  7  2  1  0  0  0  0
  9  6  1  0  0  0  0
  9 12  1  0  0  0  0
 11  6  1  0  0  0  0
 13  9  1  0  0  0  0
 14  9  1  0  0  0  0
M  RAD  3   1   3   4   2   5   2
M  END
$$$$
