butane_opt
 OpenBabel08242015393D

 14 13  0  0  0  0  0  0  0  0999 V2000
   -3.9134    0.2377    0.1359 C   0  0  0  0  0  0  0  0  0  0  0  0
   -2.7393   -0.5607   -0.0595 C   0  0  0  0  0  0  0  0  0  0  0  0
   -4.9976   -0.4580    0.1434 H   0  0  0  0  0  0  0  0  0  0  0  0
   -3.9215    0.8592   -0.7693 H   0  0  0  0  0  0  0  0  0  0  0  0
   -3.7127    0.9267    1.0143 H   0  0  0  0  0  0  0  0  0  0  0  0
   -1.4192    0.2062   -0.1324 C   0  0  0  0  0  0  0  0  0  0  0  0
   -2.7977   -1.3176   -0.9686 H   0  0  0  0  0  0  0  0  0  0  0  0
   -2.5393   -1.2578    0.8513 H   0  0  0  0  0  0  0  0  0  0  0  0
   -0.1418   -0.7329    0.1179 C   0  0  0  0  0  0  0  0  0  0  0  0
   -1.5470    0.9658    0.6762 H   0  0  0  0  0  0  0  0  0  0  0  0
   -1.2329    0.8707   -1.0450 H   0  0  0  0  0  0  0  0  0  0  0  0
   -0.4116   -1.2557    1.0132 H   0  0  0  0  0  0  0  0  0  0  0  0
    0.6682   -0.1965    0.4071 H   0  0  0  0  0  0  0  0  0  0  0  0
    0.0721   -1.4501   -0.6501 H   0  0  0  0  0  0  0  0  0  0  0  0
  1  3  1  0  0  0  0
  1  5  1  0  0  0  0
  2  1  1  0  0  0  0
  2  8  1  0  0  0  0
  4  1  1  0  0  0  0
  6  2  1  0  0  0  0
  6  9  1  0  0  0  0
  6 10  1  0  0  0  0
  7  2  1  0  0  0  0
  9 13  1  0  0  0  0
  9 12  1  0  0  0  0
 11  6  1  0  0  0  0
 14  9  1  0  0  0  0
M  END
$$$$
