butane_opt
 OpenBabel08242015393D

 14 13  0  0  0  0  0  0  0  0999 V2000
   -3.9063    0.3096    0.0830 C   0  0  0  0  0  0  0  0  0  0  0  0
   -2.6908   -0.6631    0.0048 C   0  0  0  0  0  0  0  0  0  0  0  0
   -4.8147   -0.2471   -0.1429 H   0  0  0  0  0  0  0  0  0  0  0  0
   -3.9927    0.6323   -0.6621 H   0  0  0  0  0  0  0  0  0  0  0  0
   -4.0330    1.1823    1.0199 H   0  0  0  0  0  0  0  0  0  0  0  0
   -1.4060    0.1573   -0.0709 C   0  0  0  0  0  0  0  0  0  0  0  0
   -2.7750   -1.3789   -0.8919 H   0  0  0  0  0  0  0  0  0  0  0  0
   -2.7962   -1.3289    0.9034 H   0  0  0  0  0  0  0  0  0  0  0  0
   -0.1814   -0.6804    0.0968 C   0  0  0  0  0  0  0  0  0  0  0  0
   -1.3438    0.6369    0.6411 H   0  0  0  0  0  0  0  0  0  0  0  0
   -1.4320    1.0753   -1.0766 H   0  0  0  0  0  0  0  0  0  0  0  0
   -0.3605   -1.1365    0.8895 H   0  0  0  0  0  0  0  0  0  0  0  0
    0.7423    0.0080    0.1931 H   0  0  0  0  0  0  0  0  0  0  0  0
   -0.0180   -1.3987   -0.7783 H   0  0  0  0  0  0  0  0  0  0  0  0
  1  5  1  0  0  0  0
  2  1  1  0  0  0  0
  2  8  1  0  0  0  0
  3  1  1  0  0  0  0
  4  1  1  0  0  0  0
  6  2  1  0  0  0  0
  6  9  1  0  0  0  0
  6 10  1  0  0  0  0
  7  2  1  0  0  0  0
  9 13  1  0  0  0  0
  9 12  1  0  0  0  0
 11  6  1  0  0  0  0
 14  9  1  0  0  0  0
M  END
$$$$
