butane_opt
 OpenBabel08242015393D

 14 13  0  0  0  0  0  0  0  0999 V2000
   -3.9348    0.2894    0.0651 C   0  0  0  0  0  0  0  0  0  0  0  0
   -2.6875   -0.6571    0.0053 C   0  0  0  0  0  0  0  0  0  0  0  0
   -4.9074   -0.4140    0.0150 H   0  0  0  0  0  0  0  0  0  0  0  0
   -4.0568    0.7285   -0.6533 H   0  0  0  0  0  0  0  0  0  0  0  0
   -3.9210    1.1380    1.0040 H   0  0  0  0  0  0  0  0  0  0  0  0
   -1.4026    0.1738   -0.0734 C   0  0  0  0  0  0  0  0  0  0  0  0
   -2.6353   -1.2861   -0.8146 H   0  0  0  0  0  0  0  0  0  0  0  0
   -2.7147   -1.1765    0.8137 H   0  0  0  0  0  0  0  0  0  0  0  0
   -0.1746   -0.6772    0.1045 C   0  0  0  0  0  0  0  0  0  0  0  0
   -1.5179    0.7505    0.6767 H   0  0  0  0  0  0  0  0  0  0  0  0
   -1.3830    0.9214   -1.0151 H   0  0  0  0  0  0  0  0  0  0  0  0
   -0.2628   -1.2675    0.9679 H   0  0  0  0  0  0  0  0  0  0  0  0
    0.7190   -0.0272    0.1095 H   0  0  0  0  0  0  0  0  0  0  0  0
    0.0394   -1.4129   -0.8750 H   0  0  0  0  0  0  0  0  0  0  0  0
  1  5  1  0  0  0  0
  2  1  1  0  0  0  0
  2  8  1  0  0  0  0
  3  1  1  0  0  0  0
  4  1  1  0  0  0  0
  6  2  1  0  0  0  0
  6  9  1  0  0  0  0
  6 10  1  0  0  0  0
  7  2  1  0  0  0  0
  9 13  1  0  0  0  0
  9 12  1  0  0  0  0
 11  6  1  0  0  0  0
 14  9  1  0  0  0  0
M  END
$$$$
