butane_opt
 OpenBabel08242015393D

 14 13  0  0  0  0  0  0  0  0999 V2000
   -3.9981    0.3075    0.1203 C   0  0  0  0  0  0  0  0  0  0  0  0
   -2.6916   -0.6859   -0.0552 C   0  0  0  0  0  0  0  0  0  0  0  0
   -4.8202   -0.2950    0.1429 H   0  0  0  0  0  0  0  0  0  0  0  0
   -4.1849    0.8429   -0.6329 H   0  0  0  0  0  0  0  0  0  0  0  0
   -3.8386    0.9944    1.0318 H   0  0  0  0  0  0  0  0  0  0  0  0
   -1.4123    0.1651   -0.1084 C   0  0  0  0  0  0  0  0  0  0  0  0
   -2.7526   -1.4177   -0.9188 H   0  0  0  0  0  0  0  0  0  0  0  0
   -2.4821   -1.1299    0.7382 H   0  0  0  0  0  0  0  0  0  0  0  0
   -0.1300   -0.6590    0.1299 C   0  0  0  0  0  0  0  0  0  0  0  0
   -1.3186    0.5816    0.5951 H   0  0  0  0  0  0  0  0  0  0  0  0
   -1.2310    1.0605   -1.2617 H   0  0  0  0  0  0  0  0  0  0  0  0
   -0.4645   -1.1088    0.9608 H   0  0  0  0  0  0  0  0  0  0  0  0
    0.7393   -0.1118    0.5177 H   0  0  0  0  0  0  0  0  0  0  0  0
    0.1043   -1.4292   -0.7892 H   0  0  0  0  0  0  0  0  0  0  0  0
  1  3  1  0  0  0  0
  1  5  1  0  0  0  0
  2  1  1  0  0  0  0
  2  8  1  0  0  0  0
  4  1  1  0  0  0  0
  6  2  1  0  0  0  0
  6  9  1  0  0  0  0
  6 10  1  0  0  0  0
  7  2  1  0  0  0  0
  9 13  1  0  0  0  0
  9 12  1  0  0  0  0
 11  6  1  0  0  0  0
 14  9  1  0  0  0  0
M  END
$$$$
