butane_opt
 OpenBabel08242015393D

 14 13  0  0  0  0  0  0  0  0999 V2000
   -3.9655    0.3107    0.1154 C   0  0  0  0  0  0  0  0  0  0  0  0
   -2.6931   -0.6354   -0.0802 C   0  0  0  0  0  0  0  0  0  0  0  0
   -4.8345   -0.2413   -0.1281 H   0  0  0  0  0  0  0  0  0  0  0  0
   -3.9306    0.6234   -0.6150 H   0  0  0  0  0  0  0  0  0  0  0  0
   -3.9930    1.1102    1.1701 H   0  0  0  0  0  0  0  0  0  0  0  0
   -1.3621    0.1171   -0.0661 C   0  0  0  0  0  0  0  0  0  0  0  0
   -2.5691   -1.3002   -0.9367 H   0  0  0  0  0  0  0  0  0  0  0  0
   -2.5522   -1.2121    0.7480 H   0  0  0  0  0  0  0  0  0  0  0  0
   -0.2194   -0.6772    0.1290 C   0  0  0  0  0  0  0  0  0  0  0  0
   -1.4415    0.8038    0.7282 H   0  0  0  0  0  0  0  0  0  0  0  0
   -1.1937    0.7961   -1.0070 H   0  0  0  0  0  0  0  0  0  0  0  0
   -0.1983   -1.5208    1.1906 H   0  0  0  0  0  0  0  0  0  0  0  0
    0.8047    0.0850   -0.3576 H   0  0  0  0  0  0  0  0  0  0  0  0
   -0.2520   -0.9821   -0.4899 H   0  0  0  0  0  0  0  0  0  0  0  0
  1  5  1  0  0  0  0
  2  6  1  0  0  0  0
  2  1  1  0  0  0  0
  2  8  1  0  0  0  0
  3  1  1  0  0  0  0
  4  1  1  0  0  0  0
  6  9  1  0  0  0  0
  6 10  1  0  0  0  0
  7  2  1  0  0  0  0
  9 12  1  0  0  0  0
 11  6  1  0  0  0  0
 13  9  1  0  0  0  0
 14  9  1  0  0  0  0
M  END
$$$$
