14
butane_opt
C  -3.931810   0.250483  -0.013794
C  -2.693684  -0.605652   0.065812
H  -4.880510  -0.373811   0.102627
H  -3.931610   0.978965  -0.961066
H  -3.929719   0.824578   0.789095
C  -1.412109   0.202189   0.040173
H  -2.711860  -1.256666  -0.774961
H  -2.704599  -1.276369   0.987654
C  -0.162903  -0.703139   0.002703
H  -1.427890   0.984260   0.940516
H  -1.418147   0.762717  -0.782701
H  -0.144991  -1.268447   0.868888
H   0.694365  -0.168586  -0.011243
H  -0.147156  -1.417946  -0.880961
