butane_opt
 OpenBabel08242015393D

 14 13  0  0  0  0  0  0  0  0999 V2000
   -3.9291    0.2763   -0.0459 C   0  0  0  0  0  0  0  0  0  0  0  0
   -2.6751   -0.6668    0.1512 C   0  0  0  0  0  0  0  0  0  0  0  0
   -4.6758   -0.2337   -0.2682 H   0  0  0  0  0  0  0  0  0  0  0  0
   -3.8103    0.8270   -0.9550 H   0  0  0  0  0  0  0  0  0  0  0  0
   -4.1146    1.1338    0.8847 H   0  0  0  0  0  0  0  0  0  0  0  0
   -1.4096    0.1736    0.0274 C   0  0  0  0  0  0  0  0  0  0  0  0
   -2.6005   -1.1578   -0.5595 H   0  0  0  0  0  0  0  0  0  0  0  0
   -2.6430   -1.3492    1.0601 H   0  0  0  0  0  0  0  0  0  0  0  0
   -0.2073   -0.6801   -0.0399 C   0  0  0  0  0  0  0  0  0  0  0  0
   -1.4255    0.9224    1.0239 H   0  0  0  0  0  0  0  0  0  0  0  0
   -1.4534    0.7171   -0.7848 H   0  0  0  0  0  0  0  0  0  0  0  0
   -0.2467   -1.1902    0.8207 H   0  0  0  0  0  0  0  0  0  0  0  0
    0.8451    0.0533    0.1321 H   0  0  0  0  0  0  0  0  0  0  0  0
   -0.2701   -1.4114   -1.0286 H   0  0  0  0  0  0  0  0  0  0  0  0
  1  2  1  0  0  0  0
  1  5  1  0  0  0  0
  2  8  1  0  0  0  0
  3  1  1  0  0  0  0
  4  1  1  0  0  0  0
  6  2  1  0  0  0  0
  6 10  1  0  0  0  0
  7  2  1  0  0  0  0
  9  6  1  0  0  0  0
  9 13  1  0  0  0  0
  9 12  1  0  0  0  0
 11  6  1  0  0  0  0
 14  9  1  0  0  0  0
M  END
$$$$
