14
butane_opt
C  -3.956273   0.258422   0.080748
C  -2.703020  -0.632553  -0.060765
H  -4.840548  -0.304255   0.276199
H  -4.164688   0.993773  -0.862210
H  -3.872092   0.918651   0.933950
C  -1.369162   0.237157  -0.010293
H  -2.834400  -1.520339  -1.009050
H  -2.747519  -1.156354   0.739510
C  -0.166548  -0.720639   0.112989
H  -1.433636   0.731474   0.667252
H  -1.470345   0.915801  -0.964203
H  -0.098052  -1.423395   1.086640
H   0.793720  -0.040563  -0.139061
H  -0.026651  -1.267883  -0.756978
