14
butane_opt
C  -3.917055   0.269264  -0.086263
C  -2.730129  -0.594155   0.158805
H  -4.880895  -0.443287  -0.319672
H  -3.888690   0.643203  -0.830391
H  -4.062907   1.018820   0.852706
C  -1.388882   0.200748   0.072841
H  -2.606022  -1.016593  -0.533782
H  -2.845176  -1.380775   1.235241
C  -0.155577  -0.729924  -0.044476
H  -1.282432   0.942235   0.911636
H  -1.632291   0.772462  -0.793114
H  -0.059453  -1.192176   0.769122
H   0.879324  -0.023735   0.060496
H  -0.331166  -1.567491  -1.104193
