14
butane_opt
C  -3.916000   0.317628  -0.023304
C  -2.656355  -0.681179   0.107520
H  -4.916272  -0.292726  -0.036115
H  -3.837369   0.848273  -0.858883
H  -4.181892   0.946118   0.767910
C  -1.416270   0.158840   0.018474
H  -2.740584  -1.185106  -0.608547
H  -2.584642  -1.473113   1.096839
C  -0.209471  -0.644838  -0.018537
H  -1.283147   0.921803   0.827853
H  -1.428984   0.701472  -0.822172
H  -0.353774  -1.133592   0.742546
H   0.695551   0.004426   0.363347
H  -0.030829  -1.633192  -1.057266
