14
butane_opt
C  -3.943666   0.237312   0.058929
C  -2.703949  -0.549386   0.002473
H  -4.970640  -0.483699   0.132704
H  -4.046375   0.721541  -0.701950
H  -3.880309   0.832809   0.941055
C  -1.433959   0.200397  -0.070268
H  -2.824290  -1.160039  -0.792244
H  -2.749114  -1.311386   1.024073
C  -0.121157  -0.719727   0.058066
H  -1.504944   0.911473   0.706800
H  -1.303189   0.927196  -1.036111
H  -0.212708  -1.178033   0.923223
H   0.721045  -0.206958   0.601108
H   0.196386  -1.594471  -0.962535
