butane_opt
 OpenBabel08242015393D

 14 13  0  0  0  0  0  0  0  0999 V2000
   -3.9351    0.3089    0.0437 C   0  0  0  0  0  0  0  0  0  0  0  0
   -2.6955   -0.6558   -0.0223 C   0  0  0  0  0  0  0  0  0  0  0  0
   -4.8325   -0.2354    0.3989 H   0  0  0  0  0  0  0  0  0  0  0  0
   -4.1432    1.1385   -0.9057 H   0  0  0  0  0  0  0  0  0  0  0  0
   -3.7445    0.8165    0.8216 H   0  0  0  0  0  0  0  0  0  0  0  0
   -1.4201    0.1165   -0.0115 C   0  0  0  0  0  0  0  0  0  0  0  0
   -2.7375   -1.4546   -1.0249 H   0  0  0  0  0  0  0  0  0  0  0  0
   -2.6172   -1.1440    0.8095 H   0  0  0  0  0  0  0  0  0  0  0  0
   -0.1624   -0.6640    0.0788 C   0  0  0  0  0  0  0  0  0  0  0  0
   -1.2487    0.8242    0.9337 H   0  0  0  0  0  0  0  0  0  0  0  0
   -1.3565    0.8118   -0.9033 H   0  0  0  0  0  0  0  0  0  0  0  0
   -0.4388   -1.2853    1.0388 H   0  0  0  0  0  0  0  0  0  0  0  0
    0.8866    0.0507   -0.0261 H   0  0  0  0  0  0  0  0  0  0  0  0
   -0.2468   -1.2495   -0.7892 H   0  0  0  0  0  0  0  0  0  0  0  0
  1  3  1  0  0  0  0
  1  5  1  0  0  0  0
  2  6  1  0  0  0  0
  2  1  1  0  0  0  0
  2  8  1  0  0  0  0
  4  1  1  0  0  0  0
  6  9  1  0  0  0  0
  6 10  1  0  0  0  0
  7  2  1  0  0  0  0
  9 12  1  0  0  0  0
 11  6  1  0  0  0  0
 13  9  1  0  0  0  0
 14  9  1  0  0  0  0
M  END
$$$$
