14
butane_opt
C  -3.956060   0.245702  -0.055442
C  -2.723143  -0.623356   0.101079
H  -4.739277  -0.285158  -0.009047
H  -3.863603   1.092110  -1.129748
H  -3.962510   0.675783   0.652425
C  -1.435371   0.230482   0.129729
H  -2.721483  -1.228822  -0.712348
H  -2.812385  -1.272545   1.038067
C  -0.120742  -0.722960  -0.071771
H  -1.364375   1.158246   1.188980
H  -1.378720   0.632801  -0.647902
H   0.079399  -1.401684   0.936140
H   0.776882  -0.158099  -0.319555
H  -0.227415  -1.223845  -0.829816
