14
butane_opt
C  -3.908709   0.213566   0.116813
C  -2.719172  -0.553555  -0.071266
H  -4.838922  -0.375900  -0.019544
H  -3.780302   0.724800  -0.705249
H  -3.995319   1.027184   1.053831
C  -1.407975   0.240020  -0.063460
H  -2.799801  -1.485210  -1.078844
H  -2.584769  -1.067350   0.715835
C  -0.198155  -0.730743   0.117403
H  -1.359751   0.803837   0.810864
H  -1.404726   0.931499  -0.981146
H   0.071948  -1.795200   1.294785
H   0.633641  -0.134708  -0.266755
H  -0.151731  -1.129574  -0.516285
