butane_opt
 OpenBabel08242015393D

 14 13  0  0  0  0  0  0  0  0999 V2000
   -3.9464    0.2908    0.1455 C   0  0  0  0  0  0  0  0  0  0  0  0
   -2.7193   -0.6670   -0.0251 C   0  0  0  0  0  0  0  0  0  0  0  0
   -4.7809   -0.1915   -0.0363 H   0  0  0  0  0  0  0  0  0  0  0  0
   -4.0974    0.7971   -0.6404 H   0  0  0  0  0  0  0  0  0  0  0  0
   -4.0180    1.0900    0.9609 H   0  0  0  0  0  0  0  0  0  0  0  0
   -1.3832    0.1836   -0.1512 C   0  0  0  0  0  0  0  0  0  0  0  0
   -2.8227   -1.5220   -1.0261 H   0  0  0  0  0  0  0  0  0  0  0  0
   -2.5163   -1.1629    0.7638 H   0  0  0  0  0  0  0  0  0  0  0  0
   -0.1510   -0.6744    0.1406 C   0  0  0  0  0  0  0  0  0  0  0  0
   -1.5672    0.6567    0.5198 H   0  0  0  0  0  0  0  0  0  0  0  0
   -1.1865    0.9087   -1.0459 H   0  0  0  0  0  0  0  0  0  0  0  0
   -0.4430   -1.1770    0.9808 H   0  0  0  0  0  0  0  0  0  0  0  0
    0.7572   -0.0863    0.3544 H   0  0  0  0  0  0  0  0  0  0  0  0
    0.0530   -1.3856   -0.7328 H   0  0  0  0  0  0  0  0  0  0  0  0
  1  5  1  0  0  0  0
  2  1  1  0  0  0  0
  2  8  1  0  0  0  0
  3  1  1  0  0  0  0
  4  1  1  0  0  0  0
  6  2  1  0  0  0  0
  6  9  1  0  0  0  0
  6 10  1  0  0  0  0
  7  2  1  0  0  0  0
  9 13  1  0  0  0  0
  9 12  1  0  0  0  0
 11  6  1  0  0  0  0
 14  9  1  0  0  0  0
M  END
$$$$
