butane_opt
 OpenBabel08242015393D

 14 12  0  0  0  0  0  0  0  0999 V2000
   -3.9105    0.2136    0.0521 C   0  0  0  0  0  0  0  0  0  0  0  0
   -2.7035   -0.5685   -0.0230 C   0  0  0  0  0  0  0  0  0  0  0  0
   -4.8462   -0.4633    0.0584 H   0  0  0  0  0  0  0  0  0  0  0  0
   -4.0350    0.7982   -0.8018 H   0  0  0  0  0  0  0  0  0  0  0  0
   -3.7535    0.9336    0.8969 H   0  0  0  0  0  0  0  0  0  0  0  0
   -1.4337    0.2316    0.0124 C   0  0  0  0  0  0  0  0  0  0  0  0
   -2.7285   -1.2467   -0.9502 H   0  0  0  0  0  0  0  0  0  0  0  0
   -2.6882   -1.0844    0.8193 H   0  0  0  0  0  0  0  0  0  0  0  0
   -0.1418   -0.7193    0.0424 C   0  0  0  0  0  0  0  0  0  0  0  0
   -1.5738    1.0459    0.8800 H   0  0  0  0  0  0  0  0  0  0  0  0
   -1.5105    0.7678   -0.8415 H   0  0  0  0  0  0  0  0  0  0  0  0
   -0.1974   -1.7987    1.2607 H   0  0  0  0  0  0  0  0  0  0  0  0
    0.7909   -0.1791   -0.2817 H   0  0  0  0  0  0  0  0  0  0  0  0
   -0.1823   -1.1488   -0.5834 H   0  0  0  0  0  0  0  0  0  0  0  0
  1  3  1  0  0  0  0
  1  5  1  0  0  0  0
  2  6  1  0  0  0  0
  2  1  1  0  0  0  0
  2  8  1  0  0  0  0
  4  1  1  0  0  0  0
  6  9  1  0  0  0  0
  6 10  1  0  0  0  0
  7  2  1  0  0  0  0
 11  6  1  0  0  0  0
 13  9  1  0  0  0  0
 14  9  1  0  0  0  0
M  RAD  2   9   2  12   2
M  END
$$$$
