14
butane_opt
C  -3.971699   0.266664   0.129869
C  -2.715289  -0.640502  -0.121646
H  -4.953126  -0.330452   0.473513
H  -4.339915   1.255836  -0.869208
H  -3.680617   0.781486   0.946266
C  -1.393000   0.176216  -0.074950
H  -2.732794  -1.412332  -1.039790
H  -2.749059  -1.180803   0.695823
C  -0.091412  -0.676527   0.113782
H  -1.553796   0.904137   0.845801
H  -1.415335   0.746173  -0.941027
H  -0.354533  -1.452651   1.217225
H   0.800651  -0.123418   0.182029
H   0.013743  -1.165086  -0.651133
