14
butane_opt
C  -3.941285   0.266421  -0.057760
C  -2.677978  -0.609359   0.105860
H  -4.810747  -0.326884   0.287150
H  -4.123653   1.208718  -1.106736
H  -3.997158   0.637069   0.540523
C  -1.415072   0.154731   0.115229
H  -2.558735  -1.296000  -0.788941
H  -2.826342  -1.148814   0.985518
C  -0.166213  -0.687200  -0.043078
H  -1.260158   0.914463   0.992483
H  -1.434938   0.611798  -0.734240
H  -0.060855  -1.161926   0.694522
H   0.818360  -0.058416   0.025867
H  -0.344952  -1.334650  -0.907620
