14
butane_opt
C  -3.984706   0.243791  -0.026375
C  -2.738779  -0.576312   0.064356
H  -4.893388  -0.434784   0.237047
H  -3.934070   1.137815  -1.096238
H  -3.798519   0.690980   0.675882
C  -1.377855   0.197499   0.058835
H  -2.710036  -1.118747  -0.636465
H  -2.859350  -1.430488   1.206198
C  -0.118438  -0.703623  -0.008174
H  -1.443112   0.967817   1.016892
H  -1.406576   0.777210  -0.839610
H  -0.122976  -0.951876   0.609712
H   0.663166  -0.300935   0.222904
H   0.113730  -1.748514  -1.100966
