14
butane_opt
C  -3.960193   0.234490  -0.019264
C  -2.719119  -0.611632   0.047066
H  -4.834138  -0.341627   0.406294
H  -4.249765   1.169569  -1.137493
H  -3.701226   0.601867   0.611308
C  -1.423155   0.233656   0.053393
H  -2.587496  -1.104912  -0.745265
H  -2.834664  -1.252317   0.977349
C  -0.123360  -0.695192   0.001844
H  -1.238772   0.988566   1.012415
H  -1.365300   0.680204  -0.667070
H  -0.103439  -1.233630   0.803130
H   0.666038  -0.286850   0.128164
H  -0.042363  -1.644343  -0.995539
