14
butane_opt
C  -3.930196   0.212134   0.094310
C  -2.737590  -0.606104  -0.069635
H  -4.822652  -0.307641   0.074580
H  -3.958262   0.849658  -0.828803
H  -3.882876   1.045617   1.026742
C  -1.417680   0.229474  -0.053874
H  -2.917271  -1.254770  -0.933026
H  -2.658841  -1.081660   0.690166
C  -0.126239  -0.713385   0.113679
H  -1.456556   1.033853   0.879395
H  -1.535284   0.793718  -0.788476
H   0.088811  -1.754335   1.271158
H   0.713197  -0.247989  -0.335340
H  -0.058442  -1.023289  -0.589784
