14
butane_opt
C  -3.942410   0.259262  -0.001344
C  -2.720795  -0.600652   0.038726
H  -4.882270  -0.375822   0.158285
H  -4.002880   0.934064  -0.936571
H  -3.869865   0.822581   0.828874
C  -1.404479   0.201013   0.030948
H  -2.673032  -1.274719  -0.798803
H  -2.733277  -1.239305   0.955690
C  -0.143493  -0.708229   0.024075
H  -1.373564   0.912525   0.911666
H  -1.418950   0.758118  -0.816890
H  -0.130645  -1.303520   0.896742
H   0.739941  -0.142949  -0.039774
H  -0.135374  -1.380048  -0.839594
