butane_opt
 OpenBabel08242015393D

 14 11  0  0  0  0  0  0  0  0999 V2000
   -3.9647    0.2971    0.0758 C   0  0  0  0  0  0  0  0  0  0  0  0
   -2.7004   -0.6752    0.0147 C   0  0  0  0  0  0  0  0  0  0  0  0
   -4.8706   -0.3237   -0.4559 H   0  0  0  0  0  0  0  0  0  0  0  0
   -4.0170    0.4430   -0.4002 H   0  0  0  0  0  0  0  0  0  0  0  0
   -4.0704    1.3998    1.2376 H   0  0  0  0  0  0  0  0  0  0  0  0
   -1.3955    0.1819   -0.1032 C   0  0  0  0  0  0  0  0  0  0  0  0
   -2.8274   -1.2958   -0.9096 H   0  0  0  0  0  0  0  0  0  0  0  0
   -2.5652   -1.1878    0.8059 H   0  0  0  0  0  0  0  0  0  0  0  0
   -0.1585   -0.6869    0.1009 C   0  0  0  0  0  0  0  0  0  0  0  0
   -1.2452    0.7731    0.6892 H   0  0  0  0  0  0  0  0  0  0  0  0
   -1.2817    0.9436   -1.0873 H   0  0  0  0  0  0  0  0  0  0  0  0
   -0.1684   -1.4946    1.1598 H   0  0  0  0  0  0  0  0  0  0  0  0
    0.6855   -0.0995   -0.0362 H   0  0  0  0  0  0  0  0  0  0  0  0
   -0.0286   -1.0687   -0.5660 H   0  0  0  0  0  0  0  0  0  0  0  0
  2  1  1  0  0  0  0
  2  8  1  0  0  0  0
  3  1  1  0  0  0  0
  6  2  1  0  0  0  0
  6  9  1  0  0  0  0
  6 10  1  0  0  0  0
  7  2  1  0  0  0  0
  9 12  1  0  0  0  0
 11  6  1  0  0  0  0
 13  9  1  0  0  0  0
 14  9  1  0  0  0  0
M  RAD  3   1   3   4   2   5   2
M  END
$$$$
