14
butane_opt
C  -3.965456   0.310718   0.115425
C  -2.693141  -0.635366  -0.080180
H  -4.834481  -0.241255  -0.128070
H  -3.930624   0.623414  -0.614989
H  -3.993042   1.110161   1.170057
C  -1.362067   0.117116  -0.066122
H  -2.569082  -1.300235  -0.936686
H  -2.552158  -1.212085   0.748005
C  -0.219398  -0.677174   0.128990
H  -1.441480   0.803848   0.728213
H  -1.193693   0.796129  -1.007043
H  -0.198283  -1.520784   1.190618
H   0.804725   0.084957  -0.357605
H  -0.252002  -0.982095  -0.489942
