14
butane_opt
C  -3.958415   0.239339   0.114782
C  -2.719180  -0.587936  -0.030395
H  -4.969999  -0.401544   0.057282
H  -3.995944   0.750942  -0.687917
H  -3.912113   1.086702   1.049970
C  -1.440865   0.221181  -0.130416
H  -2.788955  -1.341140  -0.914829
H  -2.791433  -1.286399   0.964054
C  -0.096255  -0.725185   0.104782
H  -1.408157   0.813278   0.607436
H  -1.423345   0.949413  -1.047142
H  -0.305825  -1.274810   0.970130
H   0.912267  -0.050396   0.577438
H   0.238421  -1.499418  -0.817129
