14
butane_opt
C  -3.910947   0.247287  -0.067242
C  -2.700919  -0.601123   0.154143
H  -4.900361  -0.391403   0.044208
H  -3.930078   1.009775  -1.121033
H  -4.064702   0.725437   0.681883
C  -1.386597   0.209930   0.050128
H  -2.721134  -1.028561  -0.552833
H  -2.741074  -1.379208   1.116024
C  -0.195152  -0.706690  -0.039888
H  -1.275850   1.036347   0.986868
H  -1.582703   0.712726  -0.650624
H  -0.165356  -0.971962   0.675612
H   0.624643  -0.133206   0.224896
H   0.071497  -1.882040  -1.198204
