14
butane_opt
C  -3.980597   0.303929  -0.105133
C  -2.676739  -0.657686   0.196684
H  -4.939845  -0.298573  -0.402745
H  -3.840138   0.844382  -0.960969
H  -4.209025   0.978519   0.847486
C  -1.359601   0.171179   0.119511
H  -2.568674  -1.273160  -0.650436
H  -2.791454  -1.289645   1.099960
C  -0.178647  -0.672775  -0.075918
H  -1.194092   0.808198   1.001841
H  -1.649940   0.656254  -0.674249
H   0.030252  -1.310756   0.832651
H   0.797849   0.056097  -0.262084
H  -0.330169  -1.365010  -0.998337
