14
butane_opt
C  -3.929168   0.270855  -0.038520
C  -2.720678  -0.623910   0.163569
H  -4.833680  -0.332010  -0.319613
H  -3.793495   0.792229  -0.958137
H  -4.384447   0.990081   0.852463
C  -1.394969   0.194957   0.038356
H  -2.899406  -1.292901  -0.723991
H  -2.827413  -1.271383   1.032882
C  -0.123686  -0.700136  -0.028879
H  -1.279336   0.862438   0.965656
H  -1.521724   0.862064  -0.887089
H   0.017605  -1.127601   0.764863
H   0.700205  -0.172261   0.056160
H  -0.170748  -1.491697  -0.951586
