14
butane_opt
C  -3.948180   0.226317   0.051986
C  -2.713808  -0.580891   0.035733
H  -4.867967  -0.406451   0.033224
H  -4.012053   0.859626  -0.868912
H  -3.757835   1.039494   0.942981
C  -1.434728   0.196735  -0.050342
H  -2.829242  -1.324164  -0.899900
H  -2.847290  -1.145734   0.888122
C  -0.107753  -0.715559   0.082070
H  -1.401723   0.757665   0.694847
H  -1.479597   1.076594  -1.014992
H  -0.119238  -1.140460   0.860221
H   0.726219  -0.165137   0.280782
H   0.023054  -1.567864  -0.916316
