14
butane_opt
C  -3.938252   0.300119   0.140778
C  -2.655049  -0.646814  -0.107409
H  -4.981289  -0.310412   0.299966
H  -4.178096   0.864614  -0.769628
H  -3.876961   0.870021   0.935389
C  -1.419138   0.155271  -0.070058
H  -2.702519  -1.400948  -1.042520
H  -2.675051  -1.088074   0.611043
C  -0.173004  -0.672086   0.145597
H  -1.507931   0.672467   0.638633
H  -1.282644   0.913162  -0.988675
H  -0.341419  -1.440888   1.165254
H   0.877324   0.067063  -0.052268
H  -0.134461  -1.255741  -0.658209
