14
butane_opt
C  -3.887887   0.240488  -0.109691
C  -2.696822  -0.578349   0.195805
H  -4.828055  -0.385342  -0.381260
H  -3.792340   0.583179  -0.809756
H  -4.133412   1.001329   0.790416
C  -1.428278   0.241657   0.097907
H  -2.644702  -1.060958  -0.521271
H  -3.022036  -1.425718   1.205846
C  -0.165260  -0.736966  -0.079253
H  -1.359178   0.968579   0.999771
H  -1.566532   0.741779  -0.682588
H   0.035798  -1.285023   0.724072
H   0.762821  -0.200824  -0.059607
H  -0.320418  -1.424791  -1.049922
