14
butane_opt
C  -3.906004   0.266209   0.097139
C  -2.723383  -0.576101   0.002153
H  -4.988495  -0.549750  -0.470842
H  -3.690665   0.413263  -0.559867
H  -3.922499   1.295774   1.198586
C  -1.406879   0.178110  -0.083766
H  -2.777508  -1.281240  -0.807412
H  -2.644594  -1.159128   0.892863
C  -0.167394  -0.713307   0.092995
H  -1.640775   0.778753   0.652576
H  -1.270216   1.086836  -1.142053
H  -0.209042  -1.472556   1.146715
H   0.697783  -0.153410  -0.034264
H  -0.123936  -1.335894  -0.717674
