butane_opt
 OpenBabel08242015393D

 14 13  0  0  0  0  0  0  0  0999 V2000
   -3.9534    0.2707   -0.0139 C   0  0  0  0  0  0  0  0  0  0  0  0
   -2.6994   -0.6248    0.0602 C   0  0  0  0  0  0  0  0  0  0  0  0
   -4.8405   -0.2994   -0.0261 H   0  0  0  0  0  0  0  0  0  0  0  0
   -3.9703    0.8953   -0.9081 H   0  0  0  0  0  0  0  0  0  0  0  0
   -4.0187    0.9534    0.8704 H   0  0  0  0  0  0  0  0  0  0  0  0
   -1.3982    0.1652    0.0481 C   0  0  0  0  0  0  0  0  0  0  0  0
   -2.7034   -1.2332   -0.7676 H   0  0  0  0  0  0  0  0  0  0  0  0
   -2.7098   -1.3020    0.9929 H   0  0  0  0  0  0  0  0  0  0  0  0
   -0.1571   -0.6850    0.0025 C   0  0  0  0  0  0  0  0  0  0  0  0
   -1.3815    0.9028    0.9461 H   0  0  0  0  0  0  0  0  0  0  0  0
   -1.4279    0.7915   -0.8307 H   0  0  0  0  0  0  0  0  0  0  0  0
   -0.0454   -1.3331    0.9305 H   0  0  0  0  0  0  0  0  0  0  0  0
    0.7926   -0.0384   -0.0719 H   0  0  0  0  0  0  0  0  0  0  0  0
   -0.2301   -1.3189   -0.8555 H   0  0  0  0  0  0  0  0  0  0  0  0
  1  2  1  0  0  0  0
  1  5  1  0  0  0  0
  2  8  1  0  0  0  0
  3  1  1  0  0  0  0
  4  1  1  0  0  0  0
  6  2  1  0  0  0  0
  6 10  1  0  0  0  0
  7  2  1  0  0  0  0
  9  6  1  0  0  0  0
  9 12  1  0  0  0  0
 11  6  1  0  0  0  0
 13  9  1  0  0  0  0
 14  9  1  0  0  0  0
M  END
$$$$
