14
butane_opt
C  -3.951558   0.271727  -0.077634
C  -2.675834  -0.648397   0.186525
H  -4.736187  -0.276450   0.055676
H  -3.812408   1.033828  -1.097098
H  -4.036644   0.941305   0.764044
C  -1.400513   0.161909   0.049389
H  -2.604458  -1.241915  -0.594798
H  -2.571786  -1.247024   1.013959
C  -0.214643  -0.670636  -0.058523
H  -1.186121   0.804619   0.901244
H  -1.502684   0.845346  -0.758537
H  -0.386688  -0.920981   0.631023
H   0.770477  -0.040154   0.429313
H  -0.054374  -1.743921  -1.137831
