14
butane_opt
C  -3.931503   0.273881   0.113092
C  -2.705885  -0.630832  -0.013317
H  -4.862900  -0.362669  -0.417790
H  -3.863495   0.493034  -0.472312
H  -4.181630   1.403415   1.238045
C  -1.421642   0.140049  -0.153297
H  -2.684500  -1.268073  -0.836264
H  -2.545735  -1.181712   0.916565
C  -0.162438  -0.668964   0.117980
H  -1.360644   0.904194   0.739235
H  -1.318811   0.835351  -1.093398
H  -0.175354  -1.514200   1.172862
H   0.720908  -0.021884   0.107999
H  -0.087985  -1.168187  -0.621195
