butane_opt
 OpenBabel08242015393D

 14 13  0  0  0  0  0  0  0  0999 V2000
   -3.9437    0.2760    0.0141 C   0  0  0  0  0  0  0  0  0  0  0  0
   -2.6857   -0.6317    0.0640 C   0  0  0  0  0  0  0  0  0  0  0  0
   -4.8349   -0.3119   -0.0049 H   0  0  0  0  0  0  0  0  0  0  0  0
   -3.9625    0.9330   -0.9117 H   0  0  0  0  0  0  0  0  0  0  0  0
   -3.9812    0.8946    0.8727 H   0  0  0  0  0  0  0  0  0  0  0  0
   -1.4060    0.1771    0.0077 C   0  0  0  0  0  0  0  0  0  0  0  0
   -2.6338   -1.3267   -0.8022 H   0  0  0  0  0  0  0  0  0  0  0  0
   -2.7001   -1.2473    0.9582 H   0  0  0  0  0  0  0  0  0  0  0  0
   -0.1733   -0.6806    0.0200 C   0  0  0  0  0  0  0  0  0  0  0  0
   -1.3611    0.8140    0.8194 H   0  0  0  0  0  0  0  0  0  0  0  0
   -1.4140    0.8075   -0.8912 H   0  0  0  0  0  0  0  0  0  0  0  0
   -0.2505   -1.1932    0.8652 H   0  0  0  0  0  0  0  0  0  0  0  0
    0.7462   -0.0781    0.1518 H   0  0  0  0  0  0  0  0  0  0  0  0
   -0.1261   -1.4507   -0.8989 H   0  0  0  0  0  0  0  0  0  0  0  0
  1  2  1  0  0  0  0
  1  5  1  0  0  0  0
  2  8  1  0  0  0  0
  3  1  1  0  0  0  0
  4  1  1  0  0  0  0
  6  9  1  0  0  0  0
  6  2  1  0  0  0  0
  6 10  1  0  0  0  0
  7  2  1  0  0  0  0
  9 13  1  0  0  0  0
  9 12  1  0  0  0  0
 11  6  1  0  0  0  0
 14  9  1  0  0  0  0
M  END
$$$$
