14
butane_opt
C  -3.973105   0.250782   0.055491
C  -2.750182  -0.593865  -0.020454
H  -4.951906  -0.428413  -0.098130
H  -3.970325   0.599599  -0.592841
H  -3.893515   1.211886   1.163553
C  -1.375649   0.226702  -0.053752
H  -2.766877  -1.275061  -0.822410
H  -2.693816  -1.272161   0.962602
C  -0.106992  -0.724562   0.088656
H  -1.438337   0.785108   0.759719
H  -1.317055   0.993919  -1.089920
H  -0.196038  -1.514413   1.108637
H   0.715447  -0.099916   0.023409
H  -0.027886  -1.407877  -0.792297
