butane_opt
 OpenBabel08242015393D

 14 13  0  0  0  0  0  0  0  0999 V2000
   -3.9228    0.3006   -0.0331 C   0  0  0  0  0  0  0  0  0  0  0  0
   -2.6707   -0.6358    0.0709 C   0  0  0  0  0  0  0  0  0  0  0  0
   -4.8397   -0.2533    0.3300 H   0  0  0  0  0  0  0  0  0  0  0  0
   -4.0153    1.2363   -1.2258 H   0  0  0  0  0  0  0  0  0  0  0  0
   -3.9248    0.5849    0.5432 H   0  0  0  0  0  0  0  0  0  0  0  0
   -1.4198    0.1025    0.0977 C   0  0  0  0  0  0  0  0  0  0  0  0
   -2.8245   -1.2154   -0.7023 H   0  0  0  0  0  0  0  0  0  0  0  0
   -2.6097   -1.3073    0.9850 H   0  0  0  0  0  0  0  0  0  0  0  0
   -0.1939   -0.6628   -0.0356 C   0  0  0  0  0  0  0  0  0  0  0  0
   -1.3633    0.9519    1.0718 H   0  0  0  0  0  0  0  0  0  0  0  0
   -1.4625    0.6798   -0.6668 H   0  0  0  0  0  0  0  0  0  0  0  0
   -0.2594   -1.0136    0.7440 H   0  0  0  0  0  0  0  0  0  0  0  0
    0.8179    0.0579    0.0596 H   0  0  0  0  0  0  0  0  0  0  0  0
   -0.0891   -1.4301   -0.9785 H   0  0  0  0  0  0  0  0  0  0  0  0
  1  2  1  0  0  0  0
  1  3  1  0  0  0  0
  1  5  1  0  0  0  0
  2  6  1  0  0  0  0
  2  8  1  0  0  0  0
  4  1  1  0  0  0  0
  6 10  1  0  0  0  0
  7  2  1  0  0  0  0
  9 13  1  0  0  0  0
  9  6  1  0  0  0  0
  9 12  1  0  0  0  0
 11  6  1  0  0  0  0
 14  9  1  0  0  0  0
M  END
$$$$
