butane_opt
 OpenBabel08242015393D

 14 13  0  0  0  0  0  0  0  0999 V2000
   -3.9647    0.2577    0.0911 C   0  0  0  0  0  0  0  0  0  0  0  0
   -2.7186   -0.6292   -0.0674 C   0  0  0  0  0  0  0  0  0  0  0  0
   -4.8193   -0.3334   -0.0927 H   0  0  0  0  0  0  0  0  0  0  0  0
   -3.9634    0.7479   -0.7717 H   0  0  0  0  0  0  0  0  0  0  0  0
   -3.9154    1.0299    1.1069 H   0  0  0  0  0  0  0  0  0  0  0  0
   -1.4136    0.2296   -0.0136 C   0  0  0  0  0  0  0  0  0  0  0  0
   -2.8010   -1.4419   -1.0526 H   0  0  0  0  0  0  0  0  0  0  0  0
   -2.8173   -1.1868    0.8509 H   0  0  0  0  0  0  0  0  0  0  0  0
   -0.1090   -0.7106    0.1079 C   0  0  0  0  0  0  0  0  0  0  0  0
   -1.5363    0.8259    0.8186 H   0  0  0  0  0  0  0  0  0  0  0  0
   -1.2958    0.9880   -0.9748 H   0  0  0  0  0  0  0  0  0  0  0  0
    0.1480   -1.6065    1.1628 H   0  0  0  0  0  0  0  0  0  0  0  0
    0.7000   -0.2334   -0.4638 H   0  0  0  0  0  0  0  0  0  0  0  0
   -0.2502   -1.0185   -0.5299 H   0  0  0  0  0  0  0  0  0  0  0  0
  1  5  1  0  0  0  0
  2  6  1  0  0  0  0
  2  1  1  0  0  0  0
  2  8  1  0  0  0  0
  3  1  1  0  0  0  0
  4  1  1  0  0  0  0
  6  9  1  0  0  0  0
  6 10  1  0  0  0  0
  7  2  1  0  0  0  0
  9 12  1  0  0  0  0
 11  6  1  0  0  0  0
 13  9  1  0  0  0  0
 14  9  1  0  0  0  0
M  END
$$$$
