butane_opt
 OpenBabel08242015393D

 14 13  0  0  0  0  0  0  0  0999 V2000
   -3.9075    0.2942    0.0248 C   0  0  0  0  0  0  0  0  0  0  0  0
   -2.7068   -0.6590    0.0303 C   0  0  0  0  0  0  0  0  0  0  0  0
   -4.7628   -0.2453   -0.1259 H   0  0  0  0  0  0  0  0  0  0  0  0
   -3.8738    0.7864   -0.7391 H   0  0  0  0  0  0  0  0  0  0  0  0
   -4.0041    1.0563    0.9817 H   0  0  0  0  0  0  0  0  0  0  0  0
   -1.4098    0.1514    0.0203 C   0  0  0  0  0  0  0  0  0  0  0  0
   -2.5693   -1.5024   -0.9438 H   0  0  0  0  0  0  0  0  0  0  0  0
   -2.7180   -1.0909    0.8263 H   0  0  0  0  0  0  0  0  0  0  0  0
   -0.2042   -0.6891    0.0408 C   0  0  0  0  0  0  0  0  0  0  0  0
   -1.3465    0.9845    0.8825 H   0  0  0  0  0  0  0  0  0  0  0  0
   -1.4381    0.8560   -0.9232 H   0  0  0  0  0  0  0  0  0  0  0  0
   -0.0874   -1.5650    1.1660 H   0  0  0  0  0  0  0  0  0  0  0  0
    0.7814    0.0212   -0.4220 H   0  0  0  0  0  0  0  0  0  0  0  0
   -0.2867   -0.9403   -0.6031 H   0  0  0  0  0  0  0  0  0  0  0  0
  1  2  1  0  0  0  0
  1  5  1  0  0  0  0
  2  8  1  0  0  0  0
  3  1  1  0  0  0  0
  4  1  1  0  0  0  0
  6  2  1  0  0  0  0
  6  9  1  0  0  0  0
  6 10  1  0  0  0  0
  7  2  1  0  0  0  0
  9 12  1  0  0  0  0
 11  6  1  0  0  0  0
 13  9  1  0  0  0  0
 14  9  1  0  0  0  0
M  END
$$$$
