14
butane_opt
C  -3.945806   0.232873  -0.048340
C  -2.743320  -0.591551   0.124351
H  -4.831287  -0.328369  -0.389571
H  -3.851907   0.562307  -0.728322
H  -4.019615   1.078534   0.887463
C  -1.402583   0.248985   0.044614
H  -2.601469  -1.141070  -0.585734
H  -2.994113  -1.342450   1.125467
C  -0.129945  -0.715827  -0.034347
H  -1.364260   0.932833   0.988298
H  -1.489198   0.799150  -0.768493
H   0.160068  -1.436653   0.893072
H   0.653642  -0.267726  -0.158781
H  -0.040210  -1.429476  -0.832743
