14
butane_opt
C  -3.926863   0.289773   0.082360
C  -2.688222  -0.612969  -0.051186
H  -4.929635  -0.463961  -0.084579
H  -3.905590   0.645481  -0.605166
H  -3.941381   1.267582   1.121395
C  -1.402507   0.123118  -0.040066
H  -2.691103  -1.250218  -0.953329
H  -2.663530  -1.248052   0.860291
C  -0.197749  -0.669952   0.091749
H  -1.509114   0.763112   0.771721
H  -1.240379   0.920896  -1.048676
H  -0.052151  -1.573128   1.215780
H   0.715844   0.001843  -0.160163
H  -0.232144  -1.113420  -0.614867
