14
butane_opt
C  -3.895124   0.269377  -0.072527
C  -2.674442  -0.621129   0.140254
H  -4.886007  -0.382909   0.157602
H  -3.945604   1.036635  -1.083195
H  -3.841316   0.656201   0.686620
C  -1.453037   0.205062   0.070459
H  -2.561943  -1.221008  -0.611418
H  -2.886024  -1.276300   1.081366
C  -0.181143  -0.707848  -0.042219
H  -1.395537   0.892508   1.040137
H  -1.539281   0.707179  -0.729677
H  -0.236210  -0.919143   0.560765
H   0.744323  -0.127266   0.152856
H  -0.035614  -1.572460  -1.023813
