14
butane_opt
C  -4.005547   0.303341   0.059581
C  -2.685346  -0.668454  -0.034675
H  -4.895602  -0.288093  -0.071952
H  -4.044129   0.720039  -0.788699
H  -4.077472   1.141877   1.087129
C  -1.367696   0.162589   0.010268
H  -2.602456  -1.367869  -0.930546
H  -2.707706  -1.188405   0.820848
C  -0.127413  -0.650309   0.077798
H  -1.383765   0.632260   0.752688
H  -1.415840   0.874248  -0.881862
H  -0.123285  -1.566586   1.191196
H   0.789192  -0.061396  -0.409629
H  -0.327110  -1.119590  -0.638256
