14
butane_opt
C  -3.921498   0.226971   0.076527
C  -2.711383  -0.546705  -0.003812
H  -4.950755  -0.515136   0.150498
H  -3.837133   0.686975  -0.676360
H  -3.835583   0.987882   0.989153
C  -1.441066   0.207174  -0.097887
H  -2.698517  -1.273190  -0.875576
H  -2.573668  -1.157370   0.849887
C  -0.142732  -0.708902   0.110727
H  -1.659727   0.774529   0.597071
H  -1.259313   0.911340  -1.039386
H  -0.192166  -1.232752   1.032007
H   0.661594  -0.175662   0.282680
H  -0.058968  -1.664308  -0.904625
