butane_opt
 OpenBabel08242015393D

 14 11  0  0  0  0  0  0  0  0999 V2000
   -3.9315    0.2739    0.1131 C   0  0  0  0  0  0  0  0  0  0  0  0
   -2.7059   -0.6308   -0.0133 C   0  0  0  0  0  0  0  0  0  0  0  0
   -4.8629   -0.3627   -0.4178 H   0  0  0  0  0  0  0  0  0  0  0  0
   -3.8635    0.4930   -0.4723 H   0  0  0  0  0  0  0  0  0  0  0  0
   -4.1816    1.4034    1.2380 H   0  0  0  0  0  0  0  0  0  0  0  0
   -1.4216    0.1400   -0.1533 C   0  0  0  0  0  0  0  0  0  0  0  0
   -2.6845   -1.2681   -0.8363 H   0  0  0  0  0  0  0  0  0  0  0  0
   -2.5457   -1.1817    0.9166 H   0  0  0  0  0  0  0  0  0  0  0  0
   -0.1624   -0.6690    0.1180 C   0  0  0  0  0  0  0  0  0  0  0  0
   -1.3606    0.9042    0.7392 H   0  0  0  0  0  0  0  0  0  0  0  0
   -1.3188    0.8354   -1.0934 H   0  0  0  0  0  0  0  0  0  0  0  0
   -0.1754   -1.5142    1.1729 H   0  0  0  0  0  0  0  0  0  0  0  0
    0.7209   -0.0219    0.1080 H   0  0  0  0  0  0  0  0  0  0  0  0
   -0.0880   -1.1682   -0.6212 H   0  0  0  0  0  0  0  0  0  0  0  0
  2  1  1  0  0  0  0
  2  8  1  0  0  0  0
  3  1  1  0  0  0  0
  6  2  1  0  0  0  0
  6  9  1  0  0  0  0
  6 10  1  0  0  0  0
  7  2  1  0  0  0  0
  9 12  1  0  0  0  0
 11  6  1  0  0  0  0
 13  9  1  0  0  0  0
 14  9  1  0  0  0  0
M  RAD  3   1   3   4   2   5   2
M  END
$$$$
