butane_opt
 OpenBabel08242015393D

 14 13  0  0  0  0  0  0  0  0999 V2000
   -3.9445    0.2774    0.1081 C   0  0  0  0  0  0  0  0  0  0  0  0
   -2.6833   -0.6688   -0.1040 C   0  0  0  0  0  0  0  0  0  0  0  0
   -4.8784   -0.2574    0.5731 H   0  0  0  0  0  0  0  0  0  0  0  0
   -4.4826    1.1783   -0.9091 H   0  0  0  0  0  0  0  0  0  0  0  0
   -3.7902    0.7871    0.9841 H   0  0  0  0  0  0  0  0  0  0  0  0
   -1.4075    0.1816   -0.0612 C   0  0  0  0  0  0  0  0  0  0  0  0
   -2.8337   -1.4647   -1.0908 H   0  0  0  0  0  0  0  0  0  0  0  0
   -2.7206   -1.0504    0.5640 H   0  0  0  0  0  0  0  0  0  0  0  0
   -0.1393   -0.6774    0.1544 C   0  0  0  0  0  0  0  0  0  0  0  0
   -1.3982    0.7165    0.6721 H   0  0  0  0  0  0  0  0  0  0  0  0
   -1.3572    0.8813   -0.9695 H   0  0  0  0  0  0  0  0  0  0  0  0
   -0.1992   -1.2804    1.0618 H   0  0  0  0  0  0  0  0  0  0  0  0
    0.7419   -0.0618    0.0281 H   0  0  0  0  0  0  0  0  0  0  0  0
   -0.0007   -1.2647   -0.6620 H   0  0  0  0  0  0  0  0  0  0  0  0
  1  3  1  0  0  0  0
  1  5  1  0  0  0  0
  2  6  1  0  0  0  0
  2  1  1  0  0  0  0
  2  8  1  0  0  0  0
  4  1  1  0  0  0  0
  6  9  1  0  0  0  0
  6 10  1  0  0  0  0
  7  2  1  0  0  0  0
  9 12  1  0  0  0  0
 11  6  1  0  0  0  0
 13  9  1  0  0  0  0
 14  9  1  0  0  0  0
M  END
$$$$
