14
butane_opt
C  -3.942724   0.274308   0.098560
C  -2.687142  -0.608677  -0.067954
H  -4.935097  -0.449489   0.235454
H  -4.168401   0.880902  -0.779391
H  -3.614452   0.876777   1.060222
C  -1.416853   0.168894  -0.084371
H  -2.818442  -1.392548  -1.001907
H  -2.510236  -1.157061   0.657046
C  -0.180965  -0.690833   0.118307
H  -1.484037   0.925597   0.848366
H  -1.464242   0.891164  -1.022482
H  -0.207093  -1.513429   1.191822
H   0.821116  -0.010124   0.082784
H   0.058593  -1.231440  -0.610753
