14
butane_opt
C  -3.916982   0.233579   0.127841
C  -2.730321  -0.603474  -0.042372
H  -4.711855  -0.347350   0.101697
H  -3.975397   0.824971  -0.742974
H  -3.826244   1.030580   1.081796
C  -1.416486   0.209399  -0.139657
H  -2.793712  -1.249582  -0.865266
H  -2.659242  -1.152401   0.792184
C  -0.157764  -0.715365   0.109644
H  -1.543086   0.841315   0.682413
H  -1.359177   0.983355  -1.045165
H  -0.494608  -1.273227   1.015150
H   0.739705  -0.109947   0.487490
H   0.256789  -1.520167  -0.749826
