butane_opt
 OpenBabel08242015393D

 14 13  0  0  0  0  0  0  0  0999 V2000
   -3.9070    0.2344   -0.0267 C   0  0  0  0  0  0  0  0  0  0  0  0
   -2.7136   -0.5507    0.0593 C   0  0  0  0  0  0  0  0  0  0  0  0
   -4.9249   -0.4003    0.3408 H   0  0  0  0  0  0  0  0  0  0  0  0
   -3.9153    1.1195   -1.1455 H   0  0  0  0  0  0  0  0  0  0  0  0
   -3.8129    0.6007    0.6784 H   0  0  0  0  0  0  0  0  0  0  0  0
   -1.3994    0.1996    0.0666 C   0  0  0  0  0  0  0  0  0  0  0  0
   -2.8024   -1.2898   -0.8609 H   0  0  0  0  0  0  0  0  0  0  0  0
   -2.7116   -1.2437    1.0447 H   0  0  0  0  0  0  0  0  0  0  0  0
   -0.1555   -0.7253   -0.0248 C   0  0  0  0  0  0  0  0  0  0  0  0
   -1.5662    1.1433    1.0697 H   0  0  0  0  0  0  0  0  0  0  0  0
   -1.4608    0.6038   -0.7004 H   0  0  0  0  0  0  0  0  0  0  0  0
   -0.1406   -1.3287    0.9033 H   0  0  0  0  0  0  0  0  0  0  0  0
    0.7480   -0.1765   -0.0193 H   0  0  0  0  0  0  0  0  0  0  0  0
   -0.3023   -1.3955   -0.8005 H   0  0  0  0  0  0  0  0  0  0  0  0
  1  2  1  0  0  0  0
  1  3  1  0  0  0  0
  1  5  1  0  0  0  0
  2  6  1  0  0  0  0
  2  8  1  0  0  0  0
  4  1  1  0  0  0  0
  6 10  1  0  0  0  0
  7  2  1  0  0  0  0
  9 13  1  0  0  0  0
  9  6  1  0  0  0  0
  9 12  1  0  0  0  0
 11  6  1  0  0  0  0
 14  9  1  0  0  0  0
M  END
$$$$
