butane_opt
 OpenBabel08242015393D

 14 13  0  0  0  0  0  0  0  0999 V2000
   -3.8994    0.2149    0.0647 C   0  0  0  0  0  0  0  0  0  0  0  0
   -2.7081   -0.5536    0.0197 C   0  0  0  0  0  0  0  0  0  0  0  0
   -4.8270   -0.3882   -0.2871 H   0  0  0  0  0  0  0  0  0  0  0  0
   -3.7591    0.6560   -0.7128 H   0  0  0  0  0  0  0  0  0  0  0  0
   -4.0111    1.2318    1.1192 H   0  0  0  0  0  0  0  0  0  0  0  0
   -1.4658    0.2029   -0.0272 C   0  0  0  0  0  0  0  0  0  0  0  0
   -2.8110   -1.3982   -0.9397 H   0  0  0  0  0  0  0  0  0  0  0  0
   -2.6979   -1.1330    0.8832 H   0  0  0  0  0  0  0  0  0  0  0  0
   -0.1416   -0.7174    0.0699 C   0  0  0  0  0  0  0  0  0  0  0  0
   -1.3520    0.6899    0.7058 H   0  0  0  0  0  0  0  0  0  0  0  0
   -1.5161    0.9124   -1.0550 H   0  0  0  0  0  0  0  0  0  0  0  0
   -0.2034   -1.5471    1.0603 H   0  0  0  0  0  0  0  0  0  0  0  0
    0.7430   -0.0475   -0.1212 H   0  0  0  0  0  0  0  0  0  0  0  0
   -0.0068   -1.2051   -0.6921 H   0  0  0  0  0  0  0  0  0  0  0  0
  1  5  1  0  0  0  0
  2  1  1  0  0  0  0
  2  8  1  0  0  0  0
  3  1  1  0  0  0  0
  4  1  1  0  0  0  0
  6  2  1  0  0  0  0
  6  9  1  0  0  0  0
  6 10  1  0  0  0  0
  7  2  1  0  0  0  0
  9 12  1  0  0  0  0
 11  6  1  0  0  0  0
 13  9  1  0  0  0  0
 14  9  1  0  0  0  0
M  END
$$$$
