14
butane_opt
C  -3.975177   0.274351  -0.006076
C  -2.674847  -0.640152   0.035401
H  -4.824315  -0.276611   0.456811
H  -4.175013   1.262975  -1.201427
H  -3.928912   0.619190   0.610414
C  -1.395558   0.141531   0.087404
H  -2.632260  -1.288636  -0.746572
H  -2.796123  -1.100776   0.854432
C  -0.145038  -0.657930   0.003611
H  -1.303488   0.831127   0.908282
H  -1.450388   0.829992  -0.820323
H  -0.176284  -1.170600   0.766094
H   0.753191  -0.036394   0.124228
H  -0.204221  -1.552512  -0.988975
