butane_opt
 OpenBabel08242015393D

 14 13  0  0  0  0  0  0  0  0999 V2000
   -3.9402    0.2403    0.0097 C   0  0  0  0  0  0  0  0  0  0  0  0
   -2.7284   -0.6173    0.0747 C   0  0  0  0  0  0  0  0  0  0  0  0
   -4.8450   -0.3234   -0.0764 H   0  0  0  0  0  0  0  0  0  0  0  0
   -3.9638    0.8065   -0.7917 H   0  0  0  0  0  0  0  0  0  0  0  0
   -4.1476    0.9243    0.9024 H   0  0  0  0  0  0  0  0  0  0  0  0
   -1.4109    0.2204   -0.0231 C   0  0  0  0  0  0  0  0  0  0  0  0
   -2.5827   -1.1188   -0.6586 H   0  0  0  0  0  0  0  0  0  0  0  0
   -2.8006   -1.3169    1.0364 H   0  0  0  0  0  0  0  0  0  0  0  0
   -0.1264   -0.6959    0.0071 C   0  0  0  0  0  0  0  0  0  0  0  0
   -1.3571    0.9164    0.8341 H   0  0  0  0  0  0  0  0  0  0  0  0
   -1.4573    0.8221   -0.8395 H   0  0  0  0  0  0  0  0  0  0  0  0
   -0.1437   -1.1835    0.7709 H   0  0  0  0  0  0  0  0  0  0  0  0
    0.6611   -0.2686    0.3598 H   0  0  0  0  0  0  0  0  0  0  0  0
    0.1063   -1.5342   -0.9102 H   0  0  0  0  0  0  0  0  0  0  0  0
  1  2  1  0  0  0  0
  1  5  1  0  0  0  0
  2  8  1  0  0  0  0
  3  1  1  0  0  0  0
  4  1  1  0  0  0  0
  6  9  1  0  0  0  0
  6  2  1  0  0  0  0
  6 10  1  0  0  0  0
  7  2  1  0  0  0  0
  9 13  1  0  0  0  0
  9 12  1  0  0  0  0
 11  6  1  0  0  0  0
 14  9  1  0  0  0  0
M  END
$$$$
