butane_opt
 OpenBabel08242015393D

 14 12  0  0  0  0  0  0  0  0999 V2000
   -4.0004    0.2341   -0.0514 C   0  0  0  0  0  0  0  0  0  0  0  0
   -2.7092   -0.5991    0.1257 C   0  0  0  0  0  0  0  0  0  0  0  0
   -4.8866   -0.3235    0.0917 H   0  0  0  0  0  0  0  0  0  0  0  0
   -4.0518    1.0413   -1.0804 H   0  0  0  0  0  0  0  0  0  0  0  0
   -3.8110    0.6730    0.7255 H   0  0  0  0  0  0  0  0  0  0  0  0
   -1.4187    0.2321    0.0326 C   0  0  0  0  0  0  0  0  0  0  0  0
   -2.6962   -1.1199   -0.5657 H   0  0  0  0  0  0  0  0  0  0  0  0
   -2.7357   -1.2626    1.1231 H   0  0  0  0  0  0  0  0  0  0  0  0
   -0.0999   -0.7351   -0.0238 C   0  0  0  0  0  0  0  0  0  0  0  0
   -1.2147    0.9463    0.8798 H   0  0  0  0  0  0  0  0  0  0  0  0
   -1.5237    0.7731   -0.7161 H   0  0  0  0  0  0  0  0  0  0  0  0
   -0.2337   -0.9261    0.6888 H   0  0  0  0  0  0  0  0  0  0  0  0
    0.8449   -0.0619    0.4167 H   0  0  0  0  0  0  0  0  0  0  0  0
    0.0329   -1.8163   -1.1944 H   0  0  0  0  0  0  0  0  0  0  0  0
  1  3  1  0  0  0  0
  1  2  1  0  0  0  0
  1  5  1  0  0  0  0
  2  8  1  0  0  0  0
  4  1  1  0  0  0  0
  6  2  1  0  0  0  0
  6 10  1  0  0  0  0
  7  2  1  0  0  0  0
  9  6  1  0  0  0  0
  9 13  1  0  0  0  0
  9 12  1  0  0  0  0
 11  6  1  0  0  0  0
M  RAD  2   9   2  14   2
M  END
$$$$
