14
butane_opt
C  -3.906261   0.309559   0.083047
C  -2.690838  -0.663125   0.004767
H  -4.814702  -0.247105  -0.142876
H  -3.992719   0.632312  -0.662087
H  -4.032992   1.182336   1.019861
C  -1.406032   0.157277  -0.070901
H  -2.775011  -1.378901  -0.891936
H  -2.796159  -1.328947   0.903384
C  -0.181356  -0.680430   0.096793
H  -1.343763   0.636924   0.641119
H  -1.431975   1.075340  -1.076648
H  -0.360498  -1.136475   0.889484
H   0.742333   0.008026   0.193110
H  -0.017962  -1.398686  -0.778334
