butane_opt
 OpenBabel08242015393D

 14 13  0  0  0  0  0  0  0  0999 V2000
   -3.9571    0.2582    0.0393 C   0  0  0  0  0  0  0  0  0  0  0  0
   -2.7066   -0.6006    0.0277 C   0  0  0  0  0  0  0  0  0  0  0  0
   -4.8689   -0.3507   -0.0787 H   0  0  0  0  0  0  0  0  0  0  0  0
   -3.9033    0.7210   -0.7771 H   0  0  0  0  0  0  0  0  0  0  0  0
   -3.9694    1.0616    0.9934 H   0  0  0  0  0  0  0  0  0  0  0  0
   -1.3973    0.1931   -0.0275 C   0  0  0  0  0  0  0  0  0  0  0  0
   -2.7500   -1.3163   -0.8295 H   0  0  0  0  0  0  0  0  0  0  0  0
   -2.7370   -1.2205    0.9201 H   0  0  0  0  0  0  0  0  0  0  0  0
   -0.1533   -0.6980    0.0501 C   0  0  0  0  0  0  0  0  0  0  0  0
   -1.3712    0.8681    0.8234 H   0  0  0  0  0  0  0  0  0  0  0  0
   -1.3846    0.8343   -0.9353 H   0  0  0  0  0  0  0  0  0  0  0  0
   -0.1326   -1.4600    1.0210 H   0  0  0  0  0  0  0  0  0  0  0  0
    0.7395   -0.1178    0.0215 H   0  0  0  0  0  0  0  0  0  0  0  0
   -0.0802   -1.3251   -0.7666 H   0  0  0  0  0  0  0  0  0  0  0  0
  1  5  1  0  0  0  0
  2  1  1  0  0  0  0
  2  8  1  0  0  0  0
  3  1  1  0  0  0  0
  4  1  1  0  0  0  0
  6  2  1  0  0  0  0
  6  9  1  0  0  0  0
  6 10  1  0  0  0  0
  7  2  1  0  0  0  0
  9 12  1  0  0  0  0
 11  6  1  0  0  0  0
 13  9  1  0  0  0  0
 14  9  1  0  0  0  0
M  END
$$$$
