14
butane_opt
C  -3.953404   0.222547   0.082775
C  -2.721602  -0.564568   0.008697
H  -5.024487  -0.414286  -0.314249
H  -3.904840   0.506130  -0.598353
H  -3.921707   1.177259   1.187182
C  -1.402864   0.244915  -0.111998
H  -2.738097  -1.334372  -0.879709
H  -2.626725  -1.263567   0.946840
C  -0.117841  -0.740538   0.088661
H  -1.336959   0.935896   0.770345
H  -1.533549   0.891578  -1.067969
H  -0.281661  -1.410836   1.102840
H   0.666837  -0.270848   0.117965
H   0.070089  -1.274458  -0.607217
