butane_opt
 OpenBabel08242015393D

 14 12  0  0  0  0  0  0  0  0999 V2000
   -3.9114    0.2708   -0.0719 C   0  0  0  0  0  0  0  0  0  0  0  0
   -2.6938   -0.5865    0.1504 C   0  0  0  0  0  0  0  0  0  0  0  0
   -4.9702   -0.5169    0.0086 H   0  0  0  0  0  0  0  0  0  0  0  0
   -3.9851    0.9123   -0.9871 H   0  0  0  0  0  0  0  0  0  0  0  0
   -3.8703    0.8368    0.7412 H   0  0  0  0  0  0  0  0  0  0  0  0
   -1.3877    0.1982    0.0552 C   0  0  0  0  0  0  0  0  0  0  0  0
   -2.6077   -1.1555   -0.5238 H   0  0  0  0  0  0  0  0  0  0  0  0
   -2.8197   -1.3661    1.1864 H   0  0  0  0  0  0  0  0  0  0  0  0
   -0.2014   -0.7075   -0.0504 C   0  0  0  0  0  0  0  0  0  0  0  0
   -1.4274    0.9114    0.9047 H   0  0  0  0  0  0  0  0  0  0  0  0
   -1.4419    0.7022   -0.7491 H   0  0  0  0  0  0  0  0  0  0  0  0
   -0.3232   -1.0472    0.6851 H   0  0  0  0  0  0  0  0  0  0  0  0
    0.7538   -0.1308    0.3244 H   0  0  0  0  0  0  0  0  0  0  0  0
    0.0121   -1.7364   -1.2070 H   0  0  0  0  0  0  0  0  0  0  0  0
  1  3  1  0  0  0  0
  1  2  1  0  0  0  0
  1  5  1  0  0  0  0
  2  8  1  0  0  0  0
  4  1  1  0  0  0  0
  6  2  1  0  0  0  0
  6 10  1  0  0  0  0
  7  2  1  0  0  0  0
  9  6  1  0  0  0  0
  9 13  1  0  0  0  0
  9 12  1  0  0  0  0
 11  6  1  0  0  0  0
M  RAD  2   9   2  14   2
M  END
$$$$
