butane_opt
 OpenBabel08242015393D

 14 13  0  0  0  0  0  0  0  0999 V2000
   -4.0155    0.2760   -0.0909 C   0  0  0  0  0  0  0  0  0  0  0  0
   -2.6849   -0.6321    0.1619 C   0  0  0  0  0  0  0  0  0  0  0  0
   -4.9053   -0.2497   -0.3023 H   0  0  0  0  0  0  0  0  0  0  0  0
   -3.9125    0.7748   -0.8599 H   0  0  0  0  0  0  0  0  0  0  0  0
   -4.0242    0.9880    0.7710 H   0  0  0  0  0  0  0  0  0  0  0  0
   -1.3805    0.1876    0.0993 C   0  0  0  0  0  0  0  0  0  0  0  0
   -2.4885   -1.1712   -0.5452 H   0  0  0  0  0  0  0  0  0  0  0  0
   -2.9469   -1.3987    1.1561 H   0  0  0  0  0  0  0  0  0  0  0  0
   -0.1379   -0.6950   -0.0701 C   0  0  0  0  0  0  0  0  0  0  0  0
   -1.2192    1.0075    1.0036 H   0  0  0  0  0  0  0  0  0  0  0  0
   -1.4533    0.6527   -0.6749 H   0  0  0  0  0  0  0  0  0  0  0  0
   -0.0144   -1.2655    0.8323 H   0  0  0  0  0  0  0  0  0  0  0  0
    0.8211   -0.0582   -0.2019 H   0  0  0  0  0  0  0  0  0  0  0  0
   -0.2668   -1.3892   -0.9320 H   0  0  0  0  0  0  0  0  0  0  0  0
  1  2  1  0  0  0  0
  1  5  1  0  0  0  0
  2  8  1  0  0  0  0
  3  1  1  0  0  0  0
  4  1  1  0  0  0  0
  6  2  1  0  0  0  0
  6 10  1  0  0  0  0
  7  2  1  0  0  0  0
  9  6  1  0  0  0  0
  9 12  1  0  0  0  0
 11  6  1  0  0  0  0
 13  9  1  0  0  0  0
 14  9  1  0  0  0  0
M  END
$$$$
