butane_opt
 OpenBabel08242015393D

 14 12  0  0  0  0  0  0  0  0999 V2000
   -3.9305    0.2135   -0.0527 C   0  0  0  0  0  0  0  0  0  0  0  0
   -2.7277   -0.5793    0.1016 C   0  0  0  0  0  0  0  0  0  0  0  0
   -4.8825   -0.3545    0.3858 H   0  0  0  0  0  0  0  0  0  0  0  0
   -4.1129    1.3541   -1.2107 H   0  0  0  0  0  0  0  0  0  0  0  0
   -3.9063    0.4734    0.5707 H   0  0  0  0  0  0  0  0  0  0  0  0
   -1.4543    0.2436    0.1205 C   0  0  0  0  0  0  0  0  0  0  0  0
   -2.7247   -1.3374   -0.8472 H   0  0  0  0  0  0  0  0  0  0  0  0
   -2.8532   -1.1745    0.9441 H   0  0  0  0  0  0  0  0  0  0  0  0
   -0.0913   -0.7255   -0.0475 C   0  0  0  0  0  0  0  0  0  0  0  0
   -1.3979    0.9283    0.9418 H   0  0  0  0  0  0  0  0  0  0  0  0
   -1.3833    0.7587   -0.6393 H   0  0  0  0  0  0  0  0  0  0  0  0
   -0.0829   -1.2002    0.7029 H   0  0  0  0  0  0  0  0  0  0  0  0
    0.7633   -0.1533    0.0358 H   0  0  0  0  0  0  0  0  0  0  0  0
    0.0287   -1.5951   -0.9810 H   0  0  0  0  0  0  0  0  0  0  0  0
  1  2  1  0  0  0  0
  1  3  1  0  0  0  0
  1  5  1  0  0  0  0
  2  6  1  0  0  0  0
  2  8  1  0  0  0  0
  6 10  1  0  0  0  0
  7  2  1  0  0  0  0
  9 13  1  0  0  0  0
  9  6  1  0  0  0  0
  9 12  1  0  0  0  0
 11  6  1  0  0  0  0
 14  9  1  0  0  0  0
M  RAD  2   1   2   4   2
M  END
$$$$
