butane_opt
 OpenBabel08242015393D

 14 13  0  0  0  0  0  0  0  0999 V2000
   -3.8879    0.2405   -0.1097 C   0  0  0  0  0  0  0  0  0  0  0  0
   -2.6968   -0.5783    0.1958 C   0  0  0  0  0  0  0  0  0  0  0  0
   -4.8281   -0.3853   -0.3813 H   0  0  0  0  0  0  0  0  0  0  0  0
   -3.7923    0.5832   -0.8098 H   0  0  0  0  0  0  0  0  0  0  0  0
   -4.1334    1.0013    0.7904 H   0  0  0  0  0  0  0  0  0  0  0  0
   -1.4283    0.2417    0.0979 C   0  0  0  0  0  0  0  0  0  0  0  0
   -2.6447   -1.0610   -0.5213 H   0  0  0  0  0  0  0  0  0  0  0  0
   -3.0220   -1.4257    1.2058 H   0  0  0  0  0  0  0  0  0  0  0  0
   -0.1653   -0.7370   -0.0793 C   0  0  0  0  0  0  0  0  0  0  0  0
   -1.3592    0.9686    0.9998 H   0  0  0  0  0  0  0  0  0  0  0  0
   -1.5665    0.7418   -0.6826 H   0  0  0  0  0  0  0  0  0  0  0  0
    0.0358   -1.2850    0.7241 H   0  0  0  0  0  0  0  0  0  0  0  0
    0.7628   -0.2008   -0.0596 H   0  0  0  0  0  0  0  0  0  0  0  0
   -0.3204   -1.4248   -1.0499 H   0  0  0  0  0  0  0  0  0  0  0  0
  1  2  1  0  0  0  0
  1  5  1  0  0  0  0
  2  8  1  0  0  0  0
  3  1  1  0  0  0  0
  4  1  1  0  0  0  0
  6  2  1  0  0  0  0
  6 10  1  0  0  0  0
  7  2  1  0  0  0  0
  9 13  1  0  0  0  0
  9  6  1  0  0  0  0
  9 12  1  0  0  0  0
 11  6  1  0  0  0  0
 14  9  1  0  0  0  0
M  END
$$$$
