butane_opt
 OpenBabel08242015393D

 14 13  0  0  0  0  0  0  0  0999 V2000
   -3.9806    0.3039   -0.1051 C   0  0  0  0  0  0  0  0  0  0  0  0
   -2.6767   -0.6577    0.1967 C   0  0  0  0  0  0  0  0  0  0  0  0
   -4.9398   -0.2986   -0.4027 H   0  0  0  0  0  0  0  0  0  0  0  0
   -3.8401    0.8444   -0.9610 H   0  0  0  0  0  0  0  0  0  0  0  0
   -4.2090    0.9785    0.8475 H   0  0  0  0  0  0  0  0  0  0  0  0
   -1.3596    0.1712    0.1195 C   0  0  0  0  0  0  0  0  0  0  0  0
   -2.5687   -1.2732   -0.6504 H   0  0  0  0  0  0  0  0  0  0  0  0
   -2.7915   -1.2896    1.1000 H   0  0  0  0  0  0  0  0  0  0  0  0
   -0.1786   -0.6728   -0.0759 C   0  0  0  0  0  0  0  0  0  0  0  0
   -1.1941    0.8082    1.0018 H   0  0  0  0  0  0  0  0  0  0  0  0
   -1.6499    0.6563   -0.6742 H   0  0  0  0  0  0  0  0  0  0  0  0
    0.0303   -1.3108    0.8327 H   0  0  0  0  0  0  0  0  0  0  0  0
    0.7978    0.0561   -0.2621 H   0  0  0  0  0  0  0  0  0  0  0  0
   -0.3302   -1.3650   -0.9983 H   0  0  0  0  0  0  0  0  0  0  0  0
  1  2  1  0  0  0  0
  1  5  1  0  0  0  0
  2  8  1  0  0  0  0
  3  1  1  0  0  0  0
  4  1  1  0  0  0  0
  6  2  1  0  0  0  0
  6 10  1  0  0  0  0
  7  2  1  0  0  0  0
  9  6  1  0  0  0  0
  9 12  1  0  0  0  0
 11  6  1  0  0  0  0
 13  9  1  0  0  0  0
 14  9  1  0  0  0  0
M  END
$$$$
