butane_opt
 OpenBabel08242015393D

 14 13  0  0  0  0  0  0  0  0999 V2000
   -3.9215    0.2270    0.0765 C   0  0  0  0  0  0  0  0  0  0  0  0
   -2.7114   -0.5467   -0.0038 C   0  0  0  0  0  0  0  0  0  0  0  0
   -4.9508   -0.5151    0.1505 H   0  0  0  0  0  0  0  0  0  0  0  0
   -3.8371    0.6870   -0.6764 H   0  0  0  0  0  0  0  0  0  0  0  0
   -3.8356    0.9879    0.9892 H   0  0  0  0  0  0  0  0  0  0  0  0
   -1.4411    0.2072   -0.0979 C   0  0  0  0  0  0  0  0  0  0  0  0
   -2.6985   -1.2732   -0.8756 H   0  0  0  0  0  0  0  0  0  0  0  0
   -2.5737   -1.1574    0.8499 H   0  0  0  0  0  0  0  0  0  0  0  0
   -0.1427   -0.7089    0.1107 C   0  0  0  0  0  0  0  0  0  0  0  0
   -1.6597    0.7745    0.5971 H   0  0  0  0  0  0  0  0  0  0  0  0
   -1.2593    0.9113   -1.0394 H   0  0  0  0  0  0  0  0  0  0  0  0
   -0.1922   -1.2328    1.0320 H   0  0  0  0  0  0  0  0  0  0  0  0
    0.6616   -0.1757    0.2827 H   0  0  0  0  0  0  0  0  0  0  0  0
   -0.0590   -1.6643   -0.9046 H   0  0  0  0  0  0  0  0  0  0  0  0
  1  3  1  0  0  0  0
  1  5  1  0  0  0  0
  2  1  1  0  0  0  0
  2  8  1  0  0  0  0
  4  1  1  0  0  0  0
  6  2  1  0  0  0  0
  6  9  1  0  0  0  0
  6 10  1  0  0  0  0
  7  2  1  0  0  0  0
  9 13  1  0  0  0  0
  9 12  1  0  0  0  0
 11  6  1  0  0  0  0
 14  9  1  0  0  0  0
M  END
$$$$
