butane_opt
 OpenBabel08242015393D

 14 13  0  0  0  0  0  0  0  0999 V2000
   -3.9427    0.2743    0.0986 C   0  0  0  0  0  0  0  0  0  0  0  0
   -2.6871   -0.6087   -0.0680 C   0  0  0  0  0  0  0  0  0  0  0  0
   -4.9351   -0.4495    0.2355 H   0  0  0  0  0  0  0  0  0  0  0  0
   -4.1684    0.8809   -0.7794 H   0  0  0  0  0  0  0  0  0  0  0  0
   -3.6145    0.8768    1.0602 H   0  0  0  0  0  0  0  0  0  0  0  0
   -1.4169    0.1689   -0.0844 C   0  0  0  0  0  0  0  0  0  0  0  0
   -2.8184   -1.3925   -1.0019 H   0  0  0  0  0  0  0  0  0  0  0  0
   -2.5102   -1.1571    0.6570 H   0  0  0  0  0  0  0  0  0  0  0  0
   -0.1810   -0.6908    0.1183 C   0  0  0  0  0  0  0  0  0  0  0  0
   -1.4840    0.9256    0.8484 H   0  0  0  0  0  0  0  0  0  0  0  0
   -1.4642    0.8912   -1.0225 H   0  0  0  0  0  0  0  0  0  0  0  0
   -0.2071   -1.5134    1.1918 H   0  0  0  0  0  0  0  0  0  0  0  0
    0.8211   -0.0101    0.0828 H   0  0  0  0  0  0  0  0  0  0  0  0
    0.0586   -1.2314   -0.6108 H   0  0  0  0  0  0  0  0  0  0  0  0
  1  3  1  0  0  0  0
  1  5  1  0  0  0  0
  2  1  1  0  0  0  0
  2  8  1  0  0  0  0
  4  1  1  0  0  0  0
  6  2  1  0  0  0  0
  6  9  1  0  0  0  0
  6 10  1  0  0  0  0
  7  2  1  0  0  0  0
  9 12  1  0  0  0  0
 11  6  1  0  0  0  0
 13  9  1  0  0  0  0
 14  9  1  0  0  0  0
M  END
$$$$
