butane_opt
 OpenBabel08242015393D

 14 12  0  0  0  0  0  0  0  0999 V2000
   -3.9516    0.2717   -0.0776 C   0  0  0  0  0  0  0  0  0  0  0  0
   -2.6758   -0.6484    0.1865 C   0  0  0  0  0  0  0  0  0  0  0  0
   -4.7362   -0.2764    0.0557 H   0  0  0  0  0  0  0  0  0  0  0  0
   -3.8124    1.0338   -1.0971 H   0  0  0  0  0  0  0  0  0  0  0  0
   -4.0366    0.9413    0.7640 H   0  0  0  0  0  0  0  0  0  0  0  0
   -1.4005    0.1619    0.0494 C   0  0  0  0  0  0  0  0  0  0  0  0
   -2.6045   -1.2419   -0.5948 H   0  0  0  0  0  0  0  0  0  0  0  0
   -2.5718   -1.2470    1.0140 H   0  0  0  0  0  0  0  0  0  0  0  0
   -0.2146   -0.6706   -0.0585 C   0  0  0  0  0  0  0  0  0  0  0  0
   -1.1861    0.8046    0.9012 H   0  0  0  0  0  0  0  0  0  0  0  0
   -1.5027    0.8453   -0.7585 H   0  0  0  0  0  0  0  0  0  0  0  0
   -0.3867   -0.9210    0.6310 H   0  0  0  0  0  0  0  0  0  0  0  0
    0.7705   -0.0402    0.4293 H   0  0  0  0  0  0  0  0  0  0  0  0
   -0.0544   -1.7439   -1.1378 H   0  0  0  0  0  0  0  0  0  0  0  0
  1  3  1  0  0  0  0
  1  2  1  0  0  0  0
  1  5  1  0  0  0  0
  2  8  1  0  0  0  0
  4  1  1  0  0  0  0
  6  2  1  0  0  0  0
  6 10  1  0  0  0  0
  7  2  1  0  0  0  0
  9  6  1  0  0  0  0
  9 13  1  0  0  0  0
  9 12  1  0  0  0  0
 11  6  1  0  0  0  0
M  RAD  2   9   2  14   2
M  END
$$$$
