14
butane_opt
C  -3.926872   0.255556   0.034567
C  -2.704435  -0.610973   0.018031
H  -4.832351  -0.363844   0.034103
H  -3.994861   0.883975  -0.859330
H  -3.936041   0.928506   0.890672
C  -1.408084   0.196000  -0.002037
H  -2.761049  -1.289083  -0.853996
H  -2.654748  -1.163418   0.864204
C  -0.168994  -0.706188   0.052738
H  -1.410352   0.884892   0.870312
H  -1.395454   0.828069  -0.884331
H  -0.121613  -1.400070   0.980494
H   0.762277  -0.100335  -0.069243
H  -0.171149  -1.296915  -0.773194
