butane_opt
 OpenBabel08242015393D

 14 13  0  0  0  0  0  0  0  0999 V2000
   -3.9160    0.3176   -0.0233 C   0  0  0  0  0  0  0  0  0  0  0  0
   -2.6564   -0.6812    0.1075 C   0  0  0  0  0  0  0  0  0  0  0  0
   -4.9163   -0.2927   -0.0361 H   0  0  0  0  0  0  0  0  0  0  0  0
   -3.8374    0.8483   -0.8589 H   0  0  0  0  0  0  0  0  0  0  0  0
   -4.1819    0.9461    0.7679 H   0  0  0  0  0  0  0  0  0  0  0  0
   -1.4163    0.1588    0.0185 C   0  0  0  0  0  0  0  0  0  0  0  0
   -2.7406   -1.1851   -0.6085 H   0  0  0  0  0  0  0  0  0  0  0  0
   -2.5846   -1.4731    1.0968 H   0  0  0  0  0  0  0  0  0  0  0  0
   -0.2095   -0.6448   -0.0185 C   0  0  0  0  0  0  0  0  0  0  0  0
   -1.2831    0.9218    0.8279 H   0  0  0  0  0  0  0  0  0  0  0  0
   -1.4290    0.7015   -0.8222 H   0  0  0  0  0  0  0  0  0  0  0  0
   -0.3538   -1.1336    0.7425 H   0  0  0  0  0  0  0  0  0  0  0  0
    0.6956    0.0044    0.3633 H   0  0  0  0  0  0  0  0  0  0  0  0
   -0.0308   -1.6332   -1.0573 H   0  0  0  0  0  0  0  0  0  0  0  0
  1  2  1  0  0  0  0
  1  5  1  0  0  0  0
  2  8  1  0  0  0  0
  3  1  1  0  0  0  0
  4  1  1  0  0  0  0
  6  2  1  0  0  0  0
  6 10  1  0  0  0  0
  7  2  1  0  0  0  0
  9  6  1  0  0  0  0
  9 13  1  0  0  0  0
  9 12  1  0  0  0  0
 11  6  1  0  0  0  0
 14  9  1  0  0  0  0
M  END
$$$$
