14
butane_opt
C  -3.956141   0.263932  -0.047819
C  -2.703929  -0.626011   0.153227
H  -4.923049  -0.392372   0.051572
H  -3.960128   0.980403  -0.985509
H  -4.123155   0.700250   0.639719
C  -1.383752   0.239673   0.048212
H  -2.838862  -1.276515  -0.706356
H  -2.815506  -1.249807   1.130749
C  -0.141987  -0.714526  -0.044543
H  -1.204700   0.900073   0.932375
H  -1.467956   0.969650  -0.920112
H  -0.306558  -1.003040   0.596156
H   0.700173  -0.218852   0.465447
H   0.167911  -1.874546  -1.130796
