butane_opt
 OpenBabel08242015393D

 14 13  0  0  0  0  0  0  0  0999 V2000
   -3.8951    0.2694   -0.0725 C   0  0  0  0  0  0  0  0  0  0  0  0
   -2.6744   -0.6211    0.1403 C   0  0  0  0  0  0  0  0  0  0  0  0
   -4.8860   -0.3829    0.1576 H   0  0  0  0  0  0  0  0  0  0  0  0
   -3.9456    1.0366   -1.0832 H   0  0  0  0  0  0  0  0  0  0  0  0
   -3.8413    0.6562    0.6866 H   0  0  0  0  0  0  0  0  0  0  0  0
   -1.4530    0.2051    0.0705 C   0  0  0  0  0  0  0  0  0  0  0  0
   -2.5619   -1.2210   -0.6114 H   0  0  0  0  0  0  0  0  0  0  0  0
   -2.8860   -1.2763    1.0814 H   0  0  0  0  0  0  0  0  0  0  0  0
   -0.1811   -0.7078   -0.0422 C   0  0  0  0  0  0  0  0  0  0  0  0
   -1.3955    0.8925    1.0401 H   0  0  0  0  0  0  0  0  0  0  0  0
   -1.5393    0.7072   -0.7297 H   0  0  0  0  0  0  0  0  0  0  0  0
   -0.2362   -0.9191    0.5608 H   0  0  0  0  0  0  0  0  0  0  0  0
    0.7443   -0.1273    0.1529 H   0  0  0  0  0  0  0  0  0  0  0  0
   -0.0356   -1.5725   -1.0238 H   0  0  0  0  0  0  0  0  0  0  0  0
  1  2  1  0  0  0  0
  1  3  1  0  0  0  0
  1  5  1  0  0  0  0
  2  8  1  0  0  0  0
  4  1  1  0  0  0  0
  6  2  1  0  0  0  0
  6 10  1  0  0  0  0
  7  2  1  0  0  0  0
  9  6  1  0  0  0  0
  9 13  1  0  0  0  0
  9 12  1  0  0  0  0
 11  6  1  0  0  0  0
 14  9  1  0  0  0  0
M  END
$$$$
