butane_opt
 OpenBabel08242015393D

 14 12  0  0  0  0  0  0  0  0999 V2000
   -3.9060    0.2662    0.0971 C   0  0  0  0  0  0  0  0  0  0  0  0
   -2.7234   -0.5761    0.0022 C   0  0  0  0  0  0  0  0  0  0  0  0
   -4.9885   -0.5497   -0.4708 H   0  0  0  0  0  0  0  0  0  0  0  0
   -3.6907    0.4133   -0.5599 H   0  0  0  0  0  0  0  0  0  0  0  0
   -3.9225    1.2958    1.1986 H   0  0  0  0  0  0  0  0  0  0  0  0
   -1.4069    0.1781   -0.0838 C   0  0  0  0  0  0  0  0  0  0  0  0
   -2.7775   -1.2812   -0.8074 H   0  0  0  0  0  0  0  0  0  0  0  0
   -2.6446   -1.1591    0.8929 H   0  0  0  0  0  0  0  0  0  0  0  0
   -0.1674   -0.7133    0.0930 C   0  0  0  0  0  0  0  0  0  0  0  0
   -1.6408    0.7788    0.6526 H   0  0  0  0  0  0  0  0  0  0  0  0
   -1.2702    1.0868   -1.1421 H   0  0  0  0  0  0  0  0  0  0  0  0
   -0.2090   -1.4726    1.1467 H   0  0  0  0  0  0  0  0  0  0  0  0
    0.6978   -0.1534   -0.0343 H   0  0  0  0  0  0  0  0  0  0  0  0
   -0.1239   -1.3359   -0.7177 H   0  0  0  0  0  0  0  0  0  0  0  0
  1  5  1  0  0  0  0
  2  1  1  0  0  0  0
  2  8  1  0  0  0  0
  3  1  1  0  0  0  0
  4  1  1  0  0  0  0
  6  9  1  0  0  0  0
  6 10  1  0  0  0  0
  7  2  1  0  0  0  0
  9 12  1  0  0  0  0
 11  6  1  0  0  0  0
 13  9  1  0  0  0  0
 14  9  1  0  0  0  0
M  RAD  2   2   2   6   2
M  END
$$$$
