14
butane_opt
C  -3.968347   0.353193  -0.072237
C  -2.683021  -0.742574   0.076365
H  -4.847819  -0.266679   0.605041
H  -4.555908   1.791584  -1.296634
H  -3.871201   0.407101   0.425110
C  -1.356862   0.114343   0.146463
H  -2.974853  -1.395314  -0.767196
H  -2.664534  -1.269953   0.952516
C  -0.185805  -0.606649  -0.013705
H  -1.230707   0.869520   1.119457
H  -1.106973   0.762916  -0.931982
H  -0.010969  -0.847118   0.628808
H   0.798121  -0.092550   0.156085
H  -0.263090  -1.827340  -1.253174
