butane_opt
 OpenBabel08242015393D

 14 13  0  0  0  0  0  0  0  0999 V2000
   -3.9397    0.2761    0.0482 C   0  0  0  0  0  0  0  0  0  0  0  0
   -2.6974   -0.6319   -0.0094 C   0  0  0  0  0  0  0  0  0  0  0  0
   -4.8504   -0.3298    0.1614 H   0  0  0  0  0  0  0  0  0  0  0  0
   -4.0659    0.9278   -0.8563 H   0  0  0  0  0  0  0  0  0  0  0  0
   -3.8668    0.9385    0.9143 H   0  0  0  0  0  0  0  0  0  0  0  0
   -1.3984    0.1809   -0.0129 C   0  0  0  0  0  0  0  0  0  0  0  0
   -2.7231   -1.3208   -0.8546 H   0  0  0  0  0  0  0  0  0  0  0  0
   -2.7166   -1.2352    0.8524 H   0  0  0  0  0  0  0  0  0  0  0  0
   -0.1706   -0.6881    0.0640 C   0  0  0  0  0  0  0  0  0  0  0  0
   -1.4127    0.8084    0.8049 H   0  0  0  0  0  0  0  0  0  0  0  0
   -1.3931    0.8336   -0.9192 H   0  0  0  0  0  0  0  0  0  0  0  0
   -0.1675   -1.3341    0.9560 H   0  0  0  0  0  0  0  0  0  0  0  0
    0.7698   -0.0754    0.0844 H   0  0  0  0  0  0  0  0  0  0  0  0
   -0.1306   -1.3185   -0.7751 H   0  0  0  0  0  0  0  0  0  0  0  0
  1  3  1  0  0  0  0
  1  5  1  0  0  0  0
  2  1  1  0  0  0  0
  2  8  1  0  0  0  0
  4  1  1  0  0  0  0
  6  2  1  0  0  0  0
  6  9  1  0  0  0  0
  6 10  1  0  0  0  0
  7  2  1  0  0  0  0
  9 13  1  0  0  0  0
  9 12  1  0  0  0  0
 11  6  1  0  0  0  0
 14  9  1  0  0  0  0
M  END
$$$$
