14
butane_opt
C  -3.901473   0.282660  -0.016826
C  -2.647032  -0.619458  -0.018755
H  -4.851210  -0.260908   0.845697
H  -4.065058   1.387957  -1.319460
H  -3.763110   0.476527   0.536425
C  -1.393837   0.148714   0.097917
H  -2.866501  -0.995346  -0.722729
H  -2.765061  -1.435122   0.868003
C  -0.231613  -0.712097   0.009165
H  -1.481950   0.939714   1.060919
H  -1.514527   0.561606  -0.631620
H  -0.230224  -0.898040   0.628543
H   0.961925   0.030721   0.123118
H  -0.375206  -1.417286  -0.860341
