butane_opt
 OpenBabel08242015393D

 14 13  0  0  0  0  0  0  0  0999 V2000
   -3.9519    0.2727    0.0362 C   0  0  0  0  0  0  0  0  0  0  0  0
   -2.6959   -0.6334    0.0098 C   0  0  0  0  0  0  0  0  0  0  0  0
   -4.8488   -0.3064    0.0677 H   0  0  0  0  0  0  0  0  0  0  0  0
   -4.0591    0.8154   -0.7995 H   0  0  0  0  0  0  0  0  0  0  0  0
   -3.9538    0.9794    0.9373 H   0  0  0  0  0  0  0  0  0  0  0  0
   -1.3998    0.1887   -0.0127 C   0  0  0  0  0  0  0  0  0  0  0  0
   -2.6899   -1.3305   -0.8738 H   0  0  0  0  0  0  0  0  0  0  0  0
   -2.6995   -1.2285    0.8786 H   0  0  0  0  0  0  0  0  0  0  0  0
   -0.1623   -0.6919    0.0530 C   0  0  0  0  0  0  0  0  0  0  0  0
   -1.3806    0.8969    0.8537 H   0  0  0  0  0  0  0  0  0  0  0  0
   -1.3256    0.8352   -0.9208 H   0  0  0  0  0  0  0  0  0  0  0  0
   -0.1280   -1.3929    1.0334 H   0  0  0  0  0  0  0  0  0  0  0  0
    0.7626   -0.1179   -0.0286 H   0  0  0  0  0  0  0  0  0  0  0  0
   -0.1748   -1.2582   -0.7263 H   0  0  0  0  0  0  0  0  0  0  0  0
  1  3  1  0  0  0  0
  1  5  1  0  0  0  0
  2  1  1  0  0  0  0
  2  8  1  0  0  0  0
  4  1  1  0  0  0  0
  6  2  1  0  0  0  0
  6  9  1  0  0  0  0
  6 10  1  0  0  0  0
  7  2  1  0  0  0  0
  9 12  1  0  0  0  0
 11  6  1  0  0  0  0
 13  9  1  0  0  0  0
 14  9  1  0  0  0  0
M  END
$$$$
