butane_opt
 OpenBabel08242015393D

 14 13  0  0  0  0  0  0  0  0999 V2000
   -3.9535    0.2107   -0.1990 C   0  0  0  0  0  0  0  0  0  0  0  0
   -2.7076   -0.5850    0.2798 C   0  0  0  0  0  0  0  0  0  0  0  0
   -4.7638   -0.3207   -0.4339 H   0  0  0  0  0  0  0  0  0  0  0  0
   -3.7818    0.4310   -0.7845 H   0  0  0  0  0  0  0  0  0  0  0  0
   -4.4023    1.1522    0.8500 H   0  0  0  0  0  0  0  0  0  0  0  0
   -1.4086    0.3096    0.1613 C   0  0  0  0  0  0  0  0  0  0  0  0
   -2.8690   -1.0995   -0.4511 H   0  0  0  0  0  0  0  0  0  0  0  0
   -3.1110   -1.4166    1.4176 H   0  0  0  0  0  0  0  0  0  0  0  0
   -0.0973   -0.7708   -0.1260 C   0  0  0  0  0  0  0  0  0  0  0  0
   -1.2527    0.7164    0.9284 H   0  0  0  0  0  0  0  0  0  0  0  0
   -1.7143    0.9527   -0.7715 H   0  0  0  0  0  0  0  0  0  0  0  0
    0.2193   -1.0250    0.5630 H   0  0  0  0  0  0  0  0  0  0  0  0
    0.7258   -0.2283    0.0132 H   0  0  0  0  0  0  0  0  0  0  0  0
   -0.0567   -1.6208   -1.2549 H   0  0  0  0  0  0  0  0  0  0  0  0
  1  2  1  0  0  0  0
  1  5  1  0  0  0  0
  2  8  1  0  0  0  0
  3  1  1  0  0  0  0
  4  1  1  0  0  0  0
  6  2  1  0  0  0  0
  6 10  1  0  0  0  0
  7  2  1  0  0  0  0
  9 13  1  0  0  0  0
  9  6  1  0  0  0  0
  9 12  1  0  0  0  0
 11  6  1  0  0  0  0
 14  9  1  0  0  0  0
M  END
$$$$
