14
butane_opt
C  -3.967571   0.293317  -0.058775
C  -2.680383  -0.640813   0.217565
H  -4.884940  -0.281395  -0.464400
H  -3.741273   1.142447  -1.213253
H  -4.332141   0.840668   0.655236
C  -1.368900   0.146326   0.103683
H  -2.792100  -1.212941  -0.492167
H  -2.979226  -1.262341   1.238264
C  -0.118976  -0.671830  -0.099551
H  -1.239166   0.775105   0.824674
H  -1.482803   0.668951  -0.652674
H  -0.349346  -1.015310   0.533364
H   0.688305   0.045181   0.312349
H  -0.261377  -1.721034  -1.311239
