butane_opt
 OpenBabel08242015393D

 14  9  0  0  0  0  0  0  0  0999 V2000
   -3.9091    0.1704    0.1000 C   0  0  0  0  0  1  0  0  0  0  0  0
   -2.6758   -0.5107   -0.0288 C   0  0  0  0  0  0  0  0  0  0  0  0
   -4.7281   -0.3928   -0.4753 H   0  0  0  0  0  0  0  0  0  0  0  0
   -3.4858    0.1708   -0.3689 H   0  0  0  0  0  0  0  0  0  0  0  0
   -4.1144    1.4070    1.4449 H   0  0  0  0  0  0  0  0  0  0  0  0
   -1.4761    0.2471   -0.0916 C   0  0  0  0  0  0  0  0  0  0  0  0
   -2.8486   -1.0421   -0.8484 H   0  0  0  0  0  0  0  0  0  0  0  0
   -2.7004   -1.0582    0.7376 H   0  0  0  0  0  0  0  0  0  0  0  0
   -0.1618   -0.7435    0.1254 C   0  0  0  0  0  0  0  0  0  0  0  0
   -1.8003    0.6053    0.5931 H   0  0  0  0  0  0  0  0  0  0  0  0
   -1.2284    0.9820   -1.1965 H   0  0  0  0  0  0  0  0  0  0  0  0
    0.0233   -1.7962    1.2114 H   0  0  0  0  0  0  0  0  0  0  0  0
    0.7781   -0.0698   -0.2452 H   0  0  0  0  0  0  0  0  0  0  0  0
   -0.2537   -1.2306   -0.5804 H   0  0  0  0  0  0  0  0  0  0  0  0
  2  8  1  0  0  0  0
  3  1  1  0  0  0  0
  4  2  1  0  0  0  0
  6  9  1  0  0  0  0
  6 10  1  0  0  0  0
  7  2  1  0  0  0  0
 11  6  1  0  0  0  0
 13  9  1  0  0  0  0
 14  9  1  0  0  0  0
M  RAD  5   2   2   5   2   6   2   9   2  12   2
M  END
$$$$
