butane_opt
 OpenBabel08242015393D

 14 12  0  0  0  0  0  0  0  0999 V2000
   -3.8593    0.1992   -0.0740 C   0  0  0  0  0  0  0  0  0  0  0  0
   -2.7085   -0.5598    0.1378 C   0  0  0  0  0  0  0  0  0  0  0  0
   -4.8159   -0.4316   -0.5239 H   0  0  0  0  0  0  0  0  0  0  0  0
   -3.8059    0.8231   -0.8905 H   0  0  0  0  0  0  0  0  0  0  0  0
   -4.0166    1.0248    0.9600 H   0  0  0  0  0  0  0  0  0  0  0  0
   -1.4974    0.2252    0.1714 C   0  0  0  0  0  0  0  0  0  0  0  0
   -2.7689   -1.1964   -0.6916 H   0  0  0  0  0  0  0  0  0  0  0  0
   -2.8065   -1.0990    0.8138 H   0  0  0  0  0  0  0  0  0  0  0  0
   -0.1813   -0.7291   -0.0897 C   0  0  0  0  0  0  0  0  0  0  0  0
   -1.3058    0.8512    1.0107 H   0  0  0  0  0  0  0  0  0  0  0  0
   -1.5474    0.8934   -0.7658 H   0  0  0  0  0  0  0  0  0  0  0  0
    0.2332   -1.7435    1.0708 H   0  0  0  0  0  0  0  0  0  0  0  0
    0.9106   -0.1947   -0.5547 H   0  0  0  0  0  0  0  0  0  0  0  0
   -0.1557   -1.0056   -0.7040 H   0  0  0  0  0  0  0  0  0  0  0  0
  1  2  1  0  0  0  0
  1  5  1  0  0  0  0
  2  6  1  0  0  0  0
  2  8  1  0  0  0  0
  3  1  1  0  0  0  0
  4  1  1  0  0  0  0
  6 10  1  0  0  0  0
  7  2  1  0  0  0  0
  9  6  1  0  0  0  0
 11  6  1  0  0  0  0
 13  9  1  0  0  0  0
 14  9  1  0  0  0  0
M  RAD  2   9   2  12   2
M  END
$$$$
