14
butane_opt
C  -3.888769   0.321744  -0.087628
C  -2.646846  -0.671163   0.215048
H  -4.802863  -0.183910   0.122976
H  -4.089250   0.919193  -1.035404
H  -4.026073   0.722741   0.523345
C  -1.459551   0.135717   0.063449
H  -2.395637  -1.342883  -0.642876
H  -2.846326  -1.448928   1.225587
C  -0.216271  -0.664091  -0.039087
H  -1.258298   0.888506   0.807750
H  -1.360432   0.906818  -0.941865
H  -0.547125  -0.472913   0.410998
H   0.890715   0.063840   0.444272
H  -0.057452  -2.006552  -1.377655
