butane_opt
 OpenBabel08242015393D

 14 11  0  0  0  0  0  0  0  0999 V2000
   -3.9412    0.1961   -0.1585 C   0  0  0  0  0  0  0  0  0  0  0  0
   -2.7046   -0.5331    0.2009 C   0  0  0  0  0  0  0  0  0  0  0  0
   -4.9362   -0.4795   -0.2313 H   0  0  0  0  0  0  0  0  0  0  0  0
   -3.4993    1.1025   -1.4611 H   0  0  0  0  0  0  0  0  0  0  0  0
   -4.0116    0.6213    0.5170 H   0  0  0  0  0  0  0  0  0  0  0  0
   -1.4196    0.2697    0.3192 C   0  0  0  0  0  0  0  0  0  0  0  0
   -2.5967   -1.1917   -0.6896 H   0  0  0  0  0  0  0  0  0  0  0  0
   -2.8949   -1.1483    1.1173 H   0  0  0  0  0  0  0  0  0  0  0  0
   -0.1297   -0.7531   -0.1611 C   0  0  0  0  0  0  0  0  0  0  0  0
   -1.5300    0.9608    1.1759 H   0  0  0  0  0  0  0  0  0  0  0  0
   -1.8480    0.5276   -0.4095 H   0  0  0  0  0  0  0  0  0  0  0  0
    0.5926   -1.6637    0.8097 H   0  0  0  0  0  0  0  0  0  0  0  0
    0.9111   -0.1178   -0.8491 H   0  0  0  0  0  0  0  0  0  0  0  0
   -0.8665   -1.1847   -0.9160 H   0  0  0  0  0  0  0  0  0  0  0  0
  1  2  1  0  0  0  0
  1  5  1  0  0  0  0
  2  8  1  0  0  0  0
  3  1  1  0  0  0  0
  6 10  1  0  0  0  0
  7  2  1  0  0  0  0
  9  6  1  0  0  0  0
  9 12  1  0  0  0  0
 11  6  1  0  0  0  0
 13  9  1  0  0  0  0
 14  9  1  0  0  0  0
M  RAD  4   1   2   2   2   4   2   6   2
M  END
$$$$
