14
butane_opt
C  -3.951538   0.261405  -0.012681
C  -2.709946  -0.609256   0.081044
H  -4.907983  -0.384607  -0.104712
H  -3.873214   0.843408  -0.919015
H  -4.028961   0.952029   0.886017
C  -1.392711   0.202713   0.043051
H  -2.708775  -1.259876  -0.753073
H  -2.761377  -1.247882   0.998560
C  -0.148212  -0.706436  -0.004310
H  -1.326321   0.869661   0.882817
H  -1.469793   0.820334  -0.840386
H  -0.076757  -1.328995   0.885784
H   0.736616  -0.143893  -0.005675
H  -0.167164  -1.381054  -0.864879
