butane_opt
 OpenBabel08242015393D

 14 13  0  0  0  0  0  0  0  0999 V2000
   -3.9091    0.2375    0.1264 C   0  0  0  0  0  0  0  0  0  0  0  0
   -2.6634   -0.5817   -0.1204 C   0  0  0  0  0  0  0  0  0  0  0  0
   -4.8212   -0.3074    0.0013 H   0  0  0  0  0  0  0  0  0  0  0  0
   -3.9172    0.8596   -0.6073 H   0  0  0  0  0  0  0  0  0  0  0  0
   -3.7053    0.7766    0.8763 H   0  0  0  0  0  0  0  0  0  0  0  0
   -1.4629    0.1827   -0.0062 C   0  0  0  0  0  0  0  0  0  0  0  0
   -2.8928   -1.4836   -1.0789 H   0  0  0  0  0  0  0  0  0  0  0  0
   -2.4792   -1.0475    0.7418 H   0  0  0  0  0  0  0  0  0  0  0  0
   -0.1926   -0.6637    0.1353 C   0  0  0  0  0  0  0  0  0  0  0  0
   -1.5378    0.6843    0.5803 H   0  0  0  0  0  0  0  0  0  0  0  0
   -1.2667    1.0206   -0.9968 H   0  0  0  0  0  0  0  0  0  0  0  0
    0.0965   -1.6435    1.2071 H   0  0  0  0  0  0  0  0  0  0  0  0
    0.5199   -0.3156   -0.3240 H   0  0  0  0  0  0  0  0  0  0  0  0
   -0.2906   -1.1340   -0.5901 H   0  0  0  0  0  0  0  0  0  0  0  0
  1  5  1  0  0  0  0
  2  6  1  0  0  0  0
  2  1  1  0  0  0  0
  2  8  1  0  0  0  0
  3  1  1  0  0  0  0
  4  1  1  0  0  0  0
  6  9  1  0  0  0  0
  6 10  1  0  0  0  0
  7  2  1  0  0  0  0
  9 12  1  0  0  0  0
 11  6  1  0  0  0  0
 13  9  1  0  0  0  0
 14  9  1  0  0  0  0
M  END
$$$$
