14
butane_opt
C  -3.916468   0.260660   0.098957
C  -2.702158  -0.664594  -0.064150
H  -4.717398  -0.241246   0.396494
H  -4.240649   0.666452  -0.517808
H  -3.686193   1.155147   1.115630
C  -1.427565   0.191115  -0.178420
H  -2.649431  -1.118581  -0.681352
H  -2.312304  -1.297847   0.880019
C  -0.177830  -0.666645   0.166868
H  -1.464431   0.695115   0.559879
H  -1.305973   0.954612  -1.287886
H  -0.798513  -0.858200   0.795520
H   0.535122  -0.224273   0.837502
H   0.321777  -1.697184  -0.974759
