butane_opt
 OpenBabel08242015393D

 14 13  0  0  0  0  0  0  0  0999 V2000
   -3.9468    0.2491   -0.1194 C   0  0  0  0  0  0  0  0  0  0  0  0
   -2.7317   -0.6796    0.1454 C   0  0  0  0  0  0  0  0  0  0  0  0
   -4.7503   -0.1285    0.1477 H   0  0  0  0  0  0  0  0  0  0  0  0
   -4.0984    1.0858   -1.1307 H   0  0  0  0  0  0  0  0  0  0  0  0
   -4.2962    1.0411    0.7794 H   0  0  0  0  0  0  0  0  0  0  0  0
   -1.4139    0.1656    0.1670 C   0  0  0  0  0  0  0  0  0  0  0  0
   -2.7014   -1.3293   -0.8422 H   0  0  0  0  0  0  0  0  0  0  0  0
   -2.7005   -1.2666    1.0296 H   0  0  0  0  0  0  0  0  0  0  0  0
   -0.0954   -0.6506   -0.0562 C   0  0  0  0  0  0  0  0  0  0  0  0
   -1.4308    0.8881    1.1009 H   0  0  0  0  0  0  0  0  0  0  0  0
   -1.3678    0.9567   -0.7835 H   0  0  0  0  0  0  0  0  0  0  0  0
    0.3325   -1.2132    0.8703 H   0  0  0  0  0  0  0  0  0  0  0  0
    0.7227   -0.1875   -0.3936 H   0  0  0  0  0  0  0  0  0  0  0  0
   -0.4654   -1.3469   -0.9799 H   0  0  0  0  0  0  0  0  0  0  0  0
  1  2  1  0  0  0  0
  1  3  1  0  0  0  0
  1  5  1  0  0  0  0
  2  6  1  0  0  0  0
  2  8  1  0  0  0  0
  4  1  1  0  0  0  0
  6 10  1  0  0  0  0
  7  2  1  0  0  0  0
  9  6  1  0  0  0  0
  9 12  1  0  0  0  0
 11  6  1  0  0  0  0
 13  9  1  0  0  0  0
 14  9  1  0  0  0  0
M  END
$$$$
