butane_opt
 OpenBabel08242015393D

 14 11  0  0  0  0  0  0  0  0999 V2000
   -3.9978    0.1972    0.2171 C   0  0  0  0  0  0  0  0  0  0  0  0
   -2.7364   -0.5129   -0.1918 C   0  0  0  0  0  0  0  0  0  0  0  0
   -5.1321   -0.5048    0.8740 H   0  0  0  0  0  0  0  0  0  0  0  0
   -4.3215    1.2027   -0.9815 H   0  0  0  0  0  0  0  0  0  0  0  0
   -3.5313    0.5430    0.8617 H   0  0  0  0  0  0  0  0  0  0  0  0
   -1.3955    0.2753   -0.1494 C   0  0  0  0  0  0  0  0  0  0  0  0
   -3.0511   -1.6246   -1.4029 H   0  0  0  0  0  0  0  0  0  0  0  0
   -2.5757   -0.9000    0.4972 H   0  0  0  0  0  0  0  0  0  0  0  0
   -0.0649   -0.7608    0.2131 C   0  0  0  0  0  0  0  0  0  0  0  0
   -1.5668    0.9040    0.6033 H   0  0  0  0  0  0  0  0  0  0  0  0
   -0.8732    0.7902   -1.1553 H   0  0  0  0  0  0  0  0  0  0  0  0
   -0.0876   -1.5835    1.2892 H   0  0  0  0  0  0  0  0  0  0  0  0
    0.6035   -0.3279    0.3283 H   0  0  0  0  0  0  0  0  0  0  0  0
   -0.0760   -1.3877   -0.5649 H   0  0  0  0  0  0  0  0  0  0  0  0
  1  5  1  0  0  0  0
  1  3  1  0  0  0  0
  2  6  1  0  0  0  0
  2  1  1  0  0  0  0
  2  8  1  0  0  0  0
  6  9  1  0  0  0  0
  6 10  1  0  0  0  0
  9 13  1  0  0  0  0
  9 12  1  0  0  0  0
 11  6  1  0  0  0  0
 14  9  1  0  0  0  0
M  RAD  4   1   2   2   2   4   2   7   2
M  END
$$$$
