butane_opt
 OpenBabel08242015393D

 14 13  0  0  0  0  0  0  0  0999 V2000
   -3.9518    0.3507   -0.1075 C   0  0  0  0  0  0  0  0  0  0  0  0
   -2.6595   -0.6674    0.1748 C   0  0  0  0  0  0  0  0  0  0  0  0
   -4.9143   -0.1656   -0.1686 H   0  0  0  0  0  0  0  0  0  0  0  0
   -3.7840    0.9458   -1.0351 H   0  0  0  0  0  0  0  0  0  0  0  0
   -4.0693    0.8711    0.5889 H   0  0  0  0  0  0  0  0  0  0  0  0
   -1.3771    0.0764    0.1707 C   0  0  0  0  0  0  0  0  0  0  0  0
   -2.4134   -1.4902   -0.8490 H   0  0  0  0  0  0  0  0  0  0  0  0
   -2.9728   -1.0280    0.9925 H   0  0  0  0  0  0  0  0  0  0  0  0
   -0.1957   -0.6222   -0.0935 C   0  0  0  0  0  0  0  0  0  0  0  0
   -1.0833    0.7346    1.1657 H   0  0  0  0  0  0  0  0  0  0  0  0
   -1.4833    0.5133   -0.4508 H   0  0  0  0  0  0  0  0  0  0  0  0
   -0.0719   -1.5574    0.9782 H   0  0  0  0  0  0  0  0  0  0  0  0
    0.7387    0.0936   -0.7707 H   0  0  0  0  0  0  0  0  0  0  0  0
   -0.7792   -1.0168   -0.7041 H   0  0  0  0  0  0  0  0  0  0  0  0
  1  2  1  0  0  0  0
  1  5  1  0  0  0  0
  2  8  1  0  0  0  0
  3  1  1  0  0  0  0
  4  1  1  0  0  0  0
  6  2  1  0  0  0  0
  6 10  1  0  0  0  0
  7  2  1  0  0  0  0
  9  6  1  0  0  0  0
  9 12  1  0  0  0  0
 11  6  1  0  0  0  0
 13  9  1  0  0  0  0
 14  9  1  0  0  0  0
M  END
$$$$
