14
butane_opt
C  -3.933364   0.268748  -0.061741
C  -2.634952  -0.590954   0.086520
H  -4.906840  -0.361346   0.818852
H  -4.119357   1.492272  -1.474756
H  -3.820290   0.418382   0.455395
C  -1.448871   0.142511   0.151210
H  -2.597972  -1.544820  -1.133797
H  -2.644597  -1.141219   0.892728
C  -0.160768  -0.685044  -0.036527
H  -1.065602   0.850223   1.011527
H  -1.570374   0.687906  -0.662348
H  -0.410986  -1.104457   0.841630
H   0.781795   0.070077  -0.003396
H  -0.479658  -1.455065  -1.006867
