14
butane_opt
C  -4.016524   0.311478   0.153020
C  -2.691480  -0.656540  -0.121563
H  -4.772801  -0.214803   0.574718
H  -4.506612   0.819968  -0.632199
H  -3.757281   0.896887   1.060629
C  -1.301336   0.126029  -0.120527
H  -2.640574  -1.598864  -1.247795
H  -2.659925  -0.879568   0.380122
C  -0.172588  -0.631976   0.185347
H  -1.570595   0.593149   0.477962
H  -1.090523   1.001451  -1.161396
H  -0.260750  -1.542332   1.290325
H   0.641560  -0.277917   0.250143
H  -0.211718  -1.062903  -0.648334
