butane_opt
 OpenBabel08242015393D

 14 11  0  0  0  0  0  0  0  0999 V2000
   -3.8837    0.2229   -0.1053 C   0  0  0  0  0  0  0  0  0  0  0  0
   -2.7561   -0.5960    0.1808 C   0  0  0  0  0  0  0  0  0  0  0  0
   -5.0181   -0.4757   -0.1943 H   0  0  0  0  0  0  0  0  0  0  0  0
   -3.9713    0.8621   -0.8772 H   0  0  0  0  0  0  0  0  0  0  0  0
   -3.9024    0.9028    0.7683 H   0  0  0  0  0  0  0  0  0  0  0  0
   -1.4239    0.2529    0.0519 C   0  0  0  0  0  0  0  0  0  0  0  0
   -2.5618   -0.8916   -0.2821 H   0  0  0  0  0  0  0  0  0  0  0  0
   -3.0464   -1.4170    1.2206 H   0  0  0  0  0  0  0  0  0  0  0  0
   -0.1506   -0.7359   -0.0748 C   0  0  0  0  0  0  0  0  0  0  0  0
   -1.3394    1.0609    1.0785 H   0  0  0  0  0  0  0  0  0  0  0  0
   -1.4614    0.8843   -0.6825 H   0  0  0  0  0  0  0  0  0  0  0  0
    0.1210   -1.0167    0.6256 H   0  0  0  0  0  0  0  0  0  0  0  0
    0.6264   -0.3688    0.3707 H   0  0  0  0  0  0  0  0  0  0  0  0
    0.1155   -1.8162   -1.2623 H   0  0  0  0  0  0  0  0  0  0  0  0
  1  2  1  0  0  0  0
  1  5  1  0  0  0  0
  2  8  1  0  0  0  0
  3  1  1  0  0  0  0
  4  1  1  0  0  0  0
  6  2  1  0  0  0  0
  6 10  1  0  0  0  0
  9  6  1  0  0  0  0
  9 13  1  0  0  0  0
  9 12  1  0  0  0  0
 11  6  1  0  0  0  0
M  RAD  4   2   2   7   2   9   2  14   2
M  END
$$$$
