14
butane_opt
C  -3.886632   0.278862  -0.057727
C  -2.706453  -0.649628   0.147173
H  -4.632207  -0.281193   0.119685
H  -3.861069   1.020626  -1.105278
H  -3.836589   0.813575   0.715323
C  -1.396617   0.211730   0.000222
H  -2.722668  -0.868265  -0.490497
H  -2.639774  -1.624916   1.214372
C  -0.220470  -0.715326  -0.003741
H  -1.379388   0.917907   0.863288
H  -1.495748   0.673564  -0.729935
H  -0.310398  -0.603587   0.279633
H   0.693666  -0.039672   0.743547
H  -0.311764  -1.979685  -1.265398
