14
butane_opt
C  -3.970931   0.179207  -0.021818
C  -2.781156  -0.545332   0.165063
H  -4.771349  -0.458254   0.080960
H  -3.953636   1.288965  -1.235924
H  -3.784792   0.531197   0.756869
C  -1.395455   0.290808  -0.004047
H  -2.832702  -1.051868  -0.678207
H  -2.691494  -1.243672   1.049892
C  -0.075848  -0.800655  -0.031500
H  -1.658263   1.011090   0.864354
H  -1.322989   0.805075  -0.813471
H  -0.339490  -0.645063   0.442101
H   0.819299  -0.299261   0.762853
H   0.240650  -1.915247  -1.226873
