butane_opt
 OpenBabel08242015393D

 14  9  0  0  0  0  0  0  0  0999 V2000
   -3.9185    0.1800   -0.1239 C   0  0  0  0  0  1  0  0  0  0  0  0
   -2.7167   -0.4708    0.1267 C   0  0  0  0  0  0  0  0  0  0  0  0
   -4.8401   -0.4663    0.8317 H   0  0  0  0  0  0  0  0  0  0  0  0
   -3.9392    1.3812   -1.2804 H   0  0  0  0  0  0  0  0  0  0  0  0
   -3.4147    0.1618    0.3631 H   0  0  0  0  0  0  0  0  0  0  0  0
   -1.4928    0.1920    0.1665 C   0  0  0  0  0  0  0  0  0  0  0  0
   -2.4261   -1.3854   -0.7706 H   0  0  0  0  0  0  0  0  0  0  0  0
   -2.8527   -1.0639    1.1136 H   0  0  0  0  0  0  0  0  0  0  0  0
   -0.1522   -0.7115   -0.0854 C   0  0  0  0  0  0  0  0  0  0  0  0
   -1.4571    1.0423    1.0631 H   0  0  0  0  0  0  0  0  0  0  0  0
   -1.4595    0.8529   -0.6771 H   0  0  0  0  0  0  0  0  0  0  0  0
    0.0698   -1.1624    0.6044 H   0  0  0  0  0  0  0  0  0  0  0  0
    0.7742   -0.2421    0.3291 H   0  0  0  0  0  0  0  0  0  0  0  0
   -0.1296   -1.8638   -1.2124 H   0  0  0  0  0  0  0  0  0  0  0  0
  1  5  1  0  0  0  0
  2  6  1  0  0  0  0
  2  8  1  0  0  0  0
  6 10  1  0  0  0  0
  7  2  1  0  0  0  0
  9  6  1  0  0  0  0
  9 13  1  0  0  0  0
  9 12  1  0  0  0  0
 11  6  1  0  0  0  0
M  RAD  5   2   2   3   2   4   2   9   2  14   2
M  END
$$$$
