14
butane_opt
C  -3.963756   0.304771   0.093983
C  -2.710183  -0.670287  -0.060064
H  -4.900047  -0.277373   0.032130
H  -4.014605   0.903685  -0.794839
H  -4.260870   1.092373   0.973713
C  -1.378482   0.136300  -0.013043
H  -2.824488  -1.477959  -1.008601
H  -2.567736  -1.120176   0.644331
C  -0.129916  -0.654316   0.092676
H  -1.351345   0.744402   0.788333
H  -1.406927   0.832763  -0.864602
H  -0.015220  -1.615785   1.249732
H   0.779478   0.029694  -0.400636
H  -0.277827  -0.971452  -0.493171
