butane_opt
 OpenBabel08242015393D

 14  9  0  0  0  0  0  0  0  0999 V2000
   -3.8672    0.2033   -0.0471 C   0  0  0  0  0  1  0  0  0  0  0  0
   -2.7156   -0.4863    0.0944 C   0  0  0  0  0  0  0  0  0  0  0  0
   -5.0279   -0.5698    0.4821 H   0  0  0  0  0  0  0  0  0  0  0  0
   -3.9351    1.4188   -1.4143 H   0  0  0  0  0  0  0  0  0  0  0  0
   -3.6220    0.0117    0.1596 H   0  0  0  0  0  0  0  0  0  0  0  0
   -1.5021    0.1975    0.1499 C   0  0  0  0  0  0  0  0  0  0  0  0
   -2.6355   -1.0342   -0.7197 H   0  0  0  0  0  0  0  0  0  0  0  0
   -2.6655   -1.1745    0.9910 H   0  0  0  0  0  0  0  0  0  0  0  0
   -0.1488   -0.7300   -0.0832 C   0  0  0  0  0  0  0  0  0  0  0  0
   -1.4383    1.1822    1.3713 H   0  0  0  0  0  0  0  0  0  0  0  0
   -1.3314    0.5114   -0.5552 H   0  0  0  0  0  0  0  0  0  0  0  0
   -0.0533   -1.1397    0.7402 H   0  0  0  0  0  0  0  0  0  0  0  0
    0.6247   -0.3666    0.0258 H   0  0  0  0  0  0  0  0  0  0  0  0
   -0.1046   -1.5663   -1.1354 H   0  0  0  0  0  0  0  0  0  0  0  0
  1  3  1  0  0  0  0
  2  5  1  0  0  0  0
  2  8  1  0  0  0  0
  7  2  1  0  0  0  0
  9 13  1  0  0  0  0
  9  6  1  0  0  0  0
  9 12  1  0  0  0  0
 11  6  1  0  0  0  0
 14  9  1  0  0  0  0
M  RAD  4   2   2   4   2   6   3  10   2
M  END
$$$$
