butane_opt
 OpenBabel08242015393D

 14 11  0  0  0  0  0  0  0  0999 V2000
   -3.9213    0.2816   -0.0829 C   0  0  0  0  0  0  0  0  0  0  0  0
   -2.7508   -0.6193    0.2185 C   0  0  0  0  0  0  0  0  0  0  0  0
   -4.9471   -0.3809    0.2313 H   0  0  0  0  0  0  0  0  0  0  0  0
   -3.9343    1.0139   -1.0364 H   0  0  0  0  0  0  0  0  0  0  0  0
   -4.0164    0.5969    0.6489 H   0  0  0  0  0  0  0  0  0  0  0  0
   -1.4072    0.2118    0.0107 C   0  0  0  0  0  0  0  0  0  0  0  0
   -3.0445   -1.2708   -0.6052 H   0  0  0  0  0  0  0  0  0  0  0  0
   -2.8011   -1.2271    0.9431 H   0  0  0  0  0  0  0  0  0  0  0  0
   -0.0883   -0.7254   -0.0437 C   0  0  0  0  0  0  0  0  0  0  0  0
   -1.2594    0.9564    0.9185 H   0  0  0  0  0  0  0  0  0  0  0  0
   -1.6373    0.9918   -0.9587 H   0  0  0  0  0  0  0  0  0  0  0  0
   -0.5756   -0.6303    0.4762 H   0  0  0  0  0  0  0  0  0  0  0  0
    0.9042   -0.2104    0.7417 H   0  0  0  0  0  0  0  0  0  0  0  0
    0.2948   -2.1173   -1.2496 H   0  0  0  0  0  0  0  0  0  0  0  0
  1  2  1  0  0  0  0
  1  3  1  0  0  0  0
  1  5  1  0  0  0  0
  2  8  1  0  0  0  0
  4  1  1  0  0  0  0
  6  2  1  0  0  0  0
  6 10  1  0  0  0  0
  7  2  1  0  0  0  0
  9 12  1  0  0  0  0
  9 13  1  0  0  0  0
 11  6  1  0  0  0  0
M  RAD  3   6   2   9   3  14   2
M  END
$$$$
