14
butane_opt
C  -3.931936   0.262704  -0.013239
C  -2.693867  -0.606205   0.057921
H  -4.856799  -0.331250   0.030378
H  -3.918419   0.855623  -0.901226
H  -3.986516   0.910399   0.817703
C  -1.415037   0.176180   0.047281
H  -2.712844  -1.262225  -0.766756
H  -2.761835  -1.235248   0.975720
C  -0.166756  -0.696065   0.004539
H  -1.331612   0.930157   0.943169
H  -1.486382   0.764575  -0.795785
H  -0.076298  -1.377030   0.934242
H   0.773163  -0.084678  -0.113053
H  -0.181004  -1.280917  -0.828374
