butane_opt
 OpenBabel08242015393D

 14 13  0  0  0  0  0  0  0  0999 V2000
   -3.8862    0.2110   -0.0294 C   0  0  0  0  0  0  0  0  0  0  0  0
   -2.7295   -0.4781    0.0742 C   0  0  0  0  0  0  0  0  0  0  0  0
   -5.0071   -0.7190    0.1663 H   0  0  0  0  0  0  0  0  0  0  0  0
   -3.7119    0.9767   -1.0129 H   0  0  0  0  0  0  0  0  0  0  0  0
   -3.7158    0.8554    0.7737 H   0  0  0  0  0  0  0  0  0  0  0  0
   -1.4283    0.2087    0.0886 C   0  0  0  0  0  0  0  0  0  0  0  0
   -2.8571   -1.3428   -0.7597 H   0  0  0  0  0  0  0  0  0  0  0  0
   -2.7542   -1.2648    1.0902 H   0  0  0  0  0  0  0  0  0  0  0  0
   -0.1612   -0.7460   -0.0121 C   0  0  0  0  0  0  0  0  0  0  0  0
   -1.6082    0.6400    0.7416 H   0  0  0  0  0  0  0  0  0  0  0  0
   -1.5190    1.0444   -0.9424 H   0  0  0  0  0  0  0  0  0  0  0  0
   -0.1003   -1.1024    0.7740 H   0  0  0  0  0  0  0  0  0  0  0  0
    0.6681   -0.1268    0.1805 H   0  0  0  0  0  0  0  0  0  0  0  0
    0.0470   -1.7909   -1.0858 H   0  0  0  0  0  0  0  0  0  0  0  0
  1  2  1  0  0  0  0
  1  3  1  0  0  0  0
  1  5  1  0  0  0  0
  2  6  1  0  0  0  0
  2  8  1  0  0  0  0
  4  1  1  0  0  0  0
  6 10  1  0  0  0  0
  7  2  1  0  0  0  0
  9  6  1  0  0  0  0
  9 13  1  0  0  0  0
  9 12  1  0  0  0  0
 11  6  1  0  0  0  0
 14  9  1  0  0  0  0
M  END
$$$$
