butane_opt
 OpenBabel08242015393D

 14  9  0  0  0  0  0  0  0  0999 V2000
   -3.9410    0.3299    0.1139 C   0  0  0  0  0  1  0  0  0  0  0  0
   -2.6649   -0.6392   -0.0491 C   0  0  0  0  0  0  0  0  0  0  0  0
   -4.7943   -0.1795   -0.4273 H   0  0  0  0  0  0  0  0  0  0  0  0
   -3.8306    0.1661   -0.2393 H   0  0  0  0  0  0  0  0  0  0  0  0
   -4.1408    1.7376    1.4746 H   0  0  0  0  0  0  0  0  0  0  0  0
   -1.4002    0.0143   -0.1330 C   0  0  0  0  0  0  0  0  0  0  0  0
   -2.5607   -1.4623   -1.0070 H   0  0  0  0  0  0  0  0  0  0  0  0
   -2.6320   -1.3246    0.7454 H   0  0  0  0  0  0  0  0  0  0  0  0
   -0.1920   -0.5760    0.1695 C   0  0  0  0  0  0  0  0  0  0  0  0
   -1.4157    0.4438    0.5565 H   0  0  0  0  0  0  0  0  0  0  0  0
   -1.5712    1.1560   -1.3491 H   0  0  0  0  0  0  0  0  0  0  0  0
   -0.3053   -1.4676    1.4142 H   0  0  0  0  0  0  0  0  0  0  0  0
    0.9201    0.0483   -0.2208 H   0  0  0  0  0  0  0  0  0  0  0  0
   -0.3795   -1.1122   -0.5870 H   0  0  0  0  0  0  0  0  0  0  0  0
  2  8  1  0  0  0  0
  3  1  1  0  0  0  0
  4  2  1  0  0  0  0
  6  2  1  0  0  0  0
  6  9  1  0  0  0  0
  6 10  1  0  0  0  0
  7  2  1  0  0  0  0
 13  9  1  0  0  0  0
 14  9  1  0  0  0  0
M  RAD  5   5   2   6   2   9   2  11   2  12   2
M  END
$$$$
