butane_opt
 OpenBabel08242015393D

 14 13  0  0  0  0  0  0  0  0999 V2000
   -3.9545    0.2744   -0.0029 C   0  0  0  0  0  0  0  0  0  0  0  0
   -2.7078   -0.6239    0.0744 C   0  0  0  0  0  0  0  0  0  0  0  0
   -4.8707   -0.2922    0.0585 H   0  0  0  0  0  0  0  0  0  0  0  0
   -4.0048    0.9041   -0.9067 H   0  0  0  0  0  0  0  0  0  0  0  0
   -4.0029    0.8796    0.8151 H   0  0  0  0  0  0  0  0  0  0  0  0
   -1.3948    0.1754    0.0105 C   0  0  0  0  0  0  0  0  0  0  0  0
   -2.7048   -1.2654   -0.7500 H   0  0  0  0  0  0  0  0  0  0  0  0
   -2.7256   -1.2792    0.9873 H   0  0  0  0  0  0  0  0  0  0  0  0
   -0.1467   -0.6863    0.0124 C   0  0  0  0  0  0  0  0  0  0  0  0
   -1.3972    0.8735    0.9016 H   0  0  0  0  0  0  0  0  0  0  0  0
   -1.4079    0.7651   -0.8596 H   0  0  0  0  0  0  0  0  0  0  0  0
   -0.2288   -1.1813    0.8209 H   0  0  0  0  0  0  0  0  0  0  0  0
    0.7825   -0.0768    0.1515 H   0  0  0  0  0  0  0  0  0  0  0  0
   -0.0256   -1.4725   -0.9321 H   0  0  0  0  0  0  0  0  0  0  0  0
  1  3  1  0  0  0  0
  1  2  1  0  0  0  0
  1  5  1  0  0  0  0
  2  8  1  0  0  0  0
  4  1  1  0  0  0  0
  6  9  1  0  0  0  0
  6  2  1  0  0  0  0
  6 10  1  0  0  0  0
  7  2  1  0  0  0  0
  9 13  1  0  0  0  0
  9 12  1  0  0  0  0
 11  6  1  0  0  0  0
 14  9  1  0  0  0  0
M  END
$$$$
