14
butane_opt
C  -3.951489   0.247751  -0.147321
C  -2.777470  -0.623896   0.189516
H  -4.705961  -0.238787  -0.320416
H  -3.980116   0.794705  -1.010717
H  -4.011355   0.739597   0.544686
C  -1.358462   0.283418   0.185591
H  -2.709748  -1.114406  -0.516440
H  -3.014528  -1.307895   1.153357
C  -0.138533  -0.745631  -0.136568
H  -1.112447   1.234777   1.238855
H  -1.801428   0.634186  -0.256136
H   0.324376  -1.658820   0.909589
H   0.848414  -0.210695  -0.591695
H  -0.175303  -1.263077  -0.798758
