butane_opt
 OpenBabel08242015393D

 14 10  0  0  0  0  0  0  0  0999 V2000
   -3.9775    0.2417   -0.1540 C   0  0  0  0  0  0  0  0  0  0  0  0
   -2.7277   -0.5596    0.2681 C   0  0  0  0  0  0  0  0  0  0  0  0
   -5.1491   -0.5267   -0.7489 H   0  0  0  0  0  0  0  0  0  0  0  0
   -3.2889    0.3331   -1.0063 H   0  0  0  0  0  0  0  0  0  0  0  0
   -4.3784    1.1117    0.7788 H   0  0  0  0  0  0  0  0  0  0  0  0
   -1.4580    0.2219    0.1805 C   0  0  0  0  0  0  0  0  0  0  0  0
   -2.4020   -0.8834   -0.2528 H   0  0  0  0  0  0  0  0  0  0  0  0
   -2.9697   -1.5494    1.4886 H   0  0  0  0  0  0  0  0  0  0  0  0
   -0.0649   -0.7341   -0.1527 C   0  0  0  0  0  0  0  0  0  0  0  0
   -1.1668    1.1326    1.1686 H   0  0  0  0  0  0  0  0  0  0  0  0
   -1.4085    0.9621   -0.7526 H   0  0  0  0  0  0  0  0  0  0  0  0
    0.1384   -1.1966    0.5366 H   0  0  0  0  0  0  0  0  0  0  0  0
    0.7319   -0.3738   -0.2527 H   0  0  0  0  0  0  0  0  0  0  0  0
   -0.3433   -1.5984   -1.1817 H   0  0  0  0  0  0  0  0  0  0  0  0
  1  2  1  0  0  0  0
  1  5  1  0  0  0  0
  4  1  1  0  0  0  0
  6  2  1  0  0  0  0
  6 10  1  0  0  0  0
  7  2  1  0  0  0  0
  9 12  1  0  0  0  0
 11  6  1  0  0  0  0
 13  9  1  0  0  0  0
 14  9  1  0  0  0  0
M  RAD  6   1   2   2   2   3   2   6   2   8   2   9   2
M  END
$$$$
