butane_opt
 OpenBabel08242015393D

 14 13  0  0  0  0  0  0  0  0999 V2000
   -3.9515    0.2478   -0.1473 C   0  0  0  0  0  0  0  0  0  0  0  0
   -2.7775   -0.6239    0.1895 C   0  0  0  0  0  0  0  0  0  0  0  0
   -4.7060   -0.2388   -0.3204 H   0  0  0  0  0  0  0  0  0  0  0  0
   -3.9801    0.7947   -1.0107 H   0  0  0  0  0  0  0  0  0  0  0  0
   -4.0114    0.7396    0.5447 H   0  0  0  0  0  0  0  0  0  0  0  0
   -1.3585    0.2834    0.1856 C   0  0  0  0  0  0  0  0  0  0  0  0
   -2.7097   -1.1144   -0.5164 H   0  0  0  0  0  0  0  0  0  0  0  0
   -3.0145   -1.3079    1.1534 H   0  0  0  0  0  0  0  0  0  0  0  0
   -0.1385   -0.7456   -0.1366 C   0  0  0  0  0  0  0  0  0  0  0  0
   -1.1124    1.2348    1.2389 H   0  0  0  0  0  0  0  0  0  0  0  0
   -1.8014    0.6342   -0.2561 H   0  0  0  0  0  0  0  0  0  0  0  0
    0.3244   -1.6588    0.9096 H   0  0  0  0  0  0  0  0  0  0  0  0
    0.8484   -0.2107   -0.5917 H   0  0  0  0  0  0  0  0  0  0  0  0
   -0.1753   -1.2631   -0.7988 H   0  0  0  0  0  0  0  0  0  0  0  0
  1  2  1  0  0  0  0
  1  5  1  0  0  0  0
  2  8  1  0  0  0  0
  3  1  1  0  0  0  0
  4  1  1  0  0  0  0
  6  2  1  0  0  0  0
  6 10  1  0  0  0  0
  7  2  1  0  0  0  0
  9  6  1  0  0  0  0
  9 12  1  0  0  0  0
 11  6  1  0  0  0  0
 13  9  1  0  0  0  0
 14  9  1  0  0  0  0
M  END
$$$$
