14
butane_opt
C  -3.979556   0.219624   0.183934
C  -2.757501  -0.587657  -0.061621
H  -4.961654  -0.532586   0.069691
H  -3.829226   0.779140  -0.527373
H  -3.563580   1.081346   1.202580
C  -1.398920   0.245368  -0.215160
H  -2.932427  -1.405344  -1.027512
H  -2.659383  -0.894087   0.628147
C  -0.103885  -0.735158   0.169506
H  -1.612246   0.851165   0.496110
H  -1.344485   1.116561  -1.425421
H  -0.511252  -1.355023   1.208603
H   0.593098  -0.228582   0.646240
H   0.649556  -1.650343  -0.770330
