14
butane_opt
C  -3.940784   0.308775   0.215853
C  -2.645172  -0.684238  -0.076959
H  -4.820362  -0.216203  -0.197950
H  -4.037723   0.602891  -0.502496
H  -4.148469   1.448179   1.260685
C  -1.374457   0.139634  -0.223703
H  -2.852086  -1.513458  -1.094174
H  -2.379556  -1.272714   0.584348
C  -0.254032  -0.600898   0.179997
H  -1.400791   0.314933   0.330234
H  -1.472927   0.960433  -1.275310
H  -0.374920  -1.354896   1.105985
H   0.731936   0.005164   0.726049
H   0.254178  -1.359797  -0.565842
