butane_opt
 OpenBabel08242015393D

 14 10  0  0  0  0  0  0  0  0999 V2000
   -3.9278    0.3327    0.0001 C   0  0  0  0  0  0  0  0  0  0  0  0
   -2.5862   -0.6984    0.0068 C   0  0  0  0  0  0  0  0  0  0  0  0
   -4.8896   -0.2727   -0.0770 H   0  0  0  0  0  0  0  0  0  0  0  0
   -4.2099    0.5279   -0.4936 H   0  0  0  0  0  0  0  0  0  0  0  0
   -4.0364    1.4287    1.1174 H   0  0  0  0  0  0  0  0  0  0  0  0
   -1.3765    0.1057   -0.0041 C   0  0  0  0  0  0  0  0  0  0  0  0
   -2.5873   -1.2669   -0.7733 H   0  0  0  0  0  0  0  0  0  0  0  0
   -2.7671   -1.2833    0.9226 H   0  0  0  0  0  0  0  0  0  0  0  0
   -0.2779   -0.6292    0.0522 C   0  0  0  0  0  0  0  0  0  0  0  0
   -1.4818    0.7733    0.8381 H   0  0  0  0  0  0  0  0  0  0  0  0
   -1.1506    0.5839   -0.9527 H   0  0  0  0  0  0  0  0  0  0  0  0
   -0.1942   -1.3448    1.2061 H   0  0  0  0  0  0  0  0  0  0  0  0
    0.6072   -0.0742   -0.4753 H   0  0  0  0  0  0  0  0  0  0  0  0
   -0.2921   -0.8764   -0.4866 H   0  0  0  0  0  0  0  0  0  0  0  0
  1  2  1  0  0  0  0
  2  8  1  0  0  0  0
  3  1  1  0  0  0  0
  6  2  1  0  0  0  0
  6  9  1  0  0  0  0
  6 10  1  0  0  0  0
  7  2  1  0  0  0  0
  9 12  1  0  0  0  0
 11  6  1  0  0  0  0
 13  9  1  0  0  0  0
M  RAD  5   1   3   4   2   5   2   9   2  14   2
M  END
$$$$
