14
butane_opt
C  -3.883722   0.222920  -0.105305
C  -2.756143  -0.596019   0.180760
H  -5.018139  -0.475675  -0.194259
H  -3.971295   0.862051  -0.877245
H  -3.902438   0.902808   0.768257
C  -1.423873   0.252936   0.051924
H  -2.561820  -0.891590  -0.282061
H  -3.046367  -1.416970   1.220608
C  -0.150614  -0.735854  -0.074773
H  -1.339366   1.060883   1.078499
H  -1.461445   0.884321  -0.682472
H   0.120990  -1.016679   0.625588
H   0.626396  -0.368803   0.370745
H   0.115507  -1.816154  -1.262312
