butane_opt
 OpenBabel08242015393D

 14 13  0  0  0  0  0  0  0  0999 V2000
   -3.9025    0.3300    0.1665 C   0  0  0  0  0  0  0  0  0  0  0  0
   -2.6457   -0.6645   -0.1334 C   0  0  0  0  0  0  0  0  0  0  0  0
   -4.7317   -0.1786    0.0945 H   0  0  0  0  0  0  0  0  0  0  0  0
   -4.0150    0.8251   -0.5918 H   0  0  0  0  0  0  0  0  0  0  0  0
   -3.9796    0.8805    0.9198 H   0  0  0  0  0  0  0  0  0  0  0  0
   -1.4102    0.1492   -0.0668 C   0  0  0  0  0  0  0  0  0  0  0  0
   -2.6727   -1.6277   -1.1324 H   0  0  0  0  0  0  0  0  0  0  0  0
   -2.6853   -1.2264    0.5528 H   0  0  0  0  0  0  0  0  0  0  0  0
   -0.2647   -0.6808    0.1897 C   0  0  0  0  0  0  0  0  0  0  0  0
   -1.4458    0.7329    0.7175 H   0  0  0  0  0  0  0  0  0  0  0  0
   -1.0233    0.9553   -1.0821 H   0  0  0  0  0  0  0  0  0  0  0  0
   -0.1887   -1.6041    1.1667 H   0  0  0  0  0  0  0  0  0  0  0  0
    0.7433    0.2146   -0.4855 H   0  0  0  0  0  0  0  0  0  0  0  0
   -0.3852   -1.0111   -0.5697 H   0  0  0  0  0  0  0  0  0  0  0  0
  1  5  1  0  0  0  0
  2  6  1  0  0  0  0
  2  1  1  0  0  0  0
  2  8  1  0  0  0  0
  3  1  1  0  0  0  0
  4  1  1  0  0  0  0
  6  9  1  0  0  0  0
  6 10  1  0  0  0  0
  7  2  1  0  0  0  0
  9 12  1  0  0  0  0
 11  6  1  0  0  0  0
 13  9  1  0  0  0  0
 14  9  1  0  0  0  0
M  END
$$$$
