14
butane_opt
C  -3.971829   0.320631   0.221179
C  -2.697908  -0.761378  -0.184308
H  -4.665175  -0.168369   0.717399
H  -4.390512   1.241745  -0.839261
H  -3.918859   0.897879   0.902262
C  -1.406127   0.166239  -0.118710
H  -2.571325  -1.749147  -1.269320
H  -2.550359  -0.878074   0.303143
C  -0.136309  -0.610849   0.182282
H  -1.397142   0.666436   0.458773
H  -1.279451   0.922159  -1.105870
H  -0.553628  -1.568646   1.369400
H   0.849634  -0.043075   0.215798
H  -0.012287  -1.138302  -0.473873
