14
butane_opt
C  -3.875903   0.325199   0.157865
C  -2.724245  -0.683811  -0.027995
H  -4.634959  -0.222674  -0.489484
H  -3.721341   0.549982  -0.365814
H  -4.150950   1.381838   1.261888
C  -1.399049   0.170035  -0.148187
H  -2.693086  -1.614104  -1.057456
H  -2.511716  -1.239088   0.780765
C  -0.197649  -0.653180   0.119666
H  -1.453835   0.503326   0.455439
H  -1.399144   0.859100  -1.252572
H  -0.524266  -1.418585   1.171491
H   0.699545  -0.109384   0.282565
H  -0.279792  -1.028877  -0.477312
