butane_opt
 OpenBabel08242015393D

 14 12  0  0  0  0  0  0  0  0999 V2000
   -3.9676    0.2933   -0.0588 C   0  0  0  0  0  0  0  0  0  0  0  0
   -2.6804   -0.6408    0.2176 C   0  0  0  0  0  0  0  0  0  0  0  0
   -4.8849   -0.2814   -0.4644 H   0  0  0  0  0  0  0  0  0  0  0  0
   -3.7413    1.1424   -1.2133 H   0  0  0  0  0  0  0  0  0  0  0  0
   -4.3321    0.8407    0.6552 H   0  0  0  0  0  0  0  0  0  0  0  0
   -1.3689    0.1463    0.1037 C   0  0  0  0  0  0  0  0  0  0  0  0
   -2.7921   -1.2129   -0.4922 H   0  0  0  0  0  0  0  0  0  0  0  0
   -2.9792   -1.2623    1.2383 H   0  0  0  0  0  0  0  0  0  0  0  0
   -0.1190   -0.6718   -0.0996 C   0  0  0  0  0  0  0  0  0  0  0  0
   -1.2392    0.7751    0.8247 H   0  0  0  0  0  0  0  0  0  0  0  0
   -1.4828    0.6690   -0.6527 H   0  0  0  0  0  0  0  0  0  0  0  0
   -0.3493   -1.0153    0.5334 H   0  0  0  0  0  0  0  0  0  0  0  0
    0.6883    0.0452    0.3123 H   0  0  0  0  0  0  0  0  0  0  0  0
   -0.2614   -1.7210   -1.3112 H   0  0  0  0  0  0  0  0  0  0  0  0
  1  2  1  0  0  0  0
  1  5  1  0  0  0  0
  2  8  1  0  0  0  0
  3  1  1  0  0  0  0
  4  1  1  0  0  0  0
  6  2  1  0  0  0  0
  6 10  1  0  0  0  0
  7  2  1  0  0  0  0
  9  6  1  0  0  0  0
  9 13  1  0  0  0  0
  9 12  1  0  0  0  0
 11  6  1  0  0  0  0
M  RAD  2   9   2  14   2
M  END
$$$$
