butane_opt
 OpenBabel08242015393D

 14 10  0  0  0  0  0  0  0  0999 V2000
   -4.0120    0.2047   -0.0734 C   0  0  0  0  0  0  0  0  0  0  0  0
   -2.7281   -0.5800    0.1949 C   0  0  0  0  0  0  0  0  0  0  0  0
   -4.8830   -0.3780   -0.0690 H   0  0  0  0  0  0  0  0  0  0  0  0
   -3.9613    1.0905   -1.2874 H   0  0  0  0  0  0  0  0  0  0  0  0
   -3.8948    0.7586    0.7367 H   0  0  0  0  0  0  0  0  0  0  0  0
   -1.3686    0.2461    0.0118 C   0  0  0  0  0  0  0  0  0  0  0  0
   -2.6181   -0.8591   -0.3096 H   0  0  0  0  0  0  0  0  0  0  0  0
   -2.9219   -1.5335    1.2735 H   0  0  0  0  0  0  0  0  0  0  0  0
   -0.0785   -0.7462   -0.0439 C   0  0  0  0  0  1  0  0  0  0  0  0
   -1.5261    1.0780    1.0336 H   0  0  0  0  0  0  0  0  0  0  0  0
   -1.6129    0.7676   -0.6429 H   0  0  0  0  0  0  0  0  0  0  0  0
   -0.2208   -0.5768    0.2544 H   0  0  0  0  0  0  0  0  0  0  0  0
    0.8265   -0.2361    0.6295 H   0  0  0  0  0  0  0  0  0  0  0  0
    0.0607   -2.0875   -1.3630 H   0  0  0  0  0  0  0  0  0  0  0  0
  1  3  1  0  0  0  0
  1  2  1  0  0  0  0
  1  5  1  0  0  0  0
  2  8  1  0  0  0  0
  4  1  1  0  0  0  0
  6  2  1  0  0  0  0
  6 12  1  0  0  0  0
  6 10  1  0  0  0  0
  9 13  1  0  0  0  0
 11  6  1  0  0  0  0
M  RAD  3   2   2   7   2  14   2
M  END
$$$$
