butane_opt
 OpenBabel08242015393D

 14  7  0  0  0  0  0  0  0  0999 V2000
   -3.9292    0.3157   -0.0293 C   0  0  0  0  0  0  0  0  0  0  0  0
   -2.6806   -0.6947    0.1602 C   0  0  0  0  0  0  0  0  0  0  0  0
   -4.6270   -0.2616    0.0793 H   0  0  0  0  0  0  0  0  0  0  0  0
   -4.0266    1.3102   -1.2152 H   0  0  0  0  0  0  0  0  0  0  0  0
   -3.9366    0.5881    0.5004 H   0  0  0  0  0  0  0  0  0  0  0  0
   -1.4200    0.1643   -0.0080 C   0  0  0  0  0  0  0  0  0  0  0  0
   -2.5985   -1.1809   -0.5377 H   0  0  0  0  0  0  0  0  0  0  0  0
   -2.5674   -1.5817    1.2219 H   0  0  0  0  0  0  0  0  0  0  0  0
   -0.2192   -0.6656   -0.0416 C   0  0  0  0  0 15  0  0  0  0  0  0
   -1.4260    1.1657    0.9491 H   0  0  0  0  0  0  0  0  0  0  0  0
   -1.4441    0.4778   -0.5817 H   0  0  0  0  0  0  0  0  0  0  0  0
   -0.3889   -0.6062    0.4343 H   0  0  0  0  0  0  0  0  0  0  0  0
    0.8921    0.1025    0.6751 H   0  0  0  0  0  0  0  0  0  0  0  0
    0.0465   -1.8817   -1.1881 H   0  0  0  0  0  0  0  0  0  0  0  0
  1  3  1  0  0  0  0
  1  2  1  0  0  0  0
  2  8  1  0  0  0  0
  6 12  1  0  0  0  0
  6 10  1  0  0  0  0
  7  2  1  0  0  0  0
 11  6  1  0  0  0  0
M  RAD  7   1   3   2   2   4   2   5   2   6   2  13   2  14   2
M  END
$$$$
