butane_opt
 OpenBabel08242015393D

 14 11  0  0  0  0  0  0  0  0999 V2000
   -3.9015    0.2827   -0.0168 C   0  0  0  0  0  0  0  0  0  0  0  0
   -2.6470   -0.6195   -0.0188 C   0  0  0  0  0  0  0  0  0  0  0  0
   -4.8512   -0.2609    0.8457 H   0  0  0  0  0  0  0  0  0  0  0  0
   -4.0651    1.3880   -1.3195 H   0  0  0  0  0  0  0  0  0  0  0  0
   -3.7631    0.4765    0.5364 H   0  0  0  0  0  0  0  0  0  0  0  0
   -1.3938    0.1487    0.0979 C   0  0  0  0  0  0  0  0  0  0  0  0
   -2.8665   -0.9953   -0.7227 H   0  0  0  0  0  0  0  0  0  0  0  0
   -2.7651   -1.4351    0.8680 H   0  0  0  0  0  0  0  0  0  0  0  0
   -0.2316   -0.7121    0.0092 C   0  0  0  0  0  0  0  0  0  0  0  0
   -1.4820    0.9397    1.0609 H   0  0  0  0  0  0  0  0  0  0  0  0
   -1.5145    0.5616   -0.6316 H   0  0  0  0  0  0  0  0  0  0  0  0
   -0.2302   -0.8980    0.6285 H   0  0  0  0  0  0  0  0  0  0  0  0
    0.9619    0.0307    0.1231 H   0  0  0  0  0  0  0  0  0  0  0  0
   -0.3752   -1.4173   -0.8603 H   0  0  0  0  0  0  0  0  0  0  0  0
  1  3  1  0  0  0  0
  2  1  1  0  0  0  0
  2  6  1  0  0  0  0
  2  8  1  0  0  0  0
  6 10  1  0  0  0  0
  7  2  1  0  0  0  0
  9  6  1  0  0  0  0
  9 13  1  0  0  0  0
  9 12  1  0  0  0  0
 11  6  1  0  0  0  0
 14  9  1  0  0  0  0
M  RAD  3   1   3   4   2   5   2
M  END
$$$$
