14
butane_opt
C  -3.927801   0.332747   0.000125
C  -2.586153  -0.698446   0.006814
H  -4.889650  -0.272654  -0.077047
H  -4.209856   0.527910  -0.493580
H  -4.036445   1.428730   1.117404
C  -1.376484   0.105691  -0.004130
H  -2.587308  -1.266880  -0.773316
H  -2.767087  -1.283254   0.922573
C  -0.277886  -0.629229   0.052238
H  -1.481847   0.773286   0.838104
H  -1.150561   0.583920  -0.952671
H  -0.194236  -1.344752   1.206051
H   0.607223  -0.074184  -0.475348
H  -0.292116  -0.876430  -0.486580
