14
butane_opt
C  -3.919116   0.242191   0.034026
C  -2.777229  -0.555807  -0.003269
H  -5.072342  -0.609994   0.134624
H  -3.887622   0.616216  -0.602117
H  -3.845022   1.111592   1.148328
C  -1.404810   0.244243  -0.004896
H  -2.559392  -1.424869  -1.102793
H  -2.839963  -0.876937   0.695745
C  -0.122978  -0.725790   0.082007
H  -1.441691   0.566395   0.605088
H  -1.232494   0.921515  -0.981998
H   0.098355  -1.748811   1.171245
H   0.637957  -0.295590  -0.327745
H  -0.149209  -1.217112  -0.512347
