butane_opt
 OpenBabel08242015393D

 14 13  0  0  0  0  0  0  0  0999 V2000
   -4.0007    0.1706   -0.1509 C   0  0  0  0  0  0  0  0  0  0  0  0
   -2.7675   -0.5069    0.2813 C   0  0  0  0  0  0  0  0  0  0  0  0
   -4.8880   -0.3001   -0.6804 H   0  0  0  0  0  0  0  0  0  0  0  0
   -3.7405    0.4867   -1.0091 H   0  0  0  0  0  0  0  0  0  0  0  0
   -4.1096    1.0014    0.8308 H   0  0  0  0  0  0  0  0  0  0  0  0
   -1.3983    0.2727    0.1674 C   0  0  0  0  0  0  0  0  0  0  0  0
   -2.5583   -1.2500   -0.4756 H   0  0  0  0  0  0  0  0  0  0  0  0
   -2.9636   -1.1068    1.2419 H   0  0  0  0  0  0  0  0  0  0  0  0
   -0.0388   -0.7791   -0.1413 C   0  0  0  0  0  0  0  0  0  0  0  0
   -1.4307    0.8048    0.8723 H   0  0  0  0  0  0  0  0  0  0  0  0
   -1.5969    0.9431   -0.6478 H   0  0  0  0  0  0  0  0  0  0  0  0
    0.2045   -1.2363    0.7141 H   0  0  0  0  0  0  0  0  0  0  0  0
    0.7156   -0.2266   -0.2636 H   0  0  0  0  0  0  0  0  0  0  0  0
   -0.1569   -1.5044   -1.0279 H   0  0  0  0  0  0  0  0  0  0  0  0
  1  2  1  0  0  0  0
  1  5  1  0  0  0  0
  2  8  1  0  0  0  0
  3  1  1  0  0  0  0
  4  1  1  0  0  0  0
  6  2  1  0  0  0  0
  6 10  1  0  0  0  0
  7  2  1  0  0  0  0
  9  6  1  0  0  0  0
  9 12  1  0  0  0  0
 11  6  1  0  0  0  0
 13  9  1  0  0  0  0
 14  9  1  0  0  0  0
M  END
$$$$
