14
butane_opt
C  -3.967955   0.335494   0.129978
C  -2.655437  -0.759056  -0.058753
H  -4.894668  -0.128399  -0.279696
H  -3.931877   0.873057  -0.822899
H  -4.332013   1.306188   0.961767
C  -1.391161   0.124704  -0.002720
H  -2.817775  -1.716454  -1.045154
H  -2.655554  -1.077991   0.616951
C  -0.147094  -0.606331   0.068929
H  -1.496843   0.937152   0.871536
H  -1.236995   0.791542  -0.918999
H   0.049096  -1.959323   1.536801
H   0.789732  -0.103876  -0.611541
H  -0.578039  -0.521321  -0.420545
