14
butane_opt
C  -3.971633   0.344369   0.144112
C  -2.742658  -0.746609  -0.119110
H  -4.790152  -0.229086   0.267999
H  -4.371239   0.955224  -0.657403
H  -4.032706   1.247488   1.097819
C  -1.333354   0.176576  -0.182555
H  -2.928794  -1.249516  -0.847874
H  -2.622449  -1.542522   0.807704
C  -0.118357  -0.647598   0.189162
H  -1.495994   0.660405   0.605388
H  -1.288802   0.692981  -0.922023
H  -0.194358  -1.049879   1.098030
H   0.787399   0.012266   0.410844
H  -0.117137  -1.466320  -0.806563
