butane_opt
 OpenBabel08242015393D

 14  9  0  0  0  0  0  0  0  0999 V2000
   -3.9088    0.1987   -0.1247 C   0  0  0  0  0  0  0  0  0  0  0  0
   -2.7169   -0.4863    0.1390 C   0  0  0  0  0  0  0  0  0  0  0  0
   -5.0504   -0.5818    0.6194 H   0  0  0  0  0  0  0  0  0  0  0  0
   -4.2665    1.3732   -1.3794 H   0  0  0  0  0  0  0  0  0  0  0  0
   -3.7917    0.3483    0.5376 H   0  0  0  0  0  0  0  0  0  0  0  0
   -1.4285    0.2333    0.1746 C   0  0  0  0  0  0  0  0  0  0  0  0
   -2.8089   -1.3362   -0.8282 H   0  0  0  0  0  0  0  0  0  0  0  0
   -3.1503   -1.1381    1.1062 H   0  0  0  0  0  0  0  0  0  0  0  0
   -0.0876   -0.7555   -0.0528 C   0  0  0  0  0  0  0  0  0  0  0  0
   -1.5249    0.8438    1.0446 H   0  0  0  0  0  0  0  0  0  0  0  0
   -1.3541    0.8838   -0.6001 H   0  0  0  0  0  0  0  0  0  0  0  0
   -0.0383   -1.0591    0.5309 H   0  0  0  0  0  0  0  0  0  0  0  0
    0.8581   -0.2249   -0.0971 H   0  0  0  0  0  0  0  0  0  0  0  0
   -0.1310   -1.8684   -1.2459 H   0  0  0  0  0  0  0  0  0  0  0  0
  1  2  1  0  0  0  0
  1  5  1  0  0  0  0
  2  8  1  0  0  0  0
  6 10  1  0  0  0  0
  7  2  1  0  0  0  0
  9  6  1  0  0  0  0
  9 12  1  0  0  0  0
 11  6  1  0  0  0  0
 13  9  1  0  0  0  0
M  RAD  7   1   3   2   2   3   2   4   2   6   2   9   2  14   2
M  END
$$$$
