14
butane_opt
C  -3.997846   0.197227   0.217087
C  -2.736438  -0.512881  -0.191823
H  -5.132091  -0.504824   0.873984
H  -4.321546   1.202655  -0.981538
H  -3.531341   0.543029   0.861691
C  -1.395482   0.275294  -0.149364
H  -3.051072  -1.624625  -1.402923
H  -2.575682  -0.899972   0.497243
C  -0.064885  -0.760804   0.213111
H  -1.566830   0.904027   0.603314
H  -0.873167   0.790244  -1.155314
H  -0.087607  -1.583493   1.289157
H   0.603537  -0.327852   0.328254
H  -0.076007  -1.387695  -0.564906
