butane_opt
 OpenBabel08242015393D

 14 13  0  0  0  0  0  0  0  0999 V2000
   -3.9434    0.2541    0.0431 C   0  0  0  0  0  0  0  0  0  0  0  0
   -2.7074   -0.6139    0.0049 C   0  0  0  0  0  0  0  0  0  0  0  0
   -4.8149   -0.3366    0.0567 H   0  0  0  0  0  0  0  0  0  0  0  0
   -3.9339    0.8263   -0.8162 H   0  0  0  0  0  0  0  0  0  0  0  0
   -3.9463    0.9747    0.9432 H   0  0  0  0  0  0  0  0  0  0  0  0
   -1.4214    0.2024   -0.0155 C   0  0  0  0  0  0  0  0  0  0  0  0
   -2.7689   -1.3527   -0.8792 H   0  0  0  0  0  0  0  0  0  0  0  0
   -2.6851   -1.1891    0.8742 H   0  0  0  0  0  0  0  0  0  0  0  0
   -0.1461   -0.7037    0.0574 C   0  0  0  0  0  0  0  0  0  0  0  0
   -1.4328    0.9284    0.8480 H   0  0  0  0  0  0  0  0  0  0  0  0
   -1.3547    0.8356   -0.8994 H   0  0  0  0  0  0  0  0  0  0  0  0
   -0.1042   -1.4503    1.0422 H   0  0  0  0  0  0  0  0  0  0  0  0
    0.7594   -0.1250   -0.0847 H   0  0  0  0  0  0  0  0  0  0  0  0
   -0.1235   -1.2481   -0.7099 H   0  0  0  0  0  0  0  0  0  0  0  0
  1  3  1  0  0  0  0
  1  5  1  0  0  0  0
  2  1  1  0  0  0  0
  2  8  1  0  0  0  0
  4  1  1  0  0  0  0
  6  2  1  0  0  0  0
  6  9  1  0  0  0  0
  6 10  1  0  0  0  0
  7  2  1  0  0  0  0
  9 12  1  0  0  0  0
 11  6  1  0  0  0  0
 13  9  1  0  0  0  0
 14  9  1  0  0  0  0
M  END
$$$$
