butane_opt
 OpenBabel08242015393D

 14 13  0  0  0  0  0  0  0  0999 V2000
   -3.9721    0.2287    0.2045 C   0  0  0  0  0  0  0  0  0  0  0  0
   -2.7967   -0.5574   -0.0722 C   0  0  0  0  0  0  0  0  0  0  0  0
   -4.9611   -0.2732    0.0291 H   0  0  0  0  0  0  0  0  0  0  0  0
   -3.8663    0.9113   -0.8383 H   0  0  0  0  0  0  0  0  0  0  0  0
   -3.7896    0.4936    0.8630 H   0  0  0  0  0  0  0  0  0  0  0  0
   -1.3609    0.2389   -0.1404 C   0  0  0  0  0  0  0  0  0  0  0  0
   -2.9681   -1.3643   -1.0505 H   0  0  0  0  0  0  0  0  0  0  0  0
   -2.7247   -0.9018    0.5742 H   0  0  0  0  0  0  0  0  0  0  0  0
   -0.0887   -0.7377    0.1454 C   0  0  0  0  0  0  0  0  0  0  0  0
   -1.5556    0.8098    0.4590 H   0  0  0  0  0  0  0  0  0  0  0  0
   -1.3638    0.9979   -1.0844 H   0  0  0  0  0  0  0  0  0  0  0  0
   -0.1277   -1.2561    1.0745 H   0  0  0  0  0  0  0  0  0  0  0  0
    0.6140   -0.3400    0.4322 H   0  0  0  0  0  0  0  0  0  0  0  0
    0.3273   -1.6555   -0.7142 H   0  0  0  0  0  0  0  0  0  0  0  0
  1  5  1  0  0  0  0
  2  1  1  0  0  0  0
  2  8  1  0  0  0  0
  3  1  1  0  0  0  0
  4  1  1  0  0  0  0
  6  2  1  0  0  0  0
  6  9  1  0  0  0  0
  6 10  1  0  0  0  0
  7  2  1  0  0  0  0
  9 13  1  0  0  0  0
  9 12  1  0  0  0  0
 11  6  1  0  0  0  0
 14  9  1  0  0  0  0
M  END
$$$$
