butane_opt
 OpenBabel08242015393D

 14 12  0  0  0  0  0  0  0  0999 V2000
   -3.9717    0.1972   -0.0972 C   0  0  0  0  0  0  0  0  0  0  0  0
   -2.7548   -0.6068    0.0961 C   0  0  0  0  0  0  0  0  0  0  0  0
   -4.7623   -0.3456   -0.1735 H   0  0  0  0  0  0  0  0  0  0  0  0
   -3.7752    0.7419   -0.9286 H   0  0  0  0  0  0  0  0  0  0  0  0
   -3.9921    0.9066    0.7602 H   0  0  0  0  0  0  0  0  0  0  0  0
   -1.3978    0.3282    0.1707 C   0  0  0  0  0  0  0  0  0  0  0  0
   -2.5261   -0.9965   -0.6669 H   0  0  0  0  0  0  0  0  0  0  0  0
   -3.0661   -1.3137    1.1599 H   0  0  0  0  0  0  0  0  0  0  0  0
   -0.0857   -0.7557   -0.0668 C   0  0  0  0  0  0  0  0  0  0  0  0
   -1.6055    1.2286    1.0951 H   0  0  0  0  0  0  0  0  0  0  0  0
   -1.5681    0.5834   -0.4834 H   0  0  0  0  0  0  0  0  0  0  0  0
    0.6156   -1.8023    1.1403 H   0  0  0  0  0  0  0  0  0  0  0  0
    0.6845   -0.2454   -0.8143 H   0  0  0  0  0  0  0  0  0  0  0  0
   -0.5110   -1.1939   -0.8272 H   0  0  0  0  0  0  0  0  0  0  0  0
  1  2  1  0  0  0  0
  1  5  1  0  0  0  0
  2  6  1  0  0  0  0
  2  8  1  0  0  0  0
  3  1  1  0  0  0  0
  4  1  1  0  0  0  0
  6 10  1  0  0  0  0
  7  2  1  0  0  0  0
  9  6  1  0  0  0  0
 11  6  1  0  0  0  0
 13  9  1  0  0  0  0
 14  9  1  0  0  0  0
M  RAD  2   9   2  12   2
M  END
$$$$
