butane_opt
 OpenBabel08242015393D

 14 13  0  0  0  0  0  0  0  0999 V2000
   -3.9005    0.2502    0.2280 C   0  0  0  0  0  0  0  0  0  0  0  0
   -2.7046   -0.5657   -0.1595 C   0  0  0  0  0  0  0  0  0  0  0  0
   -4.9671   -0.5518    0.2244 H   0  0  0  0  0  0  0  0  0  0  0  0
   -4.0077    0.5884   -0.4788 H   0  0  0  0  0  0  0  0  0  0  0  0
   -3.5739    1.1038    1.1078 H   0  0  0  0  0  0  0  0  0  0  0  0
   -1.4567    0.1633   -0.2478 C   0  0  0  0  0  0  0  0  0  0  0  0
   -2.6607   -1.1886   -1.0390 H   0  0  0  0  0  0  0  0  0  0  0  0
   -2.3676   -1.3110    0.7701 H   0  0  0  0  0  0  0  0  0  0  0  0
   -0.1985   -0.7384    0.2058 C   0  0  0  0  0  0  0  0  0  0  0  0
   -1.3634    0.9322    0.5822 H   0  0  0  0  0  0  0  0  0  0  0  0
   -1.5260    1.0827   -1.3946 H   0  0  0  0  0  0  0  0  0  0  0  0
   -0.5587   -1.1483    1.0915 H   0  0  0  0  0  0  0  0  0  0  0  0
    0.7844    0.0134    0.8730 H   0  0  0  0  0  0  0  0  0  0  0  0
    0.3452   -1.3567   -0.5664 H   0  0  0  0  0  0  0  0  0  0  0  0
  1  5  1  0  0  0  0
  2  1  1  0  0  0  0
  2  8  1  0  0  0  0
  3  1  1  0  0  0  0
  4  1  1  0  0  0  0
  6  2  1  0  0  0  0
  6  9  1  0  0  0  0
  6 10  1  0  0  0  0
  7  2  1  0  0  0  0
  9 13  1  0  0  0  0
  9 12  1  0  0  0  0
 11  6  1  0  0  0  0
 14  9  1  0  0  0  0
M  END
$$$$
