14
butane_opt
C  -3.959947   0.265722   0.047633
C  -2.710653  -0.621508  -0.010716
H  -4.812035  -0.280962   0.195526
H  -4.080912   0.956848  -0.888541
H  -3.892706   0.878276   0.879704
C  -1.391079   0.177678   0.001533
H  -2.723260  -1.328865  -0.883795
H  -2.708607  -1.188514   0.835925
C  -0.150724  -0.695133   0.062778
H  -1.378635   0.831008   0.803941
H  -1.357670   0.876338  -0.937843
H  -0.171097  -1.305075   0.973222
H   0.770765  -0.067444   0.007282
H  -0.122948  -1.358747  -0.766298
