butane_opt
 OpenBabel08242015393D

 14 11  0  0  0  0  0  0  0  0999 V2000
   -3.9635    0.2010   -0.0448 C   0  0  0  0  0  0  0  0  0  0  0  0
   -2.7686   -0.6206    0.0320 C   0  0  0  0  0  0  0  0  0  0  0  0
   -4.7256   -0.2882    0.4163 H   0  0  0  0  0  0  0  0  0  0  0  0
   -4.2182    1.5176   -1.3091 H   0  0  0  0  0  0  0  0  0  0  0  0
   -3.6947    0.4537    0.4753 H   0  0  0  0  0  0  0  0  0  0  0  0
   -1.4189    0.2664    0.1284 C   0  0  0  0  0  0  0  0  0  0  0  0
   -2.8138   -1.0142   -0.6288 H   0  0  0  0  0  0  0  0  0  0  0  0
   -2.6027   -1.4513    1.1678 H   0  0  0  0  0  0  0  0  0  0  0  0
   -0.0916   -0.7313   -0.0505 C   0  0  0  0  0  0  0  0  0  0  0  0
   -1.5076    1.0623    1.1471 H   0  0  0  0  0  0  0  0  0  0  0  0
   -1.4184    0.7114   -0.5273 H   0  0  0  0  0  0  0  0  0  0  0  0
    0.1624   -0.9938    0.6215 H   0  0  0  0  0  0  0  0  0  0  0  0
    0.6415   -0.2575    0.1480 H   0  0  0  0  0  0  0  0  0  0  0  0
    0.0687   -1.5977   -0.9907 H   0  0  0  0  0  0  0  0  0  0  0  0
  1  2  1  0  0  0  0
  1  3  1  0  0  0  0
  1  5  1  0  0  0  0
  2  8  1  0  0  0  0
  6 10  1  0  0  0  0
  7  2  1  0  0  0  0
  9  6  1  0  0  0  0
  9 13  1  0  0  0  0
  9 12  1  0  0  0  0
 11  6  1  0  0  0  0
 14  9  1  0  0  0  0
M  RAD  4   1   2   2   2   4   2   6   2
M  END
$$$$
