14
butane_opt
C  -3.953169   0.294936   0.082844
C  -2.681495  -0.625328  -0.040155
H  -4.949246  -0.329217  -0.660537
H  -3.715014   0.136726  -0.141473
H  -4.005377   1.666725   1.430470
C  -1.392053   0.131502  -0.098373
H  -2.726140  -1.156141  -0.743141
H  -2.400063  -1.463941   1.015445
C  -0.195847  -0.690714   0.121540
H  -1.354055   0.859678   0.608736
H  -1.076294   1.086120  -1.214525
H  -0.492658  -1.513241   1.222078
H   0.685403  -0.110624  -0.251924
H  -0.283116  -1.044865  -0.559505
