14
butane_opt
C  -4.010992   0.312202   0.147998
C  -2.705428  -0.703628  -0.117531
H  -4.696595  -0.177162   0.148250
H  -4.244739   0.934635  -0.825706
H  -3.866418   0.917189   0.948981
C  -1.416892   0.166837  -0.015530
H  -2.801203  -1.499851  -1.117936
H  -2.688147  -0.941758   0.470578
C  -0.110975  -0.677312   0.139250
H  -1.646993   0.677499   0.677303
H  -1.027360   0.846111  -1.120747
H   0.159859  -1.545548   1.300351
H   1.004020   0.052988  -0.405403
H  -0.345258  -0.846909  -0.465336
