butane_opt
 OpenBabel08242015393D

 14 12  0  0  0  0  0  0  0  0999 V2000
   -3.8916    0.3177    0.1063 C   0  0  0  0  0  0  0  0  0  0  0  0
   -2.6816   -0.6865   -0.0108 C   0  0  0  0  0  0  0  0  0  0  0  0
   -4.7056   -0.0820   -0.5084 H   0  0  0  0  0  0  0  0  0  0  0  0
   -3.8766    0.7163   -0.5315 H   0  0  0  0  0  0  0  0  0  0  0  0
   -4.1028    1.2174    1.1222 H   0  0  0  0  0  0  0  0  0  0  0  0
   -1.4292    0.1568   -0.0598 C   0  0  0  0  0  0  0  0  0  0  0  0
   -2.7608   -1.3799   -0.9918 H   0  0  0  0  0  0  0  0  0  0  0  0
   -2.6076   -1.4105    0.8988 H   0  0  0  0  0  0  0  0  0  0  0  0
   -0.2337   -0.6752    0.1186 C   0  0  0  0  0  0  0  0  0  0  0  0
   -1.3357    0.3960    0.4542 H   0  0  0  0  0  0  0  0  0  0  0  0
   -1.2885    1.0078   -1.0678 H   0  0  0  0  0  0  0  0  0  0  0  0
   -0.1233   -1.0972    0.9168 H   0  0  0  0  0  0  0  0  0  0  0  0
    0.9643    0.1237    0.0336 H   0  0  0  0  0  0  0  0  0  0  0  0
   -0.3874   -1.2751   -0.7205 H   0  0  0  0  0  0  0  0  0  0  0  0
  1  5  1  0  0  0  0
  2  1  1  0  0  0  0
  2  8  1  0  0  0  0
  3  1  1  0  0  0  0
  4  1  1  0  0  0  0
  6  2  1  0  0  0  0
  6  9  1  0  0  0  0
  7  2  1  0  0  0  0
  9 12  1  0  0  0  0
 11  6  1  0  0  0  0
 13  9  1  0  0  0  0
 14  9  1  0  0  0  0
M  RAD  2   6   2  10   2
M  END
$$$$
