butane_opt
 OpenBabel08242015393D

 14 13  0  0  0  0  0  0  0  0999 V2000
   -3.9356    0.2675   -0.0177 C   0  0  0  0  0  0  0  0  0  0  0  0
   -2.6958   -0.6173    0.0632 C   0  0  0  0  0  0  0  0  0  0  0  0
   -4.8732   -0.3485    0.0131 H   0  0  0  0  0  0  0  0  0  0  0  0
   -3.9726    0.9076   -0.9330 H   0  0  0  0  0  0  0  0  0  0  0  0
   -3.9487    0.9398    0.8457 H   0  0  0  0  0  0  0  0  0  0  0  0
   -1.4106    0.1802    0.0599 C   0  0  0  0  0  0  0  0  0  0  0  0
   -2.6957   -1.2920   -0.7975 H   0  0  0  0  0  0  0  0  0  0  0  0
   -2.7746   -1.2475    0.9663 H   0  0  0  0  0  0  0  0  0  0  0  0
   -0.1631   -0.7006    0.0075 C   0  0  0  0  0  0  0  0  0  0  0  0
   -1.3369    0.9006    0.9156 H   0  0  0  0  0  0  0  0  0  0  0  0
   -1.4445    0.8095   -0.8342 H   0  0  0  0  0  0  0  0  0  0  0  0
   -0.0688   -1.3395    0.9217 H   0  0  0  0  0  0  0  0  0  0  0  0
    0.7876   -0.0558   -0.1541 H   0  0  0  0  0  0  0  0  0  0  0  0
   -0.2350   -1.3031   -0.8515 H   0  0  0  0  0  0  0  0  0  0  0  0
  1  3  1  0  0  0  0
  1  2  1  0  0  0  0
  1  5  1  0  0  0  0
  2  8  1  0  0  0  0
  4  1  1  0  0  0  0
  6  2  1  0  0  0  0
  6 10  1  0  0  0  0
  7  2  1  0  0  0  0
  9  6  1  0  0  0  0
  9 12  1  0  0  0  0
 11  6  1  0  0  0  0
 13  9  1  0  0  0  0
 14  9  1  0  0  0  0
M  END
$$$$
