butane_opt
 OpenBabel08242015393D

 14 11  0  0  0  0  0  0  0  0999 V2000
   -3.9532    0.2949    0.0828 C   0  0  0  0  0  1  0  0  0  0  0  0
   -2.6815   -0.6253   -0.0402 C   0  0  0  0  0  0  0  0  0  0  0  0
   -4.9492   -0.3292   -0.6605 H   0  0  0  0  0  0  0  0  0  0  0  0
   -3.7150    0.1367   -0.1415 H   0  0  0  0  0  0  0  0  0  0  0  0
   -4.0054    1.6667    1.4305 H   0  0  0  0  0  0  0  0  0  0  0  0
   -1.3921    0.1315   -0.0984 C   0  0  0  0  0  0  0  0  0  0  0  0
   -2.7261   -1.1561   -0.7431 H   0  0  0  0  0  0  0  0  0  0  0  0
   -2.4001   -1.4639    1.0154 H   0  0  0  0  0  0  0  0  0  0  0  0
   -0.1958   -0.6907    0.1215 C   0  0  0  0  0  0  0  0  0  0  0  0
   -1.3541    0.8597    0.6087 H   0  0  0  0  0  0  0  0  0  0  0  0
   -1.0763    1.0861   -1.2145 H   0  0  0  0  0  0  0  0  0  0  0  0
   -0.4927   -1.5132    1.2221 H   0  0  0  0  0  0  0  0  0  0  0  0
    0.6854   -0.1106   -0.2519 H   0  0  0  0  0  0  0  0  0  0  0  0
   -0.2831   -1.0449   -0.5595 H   0  0  0  0  0  0  0  0  0  0  0  0
  2  8  1  0  0  0  0
  3  1  1  0  0  0  0
  4  2  1  0  0  0  0
  6  2  1  0  0  0  0
  6  9  1  0  0  0  0
  6 10  1  0  0  0  0
  7  2  1  0  0  0  0
  9 12  1  0  0  0  0
 11  6  1  0  0  0  0
 13  9  1  0  0  0  0
 14  9  1  0  0  0  0
M  RAD  1   5   2
M  END
$$$$
