butane_opt
 OpenBabel08242015393D

 14  9  0  0  0  0  0  0  0  0999 V2000
   -3.9832    0.2057    0.0706 C   0  0  0  0  0  0  0  0  0  0  0  0
   -2.6805   -0.5492   -0.0087 C   0  0  0  0  0  0  0  0  0  0  0  0
   -4.8888   -0.4395   -0.1542 H   0  0  0  0  0  0  0  0  0  0  0  0
   -4.2270    0.7482   -0.8639 H   0  0  0  0  0  0  0  0  0  0  0  0
   -3.9052    1.1167    1.2252 H   0  0  0  0  0  0  0  0  0  0  0  0
   -1.4305    0.2305   -0.0104 C   0  0  0  0  0  0  0  0  0  0  0  0
   -2.8775   -1.6185   -1.1543 H   0  0  0  0  0  0  0  0  0  0  0  0
   -2.7378   -0.8658    0.4518 H   0  0  0  0  0  0  0  0  0  0  0  0
   -0.1084   -0.7434    0.0660 C   0  0  0  0  0  0  0  0  0  0  0  0
   -1.3956    0.8343    0.8113 H   0  0  0  0  0  0  0  0  0  0  0  0
   -1.4118    0.7806   -0.8511 H   0  0  0  0  0  0  0  0  0  0  0  0
    0.1503   -1.9569    1.4720 H   0  0  0  0  0  0  0  0  0  0  0  0
    0.8900   -0.0662   -0.6188 H   0  0  0  0  0  0  0  0  0  0  0  0
   -0.1660   -0.6794   -0.2177 H   0  0  0  0  0  0  0  0  0  0  0  0
  1  5  1  0  0  0  0
  2  1  1  0  0  0  0
  3  1  1  0  0  0  0
  4  1  1  0  0  0  0
  6  2  1  0  0  0  0
  6  9  1  0  0  0  0
  6 10  1  0  0  0  0
 11  6  1  0  0  0  0
 13  9  1  0  0  0  0
M  RAD  6   2   3   7   2   8   2   9   3  12   2  14   2
M  END
$$$$
