butane_opt
 OpenBabel08242015393D

 14 12  0  0  0  0  0  0  0  0999 V2000
   -3.9721    0.3388    0.2193 C   0  0  0  0  0  0  0  0  0  0  0  0
   -2.6065   -0.6719   -0.1553 C   0  0  0  0  0  0  0  0  0  0  0  0
   -4.9620   -0.2716    0.1819 H   0  0  0  0  0  0  0  0  0  0  0  0
   -3.9704    0.8128   -0.5317 H   0  0  0  0  0  0  0  0  0  0  0  0
   -3.8586    0.9302    1.2162 H   0  0  0  0  0  0  0  0  0  0  0  0
   -1.3741    0.1273   -0.2547 C   0  0  0  0  0  0  0  0  0  0  0  0
   -2.9553   -1.0951   -0.9212 H   0  0  0  0  0  0  0  0  0  0  0  0
   -2.4333   -1.3472    0.7413 H   0  0  0  0  0  0  0  0  0  0  0  0
   -0.2612   -0.6491    0.1994 C   0  0  0  0  0  0  0  0  0  0  0  0
   -1.4406    0.6988    0.5941 H   0  0  0  0  0  0  0  0  0  0  0  0
   -1.2654    0.6922   -1.2336 H   0  0  0  0  0  0  0  0  0  0  0  0
   -0.6491   -1.2217    1.0856 H   0  0  0  0  0  0  0  0  0  0  0  0
    0.9984    0.1871    0.9151 H   0  0  0  0  0  0  0  0  0  0  0  0
    0.0243   -1.5636   -0.7103 H   0  0  0  0  0  0  0  0  0  0  0  0
  1  5  1  0  0  0  0
  2  1  1  0  0  0  0
  2  8  1  0  0  0  0
  3  1  1  0  0  0  0
  4  1  1  0  0  0  0
  6  2  1  0  0  0  0
  6  9  1  0  0  0  0
  6 10  1  0  0  0  0
  7  2  1  0  0  0  0
  9 12  1  0  0  0  0
 11  6  1  0  0  0  0
 14  9  1  0  0  0  0
M  RAD  2   9   2  13   2
M  END
$$$$
