14
butane_opt
C  -3.912421   0.306137  -0.088912
C  -2.688035  -0.612046   0.089190
H  -5.028638  -0.500304   0.588573
H  -3.869370   1.319062  -1.173404
H  -3.699050   0.619539   0.625997
C  -1.382990   0.147276   0.074717
H  -2.582037  -1.169526  -0.643919
H  -2.732331  -1.624040   1.273066
C  -0.194604  -0.643821  -0.027552
H  -1.638240   0.986238   1.172511
H  -1.306961   0.546543  -0.634212
H  -0.311286  -0.960963   0.528329
H   0.641844  -0.183833   0.231004
H  -0.357008  -1.862836  -1.193922
