14
butane_opt
C  -3.958927   0.298609   0.110038
C  -2.722950  -0.659006  -0.065355
H  -4.787649  -0.166365  -0.251389
H  -4.331389   0.537476  -0.463682
H  -4.113698   1.187077   1.125396
C  -1.403122   0.138087  -0.072511
H  -2.491266  -1.557159  -1.142750
H  -2.681834  -1.133277   0.657972
C  -0.134546  -0.629800   0.096979
H  -1.287906   1.025185   0.879569
H  -1.336628   0.684983  -0.860274
H   0.001116  -2.091657   1.549077
H   0.815859  -0.057795  -0.638188
H  -0.184213  -0.654313  -0.138553
