butane_opt
 OpenBabel08242015393D

 14  9  0  0  0  0  0  0  0  0999 V2000
   -3.9880    0.2437    0.0011 C   0  0  0  0  0  1  0  0  0  0  0  0
   -2.7385   -0.5594    0.1369 C   0  0  0  0  0  0  0  0  0  0  0  0
   -5.2461   -0.6230   -0.6711 H   0  0  0  0  0  0  0  0  0  0  0  0
   -3.5982    0.2164   -0.6027 H   0  0  0  0  0  0  0  0  0  0  0  0
   -4.2987    1.2986    1.1379 H   0  0  0  0  0  0  0  0  0  0  0  0
   -1.3643    0.2744   -0.0207 C   0  0  0  0  0  0  0  0  0  0  0  0
   -2.8352   -1.2634   -0.6721 H   0  0  0  0  0  0  0  0  0  0  0  0
   -2.8877   -1.0762    1.0241 H   0  0  0  0  0  0  0  0  0  0  0  0
   -0.0749   -0.8001    0.0604 C   0  0  0  0  0  0  0  0  0  0  0  0
   -1.4623    0.7454    0.5572 H   0  0  0  0  0  0  0  0  0  0  0  0
   -1.3300    1.0976   -1.0240 H   0  0  0  0  0  0  0  0  0  0  0  0
    0.0906   -1.2259    0.7163 H   0  0  0  0  0  0  0  0  0  0  0  0
    0.6421   -0.2528   -0.2311 H   0  0  0  0  0  0  0  0  0  0  0  0
   -0.0383   -1.3789   -0.8914 H   0  0  0  0  0  0  0  0  0  0  0  0
  2  8  1  0  0  0  0
  4  1  1  0  0  0  0
  6  9  1  0  0  0  0
  6 10  1  0  0  0  0
  7  2  1  0  0  0  0
  9 12  1  0  0  0  0
 11  6  1  0  0  0  0
 13  9  1  0  0  0  0
 14  9  1  0  0  0  0
M  RAD  4   2   3   3   2   5   2   6   2
M  END
$$$$
