14
butane_opt
C  -3.926471   0.251998  -0.008716
C  -2.698431  -0.597466   0.063579
H  -4.880893  -0.360826   0.024758
H  -3.897341   0.922563  -0.954617
H  -4.017423   0.903363   0.811430
C  -1.420757   0.186346   0.049027
H  -2.715206  -1.253361  -0.763201
H  -2.738856  -1.238309   0.951908
C  -0.159218  -0.703104  -0.001790
H  -1.404536   0.906643   0.942069
H  -1.407216   0.746460  -0.772155
H  -0.088719  -1.349305   0.919651
H   0.772488  -0.099968  -0.098324
H  -0.181446  -1.303481  -0.847879
