butane_opt
 OpenBabel08242015393D

 14 13  0  0  0  0  0  0  0  0999 V2000
   -3.8295    0.2113    0.2119 C   0  0  0  0  0  0  0  0  0  0  0  0
   -2.6781   -0.5989   -0.1823 C   0  0  0  0  0  0  0  0  0  0  0  0
   -4.7962   -0.3386    0.3847 H   0  0  0  0  0  0  0  0  0  0  0  0
   -4.3273    0.9168   -0.6748 H   0  0  0  0  0  0  0  0  0  0  0  0
   -3.6346    0.7958    0.9424 H   0  0  0  0  0  0  0  0  0  0  0  0
   -1.5076    0.2327   -0.1968 C   0  0  0  0  0  0  0  0  0  0  0  0
   -2.8478   -1.3863   -1.1600 H   0  0  0  0  0  0  0  0  0  0  0  0
   -2.5344   -1.0252    0.7098 H   0  0  0  0  0  0  0  0  0  0  0  0
   -0.1758   -0.7475    0.2217 C   0  0  0  0  0  0  0  0  0  0  0  0
   -1.6330    1.2406    0.8432 H   0  0  0  0  0  0  0  0  0  0  0  0
   -1.1867    0.8419   -1.1347 H   0  0  0  0  0  0  0  0  0  0  0  0
   -0.3737   -1.5011    1.1484 H   0  0  0  0  0  0  0  0  0  0  0  0
    0.7476   -0.0949    0.0544 H   0  0  0  0  0  0  0  0  0  0  0  0
   -0.0904   -1.1277   -0.3519 H   0  0  0  0  0  0  0  0  0  0  0  0
  1  3  1  0  0  0  0
  1  5  1  0  0  0  0
  2  1  1  0  0  0  0
  2  8  1  0  0  0  0
  4  1  1  0  0  0  0
  6  2  1  0  0  0  0
  6  9  1  0  0  0  0
  6 10  1  0  0  0  0
  7  2  1  0  0  0  0
  9 12  1  0  0  0  0
 11  6  1  0  0  0  0
 13  9  1  0  0  0  0
 14  9  1  0  0  0  0
M  END
$$$$
