butane_opt
 OpenBabel08242015393D

 14 12  0  0  0  0  0  0  0  0999 V2000
   -3.9338    0.2166   -0.1602 C   0  0  0  0  0  0  0  0  0  0  0  0
   -2.7152   -0.5960    0.2548 C   0  0  0  0  0  0  0  0  0  0  0  0
   -4.9380   -0.4291   -0.2512 H   0  0  0  0  0  0  0  0  0  0  0  0
   -3.6759    0.9555   -1.1590 H   0  0  0  0  0  0  0  0  0  0  0  0
   -3.8091    0.6599    0.5658 H   0  0  0  0  0  0  0  0  0  0  0  0
   -1.4682    0.3206    0.1693 C   0  0  0  0  0  0  0  0  0  0  0  0
   -2.5846   -1.1867   -0.5554 H   0  0  0  0  0  0  0  0  0  0  0  0
   -3.0555   -1.3949    1.2214 H   0  0  0  0  0  0  0  0  0  0  0  0
   -0.1259   -0.7343   -0.1632 C   0  0  0  0  0  0  0  0  0  0  0  0
   -1.1628    1.2566    1.3635 H   0  0  0  0  0  0  0  0  0  0  0  0
   -1.6809    0.6367   -0.5252 H   0  0  0  0  0  0  0  0  0  0  0  0
    0.1686   -1.4991    0.8635 H   0  0  0  0  0  0  0  0  0  0  0  0
    0.6191   -0.2323   -0.2272 H   0  0  0  0  0  0  0  0  0  0  0  0
   -0.0202   -1.7271   -1.0922 H   0  0  0  0  0  0  0  0  0  0  0  0
  1  2  1  0  0  0  0
  1  5  1  0  0  0  0
  2  8  1  0  0  0  0
  3  1  1  0  0  0  0
  4  1  1  0  0  0  0
  6  2  1  0  0  0  0
  7  2  1  0  0  0  0
  9  6  1  0  0  0  0
  9 12  1  0  0  0  0
 11  6  1  0  0  0  0
 13  9  1  0  0  0  0
 14  9  1  0  0  0  0
M  RAD  2   6   2  10   2
M  END
$$$$
