14
butane_opt
C  -4.011960   0.204675  -0.073356
C  -2.728081  -0.580004   0.194901
H  -4.883042  -0.377990  -0.068968
H  -3.961325   1.090461  -1.287439
H  -3.894750   0.758563   0.736725
C  -1.368599   0.246052   0.011805
H  -2.618059  -0.859084  -0.309591
H  -2.921914  -1.533503   1.273502
C  -0.078475  -0.746235  -0.043876
H  -1.526067   1.078022   1.033599
H  -1.612943   0.767593  -0.642923
H  -0.220815  -0.576810   0.254352
H   0.826492  -0.236091   0.629506
H   0.060738  -2.087503  -1.363031
