14
butane_opt
C  -3.935157   0.273478   0.037333
C  -2.695972  -0.629615   0.012737
H  -4.874959  -0.306328  -0.004662
H  -3.968739   0.859925  -0.838096
H  -3.955815   0.989233   0.936535
C  -1.400927   0.177246   0.006751
H  -2.704779  -1.341736  -0.850133
H  -2.708173  -1.236413   0.875496
C  -0.177782  -0.687699   0.050788
H  -1.380686   0.835034   0.833798
H  -1.387052   0.877556  -0.950958
H  -0.111704  -1.364459   1.002102
H   0.751428  -0.075704  -0.086059
H  -0.172447  -1.307328  -0.759480
