14
butane_opt
C  -3.882906   0.214026  -0.084934
C  -2.676387  -0.534579   0.173755
H  -5.032767  -0.606003  -0.289288
H  -3.787856   0.491671  -0.723730
H  -3.934604   0.932489   0.893989
C  -1.429959   0.264975   0.038257
H  -2.632161  -0.983256  -0.507251
H  -2.752054  -1.336896   1.218143
C  -0.194437  -0.746533  -0.040137
H  -1.764139   0.984284   0.766448
H  -1.488456   0.866251  -0.809133
H  -0.006503  -1.205532   0.764759
H   0.829992  -0.236657   0.247555
H  -0.218210  -1.806547  -1.182523
