butane_opt
 OpenBabel08242015393D

 14 13  0  0  0  0  0  0  0  0999 V2000
   -3.9801    0.2238   -0.0733 C   0  0  0  0  0  0  0  0  0  0  0  0
   -2.7351   -0.6439    0.1221 C   0  0  0  0  0  0  0  0  0  0  0  0
   -4.9846   -0.3627   -0.0865 H   0  0  0  0  0  0  0  0  0  0  0  0
   -3.9130    1.1531   -1.1165 H   0  0  0  0  0  0  0  0  0  0  0  0
   -4.1380    0.9454    0.7107 H   0  0  0  0  0  0  0  0  0  0  0  0
   -1.4271    0.2457    0.1418 C   0  0  0  0  0  0  0  0  0  0  0  0
   -2.6149   -1.3731   -0.7253 H   0  0  0  0  0  0  0  0  0  0  0  0
   -2.5388   -1.1208    0.8672 H   0  0  0  0  0  0  0  0  0  0  0  0
   -0.0860   -0.6738   -0.0345 C   0  0  0  0  0  0  0  0  0  0  0  0
   -1.1088    0.9473    1.0886 H   0  0  0  0  0  0  0  0  0  0  0  0
   -1.4850    0.6298   -0.7008 H   0  0  0  0  0  0  0  0  0  0  0  0
    0.2405   -1.4329    1.0036 H   0  0  0  0  0  0  0  0  0  0  0  0
    0.5442   -0.3650   -0.6986 H   0  0  0  0  0  0  0  0  0  0  0  0
   -0.2502   -1.3362   -0.7955 H   0  0  0  0  0  0  0  0  0  0  0  0
  1  2  1  0  0  0  0
  1  5  1  0  0  0  0
  2  6  1  0  0  0  0
  2  8  1  0  0  0  0
  3  1  1  0  0  0  0
  4  1  1  0  0  0  0
  6 10  1  0  0  0  0
  7  2  1  0  0  0  0
  9  6  1  0  0  0  0
  9 12  1  0  0  0  0
 11  6  1  0  0  0  0
 13  9  1  0  0  0  0
 14  9  1  0  0  0  0
M  END
$$$$
