butane_opt
 OpenBabel08242015393D

 14 10  0  0  0  0  0  0  0  0999 V2000
   -3.9589    0.2986    0.1100 C   0  0  0  0  0  0  0  0  0  0  0  0
   -2.7229   -0.6590   -0.0654 C   0  0  0  0  0  0  0  0  0  0  0  0
   -4.7876   -0.1664   -0.2514 H   0  0  0  0  0  0  0  0  0  0  0  0
   -4.3314    0.5375   -0.4637 H   0  0  0  0  0  0  0  0  0  0  0  0
   -4.1137    1.1871    1.1254 H   0  0  0  0  0  0  0  0  0  0  0  0
   -1.4031    0.1381   -0.0725 C   0  0  0  0  0  0  0  0  0  0  0  0
   -2.4913   -1.5572   -1.1427 H   0  0  0  0  0  0  0  0  0  0  0  0
   -2.6818   -1.1333    0.6580 H   0  0  0  0  0  0  0  0  0  0  0  0
   -0.1345   -0.6298    0.0970 C   0  0  0  0  0  1  0  0  0  0  0  0
   -1.2879    1.0252    0.8796 H   0  0  0  0  0  0  0  0  0  0  0  0
   -1.3366    0.6850   -0.8603 H   0  0  0  0  0  0  0  0  0  0  0  0
    0.0011   -2.0917    1.5491 H   0  0  0  0  0  0  0  0  0  0  0  0
    0.8159   -0.0578   -0.6382 H   0  0  0  0  0  0  0  0  0  0  0  0
   -0.1842   -0.6543   -0.1386 H   0  0  0  0  0  0  0  0  0  0  0  0
  1  5  1  0  0  0  0
  2  1  1  0  0  0  0
  2  8  1  0  0  0  0
  3  1  1  0  0  0  0
  4  1  1  0  0  0  0
  6 10  1  0  0  0  0
  7  2  1  0  0  0  0
 11  6  1  0  0  0  0
 13  9  1  0  0  0  0
 14  6  1  0  0  0  0
M  RAD  3   2   2   6   2  12   2
M  END
$$$$
