butane_opt
 OpenBabel08242015393D

 14 12  0  0  0  0  0  0  0  0999 V2000
   -3.8935    0.1827   -0.1347 C   0  0  0  0  0  0  0  0  0  0  0  0
   -2.7936   -0.5636    0.1705 C   0  0  0  0  0  0  0  0  0  0  0  0
   -4.7431   -0.4738   -0.0093 H   0  0  0  0  0  0  0  0  0  0  0  0
   -3.9967    1.0902   -1.1790 H   0  0  0  0  0  0  0  0  0  0  0  0
   -3.9379    0.9374    0.7299 H   0  0  0  0  0  0  0  0  0  0  0  0
   -1.4464    0.2779    0.1371 C   0  0  0  0  0  0  0  0  0  0  0  0
   -2.9446   -0.9428   -0.5212 H   0  0  0  0  0  0  0  0  0  0  0  0
   -2.9143   -1.4753    1.4515 H   0  0  0  0  0  0  0  0  0  0  0  0
   -0.1065   -0.7800   -0.0834 C   0  0  0  0  0  0  0  0  0  0  0  0
   -1.2941    1.2028    1.1520 H   0  0  0  0  0  0  0  0  0  0  0  0
   -1.3810    0.7597   -0.6424 H   0  0  0  0  0  0  0  0  0  0  0  0
    0.1355   -1.1161    0.5060 H   0  0  0  0  0  0  0  0  0  0  0  0
    0.7065   -0.1748   -0.0109 H   0  0  0  0  0  0  0  0  0  0  0  0
    0.2488   -1.7091   -1.1949 H   0  0  0  0  0  0  0  0  0  0  0  0
  1  3  1  0  0  0  0
  1  2  1  0  0  0  0
  1  5  1  0  0  0  0
  4  1  1  0  0  0  0
  6  2  1  0  0  0  0
  6 10  1  0  0  0  0
  7  2  1  0  0  0  0
  9 13  1  0  0  0  0
  9  6  1  0  0  0  0
  9 12  1  0  0  0  0
 11  6  1  0  0  0  0
 14  9  1  0  0  0  0
M  RAD  2   2   2   8   2
M  END
$$$$
