butane_opt
 OpenBabel08242015393D

 14 13  0  0  0  0  0  0  0  0999 V2000
   -3.9558    0.2738    0.0010 C   0  0  0  0  0  0  0  0  0  0  0  0
   -2.6966   -0.6344    0.0472 C   0  0  0  0  0  0  0  0  0  0  0  0
   -4.8497   -0.3099    0.0093 H   0  0  0  0  0  0  0  0  0  0  0  0
   -3.9897    0.9124   -0.9005 H   0  0  0  0  0  0  0  0  0  0  0  0
   -3.9765    0.9636    0.8439 H   0  0  0  0  0  0  0  0  0  0  0  0
   -1.4030    0.1769    0.0374 C   0  0  0  0  0  0  0  0  0  0  0  0
   -2.6717   -1.3071   -0.8028 H   0  0  0  0  0  0  0  0  0  0  0  0
   -2.7165   -1.2828    0.9431 H   0  0  0  0  0  0  0  0  0  0  0  0
   -0.1609   -0.6870    0.0177 C   0  0  0  0  0  0  0  0  0  0  0  0
   -1.3117    0.9226    0.9421 H   0  0  0  0  0  0  0  0  0  0  0  0
   -1.4267    0.7643   -0.8459 H   0  0  0  0  0  0  0  0  0  0  0  0
   -0.0867   -1.3491    0.9486 H   0  0  0  0  0  0  0  0  0  0  0  0
    0.7587   -0.0688   -0.1390 H   0  0  0  0  0  0  0  0  0  0  0  0
   -0.1652   -1.2620   -0.7925 H   0  0  0  0  0  0  0  0  0  0  0  0
  1  3  1  0  0  0  0
  1  2  1  0  0  0  0
  1  5  1  0  0  0  0
  2  8  1  0  0  0  0
  4  1  1  0  0  0  0
  6  2  1  0  0  0  0
  6 10  1  0  0  0  0
  7  2  1  0  0  0  0
  9  6  1  0  0  0  0
  9 12  1  0  0  0  0
 11  6  1  0  0  0  0
 13  9  1  0  0  0  0
 14  9  1  0  0  0  0
M  END
$$$$
