butane_opt
 OpenBabel08242015393D

 14 10  0  0  0  0  0  0  0  0999 V2000
   -3.9087    0.1802   -0.1047 C   0  0  0  0  0  0  0  0  0  0  0  0
   -2.6938   -0.5295    0.1880 C   0  0  0  0  0  0  0  0  0  0  0  0
   -4.9185   -0.4274    0.4485 H   0  0  0  0  0  0  0  0  0  0  0  0
   -3.7433    1.1676   -1.3168 H   0  0  0  0  0  0  0  0  0  0  0  0
   -3.7224    0.4982    0.5836 H   0  0  0  0  0  0  0  0  0  0  0  0
   -1.4990    0.2712    0.0584 C   0  0  0  0  0  0  0  0  0  0  0  0
   -2.4753   -1.1307   -0.5237 H   0  0  0  0  0  0  0  0  0  0  0  0
   -2.9391   -1.2665    1.3360 H   0  0  0  0  0  0  0  0  0  0  0  0
   -0.1482   -0.7306   -0.0692 C   0  0  0  0  0  0  0  0  0  0  0  0
   -1.1810    0.9440    0.9300 H   0  0  0  0  0  0  0  0  0  0  0  0
   -1.5852    0.5497   -0.5886 H   0  0  0  0  0  0  0  0  0  0  0  0
   -0.2539   -0.7709    0.3652 H   0  0  0  0  0  0  0  0  0  0  0  0
    0.4670   -0.3016    0.6613 H   0  0  0  0  0  0  0  0  0  0  0  0
    0.3492   -2.0619   -1.3977 H   0  0  0  0  0  0  0  0  0  0  0  0
  1  2  1  0  0  0  0
  1  3  1  0  0  0  0
  1  5  1  0  0  0  0
  2  8  1  0  0  0  0
  6  2  1  0  0  0  0
  6 10  1  0  0  0  0
  7  2  1  0  0  0  0
  9  6  1  0  0  0  0
  9 13  1  0  0  0  0
 11  6  1  0  0  0  0
M  RAD  5   1   2   4   2   9   3  12   2  14   2
M  END
$$$$
