butane_opt
 OpenBabel08242015393D

 14 13  0  0  0  0  0  0  0  0999 V2000
   -3.9191    0.2422    0.0340 C   0  0  0  0  0  0  0  0  0  0  0  0
   -2.7772   -0.5558   -0.0033 C   0  0  0  0  0  0  0  0  0  0  0  0
   -5.0723   -0.6100    0.1346 H   0  0  0  0  0  0  0  0  0  0  0  0
   -3.8876    0.6162   -0.6021 H   0  0  0  0  0  0  0  0  0  0  0  0
   -3.8450    1.1116    1.1483 H   0  0  0  0  0  0  0  0  0  0  0  0
   -1.4048    0.2442   -0.0049 C   0  0  0  0  0  0  0  0  0  0  0  0
   -2.5594   -1.4249   -1.1028 H   0  0  0  0  0  0  0  0  0  0  0  0
   -2.8400   -0.8769    0.6957 H   0  0  0  0  0  0  0  0  0  0  0  0
   -0.1230   -0.7258    0.0820 C   0  0  0  0  0  0  0  0  0  0  0  0
   -1.4417    0.5664    0.6051 H   0  0  0  0  0  0  0  0  0  0  0  0
   -1.2325    0.9215   -0.9820 H   0  0  0  0  0  0  0  0  0  0  0  0
    0.0984   -1.7488    1.1712 H   0  0  0  0  0  0  0  0  0  0  0  0
    0.6380   -0.2956   -0.3277 H   0  0  0  0  0  0  0  0  0  0  0  0
   -0.1492   -1.2171   -0.5123 H   0  0  0  0  0  0  0  0  0  0  0  0
  1  3  1  0  0  0  0
  1  5  1  0  0  0  0
  2  1  1  0  0  0  0
  2  8  1  0  0  0  0
  4  1  1  0  0  0  0
  6  2  1  0  0  0  0
  6  9  1  0  0  0  0
  6 10  1  0  0  0  0
  7  2  1  0  0  0  0
  9 12  1  0  0  0  0
 11  6  1  0  0  0  0
 13  9  1  0  0  0  0
 14  9  1  0  0  0  0
M  END
$$$$
