butane_opt
 OpenBabel08242015393D

 14  8  0  0  0  0  0  0  0  0999 V2000
   -3.9050    0.3008    0.1010 C   0  0  0  0  0  0  0  0  0  0  0  0
   -2.6335   -0.6461   -0.0920 C   0  0  0  0  0  0  0  0  0  0  0  0
   -4.8082   -0.3780   -0.0172 H   0  0  0  0  0  0  0  0  0  0  0  0
   -4.0903    0.5871   -0.5871 H   0  0  0  0  0  0  0  0  0  0  0  0
   -4.1018    1.4830    1.2862 H   0  0  0  0  0  0  0  0  0  0  0  0
   -1.3753    0.1021   -0.0252 C   0  0  0  0  0  0  0  0  0  0  0  0
   -2.7193   -1.6135   -1.1587 H   0  0  0  0  0  0  0  0  0  0  0  0
   -2.8943   -0.9305    0.5305 H   0  0  0  0  0  0  0  0  0  0  0  0
   -0.2510   -0.6518    0.1523 C   0  0  0  0  0  1  0  0  0  0  0  0
   -1.1936    0.7304    0.6573 H   0  0  0  0  0  0  0  0  0  0  0  0
   -1.4116    1.0708   -1.1866 H   0  0  0  0  0  0  0  0  0  0  0  0
    0.0096   -1.8739    1.5362 H   0  0  0  0  0  0  0  0  0  0  0  0
    0.7345   -0.0729   -0.7251 H   0  0  0  0  0  0  0  0  0  0  0  0
   -0.5589   -0.7365   -0.3704 H   0  0  0  0  0  0  0  0  0  0  0  0
  2  1  1  0  0  0  0
  2  8  1  0  0  0  0
  3  1  1  0  0  0  0
  4  1  1  0  0  0  0
  6 10  1  0  0  0  0
  7  2  1  0  0  0  0
 13  9  1  0  0  0  0
 14  6  1  0  0  0  0
M  RAD  6   1   2   2   2   5   2   6   3  11   2  12   2
M  END
$$$$
