butane_opt
 OpenBabel08242015393D

 14 10  0  0  0  0  0  0  0  0999 V2000
   -4.0080    0.2379   -0.0941 C   0  0  0  0  0  1  0  0  0  0  0  0
   -2.7147   -0.5616    0.1134 C   0  0  0  0  0  0  0  0  0  0  0  0
   -5.0822   -0.4342    0.6966 H   0  0  0  0  0  0  0  0  0  0  0  0
   -3.9839    1.4817   -1.2982 H   0  0  0  0  0  0  0  0  0  0  0  0
   -3.7261   -0.1011    0.1298 H   0  0  0  0  0  0  0  0  0  0  0  0
   -1.4229    0.2246    0.1994 C   0  0  0  0  0  0  0  0  0  0  0  0
   -2.8404   -1.2421   -0.8571 H   0  0  0  0  0  0  0  0  0  0  0  0
   -2.7435   -0.9545    1.0028 H   0  0  0  0  0  0  0  0  0  0  0  0
   -0.1073   -0.7304   -0.0938 C   0  0  0  0  0  0  0  0  0  0  0  0
   -1.1743    0.8536    1.1348 H   0  0  0  0  0  0  0  0  0  0  0  0
   -1.6190    0.8259   -0.5348 H   0  0  0  0  0  0  0  0  0  0  0  0
    0.0090   -1.0314    0.5984 H   0  0  0  0  0  0  0  0  0  0  0  0
    0.7525   -0.2360    0.1157 H   0  0  0  0  0  0  0  0  0  0  0  0
    0.3946   -1.7097   -1.1799 H   0  0  0  0  0  0  0  0  0  0  0  0
  1  3  1  0  0  0  0
  2  5  1  0  0  0  0
  2  6  1  0  0  0  0
  2  8  1  0  0  0  0
  6 10  1  0  0  0  0
  7  2  1  0  0  0  0
  9 13  1  0  0  0  0
  9  6  1  0  0  0  0
  9 12  1  0  0  0  0
 11  6  1  0  0  0  0
M  RAD  3   4   2   9   2  14   2
M  END
$$$$
