butane_opt
 OpenBabel08242015393D

 14 10  0  0  0  0  0  0  0  0999 V2000
   -3.9683    0.3532   -0.0722 C   0  0  0  0  0  0  0  0  0  0  0  0
   -2.6830   -0.7426    0.0764 C   0  0  0  0  0  0  0  0  0  0  0  0
   -4.8478   -0.2667    0.6050 H   0  0  0  0  0  0  0  0  0  0  0  0
   -4.5559    1.7916   -1.2966 H   0  0  0  0  0  0  0  0  0  0  0  0
   -3.8712    0.4071    0.4251 H   0  0  0  0  0  0  0  0  0  0  0  0
   -1.3569    0.1143    0.1465 C   0  0  0  0  0  0  0  0  0  0  0  0
   -2.9749   -1.3953   -0.7672 H   0  0  0  0  0  0  0  0  0  0  0  0
   -2.6645   -1.2700    0.9525 H   0  0  0  0  0  0  0  0  0  0  0  0
   -0.1858   -0.6066   -0.0137 C   0  0  0  0  0  0  0  0  0  0  0  0
   -1.2307    0.8695    1.1195 H   0  0  0  0  0  0  0  0  0  0  0  0
   -1.1070    0.7629   -0.9320 H   0  0  0  0  0  0  0  0  0  0  0  0
   -0.0110   -0.8471    0.6288 H   0  0  0  0  0  0  0  0  0  0  0  0
    0.7981   -0.0925    0.1561 H   0  0  0  0  0  0  0  0  0  0  0  0
   -0.2631   -1.8273   -1.2532 H   0  0  0  0  0  0  0  0  0  0  0  0
  1  2  1  0  0  0  0
  1  3  1  0  0  0  0
  2  6  1  0  0  0  0
  2  8  1  0  0  0  0
  6 10  1  0  0  0  0
  7  2  1  0  0  0  0
  9  6  1  0  0  0  0
  9 13  1  0  0  0  0
  9 12  1  0  0  0  0
 11  6  1  0  0  0  0
M  RAD  5   1   3   4   2   5   2   9   2  14   2
M  END
$$$$
