butane_opt
 OpenBabel08242015393D

 14 13  0  0  0  0  0  0  0  0999 V2000
   -3.9144    0.2391   -0.1575 C   0  0  0  0  0  0  0  0  0  0  0  0
   -2.7004   -0.5058    0.2911 C   0  0  0  0  0  0  0  0  0  0  0  0
   -5.0048   -0.5548   -0.6500 H   0  0  0  0  0  0  0  0  0  0  0  0
   -3.4142    0.7540   -0.9752 H   0  0  0  0  0  0  0  0  0  0  0  0
   -4.0605    0.7084    0.5895 H   0  0  0  0  0  0  0  0  0  0  0  0
   -1.4042    0.2400    0.2040 C   0  0  0  0  0  0  0  0  0  0  0  0
   -2.7812   -1.2889   -0.5197 H   0  0  0  0  0  0  0  0  0  0  0  0
   -2.8120   -1.2422    1.1996 H   0  0  0  0  0  0  0  0  0  0  0  0
   -0.1431   -0.7648   -0.1650 C   0  0  0  0  0  0  0  0  0  0  0  0
   -1.1354    0.8095    0.9546 H   0  0  0  0  0  0  0  0  0  0  0  0
   -1.7472    0.7640   -0.6409 H   0  0  0  0  0  0  0  0  0  0  0  0
   -0.1744   -1.2280    0.6432 H   0  0  0  0  0  0  0  0  0  0  0  0
    0.5283   -0.2214   -0.1382 H   0  0  0  0  0  0  0  0  0  0  0  0
   -0.4273   -1.5143   -1.1145 H   0  0  0  0  0  0  0  0  0  0  0  0
  1  2  1  0  0  0  0
  1  5  1  0  0  0  0
  2  8  1  0  0  0  0
  3  1  1  0  0  0  0
  4  1  1  0  0  0  0
  6  2  1  0  0  0  0
  6 10  1  0  0  0  0
  7  2  1  0  0  0  0
  9 13  1  0  0  0  0
  9  6  1  0  0  0  0
  9 12  1  0  0  0  0
 11  6  1  0  0  0  0
 14  9  1  0  0  0  0
M  END
$$$$
