butane_opt
 OpenBabel08242015393D

 14 12  0  0  0  0  0  0  0  0999 V2000
   -3.8970    0.1869   -0.0793 C   0  0  0  0  0  0  0  0  0  0  0  0
   -2.7243   -0.5755    0.0958 C   0  0  0  0  0  0  0  0  0  0  0  0
   -4.9552   -0.4159   -0.0933 H   0  0  0  0  0  0  0  0  0  0  0  0
   -4.0198    1.2413   -1.2893 H   0  0  0  0  0  0  0  0  0  0  0  0
   -4.0965    0.5955    0.6279 H   0  0  0  0  0  0  0  0  0  0  0  0
   -1.4665    0.2718    0.2406 C   0  0  0  0  0  0  0  0  0  0  0  0
   -2.7663   -1.3151   -0.7256 H   0  0  0  0  0  0  0  0  0  0  0  0
   -3.0630   -1.1761    1.0170 H   0  0  0  0  0  0  0  0  0  0  0  0
   -0.0858   -0.7405   -0.0806 C   0  0  0  0  0  0  0  0  0  0  0  0
   -1.5022    1.0616    1.1959 H   0  0  0  0  0  0  0  0  0  0  0  0
   -1.5060    0.9083   -0.7690 H   0  0  0  0  0  0  0  0  0  0  0  0
    0.6695   -1.4915    0.9160 H   0  0  0  0  0  0  0  0  0  0  0  0
    0.7135   -0.2729   -0.7154 H   0  0  0  0  0  0  0  0  0  0  0  0
   -0.3977   -1.3231   -0.8757 H   0  0  0  0  0  0  0  0  0  0  0  0
  1  2  1  0  0  0  0
  1  5  1  0  0  0  0
  2  6  1  0  0  0  0
  2  8  1  0  0  0  0
  3  1  1  0  0  0  0
  6 10  1  0  0  0  0
  7  2  1  0  0  0  0
  9  6  1  0  0  0  0
  9 12  1  0  0  0  0
 11  6  1  0  0  0  0
 13  9  1  0  0  0  0
 14  9  1  0  0  0  0
M  RAD  2   1   2   4   2
M  END
$$$$
