14
butane_opt
C  -3.962275   0.186858   0.122741
C  -2.788750  -0.540458  -0.082951
H  -4.965653  -0.509307   0.348062
H  -4.208628   0.431910  -0.495980
H  -3.722571   1.360453   1.355983
C  -1.435015   0.277153  -0.212650
H  -2.976053  -1.219196  -0.830732
H  -2.599863  -1.255808   0.736011
C  -0.046679  -0.788488   0.192634
H  -1.570776   0.879989   0.491208
H  -1.370764   1.221209  -1.429616
H  -0.243560  -1.178563   0.970736
H   1.016535  -0.091001   0.725503
H   0.420732  -1.743264  -0.636306
