14
butane_opt
C  -3.941220   0.196085  -0.158459
C  -2.704578  -0.533115   0.200908
H  -4.936165  -0.479543  -0.231251
H  -3.499270   1.102534  -1.461052
H  -4.011577   0.621315   0.516968
C  -1.419640   0.269672   0.319175
H  -2.596656  -1.191688  -0.689578
H  -2.894884  -1.148334   1.117274
C  -0.129651  -0.753069  -0.161106
H  -1.529982   0.960805   1.175877
H  -1.848003   0.527559  -0.409475
H   0.592576  -1.663699   0.809733
H   0.911057  -0.117800  -0.849123
H  -0.866456  -1.184654  -0.916034
