butane_opt
 OpenBabel08242015393D

 14 12  0  0  0  0  0  0  0  0999 V2000
   -3.9165    0.2607    0.0990 C   0  0  0  0  0  0  0  0  0  0  0  0
   -2.7022   -0.6646   -0.0641 C   0  0  0  0  0  0  0  0  0  0  0  0
   -4.7174   -0.2412    0.3965 H   0  0  0  0  0  0  0  0  0  0  0  0
   -4.2406    0.6665   -0.5178 H   0  0  0  0  0  0  0  0  0  0  0  0
   -3.6862    1.1551    1.1156 H   0  0  0  0  0  0  0  0  0  0  0  0
   -1.4276    0.1911   -0.1784 C   0  0  0  0  0  0  0  0  0  0  0  0
   -2.6494   -1.1186   -0.6814 H   0  0  0  0  0  0  0  0  0  0  0  0
   -2.3123   -1.2978    0.8800 H   0  0  0  0  0  0  0  0  0  0  0  0
   -0.1778   -0.6666    0.1669 C   0  0  0  0  0  0  0  0  0  0  0  0
   -1.4644    0.6951    0.5599 H   0  0  0  0  0  0  0  0  0  0  0  0
   -1.3060    0.9546   -1.2879 H   0  0  0  0  0  0  0  0  0  0  0  0
   -0.7985   -0.8582    0.7955 H   0  0  0  0  0  0  0  0  0  0  0  0
    0.5351   -0.2243    0.8375 H   0  0  0  0  0  0  0  0  0  0  0  0
    0.3218   -1.6972   -0.9748 H   0  0  0  0  0  0  0  0  0  0  0  0
  1  3  1  0  0  0  0
  1  5  1  0  0  0  0
  2  1  1  0  0  0  0
  2  8  1  0  0  0  0
  4  1  1  0  0  0  0
  6  2  1  0  0  0  0
  6  9  1  0  0  0  0
  6 10  1  0  0  0  0
  7  2  1  0  0  0  0
  9 12  1  0  0  0  0
  9 13  1  0  0  0  0
 11  6  1  0  0  0  0
M  RAD  2   9   2  14   2
M  END
$$$$
