butane_opt
 OpenBabel08242015393D

 14  8  0  0  0  0  0  0  0  0999 V2000
   -3.8476    0.2573    0.1029 C   0  0  0  0  0  1  0  0  0  0  0  0
   -2.7734   -0.5858    0.0160 C   0  0  0  0  0  0  0  0  0  0  0  0
   -4.6114   -0.3598   -0.5906 H   0  0  0  0  0  0  0  0  0  0  0  0
   -3.7066    0.0355   -0.2249 H   0  0  0  0  0  0  0  0  0  0  0  0
   -3.9533    1.4798    1.3725 H   0  0  0  0  0  0  0  0  0  0  0  0
   -1.4493    0.2373   -0.1634 C   0  0  0  0  0  0  0  0  0  0  0  0
   -2.7000   -1.4189   -0.8921 H   0  0  0  0  0  0  0  0  0  0  0  0
   -2.5909   -1.0112    0.7314 H   0  0  0  0  0  0  0  0  0  0  0  0
   -0.1473   -0.7253    0.0960 C   0  0  0  0  0  0  0  0  0  0  0  0
   -1.5448    0.7890    0.6251 H   0  0  0  0  0  0  0  0  0  0  0  0
   -1.4263    0.7698   -1.1559 H   0  0  0  0  0  0  0  0  0  0  0  0
   -0.3601   -1.8554    1.4486 H   0  0  0  0  0  0  0  0  0  0  0  0
    0.7252   -0.1070   -0.0312 H   0  0  0  0  0  0  0  0  0  0  0  0
   -0.2506   -0.9844   -0.3369 H   0  0  0  0  0  0  0  0  0  0  0  0
  2  8  1  0  0  0  0
  3  1  1  0  0  0  0
  4  2  1  0  0  0  0
  6  9  1  0  0  0  0
  6 10  1  0  0  0  0
  7  2  1  0  0  0  0
 11  6  1  0  0  0  0
 13  9  1  0  0  0  0
M  RAD  6   2   2   5   2   6   2   9   3  12   2  14   2
M  END
$$$$
