butane_opt
 OpenBabel08242015393D

 14  8  0  0  0  0  0  0  0  0999 V2000
   -3.9441    0.2920    0.1737 C   0  0  0  0  0  0  0  0  0  0  0  0
   -2.6591   -0.6227   -0.0458 C   0  0  0  0  0  0  0  0  0  0  0  0
   -4.8925   -0.1803   -0.7875 H   0  0  0  0  0  0  0  0  0  0  0  0
   -3.5400    0.2071   -0.3293 H   0  0  0  0  0  0  0  0  0  0  0  0
   -4.1076    1.8347    1.5632 H   0  0  0  0  0  0  0  0  0  0  0  0
   -1.3523    0.0630   -0.1583 C   0  0  0  0  0  0  0  0  0  0  0  0
   -2.6602   -1.5265   -1.0428 H   0  0  0  0  0  0  0  0  0  0  0  0
   -2.7392   -1.0661    0.7954 H   0  0  0  0  0  0  0  0  0  0  0  0
   -0.2237   -0.6641    0.1469 C   0  0  0  0  0  0  0  0  0  0  0  0
   -1.5439    0.4253    0.4107 H   0  0  0  0  0  0  0  0  0  0  0  0
   -1.4785    1.2651   -1.3371 H   0  0  0  0  0  0  0  0  0  0  0  0
   -0.3066   -1.4882    1.2939 H   0  0  0  0  0  0  0  0  0  0  0  0
    0.7989    0.0313   -0.0199 H   0  0  0  0  0  0  0  0  0  0  0  0
   -0.4172   -0.8048   -0.3556 H   0  0  0  0  0  0  0  0  0  0  0  0
  2  8  1  0  0  0  0
  3  1  1  0  0  0  0
  4  1  1  0  0  0  0
  6 10  1  0  0  0  0
  7  2  1  0  0  0  0
  9 12  1  0  0  0  0
 13  9  1  0  0  0  0
 14  6  1  0  0  0  0
M  RAD  6   1   3   2   3   5   2   6   3   9   3  11   2
M  END
$$$$
