14
butane_opt
C  -4.000698   0.170564  -0.150943
C  -2.767453  -0.506884   0.281307
H  -4.887969  -0.300059  -0.680369
H  -3.740540   0.486696  -1.009069
H  -4.109600   1.001443   0.830775
C  -1.398348   0.272687   0.167406
H  -2.558313  -1.249970  -0.475619
H  -2.963637  -1.106763   1.241949
C  -0.038827  -0.779094  -0.141328
H  -1.430704   0.804757   0.872336
H  -1.596854   0.943141  -0.647848
H   0.204478  -1.236327   0.714064
H   0.715595  -0.226590  -0.263644
H  -0.156862  -1.504369  -1.027927
