14
butane_opt
C  -3.918514   0.180011  -0.123850
C  -2.716662  -0.470778   0.126674
H  -4.840139  -0.466305   0.831668
H  -3.939194   1.381229  -1.280429
H  -3.414720   0.161789   0.363133
C  -1.492784   0.192040   0.166467
H  -2.426058  -1.385393  -0.770613
H  -2.852750  -1.063886   1.113552
C  -0.152217  -0.711549  -0.085435
H  -1.457083   1.042299   1.063064
H  -1.459492   0.852862  -0.677145
H   0.069814  -1.162439   0.604442
H   0.774235  -0.242060   0.329125
H  -0.129564  -1.863810  -1.212378
