14
butane_opt
C  -3.946192   0.253976  -0.006568
C  -2.711479  -0.602662   0.070904
H  -4.877943  -0.365756  -0.046207
H  -3.867815   0.774506  -0.876454
H  -3.963898   1.001832   0.905848
C  -1.413875   0.201883   0.026130
H  -2.688013  -1.281827  -0.775846
H  -2.712812  -1.241946   0.979731
C  -0.151335  -0.703506   0.015995
H  -1.359263   0.845118   0.870988
H  -1.436361   0.872040  -0.909202
H  -0.078128  -1.331262   0.903515
H   0.764975  -0.123439   0.004716
H  -0.132698  -1.419843  -0.881436
