14
butane_opt
C  -3.877105   0.218965   0.120323
C  -2.719049  -0.571922  -0.090579
H  -4.977600  -0.362772  -0.022451
H  -3.616708   0.602661  -0.701079
H  -3.761702   1.038897   1.155671
C  -1.453873   0.284681  -0.048734
H  -2.874412  -1.406754  -1.136088
H  -2.622761  -1.141758   0.724339
C  -0.198227  -0.775572   0.112610
H  -1.511809   1.097166   0.735337
H  -1.061673   0.800156  -0.900773
H   0.126749  -1.959491   1.302714
H   0.569506  -0.330667  -0.418350
H  -0.277852  -0.708295  -0.336218
