14
butane_opt
C  -3.925946   0.182098   0.066504
C  -2.685831  -0.602008  -0.099947
H  -4.775913  -0.292589   0.794282
H  -4.592487   1.232238  -1.029522
H  -3.570490   0.855675   0.754578
C  -1.442867   0.251429  -0.017172
H  -2.771781  -1.337897  -1.019682
H  -2.838253  -1.172994   0.897722
C  -0.147606  -0.750483   0.085471
H  -1.579501   1.159646   0.974517
H  -1.220946   0.803142  -0.926408
H   0.014133  -1.393631   1.004606
H   0.791879  -0.114753   0.142320
H  -0.018285  -1.183006  -0.583218
