14
butane_opt
C  -3.889968   0.222069   0.088691
C  -2.674637  -0.575741   0.064127
H  -4.988608  -0.484738  -0.717635
H  -3.486155   0.510732  -0.592923
H  -3.999879   1.264220   1.123272
C  -1.454671   0.227996  -0.108758
H  -2.806486  -1.419319  -0.922603
H  -2.541175  -1.182048   0.909899
C  -0.212514  -0.733517   0.106647
H  -1.467442   0.913590   0.713737
H  -1.528479   1.031051  -0.949445
H   0.068858  -1.468291   0.873465
H   0.589055  -0.184354  -0.143941
H  -0.069213  -1.182751  -0.627807
