butane_opt
 OpenBabel08242015393D

 14 12  0  0  0  0  0  0  0  0999 V2000
   -3.9562    0.3134   -0.1231 C   0  0  0  0  0  0  0  0  0  0  0  0
   -2.6889   -0.6695    0.1805 C   0  0  0  0  0  0  0  0  0  0  0  0
   -4.8679   -0.1738   -0.0772 H   0  0  0  0  0  0  0  0  0  0  0  0
   -3.9881    1.0413   -0.9900 H   0  0  0  0  0  0  0  0  0  0  0  0
   -4.1708    0.9020    0.6037 H   0  0  0  0  0  0  0  0  0  0  0  0
   -1.3890    0.0445    0.1456 C   0  0  0  0  0  0  0  0  0  0  0  0
   -2.3945   -1.2483   -0.7007 H   0  0  0  0  0  0  0  0  0  0  0  0
   -2.5523   -1.3025    1.1206 H   0  0  0  0  0  0  0  0  0  0  0  0
   -0.1921   -0.6066   -0.1124 C   0  0  0  0  0  0  0  0  0  0  0  0
   -1.2353    1.1939    1.4189 H   0  0  0  0  0  0  0  0  0  0  0  0
   -1.4110    0.5637   -0.6065 H   0  0  0  0  0  0  0  0  0  0  0  0
   -0.1905   -1.4598    0.8032 H   0  0  0  0  0  0  0  0  0  0  0  0
    0.7169    0.0613   -0.4035 H   0  0  0  0  0  0  0  0  0  0  0  0
   -0.2315   -1.0471   -0.8255 H   0  0  0  0  0  0  0  0  0  0  0  0
  1  3  1  0  0  0  0
  1  2  1  0  0  0  0
  1  5  1  0  0  0  0
  2  8  1  0  0  0  0
  4  1  1  0  0  0  0
  6  2  1  0  0  0  0
  7  2  1  0  0  0  0
  9  6  1  0  0  0  0
  9 12  1  0  0  0  0
 11  6  1  0  0  0  0
 13  9  1  0  0  0  0
 14  9  1  0  0  0  0
M  RAD  2   6   2  10   2
M  END
$$$$
