14
butane_opt
C  -4.034077   0.263318   0.019472
C  -2.748010  -0.563547   0.024469
H  -4.937786  -0.478512  -0.367575
H  -3.840929   0.095533  -0.382724
H  -3.899247   1.270631   1.195773
C  -1.333688   0.240383  -0.050064
H  -2.587460  -1.119106  -0.688322
H  -3.013911  -1.344540   1.038003
C  -0.109035  -0.757637   0.071528
H  -1.398953   0.980124   0.665419
H  -1.502900   0.928695  -0.954148
H   0.022159  -1.499197   1.099204
H   0.774605  -0.138070  -0.312078
H   0.047024  -1.372893  -0.562804
