butane_opt
 OpenBabel08242015393D

 14 12  0  0  0  0  0  0  0  0999 V2000
   -3.9965    0.3291    0.1180 C   0  0  0  0  0  0  0  0  0  0  0  0
   -2.6902   -0.7236   -0.0399 C   0  0  0  0  0  0  0  0  0  0  0  0
   -4.6613   -0.1557   -0.3735 H   0  0  0  0  0  0  0  0  0  0  0  0
   -4.1104    0.5374   -0.5732 H   0  0  0  0  0  0  0  0  0  0  0  0
   -4.2624    1.5423    1.2944 H   0  0  0  0  0  0  0  0  0  0  0  0
   -1.3681    0.1177   -0.1125 C   0  0  0  0  0  0  0  0  0  0  0  0
   -2.8249   -1.3577   -0.7834 H   0  0  0  0  0  0  0  0  0  0  0  0
   -2.6069   -1.5754    0.9761 H   0  0  0  0  0  0  0  0  0  0  0  0
   -0.1614   -0.6288    0.1276 C   0  0  0  0  0  0  0  0  0  0  0  0
   -1.7505    0.8519    0.6497 H   0  0  0  0  0  0  0  0  0  0  0  0
   -1.0789    0.8484   -1.1863 H   0  0  0  0  0  0  0  0  0  0  0  0
   -0.1675   -1.1438    0.9950 H   0  0  0  0  0  0  0  0  0  0  0  0
    0.8134   -0.0590   -0.0500 H   0  0  0  0  0  0  0  0  0  0  0  0
    0.1683   -1.0444   -0.6233 H   0  0  0  0  0  0  0  0  0  0  0  0
  2  1  1  0  0  0  0
  2  8  1  0  0  0  0
  3  1  1  0  0  0  0
  4  1  1  0  0  0  0
  6  2  1  0  0  0  0
  6  9  1  0  0  0  0
  6 10  1  0  0  0  0
  7  2  1  0  0  0  0
  9 12  1  0  0  0  0
 11  6  1  0  0  0  0
 13  9  1  0  0  0  0
 14  9  1  0  0  0  0
M  RAD  2   1   2   5   2
M  END
$$$$
