14
butane_opt
C  -3.917569   0.181410   0.090180
C  -2.659360  -0.548523  -0.090764
H  -4.868527  -0.409060  -0.235273
H  -3.580799   0.320041  -0.485240
H  -3.774564   1.276906   1.296579
C  -1.480253   0.259148  -0.071665
H  -2.740911  -1.016722  -0.895527
H  -2.533454  -1.133148   0.702518
C  -0.206508  -0.762859   0.149407
H  -1.377434   0.983229   0.738552
H  -1.405771   0.890282  -0.881824
H   0.264290  -1.770599   1.352122
H   0.702182  -0.333972  -0.626345
H  -0.512257  -0.862326  -0.338741
