14
butane_opt
C  -3.842512   0.280877  -0.110002
C  -2.673429  -0.658873   0.265702
H  -4.701394  -0.271920  -0.214171
H  -3.774766   1.170608  -1.256327
H  -4.407151   0.732636   0.507971
C  -1.469623   0.155162   0.119244
H  -2.636865  -1.242188  -0.497434
H  -2.693518  -1.329466   1.316015
C  -0.188964  -0.661719  -0.141745
H  -1.462684   0.781425   1.012862
H  -1.385395   0.751632  -0.744008
H  -0.151656  -0.630446   0.311234
H   0.627410   0.002658   0.559465
H  -0.323276  -1.834300  -1.237198
