14
butane_opt
C  -3.966179   0.202657   0.112860
C  -2.760697  -0.539729  -0.020503
H  -5.056620  -0.521094  -0.779561
H  -3.933963   0.191662  -0.240716
H  -4.042445   1.722743   1.467730
C  -1.407570   0.274573  -0.169260
H  -2.932850  -1.136136  -1.011653
H  -2.807607  -1.403039   1.096376
C  -0.060178  -0.783750   0.166571
H  -1.428794   0.770002   0.564561
H  -1.262629   1.007020  -1.126918
H   0.059808  -1.566389   1.203213
H   0.920133  -0.091467  -0.214758
H  -0.144009  -1.337023  -0.529182
