14
butane_opt
C  -3.953312   0.245064  -0.099285
C  -2.707112  -0.608343   0.048873
H  -4.957638  -0.362326   0.760869
H  -4.202058   1.345590  -1.373241
H  -3.602635   0.045143   0.353093
C  -1.371814   0.288783   0.179800
H  -2.925873  -0.962813  -0.559512
H  -2.850505  -1.337716   1.037714
C  -0.160335  -0.772160  -0.018884
H  -1.281067   1.364170   1.123820
H  -1.388433   0.681804  -0.542870
H   0.120429  -1.029092   0.558514
H   0.519095  -0.319171  -0.189009
H  -0.115984  -1.780381  -1.187014
