14
butane_opt
C  -3.924311   0.326007  -0.162408
C  -2.644975  -0.729944   0.220936
H  -4.777986  -0.138896  -0.282636
H  -3.967614   1.264597  -1.259594
H  -4.051749   0.845401   0.518677
C  -1.398142   0.147771   0.244474
H  -2.633745  -1.279798  -0.531346
H  -2.624092  -1.557774   1.279482
C  -0.238194  -0.622237  -0.176954
H  -1.286287   0.980814   1.229644
H  -1.839781   0.347832  -0.449503
H  -0.060793  -1.286875   0.755580
H   0.905287   0.107233  -0.258019
H  -0.293310  -1.139537  -1.111779
