14
butane_opt
C  -3.870372   0.244047  -0.182981
C  -2.693415  -0.636662   0.257677
H  -4.967332  -0.489746  -0.261358
H  -3.762125   1.274008  -1.300518
H  -4.276612   0.813574   0.552844
C  -1.440928   0.223049   0.283500
H  -2.424214  -1.565641  -0.708385
H  -3.066311  -1.086639   1.017713
C  -0.168861  -0.699948  -0.189829
H  -1.258082   1.104824   1.368994
H  -1.829975   0.780712  -0.421395
H   0.448867  -1.694335   0.896559
H   0.806466  -0.222002  -0.744564
H  -0.592617  -0.949718  -0.924407
