14
butane_opt
C  -3.955263   0.309451   0.230814
C  -2.643343  -0.637116  -0.145426
H  -5.000310  -0.375598   0.176531
H  -4.134619   0.634830  -0.319337
H  -3.914765   1.033807   1.119369
C  -1.365924   0.155333  -0.289546
H  -2.683087  -1.369028  -0.949224
H  -2.342830  -1.216623   0.777095
C  -0.228592  -0.672258   0.202986
H  -1.419260   0.539054   0.445462
H  -1.572572   0.884686  -1.271961
H  -0.868786  -1.075643   1.092299
H   0.877584   0.020983   1.104661
H   0.348424  -1.426860  -0.698223
