butane_opt
 OpenBabel08242015393D

 14 13  0  0  0  0  0  0  0  0999 V2000
   -4.0127    0.2944    0.1558 C   0  0  0  0  0  0  0  0  0  0  0  0
   -2.6287   -0.6537   -0.1582 C   0  0  0  0  0  0  0  0  0  0  0  0
   -4.9115   -0.3609    0.6845 H   0  0  0  0  0  0  0  0  0  0  0  0
   -4.2110    1.2522   -0.8872 H   0  0  0  0  0  0  0  0  0  0  0  0
   -3.7486    0.7728    0.8491 H   0  0  0  0  0  0  0  0  0  0  0  0
   -1.4000    0.1574   -0.1006 C   0  0  0  0  0  0  0  0  0  0  0  0
   -2.7202   -1.5179   -1.0563 H   0  0  0  0  0  0  0  0  0  0  0  0
   -2.3999   -1.2136    0.7686 H   0  0  0  0  0  0  0  0  0  0  0  0
   -0.2050   -0.7015    0.1860 C   0  0  0  0  0  0  0  0  0  0  0  0
   -1.3781    0.6040    0.6996 H   0  0  0  0  0  0  0  0  0  0  0  0
   -1.1125    0.9592   -1.2080 H   0  0  0  0  0  0  0  0  0  0  0  0
   -0.2651   -0.8042    0.8781 H   0  0  0  0  0  0  0  0  0  0  0  0
    0.7836    0.1043    0.3518 H   0  0  0  0  0  0  0  0  0  0  0  0
   -0.1026   -1.4061   -0.6937 H   0  0  0  0  0  0  0  0  0  0  0  0
  1  3  1  0  0  0  0
  1  5  1  0  0  0  0
  2  6  1  0  0  0  0
  2  1  1  0  0  0  0
  2  8  1  0  0  0  0
  4  1  1  0  0  0  0
  6  9  1  0  0  0  0
  6 10  1  0  0  0  0
  7  2  1  0  0  0  0
  9 13  1  0  0  0  0
  9 12  1  0  0  0  0
 11  6  1  0  0  0  0
 14  9  1  0  0  0  0
M  END
$$$$
