butane_opt
 OpenBabel08242015393D

 14 13  0  0  0  0  0  0  0  0999 V2000
   -3.9475    0.2560    0.0283 C   0  0  0  0  0  0  0  0  0  0  0  0
   -2.7017   -0.6073    0.0146 C   0  0  0  0  0  0  0  0  0  0  0  0
   -4.8695   -0.3516    0.0198 H   0  0  0  0  0  0  0  0  0  0  0  0
   -3.9692    0.8504   -0.8675 H   0  0  0  0  0  0  0  0  0  0  0  0
   -3.9382    0.9131    0.8776 H   0  0  0  0  0  0  0  0  0  0  0  0
   -1.4127    0.1930    0.0167 C   0  0  0  0  0  0  0  0  0  0  0  0
   -2.7491   -1.2914   -0.8281 H   0  0  0  0  0  0  0  0  0  0  0  0
   -2.7212   -1.2273    0.9128 H   0  0  0  0  0  0  0  0  0  0  0  0
   -0.1504   -0.6996    0.0346 C   0  0  0  0  0  0  0  0  0  0  0  0
   -1.3584    0.9343    0.9002 H   0  0  0  0  0  0  0  0  0  0  0  0
   -1.4004    0.8340   -0.8693 H   0  0  0  0  0  0  0  0  0  0  0  0
   -0.0366   -1.4315    1.0081 H   0  0  0  0  0  0  0  0  0  0  0  0
    0.6984   -0.1449   -0.0982 H   0  0  0  0  0  0  0  0  0  0  0  0
   -0.1304   -1.2705   -0.7373 H   0  0  0  0  0  0  0  0  0  0  0  0
  1  5  1  0  0  0  0
  2  6  1  0  0  0  0
  2  1  1  0  0  0  0
  2  8  1  0  0  0  0
  3  1  1  0  0  0  0
  4  1  1  0  0  0  0
  6  9  1  0  0  0  0
  6 10  1  0  0  0  0
  7  2  1  0  0  0  0
  9 12  1  0  0  0  0
 11  6  1  0  0  0  0
 13  9  1  0  0  0  0
 14  9  1  0  0  0  0
M  END
$$$$
