butane_opt
 OpenBabel08242015393D

 14 10  0  0  0  0  0  0  0  0999 V2000
   -3.9356    0.2033   -0.1629 C   0  0  0  0  0  0  0  0  0  0  0  0
   -2.7351   -0.5401    0.3256 C   0  0  0  0  0  0  0  0  0  0  0  0
   -5.0436   -0.5670   -0.9129 H   0  0  0  0  0  0  0  0  0  0  0  0
   -3.4923    0.6358   -0.9487 H   0  0  0  0  0  0  0  0  0  0  0  0
   -4.4111    1.0324    0.7439 H   0  0  0  0  0  0  0  0  0  0  0  0
   -1.4789    0.2833    0.1024 C   0  0  0  0  0  0  0  0  0  0  0  0
   -2.6625   -0.9860   -0.4014 H   0  0  0  0  0  0  0  0  0  0  0  0
   -2.7957   -1.6030    1.5307 H   0  0  0  0  0  0  0  0  0  0  0  0
   -0.1077   -0.7349   -0.1539 C   0  0  0  0  0  0  0  0  0  0  0  0
   -0.9783    1.1155    1.3036 H   0  0  0  0  0  0  0  0  0  0  0  0
   -1.6238    0.6104   -0.5758 H   0  0  0  0  0  0  0  0  0  0  0  0
    0.2706   -1.1462    0.6572 H   0  0  0  0  0  0  0  0  0  0  0  0
    0.7672   -0.3811   -0.0719 H   0  0  0  0  0  0  0  0  0  0  0  0
    0.0564   -1.7576   -1.2410 H   0  0  0  0  0  0  0  0  0  0  0  0
  1  2  1  0  0  0  0
  1  5  1  0  0  0  0
  4  1  1  0  0  0  0
  6  2  1  0  0  0  0
  7  2  1  0  0  0  0
  9 13  1  0  0  0  0
  9  6  1  0  0  0  0
  9 12  1  0  0  0  0
 11  6  1  0  0  0  0
 14  9  1  0  0  0  0
M  RAD  6   1   2   2   2   3   2   6   2   8   2  10   2
M  END
$$$$
