butane_opt
 OpenBabel08242015393D

 14 13  0  0  0  0  0  0  0  0999 V2000
   -3.9388    0.3141   -0.0571 C   0  0  0  0  0  0  0  0  0  0  0  0
   -2.6492   -0.6255    0.2140 C   0  0  0  0  0  0  0  0  0  0  0  0
   -4.7718   -0.1808   -0.6919 H   0  0  0  0  0  0  0  0  0  0  0  0
   -3.6652    0.6597   -0.8755 H   0  0  0  0  0  0  0  0  0  0  0  0
   -4.4304    1.2811    0.9592 H   0  0  0  0  0  0  0  0  0  0  0  0
   -1.3775    0.0720    0.0680 C   0  0  0  0  0  0  0  0  0  0  0  0
   -2.5896   -1.3747   -0.5723 H   0  0  0  0  0  0  0  0  0  0  0  0
   -3.0501   -1.2796    1.1728 H   0  0  0  0  0  0  0  0  0  0  0  0
   -0.2030   -0.6253   -0.0891 C   0  0  0  0  0  0  0  0  0  0  0  0
   -1.1682    0.6854    0.9665 H   0  0  0  0  0  0  0  0  0  0  0  0
   -1.4744    0.8244   -0.9212 H   0  0  0  0  0  0  0  0  0  0  0  0
   -0.5882   -1.2302    0.9245 H   0  0  0  0  0  0  0  0  0  0  0  0
    0.9450    0.0575   -0.0912 H   0  0  0  0  0  0  0  0  0  0  0  0
   -0.2358   -1.5118   -1.0453 H   0  0  0  0  0  0  0  0  0  0  0  0
  1  2  1  0  0  0  0
  1  5  1  0  0  0  0
  2  8  1  0  0  0  0
  3  1  1  0  0  0  0
  4  1  1  0  0  0  0
  6  2  1  0  0  0  0
  6 10  1  0  0  0  0
  7  2  1  0  0  0  0
  9  6  1  0  0  0  0
  9 12  1  0  0  0  0
 11  6  1  0  0  0  0
 13  9  1  0  0  0  0
 14  9  1  0  0  0  0
M  END
$$$$
