14
butane_opt
C  -4.012688   0.294433   0.155766
C  -2.628713  -0.653657  -0.158205
H  -4.911450  -0.360950   0.684534
H  -4.210999   1.252245  -0.887172
H  -3.748583   0.772826   0.849058
C  -1.399966   0.157380  -0.100597
H  -2.720240  -1.517917  -1.056321
H  -2.399894  -1.213557   0.768579
C  -0.204960  -0.701502   0.185970
H  -1.378144   0.603975   0.699650
H  -1.112473   0.959163  -1.207965
H  -0.265111  -0.804220   0.878113
H   0.783583   0.104273   0.351778
H  -0.102572  -1.406085  -0.693668
