butane_opt
 OpenBabel08242015393D

 14 13  0  0  0  0  0  0  0  0999 V2000
   -3.9856    0.2142    0.2199 C   0  0  0  0  0  0  0  0  0  0  0  0
   -2.7672   -0.5862   -0.2311 C   0  0  0  0  0  0  0  0  0  0  0  0
   -4.9540   -0.3001    0.7757 H   0  0  0  0  0  0  0  0  0  0  0  0
   -4.3058    0.9932   -0.8665 H   0  0  0  0  0  0  0  0  0  0  0  0
   -3.2910    0.6013    0.9383 H   0  0  0  0  0  0  0  0  0  0  0  0
   -1.4388    0.2444   -0.1415 C   0  0  0  0  0  0  0  0  0  0  0  0
   -2.9722   -1.3979   -1.2172 H   0  0  0  0  0  0  0  0  0  0  0  0
   -2.4163   -0.8667    0.3649 H   0  0  0  0  0  0  0  0  0  0  0  0
   -0.0462   -0.7414    0.2657 C   0  0  0  0  0  0  0  0  0  0  0  0
   -1.7018    0.7686    0.6187 H   0  0  0  0  0  0  0  0  0  0  0  0
   -1.3362    1.0622   -1.3734 H   0  0  0  0  0  0  0  0  0  0  0  0
    0.0382   -1.3167    1.1627 H   0  0  0  0  0  0  0  0  0  0  0  0
    0.7968   -0.2207    0.1714 H   0  0  0  0  0  0  0  0  0  0  0  0
   -0.0475   -1.3609   -0.5171 H   0  0  0  0  0  0  0  0  0  0  0  0
  1  3  1  0  0  0  0
  1  5  1  0  0  0  0
  2  6  1  0  0  0  0
  2  1  1  0  0  0  0
  2  8  1  0  0  0  0
  4  1  1  0  0  0  0
  6  9  1  0  0  0  0
  6 10  1  0  0  0  0
  7  2  1  0  0  0  0
  9 12  1  0  0  0  0
 11  6  1  0  0  0  0
 13  9  1  0  0  0  0
 14  9  1  0  0  0  0
M  END
$$$$
