butane_opt
 OpenBabel08242015393D

 14 13  0  0  0  0  0  0  0  0999 V2000
   -3.9392    0.1964    0.1863 C   0  0  0  0  0  0  0  0  0  0  0  0
   -2.7336   -0.5332   -0.1187 C   0  0  0  0  0  0  0  0  0  0  0  0
   -4.8875   -0.5934    0.2192 H   0  0  0  0  0  0  0  0  0  0  0  0
   -3.9319    0.7533   -0.6819 H   0  0  0  0  0  0  0  0  0  0  0  0
   -3.6518    0.9812    1.1434 H   0  0  0  0  0  0  0  0  0  0  0  0
   -1.4792    0.2553   -0.1671 C   0  0  0  0  0  0  0  0  0  0  0  0
   -3.0825   -1.2064   -0.9802 H   0  0  0  0  0  0  0  0  0  0  0  0
   -2.5121   -1.0643    0.6347 H   0  0  0  0  0  0  0  0  0  0  0  0
   -0.0849   -0.7910    0.1912 C   0  0  0  0  0  0  0  0  0  0  0  0
   -1.7582    0.5141    0.3610 H   0  0  0  0  0  0  0  0  0  0  0  0
   -1.2330    1.2475   -1.1985 H   0  0  0  0  0  0  0  0  0  0  0  0
   -0.1507   -1.0703    0.7732 H   0  0  0  0  0  0  0  0  0  0  0  0
    0.8530   -0.1760    0.7442 H   0  0  0  0  0  0  0  0  0  0  0  0
    0.1976   -1.4007   -0.6898 H   0  0  0  0  0  0  0  0  0  0  0  0
  1  3  1  0  0  0  0
  1  5  1  0  0  0  0
  2  1  1  0  0  0  0
  2  8  1  0  0  0  0
  4  1  1  0  0  0  0
  6  2  1  0  0  0  0
  6  9  1  0  0  0  0
  6 10  1  0  0  0  0
  7  2  1  0  0  0  0
  9 13  1  0  0  0  0
  9 12  1  0  0  0  0
 11  6  1  0  0  0  0
 14  9  1  0  0  0  0
M  END
$$$$
