butane_opt
 OpenBabel08242015393D

 14 13  0  0  0  0  0  0  0  0999 V2000
   -3.9376    0.1948    0.1953 C   0  0  0  0  0  0  0  0  0  0  0  0
   -2.7120   -0.5960   -0.0983 C   0  0  0  0  0  0  0  0  0  0  0  0
   -4.8101   -0.4268    0.1452 H   0  0  0  0  0  0  0  0  0  0  0  0
   -4.0163    0.7216   -0.5779 H   0  0  0  0  0  0  0  0  0  0  0  0
   -3.9725    1.0889    1.1246 H   0  0  0  0  0  0  0  0  0  0  0  0
   -1.3951    0.3315   -0.2264 C   0  0  0  0  0  0  0  0  0  0  0  0
   -3.1811   -1.4073   -1.0989 H   0  0  0  0  0  0  0  0  0  0  0  0
   -2.5662   -1.0441    0.6593 H   0  0  0  0  0  0  0  0  0  0  0  0
   -0.1283   -0.7611    0.1926 C   0  0  0  0  0  0  0  0  0  0  0  0
   -1.9056    0.6457    0.5014 H   0  0  0  0  0  0  0  0  0  0  0  0
   -1.3627    1.0333   -1.1454 H   0  0  0  0  0  0  0  0  0  0  0  0
   -0.1593   -1.3259    1.1328 H   0  0  0  0  0  0  0  0  0  0  0  0
    0.8093   -0.2319    0.5373 H   0  0  0  0  0  0  0  0  0  0  0  0
    0.2259   -1.5485   -0.6099 H   0  0  0  0  0  0  0  0  0  0  0  0
  1  5  1  0  0  0  0
  2  1  1  0  0  0  0
  2  8  1  0  0  0  0
  3  1  1  0  0  0  0
  4  1  1  0  0  0  0
  6  2  1  0  0  0  0
  6  9  1  0  0  0  0
  6 10  1  0  0  0  0
  7  2  1  0  0  0  0
  9 13  1  0  0  0  0
  9 12  1  0  0  0  0
 11  6  1  0  0  0  0
 14  9  1  0  0  0  0
M  END
$$$$
