14
butane_opt
C  -3.855913   0.163819  -0.089099
C  -2.735246  -0.537367   0.226296
H  -4.789122  -0.406512  -0.417441
H  -3.453518   0.930235  -1.142295
H  -4.062607   0.922787   0.883712
C  -1.492493   0.227823   0.091918
H  -2.415338  -0.954530  -0.485292
H  -2.913791  -1.389449   1.210911
C  -0.155551  -0.717285  -0.119123
H  -1.322946   1.211968   1.130558
H  -1.711885   0.814690  -0.734430
H  -0.227730  -1.261313   0.640152
H   0.621580  -0.269329   0.141080
H   0.138053  -1.752098  -1.117777
