14
butane_opt
C  -3.937558   0.194800   0.195339
C  -2.712017  -0.596036  -0.098276
H  -4.810103  -0.426838   0.145229
H  -4.016297   0.721572  -0.577851
H  -3.972489   1.088937   1.124640
C  -1.395115   0.331509  -0.226399
H  -3.181148  -1.407295  -1.098863
H  -2.566198  -1.044085   0.659316
C  -0.128285  -0.761054   0.192561
H  -1.905643   0.645687   0.501448
H  -1.362728   1.033330  -1.145414
H  -0.159251  -1.325905   1.132803
H   0.809333  -0.231869   0.537339
H   0.225928  -1.548499  -0.609885
