14
butane_opt
C  -3.938631   0.274284   0.109292
C  -2.681593  -0.582565  -0.037752
H  -4.964108  -0.457921   0.248066
H  -3.895241   0.807347  -0.825552
H  -3.738640   0.842654   0.968021
C  -1.388782   0.194873  -0.133583
H  -2.895030  -1.125323  -0.885243
H  -2.757711  -1.365594   0.994336
C  -0.213312  -0.719366   0.098862
H  -1.199788   0.832028   0.813671
H  -1.567580   0.906700  -1.027580
H  -0.639559  -1.095851   0.945135
H   0.782685  -0.010330   0.647334
H   0.492138  -1.820062  -0.914230
