butane_opt
 OpenBabel08242015393D

 14 10  0  0  0  0  0  0  0  0999 V2000
   -4.0341    0.2633    0.0195 C   0  0  0  0  0  1  0  0  0  0  0  0
   -2.7480   -0.5635    0.0245 C   0  0  0  0  0  0  0  0  0  0  0  0
   -4.9378   -0.4785   -0.3676 H   0  0  0  0  0  0  0  0  0  0  0  0
   -3.8409    0.0955   -0.3827 H   0  0  0  0  0  0  0  0  0  0  0  0
   -3.8992    1.2706    1.1958 H   0  0  0  0  0  0  0  0  0  0  0  0
   -1.3337    0.2404   -0.0501 C   0  0  0  0  0  0  0  0  0  0  0  0
   -2.5875   -1.1191   -0.6883 H   0  0  0  0  0  0  0  0  0  0  0  0
   -3.0139   -1.3445    1.0380 H   0  0  0  0  0  0  0  0  0  0  0  0
   -0.1090   -0.7576    0.0715 C   0  0  0  0  0  0  0  0  0  0  0  0
   -1.3990    0.9801    0.6654 H   0  0  0  0  0  0  0  0  0  0  0  0
   -1.5029    0.9287   -0.9541 H   0  0  0  0  0  0  0  0  0  0  0  0
    0.0222   -1.4992    1.0992 H   0  0  0  0  0  0  0  0  0  0  0  0
    0.7746   -0.1381   -0.3121 H   0  0  0  0  0  0  0  0  0  0  0  0
    0.0470   -1.3729   -0.5628 H   0  0  0  0  0  0  0  0  0  0  0  0
  2  8  1  0  0  0  0
  3  1  1  0  0  0  0
  4  2  1  0  0  0  0
  6  9  1  0  0  0  0
  6 10  1  0  0  0  0
  7  2  1  0  0  0  0
  9 12  1  0  0  0  0
 11  6  1  0  0  0  0
 13  9  1  0  0  0  0
 14  9  1  0  0  0  0
M  RAD  3   2   2   5   2   6   2
M  END
$$$$
