butane_opt
 OpenBabel08242015393D

 14 13  0  0  0  0  0  0  0  0999 V2000
   -3.9489    0.2846    0.0103 C   0  0  0  0  0  0  0  0  0  0  0  0
   -2.7071   -0.6399    0.0434 C   0  0  0  0  0  0  0  0  0  0  0  0
   -4.8214   -0.2727    0.1618 H   0  0  0  0  0  0  0  0  0  0  0  0
   -4.0354    0.9911   -0.9566 H   0  0  0  0  0  0  0  0  0  0  0  0
   -3.9790    0.8151    0.7508 H   0  0  0  0  0  0  0  0  0  0  0  0
   -1.3924    0.1772    0.0380 C   0  0  0  0  0  0  0  0  0  0  0  0
   -2.7226   -1.3655   -0.8237 H   0  0  0  0  0  0  0  0  0  0  0  0
   -2.7374   -1.2250    0.8974 H   0  0  0  0  0  0  0  0  0  0  0  0
   -0.1546   -0.6850    0.0122 C   0  0  0  0  0  0  0  0  0  0  0  0
   -1.3811    0.8653    0.8894 H   0  0  0  0  0  0  0  0  0  0  0  0
   -1.3773    0.7936   -0.8411 H   0  0  0  0  0  0  0  0  0  0  0  0
   -0.1546   -1.2981    0.9151 H   0  0  0  0  0  0  0  0  0  0  0  0
    0.7580   -0.0558    0.0435 H   0  0  0  0  0  0  0  0  0  0  0  0
   -0.1490   -1.3532   -0.8517 H   0  0  0  0  0  0  0  0  0  0  0  0
  1  2  1  0  0  0  0
  1  3  1  0  0  0  0
  1  5  1  0  0  0  0
  2  8  1  0  0  0  0
  4  1  1  0  0  0  0
  6  2  1  0  0  0  0
  6 10  1  0  0  0  0
  7  2  1  0  0  0  0
  9  6  1  0  0  0  0
  9 13  1  0  0  0  0
  9 12  1  0  0  0  0
 11  6  1  0  0  0  0
 14  9  1  0  0  0  0
M  END
$$$$
