butane_opt
 OpenBabel08242015393D

 14 13  0  0  0  0  0  0  0  0999 V2000
   -3.9488    0.2534    0.0461 C   0  0  0  0  0  0  0  0  0  0  0  0
   -2.7067   -0.6171    0.0116 C   0  0  0  0  0  0  0  0  0  0  0  0
   -4.8575   -0.3017    0.0711 H   0  0  0  0  0  0  0  0  0  0  0  0
   -4.0462    0.9079   -0.8701 H   0  0  0  0  0  0  0  0  0  0  0  0
   -3.9556    0.9100    0.9182 H   0  0  0  0  0  0  0  0  0  0  0  0
   -1.4028    0.1967   -0.0117 C   0  0  0  0  0  0  0  0  0  0  0  0
   -2.7163   -1.3230   -0.8816 H   0  0  0  0  0  0  0  0  0  0  0  0
   -2.6893   -1.2030    0.8571 H   0  0  0  0  0  0  0  0  0  0  0  0
   -0.1456   -0.6976    0.0552 C   0  0  0  0  0  0  0  0  0  0  0  0
   -1.3704    0.8682    0.8233 H   0  0  0  0  0  0  0  0  0  0  0  0
   -1.4031    0.8676   -0.9244 H   0  0  0  0  0  0  0  0  0  0  0  0
   -0.1859   -1.3536    0.9760 H   0  0  0  0  0  0  0  0  0  0  0  0
    0.7441   -0.1325    0.0473 H   0  0  0  0  0  0  0  0  0  0  0  0
   -0.0846   -1.3454   -0.7894 H   0  0  0  0  0  0  0  0  0  0  0  0
  1  3  1  0  0  0  0
  1  5  1  0  0  0  0
  2  1  1  0  0  0  0
  2  8  1  0  0  0  0
  4  1  1  0  0  0  0
  6  2  1  0  0  0  0
  6  9  1  0  0  0  0
  6 10  1  0  0  0  0
  7  2  1  0  0  0  0
  9 12  1  0  0  0  0
 11  6  1  0  0  0  0
 13  9  1  0  0  0  0
 14  9  1  0  0  0  0
M  END
$$$$
