14
butane_opt
C  -3.874600   0.231815  -0.020718
C  -2.808030  -0.621517   0.013478
H  -4.920572  -0.379085   0.804542
H  -4.538702   1.500590  -1.140978
H  -3.581400   0.356417   0.556809
C  -1.422004   0.290345   0.043935
H  -2.872662  -1.389382  -1.012851
H  -2.689687  -1.197099   0.827658
C  -0.083111  -0.770299   0.007341
H  -1.282905   1.209650   1.160951
H  -1.570143   0.674452  -0.705573
H  -0.159118  -1.198387   0.888997
H   0.780344  -0.317092   0.213202
H   0.111685  -1.307921  -0.753937
