butane_opt
 OpenBabel08242015393D

 14 10  0  0  0  0  0  0  0  0999 V2000
   -3.9195    0.2588   -0.1407 C   0  0  0  0  0  0  0  0  0  0  0  0
   -2.7085   -0.5981    0.1941 C   0  0  0  0  0  0  0  0  0  0  0  0
   -5.0981   -0.5817    0.4874 H   0  0  0  0  0  0  0  0  0  0  0  0
   -3.9384    1.2129   -1.2261 H   0  0  0  0  0  0  0  0  0  0  0  0
   -3.8103    0.4271    0.4654 H   0  0  0  0  0  0  0  0  0  0  0  0
   -1.4474    0.2889    0.1006 C   0  0  0  0  0  0  0  0  0  0  0  0
   -2.7196   -1.1967   -0.5178 H   0  0  0  0  0  0  0  0  0  0  0  0
   -2.7678   -1.4375    1.1972 H   0  0  0  0  0  0  0  0  0  0  0  0
   -0.1315   -0.7220   -0.1097 C   0  0  0  0  0  0  0  0  0  0  0  0
   -1.2502    0.9829    1.1336 H   0  0  0  0  0  0  0  0  0  0  0  0
   -1.5566    0.5393   -0.4497 H   0  0  0  0  0  0  0  0  0  0  0  0
   -0.2210   -0.9409    0.5046 H   0  0  0  0  0  0  0  0  0  0  0  0
    0.6712   -0.3960    0.5584 H   0  0  0  0  0  0  0  0  0  0  0  0
    0.1728   -1.8254   -1.3274 H   0  0  0  0  0  0  0  0  0  0  0  0
  1  2  1  0  0  0  0
  1  5  1  0  0  0  0
  2  8  1  0  0  0  0
  4  1  1  0  0  0  0
  6  2  1  0  0  0  0
  6 10  1  0  0  0  0
  7  2  1  0  0  0  0
  9  6  1  0  0  0  0
  9 12  1  0  0  0  0
  9 13  1  0  0  0  0
M  RAD  6   1   2   3   2   6   2   9   2  11   2  14   2
M  END
$$$$
