14
butane_opt
C  -3.897850   0.340929   0.121377
C  -2.692514  -0.651669  -0.070412
H  -4.956507  -0.429239  -0.399669
H  -3.919662   0.151441  -0.084531
H  -3.924393   1.715732   1.385760
C  -1.397537   0.084959  -0.180898
H  -2.789615  -1.314010  -0.874981
H  -2.407092  -1.331836   0.883090
C  -0.225683  -0.646813   0.177587
H  -1.428460   0.659216   0.660637
H  -1.281138   1.074339  -1.357161
H  -0.513667  -1.458400   1.220319
H   0.818646   0.005319  -0.007102
H  -0.080160  -1.099531  -0.491937
