14
butane_opt
C  -3.985623   0.214188   0.219889
C  -2.767217  -0.586198  -0.231147
H  -4.953982  -0.300077   0.775702
H  -4.305838   0.993234  -0.866472
H  -3.290960   0.601339   0.938279
C  -1.438815   0.244358  -0.141477
H  -2.972188  -1.397930  -1.217209
H  -2.416325  -0.866749   0.364874
C  -0.046238  -0.741353   0.265728
H  -1.701760   0.768567   0.618725
H  -1.336205   1.062166  -1.373431
H   0.038243  -1.316668   1.162712
H   0.796787  -0.220737   0.171390
H  -0.047527  -1.360872  -0.517055
