14
butane_opt
C  -3.938839   0.314124  -0.057109
C  -2.649220  -0.625457   0.214039
H  -4.771801  -0.180766  -0.691883
H  -3.665177   0.659734  -0.875479
H  -4.430366   1.281067   0.959180
C  -1.377490   0.071990   0.067959
H  -2.589630  -1.374682  -0.572298
H  -3.050148  -1.279648   1.172796
C  -0.203034  -0.625260  -0.089125
H  -1.168226   0.685407   0.966459
H  -1.474381   0.824403  -0.921151
H  -0.588158  -1.230234   0.924510
H   0.944989   0.057491  -0.091204
H  -0.235780  -1.511777  -1.045336
