14
butane_opt
C  -3.977746   0.368377   0.189673
C  -2.700740  -0.756366  -0.172958
H  -4.766824  -0.108096   0.595421
H  -4.509209   1.133534  -0.707626
H  -3.958656   0.583648   0.744094
C  -1.333714   0.161181  -0.103556
H  -2.830576  -1.725721  -1.173917
H  -2.519660  -1.070419   0.385223
C  -0.156539  -0.640720   0.178442
H  -1.421807   0.654145   0.664491
H  -1.423512   0.934918  -1.012329
H  -0.465243  -1.309641   1.327297
H   0.793100   0.022726   0.049260
H   0.061024  -1.144631  -0.562785
