14
butane_opt
C  -3.903685   0.201616  -0.104774
C  -2.701054  -0.541392   0.279006
H  -4.843155  -0.608745  -0.700917
H  -3.422842   1.002998  -1.223872
H  -4.088482   1.007531   0.710277
C  -1.461304   0.236343   0.129578
H  -2.813264  -1.182327  -0.590165
H  -2.787057  -1.289623   1.120219
C  -0.146898  -0.766708  -0.107084
H  -1.179431   1.044731   1.059469
H  -1.714543   0.823780  -0.683404
H   0.017115  -1.113877   0.617816
H   0.799429  -0.141086  -0.161442
H  -0.401913  -1.587544  -1.093869
