14
butane_opt
C  -3.944254   0.251612   0.046591
C  -2.702412  -0.606934  -0.001945
H  -4.838061  -0.313134   0.189909
H  -4.079660   0.896797  -0.876847
H  -3.903206   0.865956   0.867767
C  -1.411148   0.200720  -0.017633
H  -2.779148  -1.343004  -0.914343
H  -2.710368  -1.204749   0.859232
C  -0.143339  -0.700377   0.064052
H  -1.380601   0.919222   0.854445
H  -1.414435   0.833967  -0.884784
H  -0.178788  -1.380583   1.016153
H   0.757501  -0.149668   0.009333
H  -0.075372  -1.338470  -0.774064
