butane_opt
 OpenBabel08242015393D

 14 12  0  0  0  0  0  0  0  0999 V2000
   -3.9893    0.3189   -0.1227 C   0  0  0  0  0  0  0  0  0  0  0  0
   -2.7162   -0.6673    0.2743 C   0  0  0  0  0  0  0  0  0  0  0  0
   -4.8193   -0.3563   -0.8404 H   0  0  0  0  0  0  0  0  0  0  0  0
   -3.5963    0.7398   -0.9413 H   0  0  0  0  0  0  0  0  0  0  0  0
   -4.5460    1.2584    0.8252 H   0  0  0  0  0  0  0  0  0  0  0  0
   -1.3310    0.1521    0.0706 C   0  0  0  0  0  0  0  0  0  0  0  0
   -2.7949   -1.1313   -0.4169 H   0  0  0  0  0  0  0  0  0  0  0  0
   -2.7706   -1.7799    1.3782 H   0  0  0  0  0  0  0  0  0  0  0  0
   -0.1944   -0.6402   -0.1106 C   0  0  0  0  0  0  0  0  0  0  0  0
   -1.0434    1.1040    1.1811 H   0  0  0  0  0  0  0  0  0  0  0  0
   -1.6146    0.5806   -0.5417 H   0  0  0  0  0  0  0  0  0  0  0  0
    0.1966   -1.0774    0.7121 H   0  0  0  0  0  0  0  0  0  0  0  0
    0.6338   -0.1765   -0.1544 H   0  0  0  0  0  0  0  0  0  0  0  0
    0.0532   -1.5828   -1.1155 H   0  0  0  0  0  0  0  0  0  0  0  0
  1  2  1  0  0  0  0
  1  5  1  0  0  0  0
  3  1  1  0  0  0  0
  4  1  1  0  0  0  0
  6  2  1  0  0  0  0
  6 10  1  0  0  0  0
  7  2  1  0  0  0  0
  9  6  1  0  0  0  0
  9 12  1  0  0  0  0
 11  6  1  0  0  0  0
 13  9  1  0  0  0  0
 14  9  1  0  0  0  0
M  RAD  2   2   2   8   2
M  END
$$$$
