butane_opt
 OpenBabel08242015393D

 14 13  0  0  0  0  0  0  0  0999 V2000
   -4.0578    0.3454    0.0357 C   0  0  0  0  0  0  0  0  0  0  0  0
   -2.6736   -0.7009   -0.0986 C   0  0  0  0  0  0  0  0  0  0  0  0
   -4.9212   -0.1117    0.6630 H   0  0  0  0  0  0  0  0  0  0  0  0
   -4.3386    1.0421   -0.9315 H   0  0  0  0  0  0  0  0  0  0  0  0
   -3.7793    0.8351    0.8772 H   0  0  0  0  0  0  0  0  0  0  0  0
   -1.3067    0.1075    0.0286 C   0  0  0  0  0  0  0  0  0  0  0  0
   -2.7128   -1.3790   -0.8293 H   0  0  0  0  0  0  0  0  0  0  0  0
   -2.6375   -1.3836    0.8766 H   0  0  0  0  0  0  0  0  0  0  0  0
   -0.1563   -0.6231    0.0655 C   0  0  0  0  0  0  0  0  0  0  0  0
   -1.3782    0.9443    0.9011 H   0  0  0  0  0  0  0  0  0  0  0  0
   -1.3054    0.7735   -0.8369 H   0  0  0  0  0  0  0  0  0  0  0  0
   -0.3342   -1.5401    1.0663 H   0  0  0  0  0  0  0  0  0  0  0  0
    0.9342    0.0574    0.0216 H   0  0  0  0  0  0  0  0  0  0  0  0
   -0.2553   -1.2119   -0.7328 H   0  0  0  0  0  0  0  0  0  0  0  0
  1  3  1  0  0  0  0
  1  5  1  0  0  0  0
  2  6  1  0  0  0  0
  2  1  1  0  0  0  0
  2  8  1  0  0  0  0
  4  1  1  0  0  0  0
  6  9  1  0  0  0  0
  6 10  1  0  0  0  0
  7  2  1  0  0  0  0
  9 12  1  0  0  0  0
 11  6  1  0  0  0  0
 13  9  1  0  0  0  0
 14  9  1  0  0  0  0
M  END
$$$$
