butane_opt
 OpenBabel08242015393D

 14 13  0  0  0  0  0  0  0  0999 V2000
   -3.9394    0.2590   -0.0132 C   0  0  0  0  0  0  0  0  0  0  0  0
   -2.7022   -0.6013    0.0607 C   0  0  0  0  0  0  0  0  0  0  0  0
   -4.8934   -0.3757    0.1524 H   0  0  0  0  0  0  0  0  0  0  0  0
   -3.9445    0.9657   -0.9688 H   0  0  0  0  0  0  0  0  0  0  0  0
   -3.8652    0.8011    0.7615 H   0  0  0  0  0  0  0  0  0  0  0  0
   -1.4106    0.1984    0.0505 C   0  0  0  0  0  0  0  0  0  0  0  0
   -2.7301   -1.3053   -0.8277 H   0  0  0  0  0  0  0  0  0  0  0  0
   -2.7199   -1.2014    0.9479 H   0  0  0  0  0  0  0  0  0  0  0  0
   -0.1582   -0.7054    0.0064 C   0  0  0  0  0  0  0  0  0  0  0  0
   -1.3619    0.8627    0.9152 H   0  0  0  0  0  0  0  0  0  0  0  0
   -1.4494    0.7906   -0.7996 H   0  0  0  0  0  0  0  0  0  0  0  0
   -0.1269   -1.2833    0.8704 H   0  0  0  0  0  0  0  0  0  0  0  0
    0.7355   -0.1310   -0.0301 H   0  0  0  0  0  0  0  0  0  0  0  0
   -0.1387   -1.4045   -0.8516 H   0  0  0  0  0  0  0  0  0  0  0  0
  1  2  1  0  0  0  0
  1  3  1  0  0  0  0
  1  5  1  0  0  0  0
  2  8  1  0  0  0  0
  4  1  1  0  0  0  0
  6  2  1  0  0  0  0
  6 10  1  0  0  0  0
  7  2  1  0  0  0  0
  9  6  1  0  0  0  0
  9 12  1  0  0  0  0
 11  6  1  0  0  0  0
 13  9  1  0  0  0  0
 14  9  1  0  0  0  0
M  END
$$$$
