14
butane_opt
C  -3.969120   0.269669   0.132429
C  -2.633063  -0.640997  -0.021768
H  -4.776999  -0.179031   0.103886
H  -3.999408   0.947722  -0.740745
H  -4.094105   0.952287   1.085253
C  -1.425025   0.130488  -0.127889
H  -2.685093  -1.480082  -0.998400
H  -2.509088  -1.151388   0.834806
C  -0.198227  -0.636324   0.120091
H  -1.107614   0.649504   0.516676
H  -1.303526   1.037855  -1.288088
H  -0.806160  -0.903339   0.897186
H   0.702656  -0.268271   0.645609
H   0.289906  -1.573273  -0.872366
