butane_opt
 OpenBabel08242015393D

 14 13  0  0  0  0  0  0  0  0999 V2000
   -3.9390    0.2683   -0.0129 C   0  0  0  0  0  0  0  0  0  0  0  0
   -2.7099   -0.6206    0.0750 C   0  0  0  0  0  0  0  0  0  0  0  0
   -4.8594   -0.3183   -0.0720 H   0  0  0  0  0  0  0  0  0  0  0  0
   -3.9027    0.8059   -0.8707 H   0  0  0  0  0  0  0  0  0  0  0  0
   -4.0697    0.9737    0.8706 H   0  0  0  0  0  0  0  0  0  0  0  0
   -1.4041    0.1978    0.0336 C   0  0  0  0  0  0  0  0  0  0  0  0
   -2.7793   -1.2336   -0.7325 H   0  0  0  0  0  0  0  0  0  0  0  0
   -2.7620   -1.3453    1.0205 H   0  0  0  0  0  0  0  0  0  0  0  0
   -0.1474   -0.6981    0.0023 C   0  0  0  0  0  0  0  0  0  0  0  0
   -1.3672    0.8897    0.9083 H   0  0  0  0  0  0  0  0  0  0  0  0
   -1.4069    0.8245   -0.8629 H   0  0  0  0  0  0  0  0  0  0  0  0
   -0.0939   -1.2879    0.8778 H   0  0  0  0  0  0  0  0  0  0  0  0
    0.7650   -0.1171    0.0172 H   0  0  0  0  0  0  0  0  0  0  0  0
   -0.1457   -1.4332   -0.8915 H   0  0  0  0  0  0  0  0  0  0  0  0
  1  2  1  0  0  0  0
  1  5  1  0  0  0  0
  2  8  1  0  0  0  0
  3  1  1  0  0  0  0
  4  1  1  0  0  0  0
  6  2  1  0  0  0  0
  6 10  1  0  0  0  0
  7  2  1  0  0  0  0
  9 13  1  0  0  0  0
  9  6  1  0  0  0  0
  9 12  1  0  0  0  0
 11  6  1  0  0  0  0
 14  9  1  0  0  0  0
M  END
$$$$
