butane_opt
 OpenBabel08242015393D

 14 11  0  0  0  0  0  0  0  0999 V2000
   -3.9077    0.2060    0.0345 C   0  0  0  0  0  0  0  0  0  0  0  0
   -2.7604   -0.5019   -0.0624 C   0  0  0  0  0  0  0  0  0  0  0  0
   -5.1233   -0.6875    0.0587 H   0  0  0  0  0  0  0  0  0  0  0  0
   -3.8281    0.6135   -0.7334 H   0  0  0  0  0  0  0  0  0  0  0  0
   -3.9831    1.1328    1.0735 H   0  0  0  0  0  0  0  0  0  0  0  0
   -1.4013    0.2703    0.0735 C   0  0  0  0  0  0  0  0  0  0  0  0
   -2.6393   -1.4827   -1.1948 H   0  0  0  0  0  0  0  0  0  0  0  0
   -2.6761   -1.0576    0.8403 H   0  0  0  0  0  0  0  0  0  0  0  0
   -0.1423   -0.7820    0.0598 C   0  0  0  0  0  0  0  0  0  0  0  0
   -1.2879    0.6975    0.8943 H   0  0  0  0  0  0  0  0  0  0  0  0
   -1.5497    1.1222   -0.8858 H   0  0  0  0  0  0  0  0  0  0  0  0
    0.2396   -1.9991    1.4166 H   0  0  0  0  0  0  0  0  0  0  0  0
    0.9098   -0.2499   -0.7460 H   0  0  0  0  0  0  0  0  0  0  0  0
   -0.4705   -0.8851   -0.4298 H   0  0  0  0  0  0  0  0  0  0  0  0
  1  3  1  0  0  0  0
  1  5  1  0  0  0  0
  2  1  1  0  0  0  0
  2  6  1  0  0  0  0
  2  8  1  0  0  0  0
  4  1  1  0  0  0  0
  6 10  1  0  0  0  0
  7  2  1  0  0  0  0
  9  6  1  0  0  0  0
 11  6  1  0  0  0  0
 13  9  1  0  0  0  0
M  RAD  3   9   3  12   2  14   2
M  END
$$$$
