butane_opt
 OpenBabel08242015393D

 14 11  0  0  0  0  0  0  0  0999 V2000
   -3.8983    0.1826    0.0820 C   0  0  0  0  0  0  0  0  0  0  0  0
   -2.6871   -0.4659   -0.0126 C   0  0  0  0  0  0  0  0  0  0  0  0
   -4.9628   -0.5218   -0.4281 H   0  0  0  0  0  0  0  0  0  0  0  0
   -3.8603    0.1395   -0.3337 H   0  0  0  0  0  0  0  0  0  0  0  0
   -3.7722    1.1680    1.1817 H   0  0  0  0  0  0  0  0  0  0  0  0
   -1.4751    0.2377   -0.1148 C   0  0  0  0  0  0  0  0  0  0  0  0
   -2.7134   -1.0437   -0.7763 H   0  0  0  0  0  0  0  0  0  0  0  0
   -2.5372   -1.2366    0.9525 H   0  0  0  0  0  0  0  0  0  0  0  0
   -0.1613   -0.7388    0.1118 C   0  0  0  0  0  0  0  0  0  0  0  0
   -1.6580    0.8765    0.7612 H   0  0  0  0  0  0  0  0  0  0  0  0
   -1.0713    0.8131   -1.1816 H   0  0  0  0  0  0  0  0  0  0  0  0
   -0.1370   -1.5515    1.1337 H   0  0  0  0  0  0  0  0  0  0  0  0
    0.5832   -0.3488   -0.0979 H   0  0  0  0  0  0  0  0  0  0  0  0
   -0.1806   -1.4044   -0.5570 H   0  0  0  0  0  0  0  0  0  0  0  0
  1  5  1  0  0  0  0
  2  8  1  0  0  0  0
  3  1  1  0  0  0  0
  4  2  1  0  0  0  0
  6  9  1  0  0  0  0
  6 10  1  0  0  0  0
  7  2  1  0  0  0  0
  9 12  1  0  0  0  0
 11  6  1  0  0  0  0
 13  9  1  0  0  0  0
 14  9  1  0  0  0  0
M  RAD  3   1   3   2   2   6   2
M  END
$$$$
