butane_opt
 OpenBabel08242015393D

 14 12  0  0  0  0  0  0  0  0999 V2000
   -3.8829    0.2087   -0.0647 C   0  0  0  0  0  0  0  0  0  0  0  0
   -2.7016   -0.5273    0.0436 C   0  0  0  0  0  0  0  0  0  0  0  0
   -4.8460   -0.4248    0.0343 H   0  0  0  0  0  0  0  0  0  0  0  0
   -3.8396    0.8316   -0.9211 H   0  0  0  0  0  0  0  0  0  0  0  0
   -3.8336    0.6914    0.7983 H   0  0  0  0  0  0  0  0  0  0  0  0
   -1.4004    0.2320    0.1825 C   0  0  0  0  0  0  0  0  0  0  0  0
   -2.8323   -1.4044   -0.9201 H   0  0  0  0  0  0  0  0  0  0  0  0
   -2.7516   -1.0545    0.8699 H   0  0  0  0  0  0  0  0  0  0  0  0
   -0.1904   -0.7365   -0.0462 C   0  0  0  0  0  0  0  0  0  0  0  0
   -1.3420    0.9408    1.0953 H   0  0  0  0  0  0  0  0  0  0  0  0
   -1.5773    1.0379   -0.6337 H   0  0  0  0  0  0  0  0  0  0  0  0
    0.0964   -1.9416    1.1610 H   0  0  0  0  0  0  0  0  0  0  0  0
    0.4066   -0.3035   -0.7647 H   0  0  0  0  0  0  0  0  0  0  0  0
   -0.3606   -1.0011   -0.6427 H   0  0  0  0  0  0  0  0  0  0  0  0
  1  3  1  0  0  0  0
  1  2  1  0  0  0  0
  1  5  1  0  0  0  0
  2  6  1  0  0  0  0
  2  8  1  0  0  0  0
  4  1  1  0  0  0  0
  6 10  1  0  0  0  0
  7  2  1  0  0  0  0
  9  6  1  0  0  0  0
 11  6  1  0  0  0  0
 13  9  1  0  0  0  0
 14  9  1  0  0  0  0
M  RAD  2   9   2  12   2
M  END
$$$$
