butane_opt
 OpenBabel08242015393D

 14 13  0  0  0  0  0  0  0  0999 V2000
   -3.8846    0.3492    0.1210 C   0  0  0  0  0  0  0  0  0  0  0  0
   -2.6562   -0.6657   -0.1779 C   0  0  0  0  0  0  0  0  0  0  0  0
   -4.8452   -0.2656    0.6984 H   0  0  0  0  0  0  0  0  0  0  0  0
   -4.5232    1.0707   -0.7941 H   0  0  0  0  0  0  0  0  0  0  0  0
   -3.5352    0.6642    0.7604 H   0  0  0  0  0  0  0  0  0  0  0  0
   -1.4498    0.0679   -0.0070 C   0  0  0  0  0  0  0  0  0  0  0  0
   -2.5245   -1.3549   -1.1616 H   0  0  0  0  0  0  0  0  0  0  0  0
   -2.8236   -1.3578    0.7725 H   0  0  0  0  0  0  0  0  0  0  0  0
   -0.1965   -0.6450    0.1300 C   0  0  0  0  0  0  0  0  0  0  0  0
   -1.5215    0.8945    0.8665 H   0  0  0  0  0  0  0  0  0  0  0  0
   -1.3394    0.8085   -0.9565 H   0  0  0  0  0  0  0  0  0  0  0  0
   -0.4672   -1.3771    1.2757 H   0  0  0  0  0  0  0  0  0  0  0  0
    0.9945    0.2261   -0.1929 H   0  0  0  0  0  0  0  0  0  0  0  0
   -0.2298   -1.0333   -0.6300 H   0  0  0  0  0  0  0  0  0  0  0  0
  1  3  1  0  0  0  0
  1  5  1  0  0  0  0
  2  6  1  0  0  0  0
  2  1  1  0  0  0  0
  2  8  1  0  0  0  0
  4  1  1  0  0  0  0
  6  9  1  0  0  0  0
  6 10  1  0  0  0  0
  7  2  1  0  0  0  0
  9 12  1  0  0  0  0
 11  6  1  0  0  0  0
 13  9  1  0  0  0  0
 14  9  1  0  0  0  0
M  END
$$$$
