butane_opt
 OpenBabel08242015393D

 14 11  0  0  0  0  0  0  0  0999 V2000
   -3.8425    0.2809   -0.1100 C   0  0  0  0  0  0  0  0  0  0  0  0
   -2.6734   -0.6589    0.2657 C   0  0  0  0  0  0  0  0  0  0  0  0
   -4.7014   -0.2719   -0.2142 H   0  0  0  0  0  0  0  0  0  0  0  0
   -3.7748    1.1706   -1.2563 H   0  0  0  0  0  0  0  0  0  0  0  0
   -4.4072    0.7326    0.5080 H   0  0  0  0  0  0  0  0  0  0  0  0
   -1.4696    0.1552    0.1192 C   0  0  0  0  0  0  0  0  0  0  0  0
   -2.6369   -1.2422   -0.4974 H   0  0  0  0  0  0  0  0  0  0  0  0
   -2.6935   -1.3295    1.3160 H   0  0  0  0  0  0  0  0  0  0  0  0
   -0.1890   -0.6617   -0.1417 C   0  0  0  0  0  0  0  0  0  0  0  0
   -1.4627    0.7814    1.0129 H   0  0  0  0  0  0  0  0  0  0  0  0
   -1.3854    0.7516   -0.7440 H   0  0  0  0  0  0  0  0  0  0  0  0
   -0.1517   -0.6304    0.3112 H   0  0  0  0  0  0  0  0  0  0  0  0
    0.6274    0.0027    0.5595 H   0  0  0  0  0  0  0  0  0  0  0  0
   -0.3233   -1.8343   -1.2372 H   0  0  0  0  0  0  0  0  0  0  0  0
  1  2  1  0  0  0  0
  1  5  1  0  0  0  0
  2  8  1  0  0  0  0
  3  1  1  0  0  0  0
  4  1  1  0  0  0  0
  6  2  1  0  0  0  0
  6 10  1  0  0  0  0
  7  2  1  0  0  0  0
  9  6  1  0  0  0  0
  9 13  1  0  0  0  0
 11  6  1  0  0  0  0
M  RAD  3   9   3  12   2  14   2
M  END
$$$$
