butane_opt
 OpenBabel08242015393D

 14 10  0  0  0  0  0  0  0  0999 V2000
   -3.9802    0.3290   -0.1214 C   0  0  0  0  0  0  0  0  0  0  0  0
   -2.7206   -0.7209    0.1490 C   0  0  0  0  0  0  0  0  0  0  0  0
   -4.8561   -0.2906    0.2984 H   0  0  0  0  0  0  0  0  0  0  0  0
   -4.1402    1.4412   -1.5415 H   0  0  0  0  0  0  0  0  0  0  0  0
   -4.1179    0.4656    0.4076 H   0  0  0  0  0  0  0  0  0  0  0  0
   -1.3750    0.1852    0.2298 C   0  0  0  0  0  0  0  0  0  0  0  0
   -2.7051   -1.2167   -0.5859 H   0  0  0  0  0  0  0  0  0  0  0  0
   -2.9363   -1.4474    1.0853 H   0  0  0  0  0  0  0  0  0  0  0  0
   -0.1070   -0.6635   -0.0820 C   0  0  0  0  0  0  0  0  0  0  0  0
   -1.1518    1.0240    1.2802 H   0  0  0  0  0  0  0  0  0  0  0  0
   -1.3664    0.8895   -0.6155 H   0  0  0  0  0  0  0  0  0  0  0  0
    0.0624   -0.9951    0.5436 H   0  0  0  0  0  0  0  0  0  0  0  0
    0.7414   -0.1004   -0.3130 H   0  0  0  0  0  0  0  0  0  0  0  0
   -0.3651   -1.7944   -1.3265 H   0  0  0  0  0  0  0  0  0  0  0  0
  1  2  1  0  0  0  0
  1  3  1  0  0  0  0
  2  6  1  0  0  0  0
  2  8  1  0  0  0  0
  6 10  1  0  0  0  0
  7  2  1  0  0  0  0
  9  6  1  0  0  0  0
  9 12  1  0  0  0  0
 11  6  1  0  0  0  0
 13  9  1  0  0  0  0
M  RAD  5   1   3   4   2   5   2   9   2  14   2
M  END
$$$$
