14
butane_opt
C  -3.963295   0.263046   0.101284
C  -2.732098  -0.683363   0.003656
H  -4.812428  -0.339859   0.067570
H  -4.194511   1.026712  -0.778252
H  -3.904670   1.011459   0.972800
C  -1.394055   0.252396  -0.113004
H  -2.940646  -1.364511  -0.843591
H  -2.674547  -1.320627   0.791987
C  -0.120617  -0.696879   0.123736
H  -1.837379   0.902485   0.541169
H  -1.223721   0.868718  -1.075237
H  -0.102053  -1.064271   0.706980
H   0.862616  -0.183199   0.467395
H   0.294939  -1.604045  -0.861070
