14
butane_opt
C  -3.901562   0.203934   0.129969
C  -2.642247  -0.585494  -0.125631
H  -4.754583  -0.409277   0.510126
H  -4.234156   1.120255  -0.756671
H  -3.282341   0.746332   1.024424
C  -1.465354   0.224377  -0.106083
H  -2.948553  -1.412348  -1.179443
H  -2.764221  -0.907596   0.692161
C  -0.189120  -0.736862   0.189124
H  -1.494627   0.908799   0.668263
H  -1.594658   1.135786  -1.250351
H  -0.303204  -1.319514   1.063551
H   0.862853  -0.124330   0.243258
H  -0.130871  -1.483145  -0.645689
