14
butane_opt
C  -4.057810   0.345422   0.035736
C  -2.673642  -0.700861  -0.098620
H  -4.921206  -0.111672   0.662958
H  -4.338648   1.042058  -0.931506
H  -3.779347   0.835059   0.877217
C  -1.306651   0.107459   0.028601
H  -2.712813  -1.379040  -0.829267
H  -2.637520  -1.383604   0.876589
C  -0.156335  -0.623098   0.065451
H  -1.378193   0.944298   0.901077
H  -1.305442   0.773475  -0.836859
H  -0.334196  -1.540068   1.066300
H   0.934173   0.057365   0.021568
H  -0.255261  -1.211932  -0.732792
