butane_opt
 OpenBabel08242015393D

 14 10  0  0  0  0  0  0  0  0999 V2000
   -3.9904    0.2893   -0.1149 C   0  0  0  0  0  0  0  0  0  0  0  0
   -2.6842   -0.6718    0.1193 C   0  0  0  0  0  0  0  0  0  0  0  0
   -4.5980   -0.0584    0.8787 H   0  0  0  0  0  0  0  0  0  0  0  0
   -4.5110    1.7069   -1.4548 H   0  0  0  0  0  0  0  0  0  0  0  0
   -4.1736    0.0226    0.0776 H   0  0  0  0  0  0  0  0  0  0  0  0
   -1.3999    0.1862    0.2129 C   0  0  0  0  0  0  0  0  0  0  0  0
   -2.5952   -1.4500   -0.8204 H   0  0  0  0  0  0  0  0  0  0  0  0
   -2.9038   -1.3668    0.9884 H   0  0  0  0  0  0  0  0  0  0  0  0
   -0.1251   -0.6753   -0.0750 C   0  0  0  0  0  0  0  0  0  0  0  0
   -1.2145    1.0106    1.3179 H   0  0  0  0  0  0  0  0  0  0  0  0
   -1.2027    0.7073   -0.6505 H   0  0  0  0  0  0  0  0  0  0  0  0
    0.1603   -0.8103    0.5453 H   0  0  0  0  0  0  0  0  0  0  0  0
    0.8027    0.0917   -0.0492 H   0  0  0  0  0  0  0  0  0  0  0  0
   -0.4072   -1.8161   -1.2207 H   0  0  0  0  0  0  0  0  0  0  0  0
  1  2  1  0  0  0  0
  1  3  1  0  0  0  0
  2  6  1  0  0  0  0
  2  8  1  0  0  0  0
  6 10  1  0  0  0  0
  7  2  1  0  0  0  0
  9 13  1  0  0  0  0
  9  6  1  0  0  0  0
  9 12  1  0  0  0  0
 11  6  1  0  0  0  0
M  RAD  5   1   3   4   2   5   2   9   2  14   2
M  END
$$$$
