14
butane_opt
C  -3.939572   0.284130   0.172491
C  -2.626490  -0.678133  -0.200601
H  -4.802218  -0.138236   0.951186
H  -4.579110   0.967232  -0.719185
H  -3.608245   1.092985   1.102936
C  -1.401287   0.123107  -0.171116
H  -2.596950  -1.446301  -1.112539
H  -2.327206  -1.322412   0.462749
C  -0.246483  -0.616134   0.238195
H  -1.361123   0.760148   0.635858
H  -1.104900   1.031899  -1.323660
H  -0.588993  -1.307205   1.211314
H   0.619920   0.011751   0.464441
H  -0.100243  -1.481419  -0.679064
