butane_opt
 OpenBabel08242015393D

 14 12  0  0  0  0  0  0  0  0999 V2000
   -4.0049    0.2939    0.1278 C   0  0  0  0  0  0  0  0  0  0  0  0
   -2.6604   -0.7233   -0.0441 C   0  0  0  0  0  0  0  0  0  0  0  0
   -4.6242    0.2028   -0.3693 H   0  0  0  0  0  0  0  0  0  0  0  0
   -3.9240    0.6012   -0.7309 H   0  0  0  0  0  0  0  0  0  0  0  0
   -4.3538    1.3562    1.1429 H   0  0  0  0  0  0  0  0  0  0  0  0
   -1.3732    0.1294   -0.0530 C   0  0  0  0  0  0  0  0  0  0  0  0
   -2.7857   -1.4330   -0.9042 H   0  0  0  0  0  0  0  0  0  0  0  0
   -2.6943   -1.2289    0.8146 H   0  0  0  0  0  0  0  0  0  0  0  0
   -0.1728   -0.6527    0.1166 C   0  0  0  0  0  0  0  0  0  0  0  0
   -1.3326    0.6584    0.6503 H   0  0  0  0  0  0  0  0  0  0  0  0
   -1.1803    1.1499   -1.2059 H   0  0  0  0  0  0  0  0  0  0  0  0
    0.0402   -1.3229    1.0144 H   0  0  0  0  0  0  0  0  0  0  0  0
    0.8395    0.0216   -0.0678 H   0  0  0  0  0  0  0  0  0  0  0  0
   -0.5012   -1.0186   -0.5909 H   0  0  0  0  0  0  0  0  0  0  0  0
  1  5  1  0  0  0  0
  2  1  1  0  0  0  0
  2  8  1  0  0  0  0
  3  1  1  0  0  0  0
  4  1  1  0  0  0  0
  6  2  1  0  0  0  0
  6  9  1  0  0  0  0
  6 10  1  0  0  0  0
  7  2  1  0  0  0  0
  9 12  1  0  0  0  0
 13  9  1  0  0  0  0
 14  9  1  0  0  0  0
M  RAD  2   6   2  11   2
M  END
$$$$
