14
butane_opt
C  -3.972677   0.307026   0.217865
C  -2.771630  -0.692210  -0.214645
H  -4.881467  -0.300143   0.695933
H  -4.497930   1.108285  -0.738350
H  -3.774290   0.920540   1.074498
C  -1.347436   0.156016  -0.131829
H  -2.741627  -1.486629  -1.312494
H  -2.479113  -1.080856   0.435662
C  -0.157165  -0.662106   0.216756
H  -1.588926   0.702464   0.547858
H  -0.750312   1.180621  -1.348232
H   0.023040  -1.527413   1.239874
H   0.612953  -0.017611   0.365427
H   0.036885  -1.301697  -0.566294
