butane_opt
 OpenBabel08242015393D

 14 11  0  0  0  0  0  0  0  0999 V2000
   -4.0009    0.2222    0.2210 C   0  0  0  0  0  0  0  0  0  0  0  0
   -2.7403   -0.5263   -0.0861 C   0  0  0  0  0  0  0  0  0  0  0  0
   -5.0224   -0.5594   -0.0134 H   0  0  0  0  0  0  0  0  0  0  0  0
   -4.0919    0.6895   -0.6855 H   0  0  0  0  0  0  0  0  0  0  0  0
   -3.7606    0.9610    1.2830 H   0  0  0  0  0  0  0  0  0  0  0  0
   -1.3946    0.2188   -0.2506 C   0  0  0  0  0  0  0  0  0  0  0  0
   -3.0407   -1.5570   -1.1955 H   0  0  0  0  0  0  0  0  0  0  0  0
   -2.5657   -1.0560    0.7034 H   0  0  0  0  0  0  0  0  0  0  0  0
   -0.0826   -0.7075    0.2310 C   0  0  0  0  0  0  0  0  0  0  0  0
   -1.4560    0.6844    0.3873 H   0  0  0  0  0  0  0  0  0  0  0  0
   -1.6425    1.0479   -1.4241 H   0  0  0  0  0  0  0  0  0  0  0  0
   -0.2481   -1.2558    1.0517 H   0  0  0  0  0  0  0  0  0  0  0  0
    0.7202   -0.2445    0.7050 H   0  0  0  0  0  0  0  0  0  0  0  0
    0.6869   -1.6649   -0.7588 H   0  0  0  0  0  0  0  0  0  0  0  0
  1  5  1  0  0  0  0
  2  1  1  0  0  0  0
  2  8  1  0  0  0  0
  3  1  1  0  0  0  0
  4  1  1  0  0  0  0
  6  2  1  0  0  0  0
  6  9  1  0  0  0  0
  6 10  1  0  0  0  0
  9 13  1  0  0  0  0
  9 12  1  0  0  0  0
 11  6  1  0  0  0  0
M  RAD  4   2   2   7   2   9   2  14   2
M  END
$$$$
