14
butane_opt
C  -4.015987   0.324636   0.011440
C  -2.718034  -0.670957   0.102656
H  -4.712583  -0.119299   0.087637
H  -4.042313   1.006359  -0.900660
H  -3.881113   0.708504   0.832328
C  -1.368304   0.144203  -0.028622
H  -2.630258  -1.401247  -0.705853
H  -2.707452  -1.411808   1.018093
C  -0.134219  -0.652751  -0.020148
H  -1.526968   0.684040   0.798668
H  -1.351157   0.927904  -0.967101
H  -0.574205  -0.868032   0.706418
H   0.962568   0.030236   0.897155
H   0.204441  -1.718853  -1.180248
