butane_opt
 OpenBabel08242015393D

 14  9  0  0  0  0  0  0  0  0999 V2000
   -3.9339    0.2772   -0.0982 C   0  0  0  0  0  0  0  0  0  0  0  0
   -2.6770   -0.5710    0.1865 C   0  0  0  0  0  0  0  0  0  0  0  0
   -4.9857   -0.5242    0.0611 H   0  0  0  0  0  0  0  0  0  0  0  0
   -3.9552    0.9878   -1.0330 H   0  0  0  0  0  0  0  0  0  0  0  0
   -3.7112    0.4829    0.4491 H   0  0  0  0  0  0  0  0  0  0  0  0
   -1.4124    0.1714    0.0450 C   0  0  0  0  0  0  0  0  0  0  0  0
   -2.7197   -0.9248   -0.3496 H   0  0  0  0  0  0  0  0  0  0  0  0
   -2.5111   -1.5958    1.3040 H   0  0  0  0  0  0  0  0  0  0  0  0
   -0.1895   -0.6825   -0.0482 C   0  0  0  0  0  1  0  0  0  0  0  0
   -1.5922    0.9654    1.0101 H   0  0  0  0  0  0  0  0  0  0  0  0
   -1.5399    0.6522   -0.6444 H   0  0  0  0  0  0  0  0  0  0  0  0
   -0.2426   -0.6087    0.2768 H   0  0  0  0  0  0  0  0  0  0  0  0
    0.7354   -0.2194    0.6846 H   0  0  0  0  0  0  0  0  0  0  0  0
    0.0360   -2.0458   -1.4853 H   0  0  0  0  0  0  0  0  0  0  0  0
  1  3  1  0  0  0  0
  2  5  1  0  0  0  0
  4  1  1  0  0  0  0
  6  2  1  0  0  0  0
  6 12  1  0  0  0  0
  6 10  1  0  0  0  0
  7  2  1  0  0  0  0
  9 13  1  0  0  0  0
 11  6  1  0  0  0  0
M  RAD  4   1   3   2   2   8   2  14   2
M  END
$$$$
