butane_opt
 OpenBabel08242015393D

 14 12  0  0  0  0  0  0  0  0999 V2000
   -3.9023    0.2214   -0.0519 C   0  0  0  0  0  0  0  0  0  0  0  0
   -2.7130   -0.4959    0.0729 C   0  0  0  0  0  0  0  0  0  0  0  0
   -4.9204   -0.4905   -0.1805 H   0  0  0  0  0  0  0  0  0  0  0  0
   -3.5158    0.7310   -0.8886 H   0  0  0  0  0  0  0  0  0  0  0  0
   -3.6693    0.7373    0.8574 H   0  0  0  0  0  0  0  0  0  0  0  0
   -1.4653    0.2030    0.1211 C   0  0  0  0  0  0  0  0  0  0  0  0
   -2.7229   -1.1855   -0.8293 H   0  0  0  0  0  0  0  0  0  0  0  0
   -2.7686   -1.1021    0.8859 H   0  0  0  0  0  0  0  0  0  0  0  0
   -0.1934   -0.7375    0.0064 C   0  0  0  0  0  0  0  0  0  0  0  0
   -1.2645    0.8304    0.8871 H   0  0  0  0  0  0  0  0  0  0  0  0
   -1.4465    0.7902   -0.6519 H   0  0  0  0  0  0  0  0  0  0  0  0
    0.5238   -1.6349    1.1304 H   0  0  0  0  0  0  0  0  0  0  0  0
    0.6471   -0.2047   -0.6360 H   0  0  0  0  0  0  0  0  0  0  0  0
   -0.6184   -1.2452   -0.8801 H   0  0  0  0  0  0  0  0  0  0  0  0
  1  2  1  0  0  0  0
  1  5  1  0  0  0  0
  2  6  1  0  0  0  0
  2  8  1  0  0  0  0
  3  1  1  0  0  0  0
  4  1  1  0  0  0  0
  6 10  1  0  0  0  0
  7  2  1  0  0  0  0
  9  6  1  0  0  0  0
 11  6  1  0  0  0  0
 13  9  1  0  0  0  0
 14  9  1  0  0  0  0
M  RAD  2   9   2  12   2
M  END
$$$$
