butane_opt
 OpenBabel08242015393D

 14 11  0  0  0  0  0  0  0  0999 V2000
   -3.9356    0.1983   -0.0071 C   0  0  0  0  0  0  0  0  0  0  0  0
   -2.7825   -0.5778   -0.0109 C   0  0  0  0  0  0  0  0  0  0  0  0
   -4.6546   -0.2337   -0.1254 H   0  0  0  0  0  0  0  0  0  0  0  0
   -4.0652    0.5601   -0.8255 H   0  0  0  0  0  0  0  0  0  0  0  0
   -3.7963    0.9498    1.0448 H   0  0  0  0  0  0  0  0  0  0  0  0
   -1.3952    0.3256    0.1376 C   0  0  0  0  0  0  0  0  0  0  0  0
   -2.8468   -1.3820   -1.0542 H   0  0  0  0  0  0  0  0  0  0  0  0
   -2.7422   -1.0479    0.8243 H   0  0  0  0  0  0  0  0  0  0  0  0
   -0.1072   -0.7787    0.0300 C   0  0  0  0  0  0  0  0  0  0  0  0
   -1.4419    0.9008    0.8053 H   0  0  0  0  0  0  0  0  0  0  0  0
   -1.5316    0.9697   -0.8571 H   0  0  0  0  0  0  0  0  0  0  0  0
    0.3073   -2.1122    1.2516 H   0  0  0  0  0  0  0  0  0  0  0  0
    0.7682   -0.1969   -0.8501 H   0  0  0  0  0  0  0  0  0  0  0  0
   -0.3634   -0.8568   -0.4966 H   0  0  0  0  0  0  0  0  0  0  0  0
  1  5  1  0  0  0  0
  2  1  1  0  0  0  0
  2  6  1  0  0  0  0
  2  8  1  0  0  0  0
  3  1  1  0  0  0  0
  4  1  1  0  0  0  0
  6 10  1  0  0  0  0
  7  2  1  0  0  0  0
  9  6  1  0  0  0  0
 11  6  1  0  0  0  0
 13  9  1  0  0  0  0
M  RAD  3   9   3  12   2  14   2
M  END
$$$$
