14
butane_opt
C  -3.911545   0.254698   0.181735
C  -2.734326  -0.536044  -0.163388
H  -5.014965  -0.552354   0.312211
H  -3.865638   0.731632  -0.662813
H  -3.606217   0.826041   1.015113
C  -1.441385   0.231433  -0.095274
H  -2.961257  -1.435945  -1.341154
H  -2.450913  -1.101512   0.692731
C  -0.189620  -0.759366   0.191003
H  -1.520994   0.578549   0.522450
H  -1.059319   1.052609  -1.101798
H   0.029410  -1.555966   1.131473
H   0.857616  -0.210513   0.070840
H  -0.097857  -1.087806  -0.541153
