butane_opt
 OpenBabel08242015393D

 14  9  0  0  0  0  0  0  0  0999 V2000
   -4.0000    0.2778    0.0067 C   0  0  0  0  0  1  0  0  0  0  0  0
   -2.7713   -0.6020   -0.0749 C   0  0  0  0  0  0  0  0  0  0  0  0
   -5.0423   -0.4782    0.9468 H   0  0  0  0  0  0  0  0  0  0  0  0
   -4.1675    1.4160   -1.0958 H   0  0  0  0  0  0  0  0  0  0  0  0
   -3.5984    0.3023    0.5496 H   0  0  0  0  0  0  0  0  0  0  0  0
   -1.3827    0.2218    0.0758 C   0  0  0  0  0  0  0  0  0  0  0  0
   -2.4873   -1.1168   -0.8686 H   0  0  0  0  0  0  0  0  0  0  0  0
   -2.6886   -1.4286    0.9616 H   0  0  0  0  0  0  0  0  0  0  0  0
   -0.1275   -0.7251    0.0319 C   0  0  0  0  0  0  0  0  0  0  0  0
   -1.4306    0.9767    1.0784 H   0  0  0  0  0  0  0  0  0  0  0  0
   -1.2247    0.5976   -0.6549 H   0  0  0  0  0  0  0  0  0  0  0  0
   -0.0028   -1.1474    0.8120 H   0  0  0  0  0  0  0  0  0  0  0  0
    0.9059   -0.1732    0.0492 H   0  0  0  0  0  0  0  0  0  0  0  0
    0.0778   -1.4637   -0.8850 H   0  0  0  0  0  0  0  0  0  0  0  0
  1  5  1  0  0  0  0
  2  8  1  0  0  0  0
  6 10  1  0  0  0  0
  7  2  1  0  0  0  0
  9 13  1  0  0  0  0
  9  6  1  0  0  0  0
  9 12  1  0  0  0  0
 11  6  1  0  0  0  0
 14  9  1  0  0  0  0
M  RAD  4   2   3   3   2   4   2   6   2
M  END
$$$$
