butane_opt
 OpenBabel08242015393D

 14 12  0  0  0  0  0  0  0  0999 V2000
   -3.9553    0.3095    0.2308 C   0  0  0  0  0  0  0  0  0  0  0  0
   -2.6433   -0.6371   -0.1454 C   0  0  0  0  0  0  0  0  0  0  0  0
   -5.0003   -0.3756    0.1765 H   0  0  0  0  0  0  0  0  0  0  0  0
   -4.1346    0.6348   -0.3193 H   0  0  0  0  0  0  0  0  0  0  0  0
   -3.9148    1.0338    1.1194 H   0  0  0  0  0  0  0  0  0  0  0  0
   -1.3659    0.1553   -0.2895 C   0  0  0  0  0  0  0  0  0  0  0  0
   -2.6831   -1.3690   -0.9492 H   0  0  0  0  0  0  0  0  0  0  0  0
   -2.3428   -1.2166    0.7771 H   0  0  0  0  0  0  0  0  0  0  0  0
   -0.2286   -0.6723    0.2030 C   0  0  0  0  0  0  0  0  0  0  0  0
   -1.4193    0.5391    0.4455 H   0  0  0  0  0  0  0  0  0  0  0  0
   -1.5726    0.8847   -1.2720 H   0  0  0  0  0  0  0  0  0  0  0  0
   -0.8688   -1.0756    1.0923 H   0  0  0  0  0  0  0  0  0  0  0  0
    0.8776    0.0210    1.1047 H   0  0  0  0  0  0  0  0  0  0  0  0
    0.3484   -1.4269   -0.6982 H   0  0  0  0  0  0  0  0  0  0  0  0
  1  5  1  0  0  0  0
  2  1  1  0  0  0  0
  2  8  1  0  0  0  0
  3  1  1  0  0  0  0
  4  1  1  0  0  0  0
  6  2  1  0  0  0  0
  6  9  1  0  0  0  0
  6 10  1  0  0  0  0
  7  2  1  0  0  0  0
  9 12  1  0  0  0  0
 11  6  1  0  0  0  0
 14  9  1  0  0  0  0
M  RAD  2   9   2  13   2
M  END
$$$$
