14
butane_opt
C  -4.000017   0.228273   0.158325
C  -2.707314  -0.575223  -0.127593
H  -5.108836  -0.449849  -0.162176
H  -3.877895   0.608867  -0.735799
H  -4.006602   1.021627   1.084394
C  -1.417744   0.271715  -0.035213
H  -2.947755  -1.605236  -1.210937
H  -2.473801  -0.943124   0.471873
C  -0.069910  -0.748725   0.174122
H  -1.283213   0.917778   0.747084
H  -1.368709   0.833678  -1.008162
H   0.149037  -1.956492   1.429077
H   0.691112  -0.410810  -0.983974
H  -0.390568  -0.607748  -0.148827
