14
butane_opt
C  -3.980168   0.328955  -0.121448
C  -2.720578  -0.720852   0.148988
H  -4.856087  -0.290646   0.298359
H  -4.140170   1.441190  -1.541525
H  -4.117929   0.465616   0.407602
C  -1.374972   0.185173   0.229834
H  -2.705136  -1.216714  -0.585859
H  -2.936342  -1.447429   1.085348
C  -0.107049  -0.663465  -0.082010
H  -1.151795   1.023996   1.280175
H  -1.366391   0.889488  -0.615454
H   0.062390  -0.995127   0.543557
H   0.741405  -0.100388  -0.312951
H  -0.365066  -1.794394  -1.326478
