butane_opt
 OpenBabel08242015393D

 14 11  0  0  0  0  0  0  0  0999 V2000
   -3.9552    0.3038   -0.1520 C   0  0  0  0  0  0  0  0  0  0  0  0
   -2.6531   -0.6482    0.2501 C   0  0  0  0  0  0  0  0  0  0  0  0
   -4.8494   -0.2378   -0.3033 H   0  0  0  0  0  0  0  0  0  0  0  0
   -3.6320    1.3671   -1.2993 H   0  0  0  0  0  0  0  0  0  0  0  0
   -4.2410    0.7248    0.3953 H   0  0  0  0  0  0  0  0  0  0  0  0
   -1.3970    0.0763    0.2643 C   0  0  0  0  0  0  0  0  0  0  0  0
   -2.3960   -1.3176   -0.6493 H   0  0  0  0  0  0  0  0  0  0  0  0
   -2.8347   -0.9812    0.8963 H   0  0  0  0  0  0  0  0  0  0  0  0
   -0.2448   -0.6553   -0.1481 C   0  0  0  0  0  0  0  0  0  0  0  0
   -1.0530    0.9876    1.3303 H   0  0  0  0  0  0  0  0  0  0  0  0
   -1.3989    0.3866   -0.4569 H   0  0  0  0  0  0  0  0  0  0  0  0
    0.3171   -1.5168    0.7238 H   0  0  0  0  0  0  0  0  0  0  0  0
    0.9033    0.1933   -0.8153 H   0  0  0  0  0  0  0  0  0  0  0  0
   -0.8729   -0.9586   -0.9304 H   0  0  0  0  0  0  0  0  0  0  0  0
  1  2  1  0  0  0  0
  1  5  1  0  0  0  0
  2  6  1  0  0  0  0
  2  8  1  0  0  0  0
  3  1  1  0  0  0  0
  6 10  1  0  0  0  0
  7  2  1  0  0  0  0
  9  6  1  0  0  0  0
  9 12  1  0  0  0  0
 11  6  1  0  0  0  0
 14  9  1  0  0  0  0
M  RAD  4   1   2   4   2   9   2  13   2
M  END
$$$$
