14
butane_opt
C  -3.882861   0.208695  -0.064702
C  -2.701621  -0.527339   0.043632
H  -4.846043  -0.424831   0.034336
H  -3.839627   0.831593  -0.921082
H  -3.833626   0.691379   0.798281
C  -1.400430   0.232019   0.182500
H  -2.832347  -1.404436  -0.920095
H  -2.751601  -1.054511   0.869921
C  -0.190367  -0.736523  -0.046213
H  -1.341987   0.940813   1.095324
H  -1.577291   1.037856  -0.633727
H   0.096371  -1.941558   1.160972
H   0.406613  -0.303457  -0.764726
H  -0.360647  -1.001121  -0.642675
