14
butane_opt
C  -4.031060   0.280747   0.136740
C  -2.711178  -0.690962  -0.078267
H  -4.729527  -0.141386   0.751727
H  -4.249928   1.005129  -0.767952
H  -3.954783   0.713647   0.821065
C  -1.357158   0.224618  -0.141139
H  -2.704270  -1.663358  -1.140820
H  -2.393259  -1.027571   0.547185
C  -0.120911  -0.682076   0.182871
H  -1.206919   0.867261   0.475775
H  -1.406188   0.985462  -1.160613
H  -0.472931  -1.158534   1.030956
H   0.605490  -0.125567   0.557148
H   0.146597  -1.542236  -0.860985
