14
butane_opt
C  -3.898251   0.182646   0.081996
C  -2.687099  -0.465886  -0.012611
H  -4.962825  -0.521844  -0.428126
H  -3.860256   0.139462  -0.333716
H  -3.772224   1.167955   1.181682
C  -1.475143   0.237748  -0.114763
H  -2.713430  -1.043690  -0.776324
H  -2.537169  -1.236591   0.952485
C  -0.161346  -0.738761   0.111841
H  -1.658004   0.876512   0.761200
H  -1.071276   0.813090  -1.181634
H  -0.137004  -1.551456   1.133702
H   0.583169  -0.348793  -0.097881
H  -0.180560  -1.404366  -0.557024
