butane_opt
 OpenBabel08242015393D

 14 11  0  0  0  0  0  0  0  0999 V2000
   -3.8704    0.2440   -0.1830 C   0  0  0  0  0  0  0  0  0  0  0  0
   -2.6934   -0.6367    0.2577 C   0  0  0  0  0  0  0  0  0  0  0  0
   -4.9673   -0.4897   -0.2614 H   0  0  0  0  0  0  0  0  0  0  0  0
   -3.7621    1.2740   -1.3005 H   0  0  0  0  0  0  0  0  0  0  0  0
   -4.2766    0.8136    0.5528 H   0  0  0  0  0  0  0  0  0  0  0  0
   -1.4409    0.2230    0.2835 C   0  0  0  0  0  0  0  0  0  0  0  0
   -2.4242   -1.5656   -0.7084 H   0  0  0  0  0  0  0  0  0  0  0  0
   -3.0663   -1.0866    1.0177 H   0  0  0  0  0  0  0  0  0  0  0  0
   -0.1689   -0.6999   -0.1898 C   0  0  0  0  0  0  0  0  0  0  0  0
   -1.2581    1.1048    1.3690 H   0  0  0  0  0  0  0  0  0  0  0  0
   -1.8300    0.7807   -0.4214 H   0  0  0  0  0  0  0  0  0  0  0  0
    0.4489   -1.6943    0.8966 H   0  0  0  0  0  0  0  0  0  0  0  0
    0.8065   -0.2220   -0.7446 H   0  0  0  0  0  0  0  0  0  0  0  0
   -0.5926   -0.9497   -0.9244 H   0  0  0  0  0  0  0  0  0  0  0  0
  1  2  1  0  0  0  0
  1  5  1  0  0  0  0
  2  6  1  0  0  0  0
  2  8  1  0  0  0  0
  3  1  1  0  0  0  0
  6 10  1  0  0  0  0
  7  2  1  0  0  0  0
  9  6  1  0  0  0  0
 11  6  1  0  0  0  0
 13  9  1  0  0  0  0
 14  9  1  0  0  0  0
M  RAD  4   1   2   4   2   9   2  12   2
M  END
$$$$
