butane_opt
 OpenBabel08242015393D

 14 10  0  0  0  0  0  0  0  0999 V2000
   -3.9992    0.2236    0.1572 C   0  0  0  0  0  0  0  0  0  0  0  0
   -2.7405   -0.5131   -0.0533 C   0  0  0  0  0  0  0  0  0  0  0  0
   -4.9189   -0.2765   -0.3215 H   0  0  0  0  0  0  0  0  0  0  0  0
   -3.7395    0.4137   -0.6025 H   0  0  0  0  0  0  0  0  0  0  0  0
   -4.0426    1.2834    1.2999 H   0  0  0  0  0  0  0  0  0  0  0  0
   -1.3443    0.1827   -0.1785 C   0  0  0  0  0  0  0  0  0  0  0  0
   -2.7881   -1.5365   -1.0603 H   0  0  0  0  0  0  0  0  0  0  0  0
   -2.6395   -1.1521    0.8905 H   0  0  0  0  0  0  0  0  0  0  0  0
   -0.1478   -0.7349    0.1641 C   0  0  0  0  0  0  0  0  0  0  0  0
   -1.4546    0.9388    0.6318 H   0  0  0  0  0  0  0  0  0  0  0  0
   -1.1544    0.7873   -1.0266 H   0  0  0  0  0  0  0  0  0  0  0  0
    0.0081   -1.7127    1.2329 H   0  0  0  0  0  0  0  0  0  0  0  0
    0.6409   -0.1292   -0.0585 H   0  0  0  0  0  0  0  0  0  0  0  0
   -0.1295   -0.9964   -0.5343 H   0  0  0  0  0  0  0  0  0  0  0  0
  2  8  1  0  0  0  0
  3  1  1  0  0  0  0
  4  1  1  0  0  0  0
  6  9  1  0  0  0  0
  6 10  1  0  0  0  0
  7  2  1  0  0  0  0
  9 12  1  0  0  0  0
 11  6  1  0  0  0  0
 13  9  1  0  0  0  0
 14  9  1  0  0  0  0
M  RAD  4   1   3   2   3   5   2   6   2
M  END
$$$$
