14
butane_opt
C  -3.910326   0.293230  -0.092827
C  -2.667027  -0.558736   0.151169
H  -5.023182  -0.551295   0.477102
H  -4.174742   1.243783  -1.228689
H  -3.574338  -0.017353   0.334154
C  -1.409737   0.214334   0.135869
H  -2.569528  -1.193935  -0.736882
H  -2.757446  -1.179221   0.967496
C  -0.212249  -0.735791  -0.042821
H  -1.513076   0.827512   1.045182
H  -1.177578   0.698701  -0.774264
H  -0.155557  -0.810363   0.483652
H   0.731041  -0.088496   0.222554
H  -0.394935  -1.964720  -1.315739
