14
butane_opt
C  -4.000870   0.222168   0.221034
C  -2.740327  -0.526285  -0.086126
H  -5.022439  -0.559439  -0.013368
H  -4.091933   0.689488  -0.685538
H  -3.760577   0.960996   1.283024
C  -1.394587   0.218807  -0.250609
H  -3.040732  -1.557037  -1.195477
H  -2.565747  -1.055999   0.703373
C  -0.082608  -0.707456   0.230960
H  -1.455954   0.684378   0.387255
H  -1.642503   1.047933  -1.424088
H  -0.248102  -1.255818   1.051657
H   0.720153  -0.244547   0.704994
H   0.686922  -1.664934  -0.758802
