butane_opt
 OpenBabel08242015393D

 14 13  0  0  0  0  0  0  0  0999 V2000
   -3.9692    0.1948   -0.1028 C   0  0  0  0  0  0  0  0  0  0  0  0
   -2.7454   -0.5278    0.2333 C   0  0  0  0  0  0  0  0  0  0  0  0
   -4.8802   -0.4502   -0.4029 H   0  0  0  0  0  0  0  0  0  0  0  0
   -3.7512    0.6220   -1.0883 H   0  0  0  0  0  0  0  0  0  0  0  0
   -4.2336    0.8976    0.7817 H   0  0  0  0  0  0  0  0  0  0  0  0
   -1.4655    0.2688    0.0960 C   0  0  0  0  0  0  0  0  0  0  0  0
   -2.7260   -0.8438   -0.4753 H   0  0  0  0  0  0  0  0  0  0  0  0
   -2.8531   -1.3790    1.2473 H   0  0  0  0  0  0  0  0  0  0  0  0
   -0.0378   -0.7347   -0.1382 C   0  0  0  0  0  0  0  0  0  0  0  0
   -1.1659    0.9167    1.0422 H   0  0  0  0  0  0  0  0  0  0  0  0
   -1.5543    0.6118   -0.6136 H   0  0  0  0  0  0  0  0  0  0  0  0
   -0.1262   -1.3271    0.7776 H   0  0  0  0  0  0  0  0  0  0  0  0
    0.7975   -0.2391    0.3213 H   0  0  0  0  0  0  0  0  0  0  0  0
    0.1143   -1.7178   -1.2060 H   0  0  0  0  0  0  0  0  0  0  0  0
  1  2  1  0  0  0  0
  1  5  1  0  0  0  0
  2  8  1  0  0  0  0
  3  1  1  0  0  0  0
  4  1  1  0  0  0  0
  6  2  1  0  0  0  0
  6 10  1  0  0  0  0
  7  2  1  0  0  0  0
  9  6  1  0  0  0  0
  9 13  1  0  0  0  0
  9 12  1  0  0  0  0
 11  6  1  0  0  0  0
 14  9  1  0  0  0  0
M  END
$$$$
