butane_opt
 OpenBabel08242015393D

 14 10  0  0  0  0  0  0  0  0999 V2000
   -4.0110    0.3063    0.0402 C   0  0  0  0  0  0  0  0  0  0  0  0
   -2.7480   -0.6443    0.0761 C   0  0  0  0  0  0  0  0  0  0  0  0
   -4.9879   -0.4170   -0.5247 H   0  0  0  0  0  0  0  0  0  0  0  0
   -3.7058    0.2980   -0.5324 H   0  0  0  0  0  0  0  0  0  0  0  0
   -4.3516    1.3141    1.2761 H   0  0  0  0  0  0  0  0  0  0  0  0
   -1.3762    0.1951   -0.0935 C   0  0  0  0  0  0  0  0  0  0  0  0
   -2.3979   -1.3702   -0.7753 H   0  0  0  0  0  0  0  0  0  0  0  0
   -2.6979   -1.1798    0.9237 H   0  0  0  0  0  0  0  0  0  0  0  0
   -0.1093   -0.6758    0.0588 C   0  0  0  0  0  0  0  0  0  0  0  0
   -1.2066    0.8566    0.8004 H   0  0  0  0  0  0  0  0  0  0  0  0
   -1.4229    0.8177   -0.8406 H   0  0  0  0  0  0  0  0  0  0  0  0
   -0.2029   -1.6942    1.1812 H   0  0  0  0  0  0  0  0  0  0  0  0
    0.8197   -0.0845   -0.2327 H   0  0  0  0  0  0  0  0  0  0  0  0
    0.0645   -1.2065   -0.7256 H   0  0  0  0  0  0  0  0  0  0  0  0
  2  8  1  0  0  0  0
  3  1  1  0  0  0  0
  4  1  1  0  0  0  0
  6  9  1  0  0  0  0
  6 10  1  0  0  0  0
  7  2  1  0  0  0  0
  9 12  1  0  0  0  0
 11  6  1  0  0  0  0
 13  9  1  0  0  0  0
 14  9  1  0  0  0  0
M  RAD  4   1   3   2   3   5   2   6   2
M  END
$$$$
