14
butane_opt
C  -3.934972   0.258766  -0.007445
C  -2.701734  -0.599794   0.069556
H  -4.857427  -0.360916  -0.017741
H  -3.879138   0.812483  -0.876403
H  -3.990924   0.930972   0.860487
C  -1.409221   0.192068   0.025894
H  -2.721997  -1.240269  -0.763578
H  -2.711310  -1.282678   1.011272
C  -0.166809  -0.706103   0.002336
H  -1.374930   0.897829   0.908446
H  -1.465137   0.811405  -0.845434
H  -0.159014  -1.306483   0.900648
H   0.769388  -0.083385   0.059908
H  -0.083590  -1.392727  -0.879156
