14
butane_opt
C  -3.907695   0.206000   0.034463
C  -2.760370  -0.501941  -0.062405
H  -5.123256  -0.687517   0.058660
H  -3.828079   0.613505  -0.733414
H  -3.983136   1.132756   1.073465
C  -1.401322   0.270269   0.073518
H  -2.639328  -1.482719  -1.194775
H  -2.676100  -1.057588   0.840348
C  -0.142305  -0.782005   0.059791
H  -1.287932   0.697463   0.894270
H  -1.549669   1.122165  -0.885812
H   0.239584  -1.999149   1.416619
H   0.909846  -0.249877  -0.745980
H  -0.470533  -0.885106  -0.429797
