butane_opt
 OpenBabel08242015393D

 14 13  0  0  0  0  0  0  0  0999 V2000
   -3.9198    0.2547   -0.0047 C   0  0  0  0  0  0  0  0  0  0  0  0
   -2.7024   -0.6080    0.0627 C   0  0  0  0  0  0  0  0  0  0  0  0
   -4.8647   -0.3695   -0.0345 H   0  0  0  0  0  0  0  0  0  0  0  0
   -3.9018    0.9016   -0.9131 H   0  0  0  0  0  0  0  0  0  0  0  0
   -3.9918    0.9344    0.8308 H   0  0  0  0  0  0  0  0  0  0  0  0
   -1.4172    0.2022    0.0503 C   0  0  0  0  0  0  0  0  0  0  0  0
   -2.7433   -1.3044   -0.7963 H   0  0  0  0  0  0  0  0  0  0  0  0
   -2.7616   -1.2310    0.9497 H   0  0  0  0  0  0  0  0  0  0  0  0
   -0.1627   -0.7094    0.0075 C   0  0  0  0  0  0  0  0  0  0  0  0
   -1.3482    0.9006    0.9129 H   0  0  0  0  0  0  0  0  0  0  0  0
   -1.4524    0.8355   -0.8529 H   0  0  0  0  0  0  0  0  0  0  0  0
   -0.1091   -1.3683    0.9191 H   0  0  0  0  0  0  0  0  0  0  0  0
    0.7596   -0.1188   -0.1233 H   0  0  0  0  0  0  0  0  0  0  0  0
   -0.1786   -1.3293   -0.8379 H   0  0  0  0  0  0  0  0  0  0  0  0
  1  2  1  0  0  0  0
  1  5  1  0  0  0  0
  2  8  1  0  0  0  0
  3  1  1  0  0  0  0
  4  1  1  0  0  0  0
  6  2  1  0  0  0  0
  6 10  1  0  0  0  0
  7  2  1  0  0  0  0
  9  6  1  0  0  0  0
  9 12  1  0  0  0  0
 11  6  1  0  0  0  0
 13  9  1  0  0  0  0
 14  9  1  0  0  0  0
M  END
$$$$
