butane_opt
 OpenBabel08242015393D

 14 11  0  0  0  0  0  0  0  0999 V2000
   -3.8771    0.2190    0.1203 C   0  0  0  0  0  0  0  0  0  0  0  0
   -2.7190   -0.5719   -0.0906 C   0  0  0  0  0  0  0  0  0  0  0  0
   -4.9776   -0.3628   -0.0225 H   0  0  0  0  0  0  0  0  0  0  0  0
   -3.6167    0.6027   -0.7011 H   0  0  0  0  0  0  0  0  0  0  0  0
   -3.7617    1.0389    1.1557 H   0  0  0  0  0  0  0  0  0  0  0  0
   -1.4539    0.2847   -0.0487 C   0  0  0  0  0  0  0  0  0  0  0  0
   -2.8744   -1.4068   -1.1361 H   0  0  0  0  0  0  0  0  0  0  0  0
   -2.6228   -1.1418    0.7243 H   0  0  0  0  0  0  0  0  0  0  0  0
   -0.1982   -0.7756    0.1126 C   0  0  0  0  0  0  0  0  0  0  0  0
   -1.5118    1.0972    0.7353 H   0  0  0  0  0  0  0  0  0  0  0  0
   -1.0617    0.8002   -0.9008 H   0  0  0  0  0  0  0  0  0  0  0  0
    0.1267   -1.9595    1.3027 H   0  0  0  0  0  0  0  0  0  0  0  0
    0.5695   -0.3307   -0.4183 H   0  0  0  0  0  0  0  0  0  0  0  0
   -0.2779   -0.7083   -0.3362 H   0  0  0  0  0  0  0  0  0  0  0  0
  1  5  1  0  0  0  0
  2  6  1  0  0  0  0
  2  1  1  0  0  0  0
  2  8  1  0  0  0  0
  3  1  1  0  0  0  0
  4  1  1  0  0  0  0
  6  9  1  0  0  0  0
  6 10  1  0  0  0  0
  7  2  1  0  0  0  0
 11  6  1  0  0  0  0
 13  9  1  0  0  0  0
M  RAD  3   9   3  12   2  14   2
M  END
$$$$
