butane_opt
 OpenBabel08242015393D

 14 13  0  0  0  0  0  0  0  0999 V2000
   -3.9806    0.1929   -0.1503 C   0  0  0  0  0  0  0  0  0  0  0  0
   -2.7427   -0.5556    0.3211 C   0  0  0  0  0  0  0  0  0  0  0  0
   -4.9038   -0.4758   -0.7997 H   0  0  0  0  0  0  0  0  0  0  0  0
   -3.3864    0.6059   -1.1428 H   0  0  0  0  0  0  0  0  0  0  0  0
   -4.5612    0.9103    0.7448 H   0  0  0  0  0  0  0  0  0  0  0  0
   -1.4189    0.2825    0.1719 C   0  0  0  0  0  0  0  0  0  0  0  0
   -2.7106   -1.0191   -0.3267 H   0  0  0  0  0  0  0  0  0  0  0  0
   -2.6086   -1.2609    1.1983 H   0  0  0  0  0  0  0  0  0  0  0  0
   -0.1304   -0.7472   -0.2003 C   0  0  0  0  0  0  0  0  0  0  0  0
   -1.2660    0.9391    1.0752 H   0  0  0  0  0  0  0  0  0  0  0  0
   -1.4772    0.9880   -0.5901 H   0  0  0  0  0  0  0  0  0  0  0  0
    0.4581   -1.2919    0.6043 H   0  0  0  0  0  0  0  0  0  0  0  0
    0.6494   -0.2678    0.0859 H   0  0  0  0  0  0  0  0  0  0  0  0
    0.0643   -1.7082   -1.1293 H   0  0  0  0  0  0  0  0  0  0  0  0
  1  2  1  0  0  0  0
  1  5  1  0  0  0  0
  2  8  1  0  0  0  0
  3  1  1  0  0  0  0
  4  1  1  0  0  0  0
  6  2  1  0  0  0  0
  6 10  1  0  0  0  0
  7  2  1  0  0  0  0
  9 13  1  0  0  0  0
  9  6  1  0  0  0  0
  9 12  1  0  0  0  0
 11  6  1  0  0  0  0
 14  9  1  0  0  0  0
M  END
$$$$
