butane_opt
 OpenBabel08242015393D

 14 12  0  0  0  0  0  0  0  0999 V2000
   -3.9259    0.1821    0.0665 C   0  0  0  0  0  0  0  0  0  0  0  0
   -2.6858   -0.6020   -0.0999 C   0  0  0  0  0  0  0  0  0  0  0  0
   -4.7759   -0.2926    0.7943 H   0  0  0  0  0  0  0  0  0  0  0  0
   -4.5925    1.2322   -1.0295 H   0  0  0  0  0  0  0  0  0  0  0  0
   -3.5705    0.8557    0.7546 H   0  0  0  0  0  0  0  0  0  0  0  0
   -1.4429    0.2514   -0.0172 C   0  0  0  0  0  0  0  0  0  0  0  0
   -2.7718   -1.3379   -1.0197 H   0  0  0  0  0  0  0  0  0  0  0  0
   -2.8383   -1.1730    0.8977 H   0  0  0  0  0  0  0  0  0  0  0  0
   -0.1476   -0.7505    0.0855 C   0  0  0  0  0  0  0  0  0  0  0  0
   -1.5795    1.1596    0.9745 H   0  0  0  0  0  0  0  0  0  0  0  0
   -1.2209    0.8031   -0.9264 H   0  0  0  0  0  0  0  0  0  0  0  0
    0.0141   -1.3936    1.0046 H   0  0  0  0  0  0  0  0  0  0  0  0
    0.7919   -0.1148    0.1423 H   0  0  0  0  0  0  0  0  0  0  0  0
   -0.0183   -1.1830   -0.5832 H   0  0  0  0  0  0  0  0  0  0  0  0
  1  5  1  0  0  0  0
  1  3  1  0  0  0  0
  2  6  1  0  0  0  0
  2  1  1  0  0  0  0
  2  8  1  0  0  0  0
  6  9  1  0  0  0  0
  6 10  1  0  0  0  0
  7  2  1  0  0  0  0
  9 13  1  0  0  0  0
  9 12  1  0  0  0  0
 11  6  1  0  0  0  0
 14  9  1  0  0  0  0
M  RAD  2   1   2   4   2
M  END
$$$$
