14
butane_opt
C  -4.000328   0.271819   0.191985
C  -2.776005  -0.567883  -0.168981
H  -5.038989  -0.601105   0.052301
H  -3.990005   0.641038  -0.607328
H  -3.756635   0.934779   1.137752
C  -1.348747   0.237991  -0.103218
H  -2.771372  -1.515383  -1.119325
H  -2.815094  -1.013054   0.551609
C  -0.116968  -0.731543   0.129710
H  -1.431044   0.950938   0.781949
H  -1.426354   0.813715  -1.074730
H   0.141989  -2.133413   1.611311
H   0.751479  -0.120830  -0.231206
H   0.175762  -0.922619  -0.159902
