butane_opt
 OpenBabel08242015393D

 14 13  0  0  0  0  0  0  0  0999 V2000
   -3.9784    0.2144   -0.1477 C   0  0  0  0  0  0  0  0  0  0  0  0
   -2.7538   -0.5480    0.1210 C   0  0  0  0  0  0  0  0  0  0  0  0
   -4.9292   -0.4248    0.1827 H   0  0  0  0  0  0  0  0  0  0  0  0
   -3.8867    1.0717   -1.1870 H   0  0  0  0  0  0  0  0  0  0  0  0
   -4.1732    0.6552    0.5674 H   0  0  0  0  0  0  0  0  0  0  0  0
   -1.4022    0.2587    0.2717 C   0  0  0  0  0  0  0  0  0  0  0  0
   -2.4604   -1.2197   -0.7364 H   0  0  0  0  0  0  0  0  0  0  0  0
   -2.9775   -1.5137    1.1906 H   0  0  0  0  0  0  0  0  0  0  0  0
   -0.0683   -0.7754   -0.1296 C   0  0  0  0  0  0  0  0  0  0  0  0
   -1.4718    1.0995    1.3180 H   0  0  0  0  0  0  0  0  0  0  0  0
   -1.5100    0.7176   -0.5442 H   0  0  0  0  0  0  0  0  0  0  0  0
    0.4571   -1.4163    0.8134 H   0  0  0  0  0  0  0  0  0  0  0  0
    0.8494   -0.0240   -0.7534 H   0  0  0  0  0  0  0  0  0  0  0  0
   -0.4648   -1.1838   -0.7865 H   0  0  0  0  0  0  0  0  0  0  0  0
  1  2  1  0  0  0  0
  1  3  1  0  0  0  0
  1  5  1  0  0  0  0
  2  6  1  0  0  0  0
  2  8  1  0  0  0  0
  4  1  1  0  0  0  0
  6 10  1  0  0  0  0
  7  2  1  0  0  0  0
  9  6  1  0  0  0  0
  9 12  1  0  0  0  0
 11  6  1  0  0  0  0
 13  9  1  0  0  0  0
 14  9  1  0  0  0  0
M  END
$$$$
