butane_opt
 OpenBabel08242015393D

 14 12  0  0  0  0  0  0  0  0999 V2000
   -3.8056    0.2552   -0.1027 C   0  0  0  0  0  0  0  0  0  0  0  0
   -2.7114   -0.6111    0.2131 C   0  0  0  0  0  0  0  0  0  0  0  0
   -4.9101   -0.3960   -0.4632 H   0  0  0  0  0  0  0  0  0  0  0  0
   -3.3836    0.8724   -1.0803 H   0  0  0  0  0  0  0  0  0  0  0  0
   -4.3448    0.9747    0.6454 H   0  0  0  0  0  0  0  0  0  0  0  0
   -1.4473    0.2156    0.1351 C   0  0  0  0  0  0  0  0  0  0  0  0
   -2.7191   -1.0687   -0.5678 H   0  0  0  0  0  0  0  0  0  0  0  0
   -3.0524   -1.5447    1.4043 H   0  0  0  0  0  0  0  0  0  0  0  0
   -0.2000   -0.7339   -0.1316 C   0  0  0  0  0  0  0  0  0  0  0  0
   -1.4181    1.1996    1.2704 H   0  0  0  0  0  0  0  0  0  0  0  0
   -1.5853    0.6986   -0.5443 H   0  0  0  0  0  0  0  0  0  0  0  0
   -0.0336   -1.1908    0.6082 H   0  0  0  0  0  0  0  0  0  0  0  0
    0.6318   -0.1137   -0.3105 H   0  0  0  0  0  0  0  0  0  0  0  0
   -0.2210   -1.4432   -0.9033 H   0  0  0  0  0  0  0  0  0  0  0  0
  1  2  1  0  0  0  0
  1  5  1  0  0  0  0
  3  1  1  0  0  0  0
  4  1  1  0  0  0  0
  6  2  1  0  0  0  0
  6 10  1  0  0  0  0
  7  2  1  0  0  0  0
  9  6  1  0  0  0  0
  9 12  1  0  0  0  0
 11  6  1  0  0  0  0
 13  9  1  0  0  0  0
 14  9  1  0  0  0  0
M  RAD  2   2   2   8   2
M  END
$$$$
