butane_opt
 OpenBabel08242015393D

 14 12  0  0  0  0  0  0  0  0999 V2000
   -3.8726    0.1861    0.2063 C   0  0  0  0  0  0  0  0  0  0  0  0
   -2.7084   -0.5351   -0.1809 C   0  0  0  0  0  0  0  0  0  0  0  0
   -4.8428   -0.5631    0.5770 H   0  0  0  0  0  0  0  0  0  0  0  0
   -3.9783    1.4328   -1.1414 H   0  0  0  0  0  0  0  0  0  0  0  0
   -3.3992    0.4532    0.9783 H   0  0  0  0  0  0  0  0  0  0  0  0
   -1.4717    0.2549   -0.1233 C   0  0  0  0  0  0  0  0  0  0  0  0
   -2.7988   -1.5116   -1.2696 H   0  0  0  0  0  0  0  0  0  0  0  0
   -2.4624   -1.0713    0.6155 H   0  0  0  0  0  0  0  0  0  0  0  0
   -0.2094   -0.7184    0.1699 C   0  0  0  0  0  0  0  0  0  0  0  0
   -1.6933    1.0110    0.9112 H   0  0  0  0  0  0  0  0  0  0  0  0
   -1.3015    0.7861   -0.9467 H   0  0  0  0  0  0  0  0  0  0  0  0
   -0.1393   -1.5626    1.2923 H   0  0  0  0  0  0  0  0  0  0  0  0
    0.5564   -0.3549    0.0965 H   0  0  0  0  0  0  0  0  0  0  0  0
    0.1854   -1.3208   -0.6109 H   0  0  0  0  0  0  0  0  0  0  0  0
  1  3  1  0  0  0  0
  1  5  1  0  0  0  0
  2  6  1  0  0  0  0
  2  1  1  0  0  0  0
  2  8  1  0  0  0  0
  6  9  1  0  0  0  0
  6 10  1  0  0  0  0
  7  2  1  0  0  0  0
  9 12  1  0  0  0  0
 11  6  1  0  0  0  0
 13  9  1  0  0  0  0
 14  9  1  0  0  0  0
M  RAD  2   1   2   4   2
M  END
$$$$
