butane_opt
 OpenBabel08242015393D

 14  8  0  0  0  0  0  0  0  0999 V2000
   -4.0054    0.2638    0.1695 C   0  0  0  0  0  1  0  0  0  0  0  0
   -2.7282   -0.6254   -0.0747 C   0  0  0  0  0  0  0  0  0  0  0  0
   -4.8416   -0.2998   -0.6130 H   0  0  0  0  0  0  0  0  0  0  0  0
   -3.6994    0.0558   -0.2448 H   0  0  0  0  0  0  0  0  0  0  0  0
   -3.9356    1.6422    1.5871 H   0  0  0  0  0  0  0  0  0  0  0  0
   -1.4109    0.2414   -0.1967 C   0  0  0  0  0  0  0  0  0  0  0  0
   -2.4469   -1.3675   -1.0572 H   0  0  0  0  0  0  0  0  0  0  0  0
   -2.7700   -1.5744    0.9742 H   0  0  0  0  0  0  0  0  0  0  0  0
   -0.1213   -0.7000    0.1396 C   0  0  0  0  0  0  0  0  0  0  0  0
   -1.4689    0.7396    0.5216 H   0  0  0  0  0  0  0  0  0  0  0  0
   -1.3139    1.0197   -1.1888 H   0  0  0  0  0  0  0  0  0  0  0  0
   -0.0306   -1.6540    1.3462 H   0  0  0  0  0  0  0  0  0  0  0  0
    0.5700   -0.2063    0.1605 H   0  0  0  0  0  0  0  0  0  0  0  0
    0.0858   -0.9820   -0.3454 H   0  0  0  0  0  0  0  0  0  0  0  0
  2  8  1  0  0  0  0
  3  1  1  0  0  0  0
  4  2  1  0  0  0  0
  6  9  1  0  0  0  0
  6 10  1  0  0  0  0
  7  2  1  0  0  0  0
  9 13  1  0  0  0  0
 11  6  1  0  0  0  0
M  RAD  6   2   2   5   2   6   2   9   3  12   2  14   2
M  END
$$$$
