14
butane_opt
C  -3.805619   0.255249  -0.102693
C  -2.711378  -0.611109   0.213077
H  -4.910140  -0.395962  -0.463210
H  -3.383617   0.872391  -1.080260
H  -4.344818   0.974654   0.645395
C  -1.447268   0.215551   0.135079
H  -2.719086  -1.068698  -0.567834
H  -3.052401  -1.544665   1.404316
C  -0.199961  -0.733888  -0.131594
H  -1.418059   1.199567   1.270447
H  -1.585276   0.698587  -0.544301
H  -0.033592  -1.190783   0.608214
H   0.631785  -0.113698  -0.310501
H  -0.221030  -1.443193  -0.903329
