14
butane_opt
C  -3.907846   0.322719   0.071657
C  -2.619378  -0.670196  -0.100029
H  -4.846351  -0.259960  -0.099591
H  -4.196079   0.711140  -0.516766
H  -3.999726   1.273442   1.191186
C  -1.390944   0.119051   0.037714
H  -2.640502  -1.553756  -1.228828
H  -2.474340  -1.085322   0.710406
C  -0.293997  -0.651389   0.088482
H  -1.131368   0.459334   0.722959
H  -1.122066   0.907932  -0.938766
H   0.005546  -1.928583   1.486958
H   0.659845   0.043959  -0.622800
H  -0.698112  -0.481653  -0.328670
