butane_opt
 OpenBabel08242015393D

 14 13  0  0  0  0  0  0  0  0999 V2000
   -3.9681    0.2118    0.1964 C   0  0  0  0  0  0  0  0  0  0  0  0
   -2.7414   -0.5277   -0.0921 C   0  0  0  0  0  0  0  0  0  0  0  0
   -5.1777   -0.5511    0.2282 H   0  0  0  0  0  0  0  0  0  0  0  0
   -4.1520    0.5482   -0.5438 H   0  0  0  0  0  0  0  0  0  0  0  0
   -3.7500    1.1245    1.1434 H   0  0  0  0  0  0  0  0  0  0  0  0
   -1.3990    0.2926   -0.2492 C   0  0  0  0  0  0  0  0  0  0  0  0
   -3.0419   -1.3730   -1.1420 H   0  0  0  0  0  0  0  0  0  0  0  0
   -2.5653   -1.0018    0.6508 H   0  0  0  0  0  0  0  0  0  0  0  0
   -0.1036   -0.7844    0.1975 C   0  0  0  0  0  0  0  0  0  0  0  0
   -1.2900    0.7192    0.2436 H   0  0  0  0  0  0  0  0  0  0  0  0
   -1.2267    0.8317   -1.1169 H   0  0  0  0  0  0  0  0  0  0  0  0
   -0.3036   -1.4325    1.1473 H   0  0  0  0  0  0  0  0  0  0  0  0
    0.7895   -0.2019    0.7933 H   0  0  0  0  0  0  0  0  0  0  0  0
    0.3086   -1.4940   -0.5403 H   0  0  0  0  0  0  0  0  0  0  0  0
  1  3  1  0  0  0  0
  1  5  1  0  0  0  0
  2  1  1  0  0  0  0
  2  8  1  0  0  0  0
  4  1  1  0  0  0  0
  6  2  1  0  0  0  0
  6  9  1  0  0  0  0
  6 10  1  0  0  0  0
  7  2  1  0  0  0  0
  9 13  1  0  0  0  0
  9 12  1  0  0  0  0
 11  6  1  0  0  0  0
 14  9  1  0  0  0  0
M  END
$$$$
