14
butane_opt
C  -4.022940   0.316458   0.126146
C  -2.659441  -0.736737  -0.112566
H  -4.572886   0.002776  -0.098494
H  -4.316868   0.832396  -0.810173
H  -3.889255   1.253210   1.139498
C  -1.366377   0.153046  -0.042668
H  -2.855647  -1.697981  -1.122602
H  -2.731470  -1.202028   0.655668
C  -0.141841  -0.645967   0.131596
H  -1.120685   0.970810   0.884671
H  -1.531965   0.798831  -0.916141
H  -0.132759  -1.844757   1.336711
H   0.776341   0.004028  -0.647565
H  -0.389530  -0.548872  -0.126520
