14
butane_opt
C  -3.842700   0.231797   0.116753
C  -2.780672  -0.581705  -0.049919
H  -4.772201  -0.569149  -0.064597
H  -3.722168   0.428457  -0.495853
H  -3.931239   1.283127   1.185668
C  -1.427228   0.250456  -0.141674
H  -3.016490  -1.337552  -0.887185
H  -2.628186  -1.080306   0.811780
C  -0.149263  -0.765504   0.107011
H  -1.505129   0.975906   0.662661
H  -1.572987   1.198677  -1.093235
H  -0.305150  -1.513345   1.194571
H   0.651294  -0.297372   0.262910
H   0.201144  -1.232412  -0.461876
