14
butane_opt
C  -3.938010   0.301282  -0.138706
C  -2.638685  -0.593717   0.169853
H  -4.884821  -0.254740   0.690202
H  -4.187899   1.336080  -1.320996
H  -3.815121   0.181985   0.345886
C  -1.385064   0.086436   0.157323
H  -2.402225  -1.357751  -0.703111
H  -2.669080  -1.201750   1.132978
C  -0.219333  -0.621216  -0.077462
H  -1.453451   0.859493   1.180892
H  -1.445278   0.673632  -0.655570
H  -0.440131  -0.819969   0.474820
H   0.753469  -0.081649   0.181333
H  -0.304603  -1.868705  -1.344883
