butane_opt
 OpenBabel08242015393D

 14 13  0  0  0  0  0  0  0  0999 V2000
   -3.9200    0.3278   -0.1424 C   0  0  0  0  0  0  0  0  0  0  0  0
   -2.6829   -0.6872    0.2303 C   0  0  0  0  0  0  0  0  0  0  0  0
   -4.7737   -0.3314   -0.2473 H   0  0  0  0  0  0  0  0  0  0  0  0
   -3.7246    0.9049   -1.1794 H   0  0  0  0  0  0  0  0  0  0  0  0
   -4.3049    1.2642    0.8133 H   0  0  0  0  0  0  0  0  0  0  0  0
   -1.3753    0.1211    0.1603 C   0  0  0  0  0  0  0  0  0  0  0  0
   -2.2739   -1.2607   -0.5458 H   0  0  0  0  0  0  0  0  0  0  0  0
   -2.8000   -1.5445    1.2502 H   0  0  0  0  0  0  0  0  0  0  0  0
   -0.2234   -0.6405   -0.0824 C   0  0  0  0  0  0  0  0  0  0  0  0
   -1.2032    0.8688    1.0937 H   0  0  0  0  0  0  0  0  0  0  0  0
   -1.4470    0.6515   -0.8410 H   0  0  0  0  0  0  0  0  0  0  0  0
   -0.0857   -0.9481    0.6565 H   0  0  0  0  0  0  0  0  0  0  0  0
    0.7378   -0.0268   -0.3244 H   0  0  0  0  0  0  0  0  0  0  0  0
   -0.7196   -1.4834   -1.1948 H   0  0  0  0  0  0  0  0  0  0  0  0
  1  2  1  0  0  0  0
  1  5  1  0  0  0  0
  2  8  1  0  0  0  0
  3  1  1  0  0  0  0
  4  1  1  0  0  0  0
  6  2  1  0  0  0  0
  6 10  1  0  0  0  0
  7  2  1  0  0  0  0
  9  6  1  0  0  0  0
  9 12  1  0  0  0  0
 11  6  1  0  0  0  0
 13  9  1  0  0  0  0
 14  9  1  0  0  0  0
M  END
$$$$
