butane_opt
 OpenBabel08242015393D

 14 13  0  0  0  0  0  0  0  0999 V2000
   -3.9614    0.2565    0.1608 C   0  0  0  0  0  0  0  0  0  0  0  0
   -2.7441   -0.6145   -0.1732 C   0  0  0  0  0  0  0  0  0  0  0  0
   -5.0312   -0.4746    0.5576 H   0  0  0  0  0  0  0  0  0  0  0  0
   -4.3173    1.1312   -0.8234 H   0  0  0  0  0  0  0  0  0  0  0  0
   -3.6882    0.6232    0.9106 H   0  0  0  0  0  0  0  0  0  0  0  0
   -1.3988    0.2233   -0.0836 C   0  0  0  0  0  0  0  0  0  0  0  0
   -2.9253   -1.3854   -0.9796 H   0  0  0  0  0  0  0  0  0  0  0  0
   -2.6060   -1.0593    0.5790 H   0  0  0  0  0  0  0  0  0  0  0  0
   -0.0594   -0.7489    0.1949 C   0  0  0  0  0  0  0  0  0  0  0  0
   -1.7325    0.6659    0.5968 H   0  0  0  0  0  0  0  0  0  0  0  0
   -1.5244    1.0600   -1.0943 H   0  0  0  0  0  0  0  0  0  0  0  0
   -0.1057   -1.0002    0.9969 H   0  0  0  0  0  0  0  0  0  0  0  0
    0.8089   -0.1451    0.1386 H   0  0  0  0  0  0  0  0  0  0  0  0
    0.0738   -1.2966   -0.6905 H   0  0  0  0  0  0  0  0  0  0  0  0
  1  3  1  0  0  0  0
  1  5  1  0  0  0  0
  2  6  1  0  0  0  0
  2  1  1  0  0  0  0
  2  8  1  0  0  0  0
  4  1  1  0  0  0  0
  6  9  1  0  0  0  0
  6 10  1  0  0  0  0
  7  2  1  0  0  0  0
  9 12  1  0  0  0  0
 11  6  1  0  0  0  0
 13  9  1  0  0  0  0
 14  9  1  0  0  0  0
M  END
$$$$
