14
butane_opt
C  -4.002840   0.277173  -0.163801
C  -2.630363  -0.639617   0.130526
H  -4.808365  -0.223910   0.817022
H  -4.137630   1.507369  -1.440613
H  -3.754476   0.501844   0.371798
C  -1.396885   0.085868   0.193728
H  -2.476024  -1.205412  -0.477868
H  -2.507490  -1.201607   0.997977
C  -0.214068  -0.630390  -0.125193
H  -1.112176   1.183187   1.351724
H  -1.550528   0.351765  -0.347762
H  -0.222513  -1.189158   0.819205
H   0.695691   0.125284  -0.084432
H  -0.248983  -1.419708  -1.054242
