14
butane_opt
C  -3.881052   0.254931   0.177483
C  -2.727004  -0.622183   0.001463
H  -4.585986  -0.067697  -0.855069
H  -3.649868   0.389558  -0.521815
H  -4.183846   1.496609   1.389979
C  -1.405403   0.172624  -0.155399
H  -2.917474  -1.386901  -1.031676
H  -2.431513  -1.137160   0.742017
C  -0.226559  -0.682099   0.120082
H  -1.589930   0.494627   0.497748
H  -1.188944   0.904448  -1.257189
H  -0.324204  -1.419468   1.126133
H   0.750820  -0.162892   0.077311
H  -0.042352  -1.020341  -0.410955
