butane_opt
 OpenBabel08242015393D

 14 12  0  0  0  0  0  0  0  0999 V2000
   -3.9864    0.2898   -0.0812 C   0  0  0  0  0  0  0  0  0  0  0  0
   -2.6875   -0.7082    0.1991 C   0  0  0  0  0  0  0  0  0  0  0  0
   -4.9143   -0.2694    0.1280 H   0  0  0  0  0  0  0  0  0  0  0  0
   -4.1162    1.2537   -1.2313 H   0  0  0  0  0  0  0  0  0  0  0  0
   -4.4157    0.6625    0.5786 H   0  0  0  0  0  0  0  0  0  0  0  0
   -1.3472    0.1870    0.1288 C   0  0  0  0  0  0  0  0  0  0  0  0
   -2.4077   -1.3484   -0.5920 H   0  0  0  0  0  0  0  0  0  0  0  0
   -2.9917   -1.1634    0.9859 H   0  0  0  0  0  0  0  0  0  0  0  0
   -0.1415   -0.6590   -0.1015 C   0  0  0  0  0  0  0  0  0  0  0  0
   -1.2551    0.9956    0.9312 H   0  0  0  0  0  0  0  0  0  0  0  0
   -1.6220    0.9371   -0.8626 H   0  0  0  0  0  0  0  0  0  0  0  0
   -0.1300   -1.0363    0.5136 H   0  0  0  0  0  0  0  0  0  0  0  0
    0.8273   -0.1199    0.4521 H   0  0  0  0  0  0  0  0  0  0  0  0
   -0.0325   -1.7184   -1.2049 H   0  0  0  0  0  0  0  0  0  0  0  0
  1  3  1  0  0  0  0
  1  2  1  0  0  0  0
  1  5  1  0  0  0  0
  2  8  1  0  0  0  0
  4  1  1  0  0  0  0
  6  2  1  0  0  0  0
  6 10  1  0  0  0  0
  7  2  1  0  0  0  0
  9  6  1  0  0  0  0
  9 13  1  0  0  0  0
  9 12  1  0  0  0  0
 11  6  1  0  0  0  0
M  RAD  2   9   2  14   2
M  END
$$$$
