14
butane_opt
C  -3.918582   0.262685   0.199404
C  -2.761309  -0.653632  -0.151131
H  -4.802143  -0.278740   0.302439
H  -4.108206   0.746337  -0.588801
H  -3.739263   0.898726   1.123999
C  -1.425495   0.247746  -0.157183
H  -3.056587  -1.283035  -1.083645
H  -2.669115  -1.171578   0.642659
C  -0.087862  -0.736326   0.216695
H  -1.534636   0.720970   0.373377
H  -1.163723   1.368622  -1.447043
H  -0.279284  -1.140298   1.013294
H   0.631511  -0.326415   0.675456
H   0.036471  -1.515584  -0.857570
