14
butane_opt
C  -3.944484   0.188400  -0.139193
C  -2.727234  -0.585992   0.172207
H  -4.775043  -0.392572  -0.229464
H  -3.740247   0.924864  -1.154305
H  -4.253868   0.837173   0.651162
C  -1.399709   0.287383   0.226110
H  -2.824383  -0.930506  -0.502463
H  -3.173361  -1.065320   1.054894
C  -0.103505  -0.748455  -0.166215
H  -1.017466   1.095818   1.358174
H  -1.771731   0.772041  -0.461206
H   0.314218  -1.827561   0.957831
H   0.678773  -0.337084  -0.483205
H  -0.333636  -1.267105  -0.804844
