14
butane_opt
C  -3.961179   0.295000   0.018878
C  -2.657101  -0.647015   0.047626
H  -4.844437  -0.281143  -0.161993
H  -3.993433   0.724415  -0.727533
H  -4.040782   1.149238   1.070701
C  -1.367327   0.133142   0.004376
H  -2.853681  -1.673897  -1.047036
H  -2.533639  -0.944840   0.646111
C  -0.188219  -0.699847   0.035898
H  -1.461930   0.749092   0.826008
H  -1.731995   1.008986  -0.856115
H  -0.041135  -1.646073   1.148252
H   0.927924   0.228978  -0.262146
H  -0.387706  -0.726261  -0.400296
