butane_opt
 OpenBabel08242015393D

 14 13  0  0  0  0  0  0  0  0999 V2000
   -3.9559    0.2756    0.0435 C   0  0  0  0  0  0  0  0  0  0  0  0
   -2.6979   -0.6413    0.0317 C   0  0  0  0  0  0  0  0  0  0  0  0
   -4.8223   -0.2704   -0.0029 H   0  0  0  0  0  0  0  0  0  0  0  0
   -3.9599    0.8522   -0.8448 H   0  0  0  0  0  0  0  0  0  0  0  0
   -4.0658    1.0127    0.9323 H   0  0  0  0  0  0  0  0  0  0  0  0
   -1.3919    0.1865   -0.0272 C   0  0  0  0  0  0  0  0  0  0  0  0
   -2.7518   -1.3309   -0.8349 H   0  0  0  0  0  0  0  0  0  0  0  0
   -2.7010   -1.2369    0.9025 H   0  0  0  0  0  0  0  0  0  0  0  0
   -0.1628   -0.6880    0.0537 C   0  0  0  0  0  0  0  0  0  0  0  0
   -1.3932    0.8279    0.7984 H   0  0  0  0  0  0  0  0  0  0  0  0
   -1.3522    0.8021   -0.9423 H   0  0  0  0  0  0  0  0  0  0  0  0
   -0.1813   -1.2636    0.9344 H   0  0  0  0  0  0  0  0  0  0  0  0
    0.7999   -0.0749    0.0909 H   0  0  0  0  0  0  0  0  0  0  0  0
   -0.1008   -1.3717   -0.8082 H   0  0  0  0  0  0  0  0  0  0  0  0
  1  5  1  0  0  0  0
  2  1  1  0  0  0  0
  2  8  1  0  0  0  0
  3  1  1  0  0  0  0
  4  1  1  0  0  0  0
  6  2  1  0  0  0  0
  6  9  1  0  0  0  0
  6 10  1  0  0  0  0
  7  2  1  0  0  0  0
  9 13  1  0  0  0  0
  9 12  1  0  0  0  0
 11  6  1  0  0  0  0
 14  9  1  0  0  0  0
M  END
$$$$
