butane_opt
 OpenBabel08242015393D

 14 11  0  0  0  0  0  0  0  0999 V2000
   -3.8356    0.2334    0.1761 C   0  0  0  0  0  0  0  0  0  0  0  0
   -2.6696   -0.6094   -0.2123 C   0  0  0  0  0  0  0  0  0  0  0  0
   -4.7529   -0.5040    0.0184 H   0  0  0  0  0  0  0  0  0  0  0  0
   -4.3084    0.6127   -0.5393 H   0  0  0  0  0  0  0  0  0  0  0  0
   -3.6334    1.1368    1.2487 H   0  0  0  0  0  0  0  0  0  0  0  0
   -1.4462    0.2606   -0.0967 C   0  0  0  0  0  0  0  0  0  0  0  0
   -2.7531   -1.2832   -1.0306 H   0  0  0  0  0  0  0  0  0  0  0  0
   -2.6720   -1.1765    0.5487 H   0  0  0  0  0  0  0  0  0  0  0  0
   -0.1926   -0.7369    0.2012 C   0  0  0  0  0  1  0  0  0  0  0  0
   -1.6603    0.8271    0.8108 H   0  0  0  0  0  0  0  0  0  0  0  0
   -1.6548    0.8883   -0.9759 H   0  0  0  0  0  0  0  0  0  0  0  0
   -0.1510   -1.9495    1.3190 H   0  0  0  0  0  0  0  0  0  0  0  0
    0.6335   -0.1436   -0.5378 H   0  0  0  0  0  0  0  0  0  0  0  0
   -0.3066   -0.6284   -0.1675 H   0  0  0  0  0  0  0  0  0  0  0  0
  1  5  1  0  0  0  0
  2  6  1  0  0  0  0
  2  1  1  0  0  0  0
  2  8  1  0  0  0  0
  3  1  1  0  0  0  0
  4  1  1  0  0  0  0
  6 10  1  0  0  0  0
  7  2  1  0  0  0  0
 11  6  1  0  0  0  0
 13  9  1  0  0  0  0
 14  6  1  0  0  0  0
M  RAD  1  12   2
M  END
$$$$
