butane_opt
 OpenBabel08242015393D

 14 12  0  0  0  0  0  0  0  0999 V2000
   -3.9641    0.2300    0.1230 C   0  0  0  0  0  0  0  0  0  0  0  0
   -2.7146   -0.6082   -0.1265 C   0  0  0  0  0  0  0  0  0  0  0  0
   -4.8570   -0.2096    0.0072 H   0  0  0  0  0  0  0  0  0  0  0  0
   -4.0961    0.6182   -0.5284 H   0  0  0  0  0  0  0  0  0  0  0  0
   -4.0250    1.0897    1.1619 H   0  0  0  0  0  0  0  0  0  0  0  0
   -1.3670    0.2425   -0.0549 C   0  0  0  0  0  0  0  0  0  0  0  0
   -3.1870   -1.3880   -1.0652 H   0  0  0  0  0  0  0  0  0  0  0  0
   -2.7997   -0.9090    0.6056 H   0  0  0  0  0  0  0  0  0  0  0  0
   -0.1258   -0.7604    0.1640 C   0  0  0  0  0  0  0  0  0  0  0  0
   -1.5317    0.6788    0.5999 H   0  0  0  0  0  0  0  0  0  0  0  0
   -1.3131    1.1059   -0.9628 H   0  0  0  0  0  0  0  0  0  0  0  0
    0.1944   -1.6803    1.2039 H   0  0  0  0  0  0  0  0  0  0  0  0
    0.7825   -0.1586   -0.4997 H   0  0  0  0  0  0  0  0  0  0  0  0
   -0.1230   -0.8688   -0.3078 H   0  0  0  0  0  0  0  0  0  0  0  0
  1  5  1  0  0  0  0
  2  6  1  0  0  0  0
  2  1  1  0  0  0  0
  2  8  1  0  0  0  0
  3  1  1  0  0  0  0
  4  1  1  0  0  0  0
  6  9  1  0  0  0  0
  6 10  1  0  0  0  0
  7  2  1  0  0  0  0
  9 12  1  0  0  0  0
 11  6  1  0  0  0  0
 13  9  1  0  0  0  0
M  RAD  2   9   2  14   2
M  END
$$$$
