14
butane_opt
C  -3.982974   0.189586   0.114200
C  -2.733907  -0.513450  -0.097899
H  -5.000307  -0.419586   0.792509
H  -4.046396   1.083422  -1.021009
H  -3.661285   0.682217   0.955350
C  -1.404639   0.263455  -0.077712
H  -2.745254  -1.635982  -1.118204
H  -2.777709  -0.804317   0.540779
C  -0.127747  -0.741369   0.137768
H  -1.310237   0.667429   0.650304
H  -1.289875   0.835388  -0.939336
H  -0.042071  -1.487240   1.180544
H   0.714736  -0.336632   0.137939
H   0.145364  -1.412647  -0.634977
