butane_opt
 OpenBabel08242015393D

 14 13  0  0  0  0  0  0  0  0999 V2000
   -3.9240    0.1908    0.1394 C   0  0  0  0  0  0  0  0  0  0  0  0
   -2.7177   -0.4768   -0.1905 C   0  0  0  0  0  0  0  0  0  0  0  0
   -5.0220   -0.4967    0.7182 H   0  0  0  0  0  0  0  0  0  0  0  0
   -4.2599    1.0392   -0.8886 H   0  0  0  0  0  0  0  0  0  0  0  0
   -3.4142    0.6091    0.8911 H   0  0  0  0  0  0  0  0  0  0  0  0
   -1.4195    0.2135   -0.0650 C   0  0  0  0  0  0  0  0  0  0  0  0
   -2.9740   -1.1351   -1.0849 H   0  0  0  0  0  0  0  0  0  0  0  0
   -2.4882   -1.1503    0.8803 H   0  0  0  0  0  0  0  0  0  0  0  0
   -0.1551   -0.7496    0.1608 C   0  0  0  0  0  0  0  0  0  0  0  0
   -1.4947    0.8586    0.7464 H   0  0  0  0  0  0  0  0  0  0  0  0
   -1.0585    0.8344   -1.0455 H   0  0  0  0  0  0  0  0  0  0  0  0
   -0.1909   -1.5168    1.1363 H   0  0  0  0  0  0  0  0  0  0  0  0
    0.7093   -0.2795    0.3254 H   0  0  0  0  0  0  0  0  0  0  0  0
   -0.1699   -1.4111   -0.8107 H   0  0  0  0  0  0  0  0  0  0  0  0
  1  3  1  0  0  0  0
  1  5  1  0  0  0  0
  2  6  1  0  0  0  0
  2  1  1  0  0  0  0
  2  8  1  0  0  0  0
  4  1  1  0  0  0  0
  6  9  1  0  0  0  0
  6 10  1  0  0  0  0
  7  2  1  0  0  0  0
  9 13  1  0  0  0  0
  9 12  1  0  0  0  0
 11  6  1  0  0  0  0
 14  9  1  0  0  0  0
M  END
$$$$
