butane_opt
 OpenBabel08242015393D

 14 12  0  0  0  0  0  0  0  0999 V2000
   -3.8427    0.2318    0.1168 C   0  0  0  0  0  0  0  0  0  0  0  0
   -2.7807   -0.5817   -0.0499 C   0  0  0  0  0  0  0  0  0  0  0  0
   -4.7722   -0.5691   -0.0646 H   0  0  0  0  0  0  0  0  0  0  0  0
   -3.7222    0.4285   -0.4959 H   0  0  0  0  0  0  0  0  0  0  0  0
   -3.9312    1.2831    1.1857 H   0  0  0  0  0  0  0  0  0  0  0  0
   -1.4272    0.2505   -0.1417 C   0  0  0  0  0  0  0  0  0  0  0  0
   -3.0165   -1.3376   -0.8872 H   0  0  0  0  0  0  0  0  0  0  0  0
   -2.6282   -1.0803    0.8118 H   0  0  0  0  0  0  0  0  0  0  0  0
   -0.1493   -0.7655    0.1070 C   0  0  0  0  0  0  0  0  0  0  0  0
   -1.5051    0.9759    0.6627 H   0  0  0  0  0  0  0  0  0  0  0  0
   -1.5730    1.1987   -1.0932 H   0  0  0  0  0  0  0  0  0  0  0  0
   -0.3051   -1.5133    1.1946 H   0  0  0  0  0  0  0  0  0  0  0  0
    0.6513   -0.2974    0.2629 H   0  0  0  0  0  0  0  0  0  0  0  0
    0.2011   -1.2324   -0.4619 H   0  0  0  0  0  0  0  0  0  0  0  0
  1  5  1  0  0  0  0
  2  1  1  0  0  0  0
  2  8  1  0  0  0  0
  3  1  1  0  0  0  0
  4  1  1  0  0  0  0
  6  9  1  0  0  0  0
  6 10  1  0  0  0  0
  7  2  1  0  0  0  0
  9 13  1  0  0  0  0
  9 12  1  0  0  0  0
 11  6  1  0  0  0  0
 14  9  1  0  0  0  0
M  RAD  2   2   2   6   2
M  END
$$$$
