butane_opt
 OpenBabel08242015393D

 14 13  0  0  0  0  0  0  0  0999 V2000
   -3.9058    0.2935   -0.1023 C   0  0  0  0  0  0  0  0  0  0  0  0
   -2.6274   -0.6583    0.2456 C   0  0  0  0  0  0  0  0  0  0  0  0
   -4.6538    0.0388   -0.9234 H   0  0  0  0  0  0  0  0  0  0  0  0
   -3.7518    0.4854   -0.8021 H   0  0  0  0  0  0  0  0  0  0  0  0
   -4.3659    1.2884    0.9430 H   0  0  0  0  0  0  0  0  0  0  0  0
   -1.4454    0.1237    0.0940 C   0  0  0  0  0  0  0  0  0  0  0  0
   -2.7229   -1.2366   -0.4764 H   0  0  0  0  0  0  0  0  0  0  0  0
   -2.5930   -1.5114    1.1987 H   0  0  0  0  0  0  0  0  0  0  0  0
   -0.2112   -0.6280   -0.0819 C   0  0  0  0  0  0  0  0  0  0  0  0
   -1.2440    0.5381    0.8766 H   0  0  0  0  0  0  0  0  0  0  0  0
   -1.4278    0.8332   -0.7650 H   0  0  0  0  0  0  0  0  0  0  0  0
   -0.2033   -1.0130    0.6839 H   0  0  0  0  0  0  0  0  0  0  0  0
    0.7551   -0.0379   -0.1154 H   0  0  0  0  0  0  0  0  0  0  0  0
   -0.5529   -1.4017   -1.0576 H   0  0  0  0  0  0  0  0  0  0  0  0
  1  2  1  0  0  0  0
  1  5  1  0  0  0  0
  2  8  1  0  0  0  0
  3  1  1  0  0  0  0
  4  1  1  0  0  0  0
  6  2  1  0  0  0  0
  6 10  1  0  0  0  0
  7  2  1  0  0  0  0
  9  6  1  0  0  0  0
  9 12  1  0  0  0  0
 11  6  1  0  0  0  0
 13  9  1  0  0  0  0
 14  9  1  0  0  0  0
M  END
$$$$
