14
butane_opt
C  -3.964105   0.230036   0.123008
C  -2.714560  -0.608227  -0.126506
H  -4.857015  -0.209648   0.007249
H  -4.096100   0.618220  -0.528431
H  -4.024985   1.089664   1.161896
C  -1.366983   0.242491  -0.054901
H  -3.186981  -1.388000  -1.065247
H  -2.799714  -0.908965   0.605576
C  -0.125784  -0.760371   0.164011
H  -1.531749   0.678794   0.599933
H  -1.313125   1.105905  -0.962807
H   0.194383  -1.680338   1.203891
H   0.782536  -0.158648  -0.499675
H  -0.122999  -0.868823  -0.307798
