butane_opt
 OpenBabel08242015393D

 14 12  0  0  0  0  0  0  0  0999 V2000
   -3.8754    0.3356   -0.1632 C   0  0  0  0  0  0  0  0  0  0  0  0
   -2.7012   -0.6311    0.2504 C   0  0  0  0  0  0  0  0  0  0  0  0
   -4.9800   -0.3674   -0.7352 H   0  0  0  0  0  0  0  0  0  0  0  0
   -3.7665    0.7909   -0.9848 H   0  0  0  0  0  0  0  0  0  0  0  0
   -4.2339    1.1609    0.8801 H   0  0  0  0  0  0  0  0  0  0  0  0
   -1.4029    0.0999    0.1749 C   0  0  0  0  0  0  0  0  0  0  0  0
   -2.4495   -1.1199   -0.2258 H   0  0  0  0  0  0  0  0  0  0  0  0
   -2.9698   -1.7745    1.5340 H   0  0  0  0  0  0  0  0  0  0  0  0
   -0.1955   -0.6457   -0.1591 C   0  0  0  0  0  0  0  0  0  0  0  0
   -1.3614    0.8342    1.1070 H   0  0  0  0  0  0  0  0  0  0  0  0
   -1.6341    0.6717   -0.6550 H   0  0  0  0  0  0  0  0  0  0  0  0
   -0.2332   -1.0829    0.5441 H   0  0  0  0  0  0  0  0  0  0  0  0
    1.0547    0.1579   -0.0596 H   0  0  0  0  0  0  0  0  0  0  0  0
   -0.3845   -1.6024   -1.2292 H   0  0  0  0  0  0  0  0  0  0  0  0
  1  2  1  0  0  0  0
  1  5  1  0  0  0  0
  3  1  1  0  0  0  0
  4  1  1  0  0  0  0
  6  2  1  0  0  0  0
  6 10  1  0  0  0  0
  7  2  1  0  0  0  0
  9 13  1  0  0  0  0
  9  6  1  0  0  0  0
  9 12  1  0  0  0  0
 11  6  1  0  0  0  0
 14  9  1  0  0  0  0
M  RAD  2   2   2   8   2
M  END
$$$$
