butane_opt
 OpenBabel08242015393D

 14 13  0  0  0  0  0  0  0  0999 V2000
   -4.0332    0.2000    0.1349 C   0  0  0  0  0  0  0  0  0  0  0  0
   -2.7024   -0.5671   -0.0883 C   0  0  0  0  0  0  0  0  0  0  0  0
   -4.8421   -0.3404    0.5003 H   0  0  0  0  0  0  0  0  0  0  0  0
   -3.8997    1.0093   -0.9056 H   0  0  0  0  0  0  0  0  0  0  0  0
   -4.0171    0.6211    0.6989 H   0  0  0  0  0  0  0  0  0  0  0  0
   -1.3747    0.2488   -0.0816 C   0  0  0  0  0  0  0  0  0  0  0  0
   -2.7504   -1.3979   -0.9779 H   0  0  0  0  0  0  0  0  0  0  0  0
   -2.6962   -1.1429    0.7362 H   0  0  0  0  0  0  0  0  0  0  0  0
   -0.1298   -0.7186    0.1209 C   0  0  0  0  0  0  0  0  0  0  0  0
   -1.5291    1.1579    0.9004 H   0  0  0  0  0  0  0  0  0  0  0  0
   -1.2930    0.8893   -0.9730 H   0  0  0  0  0  0  0  0  0  0  0  0
    0.0331   -1.4123    1.0307 H   0  0  0  0  0  0  0  0  0  0  0  0
    0.6666   -0.4012    0.1030 H   0  0  0  0  0  0  0  0  0  0  0  0
    0.1849   -1.4185   -0.7047 H   0  0  0  0  0  0  0  0  0  0  0  0
  1  3  1  0  0  0  0
  1  5  1  0  0  0  0
  2  6  1  0  0  0  0
  2  1  1  0  0  0  0
  2  8  1  0  0  0  0
  4  1  1  0  0  0  0
  6  9  1  0  0  0  0
  6 10  1  0  0  0  0
  7  2  1  0  0  0  0
  9 12  1  0  0  0  0
 11  6  1  0  0  0  0
 13  9  1  0  0  0  0
 14  9  1  0  0  0  0
M  END
$$$$
