butane_opt
 OpenBabel08242015393D

 14 13  0  0  0  0  0  0  0  0999 V2000
   -3.9412    0.2653   -0.0066 C   0  0  0  0  0  0  0  0  0  0  0  0
   -2.6939   -0.6163    0.0580 C   0  0  0  0  0  0  0  0  0  0  0  0
   -4.8207   -0.3080    0.0435 H   0  0  0  0  0  0  0  0  0  0  0  0
   -3.9216    0.9481   -0.9382 H   0  0  0  0  0  0  0  0  0  0  0  0
   -3.9652    0.8499    0.8059 H   0  0  0  0  0  0  0  0  0  0  0  0
   -1.4143    0.1773    0.0512 C   0  0  0  0  0  0  0  0  0  0  0  0
   -2.6435   -1.3049   -0.7837 H   0  0  0  0  0  0  0  0  0  0  0  0
   -2.7002   -1.2647    0.9570 H   0  0  0  0  0  0  0  0  0  0  0  0
   -0.1759   -0.6835    0.0073 C   0  0  0  0  0  0  0  0  0  0  0  0
   -1.3826    0.8650    0.9352 H   0  0  0  0  0  0  0  0  0  0  0  0
   -1.3713    0.8133   -0.8397 H   0  0  0  0  0  0  0  0  0  0  0  0
   -0.0897   -1.2876    0.8914 H   0  0  0  0  0  0  0  0  0  0  0  0
    0.7369   -0.1143   -0.0789 H   0  0  0  0  0  0  0  0  0  0  0  0
   -0.1732   -1.3738   -0.8853 H   0  0  0  0  0  0  0  0  0  0  0  0
  1  3  1  0  0  0  0
  1  2  1  0  0  0  0
  1  5  1  0  0  0  0
  2  8  1  0  0  0  0
  4  1  1  0  0  0  0
  6  2  1  0  0  0  0
  6 10  1  0  0  0  0
  7  2  1  0  0  0  0
  9  6  1  0  0  0  0
  9 12  1  0  0  0  0
 11  6  1  0  0  0  0
 13  9  1  0  0  0  0
 14  9  1  0  0  0  0
M  END
$$$$
