14
butane_opt
C  -3.941936   0.282724  -0.123711
C  -2.677452  -0.631724   0.078165
H  -4.859312  -0.278899   0.761026
H  -4.016404   1.385832  -1.244746
H  -3.620365   0.430334   0.495250
C  -1.359736   0.196586   0.174973
H  -2.380320  -1.241116  -0.739140
H  -2.946673  -1.570423   1.295606
C  -0.232278  -0.693963  -0.093048
H  -1.390356   1.056287   1.299553
H  -1.512206   0.650222  -0.518593
H  -0.230174  -1.104977   0.740441
H   0.640083  -0.124492   0.060525
H  -0.187306  -1.502885  -1.201285
