14
butane_opt
C  -3.925196   0.221970   0.142303
C  -2.751519  -0.535558  -0.048328
H  -5.046346  -0.591719   0.063998
H  -3.796435   0.735849  -0.668993
H  -3.827836   0.927977   1.030795
C  -1.393064   0.246228  -0.200182
H  -2.881078  -0.953560  -0.609910
H  -2.315494  -1.295744   0.782500
C  -0.140419  -0.773129   0.124981
H  -1.451786   0.846501   0.685406
H  -1.264399   0.947540  -1.036621
H  -0.577122  -1.131269   0.924081
H   0.643060  -0.100969   0.950670
H   0.074440  -1.851286  -0.947806
