14
butane_opt
C  -3.897927   0.188352  -0.006897
C  -2.677443  -0.545972   0.119909
H  -4.821882  -0.489158  -0.645975
H  -3.647342   0.387345  -0.528022
H  -3.751726   1.529772   1.341812
C  -1.427180   0.268288  -0.031276
H  -2.877611  -1.372963  -0.934433
H  -3.008070  -1.022974   1.075784
C  -0.185032  -0.765044   0.050883
H  -1.557296   0.589993   0.623581
H  -1.475417   1.223671  -1.066411
H  -0.114393  -1.505839   1.032562
H   0.660890  -0.188653  -0.178263
H  -0.159270  -1.405426  -0.833681
