butane_opt
 OpenBabel08242015393D

 14 12  0  0  0  0  0  0  0  0999 V2000
   -3.9946    0.2107    0.0550 C   0  0  0  0  0  0  0  0  0  0  0  0
   -2.7341   -0.5410    0.0009 C   0  0  0  0  0  0  0  0  0  0  0  0
   -4.9647   -0.4554   -0.3855 H   0  0  0  0  0  0  0  0  0  0  0  0
   -3.6885    0.5959   -0.6466 H   0  0  0  0  0  0  0  0  0  0  0  0
   -3.9523    1.4325    1.3777 H   0  0  0  0  0  0  0  0  0  0  0  0
   -1.4149    0.1748   -0.0330 C   0  0  0  0  0  0  0  0  0  0  0  0
   -2.8814   -1.3837   -0.8635 H   0  0  0  0  0  0  0  0  0  0  0  0
   -2.4732   -1.2096    0.7779 H   0  0  0  0  0  0  0  0  0  0  0  0
   -0.1064   -0.6814    0.1229 C   0  0  0  0  0  0  0  0  0  0  0  0
   -1.5548    0.6860    0.6126 H   0  0  0  0  0  0  0  0  0  0  0  0
   -1.2953    1.0207   -1.1765 H   0  0  0  0  0  0  0  0  0  0  0  0
    0.1648   -1.5143    1.0642 H   0  0  0  0  0  0  0  0  0  0  0  0
    0.7245   -0.2372   -0.4570 H   0  0  0  0  0  0  0  0  0  0  0  0
   -0.1134   -1.3469   -0.5952 H   0  0  0  0  0  0  0  0  0  0  0  0
  2  1  1  0  0  0  0
  2  8  1  0  0  0  0
  3  1  1  0  0  0  0
  4  1  1  0  0  0  0
  6  2  1  0  0  0  0
  6  9  1  0  0  0  0
  6 10  1  0  0  0  0
  7  2  1  0  0  0  0
  9 12  1  0  0  0  0
 11  6  1  0  0  0  0
 13  9  1  0  0  0  0
 14  9  1  0  0  0  0
M  RAD  2   1   2   5   2
M  END
$$$$
