14
butane_opt
C  -3.974984   0.320039   0.189076
C  -2.602927  -0.727451  -0.205290
H  -4.801198  -0.183136   0.608772
H  -4.502697   1.224699  -0.800336
H  -3.632145   0.719456   0.995342
C  -1.384420   0.139008  -0.103145
H  -2.769879  -1.493516  -1.093949
H  -2.591354  -0.986692   0.452951
C  -0.244384  -0.640625   0.213310
H  -1.396781   0.580798   0.592387
H  -1.206644   1.106946  -1.149026
H  -0.274477  -1.350297   1.110281
H   0.705953   0.135863   0.207892
H  -0.106274  -1.302598  -0.639765
