butane_opt
 OpenBabel08242015393D

 14 12  0  0  0  0  0  0  0  0999 V2000
   -3.9487    0.2536   -0.1743 C   0  0  0  0  0  0  0  0  0  0  0  0
   -2.7117   -0.6408    0.3285 C   0  0  0  0  0  0  0  0  0  0  0  0
   -4.7626   -0.2832   -0.5521 H   0  0  0  0  0  0  0  0  0  0  0  0
   -3.7626    0.8387   -1.1234 H   0  0  0  0  0  0  0  0  0  0  0  0
   -4.4211    0.9389    0.6822 H   0  0  0  0  0  0  0  0  0  0  0  0
   -1.4350    0.1939    0.1893 C   0  0  0  0  0  0  0  0  0  0  0  0
   -2.9087   -1.1771   -0.6426 H   0  0  0  0  0  0  0  0  0  0  0  0
   -2.8441   -1.2354    1.2479 H   0  0  0  0  0  0  0  0  0  0  0  0
   -0.0854   -0.6861   -0.1547 C   0  0  0  0  0  0  0  0  0  0  0  0
   -1.1071    0.9888    1.1208 H   0  0  0  0  0  0  0  0  0  0  0  0
   -1.6036    0.9248   -0.7778 H   0  0  0  0  0  0  0  0  0  0  0  0
   -0.0941   -1.1476    0.6764 H   0  0  0  0  0  0  0  0  0  0  0  0
    0.6975   -0.1979   -0.1287 H   0  0  0  0  0  0  0  0  0  0  0  0
   -0.0378   -1.6204   -1.3624 H   0  0  0  0  0  0  0  0  0  0  0  0
  1  2  1  0  0  0  0
  1  5  1  0  0  0  0
  2  8  1  0  0  0  0
  3  1  1  0  0  0  0
  4  1  1  0  0  0  0
  6  2  1  0  0  0  0
  6 10  1  0  0  0  0
  7  2  1  0  0  0  0
  9 13  1  0  0  0  0
  9  6  1  0  0  0  0
  9 12  1  0  0  0  0
 11  6  1  0  0  0  0
M  RAD  2   9   2  14   2
M  END
$$$$
