14
butane_opt
C  -3.980873   0.292326  -0.166742
C  -2.662884  -0.725072   0.197552
H  -4.692226  -0.008370  -0.214580
H  -3.948855   0.776075  -0.861092
H  -4.438432   1.169364   0.688902
C  -1.413865   0.126671   0.248052
H  -2.524373  -1.312444  -0.561008
H  -3.065566  -1.156533   1.077256
C  -0.109872  -0.618480  -0.146887
H  -1.284646   0.875600   1.034206
H  -1.425338   0.874554  -0.708425
H   0.217437  -1.446098   0.889129
H   0.679936  -0.141050  -0.603869
H  -0.546271  -1.024371  -0.811978
