butane_opt
 OpenBabel08242015393D

 14 13  0  0  0  0  0  0  0  0999 V2000
   -3.9451    0.2691    0.0392 C   0  0  0  0  0  0  0  0  0  0  0  0
   -2.6849   -0.6273    0.0007 C   0  0  0  0  0  0  0  0  0  0  0  0
   -4.8400   -0.3122    0.1369 H   0  0  0  0  0  0  0  0  0  0  0  0
   -4.0304    0.9951   -0.9043 H   0  0  0  0  0  0  0  0  0  0  0  0
   -3.8667    0.8697    0.8871 H   0  0  0  0  0  0  0  0  0  0  0  0
   -1.3995    0.1831    0.0025 C   0  0  0  0  0  0  0  0  0  0  0  0
   -2.6847   -1.3124   -0.8835 H   0  0  0  0  0  0  0  0  0  0  0  0
   -2.6917   -1.2752    0.9146 H   0  0  0  0  0  0  0  0  0  0  0  0
   -0.1806   -0.6872    0.0495 C   0  0  0  0  0  0  0  0  0  0  0  0
   -1.4329    0.8703    0.8579 H   0  0  0  0  0  0  0  0  0  0  0  0
   -1.3625    0.7829   -0.8653 H   0  0  0  0  0  0  0  0  0  0  0  0
   -0.1659   -1.3305    0.9868 H   0  0  0  0  0  0  0  0  0  0  0  0
    0.7360   -0.0715    0.0115 H   0  0  0  0  0  0  0  0  0  0  0  0
   -0.1652   -1.3327   -0.8165 H   0  0  0  0  0  0  0  0  0  0  0  0
  1  3  1  0  0  0  0
  1  5  1  0  0  0  0
  2  6  1  0  0  0  0
  2  1  1  0  0  0  0
  2  8  1  0  0  0  0
  4  1  1  0  0  0  0
  6  9  1  0  0  0  0
  6 10  1  0  0  0  0
  7  2  1  0  0  0  0
  9 12  1  0  0  0  0
 11  6  1  0  0  0  0
 13  9  1  0  0  0  0
 14  9  1  0  0  0  0
M  END
$$$$
