butane_opt
 OpenBabel08242015393D

 14 12  0  0  0  0  0  0  0  0999 V2000
   -3.9201    0.2269   -0.0792 C   0  0  0  0  0  0  0  0  0  0  0  0
   -2.7157   -0.6093    0.2003 C   0  0  0  0  0  0  0  0  0  0  0  0
   -4.9267   -0.5620   -0.1108 H   0  0  0  0  0  0  0  0  0  0  0  0
   -4.1325    0.7959   -1.0244 H   0  0  0  0  0  0  0  0  0  0  0  0
   -3.9363    0.8928    0.8936 H   0  0  0  0  0  0  0  0  0  0  0  0
   -1.4492    0.2774    0.0018 C   0  0  0  0  0  0  0  0  0  0  0  0
   -2.8821   -1.0301   -0.4517 H   0  0  0  0  0  0  0  0  0  0  0  0
   -2.7684   -1.3343    1.1604 H   0  0  0  0  0  0  0  0  0  0  0  0
   -0.1159   -0.7220   -0.0395 C   0  0  0  0  0  0  0  0  0  0  0  0
   -1.2473    1.1037    0.9804 H   0  0  0  0  0  0  0  0  0  0  0  0
   -1.5780    0.8231   -1.0102 H   0  0  0  0  0  0  0  0  0  0  0  0
   -0.2453   -0.9791    0.5688 H   0  0  0  0  0  0  0  0  0  0  0  0
    0.6107   -0.3110    0.6551 H   0  0  0  0  0  0  0  0  0  0  0  0
    0.5082   -1.9936   -1.2875 H   0  0  0  0  0  0  0  0  0  0  0  0
  1  2  1  0  0  0  0
  1  5  1  0  0  0  0
  2  8  1  0  0  0  0
  3  1  1  0  0  0  0
  4  1  1  0  0  0  0
  6  2  1  0  0  0  0
  6 10  1  0  0  0  0
  7  2  1  0  0  0  0
  9  6  1  0  0  0  0
  9 12  1  0  0  0  0
  9 13  1  0  0  0  0
 11  6  1  0  0  0  0
M  RAD  2   9   2  14   2
M  END
$$$$
