14
butane_opt
C  -3.926261   0.211556  -0.160508
C  -2.677524  -0.519035   0.274652
H  -5.015043  -0.512681  -0.599293
H  -3.712899   0.664220  -0.998018
H  -3.957970   0.873791   0.787837
C  -1.405539   0.180683   0.181755
H  -2.362511  -0.766281  -0.257881
H  -2.832498  -1.398098   1.316266
C  -0.167249  -0.696261  -0.166589
H  -1.523813   0.853669   1.066018
H  -1.608544   0.742396  -0.839267
H  -0.225809  -1.012040   0.433261
H   0.570358  -0.407971   0.174487
H  -0.189751  -1.681766  -1.234152
