14
butane_opt
C  -3.991078   0.318552  -0.071105
C  -2.726417  -0.699382   0.081729
H  -4.993086  -0.233472  -0.329875
H  -3.990758   1.029313  -1.039298
H  -4.021789   0.918166   0.640810
C  -1.371197   0.154365   0.168665
H  -2.749785  -0.943423  -0.408854
H  -2.935295  -1.483304   1.241991
C  -0.127135  -0.682423  -0.055961
H  -1.248727   1.087982   1.093656
H  -1.442324   0.645310  -0.551897
H   0.301809  -1.371597   0.790149
H   0.985810   0.038664  -0.449952
H  -0.387423  -1.255529  -1.051606
