butane_opt
 OpenBabel08242015393D

 14 12  0  0  0  0  0  0  0  0999 V2000
   -3.9911    0.3186   -0.0711 C   0  0  0  0  0  0  0  0  0  0  0  0
   -2.7264   -0.6994    0.0817 C   0  0  0  0  0  0  0  0  0  0  0  0
   -4.9931   -0.2335   -0.3299 H   0  0  0  0  0  0  0  0  0  0  0  0
   -3.9908    1.0293   -1.0393 H   0  0  0  0  0  0  0  0  0  0  0  0
   -4.0218    0.9182    0.6408 H   0  0  0  0  0  0  0  0  0  0  0  0
   -1.3712    0.1544    0.1687 C   0  0  0  0  0  0  0  0  0  0  0  0
   -2.7498   -0.9434   -0.4089 H   0  0  0  0  0  0  0  0  0  0  0  0
   -2.9353   -1.4833    1.2420 H   0  0  0  0  0  0  0  0  0  0  0  0
   -0.1271   -0.6824   -0.0560 C   0  0  0  0  0  0  0  0  0  0  0  0
   -1.2487    1.0880    1.0937 H   0  0  0  0  0  0  0  0  0  0  0  0
   -1.4423    0.6453   -0.5519 H   0  0  0  0  0  0  0  0  0  0  0  0
    0.3018   -1.3716    0.7901 H   0  0  0  0  0  0  0  0  0  0  0  0
    0.9858    0.0387   -0.4500 H   0  0  0  0  0  0  0  0  0  0  0  0
   -0.3874   -1.2555   -1.0516 H   0  0  0  0  0  0  0  0  0  0  0  0
  1  2  1  0  0  0  0
  1  5  1  0  0  0  0
  2  6  1  0  0  0  0
  2  8  1  0  0  0  0
  3  1  1  0  0  0  0
  4  1  1  0  0  0  0
  6 10  1  0  0  0  0
  9  6  1  0  0  0  0
  9 12  1  0  0  0  0
 11  6  1  0  0  0  0
 13  9  1  0  0  0  0
 14  9  1  0  0  0  0
M  RAD  2   2   2   7   2
M  END
$$$$
