14
butane_opt
C  -4.052637   0.310393  -0.167076
C  -2.678193  -0.646153   0.326357
H  -4.906899  -0.119729  -0.754040
H  -3.651672   0.680524  -0.946301
H  -4.236927   1.102024   0.699572
C  -1.307233   0.125527   0.106219
H  -2.576241  -1.165557  -0.279905
H  -2.657495  -1.450852   1.427613
C  -0.177032  -0.648454  -0.178874
H  -1.246559   0.965414   1.049115
H  -1.480974   0.448312  -0.451143
H  -0.274626  -1.062754   0.550932
H   0.763818   0.019736   0.102228
H  -0.199554  -1.576373  -1.044695
