butane_opt
 OpenBabel08242015393D

 14 13  0  0  0  0  0  0  0  0999 V2000
   -3.9750    0.3200    0.1891 C   0  0  0  0  0  0  0  0  0  0  0  0
   -2.6029   -0.7275   -0.2053 C   0  0  0  0  0  0  0  0  0  0  0  0
   -4.8012   -0.1831    0.6088 H   0  0  0  0  0  0  0  0  0  0  0  0
   -4.5027    1.2247   -0.8003 H   0  0  0  0  0  0  0  0  0  0  0  0
   -3.6321    0.7195    0.9953 H   0  0  0  0  0  0  0  0  0  0  0  0
   -1.3844    0.1390   -0.1031 C   0  0  0  0  0  0  0  0  0  0  0  0
   -2.7699   -1.4935   -1.0939 H   0  0  0  0  0  0  0  0  0  0  0  0
   -2.5914   -0.9867    0.4530 H   0  0  0  0  0  0  0  0  0  0  0  0
   -0.2444   -0.6406    0.2133 C   0  0  0  0  0  0  0  0  0  0  0  0
   -1.3968    0.5808    0.5924 H   0  0  0  0  0  0  0  0  0  0  0  0
   -1.2066    1.1069   -1.1490 H   0  0  0  0  0  0  0  0  0  0  0  0
   -0.2745   -1.3503    1.1103 H   0  0  0  0  0  0  0  0  0  0  0  0
    0.7060    0.1359    0.2079 H   0  0  0  0  0  0  0  0  0  0  0  0
   -0.1063   -1.3026   -0.6398 H   0  0  0  0  0  0  0  0  0  0  0  0
  1  3  1  0  0  0  0
  1  5  1  0  0  0  0
  2  6  1  0  0  0  0
  2  1  1  0  0  0  0
  2  8  1  0  0  0  0
  4  1  1  0  0  0  0
  6  9  1  0  0  0  0
  6 10  1  0  0  0  0
  7  2  1  0  0  0  0
  9 12  1  0  0  0  0
 11  6  1  0  0  0  0
 13  9  1  0  0  0  0
 14  9  1  0  0  0  0
M  END
$$$$
