14
butane_opt
C  -3.949964   0.269679  -0.001630
C  -2.690196  -0.626620   0.056673
H  -4.849213  -0.296058   0.099108
H  -4.015753   1.034920  -0.992313
H  -3.931384   0.862631   0.800116
C  -1.404856   0.160455   0.034497
H  -2.712669  -1.270260  -0.782111
H  -2.719910  -1.269086   0.972864
C  -0.160534  -0.678338   0.006903
H  -1.340293   0.900188   0.928985
H  -1.457248   0.763888  -0.832207
H  -0.172355  -1.223952   0.865607
H   0.762786  -0.044294   0.078713
H  -0.129170  -1.426948  -0.876037
