14
butane_opt
C  -3.908944   0.309539  -0.120088
C  -2.648803  -0.678099   0.195233
H  -4.714534  -0.220547   0.286548
H  -4.080823   1.278039  -1.251679
H  -4.074872   0.757219   0.499607
C  -1.420428   0.078239   0.073868
H  -2.338886  -1.076633  -0.372495
H  -2.578321  -1.754446   1.433586
C  -0.267590  -0.620964  -0.058841
H  -1.214071   1.047574   0.984092
H  -1.468505   0.642803  -0.733534
H  -0.130340  -0.282178   0.148691
H   0.644633   0.050297   0.763086
H  -0.133328  -1.985419  -1.482743
