butane_opt
 OpenBabel08242015393D

 14 10  0  0  0  0  0  0  0  0999 V2000
   -4.0391    0.3203   -0.0514 C   0  0  0  0  0  0  0  0  0  0  0  0
   -2.7232   -0.6697    0.1435 C   0  0  0  0  0  0  0  0  0  0  0  0
   -4.8146   -0.3568    0.1301 H   0  0  0  0  0  0  0  0  0  0  0  0
   -4.2463    1.0868   -1.0573 H   0  0  0  0  0  0  0  0  0  0  0  0
   -3.8730    0.7469    0.5605 H   0  0  0  0  0  0  0  0  0  0  0  0
   -1.3169    0.1765    0.0133 C   0  0  0  0  0  0  0  0  0  0  0  0
   -2.7962   -1.0645   -0.4991 H   0  0  0  0  0  0  0  0  0  0  0  0
   -2.6345   -1.6435    1.2605 H   0  0  0  0  0  0  0  0  0  0  0  0
   -0.1081   -0.6624   -0.0187 C   0  0  0  0  0  1  0  0  0  0  0  0
   -1.4782    1.0316    0.9936 H   0  0  0  0  0  0  0  0  0  0  0  0
   -1.1968    0.6533   -0.9169 H   0  0  0  0  0  0  0  0  0  0  0  0
   -0.3796   -0.6613    0.5170 H   0  0  0  0  0  0  0  0  0  0  0  0
    0.7186   -0.1752    0.6714 H   0  0  0  0  0  0  0  0  0  0  0  0
   -0.0796   -2.0732   -1.3907 H   0  0  0  0  0  0  0  0  0  0  0  0
  1  3  1  0  0  0  0
  1  2  1  0  0  0  0
  1  5  1  0  0  0  0
  2  8  1  0  0  0  0
  4  1  1  0  0  0  0
  6 12  1  0  0  0  0
  6 10  1  0  0  0  0
  7  2  1  0  0  0  0
  9 13  1  0  0  0  0
 11  6  1  0  0  0  0
M  RAD  3   2   2   6   2  14   2
M  END
$$$$
