butane_opt
 OpenBabel08242015393D

 14 13  0  0  0  0  0  0  0  0999 V2000
   -3.9477    0.3315    0.1288 C   0  0  0  0  0  0  0  0  0  0  0  0
   -2.5840   -0.6566   -0.0319 C   0  0  0  0  0  0  0  0  0  0  0  0
   -5.0666   -0.4006    0.3782 H   0  0  0  0  0  0  0  0  0  0  0  0
   -4.0030    0.7532   -0.6288 H   0  0  0  0  0  0  0  0  0  0  0  0
   -3.9944    0.9809    1.1199 H   0  0  0  0  0  0  0  0  0  0  0  0
   -1.3997    0.1264   -0.2240 C   0  0  0  0  0  0  0  0  0  0  0  0
   -2.9910   -1.3985   -1.0271 H   0  0  0  0  0  0  0  0  0  0  0  0
   -2.2249   -1.2502    0.6982 H   0  0  0  0  0  0  0  0  0  0  0  0
   -0.2399   -0.6508    0.1730 C   0  0  0  0  0  0  0  0  0  0  0  0
   -1.5140    0.6092    0.4305 H   0  0  0  0  0  0  0  0  0  0  0  0
   -1.3575    0.7902   -1.0302 H   0  0  0  0  0  0  0  0  0  0  0  0
   -0.7157   -0.8848    0.9691 H   0  0  0  0  0  0  0  0  0  0  0  0
    0.7292    0.1242    0.8038 H   0  0  0  0  0  0  0  0  0  0  0  0
    0.1724   -1.6206   -0.8551 H   0  0  0  0  0  0  0  0  0  0  0  0
  1  3  1  0  0  0  0
  1  5  1  0  0  0  0
  2  1  1  0  0  0  0
  2  8  1  0  0  0  0
  4  1  1  0  0  0  0
  6  2  1  0  0  0  0
  6  9  1  0  0  0  0
  6 10  1  0  0  0  0
  7  2  1  0  0  0  0
  9 13  1  0  0  0  0
  9 12  1  0  0  0  0
 11  6  1  0  0  0  0
 14  9  1  0  0  0  0
M  END
$$$$
