butane_opt
 OpenBabel08242015393D

 14 13  0  0  0  0  0  0  0  0999 V2000
   -3.9809    0.2923   -0.1667 C   0  0  0  0  0  0  0  0  0  0  0  0
   -2.6629   -0.7251    0.1976 C   0  0  0  0  0  0  0  0  0  0  0  0
   -4.6922   -0.0084   -0.2146 H   0  0  0  0  0  0  0  0  0  0  0  0
   -3.9489    0.7761   -0.8611 H   0  0  0  0  0  0  0  0  0  0  0  0
   -4.4384    1.1694    0.6889 H   0  0  0  0  0  0  0  0  0  0  0  0
   -1.4139    0.1267    0.2481 C   0  0  0  0  0  0  0  0  0  0  0  0
   -2.5244   -1.3124   -0.5610 H   0  0  0  0  0  0  0  0  0  0  0  0
   -3.0656   -1.1565    1.0773 H   0  0  0  0  0  0  0  0  0  0  0  0
   -0.1099   -0.6185   -0.1469 C   0  0  0  0  0  0  0  0  0  0  0  0
   -1.2846    0.8756    1.0342 H   0  0  0  0  0  0  0  0  0  0  0  0
   -1.4253    0.8746   -0.7084 H   0  0  0  0  0  0  0  0  0  0  0  0
    0.2174   -1.4461    0.8891 H   0  0  0  0  0  0  0  0  0  0  0  0
    0.6799   -0.1411   -0.6039 H   0  0  0  0  0  0  0  0  0  0  0  0
   -0.5463   -1.0244   -0.8120 H   0  0  0  0  0  0  0  0  0  0  0  0
  1  2  1  0  0  0  0
  1  5  1  0  0  0  0
  2  6  1  0  0  0  0
  2  8  1  0  0  0  0
  3  1  1  0  0  0  0
  4  1  1  0  0  0  0
  6 10  1  0  0  0  0
  7  2  1  0  0  0  0
  9  6  1  0  0  0  0
  9 12  1  0  0  0  0
 11  6  1  0  0  0  0
 13  9  1  0  0  0  0
 14  9  1  0  0  0  0
M  END
$$$$
