butane_opt
 OpenBabel08242015393D

 14 10  0  0  0  0  0  0  0  0999 V2000
   -3.9419    0.2827   -0.1237 C   0  0  0  0  0  0  0  0  0  0  0  0
   -2.6775   -0.6317    0.0782 C   0  0  0  0  0  0  0  0  0  0  0  0
   -4.8593   -0.2789    0.7610 H   0  0  0  0  0  0  0  0  0  0  0  0
   -4.0164    1.3858   -1.2447 H   0  0  0  0  0  0  0  0  0  0  0  0
   -3.6204    0.4303    0.4953 H   0  0  0  0  0  0  0  0  0  0  0  0
   -1.3597    0.1966    0.1750 C   0  0  0  0  0  0  0  0  0  0  0  0
   -2.3803   -1.2411   -0.7391 H   0  0  0  0  0  0  0  0  0  0  0  0
   -2.9467   -1.5704    1.2956 H   0  0  0  0  0  0  0  0  0  0  0  0
   -0.2323   -0.6940   -0.0930 C   0  0  0  0  0  0  0  0  0  0  0  0
   -1.3904    1.0563    1.2996 H   0  0  0  0  0  0  0  0  0  0  0  0
   -1.5122    0.6502   -0.5186 H   0  0  0  0  0  0  0  0  0  0  0  0
   -0.2302   -1.1050    0.7404 H   0  0  0  0  0  0  0  0  0  0  0  0
    0.6401   -0.1245    0.0605 H   0  0  0  0  0  0  0  0  0  0  0  0
   -0.1873   -1.5029   -1.2013 H   0  0  0  0  0  0  0  0  0  0  0  0
  1  5  1  0  0  0  0
  1  3  1  0  0  0  0
  2  6  1  0  0  0  0
  6 10  1  0  0  0  0
  7  2  1  0  0  0  0
  9 13  1  0  0  0  0
  9  6  1  0  0  0  0
  9 12  1  0  0  0  0
 11  6  1  0  0  0  0
 14  9  1  0  0  0  0
M  RAD  4   1   3   2   3   4   2   8   2
M  END
$$$$
