butane_opt
 OpenBabel08242015393D

 14 13  0  0  0  0  0  0  0  0999 V2000
   -3.9454    0.2826    0.0244 C   0  0  0  0  0  0  0  0  0  0  0  0
   -2.6865   -0.6286    0.0269 C   0  0  0  0  0  0  0  0  0  0  0  0
   -4.8248   -0.3047   -0.0045 H   0  0  0  0  0  0  0  0  0  0  0  0
   -3.9562    0.8668   -0.8717 H   0  0  0  0  0  0  0  0  0  0  0  0
   -3.9332    0.9452    0.8614 H   0  0  0  0  0  0  0  0  0  0  0  0
   -1.4022    0.1641    0.0277 C   0  0  0  0  0  0  0  0  0  0  0  0
   -2.7056   -1.3621   -0.8425 H   0  0  0  0  0  0  0  0  0  0  0  0
   -2.7246   -1.2246    0.8908 H   0  0  0  0  0  0  0  0  0  0  0  0
   -0.1798   -0.6765    0.0325 C   0  0  0  0  0  0  0  0  0  0  0  0
   -1.3435    0.8307    0.8675 H   0  0  0  0  0  0  0  0  0  0  0  0
   -1.3897    0.8327   -0.8912 H   0  0  0  0  0  0  0  0  0  0  0  0
   -0.1118   -1.3974    0.9972 H   0  0  0  0  0  0  0  0  0  0  0  0
    0.7335   -0.0848   -0.1138 H   0  0  0  0  0  0  0  0  0  0  0  0
   -0.2172   -1.2605   -0.7780 H   0  0  0  0  0  0  0  0  0  0  0  0
  1  2  1  0  0  0  0
  1  5  1  0  0  0  0
  2  6  1  0  0  0  0
  2  8  1  0  0  0  0
  3  1  1  0  0  0  0
  4  1  1  0  0  0  0
  6  9  1  0  0  0  0
  6 10  1  0  0  0  0
  7  2  1  0  0  0  0
  9 12  1  0  0  0  0
 11  6  1  0  0  0  0
 13  9  1  0  0  0  0
 14  9  1  0  0  0  0
M  END
$$$$
