14
butane_opt
C  -3.869887   0.206519   0.107315
C  -2.678655  -0.534418   0.034757
H  -5.073578  -0.607182  -0.270019
H  -3.588581   0.233440  -0.442459
H  -4.114598   1.493043   1.245979
C  -1.443375   0.209594  -0.165857
H  -2.763764  -1.489548  -1.000524
H  -2.657101  -0.847891   0.821017
C  -0.170343  -0.752309   0.114956
H  -1.690506   0.828314   0.577186
H  -1.616903   1.170177  -1.255880
H  -0.416399  -1.603687   1.125548
H   0.800987   0.016112   0.221469
H   0.082003  -1.285509  -0.573709
