butane_opt
 OpenBabel08242015393D

 14 11  0  0  0  0  0  0  0  0999 V2000
   -3.9590    0.2657   -0.1157 C   0  0  0  0  0  0  0  0  0  0  0  0
   -2.7389   -0.6050    0.2812 C   0  0  0  0  0  0  0  0  0  0  0  0
   -5.1629   -0.6157   -0.7820 H   0  0  0  0  0  0  0  0  0  0  0  0
   -3.4749    0.6714   -0.8953 H   0  0  0  0  0  0  0  0  0  0  0  0
   -4.4107    1.2001    0.7328 H   0  0  0  0  0  0  0  0  0  0  0  0
   -1.3838    0.1883    0.0743 C   0  0  0  0  0  0  0  0  0  0  0  0
   -2.5734   -0.9723   -0.4077 H   0  0  0  0  0  0  0  0  0  0  0  0
   -2.9324   -1.4498    1.3143 H   0  0  0  0  0  0  0  0  0  0  0  0
   -0.1210   -0.7059   -0.1150 C   0  0  0  0  0  0  0  0  0  0  0  0
   -1.3628    1.2558    1.2905 H   0  0  0  0  0  0  0  0  0  0  0  0
   -1.5036    0.7196   -0.7117 H   0  0  0  0  0  0  0  0  0  0  0  0
    0.2970   -1.3499    0.6979 H   0  0  0  0  0  0  0  0  0  0  0  0
    0.7787   -0.1800   -0.0563 H   0  0  0  0  0  0  0  0  0  0  0  0
   -0.2434   -1.5379   -1.2091 H   0  0  0  0  0  0  0  0  0  0  0  0
  1  2  1  0  0  0  0
  1  5  1  0  0  0  0
  2  8  1  0  0  0  0
  4  1  1  0  0  0  0
  6  2  1  0  0  0  0
  7  2  1  0  0  0  0
  9 13  1  0  0  0  0
  9  6  1  0  0  0  0
  9 12  1  0  0  0  0
 11  6  1  0  0  0  0
 14  9  1  0  0  0  0
M  RAD  4   1   2   3   2   6   2  10   2
M  END
$$$$
