butane_opt
 OpenBabel08242015393D

 14 11  0  0  0  0  0  0  0  0999 V2000
   -3.9241    0.3181   -0.1588 C   0  0  0  0  0  0  0  0  0  0  0  0
   -2.6161   -0.6649    0.2979 C   0  0  0  0  0  0  0  0  0  0  0  0
   -4.7618   -0.2275   -0.7593 H   0  0  0  0  0  0  0  0  0  0  0  0
   -3.4976    0.5795   -0.9070 H   0  0  0  0  0  0  0  0  0  0  0  0
   -4.7980    1.2519    0.7173 H   0  0  0  0  0  0  0  0  0  0  0  0
   -1.4259    0.1521    0.1115 C   0  0  0  0  0  0  0  0  0  0  0  0
   -2.5234   -1.1843   -0.3959 H   0  0  0  0  0  0  0  0  0  0  0  0
   -2.7779   -1.7887    1.5120 H   0  0  0  0  0  0  0  0  0  0  0  0
   -0.2014   -0.6606   -0.1531 C   0  0  0  0  0  0  0  0  0  0  0  0
   -1.0737    0.9827    1.2982 H   0  0  0  0  0  0  0  0  0  0  0  0
   -1.5829    0.4759   -0.5200 H   0  0  0  0  0  0  0  0  0  0  0  0
   -0.1591   -1.0320    0.5811 H   0  0  0  0  0  0  0  0  0  0  0  0
    0.7450    0.1344   -0.2018 H   0  0  0  0  0  0  0  0  0  0  0  0
   -0.5715   -1.3776   -1.0192 H   0  0  0  0  0  0  0  0  0  0  0  0
  1  2  1  0  0  0  0
  3  1  1  0  0  0  0
  4  1  1  0  0  0  0
  6  2  1  0  0  0  0
  6 10  1  0  0  0  0
  7  2  1  0  0  0  0
  9  6  1  0  0  0  0
  9 12  1  0  0  0  0
 11  6  1  0  0  0  0
 13  9  1  0  0  0  0
 14  9  1  0  0  0  0
M  RAD  4   1   2   2   2   5   2   8   2
M  END
$$$$
