butane_opt
 OpenBabel08242015393D

 14  9  0  0  0  0  0  0  0  0999 V2000
   -3.9089    0.3095   -0.1201 C   0  0  0  0  0  0  0  0  0  0  0  0
   -2.6488   -0.6781    0.1952 C   0  0  0  0  0  0  0  0  0  0  0  0
   -4.7145   -0.2205    0.2865 H   0  0  0  0  0  0  0  0  0  0  0  0
   -4.0808    1.2780   -1.2517 H   0  0  0  0  0  0  0  0  0  0  0  0
   -4.0749    0.7572    0.4996 H   0  0  0  0  0  0  0  0  0  0  0  0
   -1.4204    0.0782    0.0739 C   0  0  0  0  0  0  0  0  0  0  0  0
   -2.3389   -1.0766   -0.3725 H   0  0  0  0  0  0  0  0  0  0  0  0
   -2.5783   -1.7544    1.4336 H   0  0  0  0  0  0  0  0  0  0  0  0
   -0.2676   -0.6210   -0.0588 C   0  0  0  0  0  1  0  0  0  0  0  0
   -1.2141    1.0476    0.9841 H   0  0  0  0  0  0  0  0  0  0  0  0
   -1.4685    0.6428   -0.7335 H   0  0  0  0  0  0  0  0  0  0  0  0
   -0.1303   -0.2822    0.1487 H   0  0  0  0  0  0  0  0  0  0  0  0
    0.6446    0.0503    0.7631 H   0  0  0  0  0  0  0  0  0  0  0  0
   -0.1333   -1.9854   -1.4827 H   0  0  0  0  0  0  0  0  0  0  0  0
  1  2  1  0  0  0  0
  1  3  1  0  0  0  0
  1  5  1  0  0  0  0
  4  1  1  0  0  0  0
  6 12  1  0  0  0  0
  6 10  1  0  0  0  0
  7  2  1  0  0  0  0
  9 13  1  0  0  0  0
 11  6  1  0  0  0  0
M  RAD  4   2   3   6   2   8   2  14   2
M  END
$$$$
