butane_opt
 OpenBabel08242015393D

 14 13  0  0  0  0  0  0  0  0999 V2000
   -3.9986    0.3304   -0.1415 C   0  0  0  0  0  0  0  0  0  0  0  0
   -2.7364   -0.6508    0.2584 C   0  0  0  0  0  0  0  0  0  0  0  0
   -4.7288   -0.2167   -0.8178 H   0  0  0  0  0  0  0  0  0  0  0  0
   -3.7442    0.9106   -0.9686 H   0  0  0  0  0  0  0  0  0  0  0  0
   -4.3821    1.0705    0.7889 H   0  0  0  0  0  0  0  0  0  0  0  0
   -1.3501    0.0822    0.1821 C   0  0  0  0  0  0  0  0  0  0  0  0
   -2.2332   -1.3096   -0.5509 H   0  0  0  0  0  0  0  0  0  0  0  0
   -2.8832   -1.5607    1.4195 H   0  0  0  0  0  0  0  0  0  0  0  0
   -0.1428   -0.6225   -0.1776 C   0  0  0  0  0  0  0  0  0  0  0  0
   -1.0071    0.8662    1.2571 H   0  0  0  0  0  0  0  0  0  0  0  0
   -1.5029    0.6032   -0.5529 H   0  0  0  0  0  0  0  0  0  0  0  0
   -0.1413   -1.3144    0.7597 H   0  0  0  0  0  0  0  0  0  0  0  0
    0.7031   -0.0124   -0.3403 H   0  0  0  0  0  0  0  0  0  0  0  0
   -0.3790   -1.1603   -1.0004 H   0  0  0  0  0  0  0  0  0  0  0  0
  1  2  1  0  0  0  0
  1  5  1  0  0  0  0
  2  8  1  0  0  0  0
  3  1  1  0  0  0  0
  4  1  1  0  0  0  0
  6  2  1  0  0  0  0
  6 10  1  0  0  0  0
  7  2  1  0  0  0  0
  9  6  1  0  0  0  0
  9 12  1  0  0  0  0
 11  6  1  0  0  0  0
 13  9  1  0  0  0  0
 14  9  1  0  0  0  0
M  END
$$$$
