butane_opt
 OpenBabel08242015393D

 14 13  0  0  0  0  0  0  0  0999 V2000
   -3.9947    0.2366   -0.0544 C   0  0  0  0  0  0  0  0  0  0  0  0
   -2.7203   -0.5694    0.1096 C   0  0  0  0  0  0  0  0  0  0  0  0
   -5.0416   -0.3387   -0.1582 H   0  0  0  0  0  0  0  0  0  0  0  0
   -3.9576    0.8632   -1.0714 H   0  0  0  0  0  0  0  0  0  0  0  0
   -3.9248    0.7646    0.5923 H   0  0  0  0  0  0  0  0  0  0  0  0
   -1.3654    0.2581    0.1171 C   0  0  0  0  0  0  0  0  0  0  0  0
   -2.8284   -1.2490   -0.6847 H   0  0  0  0  0  0  0  0  0  0  0  0
   -3.0243   -1.2002    1.1070 H   0  0  0  0  0  0  0  0  0  0  0  0
   -0.0851   -0.7331   -0.0515 C   0  0  0  0  0  0  0  0  0  0  0  0
   -1.1169    0.9899    1.0772 H   0  0  0  0  0  0  0  0  0  0  0  0
   -1.6238    0.5041   -0.5566 H   0  0  0  0  0  0  0  0  0  0  0  0
    0.1032   -1.5513    0.9378 H   0  0  0  0  0  0  0  0  0  0  0  0
    0.6220   -0.3086   -0.3925 H   0  0  0  0  0  0  0  0  0  0  0  0
   -0.2215   -1.2630   -0.8534 H   0  0  0  0  0  0  0  0  0  0  0  0
  1  2  1  0  0  0  0
  1  5  1  0  0  0  0
  2  6  1  0  0  0  0
  2  8  1  0  0  0  0
  3  1  1  0  0  0  0
  4  1  1  0  0  0  0
  6 10  1  0  0  0  0
  7  2  1  0  0  0  0
  9  6  1  0  0  0  0
  9 12  1  0  0  0  0
 11  6  1  0  0  0  0
 13  9  1  0  0  0  0
 14  9  1  0  0  0  0
M  END
$$$$
