14
butane_opt
C  -3.986377   0.289770  -0.081176
C  -2.687466  -0.708229   0.199070
H  -4.914286  -0.269432   0.128008
H  -4.116175   1.253707  -1.231260
H  -4.415698   0.662522   0.578554
C  -1.347208   0.186985   0.128760
H  -2.407694  -1.348386  -0.592028
H  -2.991679  -1.163449   0.985862
C  -0.141526  -0.659035  -0.101476
H  -1.255068   0.995583   0.931160
H  -1.622019   0.937133  -0.862550
H  -0.129995  -1.036324   0.513634
H   0.827340  -0.119888   0.452125
H  -0.032488  -1.718350  -1.204910
