14
butane_opt
C  -3.998610   0.330449  -0.141482
C  -2.736384  -0.650771   0.258431
H  -4.728761  -0.216745  -0.817850
H  -3.744234   0.910617  -0.968641
H  -4.382053   1.070472   0.788948
C  -1.350145   0.082246   0.182125
H  -2.233151  -1.309634  -0.550942
H  -2.883171  -1.560675   1.419505
C  -0.142758  -0.622491  -0.177592
H  -1.007056   0.866229   1.257073
H  -1.502862   0.603228  -0.552930
H  -0.141306  -1.314405   0.759717
H   0.703098  -0.012359  -0.340338
H  -0.379011  -1.160253  -1.000386
