butane_opt
 OpenBabel08242015393D

 14 13  0  0  0  0  0  0  0  0999 V2000
   -3.9437    0.2698    0.0103 C   0  0  0  0  0  0  0  0  0  0  0  0
   -2.6991   -0.6213    0.0370 C   0  0  0  0  0  0  0  0  0  0  0  0
   -4.8413   -0.2852    0.1614 H   0  0  0  0  0  0  0  0  0  0  0  0
   -4.0854    1.0081   -0.9565 H   0  0  0  0  0  0  0  0  0  0  0  0
   -3.9346    0.7948    0.7659 H   0  0  0  0  0  0  0  0  0  0  0  0
   -1.4016    0.1722    0.0264 C   0  0  0  0  0  0  0  0  0  0  0  0
   -2.7147   -1.3338   -0.8286 H   0  0  0  0  0  0  0  0  0  0  0  0
   -2.7004   -1.2550    0.9298 H   0  0  0  0  0  0  0  0  0  0  0  0
   -0.1592   -0.6833    0.0291 C   0  0  0  0  0  0  0  0  0  0  0  0
   -1.3957    0.8764    0.9037 H   0  0  0  0  0  0  0  0  0  0  0  0
   -1.4061    0.8153   -0.8377 H   0  0  0  0  0  0  0  0  0  0  0  0
   -0.1006   -1.2288    0.8990 H   0  0  0  0  0  0  0  0  0  0  0  0
    0.7639   -0.0850    0.0289 H   0  0  0  0  0  0  0  0  0  0  0  0
   -0.1704   -1.4226   -0.8852 H   0  0  0  0  0  0  0  0  0  0  0  0
  1  2  1  0  0  0  0
  1  3  1  0  0  0  0
  1  5  1  0  0  0  0
  2  8  1  0  0  0  0
  4  1  1  0  0  0  0
  6  9  1  0  0  0  0
  6  2  1  0  0  0  0
  6 10  1  0  0  0  0
  7  2  1  0  0  0  0
  9 12  1  0  0  0  0
 11  6  1  0  0  0  0
 13  9  1  0  0  0  0
 14  9  1  0  0  0  0
M  END
$$$$
