14
butane_opt
C  -3.889475   0.206700   0.096197
C  -2.715453  -0.545488  -0.033472
H  -4.987583  -0.555700  -0.589933
H  -3.533142   0.206336  -0.412481
H  -4.000836   1.611948   1.466226
C  -1.440870   0.287662  -0.090429
H  -2.929528  -1.275529  -0.925308
H  -2.495410  -1.286075   1.109106
C  -0.180632  -0.769746   0.142505
H  -1.464757   0.580408   0.498003
H  -1.120373   1.207953  -1.262686
H  -0.154139  -1.508615   1.183303
H   0.647242  -0.329622  -0.192919
H  -0.198157  -1.334291  -0.766928
