butane_opt
 OpenBabel08242015393D

 14 13  0  0  0  0  0  0  0  0999 V2000
   -3.9493    0.2511    0.0378 C   0  0  0  0  0  0  0  0  0  0  0  0
   -2.7013   -0.6063    0.0318 C   0  0  0  0  0  0  0  0  0  0  0  0
   -4.8482   -0.3444   -0.0115 H   0  0  0  0  0  0  0  0  0  0  0  0
   -3.9639    0.8535   -0.8703 H   0  0  0  0  0  0  0  0  0  0  0  0
   -3.9740    0.9054    0.9078 H   0  0  0  0  0  0  0  0  0  0  0  0
   -1.4024    0.1986   -0.0169 C   0  0  0  0  0  0  0  0  0  0  0  0
   -2.7348   -1.2638   -0.8002 H   0  0  0  0  0  0  0  0  0  0  0  0
   -2.7181   -1.2352    0.9389 H   0  0  0  0  0  0  0  0  0  0  0  0
   -0.1538   -0.7015    0.0419 C   0  0  0  0  0  0  0  0  0  0  0  0
   -1.4097    0.9210    0.8534 H   0  0  0  0  0  0  0  0  0  0  0  0
   -1.4044    0.8487   -0.9140 H   0  0  0  0  0  0  0  0  0  0  0  0
   -0.1584   -1.3097    0.9215 H   0  0  0  0  0  0  0  0  0  0  0  0
    0.7102   -0.1496    0.1158 H   0  0  0  0  0  0  0  0  0  0  0  0
   -0.0354   -1.4118   -0.8425 H   0  0  0  0  0  0  0  0  0  0  0  0
  1  5  1  0  0  0  0
  2  1  1  0  0  0  0
  2  8  1  0  0  0  0
  3  1  1  0  0  0  0
  4  1  1  0  0  0  0
  6  2  1  0  0  0  0
  6  9  1  0  0  0  0
  6 10  1  0  0  0  0
  7  2  1  0  0  0  0
  9 13  1  0  0  0  0
  9 12  1  0  0  0  0
 11  6  1  0  0  0  0
 14  9  1  0  0  0  0
M  END
$$$$
