14
butane_opt
C  -3.988057   0.267687   0.201032
C  -2.780063  -0.556976  -0.238352
H  -4.949487  -0.421888   0.846666
H  -4.389846   1.095532  -0.820756
H  -3.455265   0.429506   0.787651
C  -1.389676   0.193253  -0.072296
H  -2.885195  -1.552345  -1.278869
H  -2.630464  -0.833648   0.479554
C  -0.117123  -0.720742   0.219015
H  -1.218253   0.599219   0.633044
H  -1.246000   0.986586  -1.196839
H  -0.102905  -1.504916   1.138144
H   0.821728  -0.243821   0.038490
H   0.308288  -1.196074  -0.516090
