butane_opt
 OpenBabel08242015393D

 14 11  0  0  0  0  0  0  0  0999 V2000
   -3.8811    0.2549    0.1775 C   0  0  0  0  0  0  0  0  0  0  0  0
   -2.7270   -0.6222    0.0015 C   0  0  0  0  0  0  0  0  0  0  0  0
   -4.5860   -0.0677   -0.8551 H   0  0  0  0  0  0  0  0  0  0  0  0
   -3.6499    0.3896   -0.5218 H   0  0  0  0  0  0  0  0  0  0  0  0
   -4.1838    1.4966    1.3900 H   0  0  0  0  0  0  0  0  0  0  0  0
   -1.4054    0.1726   -0.1554 C   0  0  0  0  0  0  0  0  0  0  0  0
   -2.9175   -1.3869   -1.0317 H   0  0  0  0  0  0  0  0  0  0  0  0
   -2.4315   -1.1372    0.7420 H   0  0  0  0  0  0  0  0  0  0  0  0
   -0.2266   -0.6821    0.1201 C   0  0  0  0  0  0  0  0  0  0  0  0
   -1.5899    0.4946    0.4977 H   0  0  0  0  0  0  0  0  0  0  0  0
   -1.1889    0.9044   -1.2572 H   0  0  0  0  0  0  0  0  0  0  0  0
   -0.3242   -1.4195    1.1261 H   0  0  0  0  0  0  0  0  0  0  0  0
    0.7508   -0.1629    0.0773 H   0  0  0  0  0  0  0  0  0  0  0  0
   -0.0424   -1.0203   -0.4110 H   0  0  0  0  0  0  0  0  0  0  0  0
  2  1  1  0  0  0  0
  2  8  1  0  0  0  0
  3  1  1  0  0  0  0
  4  1  1  0  0  0  0
  6  9  1  0  0  0  0
  6 10  1  0  0  0  0
  7  2  1  0  0  0  0
  9 12  1  0  0  0  0
 11  6  1  0  0  0  0
 13  9  1  0  0  0  0
 14  9  1  0  0  0  0
M  RAD  4   1   2   2   2   5   2   6   2
M  END
$$$$
