14
butane_opt
C  -3.981784   0.232575   0.136185
C  -2.776182  -0.621524  -0.151370
H  -4.916665  -0.391057   0.800264
H  -4.000433   1.240359  -0.985722
H  -3.657867   0.648444   0.863812
C  -1.386798   0.248584  -0.078541
H  -2.848105  -1.421199  -1.111554
H  -2.431782  -1.060237   0.627076
C  -0.110689  -0.741773   0.144529
H  -1.576055   1.237710   0.954373
H  -1.056124   0.916938  -0.895184
H  -0.159884  -1.700652   1.190596
H   0.614732  -0.147041  -0.013030
H   0.089616  -1.246320  -0.631785
