14
butane_opt
C  -3.947468   0.196372   0.039928
C  -2.749196  -0.529752  -0.072448
H  -5.043186  -0.458270   0.810048
H  -4.276620   1.031057  -0.939607
H  -3.591769   0.750659   0.836441
C  -1.456411   0.185547  -0.037043
H  -2.412326  -1.220580  -0.805078
H  -2.879295  -1.177077   0.873913
C  -0.111102  -0.723304   0.106067
H  -1.383861   1.218927   0.947682
H  -1.325401   0.814120  -0.917669
H   0.088813  -1.425800   0.878919
H   0.787814  -0.103971   0.133730
H   0.188124  -1.475278  -0.796495
