14
butane_opt
C  -3.923996   0.190783   0.139421
C  -2.717715  -0.476802  -0.190491
H  -5.021961  -0.496728   0.718174
H  -4.259902   1.039230  -0.888581
H  -3.414194   0.609124   0.891071
C  -1.419499   0.213464  -0.065009
H  -2.974001  -1.135101  -1.084874
H  -2.488216  -1.150271   0.880258
C  -0.155119  -0.749595   0.160815
H  -1.494675   0.858581   0.746446
H  -1.058543   0.834384  -1.045518
H  -0.190867  -1.516778   1.136284
H   0.709283  -0.279470   0.325362
H  -0.169888  -1.411073  -0.810683
