14
butane_opt
C  -3.994739   0.236628  -0.054437
C  -2.720350  -0.569449   0.109595
H  -5.041571  -0.338741  -0.158207
H  -3.957552   0.863227  -1.071442
H  -3.924848   0.764601   0.592342
C  -1.365402   0.258102   0.117079
H  -2.828382  -1.249026  -0.684693
H  -3.024308  -1.200221   1.106998
C  -0.085080  -0.733099  -0.051475
H  -1.116905   0.989940   1.077199
H  -1.623784   0.504059  -0.556556
H   0.103228  -1.551349   0.937789
H   0.622043  -0.308623  -0.392451
H  -0.221543  -1.262994  -0.853396
