butane_opt
 OpenBabel08242015393D

 14 13  0  0  0  0  0  0  0  0999 V2000
   -3.9263    0.2660    0.0357 C   0  0  0  0  0  0  0  0  0  0  0  0
   -2.7002   -0.6208    0.0241 C   0  0  0  0  0  0  0  0  0  0  0  0
   -4.8371   -0.3130    0.0714 H   0  0  0  0  0  0  0  0  0  0  0  0
   -4.0033    0.8313   -0.8234 H   0  0  0  0  0  0  0  0  0  0  0  0
   -3.9627    0.9640    0.9288 H   0  0  0  0  0  0  0  0  0  0  0  0
   -1.4042    0.1810   -0.0162 C   0  0  0  0  0  0  0  0  0  0  0  0
   -2.7042   -1.3082   -0.8535 H   0  0  0  0  0  0  0  0  0  0  0  0
   -2.6767   -1.1917    0.8681 H   0  0  0  0  0  0  0  0  0  0  0  0
   -0.1752   -0.6950    0.0543 C   0  0  0  0  0  0  0  0  0  0  0  0
   -1.4339    0.8203    0.8079 H   0  0  0  0  0  0  0  0  0  0  0  0
   -1.3564    0.8670   -0.9442 H   0  0  0  0  0  0  0  0  0  0  0  0
   -0.1917   -1.2782    0.9492 H   0  0  0  0  0  0  0  0  0  0  0  0
    0.7259   -0.0932    0.0546 H   0  0  0  0  0  0  0  0  0  0  0  0
   -0.1081   -1.3509   -0.7921 H   0  0  0  0  0  0  0  0  0  0  0  0
  1  3  1  0  0  0  0
  1  5  1  0  0  0  0
  2  1  1  0  0  0  0
  2  8  1  0  0  0  0
  4  1  1  0  0  0  0
  6  2  1  0  0  0  0
  6  9  1  0  0  0  0
  6 10  1  0  0  0  0
  7  2  1  0  0  0  0
  9 13  1  0  0  0  0
  9 12  1  0  0  0  0
 11  6  1  0  0  0  0
 14  9  1  0  0  0  0
M  END
$$$$
