butane_opt
 OpenBabel08242015393D

 14  8  0  0  0  0  0  0  0  0999 V2000
   -3.9380    0.3013   -0.1387 C   0  0  0  0  0  1  0  0  0  0  0  0
   -2.6387   -0.5937    0.1699 C   0  0  0  0  0  0  0  0  0  0  0  0
   -4.8848   -0.2547    0.6902 H   0  0  0  0  0  0  0  0  0  0  0  0
   -4.1879    1.3361   -1.3210 H   0  0  0  0  0  0  0  0  0  0  0  0
   -3.8151    0.1820    0.3459 H   0  0  0  0  0  0  0  0  0  0  0  0
   -1.3851    0.0864    0.1573 C   0  0  0  0  0  0  0  0  0  0  0  0
   -2.4022   -1.3578   -0.7031 H   0  0  0  0  0  0  0  0  0  0  0  0
   -2.6691   -1.2018    1.1330 H   0  0  0  0  0  0  0  0  0  0  0  0
   -0.2193   -0.6212   -0.0775 C   0  0  0  0  0  1  0  0  0  0  0  0
   -1.4535    0.8595    1.1809 H   0  0  0  0  0  0  0  0  0  0  0  0
   -1.4453    0.6736   -0.6556 H   0  0  0  0  0  0  0  0  0  0  0  0
   -0.4401   -0.8200    0.4748 H   0  0  0  0  0  0  0  0  0  0  0  0
    0.7535   -0.0816    0.1813 H   0  0  0  0  0  0  0  0  0  0  0  0
   -0.3046   -1.8687   -1.3449 H   0  0  0  0  0  0  0  0  0  0  0  0
  1  3  1  0  0  0  0
  2  5  1  0  0  0  0
  2  8  1  0  0  0  0
  6 12  1  0  0  0  0
  6 10  1  0  0  0  0
  7  2  1  0  0  0  0
  9 13  1  0  0  0  0
 11  6  1  0  0  0  0
M  RAD  4   2   2   4   2   6   2  14   2
M  END
$$$$
