14
butane_opt
C  -3.959039   0.265731  -0.115663
C  -2.738942  -0.605042   0.281212
H  -5.162906  -0.615736  -0.781956
H  -3.474864   0.671403  -0.895348
H  -4.410744   1.200089   0.732754
C  -1.383783   0.188321   0.074287
H  -2.573376  -0.972260  -0.407693
H  -2.932382  -1.449826   1.314308
C  -0.121042  -0.705929  -0.114951
H  -1.362835   1.255795   1.290452
H  -1.503649   0.719557  -0.711738
H   0.297004  -1.349859   0.697864
H   0.778715  -0.180013  -0.056273
H  -0.243418  -1.537921  -1.209076
