butane_opt
 OpenBabel08242015393D

 14 12  0  0  0  0  0  0  0  0999 V2000
   -3.8686    0.1620   -0.0639 C   0  0  0  0  0  0  0  0  0  0  0  0
   -2.6913   -0.5145    0.1335 C   0  0  0  0  0  0  0  0  0  0  0  0
   -4.8940   -0.5447   -0.0236 H   0  0  0  0  0  0  0  0  0  0  0  0
   -3.7794    1.3473   -1.4111 H   0  0  0  0  0  0  0  0  0  0  0  0
   -3.9308    0.5829    0.5789 H   0  0  0  0  0  0  0  0  0  0  0  0
   -1.4666    0.2752    0.1963 C   0  0  0  0  0  0  0  0  0  0  0  0
   -2.7251   -1.4070   -0.8303 H   0  0  0  0  0  0  0  0  0  0  0  0
   -2.8293   -1.0182    1.0350 H   0  0  0  0  0  0  0  0  0  0  0  0
   -0.1993   -0.7538   -0.1031 C   0  0  0  0  0  0  0  0  0  0  0  0
   -1.2675    1.0714    1.1834 H   0  0  0  0  0  0  0  0  0  0  0  0
   -1.3083    0.7582   -0.6453 H   0  0  0  0  0  0  0  0  0  0  0  0
    0.1812   -1.5996    0.8571 H   0  0  0  0  0  0  0  0  0  0  0  0
    0.6105   -0.4685   -0.3538 H   0  0  0  0  0  0  0  0  0  0  0  0
   -0.2993   -1.2372   -0.9367 H   0  0  0  0  0  0  0  0  0  0  0  0
  1  3  1  0  0  0  0
  1  2  1  0  0  0  0
  1  5  1  0  0  0  0
  2  6  1  0  0  0  0
  2  8  1  0  0  0  0
  6 10  1  0  0  0  0
  7  2  1  0  0  0  0
  9  6  1  0  0  0  0
  9 12  1  0  0  0  0
 11  6  1  0  0  0  0
 13  9  1  0  0  0  0
 14  9  1  0  0  0  0
M  RAD  2   1   2   4   2
M  END
$$$$
