butane_opt
 OpenBabel08242015393D

 14 12  0  0  0  0  0  0  0  0999 V2000
   -4.0187    0.3280   -0.0028 C   0  0  0  0  0  0  0  0  0  0  0  0
   -2.7387   -0.6948   -0.0031 C   0  0  0  0  0  0  0  0  0  0  0  0
   -5.0008   -0.2529    0.1731 H   0  0  0  0  0  0  0  0  0  0  0  0
   -4.0659    0.8988   -0.8907 H   0  0  0  0  0  0  0  0  0  0  0  0
   -3.9113    0.8225    0.7936 H   0  0  0  0  0  0  0  0  0  0  0  0
   -1.3350    0.1846    0.1334 C   0  0  0  0  0  0  0  0  0  0  0  0
   -2.4662   -1.4481   -0.9850 H   0  0  0  0  0  0  0  0  0  0  0  0
   -2.8912   -1.0606    0.6912 H   0  0  0  0  0  0  0  0  0  0  0  0
   -0.1427   -0.6648    0.0175 C   0  0  0  0  0  0  0  0  0  0  0  0
   -1.3554    0.7074    0.7765 H   0  0  0  0  0  0  0  0  0  0  0  0
   -1.3994    0.8852   -0.7209 H   0  0  0  0  0  0  0  0  0  0  0  0
    0.3662   -1.7133    1.3098 H   0  0  0  0  0  0  0  0  0  0  0  0
    0.8205   -0.0077   -0.7078 H   0  0  0  0  0  0  0  0  0  0  0  0
   -0.3502   -1.1259   -0.6860 H   0  0  0  0  0  0  0  0  0  0  0  0
  1  3  1  0  0  0  0
  1  5  1  0  0  0  0
  2  1  1  0  0  0  0
  2  6  1  0  0  0  0
  2  8  1  0  0  0  0
  4  1  1  0  0  0  0
  6 10  1  0  0  0  0
  7  2  1  0  0  0  0
  9  6  1  0  0  0  0
 11  6  1  0  0  0  0
 13  9  1  0  0  0  0
 14  9  1  0  0  0  0
M  RAD  2   9   2  12   2
M  END
$$$$
