14
butane_opt
C  -3.948658   0.253555  -0.174333
C  -2.711740  -0.640758   0.328458
H  -4.762625  -0.283232  -0.552065
H  -3.762620   0.838651  -1.123443
H  -4.421051   0.938871   0.682170
C  -1.434988   0.193928   0.189309
H  -2.908664  -1.177140  -0.642601
H  -2.844073  -1.235401   1.247858
C  -0.085426  -0.686105  -0.154694
H  -1.107117   0.988794   1.120843
H  -1.603623   0.924808  -0.777766
H  -0.094106  -1.147631   0.676405
H   0.697520  -0.197865  -0.128729
H  -0.037825  -1.620383  -1.362426
