butane_opt
 OpenBabel08242015393D

 14 12  0  0  0  0  0  0  0  0999 V2000
   -3.8727    0.2455    0.1389 C   0  0  0  0  0  0  0  0  0  0  0  0
   -2.7226   -0.5632   -0.0096 C   0  0  0  0  0  0  0  0  0  0  0  0
   -4.9783   -0.5054    0.4003 H   0  0  0  0  0  0  0  0  0  0  0  0
   -3.8845    0.7700   -0.7505 H   0  0  0  0  0  0  0  0  0  0  0  0
   -3.9571    0.7945    0.7871 H   0  0  0  0  0  0  0  0  0  0  0  0
   -1.4700    0.2091   -0.1752 C   0  0  0  0  0  0  0  0  0  0  0  0
   -2.4600   -1.4444   -0.9952 H   0  0  0  0  0  0  0  0  0  0  0  0
   -2.5374   -1.0154    0.6968 H   0  0  0  0  0  0  0  0  0  0  0  0
   -0.1694   -0.6953    0.1464 C   0  0  0  0  0  0  0  0  0  0  0  0
   -1.4943    0.6467    0.6523 H   0  0  0  0  0  0  0  0  0  0  0  0
   -1.3943    0.8818   -1.1667 H   0  0  0  0  0  0  0  0  0  0  0  0
   -0.4163   -1.1238    0.9078 H   0  0  0  0  0  0  0  0  0  0  0  0
    0.6650   -0.0281    0.6620 H   0  0  0  0  0  0  0  0  0  0  0  0
    0.2528   -1.8318   -0.9572 H   0  0  0  0  0  0  0  0  0  0  0  0
  1  3  1  0  0  0  0
  1  5  1  0  0  0  0
  2  1  1  0  0  0  0
  2  8  1  0  0  0  0
  4  1  1  0  0  0  0
  6  2  1  0  0  0  0
  6  9  1  0  0  0  0
  6 10  1  0  0  0  0
  7  2  1  0  0  0  0
  9 13  1  0  0  0  0
  9 12  1  0  0  0  0
 11  6  1  0  0  0  0
M  RAD  2   9   2  14   2
M  END
$$$$
