14
butane_opt
C  -3.972755   0.209055   0.140305
C  -2.719565  -0.604372  -0.000445
H  -4.697301  -0.148026  -0.389996
H  -3.846890   0.686575  -0.671015
H  -4.157500   1.386143   1.140001
C  -1.358609   0.186342  -0.166282
H  -3.012501  -1.213741  -0.840269
H  -2.779567  -1.408662   0.999250
C  -0.118468  -0.700817   0.096133
H  -1.640468   0.972910   0.730342
H  -1.388945   1.019881  -1.036390
H  -0.411498  -1.228957   0.932963
H   0.686387  -0.241374   0.444307
H   0.263860  -1.400996  -0.707921
