butane_opt
 OpenBabel08242015393D

 14 13  0  0  0  0  0  0  0  0999 V2000
   -3.9818    0.2326    0.1362 C   0  0  0  0  0  0  0  0  0  0  0  0
   -2.7762   -0.6215   -0.1514 C   0  0  0  0  0  0  0  0  0  0  0  0
   -4.9167   -0.3911    0.8003 H   0  0  0  0  0  0  0  0  0  0  0  0
   -4.0004    1.2404   -0.9857 H   0  0  0  0  0  0  0  0  0  0  0  0
   -3.6579    0.6484    0.8638 H   0  0  0  0  0  0  0  0  0  0  0  0
   -1.3868    0.2486   -0.0785 C   0  0  0  0  0  0  0  0  0  0  0  0
   -2.8481   -1.4212   -1.1116 H   0  0  0  0  0  0  0  0  0  0  0  0
   -2.4318   -1.0602    0.6271 H   0  0  0  0  0  0  0  0  0  0  0  0
   -0.1107   -0.7418    0.1445 C   0  0  0  0  0  0  0  0  0  0  0  0
   -1.5761    1.2377    0.9544 H   0  0  0  0  0  0  0  0  0  0  0  0
   -1.0561    0.9169   -0.8952 H   0  0  0  0  0  0  0  0  0  0  0  0
   -0.1599   -1.7007    1.1906 H   0  0  0  0  0  0  0  0  0  0  0  0
    0.6147   -0.1470   -0.0130 H   0  0  0  0  0  0  0  0  0  0  0  0
    0.0896   -1.2463   -0.6318 H   0  0  0  0  0  0  0  0  0  0  0  0
  1  3  1  0  0  0  0
  1  5  1  0  0  0  0
  2  6  1  0  0  0  0
  2  1  1  0  0  0  0
  2  8  1  0  0  0  0
  4  1  1  0  0  0  0
  6  9  1  0  0  0  0
  6 10  1  0  0  0  0
  7  2  1  0  0  0  0
  9 12  1  0  0  0  0
 11  6  1  0  0  0  0
 13  9  1  0  0  0  0
 14  9  1  0  0  0  0
M  END
$$$$
