butane_opt
 OpenBabel08242015393D

 14  9  0  0  0  0  0  0  0  0999 V2000
   -3.8699    0.2065    0.1073 C   0  0  0  0  0  1  0  0  0  0  0  0
   -2.6787   -0.5344    0.0348 C   0  0  0  0  0  0  0  0  0  0  0  0
   -5.0736   -0.6072   -0.2700 H   0  0  0  0  0  0  0  0  0  0  0  0
   -3.5886    0.2334   -0.4425 H   0  0  0  0  0  0  0  0  0  0  0  0
   -4.1146    1.4930    1.2460 H   0  0  0  0  0  0  0  0  0  0  0  0
   -1.4434    0.2096   -0.1659 C   0  0  0  0  0  0  0  0  0  0  0  0
   -2.7638   -1.4895   -1.0005 H   0  0  0  0  0  0  0  0  0  0  0  0
   -2.6571   -0.8479    0.8210 H   0  0  0  0  0  0  0  0  0  0  0  0
   -0.1703   -0.7523    0.1150 C   0  0  0  0  0  0  0  0  0  0  0  0
   -1.6905    0.8283    0.5772 H   0  0  0  0  0  0  0  0  0  0  0  0
   -1.6169    1.1702   -1.2559 H   0  0  0  0  0  0  0  0  0  0  0  0
   -0.4164   -1.6037    1.1255 H   0  0  0  0  0  0  0  0  0  0  0  0
    0.8010    0.0161    0.2215 H   0  0  0  0  0  0  0  0  0  0  0  0
    0.0820   -1.2855   -0.5737 H   0  0  0  0  0  0  0  0  0  0  0  0
  2  8  1  0  0  0  0
  3  1  1  0  0  0  0
  4  2  1  0  0  0  0
  6  9  1  0  0  0  0
  6 10  1  0  0  0  0
  9 13  1  0  0  0  0
  9 12  1  0  0  0  0
 11  6  1  0  0  0  0
 14  9  1  0  0  0  0
M  RAD  4   2   3   5   2   6   2   7   2
M  END
$$$$
