14
butane_opt
C  -3.901540   0.248025   0.064209
C  -2.654377  -0.595260  -0.072588
H  -4.859041  -0.449988  -0.106284
H  -3.953564   0.603416  -0.718124
H  -3.850547   1.222862   1.172930
C  -1.390166   0.209120   0.041075
H  -2.882962  -1.337856  -0.973843
H  -2.661625  -1.060301   0.640209
C  -0.220276  -0.701971   0.081194
H  -1.438460   0.610409   0.700214
H  -1.340925   1.049380  -0.832268
H  -0.103908  -1.874375   1.327157
H   0.485525  -0.226064  -0.719005
H  -0.375174  -0.943487  -0.370577
