butane_opt
 OpenBabel08242015393D

 14 11  0  0  0  0  0  0  0  0999 V2000
   -3.9263    0.2116   -0.1605 C   0  0  0  0  0  0  0  0  0  0  0  0
   -2.6775   -0.5190    0.2747 C   0  0  0  0  0  0  0  0  0  0  0  0
   -5.0150   -0.5127   -0.5993 H   0  0  0  0  0  0  0  0  0  0  0  0
   -3.7129    0.6642   -0.9980 H   0  0  0  0  0  0  0  0  0  0  0  0
   -3.9580    0.8738    0.7878 H   0  0  0  0  0  0  0  0  0  0  0  0
   -1.4055    0.1807    0.1818 C   0  0  0  0  0  0  0  0  0  0  0  0
   -2.3625   -0.7663   -0.2579 H   0  0  0  0  0  0  0  0  0  0  0  0
   -2.8325   -1.3981    1.3163 H   0  0  0  0  0  0  0  0  0  0  0  0
   -0.1672   -0.6963   -0.1666 C   0  0  0  0  0  0  0  0  0  0  0  0
   -1.5238    0.8537    1.0660 H   0  0  0  0  0  0  0  0  0  0  0  0
   -1.6085    0.7424   -0.8393 H   0  0  0  0  0  0  0  0  0  0  0  0
   -0.2258   -1.0120    0.4333 H   0  0  0  0  0  0  0  0  0  0  0  0
    0.5704   -0.4080    0.1745 H   0  0  0  0  0  0  0  0  0  0  0  0
   -0.1898   -1.6818   -1.2342 H   0  0  0  0  0  0  0  0  0  0  0  0
  1  2  1  0  0  0  0
  1  5  1  0  0  0  0
  2  8  1  0  0  0  0
  3  1  1  0  0  0  0
  4  1  1  0  0  0  0
  6 10  1  0  0  0  0
  7  2  1  0  0  0  0
  9 13  1  0  0  0  0
  9 12  1  0  0  0  0
 11  6  1  0  0  0  0
 14  9  1  0  0  0  0
M  RAD  3   2   2   6   3   9   2
M  END
$$$$
