14
butane_opt
C  -3.855941   0.193042  -0.128913
C  -2.704603  -0.543087   0.095024
H  -4.912402  -0.408580   0.738894
H  -4.122939   1.475074  -1.386996
H  -3.529952   0.225752   0.281906
C  -1.463953   0.203636   0.220346
H  -2.568154  -0.946892  -0.599241
H  -2.846607  -1.396347   1.192664
C  -0.141019  -0.714215  -0.093074
H  -1.451273   1.092355   1.166993
H  -1.787001   0.725408  -0.437644
H  -0.294266  -0.895330   0.469261
H   0.537563  -0.422980   0.055977
H  -0.011696  -1.647368  -1.279317
