14
butane_opt
C  -3.919985   0.327839  -0.142353
C  -2.682894  -0.687222   0.230338
H  -4.773701  -0.331406  -0.247341
H  -3.724559   0.904913  -1.179361
H  -4.304900   1.264166   0.813330
C  -1.375276   0.121116   0.160259
H  -2.273864  -1.260674  -0.545821
H  -2.800041  -1.544529   1.250155
C  -0.223370  -0.640550  -0.082404
H  -1.203197   0.868806   1.093670
H  -1.447045   0.651481  -0.841044
H  -0.085684  -0.948110   0.656487
H   0.737816  -0.026841  -0.324357
H  -0.719592  -1.483421  -1.194806
