butane_opt
 OpenBabel08242015393D

 14 11  0  0  0  0  0  0  0  0999 V2000
   -3.9371    0.1738   -0.0807 C   0  0  0  0  0  0  0  0  0  0  0  0
   -2.7959   -0.5755    0.1633 C   0  0  0  0  0  0  0  0  0  0  0  0
   -4.7305   -0.3692    0.1945 H   0  0  0  0  0  0  0  0  0  0  0  0
   -4.0781    1.4322   -1.4090 H   0  0  0  0  0  0  0  0  0  0  0  0
   -3.9984    0.4497    0.4869 H   0  0  0  0  0  0  0  0  0  0  0  0
   -1.4060    0.2796    0.1134 C   0  0  0  0  0  0  0  0  0  0  0  0
   -2.9082   -0.9162   -0.4266 H   0  0  0  0  0  0  0  0  0  0  0  0
   -2.6738   -1.3094    1.1164 H   0  0  0  0  0  0  0  0  0  0  0  0
   -0.0578   -0.7447   -0.0965 C   0  0  0  0  0  0  0  0  0  0  0  0
   -1.3402    1.1868    1.0977 H   0  0  0  0  0  0  0  0  0  0  0  0
   -1.4523    0.7647   -0.5633 H   0  0  0  0  0  0  0  0  0  0  0  0
   -0.2324   -1.0352    0.4780 H   0  0  0  0  0  0  0  0  0  0  0  0
    0.5741   -0.3134    0.4952 H   0  0  0  0  0  0  0  0  0  0  0  0
    0.2316   -2.0147   -1.3680 H   0  0  0  0  0  0  0  0  0  0  0  0
  1  2  1  0  0  0  0
  1  3  1  0  0  0  0
  1  5  1  0  0  0  0
  2  8  1  0  0  0  0
  6  2  1  0  0  0  0
  6 10  1  0  0  0  0
  7  2  1  0  0  0  0
  9  6  1  0  0  0  0
  9 12  1  0  0  0  0
  9 13  1  0  0  0  0
 11  6  1  0  0  0  0
M  RAD  4   1   2   4   2   9   2  14   2
M  END
$$$$
