14
butane_opt
C  -3.937128   0.173817  -0.080691
C  -2.795905  -0.575515   0.163323
H  -4.730492  -0.369217   0.194450
H  -4.078148   1.432200  -1.409018
H  -3.998375   0.449672   0.486890
C  -1.405988   0.279559   0.113433
H  -2.908243  -0.916241  -0.426633
H  -2.673806  -1.309360   1.116432
C  -0.057785  -0.744691  -0.096456
H  -1.340227   1.186834   1.097705
H  -1.452325   0.764694  -0.563258
H  -0.232416  -1.035248   0.477952
H   0.574093  -0.313353   0.495195
H   0.231624  -2.014659  -1.368018
