butane_opt
 OpenBabel08242015393D

 14 13  0  0  0  0  0  0  0  0999 V2000
   -3.9542    0.2682   -0.0103 C   0  0  0  0  0  0  0  0  0  0  0  0
   -2.6999   -0.6226    0.0752 C   0  0  0  0  0  0  0  0  0  0  0  0
   -4.8647   -0.3107    0.0761 H   0  0  0  0  0  0  0  0  0  0  0  0
   -3.9883    0.9552   -0.9367 H   0  0  0  0  0  0  0  0  0  0  0  0
   -4.0314    0.8566    0.8155 H   0  0  0  0  0  0  0  0  0  0  0  0
   -1.4037    0.1789    0.0286 C   0  0  0  0  0  0  0  0  0  0  0  0
   -2.7288   -1.2713   -0.7775 H   0  0  0  0  0  0  0  0  0  0  0  0
   -2.6767   -1.2488    0.9632 H   0  0  0  0  0  0  0  0  0  0  0  0
   -0.1480   -0.6950    0.0106 C   0  0  0  0  0  0  0  0  0  0  0  0
   -1.3546    0.8577    0.8944 H   0  0  0  0  0  0  0  0  0  0  0  0
   -1.3977    0.8170   -0.8727 H   0  0  0  0  0  0  0  0  0  0  0  0
   -0.1590   -1.1584    0.8145 H   0  0  0  0  0  0  0  0  0  0  0  0
    0.7835   -0.0654    0.1182 H   0  0  0  0  0  0  0  0  0  0  0  0
   -0.1324   -1.4607   -0.9240 H   0  0  0  0  0  0  0  0  0  0  0  0
  1  2  1  0  0  0  0
  1  3  1  0  0  0  0
  1  5  1  0  0  0  0
  2  8  1  0  0  0  0
  4  1  1  0  0  0  0
  6  2  1  0  0  0  0
  6 10  1  0  0  0  0
  7  2  1  0  0  0  0
  9  6  1  0  0  0  0
  9 13  1  0  0  0  0
  9 12  1  0  0  0  0
 11  6  1  0  0  0  0
 14  9  1  0  0  0  0
M  END
$$$$
