14
butane_opt
C  -3.948517   0.177317  -0.154725
C  -2.751280  -0.552841   0.232596
H  -5.021640  -0.377550  -0.017799
H  -3.867285   1.045451  -1.300569
H  -4.067808   0.691506   0.595149
C  -1.410083   0.261169   0.123859
H  -2.681389  -0.921185  -0.307062
H  -2.758377  -1.289506   1.318115
C  -0.117163  -0.781981  -0.109289
H  -1.226485   1.288400   1.181540
H  -1.750811   0.773080  -0.556688
H   0.009692  -0.895016   0.500023
H   0.962709  -0.062462   0.099144
H   0.125641  -2.013189  -1.275271
