14
butane_opt
C  -3.950467   0.318700  -0.110689
C  -2.634327  -0.643788   0.107479
H  -4.672952  -0.128253  -0.153730
H  -3.937624   0.983546  -0.888203
H  -3.807558   0.967988   0.784182
C  -1.416531   0.066411   0.168036
H  -2.311985  -1.417538  -0.710613
H  -2.948920  -1.363246   1.098760
C  -0.219090  -0.617017  -0.076188
H  -1.293848   0.999408   1.116872
H  -1.558399   0.246609  -0.424210
H   0.052151  -1.607421   1.115530
H   0.747553   0.122723  -0.841258
H  -0.707490  -0.694344  -0.669007
