butane_opt
 OpenBabel08242015393D

 14 13  0  0  0  0  0  0  0  0999 V2000
   -3.9367    0.2759   -0.0051 C   0  0  0  0  0  0  0  0  0  0  0  0
   -2.6953   -0.6286    0.0676 C   0  0  0  0  0  0  0  0  0  0  0  0
   -4.8325   -0.3111    0.0333 H   0  0  0  0  0  0  0  0  0  0  0  0
   -3.9808    0.9821   -0.9286 H   0  0  0  0  0  0  0  0  0  0  0  0
   -3.9720    0.8806    0.8207 H   0  0  0  0  0  0  0  0  0  0  0  0
   -1.4056    0.1695    0.0266 C   0  0  0  0  0  0  0  0  0  0  0  0
   -2.6503   -1.2252   -0.7309 H   0  0  0  0  0  0  0  0  0  0  0  0
   -2.7419   -1.3272    1.0089 H   0  0  0  0  0  0  0  0  0  0  0  0
   -0.1732   -0.6792    0.0075 C   0  0  0  0  0  0  0  0  0  0  0  0
   -1.3495    0.8532    0.9019 H   0  0  0  0  0  0  0  0  0  0  0  0
   -1.3627    0.7523   -0.8507 H   0  0  0  0  0  0  0  0  0  0  0  0
   -0.1859   -1.1441    0.7962 H   0  0  0  0  0  0  0  0  0  0  0  0
    0.7308   -0.1167    0.1360 H   0  0  0  0  0  0  0  0  0  0  0  0
   -0.1492   -1.4646   -0.9272 H   0  0  0  0  0  0  0  0  0  0  0  0
  1  3  1  0  0  0  0
  1  2  1  0  0  0  0
  1  5  1  0  0  0  0
  2  8  1  0  0  0  0
  4  1  1  0  0  0  0
  6  2  1  0  0  0  0
  6 10  1  0  0  0  0
  7  2  1  0  0  0  0
  9  6  1  0  0  0  0
  9 13  1  0  0  0  0
  9 12  1  0  0  0  0
 11  6  1  0  0  0  0
 14  9  1  0  0  0  0
M  END
$$$$
