butane_opt
 OpenBabel08242015393D

 14  9  0  0  0  0  0  0  0  0999 V2000
   -3.9462    0.3644    0.0776 C   0  0  0  0  0  0  0  0  0  0  0  0
   -2.6691   -0.6294   -0.0513 C   0  0  0  0  0  0  0  0  0  0  0  0
   -4.9198   -0.2333   -0.2790 H   0  0  0  0  0  0  0  0  0  0  0  0
   -4.0278    0.5683   -0.5783 H   0  0  0  0  0  0  0  0  0  0  0  0
   -3.9599    1.0435    0.9782 H   0  0  0  0  0  0  0  0  0  0  0  0
   -1.3539    0.0357    0.0310 C   0  0  0  0  0  0  0  0  0  0  0  0
   -2.3602   -1.6395   -0.9949 H   0  0  0  0  0  0  0  0  0  0  0  0
   -2.7602   -1.1460    0.8394 H   0  0  0  0  0  0  0  0  0  0  0  0
   -0.2501   -0.5970    0.0579 C   0  0  0  0  0  0  0  0  0  0  0  0
   -1.3049    0.6286    0.9105 H   0  0  0  0  0  0  0  0  0  0  0  0
   -1.3362    0.8304   -1.0691 H   0  0  0  0  0  0  0  0  0  0  0  0
   -0.0923   -1.7880    1.3691 H   0  0  0  0  0  0  0  0  0  0  0  0
    0.7810    0.0564   -0.6255 H   0  0  0  0  0  0  0  0  0  0  0  0
   -0.4673   -0.8301   -0.4163 H   0  0  0  0  0  0  0  0  0  0  0  0
  1  5  1  0  0  0  0
  2  1  1  0  0  0  0
  2  8  1  0  0  0  0
  3  1  1  0  0  0  0
  4  1  1  0  0  0  0
  6  9  1  0  0  0  0
  6 10  1  0  0  0  0
  7  2  1  0  0  0  0
 13  9  1  0  0  0  0
M  RAD  6   2   2   6   3   9   3  11   2  12   2  14   2
M  END
$$$$
