butane_opt
 OpenBabel08242015393D

 14 10  0  0  0  0  0  0  0  0999 V2000
   -3.9504    0.2330   -0.0631 C   0  0  0  0  0  0  0  0  0  0  0  0
   -2.7684   -0.5715    0.1961 C   0  0  0  0  0  0  0  0  0  0  0  0
   -4.9807   -0.5461    0.0956 H   0  0  0  0  0  0  0  0  0  0  0  0
   -3.8898    1.2443   -1.2131 H   0  0  0  0  0  0  0  0  0  0  0  0
   -3.7279    0.5568    0.5967 H   0  0  0  0  0  0  0  0  0  0  0  0
   -1.4423    0.2691    0.0581 C   0  0  0  0  0  0  0  0  0  0  0  0
   -2.7933   -1.2546   -0.6210 H   0  0  0  0  0  0  0  0  0  0  0  0
   -2.8009   -1.2407    1.0922 H   0  0  0  0  0  0  0  0  0  0  0  0
   -0.1082   -0.7546   -0.0331 C   0  0  0  0  0  0  0  0  0  0  0  0
   -1.3870    0.9609    0.9368 H   0  0  0  0  0  0  0  0  0  0  0  0
   -1.1730    0.8742   -1.0449 H   0  0  0  0  0  0  0  0  0  0  0  0
   -0.0555   -0.8394    0.3287 H   0  0  0  0  0  0  0  0  0  0  0  0
    0.8585   -0.1524    0.5910 H   0  0  0  0  0  0  0  0  0  0  0  0
    0.1453   -2.1857   -1.3419 H   0  0  0  0  0  0  0  0  0  0  0  0
  1  3  1  0  0  0  0
  1  2  1  0  0  0  0
  1  5  1  0  0  0  0
  2  8  1  0  0  0  0
  6  2  1  0  0  0  0
  6 10  1  0  0  0  0
  7  2  1  0  0  0  0
  9  6  1  0  0  0  0
  9 13  1  0  0  0  0
 11  6  1  0  0  0  0
M  RAD  5   1   2   4   2   9   3  12   2  14   2
M  END
$$$$
