butane_opt
 OpenBabel08242015393D

 14 10  0  0  0  0  0  0  0  0999 V2000
   -4.0174    0.2796    0.1394 C   0  0  0  0  0  0  0  0  0  0  0  0
   -2.6997   -0.6508   -0.0299 C   0  0  0  0  0  0  0  0  0  0  0  0
   -4.8373   -0.0921   -0.7545 H   0  0  0  0  0  0  0  0  0  0  0  0
   -3.9878    0.2631   -0.3669 H   0  0  0  0  0  0  0  0  0  0  0  0
   -3.9798    1.8466    1.5805 H   0  0  0  0  0  0  0  0  0  0  0  0
   -1.3825    0.1105   -0.2009 C   0  0  0  0  0  0  0  0  0  0  0  0
   -3.0614   -1.3527   -0.9766 H   0  0  0  0  0  0  0  0  0  0  0  0
   -2.6282   -1.2037    0.9472 H   0  0  0  0  0  0  0  0  0  0  0  0
   -0.1027   -0.6545    0.1440 C   0  0  0  0  0  0  0  0  0  0  0  0
   -1.2597    0.7529    0.6417 H   0  0  0  0  0  0  0  0  0  0  0  0
   -1.3818    0.8138   -1.1905 H   0  0  0  0  0  0  0  0  0  0  0  0
   -0.3551   -1.6145    1.2815 H   0  0  0  0  0  0  0  0  0  0  0  0
    0.8293    0.0010   -0.0236 H   0  0  0  0  0  0  0  0  0  0  0  0
    0.0423   -0.8906   -0.2471 H   0  0  0  0  0  0  0  0  0  0  0  0
  2  1  1  0  0  0  0
  2  8  1  0  0  0  0
  3  1  1  0  0  0  0
  6  2  1  0  0  0  0
  6  9  1  0  0  0  0
  6 10  1  0  0  0  0
  7  2  1  0  0  0  0
  9 12  1  0  0  0  0
 11  6  1  0  0  0  0
 13  9  1  0  0  0  0
M  RAD  5   1   3   4   2   5   2   9   2  14   2
M  END
$$$$
