butane_opt
 OpenBabel08242015393D

 14 12  0  0  0  0  0  0  0  0999 V2000
   -3.9912    0.1977   -0.0916 C   0  0  0  0  0  0  0  0  0  0  0  0
   -2.7442   -0.5409    0.1694 C   0  0  0  0  0  0  0  0  0  0  0  0
   -4.9474   -0.4996   -0.3255 H   0  0  0  0  0  0  0  0  0  0  0  0
   -3.6334    0.6542   -0.8311 H   0  0  0  0  0  0  0  0  0  0  0  0
   -4.2910    1.3311    1.0060 H   0  0  0  0  0  0  0  0  0  0  0  0
   -1.3596    0.2432    0.0960 C   0  0  0  0  0  0  0  0  0  0  0  0
   -2.8737   -0.9122   -0.5056 H   0  0  0  0  0  0  0  0  0  0  0  0
   -3.0575   -1.2694    1.1103 H   0  0  0  0  0  0  0  0  0  0  0  0
   -0.0926   -0.7631   -0.0882 C   0  0  0  0  0  0  0  0  0  0  0  0
   -1.2366    0.9044    0.8912 H   0  0  0  0  0  0  0  0  0  0  0  0
   -1.6571    0.6656   -0.7600 H   0  0  0  0  0  0  0  0  0  0  0  0
   -0.0679   -1.4804    0.7409 H   0  0  0  0  0  0  0  0  0  0  0  0
    0.8941   -0.1980    0.0030 H   0  0  0  0  0  0  0  0  0  0  0  0
    0.1185   -1.3121   -0.8375 H   0  0  0  0  0  0  0  0  0  0  0  0
  1  2  1  0  0  0  0
  2  8  1  0  0  0  0
  3  1  1  0  0  0  0
  4  1  1  0  0  0  0
  6  2  1  0  0  0  0
  6 10  1  0  0  0  0
  7  2  1  0  0  0  0
  9 13  1  0  0  0  0
  9  6  1  0  0  0  0
  9 12  1  0  0  0  0
 11  6  1  0  0  0  0
 14  9  1  0  0  0  0
M  RAD  2   1   2   5   2
M  END
$$$$
