butane_opt
 OpenBabel08242015393D

 14 10  0  0  0  0  0  0  0  0999 V2000
   -3.9242    0.3187    0.1501 C   0  0  0  0  0  1  0  0  0  0  0  0
   -2.6409   -0.6343   -0.1064 C   0  0  0  0  0  0  0  0  0  0  0  0
   -4.7417   -0.3482   -0.3199 H   0  0  0  0  0  0  0  0  0  0  0  0
   -3.7050    0.0549   -0.0874 H   0  0  0  0  0  0  0  0  0  0  0  0
   -4.0245    1.5612    1.3747 H   0  0  0  0  0  0  0  0  0  0  0  0
   -1.3828    0.1681   -0.1590 C   0  0  0  0  0  0  0  0  0  0  0  0
   -2.6297   -1.2816   -0.8915 H   0  0  0  0  0  0  0  0  0  0  0  0
   -2.7230   -1.3442    0.7738 H   0  0  0  0  0  0  0  0  0  0  0  0
   -0.2948   -0.6899    0.1542 C   0  0  0  0  0  0  0  0  0  0  0  0
   -1.3761    0.5977    0.4917 H   0  0  0  0  0  0  0  0  0  0  0  0
   -1.3211    0.9167   -1.2045 H   0  0  0  0  0  0  0  0  0  0  0  0
   -0.3509   -1.6205    1.3774 H   0  0  0  0  0  0  0  0  0  0  0  0
    0.7491    0.0462   -0.0538 H   0  0  0  0  0  0  0  0  0  0  0  0
   -0.0370   -0.9796   -0.3489 H   0  0  0  0  0  0  0  0  0  0  0  0
  2  4  1  0  0  0  0
  2  8  1  0  0  0  0
  3  1  1  0  0  0  0
  6  2  1  0  0  0  0
  6  9  1  0  0  0  0
  6 10  1  0  0  0  0
  7  2  1  0  0  0  0
 11  6  1  0  0  0  0
 13  9  1  0  0  0  0
 14  9  1  0  0  0  0
M  RAD  3   5   2   9   2  12   2
M  END
$$$$
