14
butane_opt
C  -3.920724   0.299694  -0.206836
C  -2.642774  -0.664864   0.222171
H  -4.765812  -0.241312  -0.185955
H  -3.941803   1.081263  -1.188025
H  -4.300279   1.056394   0.706889
C  -1.366004   0.136728   0.264354
H  -2.703079  -1.093035  -0.491109
H  -3.098384  -1.532728   1.362469
C  -0.242188  -0.671477  -0.162193
H  -1.402803   1.181336   1.379921
H  -1.296695   0.421132  -0.559842
H   0.246999  -1.401219   0.735309
H   0.959979   0.041905  -0.670841
H  -0.683979  -1.131503  -1.053074
