butane_opt
 OpenBabel08242015393D

 14 13  0  0  0  0  0  0  0  0999 V2000
   -4.0038    0.3167   -0.1035 C   0  0  0  0  0  0  0  0  0  0  0  0
   -2.7310   -0.7144    0.1467 C   0  0  0  0  0  0  0  0  0  0  0  0
   -4.9115   -0.4204   -0.0387 H   0  0  0  0  0  0  0  0  0  0  0  0
   -4.1665    1.3109   -1.1930 H   0  0  0  0  0  0  0  0  0  0  0  0
   -4.1158    0.7085    0.5684 H   0  0  0  0  0  0  0  0  0  0  0  0
   -1.3787    0.1793    0.2322 C   0  0  0  0  0  0  0  0  0  0  0  0
   -2.4889   -1.4664   -0.8699 H   0  0  0  0  0  0  0  0  0  0  0  0
   -2.4633   -1.1222    0.8568 H   0  0  0  0  0  0  0  0  0  0  0  0
   -0.1207   -0.6545   -0.1195 C   0  0  0  0  0  0  0  0  0  0  0  0
   -1.0451    0.8865    1.1050 H   0  0  0  0  0  0  0  0  0  0  0  0
   -1.5362    0.6961   -0.5395 H   0  0  0  0  0  0  0  0  0  0  0  0
    0.1632   -1.5453    0.8478 H   0  0  0  0  0  0  0  0  0  0  0  0
    0.6720   -0.1645   -0.4664 H   0  0  0  0  0  0  0  0  0  0  0  0
   -0.2921   -0.8785   -0.6960 H   0  0  0  0  0  0  0  0  0  0  0  0
  1  3  1  0  0  0  0
  1  2  1  0  0  0  0
  1  5  1  0  0  0  0
  2  6  1  0  0  0  0
  2  8  1  0  0  0  0
  4  1  1  0  0  0  0
  6 10  1  0  0  0  0
  7  2  1  0  0  0  0
  9  6  1  0  0  0  0
  9 12  1  0  0  0  0
 11  6  1  0  0  0  0
 13  9  1  0  0  0  0
 14  9  1  0  0  0  0
M  END
$$$$
