14
butane_opt
C  -4.000176   0.310143   0.092144
C  -2.741118  -0.674762   0.023124
H  -4.486677  -0.059677  -0.466017
H  -4.064905   0.256853  -0.259060
H  -4.388092   1.562669   1.330228
C  -1.335539   0.147729  -0.152377
H  -2.966336  -1.522634  -0.945878
H  -2.492542  -1.169072   0.792781
C  -0.164685  -0.667741   0.127072
H  -1.229283   0.623005   0.406578
H  -1.303953   1.008761  -1.231693
H  -0.199287  -1.424519   1.160732
H   0.917815   0.099478   0.210993
H   0.043071  -1.192502  -0.550014
