butane_opt
 OpenBabel08242015393D

 14  9  0  0  0  0  0  0  0  0999 V2000
   -3.9625    0.3052   -0.1514 C   0  0  0  0  0  0  0  0  0  0  0  0
   -2.6317   -0.6330    0.2111 C   0  0  0  0  0  0  0  0  0  0  0  0
   -4.8475   -0.1833    0.0794 H   0  0  0  0  0  0  0  0  0  0  0  0
   -4.2331    1.0622   -1.0834 H   0  0  0  0  0  0  0  0  0  0  0  0
   -3.8483    0.7747    0.7596 H   0  0  0  0  0  0  0  0  0  0  0  0
   -1.3948    0.0364    0.1103 C   0  0  0  0  0  0  0  0  0  0  0  0
   -2.2227   -1.0418   -0.4298 H   0  0  0  0  0  0  0  0  0  0  0  0
   -2.6161   -1.5699    1.2483 H   0  0  0  0  0  0  0  0  0  0  0  0
   -0.2733   -0.6353   -0.1013 C   0  0  0  0  0  0  0  0  0  0  0  0
   -1.2169    1.0383    1.1202 H   0  0  0  0  0  0  0  0  0  0  0  0
   -1.3093    0.7403   -0.7671 H   0  0  0  0  0  0  0  0  0  0  0  0
   -0.3065   -0.6833    0.4394 H   0  0  0  0  0  0  0  0  0  0  0  0
    0.7656    0.2098    0.3916 H   0  0  0  0  0  0  0  0  0  0  0  0
   -0.0625   -1.7070   -1.2249 H   0  0  0  0  0  0  0  0  0  0  0  0
  1  3  1  0  0  0  0
  1  2  1  0  0  0  0
  1  5  1  0  0  0  0
  2  8  1  0  0  0  0
  4  1  1  0  0  0  0
  7  2  1  0  0  0  0
  9  6  1  0  0  0  0
  9 13  1  0  0  0  0
 11  6  1  0  0  0  0
M  RAD  6   2   2   6   3   9   3  10   2  12   2  14   2
M  END
$$$$
