14
butane_opt
C  -3.990851   0.255158   0.119615
C  -2.721426  -0.558120  -0.074053
H  -4.883584  -0.358544  -0.158446
H  -3.762093   0.409733  -0.445020
H  -4.242612   1.125953   1.104721
C  -1.356344   0.209872  -0.097823
H  -3.104750  -1.240058  -0.895923
H  -2.649379  -1.169403   0.740183
C  -0.109937  -0.728393   0.135551
H  -1.277558   0.828887   0.599720
H  -1.363294   0.722798  -0.996287
H  -0.113413  -1.636070   1.355975
H   0.676089  -0.260834  -0.178260
H  -0.141158  -1.060842  -0.605220
