butane_opt
 OpenBabel08242015393D

 14  9  0  0  0  0  0  0  0  0999 V2000
   -3.8305    0.2076    0.0850 C   0  0  0  0  0  1  0  0  0  0  0  0
   -2.7134   -0.5334    0.0443 C   0  0  0  0  0  0  0  0  0  0  0  0
   -4.7053   -0.4338   -0.7439 H   0  0  0  0  0  0  0  0  0  0  0  0
   -3.5424   -0.0001   -0.1211 H   0  0  0  0  0  0  0  0  0  0  0  0
   -4.2601    1.4608    1.2947 H   0  0  0  0  0  0  0  0  0  0  0  0
   -1.5156    0.2202   -0.1316 C   0  0  0  0  0  0  0  0  0  0  0  0
   -2.7732   -1.4208   -0.9655 H   0  0  0  0  0  0  0  0  0  0  0  0
   -2.7458   -0.8908    0.9248 H   0  0  0  0  0  0  0  0  0  0  0  0
   -0.1695   -0.7235    0.1308 C   0  0  0  0  0  0  0  0  0  0  0  0
   -1.2376    0.6192    0.5204 H   0  0  0  0  0  0  0  0  0  0  0  0
   -1.6317    1.1852   -1.2834 H   0  0  0  0  0  0  0  0  0  0  0  0
   -0.1655   -1.5831    1.1282 H   0  0  0  0  0  0  0  0  0  0  0  0
    0.7558   -0.2478   -0.2012 H   0  0  0  0  0  0  0  0  0  0  0  0
    0.0421   -1.2510   -0.5437 H   0  0  0  0  0  0  0  0  0  0  0  0
  2  8  1  0  0  0  0
  3  1  1  0  0  0  0
  4  2  1  0  0  0  0
  6  9  1  0  0  0  0
  6 10  1  0  0  0  0
  9 12  1  0  0  0  0
 11  6  1  0  0  0  0
 13  9  1  0  0  0  0
 14  9  1  0  0  0  0
M  RAD  4   2   3   5   2   6   2   7   2
M  END
$$$$
