butane_opt
 OpenBabel08242015393D

 14 13  0  0  0  0  0  0  0  0999 V2000
   -4.0495    0.3138    0.1777 C   0  0  0  0  0  0  0  0  0  0  0  0
   -2.6697   -0.6872   -0.2106 C   0  0  0  0  0  0  0  0  0  0  0  0
   -4.9675   -0.2642    0.8329 H   0  0  0  0  0  0  0  0  0  0  0  0
   -4.5825    1.2884   -0.7993 H   0  0  0  0  0  0  0  0  0  0  0  0
   -3.6728    0.9832    0.8959 H   0  0  0  0  0  0  0  0  0  0  0  0
   -1.3895    0.0807   -0.1315 C   0  0  0  0  0  0  0  0  0  0  0  0
   -2.6842   -1.4571   -1.0926 H   0  0  0  0  0  0  0  0  0  0  0  0
   -2.5177   -1.1437    0.4706 H   0  0  0  0  0  0  0  0  0  0  0  0
   -0.1292   -0.6083    0.2019 C   0  0  0  0  0  0  0  0  0  0  0  0
   -1.1400    0.7999    0.7198 H   0  0  0  0  0  0  0  0  0  0  0  0
   -1.2586    0.5498   -0.9505 H   0  0  0  0  0  0  0  0  0  0  0  0
   -0.3627   -1.3526    1.2909 H   0  0  0  0  0  0  0  0  0  0  0  0
    0.8308    0.0090    0.0281 H   0  0  0  0  0  0  0  0  0  0  0  0
    0.1627   -1.0428   -0.3990 H   0  0  0  0  0  0  0  0  0  0  0  0
  1  3  1  0  0  0  0
  1  5  1  0  0  0  0
  2  6  1  0  0  0  0
  2  1  1  0  0  0  0
  2  8  1  0  0  0  0
  4  1  1  0  0  0  0
  6  9  1  0  0  0  0
  6 10  1  0  0  0  0
  7  2  1  0  0  0  0
  9 12  1  0  0  0  0
 11  6  1  0  0  0  0
 13  9  1  0  0  0  0
 14  9  1  0  0  0  0
M  END
$$$$
