butane_opt
 OpenBabel08242015393D

 14 13  0  0  0  0  0  0  0  0999 V2000
   -4.0412    0.2991   -0.1135 C   0  0  0  0  0  0  0  0  0  0  0  0
   -2.6933   -0.6448    0.3017 C   0  0  0  0  0  0  0  0  0  0  0  0
   -4.7219   -0.2478   -0.7041 H   0  0  0  0  0  0  0  0  0  0  0  0
   -3.4316    0.7896   -1.0723 H   0  0  0  0  0  0  0  0  0  0  0  0
   -4.5151    1.2235    0.6973 H   0  0  0  0  0  0  0  0  0  0  0  0
   -1.3979    0.1015    0.1366 C   0  0  0  0  0  0  0  0  0  0  0  0
   -2.6615   -1.2720   -0.4180 H   0  0  0  0  0  0  0  0  0  0  0  0
   -2.7684   -1.3065    1.2199 H   0  0  0  0  0  0  0  0  0  0  0  0
   -0.1028   -0.6454   -0.1761 C   0  0  0  0  0  0  0  0  0  0  0  0
   -1.2687    0.6559    0.9397 H   0  0  0  0  0  0  0  0  0  0  0  0
   -1.4094    0.6867   -0.7222 H   0  0  0  0  0  0  0  0  0  0  0  0
   -0.0589   -0.9327    0.5240 H   0  0  0  0  0  0  0  0  0  0  0  0
    0.7764   -0.0563    0.2572 H   0  0  0  0  0  0  0  0  0  0  0  0
   -0.1792   -1.3072   -1.0506 H   0  0  0  0  0  0  0  0  0  0  0  0
  1  2  1  0  0  0  0
  1  5  1  0  0  0  0
  2  8  1  0  0  0  0
  3  1  1  0  0  0  0
  4  1  1  0  0  0  0
  6  2  1  0  0  0  0
  6 10  1  0  0  0  0
  7  2  1  0  0  0  0
  9  6  1  0  0  0  0
  9 13  1  0  0  0  0
  9 12  1  0  0  0  0
 11  6  1  0  0  0  0
 14  9  1  0  0  0  0
M  END
$$$$
