butane_opt
 OpenBabel08242015393D

 14 10  0  0  0  0  0  0  0  0999 V2000
   -3.9772    0.2654   -0.0901 C   0  0  0  0  0  1  0  0  0  0  0  0
   -2.7451   -0.6171    0.1026 C   0  0  0  0  0  0  0  0  0  0  0  0
   -4.9002   -0.4487    0.5832 H   0  0  0  0  0  0  0  0  0  0  0  0
   -4.0485    1.3165   -1.3900 H   0  0  0  0  0  0  0  0  0  0  0  0
   -3.7509    0.3144    0.4311 H   0  0  0  0  0  0  0  0  0  0  0  0
   -1.3771    0.2738    0.1743 C   0  0  0  0  0  0  0  0  0  0  0  0
   -2.7073   -1.3900   -0.8046 H   0  0  0  0  0  0  0  0  0  0  0  0
   -2.8715   -1.4693    1.1317 H   0  0  0  0  0  0  0  0  0  0  0  0
   -0.1235   -0.7333   -0.0611 C   0  0  0  0  0  0  0  0  0  0  0  0
   -1.3242    0.9261    0.9829 H   0  0  0  0  0  0  0  0  0  0  0  0
   -1.6494    1.0322   -0.6214 H   0  0  0  0  0  0  0  0  0  0  0  0
    0.3137   -0.9957    0.4007 H   0  0  0  0  0  0  0  0  0  0  0  0
    0.6286   -0.2547    0.2995 H   0  0  0  0  0  0  0  0  0  0  0  0
   -0.0470   -1.7455   -1.1335 H   0  0  0  0  0  0  0  0  0  0  0  0
  1  3  1  0  0  0  0
  2  5  1  0  0  0  0
  2  8  1  0  0  0  0
  6 10  1  0  0  0  0
  7  2  1  0  0  0  0
  9  6  1  0  0  0  0
  9 13  1  0  0  0  0
  9 12  1  0  0  0  0
 11  6  1  0  0  0  0
 14  9  1  0  0  0  0
M  RAD  3   2   2   4   2   6   2
M  END
$$$$
