14
butane_opt
C  -4.018325   0.269611  -0.081416
C  -2.710454  -0.712364   0.161265
H  -4.715868  -0.066499   0.013680
H  -3.804096   1.305615  -1.202547
H  -4.210458   0.745569   0.466571
C  -1.419679   0.208234   0.109093
H  -2.569889  -1.081738  -0.394357
H  -2.772228  -1.516877   1.341362
C  -0.082120  -0.687209  -0.110908
H  -1.351641   1.067688   1.136608
H  -1.332408   0.540986  -0.540464
H  -0.270932  -0.678256   0.460936
H   0.782546  -0.089438   0.189069
H  -0.021226  -1.631933  -1.074573
