14
butane_opt
C  -4.043050   0.307773   0.092902
C  -2.706515  -0.658030  -0.089745
H  -5.080860  -0.260233  -0.041858
H  -3.681577   0.623978  -0.635317
H  -3.933721   1.291633   1.258215
C  -1.372893   0.150385  -0.010615
H  -2.866180  -1.539839  -0.974915
H  -2.804182  -1.022451   0.557637
C  -0.110091  -0.673193   0.074467
H  -1.398596   0.876105   0.929717
H  -1.171050   0.894762  -0.946590
H  -0.056601  -2.171984   1.589945
H   0.856858  -0.053625  -0.675181
H  -0.159288  -0.609206  -0.319501
