14
butane_opt
C  -3.935673   0.256016   0.052652
C  -2.702930  -0.604246   0.015838
H  -4.843740  -0.353475   0.015856
H  -3.922848   0.862255  -0.866800
H  -3.923638   0.941821   0.913863
C  -1.417953   0.192459  -0.020965
H  -2.714665  -1.336216  -0.850927
H  -2.687245  -1.221911   0.883431
C  -0.160323  -0.698724   0.056777
H  -1.435754   0.851847   0.810761
H  -1.404608   0.856955  -0.945379
H  -0.172359  -1.334371   0.967137
H   0.771162  -0.085704   0.065813
H  -0.093559  -1.393319  -0.804829
