14
butane_opt
C  -3.925735   0.332617   0.187685
C  -2.635508  -0.725015  -0.214540
H  -4.709308  -0.205104   0.685451
H  -4.239250   1.379710  -0.858448
H  -3.529394   0.773571   0.975971
C  -1.411071   0.106785  -0.120104
H  -2.930383  -1.431736  -1.189365
H  -2.222128  -1.162397   0.601237
C  -0.278005  -0.634002   0.169100
H  -1.334942   0.753410   0.740669
H  -1.102162   0.745813  -0.934011
H  -0.448901  -1.326752   1.216300
H   0.604283   0.001030   0.348278
H  -0.126411  -0.944508  -0.446348
