butane_opt
 OpenBabel08242015393D

 14 10  0  0  0  0  0  0  0  0999 V2000
   -3.9909    0.2552    0.1196 C   0  0  0  0  0  0  0  0  0  0  0  0
   -2.7214   -0.5581   -0.0741 C   0  0  0  0  0  0  0  0  0  0  0  0
   -4.8836   -0.3585   -0.1584 H   0  0  0  0  0  0  0  0  0  0  0  0
   -3.7621    0.4097   -0.4450 H   0  0  0  0  0  0  0  0  0  0  0  0
   -4.2426    1.1260    1.1047 H   0  0  0  0  0  0  0  0  0  0  0  0
   -1.3563    0.2099   -0.0978 C   0  0  0  0  0  0  0  0  0  0  0  0
   -3.1048   -1.2401   -0.8959 H   0  0  0  0  0  0  0  0  0  0  0  0
   -2.6494   -1.1694    0.7402 H   0  0  0  0  0  0  0  0  0  0  0  0
   -0.1099   -0.7284    0.1356 C   0  0  0  0  0  0  0  0  0  0  0  0
   -1.2776    0.8289    0.5997 H   0  0  0  0  0  0  0  0  0  0  0  0
   -1.3633    0.7228   -0.9963 H   0  0  0  0  0  0  0  0  0  0  0  0
   -0.1134   -1.6361    1.3560 H   0  0  0  0  0  0  0  0  0  0  0  0
    0.6761   -0.2608   -0.1783 H   0  0  0  0  0  0  0  0  0  0  0  0
   -0.1412   -1.0608   -0.6052 H   0  0  0  0  0  0  0  0  0  0  0  0
  1  5  1  0  0  0  0
  2  8  1  0  0  0  0
  3  1  1  0  0  0  0
  4  2  1  0  0  0  0
  6  9  1  0  0  0  0
  6 10  1  0  0  0  0
  7  2  1  0  0  0  0
 11  6  1  0  0  0  0
 13  9  1  0  0  0  0
 14  9  1  0  0  0  0
M  RAD  5   1   3   2   2   6   2   9   2  12   2
M  END
$$$$
