butane_opt
 OpenBabel08242015393D

 14 12  0  0  0  0  0  0  0  0999 V2000
   -3.9116    0.2251    0.1212 C   0  0  0  0  0  0  0  0  0  0  0  0
   -2.7252   -0.6038   -0.0271 C   0  0  0  0  0  0  0  0  0  0  0  0
   -4.7510   -0.3230   -0.1110 H   0  0  0  0  0  0  0  0  0  0  0  0
   -3.7775    0.7520   -0.7004 H   0  0  0  0  0  0  0  0  0  0  0  0
   -4.2949    1.2251    1.2305 H   0  0  0  0  0  0  0  0  0  0  0  0
   -1.4143    0.2241   -0.1657 C   0  0  0  0  0  0  0  0  0  0  0  0
   -3.2273   -1.0390   -0.8169 H   0  0  0  0  0  0  0  0  0  0  0  0
   -2.7693   -1.4851    0.9572 H   0  0  0  0  0  0  0  0  0  0  0  0
   -0.0993   -0.7162    0.1071 C   0  0  0  0  0  0  0  0  0  0  0  0
   -1.3516    0.9287    0.7719 H   0  0  0  0  0  0  0  0  0  0  0  0
   -1.4572    0.8946   -1.0841 H   0  0  0  0  0  0  0  0  0  0  0  0
   -0.4098   -1.1380    1.0569 H   0  0  0  0  0  0  0  0  0  0  0  0
    0.6138   -0.2578    0.5639 H   0  0  0  0  0  0  0  0  0  0  0  0
    0.2293   -1.6130   -0.8445 H   0  0  0  0  0  0  0  0  0  0  0  0
  2  1  1  0  0  0  0
  2  8  1  0  0  0  0
  3  1  1  0  0  0  0
  4  1  1  0  0  0  0
  6  2  1  0  0  0  0
  6  9  1  0  0  0  0
  6 10  1  0  0  0  0
  7  2  1  0  0  0  0
  9 13  1  0  0  0  0
  9 12  1  0  0  0  0
 11  6  1  0  0  0  0
 14  9  1  0  0  0  0
M  RAD  2   1   2   5   2
M  END
$$$$
