butane_opt
 OpenBabel08242015393D

 14 13  0  0  0  0  0  0  0  0999 V2000
   -3.9667    0.2003    0.0744 C   0  0  0  0  0  0  0  0  0  0  0  0
   -2.7351   -0.5439    0.0433 C   0  0  0  0  0  0  0  0  0  0  0  0
   -5.0112   -0.4713   -0.1477 H   0  0  0  0  0  0  0  0  0  0  0  0
   -3.8828    0.5876   -0.8001 H   0  0  0  0  0  0  0  0  0  0  0  0
   -3.9218    1.0208    1.0309 H   0  0  0  0  0  0  0  0  0  0  0  0
   -1.3963    0.3094   -0.0902 C   0  0  0  0  0  0  0  0  0  0  0  0
   -2.5813   -1.1331   -0.7159 H   0  0  0  0  0  0  0  0  0  0  0  0
   -2.7248   -1.3808    0.8849 H   0  0  0  0  0  0  0  0  0  0  0  0
   -0.1488   -0.7912    0.0258 C   0  0  0  0  0  0  0  0  0  0  0  0
   -1.3331    0.9148    0.7561 H   0  0  0  0  0  0  0  0  0  0  0  0
   -1.4793    0.8122   -0.9101 H   0  0  0  0  0  0  0  0  0  0  0  0
   -0.2400   -1.2711    0.8195 H   0  0  0  0  0  0  0  0  0  0  0  0
    0.7922   -0.2866    0.5919 H   0  0  0  0  0  0  0  0  0  0  0  0
    0.3595   -1.3609   -0.6644 H   0  0  0  0  0  0  0  0  0  0  0  0
  1  5  1  0  0  0  0
  2  1  1  0  0  0  0
  2  8  1  0  0  0  0
  3  1  1  0  0  0  0
  4  1  1  0  0  0  0
  6  9  1  0  0  0  0
  6  2  1  0  0  0  0
  6 10  1  0  0  0  0
  7  2  1  0  0  0  0
  9 13  1  0  0  0  0
  9 12  1  0  0  0  0
 11  6  1  0  0  0  0
 14  9  1  0  0  0  0
M  END
$$$$
