14
butane_opt
C  -3.942328   0.228651   0.177771
C  -2.761388  -0.534883  -0.073881
H  -4.945651  -0.568097   0.067860
H  -3.820222   0.799442  -0.644360
H  -3.872224   1.013560   1.258219
C  -1.427653   0.210629  -0.204798
H  -2.922005  -1.428355  -1.085840
H  -2.725864  -1.057175   0.774719
C  -0.085223  -0.744198   0.170706
H  -1.455393   0.617655   0.629611
H  -1.128613   1.123931  -1.295663
H  -0.318622  -1.147749   1.009961
H   0.598437  -0.377409   0.651024
H   0.209154  -1.411820  -0.759218
