butane_opt
 OpenBabel08242015393D

 14 12  0  0  0  0  0  0  0  0999 V2000
   -3.9705    0.2226    0.1662 C   0  0  0  0  0  0  0  0  0  0  0  0
   -2.7087   -0.6210   -0.1964 C   0  0  0  0  0  0  0  0  0  0  0  0
   -4.6586   -0.2105    0.9815 H   0  0  0  0  0  0  0  0  0  0  0  0
   -4.4214    1.1672   -0.9537 H   0  0  0  0  0  0  0  0  0  0  0  0
   -3.4875    0.5780    0.8821 H   0  0  0  0  0  0  0  0  0  0  0  0
   -1.4012    0.2070   -0.1078 C   0  0  0  0  0  0  0  0  0  0  0  0
   -3.0651   -1.4879   -1.2028 H   0  0  0  0  0  0  0  0  0  0  0  0
   -2.5813   -0.9380    0.4535 H   0  0  0  0  0  0  0  0  0  0  0  0
   -0.1224   -0.7038    0.2151 C   0  0  0  0  0  0  0  0  0  0  0  0
   -1.8391    0.8818    0.7008 H   0  0  0  0  0  0  0  0  0  0  0  0
   -1.2205    1.2026   -1.1307 H   0  0  0  0  0  0  0  0  0  0  0  0
    0.1261   -1.2935    1.1556 H   0  0  0  0  0  0  0  0  0  0  0  0
    0.6780   -0.2943    0.2723 H   0  0  0  0  0  0  0  0  0  0  0  0
   -0.1403   -1.3287   -0.6771 H   0  0  0  0  0  0  0  0  0  0  0  0
  1  5  1  0  0  0  0
  1  3  1  0  0  0  0
  2  6  1  0  0  0  0
  2  1  1  0  0  0  0
  2  8  1  0  0  0  0
  6  9  1  0  0  0  0
  6 10  1  0  0  0  0
  7  2  1  0  0  0  0
  9 13  1  0  0  0  0
  9 12  1  0  0  0  0
 11  6  1  0  0  0  0
 14  9  1  0  0  0  0
M  RAD  2   1   2   4   2
M  END
$$$$
