14
butane_opt
C  -3.951947   0.183662   0.160474
C  -2.751500  -0.504726  -0.135278
H  -5.088046  -0.466516  -0.259738
H  -3.948590   0.261024  -0.434536
H  -3.840112   1.383901   1.378416
C  -1.427899   0.226625  -0.139972
H  -2.637209  -1.216951  -1.019629
H  -2.612531  -1.306341   0.639867
C  -0.131406  -0.747076   0.196514
H  -1.577173   1.053741   0.782882
H  -1.228813   0.930845  -1.125403
H   0.485984  -1.935826   1.367133
H   0.683045  -0.298135  -0.498287
H  -0.092289  -0.799603  -0.247482
