butane_opt
 OpenBabel08242015393D

 14  8  0  0  0  0  0  0  0  0999 V2000
   -3.9519    0.1837    0.1605 C   0  0  0  0  0  0  0  0  0  0  0  0
   -2.7515   -0.5047   -0.1353 C   0  0  0  0  0  0  0  0  0  0  0  0
   -5.0880   -0.4665   -0.2597 H   0  0  0  0  0  0  0  0  0  0  0  0
   -3.9486    0.2610   -0.4345 H   0  0  0  0  0  0  0  0  0  0  0  0
   -3.8401    1.3839    1.3784 H   0  0  0  0  0  0  0  0  0  0  0  0
   -1.4279    0.2266   -0.1400 C   0  0  0  0  0  0  0  0  0  0  0  0
   -2.6372   -1.2170   -1.0196 H   0  0  0  0  0  0  0  0  0  0  0  0
   -2.6125   -1.3063    0.6399 H   0  0  0  0  0  0  0  0  0  0  0  0
   -0.1314   -0.7471    0.1965 C   0  0  0  0  0  0  0  0  0  0  0  0
   -1.5772    1.0537    0.7829 H   0  0  0  0  0  0  0  0  0  0  0  0
   -1.2288    0.9308   -1.1254 H   0  0  0  0  0  0  0  0  0  0  0  0
    0.4860   -1.9358    1.3671 H   0  0  0  0  0  0  0  0  0  0  0  0
    0.6830   -0.2981   -0.4983 H   0  0  0  0  0  0  0  0  0  0  0  0
   -0.0923   -0.7996   -0.2475 H   0  0  0  0  0  0  0  0  0  0  0  0
  2  1  1  0  0  0  0
  2  8  1  0  0  0  0
  3  1  1  0  0  0  0
  6  9  1  0  0  0  0
  6 10  1  0  0  0  0
  7  2  1  0  0  0  0
 11  6  1  0  0  0  0
 13  9  1  0  0  0  0
M  RAD  8   1   3   2   2   4   2   5   2   6   2   9   3  12   2  14   2
M  END
$$$$
