14
butane_opt
C  -4.022335   0.336894   0.178223
C  -2.681880  -0.677505  -0.103634
H  -4.915586  -0.258742   0.125329
H  -4.129399   0.769774  -0.575240
H  -3.918151   1.141209   1.096031
C  -1.348300   0.133606  -0.213511
H  -2.869932  -1.483704  -1.024367
H  -2.466927  -1.474775   0.988864
C  -0.154331  -0.660548   0.250901
H  -1.498411   0.499738   0.478646
H  -1.294486   1.047237  -1.370729
H  -0.483174  -0.640811   0.787837
H   0.843974   0.047025   0.512361
H   0.156661  -1.691823  -0.983190
