butane_opt
 OpenBabel08242015393D

 14  9  0  0  0  0  0  0  0  0999 V2000
   -4.0075    0.2930    0.1348 C   0  0  0  0  0  0  0  0  0  0  0  0
   -2.7603   -0.6724   -0.1834 C   0  0  0  0  0  0  0  0  0  0  0  0
   -4.7598   -0.1644    0.3064 H   0  0  0  0  0  0  0  0  0  0  0  0
   -4.3222    0.8791   -0.7171 H   0  0  0  0  0  0  0  0  0  0  0  0
   -3.7402    1.4246    1.1937 H   0  0  0  0  0  0  0  0  0  0  0  0
   -1.3360    0.0939   -0.0798 C   0  0  0  0  0  0  0  0  0  0  0  0
   -2.7571   -1.3691   -1.1330 H   0  0  0  0  0  0  0  0  0  0  0  0
   -2.7986   -1.2076    0.6778 H   0  0  0  0  0  0  0  0  0  0  0  0
   -0.1085   -0.6386    0.1722 C   0  0  0  0  0  1  0  0  0  0  0  0
   -1.2920    0.9124    0.9287 H   0  0  0  0  0  0  0  0  0  0  0  0
   -1.4121    0.8034   -0.9550 H   0  0  0  0  0  0  0  0  0  0  0  0
    0.1626   -1.9720    1.5286 H   0  0  0  0  0  0  0  0  0  0  0  0
    0.7889    0.0585   -0.4253 H   0  0  0  0  0  0  0  0  0  0  0  0
   -0.3908   -0.7205   -0.3666 H   0  0  0  0  0  0  0  0  0  0  0  0
  1  3  1  0  0  0  0
  2  1  1  0  0  0  0
  2  8  1  0  0  0  0
  4  1  1  0  0  0  0
  6 10  1  0  0  0  0
  7  2  1  0  0  0  0
 11  6  1  0  0  0  0
 13  9  1  0  0  0  0
 14  6  1  0  0  0  0
M  RAD  5   1   2   2   2   5   2   6   2  12   2
M  END
$$$$
