14
butane_opt
C  -3.929455   0.205695  -0.093107
C  -2.732261  -0.513131   0.176180
H  -4.904344  -0.481954  -0.069773
H  -3.379292   1.112910  -1.308202
H  -3.889324   0.473494   0.339400
C  -1.412762   0.253768   0.197226
H  -2.481296  -1.372016  -0.689558
H  -2.694004  -0.901279   0.965948
C  -0.204030  -0.759804  -0.086253
H  -1.254350   1.123537   1.146833
H  -1.490564   0.572329  -0.413251
H   0.141450  -1.590243   0.878445
H   0.800144  -0.163516  -0.842703
H  -0.520003  -1.479937  -0.936498
