14
butane_opt
C  -3.915909   0.218372  -0.022358
C  -2.648086  -0.555014   0.143497
H  -5.069408  -0.559792  -0.141119
H  -3.897809   0.863497  -0.899218
H  -3.909334   0.503871   0.691700
C  -1.447485   0.292981  -0.009528
H  -2.615507  -1.051644  -0.539099
H  -2.934489  -1.512225   1.314161
C  -0.164056  -0.748053  -0.047214
H  -1.328676   1.207127   0.873327
H  -1.591726   0.812187  -0.796427
H  -0.446850  -0.906261   0.487264
H   0.595223  -0.365174   0.697234
H   0.342026  -2.029583  -1.101405
