14
butane_opt
C  -3.879056   0.308639   0.128699
C  -2.693634  -0.668779  -0.144395
H  -4.638050  -0.185007  -0.112424
H  -3.965740   0.403745  -0.573408
H  -4.082487   1.352981   1.340418
C  -1.401284   0.100605  -0.053346
H  -2.829831  -1.308292  -0.954786
H  -2.679100  -1.153100   0.837071
C  -0.229371  -0.648437   0.123757
H  -1.835977   0.866207   0.834382
H  -1.147220   0.992428  -1.144817
H   0.105229  -1.797616   1.418493
H   0.767801   0.017810  -0.514839
H  -0.329812  -0.733999  -0.268717
