butane_opt
 OpenBabel08242015393D

 14 10  0  0  0  0  0  0  0  0999 V2000
   -3.8992    0.1901   -0.1243 C   0  0  0  0  0  0  0  0  0  0  0  0
   -2.7152   -0.4958    0.2078 C   0  0  0  0  0  0  0  0  0  0  0  0
   -4.8232   -0.4067    0.1047 H   0  0  0  0  0  0  0  0  0  0  0  0
   -3.9138    0.7558   -1.1054 H   0  0  0  0  0  0  0  0  0  0  0  0
   -3.7973    0.8335    0.6287 H   0  0  0  0  0  0  0  0  0  0  0  0
   -1.4466    0.2015    0.0706 C   0  0  0  0  0  0  0  0  0  0  0  0
   -2.4422   -0.9620   -0.3862 H   0  0  0  0  0  0  0  0  0  0  0  0
   -2.8714   -1.5740    1.4856 H   0  0  0  0  0  0  0  0  0  0  0  0
   -0.1198   -0.7486   -0.0992 C   0  0  0  0  0  1  0  0  0  0  0  0
   -1.4747    1.0848    0.9719 H   0  0  0  0  0  0  0  0  0  0  0  0
   -1.6147    0.9006   -0.7387 H   0  0  0  0  0  0  0  0  0  0  0  0
   -0.4052   -0.8012    0.4035 H   0  0  0  0  0  0  0  0  0  0  0  0
    0.7458   -0.0583    0.7725 H   0  0  0  0  0  0  0  0  0  0  0  0
   -0.2052   -2.0641   -1.3949 H   0  0  0  0  0  0  0  0  0  0  0  0
  1  3  1  0  0  0  0
  1  2  1  0  0  0  0
  1  5  1  0  0  0  0
  4  1  1  0  0  0  0
  6  2  1  0  0  0  0
  6 12  1  0  0  0  0
  6 10  1  0  0  0  0
  7  2  1  0  0  0  0
  9 13  1  0  0  0  0
 11  6  1  0  0  0  0
M  RAD  3   2   2   8   2  14   2
M  END
$$$$
