butane_opt
 OpenBabel08242015393D

 14 11  0  0  0  0  0  0  0  0999 V2000
   -4.0499    0.3037    0.0679 C   0  0  0  0  0  0  0  0  0  0  0  0
   -2.6738   -0.6419   -0.0488 C   0  0  0  0  0  0  0  0  0  0  0  0
   -4.8831   -0.2741   -0.1019 H   0  0  0  0  0  0  0  0  0  0  0  0
   -4.1812    0.6214   -0.6054 H   0  0  0  0  0  0  0  0  0  0  0  0
   -4.0548    1.0576    1.0261 H   0  0  0  0  0  0  0  0  0  0  0  0
   -1.3734    0.1827    0.0373 C   0  0  0  0  0  0  0  0  0  0  0  0
   -2.8317   -1.6068   -1.1096 H   0  0  0  0  0  0  0  0  0  0  0  0
   -2.7065   -1.1983    0.5887 H   0  0  0  0  0  0  0  0  0  0  0  0
   -0.0765   -0.6712    0.0436 C   0  0  0  0  0  1  0  0  0  0  0  0
   -1.3117    0.7201    0.8013 H   0  0  0  0  0  0  0  0  0  0  0  0
   -1.3398    0.9814   -0.9536 H   0  0  0  0  0  0  0  0  0  0  0  0
   -0.0538   -1.9618    1.4633 H   0  0  0  0  0  0  0  0  0  0  0  0
    0.8617   -0.0497   -0.4546 H   0  0  0  0  0  0  0  0  0  0  0  0
   -0.4418   -0.8041   -0.3236 H   0  0  0  0  0  0  0  0  0  0  0  0
  1  5  1  0  0  0  0
  2  6  1  0  0  0  0
  2  1  1  0  0  0  0
  2  8  1  0  0  0  0
  3  1  1  0  0  0  0
  4  1  1  0  0  0  0
  6 10  1  0  0  0  0
  7  2  1  0  0  0  0
 11  6  1  0  0  0  0
 13  9  1  0  0  0  0
 14  6  1  0  0  0  0
M  RAD  1  12   2
M  END
$$$$
