butane_opt
 OpenBabel08242015393D

 14 13  0  0  0  0  0  0  0  0999 V2000
   -3.8541    0.2000    0.2158 C   0  0  0  0  0  0  0  0  0  0  0  0
   -2.7254   -0.5117   -0.1137 C   0  0  0  0  0  0  0  0  0  0  0  0
   -4.9953   -0.5850   -0.0224 H   0  0  0  0  0  0  0  0  0  0  0  0
   -4.1137    0.5561   -0.5902 H   0  0  0  0  0  0  0  0  0  0  0  0
   -3.6766    1.1635    1.2849 H   0  0  0  0  0  0  0  0  0  0  0  0
   -1.4442    0.2248   -0.2779 C   0  0  0  0  0  0  0  0  0  0  0  0
   -3.0383   -0.9569   -0.9328 H   0  0  0  0  0  0  0  0  0  0  0  0
   -2.7852   -1.0712    0.7559 H   0  0  0  0  0  0  0  0  0  0  0  0
   -0.1443   -0.7824    0.2336 C   0  0  0  0  0  0  0  0  0  0  0  0
   -1.7216    0.7936    0.4676 H   0  0  0  0  0  0  0  0  0  0  0  0
   -1.1588    0.8884   -1.1534 H   0  0  0  0  0  0  0  0  0  0  0  0
   -0.3364   -1.2209    1.0468 H   0  0  0  0  0  0  0  0  0  0  0  0
    0.7459   -0.0793    0.5977 H   0  0  0  0  0  0  0  0  0  0  0  0
    0.1279   -1.5966   -0.7214 H   0  0  0  0  0  0  0  0  0  0  0  0
  1  5  1  0  0  0  0
  2  1  1  0  0  0  0
  2  8  1  0  0  0  0
  3  1  1  0  0  0  0
  4  1  1  0  0  0  0
  6  2  1  0  0  0  0
  6  9  1  0  0  0  0
  6 10  1  0  0  0  0
  7  2  1  0  0  0  0
  9 13  1  0  0  0  0
  9 12  1  0  0  0  0
 11  6  1  0  0  0  0
 14  9  1  0  0  0  0
M  END
$$$$
