14
butane_opt
C  -3.971144   0.342674   0.169857
C  -2.666873  -0.705885  -0.070477
H  -4.797656  -0.101365  -0.314974
H  -3.842928   0.546384  -0.388988
H  -3.769533   1.194842   1.143242
C  -1.382722   0.143533  -0.127950
H  -2.621698  -1.495426  -1.063218
H  -2.828595  -1.288621   0.732105
C  -0.225927  -0.630010   0.155240
H  -1.399200   0.501541   0.407892
H  -1.183371   1.193779  -1.254980
H  -0.245123  -1.366452   1.146629
H   0.697578  -0.063808   0.203960
H  -0.146184  -1.386645  -0.642230
