14
butane_opt
C  -3.865546   0.205351   0.048407
C  -2.744719  -0.503701   0.022996
H  -5.098087  -0.520190  -0.649796
H  -3.652452   0.332162  -0.468057
H  -3.894888   1.379564   1.342832
C  -1.443229   0.209527  -0.043583
H  -2.696511  -1.232721  -0.838579
H  -2.734000  -1.211670   0.985773
C  -0.180453  -0.765244   0.085408
H  -1.311993   0.589417   0.813421
H  -1.532180   1.213330  -1.206084
H   0.114756  -1.437948   0.980418
H   0.699070  -0.231331  -0.187231
H  -0.088064  -1.141548  -0.623828
