14
butane_opt
C  -4.006369   0.268286   0.154929
C  -2.722779  -0.642371  -0.098986
H  -4.822960  -0.127317  -0.218304
H  -4.240712   0.731496  -0.636406
H  -4.182103   1.484609   1.455527
C  -1.349894   0.144763  -0.113644
H  -2.880986  -1.542563  -1.242646
H  -2.566492  -1.155152   0.583075
C  -0.131287  -0.670343   0.209946
H  -1.339750   0.526624   0.601886
H  -1.199638   0.996634  -1.326658
H   0.168144  -1.647947   1.195266
H   1.005269   0.045507  -0.258905
H  -0.442078  -0.925911  -0.440713
