butane_opt
 OpenBabel08242015393D

 14 13  0  0  0  0  0  0  0  0999 V2000
   -3.9423    0.2287    0.1778 C   0  0  0  0  0  0  0  0  0  0  0  0
   -2.7614   -0.5349   -0.0739 C   0  0  0  0  0  0  0  0  0  0  0  0
   -4.9457   -0.5681    0.0679 H   0  0  0  0  0  0  0  0  0  0  0  0
   -3.8202    0.7994   -0.6444 H   0  0  0  0  0  0  0  0  0  0  0  0
   -3.8722    1.0136    1.2582 H   0  0  0  0  0  0  0  0  0  0  0  0
   -1.4277    0.2106   -0.2048 C   0  0  0  0  0  0  0  0  0  0  0  0
   -2.9220   -1.4284   -1.0858 H   0  0  0  0  0  0  0  0  0  0  0  0
   -2.7259   -1.0572    0.7747 H   0  0  0  0  0  0  0  0  0  0  0  0
   -0.0852   -0.7442    0.1707 C   0  0  0  0  0  0  0  0  0  0  0  0
   -1.4554    0.6177    0.6296 H   0  0  0  0  0  0  0  0  0  0  0  0
   -1.1286    1.1239   -1.2957 H   0  0  0  0  0  0  0  0  0  0  0  0
   -0.3186   -1.1477    1.0100 H   0  0  0  0  0  0  0  0  0  0  0  0
    0.5984   -0.3774    0.6510 H   0  0  0  0  0  0  0  0  0  0  0  0
    0.2092   -1.4118   -0.7592 H   0  0  0  0  0  0  0  0  0  0  0  0
  1  5  1  0  0  0  0
  2  1  1  0  0  0  0
  2  8  1  0  0  0  0
  3  1  1  0  0  0  0
  4  1  1  0  0  0  0
  6  2  1  0  0  0  0
  6  9  1  0  0  0  0
  6 10  1  0  0  0  0
  7  2  1  0  0  0  0
  9 13  1  0  0  0  0
  9 12  1  0  0  0  0
 11  6  1  0  0  0  0
 14  9  1  0  0  0  0
M  END
$$$$
