butane_opt
 OpenBabel08242015393D

 14 13  0  0  0  0  0  0  0  0999 V2000
   -3.9404    0.2039    0.1238 C   0  0  0  0  0  0  0  0  0  0  0  0
   -2.8021   -0.5804   -0.0996 C   0  0  0  0  0  0  0  0  0  0  0  0
   -4.7902   -0.2388    0.3886 H   0  0  0  0  0  0  0  0  0  0  0  0
   -4.0019    0.6380   -0.7018 H   0  0  0  0  0  0  0  0  0  0  0  0
   -3.7284    0.9069    1.0546 H   0  0  0  0  0  0  0  0  0  0  0  0
   -1.4230    0.3180   -0.1352 C   0  0  0  0  0  0  0  0  0  0  0  0
   -3.0791   -1.1505   -0.8788 H   0  0  0  0  0  0  0  0  0  0  0  0
   -2.6459   -1.3256    0.8523 H   0  0  0  0  0  0  0  0  0  0  0  0
   -0.0568   -0.7809    0.1680 C   0  0  0  0  0  0  0  0  0  0  0  0
   -1.5778    0.7932    0.6992 H   0  0  0  0  0  0  0  0  0  0  0  0
   -1.2616    1.1457   -1.2152 H   0  0  0  0  0  0  0  0  0  0  0  0
   -0.2031   -1.2208    0.8774 H   0  0  0  0  0  0  0  0  0  0  0  0
    0.7487   -0.2637    0.5607 H   0  0  0  0  0  0  0  0  0  0  0  0
    0.1804   -1.6928   -0.8972 H   0  0  0  0  0  0  0  0  0  0  0  0
  1  3  1  0  0  0  0
  1  5  1  0  0  0  0
  2  1  1  0  0  0  0
  2  8  1  0  0  0  0
  4  1  1  0  0  0  0
  6  2  1  0  0  0  0
  6  9  1  0  0  0  0
  6 10  1  0  0  0  0
  7  2  1  0  0  0  0
  9 13  1  0  0  0  0
  9 12  1  0  0  0  0
 11  6  1  0  0  0  0
 14  9  1  0  0  0  0
M  END
$$$$
