14
butane_opt
C  -3.932646   0.256952   0.023715
C  -2.701749  -0.601051   0.040011
H  -4.869571  -0.330828   0.112934
H  -3.909269   0.925036  -0.938752
H  -3.961940   0.854956   0.822311
C  -1.408049   0.191115   0.003660
H  -2.742993  -1.271014  -0.823495
H  -2.746043  -1.281209   0.981463
C  -0.165323  -0.699323   0.028712
H  -1.394733   0.907073   0.864535
H  -1.398255   0.780703  -0.872042
H  -0.170254  -1.237909   0.881853
H   0.724327  -0.131357   0.130971
H  -0.061059  -1.463086  -0.883254
