14
butane_opt
C  -3.979912   0.289676   0.107533
C  -2.683001  -0.630326  -0.106723
H  -4.929974  -0.240022   0.438324
H  -4.362210   1.285136  -0.860825
H  -3.719826   0.695187   0.862967
C  -1.340754   0.112649  -0.054633
H  -2.963502  -1.271158  -0.937020
H  -2.349105  -1.282282   0.674166
C  -0.233463  -0.669019   0.102280
H  -1.295889   0.996788   0.918379
H  -1.126755   0.778747  -0.997237
H  -0.349401  -1.327056   1.176060
H   0.854134  -0.034194   0.246675
H   0.046990  -1.306421  -0.735492
