14
butane_opt
C  -3.967703   0.241628  -0.135621
C  -2.770618  -0.557244   0.139834
H  -5.117765  -0.695741  -0.069017
H  -3.951111   0.897535  -1.030294
H  -3.981829   1.009299   0.852960
C  -1.412717   0.245993   0.220388
H  -2.752642  -1.280440  -0.789428
H  -2.836093  -1.098857   0.868597
C  -0.076750  -0.752166  -0.087531
H  -1.083653   0.775267   1.057470
H  -1.312173   0.794507  -0.686234
H   0.602386  -1.678044   1.080247
H   0.740485  -0.341292  -0.649924
H  -0.545447  -1.010266  -0.773868
