14
butane_opt
C  -4.038107   0.319533   0.069519
C  -2.628372  -0.742190  -0.123855
H  -4.875853  -0.094335   0.585676
H  -4.532169   1.154193  -0.933285
H  -3.590417   0.694778   0.915619
C  -1.378226   0.154977  -0.008494
H  -2.687342  -1.328571  -0.896082
H  -2.741348  -1.383527   0.856624
C  -0.162127  -0.635078   0.099834
H  -1.253137   0.931114   0.960450
H  -1.311747   1.039046  -0.933034
H  -0.173665  -1.274559   1.045378
H   0.611619  -0.061673   0.126747
H  -0.017527  -1.320891  -0.770222
