14
butane_opt
C  -4.007513   0.293022   0.134826
C  -2.760287  -0.672384  -0.183362
H  -4.759780  -0.164401   0.306402
H  -4.322228   0.879140  -0.717077
H  -3.740168   1.424619   1.193673
C  -1.336014   0.093930  -0.079750
H  -2.757081  -1.369051  -1.132986
H  -2.798606  -1.207624   0.677751
C  -0.108485  -0.638639   0.172214
H  -1.292011   0.912374   0.928733
H  -1.412086   0.803423  -0.955026
H   0.162586  -1.971963   1.528564
H   0.788909   0.058465  -0.425280
H  -0.390808  -0.720535  -0.366553
