butane_opt
 OpenBabel08242015393D

 14 12  0  0  0  0  0  0  0  0999 V2000
   -4.0047    0.2898    0.1944 C   0  0  0  0  0  0  0  0  0  0  0  0
   -2.6816   -0.6665   -0.2027 C   0  0  0  0  0  0  0  0  0  0  0  0
   -4.8059   -0.1118    0.6602 H   0  0  0  0  0  0  0  0  0  0  0  0
   -4.7638    1.1874   -0.7620 H   0  0  0  0  0  0  0  0  0  0  0  0
   -3.7236    0.8901    1.2184 H   0  0  0  0  0  0  0  0  0  0  0  0
   -1.3644    0.0951   -0.1310 C   0  0  0  0  0  0  0  0  0  0  0  0
   -2.6165   -1.5154   -1.2041 H   0  0  0  0  0  0  0  0  0  0  0  0
   -2.4951   -1.0723    0.4383 H   0  0  0  0  0  0  0  0  0  0  0  0
   -0.1618   -0.6558    0.2014 C   0  0  0  0  0  0  0  0  0  0  0  0
   -1.6428    0.5115    0.6444 H   0  0  0  0  0  0  0  0  0  0  0  0
   -1.0766    1.0964   -1.3736 H   0  0  0  0  0  0  0  0  0  0  0  0
   -0.4261   -1.2649    1.2462 H   0  0  0  0  0  0  0  0  0  0  0  0
    0.9887    0.3165    0.3941 H   0  0  0  0  0  0  0  0  0  0  0  0
    0.0594   -1.2161   -0.5946 H   0  0  0  0  0  0  0  0  0  0  0  0
  1  3  1  0  0  0  0
  1  5  1  0  0  0  0
  2  6  1  0  0  0  0
  2  1  1  0  0  0  0
  2  8  1  0  0  0  0
  4  1  1  0  0  0  0
  6  9  1  0  0  0  0
  6 10  1  0  0  0  0
  7  2  1  0  0  0  0
  9 13  1  0  0  0  0
  9 12  1  0  0  0  0
 14  9  1  0  0  0  0
M  RAD  2   6   2  11   2
M  END
$$$$
