14
butane_opt
C  -3.854124   0.200043   0.215758
C  -2.725373  -0.511726  -0.113742
H  -4.995300  -0.584961  -0.022377
H  -4.113698   0.556057  -0.590186
H  -3.676601   1.163473   1.284886
C  -1.444217   0.224816  -0.277856
H  -3.038325  -0.956915  -0.932823
H  -2.785169  -1.071240   0.755857
C  -0.144260  -0.782379   0.233647
H  -1.721561   0.793618   0.467576
H  -1.158766   0.888426  -1.153356
H  -0.336427  -1.220913   1.046841
H   0.745862  -0.079302   0.597653
H   0.127932  -1.596621  -0.721380
