butane_opt
 OpenBabel08242015393D

 14 10  0  0  0  0  0  0  0  0999 V2000
   -3.8750    0.2131   -0.0176 C   0  0  0  0  0  1  0  0  0  0  0  0
   -2.6684   -0.5774   -0.0623 C   0  0  0  0  0  0  0  0  0  0  0  0
   -4.8951   -0.4377    0.7755 H   0  0  0  0  0  0  0  0  0  0  0  0
   -4.3483    1.2616   -1.1270 H   0  0  0  0  0  0  0  0  0  0  0  0
   -3.6097    0.3467    0.5121 H   0  0  0  0  0  0  0  0  0  0  0  0
   -1.4079    0.2197    0.1145 C   0  0  0  0  0  0  0  0  0  0  0  0
   -2.7769   -0.9331   -0.6966 H   0  0  0  0  0  0  0  0  0  0  0  0
   -2.6061   -1.2376    1.0213 H   0  0  0  0  0  0  0  0  0  0  0  0
   -0.2258   -0.7223   -0.0163 C   0  0  0  0  0  0  0  0  0  0  0  0
   -1.5853    1.1493    1.1618 H   0  0  0  0  0  0  0  0  0  0  0  0
   -1.3852    0.7687   -0.7193 H   0  0  0  0  0  0  0  0  0  0  0  0
    0.1007   -1.3773    0.8932 H   0  0  0  0  0  0  0  0  0  0  0  0
    0.4762   -0.2148    0.1841 H   0  0  0  0  0  0  0  0  0  0  0  0
   -0.2283   -1.4480   -0.8476 H   0  0  0  0  0  0  0  0  0  0  0  0
  1  3  1  0  0  0  0
  2  5  1  0  0  0  0
  2  8  1  0  0  0  0
  6 10  1  0  0  0  0
  7  2  1  0  0  0  0
  9  6  1  0  0  0  0
  9 13  1  0  0  0  0
  9 12  1  0  0  0  0
 11  6  1  0  0  0  0
 14  9  1  0  0  0  0
M  RAD  3   2   2   4   2   6   2
M  END
$$$$
