14
butane_opt
C  -3.997856   0.315422  -0.103526
C  -2.716263  -0.642303   0.143301
H  -5.024625  -0.414194   0.856857
H  -4.194733   1.965992  -1.679674
H  -3.969234   0.161360   0.227720
C  -1.351426   0.114947   0.191782
H  -2.589911  -1.416842  -0.818029
H  -2.813507  -1.235048   0.929355
C  -0.169950  -0.655935  -0.069873
H  -1.200239   1.071605   1.185192
H  -1.147329   0.491363  -0.475388
H   0.012477  -0.853273   0.404155
H   0.854417  -0.089787  -0.037179
H  -0.121871  -1.707140  -1.227915
