14
butane_opt
C  -4.010408   0.341945  -0.029986
C  -2.692432  -0.731920   0.160114
H  -4.926409  -0.081577  -0.690045
H  -3.866742   0.709558  -0.757518
H  -4.365017   1.161386   0.841919
C  -1.287123   0.191278   0.078801
H  -2.732138  -1.325803  -0.610310
H  -2.702735  -1.540452   1.119981
C  -0.207553  -0.658723  -0.030394
H  -1.378636   0.585623   0.596804
H  -1.252473   0.927724  -0.889461
H   0.069831  -0.961921   0.623877
H   0.665417  -0.043509  -0.033660
H  -0.190663  -1.607308  -0.940179
