14
butane_opt
C  -3.920154   0.253965   0.009531
C  -2.702978  -0.607363   0.049755
H  -4.861196  -0.353535   0.133832
H  -3.963916   0.986601  -0.995509
H  -3.950212   0.795053   0.774437
C  -1.414885   0.200304   0.029500
H  -2.778819  -1.248378  -0.789234
H  -2.744050  -1.206592   0.923699
C  -0.163009  -0.706169   0.012591
H  -1.416810   0.900607   0.923545
H  -1.398466   0.799883  -0.843932
H  -0.107720  -1.284145   0.880404
H   0.728659  -0.114913   0.101368
H  -0.117134  -1.440839  -0.902986
