butane_opt
 OpenBabel08242015393D

 14 12  0  0  0  0  0  0  0  0999 V2000
   -3.9677    0.2416   -0.1356 C   0  0  0  0  0  0  0  0  0  0  0  0
   -2.7706   -0.5572    0.1398 C   0  0  0  0  0  0  0  0  0  0  0  0
   -5.1178   -0.6957   -0.0690 H   0  0  0  0  0  0  0  0  0  0  0  0
   -3.9511    0.8975   -1.0303 H   0  0  0  0  0  0  0  0  0  0  0  0
   -3.9818    1.0093    0.8530 H   0  0  0  0  0  0  0  0  0  0  0  0
   -1.4127    0.2460    0.2204 C   0  0  0  0  0  0  0  0  0  0  0  0
   -2.7526   -1.2804   -0.7894 H   0  0  0  0  0  0  0  0  0  0  0  0
   -2.8361   -1.0989    0.8686 H   0  0  0  0  0  0  0  0  0  0  0  0
   -0.0767   -0.7522   -0.0875 C   0  0  0  0  0  0  0  0  0  0  0  0
   -1.0837    0.7753    1.0575 H   0  0  0  0  0  0  0  0  0  0  0  0
   -1.3122    0.7945   -0.6862 H   0  0  0  0  0  0  0  0  0  0  0  0
    0.6024   -1.6780    1.0802 H   0  0  0  0  0  0  0  0  0  0  0  0
    0.7405   -0.3413   -0.6499 H   0  0  0  0  0  0  0  0  0  0  0  0
   -0.5454   -1.0103   -0.7739 H   0  0  0  0  0  0  0  0  0  0  0  0
  1  3  1  0  0  0  0
  1  2  1  0  0  0  0
  1  5  1  0  0  0  0
  2  6  1  0  0  0  0
  2  8  1  0  0  0  0
  4  1  1  0  0  0  0
  6 10  1  0  0  0  0
  7  2  1  0  0  0  0
  9  6  1  0  0  0  0
 11  6  1  0  0  0  0
 13  9  1  0  0  0  0
 14  9  1  0  0  0  0
M  RAD  2   9   2  12   2
M  END
$$$$
