14
butane_opt
C  -3.945033   0.205485   0.164727
C  -2.796917  -0.545781  -0.150840
H  -4.966528  -0.512402  -0.183724
H  -3.852304   0.485007  -0.562488
H  -3.746221   1.435815   1.320084
C  -1.432491   0.256322  -0.130837
H  -3.007909  -1.285534  -1.052052
H  -2.720100  -1.146255   0.647592
C  -0.080899  -0.786321   0.212353
H  -1.435252   0.904924   0.757342
H  -1.287290   1.042037  -1.060107
H   0.441983  -1.897456   1.360488
H   0.948746  -0.231226  -0.468112
H  -0.331195  -0.819463  -0.351771
