butane_opt
 OpenBabel08242015393D

 14 10  0  0  0  0  0  0  0  0999 V2000
   -3.9754    0.3532    0.1627 C   0  0  0  0  0  0  0  0  0  0  0  0
   -2.6610   -0.7657   -0.1517 C   0  0  0  0  0  0  0  0  0  0  0  0
   -4.9788   -0.3890   -0.1805 H   0  0  0  0  0  0  0  0  0  0  0  0
   -4.1955    0.7672   -0.6098 H   0  0  0  0  0  0  0  0  0  0  0  0
   -4.1716    1.3396    1.2409 H   0  0  0  0  0  0  0  0  0  0  0  0
   -1.3622    0.1925   -0.1057 C   0  0  0  0  0  0  0  0  0  0  0  0
   -3.0573   -1.5160   -1.1387 H   0  0  0  0  0  0  0  0  0  0  0  0
   -2.4780   -1.0786    0.4738 H   0  0  0  0  0  0  0  0  0  0  0  0
   -0.1716   -0.6397    0.1793 C   0  0  0  0  0  1  0  0  0  0  0  0
   -1.2567    0.8801    0.8754 H   0  0  0  0  0  0  0  0  0  0  0  0
   -1.2900    0.5283   -0.8597 H   0  0  0  0  0  0  0  0  0  0  0  0
    0.1524   -2.0016    1.6914 H   0  0  0  0  0  0  0  0  0  0  0  0
    0.6964   -0.1881   -0.8767 H   0  0  0  0  0  0  0  0  0  0  0  0
   -0.4007   -0.4739   -0.1085 H   0  0  0  0  0  0  0  0  0  0  0  0
  1  5  1  0  0  0  0
  2  1  1  0  0  0  0
  2  8  1  0  0  0  0
  3  1  1  0  0  0  0
  4  1  1  0  0  0  0
  6 10  1  0  0  0  0
  7  2  1  0  0  0  0
 11  6  1  0  0  0  0
 13  9  1  0  0  0  0
 14  6  1  0  0  0  0
M  RAD  3   2   2   6   2  12   2
M  END
$$$$
