14
butane_opt
C  -3.954526   0.276108   0.001035
C  -2.704551  -0.631973   0.058684
H  -4.857923  -0.295428   0.021962
H  -4.003971   0.889448  -0.916699
H  -4.021052   0.930596   0.836378
C  -1.398160   0.174321   0.037051
H  -2.693129  -1.373921  -0.832696
H  -2.712043  -1.216511   0.916248
C  -0.146675  -0.689779   0.014559
H  -1.368594   0.919067   0.903801
H  -1.411030   0.816543  -0.857490
H  -0.120989  -1.351029   0.945267
H   0.783043  -0.049857  -0.119610
H  -0.172581  -1.281876  -0.789460
