butane_opt
 OpenBabel08242015393D

 14 13  0  0  0  0  0  0  0  0999 V2000
   -3.9799    0.2897    0.1075 C   0  0  0  0  0  0  0  0  0  0  0  0
   -2.6830   -0.6303   -0.1067 C   0  0  0  0  0  0  0  0  0  0  0  0
   -4.9300   -0.2400    0.4383 H   0  0  0  0  0  0  0  0  0  0  0  0
   -4.3622    1.2851   -0.8608 H   0  0  0  0  0  0  0  0  0  0  0  0
   -3.7198    0.6952    0.8630 H   0  0  0  0  0  0  0  0  0  0  0  0
   -1.3408    0.1126   -0.0546 C   0  0  0  0  0  0  0  0  0  0  0  0
   -2.9635   -1.2712   -0.9370 H   0  0  0  0  0  0  0  0  0  0  0  0
   -2.3491   -1.2823    0.6742 H   0  0  0  0  0  0  0  0  0  0  0  0
   -0.2335   -0.6690    0.1023 C   0  0  0  0  0  0  0  0  0  0  0  0
   -1.2959    0.9968    0.9184 H   0  0  0  0  0  0  0  0  0  0  0  0
   -1.1268    0.7787   -0.9972 H   0  0  0  0  0  0  0  0  0  0  0  0
   -0.3494   -1.3271    1.1761 H   0  0  0  0  0  0  0  0  0  0  0  0
    0.8541   -0.0342    0.2467 H   0  0  0  0  0  0  0  0  0  0  0  0
    0.0470   -1.3064   -0.7355 H   0  0  0  0  0  0  0  0  0  0  0  0
  1  3  1  0  0  0  0
  1  5  1  0  0  0  0
  2  6  1  0  0  0  0
  2  1  1  0  0  0  0
  2  8  1  0  0  0  0
  4  1  1  0  0  0  0
  6  9  1  0  0  0  0
  6 10  1  0  0  0  0
  7  2  1  0  0  0  0
  9 13  1  0  0  0  0
  9 12  1  0  0  0  0
 11  6  1  0  0  0  0
 14  9  1  0  0  0  0
M  END
$$$$
