butane_opt
 OpenBabel08242015393D

 14 12  0  0  0  0  0  0  0  0999 V2000
   -3.8499    0.2197   -0.0575 C   0  0  0  0  0  0  0  0  0  0  0  0
   -2.7563   -0.5559    0.1037 C   0  0  0  0  0  0  0  0  0  0  0  0
   -4.7527   -0.5614    0.3305 H   0  0  0  0  0  0  0  0  0  0  0  0
   -3.8563    0.9041   -0.9597 H   0  0  0  0  0  0  0  0  0  0  0  0
   -3.5724    0.7271    0.7190 H   0  0  0  0  0  0  0  0  0  0  0  0
   -1.4431    0.2920    0.0490 C   0  0  0  0  0  0  0  0  0  0  0  0
   -2.5538   -0.8993   -0.4947 H   0  0  0  0  0  0  0  0  0  0  0  0
   -2.8862   -1.4579    1.1863 H   0  0  0  0  0  0  0  0  0  0  0  0
   -0.2257   -0.7705   -0.0503 C   0  0  0  0  0  0  0  0  0  0  0  0
   -1.4719    0.9458    0.8707 H   0  0  0  0  0  0  0  0  0  0  0  0
   -1.4493    0.8041   -0.9264 H   0  0  0  0  0  0  0  0  0  0  0  0
   -0.1955   -1.0262    0.6032 H   0  0  0  0  0  0  0  0  0  0  0  0
    0.7583   -0.1463    0.7959 H   0  0  0  0  0  0  0  0  0  0  0  0
    0.2282   -1.9864   -1.2520 H   0  0  0  0  0  0  0  0  0  0  0  0
  1  2  1  0  0  0  0
  1  3  1  0  0  0  0
  1  5  1  0  0  0  0
  2  8  1  0  0  0  0
  4  1  1  0  0  0  0
  6  2  1  0  0  0  0
  6 10  1  0  0  0  0
  7  2  1  0  0  0  0
  9  6  1  0  0  0  0
  9 12  1  0  0  0  0
  9 13  1  0  0  0  0
 11  6  1  0  0  0  0
M  RAD  2   9   2  14   2
M  END
$$$$
