butane_opt
 OpenBabel08242015393D

 14 11  0  0  0  0  0  0  0  0999 V2000
   -4.0002    0.3101    0.0921 C   0  0  0  0  0  0  0  0  0  0  0  0
   -2.7411   -0.6748    0.0231 C   0  0  0  0  0  0  0  0  0  0  0  0
   -4.4867   -0.0597   -0.4660 H   0  0  0  0  0  0  0  0  0  0  0  0
   -4.0649    0.2569   -0.2591 H   0  0  0  0  0  0  0  0  0  0  0  0
   -4.3881    1.5627    1.3302 H   0  0  0  0  0  0  0  0  0  0  0  0
   -1.3355    0.1477   -0.1524 C   0  0  0  0  0  0  0  0  0  0  0  0
   -2.9663   -1.5226   -0.9459 H   0  0  0  0  0  0  0  0  0  0  0  0
   -2.4925   -1.1691    0.7928 H   0  0  0  0  0  0  0  0  0  0  0  0
   -0.1647   -0.6677    0.1271 C   0  0  0  0  0  0  0  0  0  0  0  0
   -1.2293    0.6230    0.4066 H   0  0  0  0  0  0  0  0  0  0  0  0
   -1.3040    1.0088   -1.2317 H   0  0  0  0  0  0  0  0  0  0  0  0
   -0.1993   -1.4245    1.1607 H   0  0  0  0  0  0  0  0  0  0  0  0
    0.9178    0.0995    0.2110 H   0  0  0  0  0  0  0  0  0  0  0  0
    0.0431   -1.1925   -0.5500 H   0  0  0  0  0  0  0  0  0  0  0  0
  2  1  1  0  0  0  0
  2  8  1  0  0  0  0
  3  1  1  0  0  0  0
  6  2  1  0  0  0  0
  6  9  1  0  0  0  0
  6 10  1  0  0  0  0
  7  2  1  0  0  0  0
  9 13  1  0  0  0  0
  9 12  1  0  0  0  0
 11  6  1  0  0  0  0
 14  9  1  0  0  0  0
M  RAD  3   1   3   4   2   5   2
M  END
$$$$
