butane_opt
 OpenBabel08242015393D

 14  9  0  0  0  0  0  0  0  0999 V2000
   -3.9179    0.3090   -0.0435 C   0  0  0  0  0  0  0  0  0  0  0  0
   -2.7390   -0.6268    0.1376 C   0  0  0  0  0  0  0  0  0  0  0  0
   -4.7915   -0.2196    0.2019 H   0  0  0  0  0  0  0  0  0  0  0  0
   -3.8764    1.0653   -0.9423 H   0  0  0  0  0  0  0  0  0  0  0  0
   -3.9524    0.6814    0.4783 H   0  0  0  0  0  0  0  0  0  0  0  0
   -1.3873    0.1202    0.0005 C   0  0  0  0  0  0  0  0  0  0  0  0
   -2.6258   -1.1891   -0.5788 H   0  0  0  0  0  0  0  0  0  0  0  0
   -2.6808   -1.4240    1.2489 H   0  0  0  0  0  0  0  0  0  0  0  0
   -0.1989   -0.6922   -0.0333 C   0  0  0  0  0 15  0  0  0  0  0  0
   -1.1096    1.0602    0.9573 H   0  0  0  0  0  0  0  0  0  0  0  0
   -1.7256    0.6450   -0.7325 H   0  0  0  0  0  0  0  0  0  0  0  0
   -0.4807   -0.8586    0.4921 H   0  0  0  0  0  0  0  0  0  0  0  0
    0.9929    0.1977    0.7570 H   0  0  0  0  0  0  0  0  0  0  0  0
    0.0920   -1.7459   -1.2107 H   0  0  0  0  0  0  0  0  0  0  0  0
  1  2  1  0  0  0  0
  1  3  1  0  0  0  0
  1  5  1  0  0  0  0
  2  8  1  0  0  0  0
  4  1  1  0  0  0  0
  6 12  1  0  0  0  0
  6 10  1  0  0  0  0
  7  2  1  0  0  0  0
 11  6  1  0  0  0  0
M  RAD  4   2   2   6   2  13   2  14   2
M  END
$$$$
