14
butane_opt
C  -3.849860   0.219731  -0.057548
C  -2.756282  -0.555857   0.103727
H  -4.752652  -0.561383   0.330496
H  -3.856264   0.904134  -0.959731
H  -3.572443   0.727149   0.719018
C  -1.443084   0.292031   0.048955
H  -2.553812  -0.899307  -0.494701
H  -2.886184  -1.457906   1.186308
C  -0.225695  -0.770484  -0.050347
H  -1.471860   0.945841   0.870693
H  -1.449276   0.804098  -0.926375
H  -0.195477  -1.026169   0.603174
H   0.758296  -0.146332   0.795897
H   0.228231  -1.986424  -1.251958
