14
butane_opt
C  -3.919689   0.261438  -0.079339
C  -2.698510  -0.594717   0.124437
H  -4.808900  -0.478650  -0.306265
H  -3.935184   0.469780  -0.746780
H  -3.901595   1.236358   0.907641
C  -1.442389   0.201724   0.093218
H  -2.588444  -1.394741  -0.874583
H  -2.606745  -1.414486   1.097672
C  -0.194238  -0.689234  -0.019049
H  -1.309566   0.923059   0.969870
H  -1.523670   0.901308  -0.687981
H   0.155644  -1.556487   0.999173
H   0.673805  -0.200156  -0.631250
H  -0.123143  -1.101763  -0.683111
