butane_opt
 OpenBabel08242015393D

 14 11  0  0  0  0  0  0  0  0999 V2000
   -3.9557    0.2348   -0.1012 C   0  0  0  0  0  0  0  0  0  0  0  0
   -2.7965   -0.5820    0.1053 C   0  0  0  0  0  0  0  0  0  0  0  0
   -4.6843   -0.3523    0.1406 H   0  0  0  0  0  0  0  0  0  0  0  0
   -3.9864    1.0712   -1.1771 H   0  0  0  0  0  0  0  0  0  0  0  0
   -4.0058    0.6366    0.4135 H   0  0  0  0  0  0  0  0  0  0  0  0
   -1.3942    0.2486    0.2173 C   0  0  0  0  0  0  0  0  0  0  0  0
   -2.6180   -1.1819   -0.6943 H   0  0  0  0  0  0  0  0  0  0  0  0
   -2.8610   -1.4608    1.1454 H   0  0  0  0  0  0  0  0  0  0  0  0
   -0.0764   -0.7093   -0.1259 C   0  0  0  0  0  0  0  0  0  0  0  0
   -1.4749    1.2376    1.3920 H   0  0  0  0  0  0  0  0  0  0  0  0
   -1.2374    0.5709   -0.5369 H   0  0  0  0  0  0  0  0  0  0  0  0
    0.3579   -1.7768    1.0149 H   0  0  0  0  0  0  0  0  0  0  0  0
    0.6505   -0.2859   -0.4400 H   0  0  0  0  0  0  0  0  0  0  0  0
   -0.4905   -1.2216   -0.9613 H   0  0  0  0  0  0  0  0  0  0  0  0
  1  2  1  0  0  0  0
  1  3  1  0  0  0  0
  1  5  1  0  0  0  0
  2  6  1  0  0  0  0
  2  8  1  0  0  0  0
  4  1  1  0  0  0  0
  7  2  1  0  0  0  0
  9  6  1  0  0  0  0
 11  6  1  0  0  0  0
 13  9  1  0  0  0  0
 14  9  1  0  0  0  0
M  RAD  4   6   2   9   2  10   2  12   2
M  END
$$$$
