butane_opt
 OpenBabel08242015393D

 14 12  0  0  0  0  0  0  0  0999 V2000
   -3.9207    0.2997   -0.2068 C   0  0  0  0  0  0  0  0  0  0  0  0
   -2.6428   -0.6649    0.2222 C   0  0  0  0  0  0  0  0  0  0  0  0
   -4.7658   -0.2413   -0.1860 H   0  0  0  0  0  0  0  0  0  0  0  0
   -3.9418    1.0813   -1.1880 H   0  0  0  0  0  0  0  0  0  0  0  0
   -4.3003    1.0564    0.7069 H   0  0  0  0  0  0  0  0  0  0  0  0
   -1.3660    0.1367    0.2644 C   0  0  0  0  0  0  0  0  0  0  0  0
   -2.7031   -1.0930   -0.4911 H   0  0  0  0  0  0  0  0  0  0  0  0
   -3.0984   -1.5327    1.3625 H   0  0  0  0  0  0  0  0  0  0  0  0
   -0.2422   -0.6715   -0.1622 C   0  0  0  0  0  0  0  0  0  0  0  0
   -1.4028    1.1813    1.3799 H   0  0  0  0  0  0  0  0  0  0  0  0
   -1.2967    0.4211   -0.5598 H   0  0  0  0  0  0  0  0  0  0  0  0
    0.2470   -1.4012    0.7353 H   0  0  0  0  0  0  0  0  0  0  0  0
    0.9600    0.0419   -0.6708 H   0  0  0  0  0  0  0  0  0  0  0  0
   -0.6840   -1.1315   -1.0531 H   0  0  0  0  0  0  0  0  0  0  0  0
  1  3  1  0  0  0  0
  1  2  1  0  0  0  0
  1  5  1  0  0  0  0
  2  6  1  0  0  0  0
  2  8  1  0  0  0  0
  4  1  1  0  0  0  0
  7  2  1  0  0  0  0
  9  6  1  0  0  0  0
  9 12  1  0  0  0  0
 11  6  1  0  0  0  0
 13  9  1  0  0  0  0
 14  9  1  0  0  0  0
M  RAD  2   6   2  10   2
M  END
$$$$
