butane_opt
 OpenBabel08242015393D

 14  8  0  0  0  0  0  0  0  0999 V2000
   -3.8655    0.2054    0.0484 C   0  0  0  0  0  1  0  0  0  0  0  0
   -2.7447   -0.5037    0.0230 C   0  0  0  0  0  0  0  0  0  0  0  0
   -5.0981   -0.5202   -0.6498 H   0  0  0  0  0  0  0  0  0  0  0  0
   -3.6525    0.3322   -0.4681 H   0  0  0  0  0  0  0  0  0  0  0  0
   -3.8949    1.3796    1.3428 H   0  0  0  0  0  0  0  0  0  0  0  0
   -1.4432    0.2095   -0.0436 C   0  0  0  0  0  0  0  0  0  0  0  0
   -2.6965   -1.2327   -0.8386 H   0  0  0  0  0  0  0  0  0  0  0  0
   -2.7340   -1.2117    0.9858 H   0  0  0  0  0  0  0  0  0  0  0  0
   -0.1805   -0.7652    0.0854 C   0  0  0  0  0  0  0  0  0  0  0  0
   -1.3120    0.5894    0.8134 H   0  0  0  0  0  0  0  0  0  0  0  0
   -1.5322    1.2133   -1.2061 H   0  0  0  0  0  0  0  0  0  0  0  0
    0.1148   -1.4379    0.9804 H   0  0  0  0  0  0  0  0  0  0  0  0
    0.6991   -0.2313   -0.1872 H   0  0  0  0  0  0  0  0  0  0  0  0
   -0.0881   -1.1415   -0.6238 H   0  0  0  0  0  0  0  0  0  0  0  0
  2  1  1  0  0  0  0
  2  8  1  0  0  0  0
  6  9  1  0  0  0  0
  6 10  1  0  0  0  0
  7  2  1  0  0  0  0
  9 12  1  0  0  0  0
 13  9  1  0  0  0  0
 14  9  1  0  0  0  0
M  RAD  6   2   2   3   2   4   2   5   2   6   3  11   2
M  END
$$$$
