butane_opt
 OpenBabel08242015393D

 14  9  0  0  0  0  0  0  0  0999 V2000
   -3.9760    0.3207   -0.0840 C   0  0  0  0  0  0  0  0  0  0  0  0
   -2.6909   -0.7585    0.2041 C   0  0  0  0  0  0  0  0  0  0  0  0
   -4.7472   -0.2546    0.1628 H   0  0  0  0  0  0  0  0  0  0  0  0
   -4.3503    1.2819   -1.2068 H   0  0  0  0  0  0  0  0  0  0  0  0
   -4.0123    0.6458    0.5599 H   0  0  0  0  0  0  0  0  0  0  0  0
   -1.4163    0.2138    0.0216 C   0  0  0  0  0  0  0  0  0  0  0  0
   -2.7534   -1.1515   -0.3347 H   0  0  0  0  0  0  0  0  0  0  0  0
   -2.8319   -1.3169    1.1629 H   0  0  0  0  0  0  0  0  0  0  0  0
   -0.1162   -0.6739   -0.0857 C   0  0  0  0  0  0  0  0  0  0  0  0
   -1.2806    1.1127    1.1006 H   0  0  0  0  0  0  0  0  0  0  0  0
   -1.4134    0.5334   -0.7273 H   0  0  0  0  0  0  0  0  0  0  0  0
   -0.5023   -0.6823    0.4442 H   0  0  0  0  0  0  0  0  0  0  0  0
    0.8735   -0.0558    0.8339 H   0  0  0  0  0  0  0  0  0  0  0  0
    0.3586   -1.8025   -1.3501 H   0  0  0  0  0  0  0  0  0  0  0  0
  1  3  1  0  0  0  0
  1  2  1  0  0  0  0
  1  5  1  0  0  0  0
  2  8  1  0  0  0  0
  6 10  1  0  0  0  0
  7  2  1  0  0  0  0
  9 12  1  0  0  0  0
  9 13  1  0  0  0  0
 11  6  1  0  0  0  0
M  RAD  6   1   2   2   2   4   2   6   3   9   3  14   2
M  END
$$$$
