butane_opt
 OpenBabel08242015393D

 14 13  0  0  0  0  0  0  0  0999 V2000
   -3.9203    0.3078   -0.1683 C   0  0  0  0  0  0  0  0  0  0  0  0
   -2.6607   -0.6767    0.1395 C   0  0  0  0  0  0  0  0  0  0  0  0
   -4.8019   -0.3452    0.2116 H   0  0  0  0  0  0  0  0  0  0  0  0
   -4.2626    1.2076   -1.2808 H   0  0  0  0  0  0  0  0  0  0  0  0
   -4.0020    0.7181    0.5764 H   0  0  0  0  0  0  0  0  0  0  0  0
   -1.3552    0.1582    0.2601 C   0  0  0  0  0  0  0  0  0  0  0  0
   -2.2324   -1.2044   -0.5066 H   0  0  0  0  0  0  0  0  0  0  0  0
   -2.8539   -1.3765    1.0999 H   0  0  0  0  0  0  0  0  0  0  0  0
   -0.2580   -0.6634   -0.1029 C   0  0  0  0  0  0  0  0  0  0  0  0
   -1.1341    1.1306    1.2123 H   0  0  0  0  0  0  0  0  0  0  0  0
   -1.4964    0.4474   -0.4255 H   0  0  0  0  0  0  0  0  0  0  0  0
    0.0907   -1.3365    0.6363 H   0  0  0  0  0  0  0  0  0  0  0  0
    0.5693   -0.0871   -0.7689 H   0  0  0  0  0  0  0  0  0  0  0  0
   -0.5319   -1.1181   -0.8629 H   0  0  0  0  0  0  0  0  0  0  0  0
  1  2  1  0  0  0  0
  1  3  1  0  0  0  0
  1  5  1  0  0  0  0
  2  6  1  0  0  0  0
  2  8  1  0  0  0  0
  4  1  1  0  0  0  0
  6 10  1  0  0  0  0
  7  2  1  0  0  0  0
  9  6  1  0  0  0  0
  9 12  1  0  0  0  0
 11  6  1  0  0  0  0
 13  9  1  0  0  0  0
 14  9  1  0  0  0  0
M  END
$$$$
