14
butane_opt
C  -4.054953   0.290013   0.208817
C  -2.703840  -0.650310  -0.151118
H  -4.948963  -0.147438   0.134583
H  -4.031495   0.823923  -0.741335
H  -3.816683   1.141583   1.187324
C  -1.355642   0.130369  -0.132723
H  -2.692737  -1.578416  -1.273232
H  -2.677498  -0.903998   0.579640
C  -0.146217  -0.666384   0.156053
H  -1.191958   0.748966   0.764803
H  -1.077501   0.998366  -1.198694
H  -0.337791  -1.878223   1.440536
H   0.878867   0.007202   0.008652
H  -0.022222  -0.917468  -0.354027
