butane_opt
 OpenBabel08242015393D

 14 13  0  0  0  0  0  0  0  0999 V2000
   -3.9320    0.3084    0.2514 C   0  0  0  0  0  0  0  0  0  0  0  0
   -2.6499   -0.6789   -0.1466 C   0  0  0  0  0  0  0  0  0  0  0  0
   -4.6093    0.0153    0.1551 H   0  0  0  0  0  0  0  0  0  0  0  0
   -3.8985    0.5764   -0.5768 H   0  0  0  0  0  0  0  0  0  0  0  0
   -4.0156    1.0244    1.1751 H   0  0  0  0  0  0  0  0  0  0  0  0
   -1.3929    0.1203   -0.2910 C   0  0  0  0  0  0  0  0  0  0  0  0
   -2.9290   -1.1919   -0.9877 H   0  0  0  0  0  0  0  0  0  0  0  0
   -2.2840   -1.3819    0.6985 H   0  0  0  0  0  0  0  0  0  0  0  0
   -0.2168   -0.6542    0.2354 C   0  0  0  0  0  0  0  0  0  0  0  0
   -1.6166    0.7305    0.4229 H   0  0  0  0  0  0  0  0  0  0  0  0
   -1.4863    0.9309   -1.2075 H   0  0  0  0  0  0  0  0  0  0  0  0
   -0.8075   -0.9900    1.0233 H   0  0  0  0  0  0  0  0  0  0  0  0
    0.7829    0.1833    0.9151 H   0  0  0  0  0  0  0  0  0  0  0  0
    0.0944   -1.5066   -0.7603 H   0  0  0  0  0  0  0  0  0  0  0  0
  1  5  1  0  0  0  0
  2  1  1  0  0  0  0
  2  8  1  0  0  0  0
  3  1  1  0  0  0  0
  4  1  1  0  0  0  0
  6  2  1  0  0  0  0
  6  9  1  0  0  0  0
  6 10  1  0  0  0  0
  7  2  1  0  0  0  0
  9 13  1  0  0  0  0
  9 12  1  0  0  0  0
 11  6  1  0  0  0  0
 14  9  1  0  0  0  0
M  END
$$$$
