14
butane_opt
C  -3.964214   0.347615   0.131823
C  -2.655919  -0.668511  -0.026021
H  -4.975481  -0.289752   0.088138
H  -4.261404   0.860929  -0.749819
H  -3.754355   1.155280   1.178357
C  -1.327270   0.096807  -0.166253
H  -2.815167  -1.625781  -1.107012
H  -2.445742  -1.062970   0.798645
C  -0.223426  -0.613678   0.173128
H  -1.286112   0.381883   0.412650
H  -1.404485   0.821770  -1.215093
H  -0.765947  -1.147752   0.981627
H   0.799069   0.015479   0.593451
H  -0.060857  -1.511448  -0.902571
