14
butane_opt
C  -3.935918   0.201796   0.152390
C  -2.749192  -0.603510  -0.054182
H  -4.931288  -0.307648  -0.669886
H  -3.943600   0.262973  -0.453547
H  -4.161649   1.743367   1.520709
C  -1.402395   0.229488  -0.109310
H  -2.747286  -1.301845  -0.921626
H  -2.981775  -1.142353   0.752750
C  -0.098113  -0.721727   0.135412
H  -1.622046   0.657816   0.400305
H  -1.533969   1.225044  -1.233217
H   0.165435  -1.711476   1.270836
H   0.765983  -0.145015  -0.190132
H   0.191797  -1.047381  -0.402790
