14
butane_opt
C  -3.952674   0.199414  -0.059012
C  -2.753047  -0.482980   0.060149
H  -5.044088  -0.647393   0.810244
H  -4.151278   1.606335  -1.387398
H  -3.670416   0.119942   0.277778
C  -1.352177   0.224428   0.131566
H  -2.851814  -0.994972  -0.711864
H  -2.658911  -1.344668   0.934416
C  -0.131934  -0.783631  -0.048487
H  -1.516912   1.294481   1.244270
H  -1.278973   0.444885  -0.474955
H  -0.171523  -0.993466   0.590995
H   0.519657  -0.332998   0.047485
H   0.148811  -1.551931  -1.055603
