14
butane_opt
C  -3.944351   0.239680   0.194778
C  -2.764575  -0.601593  -0.021456
H  -4.934672  -0.379278  -0.761140
H  -3.780340   0.556327  -0.514623
H  -4.280083   1.559038   1.317578
C  -1.387068   0.190579  -0.174395
H  -2.751182  -1.281959  -1.056229
H  -2.643150  -1.226500   0.830608
C  -0.087791  -0.723423   0.159325
H  -1.487326   0.679353   0.481424
H  -1.274909   1.084145  -1.281243
H  -0.396272  -1.395274   1.073206
H   0.904470  -0.027439   0.091045
H  -0.119157  -1.345001  -0.593752
