14
butane_opt
C  -3.886343   0.349154  -0.055178
C  -2.701409  -0.686176   0.219840
H  -4.944695  -0.341605  -0.532240
H  -3.577307   0.959248  -1.021514
H  -4.468070   1.200066   0.897304
C  -1.369870   0.084067   0.019802
H  -2.678282  -1.389557  -0.664076
H  -2.798629  -1.372084   1.166801
C  -0.186771  -0.633213  -0.057240
H  -1.423008   0.878425   1.162819
H  -1.566402   0.686171  -0.834009
H  -0.262982  -1.059154   0.686588
H   0.933038   0.058755   0.039259
H  -0.519722  -1.434098  -0.984596
