14
butane_opt
C  -4.039723   0.212114  -0.086894
C  -2.720976  -0.556929   0.238989
H  -4.839109  -0.416057  -0.927615
H  -3.493119   0.412155  -0.682255
H  -4.186085   1.084323   0.943395
C  -1.413977   0.282628   0.040595
H  -2.592827  -0.900820  -0.446670
H  -2.893298  -1.496160   1.296806
C  -0.082655  -0.753633  -0.083241
H  -1.244920   1.036398   1.001098
H  -1.524381   0.642102  -0.673817
H   0.088453  -1.298608   0.663133
H   0.746768  -0.267114  -0.047945
H   0.002689  -1.488277  -0.981802
