butane_opt
 OpenBabel08242015393D

 14 11  0  0  0  0  0  0  0  0999 V2000
   -4.0318    0.3346    0.0833 C   0  0  0  0  0  0  0  0  0  0  0  0
   -2.6924   -0.6500   -0.0063 C   0  0  0  0  0  0  0  0  0  0  0  0
   -4.6047   -0.0725   -0.7624 H   0  0  0  0  0  0  0  0  0  0  0  0
   -4.1642    0.1596   -0.1779 H   0  0  0  0  0  0  0  0  0  0  0  0
   -4.2769    1.5850    1.4069 H   0  0  0  0  0  0  0  0  0  0  0  0
   -1.3423    0.0859   -0.0862 C   0  0  0  0  0  0  0  0  0  0  0  0
   -2.9081   -1.3293   -0.8260 H   0  0  0  0  0  0  0  0  0  0  0  0
   -2.7236   -1.3960    0.9199 H   0  0  0  0  0  0  0  0  0  0  0  0
   -0.1549   -0.6569    0.0867 C   0  0  0  0  0  0  0  0  0  0  0  0
   -1.1746    0.5608    0.5323 H   0  0  0  0  0  0  0  0  0  0  0  0
   -1.2489    1.0142   -1.2276 H   0  0  0  0  0  0  0  0  0  0  0  0
   -0.2560   -1.5326    1.2183 H   0  0  0  0  0  0  0  0  0  0  0  0
    1.0307    0.2044    0.0082 H   0  0  0  0  0  0  0  0  0  0  0  0
   -0.0940   -0.9765   -0.4911 H   0  0  0  0  0  0  0  0  0  0  0  0
  2  1  1  0  0  0  0
  2  8  1  0  0  0  0
  3  1  1  0  0  0  0
  6  2  1  0  0  0  0
  6  9  1  0  0  0  0
  6 10  1  0  0  0  0
  7  2  1  0  0  0  0
  9 12  1  0  0  0  0
 11  6  1  0  0  0  0
 13  9  1  0  0  0  0
 14  9  1  0  0  0  0
M  RAD  3   1   3   4   2   5   2
M  END
$$$$
