14
butane_opt
C  -3.896490   0.220998  -0.110014
C  -2.666704  -0.559971   0.160462
H  -4.891097  -0.448001  -0.239644
H  -3.604422   1.066349  -1.228331
H  -3.979026   0.333271   0.294508
C  -1.483117   0.265681   0.271152
H  -2.732871  -1.336690  -0.762003
H  -2.847183  -1.217597   1.168169
C  -0.191024  -0.741819  -0.133850
H  -1.219748   1.078042   1.293832
H  -1.732342   0.888949  -0.601443
H   0.528600  -1.516449   0.828258
H   0.609527  -0.097829  -0.684770
H  -0.337806  -1.442351  -0.922190
