butane_opt
 OpenBabel08242015393D

 14 10  0  0  0  0  0  0  0  0999 V2000
   -3.8182    0.1954    0.1298 C   0  0  0  0  0  0  0  0  0  0  0  0
   -2.7346   -0.5176   -0.1318 C   0  0  0  0  0  0  0  0  0  0  0  0
   -4.9429   -0.6445   -0.1088 H   0  0  0  0  0  0  0  0  0  0  0  0
   -3.8407    0.3804   -0.6692 H   0  0  0  0  0  0  0  0  0  0  0  0
   -3.8773    1.4721    1.4245 H   0  0  0  0  0  0  0  0  0  0  0  0
   -1.4550    0.2473   -0.0972 C   0  0  0  0  0  0  0  0  0  0  0  0
   -2.6305   -1.2502   -1.0384 H   0  0  0  0  0  0  0  0  0  0  0  0
   -2.6900   -1.2544    0.7448 H   0  0  0  0  0  0  0  0  0  0  0  0
   -0.2214   -0.7479    0.1786 C   0  0  0  0  0  0  0  0  0  0  0  0
   -1.5510    0.9925    0.9391 H   0  0  0  0  0  0  0  0  0  0  0  0
   -1.2507    0.8391   -1.0349 H   0  0  0  0  0  0  0  0  0  0  0  0
    0.2799   -2.0230    1.4636 H   0  0  0  0  0  0  0  0  0  0  0  0
    0.5681   -0.2841   -0.7829 H   0  0  0  0  0  0  0  0  0  0  0  0
   -0.2918   -0.8351   -0.3320 H   0  0  0  0  0  0  0  0  0  0  0  0
  2  6  1  0  0  0  0
  2  1  1  0  0  0  0
  2  8  1  0  0  0  0
  3  1  1  0  0  0  0
  4  1  1  0  0  0  0
  6  9  1  0  0  0  0
  6 10  1  0  0  0  0
  7  2  1  0  0  0  0
 11  6  1  0  0  0  0
 13  9  1  0  0  0  0
M  RAD  5   1   2   5   2   9   3  12   2  14   2
M  END
$$$$
