butane_opt
 OpenBabel08242015393D

 14 11  0  0  0  0  0  0  0  0999 V2000
   -3.9282    0.2144   -0.0219 C   0  0  0  0  0  0  0  0  0  0  0  0
   -2.6802   -0.6207   -0.0326 C   0  0  0  0  0  0  0  0  0  0  0  0
   -4.6739   -0.3967    0.9615 H   0  0  0  0  0  0  0  0  0  0  0  0
   -4.3377    1.5411   -1.3256 H   0  0  0  0  0  0  0  0  0  0  0  0
   -3.7678    0.3971    0.5027 H   0  0  0  0  0  0  0  0  0  0  0  0
   -1.4463    0.2593    0.0985 C   0  0  0  0  0  0  0  0  0  0  0  0
   -2.8023   -1.0906   -0.7121 H   0  0  0  0  0  0  0  0  0  0  0  0
   -2.8830   -1.2464    0.8518 H   0  0  0  0  0  0  0  0  0  0  0  0
   -0.1128   -0.7111    0.0392 C   0  0  0  0  0  0  0  0  0  0  0  0
   -1.3977    1.1048    1.0440 H   0  0  0  0  0  0  0  0  0  0  0  0
   -1.4882    0.5160   -0.6739 H   0  0  0  0  0  0  0  0  0  0  0  0
    0.0657   -1.1703    0.7966 H   0  0  0  0  0  0  0  0  0  0  0  0
    0.6513   -0.2776    0.0370 H   0  0  0  0  0  0  0  0  0  0  0  0
   -0.3499   -1.5378   -1.0838 H   0  0  0  0  0  0  0  0  0  0  0  0
  1  3  1  0  0  0  0
  2  1  1  0  0  0  0
  2  6  1  0  0  0  0
  2  8  1  0  0  0  0
  6 10  1  0  0  0  0
  7  2  1  0  0  0  0
  9  6  1  0  0  0  0
  9 12  1  0  0  0  0
 11  6  1  0  0  0  0
 13  9  1  0  0  0  0
 14  9  1  0  0  0  0
M  RAD  3   1   3   4   2   5   2
M  END
$$$$
