14
butane_opt
C  -3.868372   0.301982   0.132430
C  -2.686394  -0.644565   0.004307
H  -4.610169  -0.140629  -0.817347
H  -3.866650   0.408578  -0.493960
H  -4.206336   1.564096   1.264038
C  -1.450197   0.099203  -0.132105
H  -2.909542  -1.349028  -0.882325
H  -2.504543  -1.352509   0.868405
C  -0.196222  -0.610551   0.124284
H  -1.203051   0.741273   0.692923
H  -1.383650   0.718554  -1.225490
H  -0.407674  -1.636159   1.252986
H   0.799274   0.080743  -0.113404
H  -0.350296  -1.224449  -0.588334
