14
butane_opt
C  -3.935088   0.245940   0.088677
C  -2.733596  -0.549152  -0.138679
H  -4.930322  -0.503898   0.893973
H  -4.513694   1.212097  -0.910761
H  -3.234265   0.503712   0.664933
C  -1.378606   0.198252  -0.044865
H  -2.678247  -1.309056  -0.992333
H  -2.475270  -1.087439   0.696045
C  -0.166029  -0.730710   0.125296
H  -1.365123   0.978942   0.789761
H  -1.339703   0.729596  -0.751251
H  -0.475051  -1.458110   1.232869
H   0.732809  -0.067786   0.144221
H  -0.139450  -1.474851  -0.756555
