butane_opt
 OpenBabel08242015393D

 14 13  0  0  0  0  0  0  0  0999 V2000
   -4.0397    0.2121   -0.0869 C   0  0  0  0  0  0  0  0  0  0  0  0
   -2.7210   -0.5569    0.2390 C   0  0  0  0  0  0  0  0  0  0  0  0
   -4.8391   -0.4161   -0.9276 H   0  0  0  0  0  0  0  0  0  0  0  0
   -3.4931    0.4122   -0.6823 H   0  0  0  0  0  0  0  0  0  0  0  0
   -4.1861    1.0843    0.9434 H   0  0  0  0  0  0  0  0  0  0  0  0
   -1.4140    0.2826    0.0406 C   0  0  0  0  0  0  0  0  0  0  0  0
   -2.5928   -0.9008   -0.4467 H   0  0  0  0  0  0  0  0  0  0  0  0
   -2.8933   -1.4962    1.2968 H   0  0  0  0  0  0  0  0  0  0  0  0
   -0.0827   -0.7536   -0.0832 C   0  0  0  0  0  0  0  0  0  0  0  0
   -1.2449    1.0364    1.0011 H   0  0  0  0  0  0  0  0  0  0  0  0
   -1.5244    0.6421   -0.6738 H   0  0  0  0  0  0  0  0  0  0  0  0
    0.0885   -1.2986    0.6631 H   0  0  0  0  0  0  0  0  0  0  0  0
    0.7468   -0.2671   -0.0479 H   0  0  0  0  0  0  0  0  0  0  0  0
    0.0027   -1.4883   -0.9818 H   0  0  0  0  0  0  0  0  0  0  0  0
  1  2  1  0  0  0  0
  1  5  1  0  0  0  0
  2  8  1  0  0  0  0
  3  1  1  0  0  0  0
  4  1  1  0  0  0  0
  6  2  1  0  0  0  0
  6 10  1  0  0  0  0
  7  2  1  0  0  0  0
  9 13  1  0  0  0  0
  9  6  1  0  0  0  0
  9 12  1  0  0  0  0
 11  6  1  0  0  0  0
 14  9  1  0  0  0  0
M  END
$$$$
