butane_opt
 OpenBabel08242015393D

 14 12  0  0  0  0  0  0  0  0999 V2000
   -3.9833    0.2663    0.0360 C   0  0  0  0  0  0  0  0  0  0  0  0
   -2.7016   -0.6510   -0.0142 C   0  0  0  0  0  0  0  0  0  0  0  0
   -5.0736   -0.4554   -0.0576 H   0  0  0  0  0  0  0  0  0  0  0  0
   -3.7070    0.6720   -0.7524 H   0  0  0  0  0  0  0  0  0  0  0  0
   -4.1982    1.1024    1.0292 H   0  0  0  0  0  0  0  0  0  0  0  0
   -1.4071    0.3108    0.0482 C   0  0  0  0  0  0  0  0  0  0  0  0
   -2.8309   -1.5313   -0.9019 H   0  0  0  0  0  0  0  0  0  0  0  0
   -2.8297   -1.1317    0.8766 H   0  0  0  0  0  0  0  0  0  0  0  0
   -0.1256   -0.7088    0.0545 C   0  0  0  0  0  0  0  0  0  0  0  0
   -1.6051    0.6376    0.7353 H   0  0  0  0  0  0  0  0  0  0  0  0
   -1.1708    0.8324   -0.9143 H   0  0  0  0  0  0  0  0  0  0  0  0
    0.4480   -1.7512    1.0950 H   0  0  0  0  0  0  0  0  0  0  0  0
    0.6912   -0.2791   -0.5352 H   0  0  0  0  0  0  0  0  0  0  0  0
   -0.1527   -1.1424   -0.5751 H   0  0  0  0  0  0  0  0  0  0  0  0
  1  5  1  0  0  0  0
  2  1  1  0  0  0  0
  2  6  1  0  0  0  0
  2  8  1  0  0  0  0
  3  1  1  0  0  0  0
  4  1  1  0  0  0  0
  6  9  1  0  0  0  0
  6 10  1  0  0  0  0
  7  2  1  0  0  0  0
 11  6  1  0  0  0  0
 13  9  1  0  0  0  0
 14  9  1  0  0  0  0
M  RAD  2   9   2  12   2
M  END
$$$$
