butane_opt
 OpenBabel08242015393D

 14 11  0  0  0  0  0  0  0  0999 V2000
   -3.9308    0.2892   -0.0814 C   0  0  0  0  0  0  0  0  0  0  0  0
   -2.6626   -0.6088    0.2044 C   0  0  0  0  0  0  0  0  0  0  0  0
   -4.7592   -0.3200   -0.2046 H   0  0  0  0  0  0  0  0  0  0  0  0
   -4.1334    1.0868   -1.1195 H   0  0  0  0  0  0  0  0  0  0  0  0
   -4.2234    0.6094    0.5752 H   0  0  0  0  0  0  0  0  0  0  0  0
   -1.4224    0.1586    0.1131 C   0  0  0  0  0  0  0  0  0  0  0  0
   -2.7493   -1.0807   -0.6464 H   0  0  0  0  0  0  0  0  0  0  0  0
   -2.6861   -1.4945    1.2796 H   0  0  0  0  0  0  0  0  0  0  0  0
   -0.1629   -0.6965   -0.0719 C   0  0  0  0  0  1  0  0  0  0  0  0
   -1.3086    0.6006    0.7992 H   0  0  0  0  0  0  0  0  0  0  0  0
   -1.3844    0.7871   -0.7458 H   0  0  0  0  0  0  0  0  0  0  0  0
   -0.3531   -0.5768    0.3027 H   0  0  0  0  0  0  0  0  0  0  0  0
    0.9778    0.0106    0.5219 H   0  0  0  0  0  0  0  0  0  0  0  0
   -0.2236   -1.7938   -1.3987 H   0  0  0  0  0  0  0  0  0  0  0  0
  1  2  1  0  0  0  0
  1  5  1  0  0  0  0
  2  8  1  0  0  0  0
  3  1  1  0  0  0  0
  4  1  1  0  0  0  0
  6  2  1  0  0  0  0
  6 12  1  0  0  0  0
  6 10  1  0  0  0  0
  7  2  1  0  0  0  0
  9 13  1  0  0  0  0
 11  6  1  0  0  0  0
M  RAD  1  14   2
M  END
$$$$
