14
butane_opt
C  -3.968702   0.272344  -0.009970
C  -2.700612  -0.629617   0.064462
H  -4.882058  -0.306476   0.122885
H  -4.033435   0.968553  -0.957241
H  -3.923874   0.898737   0.818980
C  -1.388197   0.176233   0.028436
H  -2.682589  -1.242867  -0.762627
H  -2.702760  -1.311146   0.981775
C  -0.155715  -0.689995   0.012550
H  -1.364025   0.904486   0.910561
H  -1.363191   0.798534  -0.853046
H  -0.182655  -1.190867   0.828222
H   0.774286  -0.050252   0.100483
H  -0.106759  -1.489714  -0.919472
