butane_opt
 OpenBabel08242015393D

 14 13  0  0  0  0  0  0  0  0999 V2000
   -3.9007    0.2933    0.0668 C   0  0  0  0  0  0  0  0  0  0  0  0
   -2.6150   -0.6411   -0.0705 C   0  0  0  0  0  0  0  0  0  0  0  0
   -4.7125   -0.1496    0.5936 H   0  0  0  0  0  0  0  0  0  0  0  0
   -4.4614    0.9945   -0.7965 H   0  0  0  0  0  0  0  0  0  0  0  0
   -3.6772    0.8814    0.8910 H   0  0  0  0  0  0  0  0  0  0  0  0
   -1.3917    0.1218   -0.0799 C   0  0  0  0  0  0  0  0  0  0  0  0
   -2.7993   -1.4852   -0.9725 H   0  0  0  0  0  0  0  0  0  0  0  0
   -2.8414   -1.3046    1.0001 H   0  0  0  0  0  0  0  0  0  0  0  0
   -0.2346   -0.6553    0.0974 C   0  0  0  0  0  0  0  0  0  0  0  0
   -1.4990    0.9460    0.7679 H   0  0  0  0  0  0  0  0  0  0  0  0
   -1.2490    0.6994   -0.8329 H   0  0  0  0  0  0  0  0  0  0  0  0
   -0.6655   -1.1142    1.1005 H   0  0  0  0  0  0  0  0  0  0  0  0
    0.6002   -0.0863    0.1999 H   0  0  0  0  0  0  0  0  0  0  0  0
    0.0030   -1.2812   -0.7254 H   0  0  0  0  0  0  0  0  0  0  0  0
  1  3  1  0  0  0  0
  1  5  1  0  0  0  0
  2  1  1  0  0  0  0
  2  8  1  0  0  0  0
  4  1  1  0  0  0  0
  6  2  1  0  0  0  0
  6  9  1  0  0  0  0
  6 10  1  0  0  0  0
  7  2  1  0  0  0  0
  9 13  1  0  0  0  0
  9 12  1  0  0  0  0
 11  6  1  0  0  0  0
 14  9  1  0  0  0  0
M  END
$$$$
