14
butane_opt
C  -3.899841   0.212672  -0.094755
C  -2.699971  -0.549270   0.032909
H  -4.862886  -0.524135   0.795075
H  -4.076211   1.409645  -1.231321
H  -3.653473   0.355729   0.449577
C  -1.374021   0.237613   0.171176
H  -2.663184  -0.967473  -0.630236
H  -2.810683  -1.412847   1.130881
C  -0.254841  -0.749026  -0.068749
H  -1.564330   1.135361   1.152155
H  -1.296842   0.728024  -0.423357
H   0.047462  -1.112605   0.552718
H   0.621029  -0.338183  -0.018388
H   0.013118  -1.576915  -0.927350
