14
butane_opt
C  -3.926629   0.257634  -0.017321
C  -2.697918  -0.609605   0.077087
H  -4.844091  -0.337242  -0.006686
H  -3.920938   0.869826  -0.908893
H  -4.003985   0.944914   0.886705
C  -1.399979   0.187807   0.029966
H  -2.684447  -1.232968  -0.738736
H  -2.758643  -1.270953   0.987564
C  -0.171533  -0.695600   0.005216
H  -1.347286   0.898099   0.904282
H  -1.484399   0.797086  -0.824149
H  -0.156646  -1.270887   0.872751
H   0.717746  -0.145252   0.021074
H  -0.177172  -1.414455  -0.889119
