butane_opt
 OpenBabel08242015393D

 14 12  0  0  0  0  0  0  0  0999 V2000
   -3.9932    0.2858    0.0218 C   0  0  0  0  0  0  0  0  0  0  0  0
   -2.6588   -0.6375    0.0696 C   0  0  0  0  0  0  0  0  0  0  0  0
   -4.8364   -0.3402    0.2034 H   0  0  0  0  0  0  0  0  0  0  0  0
   -4.1250    1.1099   -1.0180 H   0  0  0  0  0  0  0  0  0  0  0  0
   -4.0272    0.8261    0.8847 H   0  0  0  0  0  0  0  0  0  0  0  0
   -1.3670    0.2170    0.0026 C   0  0  0  0  0  0  0  0  0  0  0  0
   -2.9740   -1.4741   -0.9084 H   0  0  0  0  0  0  0  0  0  0  0  0
   -2.6521   -1.4448    0.8813 H   0  0  0  0  0  0  0  0  0  0  0  0
   -0.1947   -0.6764    0.0312 C   0  0  0  0  0  0  0  0  0  0  0  0
   -1.1330    0.6128    0.6496 H   0  0  0  0  0  0  0  0  0  0  0  0
   -1.2734    0.9468   -0.9802 H   0  0  0  0  0  0  0  0  0  0  0  0
   -0.3960   -1.0436    0.6902 H   0  0  0  0  0  0  0  0  0  0  0  0
    0.6186   -0.1090    0.5492 H   0  0  0  0  0  0  0  0  0  0  0  0
    0.3372   -1.7920   -1.0739 H   0  0  0  0  0  0  0  0  0  0  0  0
  1  2  1  0  0  0  0
  1  3  1  0  0  0  0
  1  5  1  0  0  0  0
  2  8  1  0  0  0  0
  4  1  1  0  0  0  0
  6  9  1  0  0  0  0
  6  2  1  0  0  0  0
  6 10  1  0  0  0  0
  7  2  1  0  0  0  0
  9 13  1  0  0  0  0
  9 12  1  0  0  0  0
 11  6  1  0  0  0  0
M  RAD  2   9   2  14   2
M  END
$$$$
