butane_opt
 OpenBabel08242015393D

 14 10  0  0  0  0  0  0  0  0999 V2000
   -3.9105    0.1883    0.0901 C   0  0  0  0  0  0  0  0  0  0  0  0
   -2.7649   -0.5516   -0.0201 C   0  0  0  0  0  0  0  0  0  0  0  0
   -4.8816   -0.3512    0.1448 H   0  0  0  0  0  0  0  0  0  0  0  0
   -4.0664    0.9571   -0.7788 H   0  0  0  0  0  0  0  0  0  0  0  0
   -3.9928    0.8616    0.9316 H   0  0  0  0  0  0  0  0  0  0  0  0
   -1.3785    0.2653   -0.0934 C   0  0  0  0  0  0  0  0  0  0  0  0
   -3.0724   -1.2635   -0.8291 H   0  0  0  0  0  0  0  0  0  0  0  0
   -2.8538   -1.3118    1.0822 H   0  0  0  0  0  0  0  0  0  0  0  0
   -0.0766   -0.7520    0.1515 C   0  0  0  0  0  0  0  0  0  0  0  0
   -1.5743    0.6847    0.6195 H   0  0  0  0  0  0  0  0  0  0  0  0
   -1.4876    1.2543   -1.3024 H   0  0  0  0  0  0  0  0  0  0  0  0
   -0.2815   -0.6987    0.5257 H   0  0  0  0  0  0  0  0  0  0  0  0
    0.5493   -0.4000    0.5283 H   0  0  0  0  0  0  0  0  0  0  0  0
    0.2554   -2.0583   -1.1147 H   0  0  0  0  0  0  0  0  0  0  0  0
  1  3  1  0  0  0  0
  1  5  1  0  0  0  0
  2  1  1  0  0  0  0
  2  8  1  0  0  0  0
  4  1  1  0  0  0  0
  6  2  1  0  0  0  0
  6  9  1  0  0  0  0
  6 10  1  0  0  0  0
  7  2  1  0  0  0  0
  9 13  1  0  0  0  0
M  RAD  5   6   2   9   3  11   2  12   2  14   2
M  END
$$$$
