butane_opt
 OpenBabel08242015393D

 14  9  0  0  0  0  0  0  0  0999 V2000
   -3.9070    0.3329   -0.1041 C   0  0  0  0  0  0  0  0  0  0  0  0
   -2.6341   -0.7341    0.0819 C   0  0  0  0  0  0  0  0  0  0  0  0
   -4.7795   -0.2439    0.8838 H   0  0  0  0  0  0  0  0  0  0  0  0
   -4.3960    1.6810   -1.5108 H   0  0  0  0  0  0  0  0  0  0  0  0
   -4.0126    0.3453    0.4547 H   0  0  0  0  0  0  0  0  0  0  0  0
   -1.3850    0.1566    0.1463 C   0  0  0  0  0  0  0  0  0  0  0  0
   -2.4018   -1.1221   -0.6068 H   0  0  0  0  0  0  0  0  0  0  0  0
   -2.8575   -1.5237    1.2089 H   0  0  0  0  0  0  0  0  0  0  0  0
   -0.2270   -0.6262   -0.0539 C   0  0  0  0  0  0  0  0  0  0  0  0
   -1.4753    1.0753    1.1095 H   0  0  0  0  0  0  0  0  0  0  0  0
   -1.3887    0.2881   -0.4789 H   0  0  0  0  0  0  0  0  0  0  0  0
   -0.1759   -0.7735    0.4984 H   0  0  0  0  0  0  0  0  0  0  0  0
    0.7559    0.0670    0.1918 H   0  0  0  0  0  0  0  0  0  0  0  0
   -0.4424   -1.7767   -1.2481 H   0  0  0  0  0  0  0  0  0  0  0  0
  1  2  1  0  0  0  0
  1  3  1  0  0  0  0
  2  6  1  0  0  0  0
  2  8  1  0  0  0  0
  6 10  1  0  0  0  0
  7  2  1  0  0  0  0
  9  6  1  0  0  0  0
  9 13  1  0  0  0  0
 11  6  1  0  0  0  0
M  RAD  6   1   3   4   2   5   2   9   3  12   2  14   2
M  END
$$$$
