14
butane_opt
C  -3.860184   0.313540  -0.020410
C  -2.745070  -0.665168   0.073570
H  -4.810608  -0.232757   0.202673
H  -4.082238   1.349837  -1.168911
H  -4.001525   0.589361   0.641833
C  -1.396262   0.150471   0.065477
H  -2.679213  -1.523734  -0.761845
H  -2.587230  -1.171923   0.979504
C  -0.189069  -0.695789  -0.024145
H  -1.463826   1.004000   1.150053
H  -1.283681   0.516338  -0.742239
H  -0.160462  -1.108640   0.781977
H   0.697475   0.040189  -0.057203
H  -0.359972  -1.146174  -0.792342
