14
butane_opt
C  -3.962238   0.219596  -0.156033
C  -2.749545  -0.580990   0.178430
H  -4.955893  -0.480889  -0.238661
H  -3.821824   0.897371  -1.131710
H  -4.328022   0.749547   0.393566
C  -1.426480   0.275010   0.295866
H  -2.473670  -0.925967  -0.445325
H  -2.988134  -1.317736   1.180851
C  -0.071686  -0.761877  -0.170404
H  -1.365835   1.234095   1.177968
H  -1.336664   0.589535  -0.384861
H   0.556890  -1.689541   0.827502
H   0.942919  -0.134563  -0.770952
H  -0.685631  -1.242037  -0.909782
