butane_opt
 OpenBabel08242015393D

 14  8  0  0  0  0  0  0  0  0999 V2000
   -3.9067    0.2609    0.0848 C   0  0  0  0  0 15  0  0  0  0  0  0
   -2.7300   -0.5922   -0.0544 C   0  0  0  0  0  0  0  0  0  0  0  0
   -5.0278   -0.4892    0.8801 H   0  0  0  0  0  0  0  0  0  0  0  0
   -4.3953    1.3265   -1.0528 H   0  0  0  0  0  0  0  0  0  0  0  0
   -3.5416    0.3477    0.5833 H   0  0  0  0  0  0  0  0  0  0  0  0
   -1.4281    0.1969   -0.0324 C   0  0  0  0  0  0  0  0  0  0  0  0
   -2.7907   -1.6140   -1.3081 H   0  0  0  0  0  0  0  0  0  0  0  0
   -2.6564   -0.8734    0.6334 H   0  0  0  0  0  0  0  0  0  0  0  0
   -0.0880   -0.7204    0.1116 C   0  0  0  0  0  0  0  0  0  0  0  0
   -1.6937    0.8831    0.8142 H   0  0  0  0  0  0  0  0  0  0  0  0
   -1.6193    0.8014   -0.8258 H   0  0  0  0  0  0  0  0  0  0  0  0
   -0.4043   -1.2505    1.0019 H   0  0  0  0  0  0  0  0  0  0  0  0
    0.8357   -0.1240    0.1267 H   0  0  0  0  0  0  0  0  0  0  0  0
    0.1276   -1.2375   -0.7899 H   0  0  0  0  0  0  0  0  0  0  0  0
  2  5  1  0  0  0  0
  2  8  1  0  0  0  0
  6  9  1  0  0  0  0
  6 10  1  0  0  0  0
  9 13  1  0  0  0  0
  9 12  1  0  0  0  0
 11  6  1  0  0  0  0
 14  9  1  0  0  0  0
M  RAD  5   2   3   3   2   4   2   6   2   7   2
M  END
$$$$
