butane_opt
 OpenBabel08242015393D

 14 13  0  0  0  0  0  0  0  0999 V2000
   -3.9441    0.2502   -0.0065 C   0  0  0  0  0  0  0  0  0  0  0  0
   -2.7073   -0.5940    0.0656 C   0  0  0  0  0  0  0  0  0  0  0  0
   -4.8782   -0.3565    0.0343 H   0  0  0  0  0  0  0  0  0  0  0  0
   -3.9307    0.9598   -0.9423 H   0  0  0  0  0  0  0  0  0  0  0  0
   -3.9760    0.8460    0.7957 H   0  0  0  0  0  0  0  0  0  0  0  0
   -1.4093    0.1975    0.0510 C   0  0  0  0  0  0  0  0  0  0  0  0
   -2.6898   -1.3229   -0.8167 H   0  0  0  0  0  0  0  0  0  0  0  0
   -2.7823   -1.2072    0.9270 H   0  0  0  0  0  0  0  0  0  0  0  0
   -0.1556   -0.7079    0.0028 C   0  0  0  0  0  0  0  0  0  0  0  0
   -1.3172    0.8948    0.9285 H   0  0  0  0  0  0  0  0  0  0  0  0
   -1.4140    0.8050   -0.8218 H   0  0  0  0  0  0  0  0  0  0  0  0
   -0.0655   -1.3668    0.9282 H   0  0  0  0  0  0  0  0  0  0  0  0
    0.7624   -0.1051   -0.0918 H   0  0  0  0  0  0  0  0  0  0  0  0
   -0.1353   -1.3694   -0.8583 H   0  0  0  0  0  0  0  0  0  0  0  0
  1  3  1  0  0  0  0
  1  2  1  0  0  0  0
  1  5  1  0  0  0  0
  2  8  1  0  0  0  0
  4  1  1  0  0  0  0
  6  2  1  0  0  0  0
  6 10  1  0  0  0  0
  7  2  1  0  0  0  0
  9  6  1  0  0  0  0
  9 12  1  0  0  0  0
 11  6  1  0  0  0  0
 13  9  1  0  0  0  0
 14  9  1  0  0  0  0
M  END
$$$$
