butane_opt
 OpenBabel08242015393D

 14 12  0  0  0  0  0  0  0  0999 V2000
   -4.0295    0.3606   -0.1244 C   0  0  0  0  0  0  0  0  0  0  0  0
   -2.6722   -0.7138    0.2850 C   0  0  0  0  0  0  0  0  0  0  0  0
   -5.0353   -0.3235   -1.0506 H   0  0  0  0  0  0  0  0  0  0  0  0
   -3.6121    0.7773   -0.9058 H   0  0  0  0  0  0  0  0  0  0  0  0
   -4.6662    1.2359    0.7310 H   0  0  0  0  0  0  0  0  0  0  0  0
   -1.3185    0.1235    0.1277 C   0  0  0  0  0  0  0  0  0  0  0  0
   -2.6595   -1.0122   -0.2729 H   0  0  0  0  0  0  0  0  0  0  0  0
   -2.8320   -1.6284    1.4094 H   0  0  0  0  0  0  0  0  0  0  0  0
   -0.1507   -0.6618   -0.1692 C   0  0  0  0  0  0  0  0  0  0  0  0
   -1.0935    0.9376    1.1198 H   0  0  0  0  0  0  0  0  0  0  0  0
   -1.2913    0.5593   -0.4422 H   0  0  0  0  0  0  0  0  0  0  0  0
   -0.1769   -1.0147    0.6608 H   0  0  0  0  0  0  0  0  0  0  0  0
    0.7387    0.0029   -0.1898 H   0  0  0  0  0  0  0  0  0  0  0  0
   -0.3247   -1.3515   -1.0852 H   0  0  0  0  0  0  0  0  0  0  0  0
  1  2  1  0  0  0  0
  1  5  1  0  0  0  0
  2  8  1  0  0  0  0
  4  1  1  0  0  0  0
  6  2  1  0  0  0  0
  6 10  1  0  0  0  0
  7  2  1  0  0  0  0
  9  6  1  0  0  0  0
  9 12  1  0  0  0  0
 11  6  1  0  0  0  0
 13  9  1  0  0  0  0
 14  9  1  0  0  0  0
M  RAD  2   1   2   3   2
M  END
$$$$
