14
butane_opt
C  -3.874246   0.216540  -0.105991
C  -2.749347  -0.585650   0.209728
H  -4.658970  -0.260978   0.182854
H  -3.924640   1.119802  -1.318649
H  -3.817218   0.741122   0.639367
C  -1.449489   0.218575   0.075513
H  -2.806811  -0.968387  -0.474658
H  -2.774100  -1.371014   1.200606
C  -0.179283  -0.720350  -0.066552
H  -1.290752   0.807251   1.039001
H  -1.412954   0.974832  -0.907231
H  -0.114118  -0.702117   0.317038
H   0.841260  -0.119731   0.831327
H  -0.059633  -2.233300  -1.509339
