butane_opt
 OpenBabel08242015393D

 14 10  0  0  0  0  0  0  0  0999 V2000
   -3.8215    0.1972   -0.0983 C   0  0  0  0  0  0  0  0  0  0  0  0
   -2.7120   -0.5594    0.2168 C   0  0  0  0  0  0  0  0  0  0  0  0
   -4.8133   -0.4753    0.2179 H   0  0  0  0  0  0  0  0  0  0  0  0
   -3.8214    1.1815   -1.4900 H   0  0  0  0  0  0  0  0  0  0  0  0
   -4.1694    0.4424    0.4526 H   0  0  0  0  0  0  0  0  0  0  0  0
   -1.4664    0.3067    0.1154 C   0  0  0  0  0  0  0  0  0  0  0  0
   -2.8218   -1.0973   -0.5251 H   0  0  0  0  0  0  0  0  0  0  0  0
   -2.5321   -1.2547    1.2955 H   0  0  0  0  0  0  0  0  0  0  0  0
   -0.1808   -0.7638   -0.0982 C   0  0  0  0  0  1  0  0  0  0  0  0
   -1.4142    0.8562    0.8957 H   0  0  0  0  0  0  0  0  0  0  0  0
   -1.6810    0.7339   -0.6371 H   0  0  0  0  0  0  0  0  0  0  0  0
   -0.4507   -0.6848    0.3224 H   0  0  0  0  0  0  0  0  0  0  0  0
    0.8036   -0.1256    0.5847 H   0  0  0  0  0  0  0  0  0  0  0  0
    0.1087   -2.2319   -1.4422 H   0  0  0  0  0  0  0  0  0  0  0  0
  1  2  1  0  0  0  0
  1  3  1  0  0  0  0
  1  5  1  0  0  0  0
  2  8  1  0  0  0  0
  6  2  1  0  0  0  0
  6 12  1  0  0  0  0
  6 10  1  0  0  0  0
  7  2  1  0  0  0  0
  9 13  1  0  0  0  0
 11  6  1  0  0  0  0
M  RAD  3   1   2   4   2  14   2
M  END
$$$$
