butane_opt
 OpenBabel08242015393D

 14 10  0  0  0  0  0  0  0  0999 V2000
   -3.9858    0.1665    0.0976 C   0  0  0  0  0  0  0  0  0  0  0  0
   -2.7056   -0.5661   -0.0519 C   0  0  0  0  0  0  0  0  0  0  0  0
   -4.8460   -0.3641    0.7235 H   0  0  0  0  0  0  0  0  0  0  0  0
   -4.0633    1.3672   -1.1089 H   0  0  0  0  0  0  0  0  0  0  0  0
   -3.7089    0.3651    0.5823 H   0  0  0  0  0  0  0  0  0  0  0  0
   -1.3989    0.2687   -0.0148 C   0  0  0  0  0  0  0  0  0  0  0  0
   -2.9031   -1.4683   -1.1945 H   0  0  0  0  0  0  0  0  0  0  0  0
   -2.6517   -0.8765    0.5632 H   0  0  0  0  0  0  0  0  0  0  0  0
   -0.1341   -0.7333    0.0924 C   0  0  0  0  0  0  0  0  0  0  0  0
   -1.6668    1.2340    0.9237 H   0  0  0  0  0  0  0  0  0  0  0  0
   -1.3106    0.9764   -0.9421 H   0  0  0  0  0  0  0  0  0  0  0  0
    0.2108   -1.5903    1.0045 H   0  0  0  0  0  0  0  0  0  0  0  0
    0.5457   -0.3838    0.1430 H   0  0  0  0  0  0  0  0  0  0  0  0
    0.0721   -1.3961   -0.7616 H   0  0  0  0  0  0  0  0  0  0  0  0
  1  3  1  0  0  0  0
  2  1  1  0  0  0  0
  2  8  1  0  0  0  0
  6  9  1  0  0  0  0
  6 10  1  0  0  0  0
  7  2  1  0  0  0  0
  9 13  1  0  0  0  0
  9 12  1  0  0  0  0
 11  6  1  0  0  0  0
 14  9  1  0  0  0  0
M  RAD  5   1   3   2   2   4   2   5   2   6   2
M  END
$$$$
