14
butane_opt
C  -3.920090   0.229761  -0.007000
C  -2.721960  -0.561497   0.091497
H  -4.918690  -0.494813   0.527530
H  -3.868892   1.039058  -1.127632
H  -3.809775   0.639631   0.590482
C  -1.424781   0.257938  -0.034833
H  -2.796630  -1.273482  -0.744765
H  -3.029802  -1.269134   1.115568
C  -0.171923  -0.725888   0.014324
H  -1.232116   1.075021   0.994301
H  -1.505894   0.693388  -0.845734
H  -0.035014  -1.123868   0.719138
H   0.552330  -0.135866   0.620990
H   0.446243  -2.037310  -1.205284
