14
butane_opt
C  -3.952080   0.172953  -0.049109
C  -2.761421  -0.539129   0.078306
H  -4.774048  -0.323062  -0.063334
H  -3.682796   0.978697  -1.085494
H  -4.038432   0.912776   0.858820
C  -1.427628   0.319302   0.179885
H  -2.870433  -1.372367  -0.884168
H  -3.000342  -1.190451   0.827435
C  -0.076135  -0.799643  -0.067282
H  -1.508910   0.879712   0.983410
H  -1.142970   0.884913  -0.704355
H   0.458161  -1.803637   1.117235
H   0.714602  -0.120247  -0.614187
H  -0.551728  -1.131277  -0.657613
