butane_opt
 OpenBabel08242015393D

 14 13  0  0  0  0  0  0  0  0999 V2000
   -4.0574    0.3007   -0.0159 C   0  0  0  0  0  0  0  0  0  0  0  0
   -2.6579   -0.6294    0.0402 C   0  0  0  0  0  0  0  0  0  0  0  0
   -4.9457   -0.2156    0.0998 H   0  0  0  0  0  0  0  0  0  0  0  0
   -4.0112    0.9819   -1.0055 H   0  0  0  0  0  0  0  0  0  0  0  0
   -4.0187    0.9641    0.8791 H   0  0  0  0  0  0  0  0  0  0  0  0
   -1.3796    0.1041    0.0746 C   0  0  0  0  0  0  0  0  0  0  0  0
   -2.4400   -1.3008   -0.7093 H   0  0  0  0  0  0  0  0  0  0  0  0
   -3.0217   -1.4962    0.9781 H   0  0  0  0  0  0  0  0  0  0  0  0
   -0.1289   -0.5982   -0.0082 C   0  0  0  0  0  0  0  0  0  0  0  0
   -1.3470    0.7696    0.9777 H   0  0  0  0  0  0  0  0  0  0  0  0
   -1.3406    0.6341   -0.7083 H   0  0  0  0  0  0  0  0  0  0  0  0
    0.1330   -1.5260    0.9115 H   0  0  0  0  0  0  0  0  0  0  0  0
    0.8742   -0.0359   -0.0946 H   0  0  0  0  0  0  0  0  0  0  0  0
   -0.2821   -1.3036   -0.9258 H   0  0  0  0  0  0  0  0  0  0  0  0
  1  2  1  0  0  0  0
  1  3  1  0  0  0  0
  1  5  1  0  0  0  0
  2  6  1  0  0  0  0
  2  8  1  0  0  0  0
  4  1  1  0  0  0  0
  6 10  1  0  0  0  0
  7  2  1  0  0  0  0
  9  6  1  0  0  0  0
  9 12  1  0  0  0  0
 11  6  1  0  0  0  0
 13  9  1  0  0  0  0
 14  9  1  0  0  0  0
M  END
$$$$
