butane_opt
 OpenBabel08242015393D

 14 12  0  0  0  0  0  0  0  0999 V2000
   -4.0071    0.2418    0.1205 C   0  0  0  0  0  0  0  0  0  0  0  0
   -2.7232   -0.5822   -0.1510 C   0  0  0  0  0  0  0  0  0  0  0  0
   -5.1221   -0.4832    0.9085 H   0  0  0  0  0  0  0  0  0  0  0  0
   -4.3122    1.1065   -0.9858 H   0  0  0  0  0  0  0  0  0  0  0  0
   -3.6047    0.7483    0.9352 H   0  0  0  0  0  0  0  0  0  0  0  0
   -1.4015    0.1886   -0.0892 C   0  0  0  0  0  0  0  0  0  0  0  0
   -2.8698   -1.3100   -0.9546 H   0  0  0  0  0  0  0  0  0  0  0  0
   -2.6297   -1.0494    0.6701 H   0  0  0  0  0  0  0  0  0  0  0  0
   -0.0930   -0.6878    0.1745 C   0  0  0  0  0  0  0  0  0  0  0  0
   -1.8090    0.8688    0.7325 H   0  0  0  0  0  0  0  0  0  0  0  0
   -1.0712    0.6915   -1.0008 H   0  0  0  0  0  0  0  0  0  0  0  0
    0.0814   -1.3468    1.0137 H   0  0  0  0  0  0  0  0  0  0  0  0
    0.7800   -0.2126    0.1558 H   0  0  0  0  0  0  0  0  0  0  0  0
    0.2144   -1.3979   -0.7326 H   0  0  0  0  0  0  0  0  0  0  0  0
  1  5  1  0  0  0  0
  2  6  1  0  0  0  0
  2  1  1  0  0  0  0
  2  8  1  0  0  0  0
  4  1  1  0  0  0  0
  6  9  1  0  0  0  0
  6 10  1  0  0  0  0
  7  2  1  0  0  0  0
  9 12  1  0  0  0  0
 11  6  1  0  0  0  0
 13  9  1  0  0  0  0
 14  9  1  0  0  0  0
M  RAD  2   1   2   3   2
M  END
$$$$
