14
butane_opt
C  -3.896244   0.235426   0.064461
C  -2.636634  -0.536782  -0.010684
H  -5.163210  -0.528300  -0.166589
H  -3.831061   0.271624  -0.499519
H  -3.900090   1.123829   1.062638
C  -1.458741   0.224507  -0.050998
H  -2.823052  -1.374332  -1.098114
H  -2.616558  -1.101009   0.705226
C  -0.182868  -0.750413   0.072221
H  -1.335620   1.044076   0.815650
H  -1.599381   0.843499  -0.864235
H  -0.086362  -1.987828   1.420754
H   0.753649  -0.126754  -0.350076
H  -0.283021  -0.759212  -0.353764
