14
butane_opt
C  -3.944113   0.251907   0.035890
C  -2.707074  -0.605464   0.009095
H  -4.843499  -0.355626   0.022350
H  -3.923761   0.824170  -0.841911
H  -3.958392   0.980564   0.934321
C  -1.410630   0.210406   0.008321
H  -2.735697  -1.329853  -0.847873
H  -2.727948  -1.205433   0.878977
C  -0.155226  -0.704573   0.047947
H  -1.428950   0.823671   0.819989
H  -1.337607   0.840863  -0.881966
H  -0.037414  -1.438979   1.042040
H   0.726528  -0.149979  -0.126296
H  -0.152079  -1.284350  -0.761116
