butane_opt
 OpenBabel08242015393D

 14 12  0  0  0  0  0  0  0  0999 V2000
   -3.9058    0.1883   -0.2000 C   0  0  0  0  0  0  0  0  0  0  0  0
   -2.7274   -0.5193    0.3188 C   0  0  0  0  0  0  0  0  0  0  0  0
   -4.8919   -0.4627   -0.5223 H   0  0  0  0  0  0  0  0  0  0  0  0
   -3.4951    0.6460   -0.9974 H   0  0  0  0  0  0  0  0  0  0  0  0
   -4.2887    1.1914    0.7695 H   0  0  0  0  0  0  0  0  0  0  0  0
   -1.4183    0.2441    0.1439 C   0  0  0  0  0  0  0  0  0  0  0  0
   -2.4654   -0.9993   -0.3677 H   0  0  0  0  0  0  0  0  0  0  0  0
   -3.0656   -1.3873    1.3784 H   0  0  0  0  0  0  0  0  0  0  0  0
   -0.1091   -0.7248   -0.1704 C   0  0  0  0  0  0  0  0  0  0  0  0
   -1.3823    0.9985    1.2268 H   0  0  0  0  0  0  0  0  0  0  0  0
   -1.9226    0.3951   -0.3711 H   0  0  0  0  0  0  0  0  0  0  0  0
   -0.0755   -1.4777    0.6108 H   0  0  0  0  0  0  0  0  0  0  0  0
    0.7933   -0.1651   -0.2240 H   0  0  0  0  0  0  0  0  0  0  0  0
   -0.2766   -1.4641   -1.1158 H   0  0  0  0  0  0  0  0  0  0  0  0
  1  2  1  0  0  0  0
  1  5  1  0  0  0  0
  2  8  1  0  0  0  0
  3  1  1  0  0  0  0
  4  1  1  0  0  0  0
  6 10  1  0  0  0  0
  7  2  1  0  0  0  0
  9  6  1  0  0  0  0
  9 12  1  0  0  0  0
 11  6  1  0  0  0  0
 13  9  1  0  0  0  0
 14  9  1  0  0  0  0
M  RAD  2   2   2   6   2
M  END
$$$$
