butane_opt
 OpenBabel08242015393D

 14 11  0  0  0  0  0  0  0  0999 V2000
   -3.9811    0.3070   -0.0082 C   0  0  0  0  0  0  0  0  0  0  0  0
   -2.7576   -0.6269    0.1235 C   0  0  0  0  0  0  0  0  0  0  0  0
   -4.7888   -0.2395    0.1819 H   0  0  0  0  0  0  0  0  0  0  0  0
   -3.8970    0.8692   -0.8888 H   0  0  0  0  0  0  0  0  0  0  0  0
   -4.1118    1.0688    0.7665 H   0  0  0  0  0  0  0  0  0  0  0  0
   -1.3396    0.1146   -0.0634 C   0  0  0  0  0  0  0  0  0  0  0  0
   -2.8036   -1.3291   -0.7887 H   0  0  0  0  0  0  0  0  0  0  0  0
   -2.8148   -1.4298    1.1061 H   0  0  0  0  0  0  0  0  0  0  0  0
   -0.0979   -0.6456    0.0130 C   0  0  0  0  0  0  0  0  0  0  0  0
   -1.2262    0.8306    1.0015 H   0  0  0  0  0  0  0  0  0  0  0  0
   -1.6399    0.7484   -0.9664 H   0  0  0  0  0  0  0  0  0  0  0  0
   -0.5640   -0.9493    0.6918 H   0  0  0  0  0  0  0  0  0  0  0  0
    0.7970   -0.1354    0.6555 H   0  0  0  0  0  0  0  0  0  0  0  0
    0.1081   -1.6788   -1.0884 H   0  0  0  0  0  0  0  0  0  0  0  0
  1  2  1  0  0  0  0
  1  3  1  0  0  0  0
  1  5  1  0  0  0  0
  2  8  1  0  0  0  0
  4  1  1  0  0  0  0
  6  9  1  0  0  0  0
  6 10  1  0  0  0  0
  7  2  1  0  0  0  0
  9 13  1  0  0  0  0
  9 12  1  0  0  0  0
 11  6  1  0  0  0  0
M  RAD  4   2   2   6   2   9   2  14   2
M  END
$$$$
