butane_opt
 OpenBabel08242015393D

 14 12  0  0  0  0  0  0  0  0999 V2000
   -3.8602    0.3135   -0.0204 C   0  0  0  0  0  0  0  0  0  0  0  0
   -2.7451   -0.6652    0.0736 C   0  0  0  0  0  0  0  0  0  0  0  0
   -4.8106   -0.2328    0.2027 H   0  0  0  0  0  0  0  0  0  0  0  0
   -4.0822    1.3498   -1.1689 H   0  0  0  0  0  0  0  0  0  0  0  0
   -4.0015    0.5894    0.6418 H   0  0  0  0  0  0  0  0  0  0  0  0
   -1.3963    0.1505    0.0655 C   0  0  0  0  0  0  0  0  0  0  0  0
   -2.6792   -1.5237   -0.7618 H   0  0  0  0  0  0  0  0  0  0  0  0
   -2.5872   -1.1719    0.9795 H   0  0  0  0  0  0  0  0  0  0  0  0
   -0.1891   -0.6958   -0.0241 C   0  0  0  0  0  0  0  0  0  0  0  0
   -1.4638    1.0040    1.1501 H   0  0  0  0  0  0  0  0  0  0  0  0
   -1.2837    0.5163   -0.7422 H   0  0  0  0  0  0  0  0  0  0  0  0
   -0.1605   -1.1086    0.7820 H   0  0  0  0  0  0  0  0  0  0  0  0
    0.6975    0.0402   -0.0572 H   0  0  0  0  0  0  0  0  0  0  0  0
   -0.3600   -1.1462   -0.7923 H   0  0  0  0  0  0  0  0  0  0  0  0
  1  2  1  0  0  0  0
  1  3  1  0  0  0  0
  1  5  1  0  0  0  0
  2  8  1  0  0  0  0
  6  2  1  0  0  0  0
  6 10  1  0  0  0  0
  7  2  1  0  0  0  0
  9  6  1  0  0  0  0
  9 12  1  0  0  0  0
 11  6  1  0  0  0  0
 13  9  1  0  0  0  0
 14  9  1  0  0  0  0
M  RAD  2   1   2   4   2
M  END
$$$$
