14
butane_opt
C  -3.983883   0.237019   0.178674
C  -2.742044  -0.576749  -0.086484
H  -4.901832  -0.389941  -0.216080
H  -4.113781   0.512385  -0.654964
H  -3.929879   1.003903   1.231775
C  -1.404395   0.228922  -0.176072
H  -2.837074  -1.217182  -0.920840
H  -2.674208  -1.259994   1.010979
C  -0.038149  -0.713098   0.183235
H  -1.693602   0.669191   0.512739
H  -1.408461   1.250238  -1.355721
H  -0.351405  -1.148722   1.040243
H   0.894802  -0.120991   0.502505
H   0.034486  -1.913923  -0.940836
