butane_opt
 OpenBabel08242015393D

 14 12  0  0  0  0  0  0  0  0999 V2000
   -3.9201    0.2298   -0.0070 C   0  0  0  0  0  0  0  0  0  0  0  0
   -2.7220   -0.5615    0.0915 C   0  0  0  0  0  0  0  0  0  0  0  0
   -4.9187   -0.4948    0.5275 H   0  0  0  0  0  0  0  0  0  0  0  0
   -3.8689    1.0391   -1.1276 H   0  0  0  0  0  0  0  0  0  0  0  0
   -3.8098    0.6396    0.5905 H   0  0  0  0  0  0  0  0  0  0  0  0
   -1.4248    0.2579   -0.0348 C   0  0  0  0  0  0  0  0  0  0  0  0
   -2.7966   -1.2735   -0.7448 H   0  0  0  0  0  0  0  0  0  0  0  0
   -3.0298   -1.2691    1.1156 H   0  0  0  0  0  0  0  0  0  0  0  0
   -0.1719   -0.7259    0.0143 C   0  0  0  0  0  0  0  0  0  0  0  0
   -1.2321    1.0750    0.9943 H   0  0  0  0  0  0  0  0  0  0  0  0
   -1.5059    0.6934   -0.8457 H   0  0  0  0  0  0  0  0  0  0  0  0
   -0.0350   -1.1239    0.7191 H   0  0  0  0  0  0  0  0  0  0  0  0
    0.5523   -0.1359    0.6210 H   0  0  0  0  0  0  0  0  0  0  0  0
    0.4462   -2.0373   -1.2053 H   0  0  0  0  0  0  0  0  0  0  0  0
  1  2  1  0  0  0  0
  1  3  1  0  0  0  0
  1  5  1  0  0  0  0
  2  8  1  0  0  0  0
  4  1  1  0  0  0  0
  6  9  1  0  0  0  0
  6  2  1  0  0  0  0
  6 10  1  0  0  0  0
  7  2  1  0  0  0  0
  9 13  1  0  0  0  0
  9 12  1  0  0  0  0
 11  6  1  0  0  0  0
M  RAD  2   9   2  14   2
M  END
$$$$
