14
butane_opt
C  -3.969265   0.219035  -0.065481
C  -2.773367  -0.579170   0.074905
H  -4.958656  -0.366281   0.677864
H  -4.319635   1.414349  -1.301830
H  -3.614369   0.261581   0.326388
C  -1.377344   0.250677   0.129007
H  -2.705235  -1.171049  -0.620426
H  -2.954009  -1.251246   1.158496
C  -0.049318  -0.755118  -0.107509
H  -1.536989   1.303869   1.325508
H  -1.489473   0.739761  -0.709390
H  -0.390761  -1.107888   0.819615
H   0.804551  -0.281640   0.389230
H   0.193626  -1.673823  -1.118490
