butane_opt
 OpenBabel08242015393D

 14 13  0  0  0  0  0  0  0  0999 V2000
   -3.9905    0.3262   -0.0129 C   0  0  0  0  0  0  0  0  0  0  0  0
   -2.7003   -0.6185   -0.0210 C   0  0  0  0  0  0  0  0  0  0  0  0
   -5.0233   -0.5140    0.6793 H   0  0  0  0  0  0  0  0  0  0  0  0
   -4.4273    1.1827   -1.0434 H   0  0  0  0  0  0  0  0  0  0  0  0
   -3.7570    0.7450    0.7249 H   0  0  0  0  0  0  0  0  0  0  0  0
   -1.3732    0.1448    0.0401 C   0  0  0  0  0  0  0  0  0  0  0  0
   -2.8938   -1.3354   -0.8472 H   0  0  0  0  0  0  0  0  0  0  0  0
   -2.7576   -1.4179    0.9997 H   0  0  0  0  0  0  0  0  0  0  0  0
   -0.1203   -0.6415    0.0211 C   0  0  0  0  0  0  0  0  0  0  0  0
   -1.2598    0.8486    0.9834 H   0  0  0  0  0  0  0  0  0  0  0  0
   -1.2426    0.4137   -0.7572 H   0  0  0  0  0  0  0  0  0  0  0  0
   -0.1344   -1.3166    1.0030 H   0  0  0  0  0  0  0  0  0  0  0  0
    0.7312   -0.0630    0.1067 H   0  0  0  0  0  0  0  0  0  0  0  0
   -0.0564   -1.5032   -0.7779 H   0  0  0  0  0  0  0  0  0  0  0  0
  1  3  1  0  0  0  0
  1  5  1  0  0  0  0
  2  1  1  0  0  0  0
  2  6  1  0  0  0  0
  2  8  1  0  0  0  0
  4  1  1  0  0  0  0
  6 10  1  0  0  0  0
  7  2  1  0  0  0  0
  9  6  1  0  0  0  0
  9 13  1  0  0  0  0
  9 12  1  0  0  0  0
 11  6  1  0  0  0  0
 14  9  1  0  0  0  0
M  END
$$$$
