butane_opt
 OpenBabel08242015393D

 14 13  0  0  0  0  0  0  0  0999 V2000
   -3.9506    0.2702    0.0469 C   0  0  0  0  0  0  0  0  0  0  0  0
   -2.6870   -0.6181    0.0007 C   0  0  0  0  0  0  0  0  0  0  0  0
   -4.8612   -0.3051    0.0223 H   0  0  0  0  0  0  0  0  0  0  0  0
   -3.9351    0.8306   -0.8171 H   0  0  0  0  0  0  0  0  0  0  0  0
   -3.9493    0.9612    0.9265 H   0  0  0  0  0  0  0  0  0  0  0  0
   -1.4088    0.1780   -0.0018 C   0  0  0  0  0  0  0  0  0  0  0  0
   -2.6665   -1.3439   -0.8720 H   0  0  0  0  0  0  0  0  0  0  0  0
   -2.6788   -1.2253    0.8766 H   0  0  0  0  0  0  0  0  0  0  0  0
   -0.1706   -0.6884    0.0575 C   0  0  0  0  0  0  0  0  0  0  0  0
   -1.4154    0.8124    0.7983 H   0  0  0  0  0  0  0  0  0  0  0  0
   -1.3308    0.8267   -0.9188 H   0  0  0  0  0  0  0  0  0  0  0  0
   -0.0975   -1.3864    0.9984 H   0  0  0  0  0  0  0  0  0  0  0  0
    0.7596   -0.0736   -0.0746 H   0  0  0  0  0  0  0  0  0  0  0  0
   -0.2473   -1.2604   -0.7212 H   0  0  0  0  0  0  0  0  0  0  0  0
  1  5  1  0  0  0  0
  2  1  1  0  0  0  0
  2  8  1  0  0  0  0
  3  1  1  0  0  0  0
  4  1  1  0  0  0  0
  6  2  1  0  0  0  0
  6  9  1  0  0  0  0
  6 10  1  0  0  0  0
  7  2  1  0  0  0  0
  9 12  1  0  0  0  0
 11  6  1  0  0  0  0
 13  9  1  0  0  0  0
 14  9  1  0  0  0  0
M  END
$$$$
