butane_opt
 OpenBabel08242015393D

 14  8  0  0  0  0  0  0  0  0999 V2000
   -4.0063    0.1864   -0.1302 C   0  0  0  0  0  1  0  0  0  0  0  0
   -2.7411   -0.5583    0.1435 C   0  0  0  0  0  0  0  0  0  0  0  0
   -4.7817   -0.3788    0.3613 H   0  0  0  0  0  0  0  0  0  0  0  0
   -4.1054    1.2781   -1.4105 H   0  0  0  0  0  0  0  0  0  0  0  0
   -3.8100    0.3083    0.3985 H   0  0  0  0  0  0  0  0  0  0  0  0
   -1.4012    0.2799    0.1637 C   0  0  0  0  0  0  0  0  0  0  0  0
   -2.4393   -0.9304   -0.4873 H   0  0  0  0  0  0  0  0  0  0  0  0
   -2.8226   -1.4067    1.3025 H   0  0  0  0  0  0  0  0  0  0  0  0
   -0.0915   -0.7270   -0.1056 C   0  0  0  0  0  0  0  0  0  0  0  0
   -1.4624    1.2037    1.2891 H   0  0  0  0  0  0  0  0  0  0  0  0
   -1.3840    0.5511   -0.3587 H   0  0  0  0  0  0  0  0  0  0  0  0
    0.3879   -1.1121    0.5290 H   0  0  0  0  0  0  0  0  0  0  0  0
    0.5602   -0.3164    0.0309 H   0  0  0  0  0  0  0  0  0  0  0  0
   -0.2523   -1.8514   -1.1686 H   0  0  0  0  0  0  0  0  0  0  0  0
  1  3  1  0  0  0  0
  2  5  1  0  0  0  0
  2  8  1  0  0  0  0
  6 10  1  0  0  0  0
  7  2  1  0  0  0  0
  9 13  1  0  0  0  0
  9  6  1  0  0  0  0
  9 12  1  0  0  0  0
M  RAD  6   2   2   4   2   6   3   9   2  11   2  14   2
M  END
$$$$
