butane_opt
 OpenBabel08242015393D

 14 12  0  0  0  0  0  0  0  0999 V2000
   -3.8965    0.2210   -0.1100 C   0  0  0  0  0  0  0  0  0  0  0  0
   -2.6667   -0.5600    0.1605 C   0  0  0  0  0  0  0  0  0  0  0  0
   -4.8911   -0.4480   -0.2396 H   0  0  0  0  0  0  0  0  0  0  0  0
   -3.6044    1.0663   -1.2283 H   0  0  0  0  0  0  0  0  0  0  0  0
   -3.9790    0.3333    0.2945 H   0  0  0  0  0  0  0  0  0  0  0  0
   -1.4831    0.2657    0.2712 C   0  0  0  0  0  0  0  0  0  0  0  0
   -2.7329   -1.3367   -0.7620 H   0  0  0  0  0  0  0  0  0  0  0  0
   -2.8472   -1.2176    1.1682 H   0  0  0  0  0  0  0  0  0  0  0  0
   -0.1910   -0.7418   -0.1338 C   0  0  0  0  0  0  0  0  0  0  0  0
   -1.2197    1.0780    1.2938 H   0  0  0  0  0  0  0  0  0  0  0  0
   -1.7323    0.8889   -0.6014 H   0  0  0  0  0  0  0  0  0  0  0  0
    0.5286   -1.5164    0.8283 H   0  0  0  0  0  0  0  0  0  0  0  0
    0.6095   -0.0978   -0.6848 H   0  0  0  0  0  0  0  0  0  0  0  0
   -0.3378   -1.4424   -0.9222 H   0  0  0  0  0  0  0  0  0  0  0  0
  1  2  1  0  0  0  0
  2  6  1  0  0  0  0
  2  8  1  0  0  0  0
  3  1  1  0  0  0  0
  4  1  1  0  0  0  0
  6 10  1  0  0  0  0
  7  2  1  0  0  0  0
  9  6  1  0  0  0  0
  9 12  1  0  0  0  0
 11  6  1  0  0  0  0
 13  9  1  0  0  0  0
 14  9  1  0  0  0  0
M  RAD  2   1   2   5   2
M  END
$$$$
