butane_opt
 OpenBabel08242015393D

 14  9  0  0  0  0  0  0  0  0999 V2000
   -3.9980    0.3312   -0.0935 C   0  0  0  0  0  0  0  0  0  0  0  0
   -2.7199   -0.6950    0.1841 C   0  0  0  0  0  0  0  0  0  0  0  0
   -4.7591   -0.2187    0.2374 H   0  0  0  0  0  0  0  0  0  0  0  0
   -4.0658    1.2358   -1.2697 H   0  0  0  0  0  0  0  0  0  0  0  0
   -4.0032    0.5538    0.5113 H   0  0  0  0  0  0  0  0  0  0  0  0
   -1.3760    0.1858    0.1089 C   0  0  0  0  0  0  0  0  0  0  0  0
   -2.4677   -1.0956   -0.5467 H   0  0  0  0  0  0  0  0  0  0  0  0
   -3.0044   -1.7389    1.4361 H   0  0  0  0  0  0  0  0  0  0  0  0
   -0.1287   -0.6582   -0.0969 C   0  0  0  0  0  0  0  0  0  0  0  0
   -1.1011    0.9643    0.9799 H   0  0  0  0  0  0  0  0  0  0  0  0
   -1.2216    0.7458   -0.7882 H   0  0  0  0  0  0  0  0  0  0  0  0
   -0.5620   -0.5075    0.4300 H   0  0  0  0  0  0  0  0  0  0  0  0
    0.7220   -0.2123    0.6557 H   0  0  0  0  0  0  0  0  0  0  0  0
    0.1118   -2.1746   -1.5520 H   0  0  0  0  0  0  0  0  0  0  0  0
  1  2  1  0  0  0  0
  1  3  1  0  0  0  0
  1  5  1  0  0  0  0
  4  1  1  0  0  0  0
  6 10  1  0  0  0  0
  7  2  1  0  0  0  0
  9 12  1  0  0  0  0
  9 13  1  0  0  0  0
 11  6  1  0  0  0  0
M  RAD  5   2   3   6   3   8   2   9   3  14   2
M  END
$$$$
