14
butane_opt
C  -3.964845   0.312178  -0.194186
C  -2.673676  -0.655126   0.259374
H  -4.725423  -0.238172  -0.438325
H  -3.705189   0.950974  -1.084327
H  -4.180747   1.271537   0.709550
C  -1.360777   0.035205   0.282704
H  -2.555774  -1.114925  -0.571006
H  -2.755091  -1.397031   1.148464
C  -0.208960  -0.594577  -0.167835
H  -1.253938   0.682018   1.175524
H  -1.621217   0.847164  -0.764885
H  -0.052679  -1.324362   0.750311
H   0.919044   0.088616  -0.528309
H  -0.649749  -1.370608  -1.099661
