14
butane_opt
C  -3.929119   0.290303  -0.114520
C  -2.663697  -0.624197   0.103153
H  -4.813403  -0.269065  -0.107706
H  -3.793858   0.919591  -0.997732
H  -4.247075   0.956741   0.799626
C  -1.367715   0.143512   0.204911
H  -2.541845  -1.276274  -0.724489
H  -2.847153  -1.523387   1.243508
C  -0.217708  -0.680608  -0.102830
H  -1.684834   1.033672   1.257236
H  -1.425420   0.688896  -0.509621
H   0.152219  -1.678049   0.833736
H   0.976876   0.171570  -0.727050
H  -0.678660  -0.976847  -0.689622
