butane_opt
 OpenBabel08242015393D

 14 13  0  0  0  0  0  0  0  0999 V2000
   -3.9622    0.2196   -0.1560 C   0  0  0  0  0  0  0  0  0  0  0  0
   -2.7495   -0.5810    0.1784 C   0  0  0  0  0  0  0  0  0  0  0  0
   -4.9559   -0.4809   -0.2387 H   0  0  0  0  0  0  0  0  0  0  0  0
   -3.8218    0.8974   -1.1317 H   0  0  0  0  0  0  0  0  0  0  0  0
   -4.3280    0.7495    0.3936 H   0  0  0  0  0  0  0  0  0  0  0  0
   -1.4265    0.2750    0.2959 C   0  0  0  0  0  0  0  0  0  0  0  0
   -2.4737   -0.9260   -0.4453 H   0  0  0  0  0  0  0  0  0  0  0  0
   -2.9881   -1.3177    1.1809 H   0  0  0  0  0  0  0  0  0  0  0  0
   -0.0717   -0.7619   -0.1704 C   0  0  0  0  0  0  0  0  0  0  0  0
   -1.3658    1.2341    1.1780 H   0  0  0  0  0  0  0  0  0  0  0  0
   -1.3367    0.5895   -0.3849 H   0  0  0  0  0  0  0  0  0  0  0  0
    0.5569   -1.6895    0.8275 H   0  0  0  0  0  0  0  0  0  0  0  0
    0.9429   -0.1346   -0.7710 H   0  0  0  0  0  0  0  0  0  0  0  0
   -0.6856   -1.2420   -0.9098 H   0  0  0  0  0  0  0  0  0  0  0  0
  1  2  1  0  0  0  0
  1  5  1  0  0  0  0
  2  6  1  0  0  0  0
  2  8  1  0  0  0  0
  3  1  1  0  0  0  0
  4  1  1  0  0  0  0
  6 10  1  0  0  0  0
  7  2  1  0  0  0  0
  9  6  1  0  0  0  0
  9 12  1  0  0  0  0
 11  6  1  0  0  0  0
 13  9  1  0  0  0  0
 14  9  1  0  0  0  0
M  END
$$$$
