butane_opt
 OpenBabel08242015393D

 14 11  0  0  0  0  0  0  0  0999 V2000
   -3.8924    0.2324    0.1651 C   0  0  0  0  0  0  0  0  0  0  0  0
   -2.7266   -0.6148   -0.1389 C   0  0  0  0  0  0  0  0  0  0  0  0
   -4.8672   -0.4158    0.6663 H   0  0  0  0  0  0  0  0  0  0  0  0
   -4.1665    0.9644   -0.9294 H   0  0  0  0  0  0  0  0  0  0  0  0
   -3.7604    0.6159    0.8474 H   0  0  0  0  0  0  0  0  0  0  0  0
   -1.4451    0.2993   -0.0680 C   0  0  0  0  0  0  0  0  0  0  0  0
   -2.7570   -1.6659   -1.2549 H   0  0  0  0  0  0  0  0  0  0  0  0
   -2.8744   -0.9000    0.5129 H   0  0  0  0  0  0  0  0  0  0  0  0
   -0.1001   -0.7120    0.1490 C   0  0  0  0  0  0  0  0  0  0  0  0
   -1.6261    0.8872    0.7557 H   0  0  0  0  0  0  0  0  0  0  0  0
   -1.5844    0.9859   -1.1673 H   0  0  0  0  0  0  0  0  0  0  0  0
   -0.1885   -1.7440    1.3701 H   0  0  0  0  0  0  0  0  0  0  0  0
    0.7178   -0.2824   -0.0138 H   0  0  0  0  0  0  0  0  0  0  0  0
    0.0515   -1.3619   -0.5945 H   0  0  0  0  0  0  0  0  0  0  0  0
  1  3  1  0  0  0  0
  1  5  1  0  0  0  0
  2  6  1  0  0  0  0
  2  1  1  0  0  0  0
  2  8  1  0  0  0  0
  4  1  1  0  0  0  0
  6  9  1  0  0  0  0
  6 10  1  0  0  0  0
 11  6  1  0  0  0  0
 13  9  1  0  0  0  0
 14  9  1  0  0  0  0
M  RAD  4   2   2   7   2   9   2  12   2
M  END
$$$$
