butane_opt
 OpenBabel08242015393D

 14 13  0  0  0  0  0  0  0  0999 V2000
   -3.9476    0.2710    0.0323 C   0  0  0  0  0  0  0  0  0  0  0  0
   -2.7032   -0.6375    0.0119 C   0  0  0  0  0  0  0  0  0  0  0  0
   -4.8436   -0.3221    0.0072 H   0  0  0  0  0  0  0  0  0  0  0  0
   -4.0509    0.8398   -0.8358 H   0  0  0  0  0  0  0  0  0  0  0  0
   -3.9798    1.0445    0.9521 H   0  0  0  0  0  0  0  0  0  0  0  0
   -1.3915    0.1940    0.0055 C   0  0  0  0  0  0  0  0  0  0  0  0
   -2.7259   -1.3004   -0.8381 H   0  0  0  0  0  0  0  0  0  0  0  0
   -2.7352   -1.2467    0.8967 H   0  0  0  0  0  0  0  0  0  0  0  0
   -0.1581   -0.6950    0.0422 C   0  0  0  0  0  0  0  0  0  0  0  0
   -1.4253    0.8379    0.8548 H   0  0  0  0  0  0  0  0  0  0  0  0
   -1.3605    0.8298   -0.8925 H   0  0  0  0  0  0  0  0  0  0  0  0
   -0.0984   -1.4165    1.0122 H   0  0  0  0  0  0  0  0  0  0  0  0
    0.7783   -0.1027   -0.0619 H   0  0  0  0  0  0  0  0  0  0  0  0
   -0.1759   -1.2186   -0.7380 H   0  0  0  0  0  0  0  0  0  0  0  0
  1  5  1  0  0  0  0
  2  1  1  0  0  0  0
  2  8  1  0  0  0  0
  3  1  1  0  0  0  0
  4  1  1  0  0  0  0
  6  2  1  0  0  0  0
  6  9  1  0  0  0  0
  6 10  1  0  0  0  0
  7  2  1  0  0  0  0
  9 12  1  0  0  0  0
 11  6  1  0  0  0  0
 13  9  1  0  0  0  0
 14  9  1  0  0  0  0
M  END
$$$$
