14
butane_opt
C  -3.880752   0.217334  -0.179883
C  -2.686702  -0.605518   0.226352
H  -4.725180  -0.511169  -0.322127
H  -3.603085   0.927443  -1.065741
H  -4.392230   0.881590   0.641210
C  -1.488040   0.285967   0.283643
H  -2.548111  -1.296659  -0.616069
H  -2.961020  -1.225502   1.157329
C  -0.142391  -0.741052  -0.178620
H  -1.004458   1.082404   1.269622
H  -1.857108   0.852202  -0.715550
H   0.168366  -1.682322   0.961531
H   0.824919  -0.119998  -0.630959
H  -0.526259  -1.261051  -0.981884
