14
butane_opt
C  -4.005009   0.283627   0.124930
C  -2.687635  -0.663741  -0.093246
H  -4.769588  -0.134970   0.480700
H  -4.572071   1.198297  -0.932474
H  -3.982869   0.780575   0.744868
C  -1.361148   0.164202  -0.103939
H  -2.941638  -1.518452  -0.991574
H  -2.320490  -1.351501   0.698196
C  -0.162914  -0.639694   0.128864
H  -1.321440   1.035803   0.955640
H  -1.037029   0.692845  -0.855657
H  -0.291749  -1.500313   1.194402
H   0.738422   0.040991   0.171774
H   0.067638  -1.427254  -0.775409
