butane_opt
 OpenBabel08242015393D

 14 13  0  0  0  0  0  0  0  0999 V2000
   -3.9402    0.2646    0.0501 C   0  0  0  0  0  0  0  0  0  0  0  0
   -2.7015   -0.6201   -0.0022 C   0  0  0  0  0  0  0  0  0  0  0  0
   -4.8689   -0.3503    0.1851 H   0  0  0  0  0  0  0  0  0  0  0  0
   -4.0729    0.9207   -0.8923 H   0  0  0  0  0  0  0  0  0  0  0  0
   -3.8922    0.8797    0.8998 H   0  0  0  0  0  0  0  0  0  0  0  0
   -1.4108    0.1938   -0.0178 C   0  0  0  0  0  0  0  0  0  0  0  0
   -2.7767   -1.3307   -0.8897 H   0  0  0  0  0  0  0  0  0  0  0  0
   -2.7049   -1.2169    0.8376 H   0  0  0  0  0  0  0  0  0  0  0  0
   -0.1517   -0.6972    0.0612 C   0  0  0  0  0  0  0  0  0  0  0  0
   -1.4365    0.8986    0.8442 H   0  0  0  0  0  0  0  0  0  0  0  0
   -1.3608    0.8492   -0.9190 H   0  0  0  0  0  0  0  0  0  0  0  0
   -0.1884   -1.3522    0.9901 H   0  0  0  0  0  0  0  0  0  0  0  0
    0.7598   -0.1067    0.0581 H   0  0  0  0  0  0  0  0  0  0  0  0
   -0.0314   -1.3548   -0.7774 H   0  0  0  0  0  0  0  0  0  0  0  0
  1  3  1  0  0  0  0
  1  5  1  0  0  0  0
  2  1  1  0  0  0  0
  2  8  1  0  0  0  0
  4  1  1  0  0  0  0
  6  2  1  0  0  0  0
  6  9  1  0  0  0  0
  6 10  1  0  0  0  0
  7  2  1  0  0  0  0
  9 12  1  0  0  0  0
 11  6  1  0  0  0  0
 13  9  1  0  0  0  0
 14  9  1  0  0  0  0
M  END
$$$$
