14
butane_opt
C  -3.846531   0.188799  -0.132904
C  -2.730083  -0.568688   0.147301
H  -4.731297  -0.387668   0.738276
H  -4.040834   1.577864  -1.455553
H  -3.668596   0.055517   0.374203
C  -1.483579   0.286187   0.185612
H  -2.599942  -1.041360  -0.663392
H  -2.899798  -1.242967   1.081407
C  -0.127304  -0.713007  -0.099825
H  -1.726437   0.993407   1.081375
H  -1.560795   0.644631  -0.515885
H   0.106385  -1.019927   0.540055
H   0.697195  -0.305832   0.371109
H  -0.339130  -2.061032  -1.424506
