14
butane_opt
C  -3.905847   0.188329  -0.199959
C  -2.727352  -0.519298   0.318827
H  -4.891875  -0.462713  -0.522340
H  -3.495064   0.646025  -0.997428
H  -4.288685   1.191396   0.769518
C  -1.418331   0.244114   0.143885
H  -2.465356  -0.999266  -0.367709
H  -3.065569  -1.387337   1.378389
C  -0.109121  -0.724770  -0.170450
H  -1.382267   0.998466   1.226775
H  -1.922597   0.395103  -0.371071
H  -0.075484  -1.477722   0.610805
H   0.793323  -0.165130  -0.224039
H  -0.276632  -1.464143  -1.115812
