14
butane_opt
C  -4.001980   0.328996   0.184458
C  -2.657457  -0.709538  -0.019353
H  -4.845033  -0.211157  -0.094384
H  -4.210301   1.041590  -0.784274
H  -4.087974   1.055290   1.001709
C  -1.362715   0.136976  -0.175004
H  -2.885274  -1.586319  -1.115327
H  -2.529521  -1.365194   0.802449
C  -0.193659  -0.598136   0.126691
H  -1.545403   0.523680   0.590146
H  -1.168663   0.907268  -1.270452
H  -0.481081  -1.035016   0.863001
H   0.801168  -0.029307   0.803352
H   0.461022  -1.619261  -0.815731
