butane_opt
 OpenBabel08242015393D

 14 12  0  0  0  0  0  0  0  0999 V2000
   -3.9766    0.2420    0.0463 C   0  0  0  0  0  0  0  0  0  0  0  0
   -2.6716   -0.6211    0.0136 C   0  0  0  0  0  0  0  0  0  0  0  0
   -4.8209   -0.2924    0.1543 H   0  0  0  0  0  0  0  0  0  0  0  0
   -3.8409    0.6392   -0.6836 H   0  0  0  0  0  0  0  0  0  0  0  0
   -3.8440    1.1304    1.0956 H   0  0  0  0  0  0  0  0  0  0  0  0
   -1.4559    0.2613   -0.0893 C   0  0  0  0  0  0  0  0  0  0  0  0
   -2.8418   -1.2881   -0.8102 H   0  0  0  0  0  0  0  0  0  0  0  0
   -2.5177   -1.3862    0.9647 H   0  0  0  0  0  0  0  0  0  0  0  0
   -0.1498   -0.7012    0.1112 C   0  0  0  0  0  0  0  0  0  0  0  0
   -1.4387    0.5287    0.5047 H   0  0  0  0  0  0  0  0  0  0  0  0
   -1.2371    0.9062   -1.1359 H   0  0  0  0  0  0  0  0  0  0  0  0
   -0.1254   -0.9520    0.7971 H   0  0  0  0  0  0  0  0  0  0  0  0
    0.5933   -0.1073    0.4910 H   0  0  0  0  0  0  0  0  0  0  0  0
    0.0767   -1.8094   -0.9318 H   0  0  0  0  0  0  0  0  0  0  0  0
  1  3  1  0  0  0  0
  1  5  1  0  0  0  0
  2  1  1  0  0  0  0
  2  8  1  0  0  0  0
  4  1  1  0  0  0  0
  6  2  1  0  0  0  0
  6  9  1  0  0  0  0
  6 10  1  0  0  0  0
  7  2  1  0  0  0  0
  9 13  1  0  0  0  0
  9 12  1  0  0  0  0
 11  6  1  0  0  0  0
M  RAD  2   9   2  14   2
M  END
$$$$
