14
butane_opt
C  -3.983320   0.266341   0.036013
C  -2.701559  -0.650995  -0.014176
H  -5.073565  -0.455443  -0.057577
H  -3.707026   0.671956  -0.752376
H  -4.198189   1.102370   1.029186
C  -1.407141   0.310795   0.048172
H  -2.830915  -1.531261  -0.901917
H  -2.829683  -1.131729   0.876627
C  -0.125569  -0.708839   0.054540
H  -1.605099   0.637603   0.735251
H  -1.170762   0.832406  -0.914265
H   0.448000  -1.751167   1.095025
H   0.691222  -0.279128  -0.535174
H  -0.152699  -1.142362  -0.575065
