14
butane_opt
C  -3.948167   0.257864   0.005638
C  -2.714900  -0.607622   0.069085
H  -4.858090  -0.366121   0.058672
H  -3.929559   0.913254  -0.920263
H  -3.979893   0.911267   0.847109
C  -1.396849   0.197839   0.008648
H  -2.711258  -1.289083  -0.803107
H  -2.770200  -1.243306   0.951342
C  -0.147011  -0.696866   0.020334
H  -1.355936   0.863518   0.839131
H  -1.428158   0.815946  -0.857117
H  -0.158426  -1.249806   0.869140
H   0.705705  -0.160868   0.135477
H  -0.049661  -1.489682  -0.928181
