butane_opt
 OpenBabel08242015393D

 14 12  0  0  0  0  0  0  0  0999 V2000
   -3.8807    0.2199    0.1454 C   0  0  0  0  0  0  0  0  0  0  0  0
   -2.7117   -0.5234   -0.0676 C   0  0  0  0  0  0  0  0  0  0  0  0
   -4.9523   -0.5056    0.2178 H   0  0  0  0  0  0  0  0  0  0  0  0
   -3.8549    0.8481   -0.7129 H   0  0  0  0  0  0  0  0  0  0  0  0
   -3.8559    0.6928    0.9110 H   0  0  0  0  0  0  0  0  0  0  0  0
   -1.4484    0.2341   -0.1767 C   0  0  0  0  0  0  0  0  0  0  0  0
   -3.1324   -0.9705   -0.7742 H   0  0  0  0  0  0  0  0  0  0  0  0
   -2.6480   -1.2013    0.9144 H   0  0  0  0  0  0  0  0  0  0  0  0
   -0.1317   -0.7612    0.1519 C   0  0  0  0  0  0  0  0  0  0  0  0
   -1.4648    0.8392    0.6342 H   0  0  0  0  0  0  0  0  0  0  0  0
   -1.5808    0.7199   -1.0612 H   0  0  0  0  0  0  0  0  0  0  0  0
   -0.6917   -0.9273    0.8584 H   0  0  0  0  0  0  0  0  0  0  0  0
    0.9318   -0.1621    0.6888 H   0  0  0  0  0  0  0  0  0  0  0  0
    0.3135   -1.8608   -0.9448 H   0  0  0  0  0  0  0  0  0  0  0  0
  1  3  1  0  0  0  0
  1  5  1  0  0  0  0
  2  1  1  0  0  0  0
  2  8  1  0  0  0  0
  4  1  1  0  0  0  0
  6  2  1  0  0  0  0
  6  9  1  0  0  0  0
  6 10  1  0  0  0  0
  7  2  1  0  0  0  0
  9 13  1  0  0  0  0
  9 12  1  0  0  0  0
 11  6  1  0  0  0  0
M  RAD  2   9   2  14   2
M  END
$$$$
