butane_opt
 OpenBabel08242015393D

 14 10  0  0  0  0  0  0  0  0999 V2000
   -3.9359    0.2018    0.1524 C   0  0  0  0  0  0  0  0  0  0  0  0
   -2.7492   -0.6035   -0.0542 C   0  0  0  0  0  0  0  0  0  0  0  0
   -4.9313   -0.3076   -0.6699 H   0  0  0  0  0  0  0  0  0  0  0  0
   -3.9436    0.2630   -0.4535 H   0  0  0  0  0  0  0  0  0  0  0  0
   -4.1616    1.7434    1.5207 H   0  0  0  0  0  0  0  0  0  0  0  0
   -1.4024    0.2295   -0.1093 C   0  0  0  0  0  0  0  0  0  0  0  0
   -2.7473   -1.3018   -0.9216 H   0  0  0  0  0  0  0  0  0  0  0  0
   -2.9818   -1.1424    0.7528 H   0  0  0  0  0  0  0  0  0  0  0  0
   -0.0981   -0.7217    0.1354 C   0  0  0  0  0  0  0  0  0  0  0  0
   -1.6220    0.6578    0.4003 H   0  0  0  0  0  0  0  0  0  0  0  0
   -1.5340    1.2250   -1.2332 H   0  0  0  0  0  0  0  0  0  0  0  0
    0.1654   -1.7115    1.2708 H   0  0  0  0  0  0  0  0  0  0  0  0
    0.7660   -0.1450   -0.1901 H   0  0  0  0  0  0  0  0  0  0  0  0
    0.1918   -1.0474   -0.4028 H   0  0  0  0  0  0  0  0  0  0  0  0
  2  1  1  0  0  0  0
  2  8  1  0  0  0  0
  3  1  1  0  0  0  0
  6  2  1  0  0  0  0
  6  9  1  0  0  0  0
  6 10  1  0  0  0  0
  7  2  1  0  0  0  0
 11  6  1  0  0  0  0
 13  9  1  0  0  0  0
 14  9  1  0  0  0  0
M  RAD  5   1   3   4   2   5   2   9   2  12   2
M  END
$$$$
