butane_opt
 OpenBabel08242015393D

 14 12  0  0  0  0  0  0  0  0999 V2000
   -3.9521    0.1730   -0.0491 C   0  0  0  0  0  0  0  0  0  0  0  0
   -2.7614   -0.5391    0.0783 C   0  0  0  0  0  0  0  0  0  0  0  0
   -4.7740   -0.3231   -0.0633 H   0  0  0  0  0  0  0  0  0  0  0  0
   -3.6828    0.9787   -1.0855 H   0  0  0  0  0  0  0  0  0  0  0  0
   -4.0384    0.9128    0.8588 H   0  0  0  0  0  0  0  0  0  0  0  0
   -1.4276    0.3193    0.1799 C   0  0  0  0  0  0  0  0  0  0  0  0
   -2.8704   -1.3724   -0.8842 H   0  0  0  0  0  0  0  0  0  0  0  0
   -3.0003   -1.1905    0.8274 H   0  0  0  0  0  0  0  0  0  0  0  0
   -0.0761   -0.7996   -0.0673 C   0  0  0  0  0  0  0  0  0  0  0  0
   -1.5089    0.8797    0.9834 H   0  0  0  0  0  0  0  0  0  0  0  0
   -1.1430    0.8849   -0.7044 H   0  0  0  0  0  0  0  0  0  0  0  0
    0.4582   -1.8036    1.1172 H   0  0  0  0  0  0  0  0  0  0  0  0
    0.7146   -0.1202   -0.6142 H   0  0  0  0  0  0  0  0  0  0  0  0
   -0.5517   -1.1313   -0.6576 H   0  0  0  0  0  0  0  0  0  0  0  0
  1  2  1  0  0  0  0
  1  5  1  0  0  0  0
  2  6  1  0  0  0  0
  2  8  1  0  0  0  0
  3  1  1  0  0  0  0
  4  1  1  0  0  0  0
  6 10  1  0  0  0  0
  7  2  1  0  0  0  0
  9  6  1  0  0  0  0
 11  6  1  0  0  0  0
 13  9  1  0  0  0  0
 14  9  1  0  0  0  0
M  RAD  2   9   2  12   2
M  END
$$$$
