14
butane_opt
C  -4.006824   0.387354   0.080799
C  -2.745438  -0.738556  -0.043554
H  -4.997364  -0.325430  -0.540404
H  -4.080027   0.241115  -0.224810
H  -4.196525   1.677283   1.457344
C  -1.325304   0.126944  -0.097680
H  -2.649610  -1.269920  -0.623700
H  -2.498322  -1.421859   0.851092
C  -0.146643  -0.637199   0.112405
H  -1.192832   0.570516   0.571892
H  -1.204971   0.940405  -1.162413
H  -0.387802  -1.540858   1.249139
H   0.801851   0.110196  -0.133793
H   0.044378  -1.123605  -0.562744
