14
butane_opt
C  -4.006346   0.186425  -0.130175
C  -2.741066  -0.558257   0.143452
H  -4.781675  -0.378763   0.361340
H  -4.105426   1.278118  -1.410494
H  -3.809960   0.308319   0.398523
C  -1.401212   0.279901   0.163726
H  -2.439339  -0.930400  -0.487346
H  -2.822632  -1.406701   1.302458
C  -0.091538  -0.726999  -0.105616
H  -1.462384   1.203695   1.289119
H  -1.384028   0.551095  -0.358669
H   0.387876  -1.112108   0.528965
H   0.560180  -0.316433   0.030944
H  -0.252251  -1.851432  -1.168567
