butane_opt
 OpenBabel08242015393D

 14 13  0  0  0  0  0  0  0  0999 V2000
   -3.9142    0.2158    0.0967 C   0  0  0  0  0  0  0  0  0  0  0  0
   -2.7585   -0.5746   -0.1693 C   0  0  0  0  0  0  0  0  0  0  0  0
   -4.8332   -0.3650    0.7735 H   0  0  0  0  0  0  0  0  0  0  0  0
   -4.3223    1.0681   -0.8695 H   0  0  0  0  0  0  0  0  0  0  0  0
   -3.3818    0.4849    0.8261 H   0  0  0  0  0  0  0  0  0  0  0  0
   -1.4402    0.2890   -0.0258 C   0  0  0  0  0  0  0  0  0  0  0  0
   -2.6979   -1.3723   -1.0726 H   0  0  0  0  0  0  0  0  0  0  0  0
   -2.8771   -1.3197    0.8134 H   0  0  0  0  0  0  0  0  0  0  0  0
   -0.0801   -0.7436    0.1077 C   0  0  0  0  0  0  0  0  0  0  0  0
   -1.5456    0.9779    0.8474 H   0  0  0  0  0  0  0  0  0  0  0  0
   -1.6416    0.9271   -0.6986 H   0  0  0  0  0  0  0  0  0  0  0  0
    0.0793   -1.6220    1.1001 H   0  0  0  0  0  0  0  0  0  0  0  0
    0.5986   -0.2715    0.1360 H   0  0  0  0  0  0  0  0  0  0  0  0
   -0.0758   -1.2091   -0.5068 H   0  0  0  0  0  0  0  0  0  0  0  0
  1  3  1  0  0  0  0
  1  5  1  0  0  0  0
  2  6  1  0  0  0  0
  2  1  1  0  0  0  0
  2  8  1  0  0  0  0
  4  1  1  0  0  0  0
  6  9  1  0  0  0  0
  6 10  1  0  0  0  0
  7  2  1  0  0  0  0
  9 13  1  0  0  0  0
  9 12  1  0  0  0  0
 11  6  1  0  0  0  0
 14  9  1  0  0  0  0
M  END
$$$$
