butane_opt
 OpenBabel08242015393D

 14 10  0  0  0  0  0  0  0  0999 V2000
   -3.9649    0.2365   -0.0286 C   0  0  0  0  0  1  0  0  0  0  0  0
   -2.7105   -0.5433    0.0652 C   0  0  0  0  0  0  0  0  0  0  0  0
   -5.0977   -0.4525    0.7014 H   0  0  0  0  0  0  0  0  0  0  0  0
   -4.3984    1.5738   -1.3994 H   0  0  0  0  0  0  0  0  0  0  0  0
   -3.6653    0.0481    0.1856 H   0  0  0  0  0  0  0  0  0  0  0  0
   -1.3744    0.2397    0.1764 C   0  0  0  0  0  0  0  0  0  0  0  0
   -2.7237   -1.3706   -0.9890 H   0  0  0  0  0  0  0  0  0  0  0  0
   -3.0646   -1.0998    0.8447 H   0  0  0  0  0  0  0  0  0  0  0  0
   -0.1243   -0.7379   -0.0693 C   0  0  0  0  0  0  0  0  0  0  0  0
   -1.2179    0.8950    1.1353 H   0  0  0  0  0  0  0  0  0  0  0  0
   -1.3826    0.7717   -0.7310 H   0  0  0  0  0  0  0  0  0  0  0  0
   -0.0826   -1.3374    0.7753 H   0  0  0  0  0  0  0  0  0  0  0  0
    0.7213   -0.1338    0.1762 H   0  0  0  0  0  0  0  0  0  0  0  0
    0.0013   -1.7138   -1.0698 H   0  0  0  0  0  0  0  0  0  0  0  0
  1  3  1  0  0  0  0
  2  5  1  0  0  0  0
  2  8  1  0  0  0  0
  6 10  1  0  0  0  0
  7  2  1  0  0  0  0
  9 13  1  0  0  0  0
  9  6  1  0  0  0  0
  9 12  1  0  0  0  0
 11  6  1  0  0  0  0
 14  9  1  0  0  0  0
M  RAD  3   2   2   4   2   6   2
M  END
$$$$
