butane_opt
 OpenBabel08242015393D

 14 11  0  0  0  0  0  0  0  0999 V2000
   -4.0003    0.3003    0.0985 C   0  0  0  0  0  0  0  0  0  0  0  0
   -2.7097   -0.6713   -0.0443 C   0  0  0  0  0  0  0  0  0  0  0  0
   -4.8178   -0.1883    0.1157 H   0  0  0  0  0  0  0  0  0  0  0  0
   -4.3661    1.0291   -0.8516 H   0  0  0  0  0  0  0  0  0  0  0  0
   -4.0496    0.8166    0.8356 H   0  0  0  0  0  0  0  0  0  0  0  0
   -1.4100    0.1360    0.0293 C   0  0  0  0  0  0  0  0  0  0  0  0
   -2.6667   -1.5614   -1.2473 H   0  0  0  0  0  0  0  0  0  0  0  0
   -2.6614   -0.8633    0.5078 H   0  0  0  0  0  0  0  0  0  0  0  0
   -0.1077   -0.6237    0.0620 C   0  0  0  0  0  0  0  0  0  0  0  0
   -1.2900    0.6844    0.7708 H   0  0  0  0  0  0  0  0  0  0  0  0
   -1.2279    0.7724   -0.8636 H   0  0  0  0  0  0  0  0  0  0  0  0
   -0.0826   -1.9135    1.4024 H   0  0  0  0  0  0  0  0  0  0  0  0
    0.9912   -0.0455   -0.3785 H   0  0  0  0  0  0  0  0  0  0  0  0
   -0.1417   -0.8688   -0.5543 H   0  0  0  0  0  0  0  0  0  0  0  0
  1  3  1  0  0  0  0
  1  5  1  0  0  0  0
  2  6  1  0  0  0  0
  2  1  1  0  0  0  0
  4  1  1  0  0  0  0
  6  9  1  0  0  0  0
  6 10  1  0  0  0  0
  7  2  1  0  0  0  0
 11  6  1  0  0  0  0
 13  9  1  0  0  0  0
 14  9  1  0  0  0  0
M  RAD  4   2   2   8   2   9   2  12   2
M  END
$$$$
