butane_opt
 OpenBabel08242015393D

 14 13  0  0  0  0  0  0  0  0999 V2000
   -3.9253    0.2516   -0.0415 C   0  0  0  0  0  0  0  0  0  0  0  0
   -2.6366   -0.6312    0.0639 C   0  0  0  0  0  0  0  0  0  0  0  0
   -4.6326   -0.2770    0.1594 H   0  0  0  0  0  0  0  0  0  0  0  0
   -3.9011    0.9591   -1.0941 H   0  0  0  0  0  0  0  0  0  0  0  0
   -4.0442    1.1858    0.9675 H   0  0  0  0  0  0  0  0  0  0  0  0
   -1.3876    0.1470    0.1054 C   0  0  0  0  0  0  0  0  0  0  0  0
   -2.6572   -1.4757   -0.9208 H   0  0  0  0  0  0  0  0  0  0  0  0
   -2.6714   -1.2118    0.8656 H   0  0  0  0  0  0  0  0  0  0  0  0
   -0.2388   -0.6527    0.0085 C   0  0  0  0  0  0  0  0  0  0  0  0
   -1.6838    0.9039    1.0288 H   0  0  0  0  0  0  0  0  0  0  0  0
   -1.3975    0.7329   -0.9238 H   0  0  0  0  0  0  0  0  0  0  0  0
    0.1283   -1.5168    1.0068 H   0  0  0  0  0  0  0  0  0  0  0  0
    0.6400   -0.0015   -0.5894 H   0  0  0  0  0  0  0  0  0  0  0  0
   -0.5626   -1.0843   -0.6567 H   0  0  0  0  0  0  0  0  0  0  0  0
  1  2  1  0  0  0  0
  1  3  1  0  0  0  0
  1  5  1  0  0  0  0
  2  6  1  0  0  0  0
  2  8  1  0  0  0  0
  4  1  1  0  0  0  0
  6 10  1  0  0  0  0
  7  2  1  0  0  0  0
  9  6  1  0  0  0  0
  9 12  1  0  0  0  0
 11  6  1  0  0  0  0
 13  9  1  0  0  0  0
 14  9  1  0  0  0  0
M  END
$$$$
