14
butane_opt
C  -3.887308   0.212067   0.083602
C  -2.666129  -0.554888  -0.134358
H  -4.851956  -0.287095   0.941959
H  -4.327099   1.048635  -0.905267
H  -3.168292   0.650279   0.871188
C  -1.503694   0.198885  -0.044151
H  -2.609083  -1.355795  -1.011590
H  -2.675202  -1.173430   0.627969
C  -0.221983  -0.683865   0.131405
H  -1.374857   0.971736   0.781329
H  -1.183203   0.756773  -0.997269
H  -0.084454  -1.558080   1.248558
H   0.603414  -0.202200   0.226665
H  -0.030595  -1.383106  -0.769156
