butane_opt
 OpenBabel08242015393D

 14 13  0  0  0  0  0  0  0  0999 V2000
   -3.8728    0.2034   -0.1828 C   0  0  0  0  0  0  0  0  0  0  0  0
   -2.6875   -0.5270    0.2174 C   0  0  0  0  0  0  0  0  0  0  0  0
   -5.0329   -0.5272   -0.2266 H   0  0  0  0  0  0  0  0  0  0  0  0
   -3.7444    0.9412   -1.1423 H   0  0  0  0  0  0  0  0  0  0  0  0
   -3.9927    1.0133    0.6990 H   0  0  0  0  0  0  0  0  0  0  0  0
   -1.4736    0.1709    0.2896 C   0  0  0  0  0  0  0  0  0  0  0  0
   -2.6157   -1.2362   -0.6976 H   0  0  0  0  0  0  0  0  0  0  0  0
   -2.9218   -1.1918    1.2840 H   0  0  0  0  0  0  0  0  0  0  0  0
   -0.1636   -0.7169   -0.1605 C   0  0  0  0  0  0  0  0  0  0  0  0
   -1.3595    0.7813    1.0753 H   0  0  0  0  0  0  0  0  0  0  0  0
   -1.6941    0.9362   -0.7441 H   0  0  0  0  0  0  0  0  0  0  0  0
    0.3865   -1.5260    0.6122 H   0  0  0  0  0  0  0  0  0  0  0  0
    0.7575    0.0012   -0.3577 H   0  0  0  0  0  0  0  0  0  0  0  0
   -0.4240   -1.2423   -0.9823 H   0  0  0  0  0  0  0  0  0  0  0  0
  1  2  1  0  0  0  0
  1  5  1  0  0  0  0
  2  6  1  0  0  0  0
  2  8  1  0  0  0  0
  3  1  1  0  0  0  0
  4  1  1  0  0  0  0
  6 10  1  0  0  0  0
  7  2  1  0  0  0  0
  9  6  1  0  0  0  0
  9 12  1  0  0  0  0
 11  6  1  0  0  0  0
 13  9  1  0  0  0  0
 14  9  1  0  0  0  0
M  END
$$$$
