butane_opt
 OpenBabel08242015393D

 14 11  0  0  0  0  0  0  0  0999 V2000
   -3.9351    0.2459    0.0887 C   0  0  0  0  0  0  0  0  0  0  0  0
   -2.7336   -0.5492   -0.1387 C   0  0  0  0  0  0  0  0  0  0  0  0
   -4.9303   -0.5039    0.8940 H   0  0  0  0  0  0  0  0  0  0  0  0
   -4.5137    1.2121   -0.9108 H   0  0  0  0  0  0  0  0  0  0  0  0
   -3.2343    0.5037    0.6649 H   0  0  0  0  0  0  0  0  0  0  0  0
   -1.3786    0.1983   -0.0449 C   0  0  0  0  0  0  0  0  0  0  0  0
   -2.6782   -1.3091   -0.9923 H   0  0  0  0  0  0  0  0  0  0  0  0
   -2.4753   -1.0874    0.6960 H   0  0  0  0  0  0  0  0  0  0  0  0
   -0.1660   -0.7307    0.1253 C   0  0  0  0  0  0  0  0  0  0  0  0
   -1.3651    0.9789    0.7898 H   0  0  0  0  0  0  0  0  0  0  0  0
   -1.3397    0.7296   -0.7513 H   0  0  0  0  0  0  0  0  0  0  0  0
   -0.4751   -1.4581    1.2329 H   0  0  0  0  0  0  0  0  0  0  0  0
    0.7328   -0.0678    0.1442 H   0  0  0  0  0  0  0  0  0  0  0  0
   -0.1394   -1.4749   -0.7566 H   0  0  0  0  0  0  0  0  0  0  0  0
  1  5  1  0  0  0  0
  1  3  1  0  0  0  0
  2  8  1  0  0  0  0
  4  1  1  0  0  0  0
  6  9  1  0  0  0  0
  6 10  1  0  0  0  0
  7  2  1  0  0  0  0
  9 13  1  0  0  0  0
  9 12  1  0  0  0  0
 11  6  1  0  0  0  0
 14  9  1  0  0  0  0
M  RAD  3   1   2   2   3   6   2
M  END
$$$$
