butane_opt
 OpenBabel08242015393D

 14 11  0  0  0  0  0  0  0  0999 V2000
   -3.9823    0.2983    0.0332 C   0  0  0  0  0  0  0  0  0  0  0  0
   -2.7812   -0.6516    0.0524 C   0  0  0  0  0  0  0  0  0  0  0  0
   -4.5768   -0.0938   -0.7180 H   0  0  0  0  0  0  0  0  0  0  0  0
   -3.9557    0.3255   -0.5636 H   0  0  0  0  0  0  0  0  0  0  0  0
   -4.1834    1.5878    1.2637 H   0  0  0  0  0  0  0  0  0  0  0  0
   -1.3445    0.1580   -0.0724 C   0  0  0  0  0  0  0  0  0  0  0  0
   -2.7584   -1.3052   -0.6728 H   0  0  0  0  0  0  0  0  0  0  0  0
   -2.7388   -1.5656    1.1876 H   0  0  0  0  0  0  0  0  0  0  0  0
   -0.1268   -0.6607    0.0670 C   0  0  0  0  0  0  0  0  0  0  0  0
   -1.4885    0.8780    0.9085 H   0  0  0  0  0  0  0  0  0  0  0  0
   -1.1502    0.6931   -0.9927 H   0  0  0  0  0  0  0  0  0  0  0  0
    0.1494   -1.4478    1.0144 H   0  0  0  0  0  0  0  0  0  0  0  0
    0.6941   -0.0701   -0.3074 H   0  0  0  0  0  0  0  0  0  0  0  0
   -0.2465   -1.1452   -0.6040 H   0  0  0  0  0  0  0  0  0  0  0  0
  1  2  1  0  0  0  0
  2  8  1  0  0  0  0
  3  1  1  0  0  0  0
  6  2  1  0  0  0  0
  6  9  1  0  0  0  0
  6 10  1  0  0  0  0
  7  2  1  0  0  0  0
  9 12  1  0  0  0  0
 11  6  1  0  0  0  0
 13  9  1  0  0  0  0
 14  9  1  0  0  0  0
M  RAD  3   1   3   4   2   5   2
M  END
$$$$
