butane_opt
 OpenBabel08242015393D

 14 13  0  0  0  0  0  0  0  0999 V2000
   -3.9244    0.2970    0.1886 C   0  0  0  0  0  0  0  0  0  0  0  0
   -2.6485   -0.6868   -0.2016 C   0  0  0  0  0  0  0  0  0  0  0  0
   -4.6379   -0.1067    0.7778 H   0  0  0  0  0  0  0  0  0  0  0  0
   -4.3227    1.0814   -0.7654 H   0  0  0  0  0  0  0  0  0  0  0  0
   -3.7252    0.7915    1.0256 H   0  0  0  0  0  0  0  0  0  0  0  0
   -1.4219    0.0893   -0.2032 C   0  0  0  0  0  0  0  0  0  0  0  0
   -2.9933   -1.4021   -1.1408 H   0  0  0  0  0  0  0  0  0  0  0  0
   -2.3192   -1.1096    0.5892 H   0  0  0  0  0  0  0  0  0  0  0  0
   -0.1981   -0.5996    0.2208 C   0  0  0  0  0  0  0  0  0  0  0  0
   -1.6217    1.0183    0.8742 H   0  0  0  0  0  0  0  0  0  0  0  0
   -1.2700    0.7755   -1.0232 H   0  0  0  0  0  0  0  0  0  0  0  0
   -0.4356   -1.4580    1.2162 H   0  0  0  0  0  0  0  0  0  0  0  0
    0.6637   -0.0769    0.3271 H   0  0  0  0  0  0  0  0  0  0  0  0
   -0.0785   -1.1690   -0.5140 H   0  0  0  0  0  0  0  0  0  0  0  0
  1  3  1  0  0  0  0
  1  5  1  0  0  0  0
  2  1  1  0  0  0  0
  2  8  1  0  0  0  0
  4  1  1  0  0  0  0
  6  2  1  0  0  0  0
  6  9  1  0  0  0  0
  6 10  1  0  0  0  0
  7  2  1  0  0  0  0
  9 13  1  0  0  0  0
  9 12  1  0  0  0  0
 11  6  1  0  0  0  0
 14  9  1  0  0  0  0
M  END
$$$$
