14
butane_opt
C  -3.979382   0.179806   0.009527
C  -2.710641  -0.527289   0.002319
H  -5.010747  -0.360589   0.578843
H  -4.322063   1.486587  -1.355808
H  -3.794170   0.344703   0.568135
C  -1.423386   0.255014   0.084352
H  -2.896134  -1.234179  -0.816360
H  -3.010092  -1.190535   0.797404
C  -0.025098  -0.739285  -0.025383
H  -1.240582   0.988863   1.076179
H  -1.709578   0.567536  -0.496508
H  -0.187775  -1.467907   0.918774
H   0.807063  -0.243217   0.177038
H   0.045941  -1.368067  -0.895836
