butane_opt
 OpenBabel08242015393D

 14 11  0  0  0  0  0  0  0  0999 V2000
   -3.9464    0.2185    0.1845 C   0  0  0  0  0  0  0  0  0  0  0  0
   -2.6712   -0.5069   -0.1339 C   0  0  0  0  0  0  0  0  0  0  0  0
   -5.0404   -0.6012    0.3512 H   0  0  0  0  0  0  0  0  0  0  0  0
   -4.2170    0.8951   -0.8370 H   0  0  0  0  0  0  0  0  0  0  0  0
   -3.8165    0.4930    0.7416 H   0  0  0  0  0  0  0  0  0  0  0  0
   -1.4185    0.2386   -0.0597 C   0  0  0  0  0  0  0  0  0  0  0  0
   -3.0605   -1.4546   -1.3514 H   0  0  0  0  0  0  0  0  0  0  0  0
   -2.6223   -0.8477    0.4422 H   0  0  0  0  0  0  0  0  0  0  0  0
   -0.1129   -0.7509    0.1501 C   0  0  0  0  0  0  0  0  0  0  0  0
   -1.6846    0.7915    0.5932 H   0  0  0  0  0  0  0  0  0  0  0  0
   -1.2226    0.8087   -0.8852 H   0  0  0  0  0  0  0  0  0  0  0  0
    0.0171   -1.7236    1.2375 H   0  0  0  0  0  0  0  0  0  0  0  0
    0.5704   -0.2161   -0.1980 H   0  0  0  0  0  0  0  0  0  0  0  0
   -0.0914   -1.0386   -0.3496 H   0  0  0  0  0  0  0  0  0  0  0  0
  1  3  1  0  0  0  0
  1  5  1  0  0  0  0
  2  6  1  0  0  0  0
  2  1  1  0  0  0  0
  2  8  1  0  0  0  0
  4  1  1  0  0  0  0
  6  9  1  0  0  0  0
  6 10  1  0  0  0  0
  9 12  1  0  0  0  0
 11  6  1  0  0  0  0
 13  9  1  0  0  0  0
M  RAD  4   2   2   7   2   9   2  14   2
M  END
$$$$
