14
butane_opt
C  -3.874980   0.217556  -0.129807
C  -2.720121  -0.579411   0.273489
H  -4.974508  -0.555492  -0.114784
H  -3.805222   1.041145  -1.053475
H  -4.067404   0.840598   0.647880
C  -1.416077   0.291762   0.100263
H  -2.693731  -1.268301  -0.771612
H  -2.582682  -1.291936   1.249481
C  -0.195911  -0.754807  -0.088486
H  -1.209103   0.857253   0.828994
H  -1.527606   0.894475  -0.791365
H  -0.371119  -0.930910   0.457147
H   0.719564  -0.225366   0.399573
H   0.051602  -1.994690  -1.347913
