butane_opt
 OpenBabel08242015393D

 14 12  0  0  0  0  0  0  0  0999 V2000
   -3.9454    0.2450   -0.1193 C   0  0  0  0  0  0  0  0  0  0  0  0
   -2.7268   -0.6801    0.2485 C   0  0  0  0  0  0  0  0  0  0  0  0
   -4.7979   -0.2743   -0.7216 H   0  0  0  0  0  0  0  0  0  0  0  0
   -3.8170    0.6589   -0.8761 H   0  0  0  0  0  0  0  0  0  0  0  0
   -4.2621    1.3621    1.0730 H   0  0  0  0  0  0  0  0  0  0  0  0
   -1.4132    0.2242    0.0506 C   0  0  0  0  0  0  0  0  0  0  0  0
   -2.7480   -1.0897   -0.4807 H   0  0  0  0  0  0  0  0  0  0  0  0
   -2.8079   -1.4032    1.3364 H   0  0  0  0  0  0  0  0  0  0  0  0
   -0.1310   -0.6918   -0.1054 C   0  0  0  0  0  0  0  0  0  0  0  0
   -1.2693    1.1371    1.1242 H   0  0  0  0  0  0  0  0  0  0  0  0
   -1.7948    0.8519   -0.7317 H   0  0  0  0  0  0  0  0  0  0  0  0
   -0.0468   -1.2880    0.7735 H   0  0  0  0  0  0  0  0  0  0  0  0
    0.9103   -0.1460    0.0495 H   0  0  0  0  0  0  0  0  0  0  0  0
    0.1835   -1.4577   -0.9919 H   0  0  0  0  0  0  0  0  0  0  0  0
  1  2  1  0  0  0  0
  2  8  1  0  0  0  0
  3  1  1  0  0  0  0
  4  1  1  0  0  0  0
  6  2  1  0  0  0  0
  6 10  1  0  0  0  0
  7  2  1  0  0  0  0
  9 13  1  0  0  0  0
  9  6  1  0  0  0  0
  9 12  1  0  0  0  0
 11  6  1  0  0  0  0
 14  9  1  0  0  0  0
M  RAD  2   1   2   5   2
M  END
$$$$
