butane_opt
 OpenBabel08242015393D

 14 10  0  0  0  0  0  0  0  0999 V2000
   -3.8998    0.2127   -0.0948 C   0  0  0  0  0  1  0  0  0  0  0  0
   -2.7000   -0.5493    0.0329 C   0  0  0  0  0  0  0  0  0  0  0  0
   -4.8629   -0.5241    0.7951 H   0  0  0  0  0  0  0  0  0  0  0  0
   -4.0762    1.4096   -1.2313 H   0  0  0  0  0  0  0  0  0  0  0  0
   -3.6535    0.3557    0.4496 H   0  0  0  0  0  0  0  0  0  0  0  0
   -1.3740    0.2376    0.1712 C   0  0  0  0  0  0  0  0  0  0  0  0
   -2.6632   -0.9675   -0.6302 H   0  0  0  0  0  0  0  0  0  0  0  0
   -2.8107   -1.4128    1.1309 H   0  0  0  0  0  0  0  0  0  0  0  0
   -0.2548   -0.7490   -0.0687 C   0  0  0  0  0  0  0  0  0  0  0  0
   -1.5643    1.1354    1.1522 H   0  0  0  0  0  0  0  0  0  0  0  0
   -1.2968    0.7280   -0.4234 H   0  0  0  0  0  0  0  0  0  0  0  0
    0.0475   -1.1126    0.5527 H   0  0  0  0  0  0  0  0  0  0  0  0
    0.6210   -0.3382   -0.0184 H   0  0  0  0  0  0  0  0  0  0  0  0
    0.0131   -1.5769   -0.9274 H   0  0  0  0  0  0  0  0  0  0  0  0
  1  3  1  0  0  0  0
  2  5  1  0  0  0  0
  2  8  1  0  0  0  0
  6 10  1  0  0  0  0
  7  2  1  0  0  0  0
  9 13  1  0  0  0  0
  9  6  1  0  0  0  0
  9 12  1  0  0  0  0
 11  6  1  0  0  0  0
 14  9  1  0  0  0  0
M  RAD  3   2   2   4   2   6   2
M  END
$$$$
