butane_opt
 OpenBabel08242015393D

 14 12  0  0  0  0  0  0  0  0999 V2000
   -4.0744    0.3346    0.1491 C   0  0  0  0  0  0  0  0  0  0  0  0
   -2.7076   -0.7070   -0.0770 C   0  0  0  0  0  0  0  0  0  0  0  0
   -4.7812   -0.1777    0.5327 H   0  0  0  0  0  0  0  0  0  0  0  0
   -4.3759    1.2315   -0.8537 H   0  0  0  0  0  0  0  0  0  0  0  0
   -3.6808    0.5766    0.8636 H   0  0  0  0  0  0  0  0  0  0  0  0
   -1.3397    0.1572   -0.1214 C   0  0  0  0  0  0  0  0  0  0  0  0
   -2.6956   -1.6591   -1.1790 H   0  0  0  0  0  0  0  0  0  0  0  0
   -2.4786   -0.8079    0.3785 H   0  0  0  0  0  0  0  0  0  0  0  0
   -0.1363   -0.6655    0.1504 C   0  0  0  0  0  0  0  0  0  0  0  0
   -1.2488    0.7659    0.7612 H   0  0  0  0  0  0  0  0  0  0  0  0
   -0.9936    0.7513   -1.1441 H   0  0  0  0  0  0  0  0  0  0  0  0
   -0.4143   -1.3361    1.0688 H   0  0  0  0  0  0  0  0  0  0  0  0
    0.7781   -0.0159    0.3072 H   0  0  0  0  0  0  0  0  0  0  0  0
   -0.0577   -1.1953   -0.5377 H   0  0  0  0  0  0  0  0  0  0  0  0
  1  3  1  0  0  0  0
  1  5  1  0  0  0  0
  2  1  1  0  0  0  0
  4  1  1  0  0  0  0
  6  2  1  0  0  0  0
  6  9  1  0  0  0  0
  6 10  1  0  0  0  0
  7  2  1  0  0  0  0
  9 13  1  0  0  0  0
  9 12  1  0  0  0  0
 11  6  1  0  0  0  0
 14  9  1  0  0  0  0
M  RAD  2   2   2   8   2
M  END
$$$$
