butane_opt
 OpenBabel08242015393D

 14 13  0  0  0  0  0  0  0  0999 V2000
   -3.9372    0.2763    0.0431 C   0  0  0  0  0  0  0  0  0  0  0  0
   -2.6958   -0.6222    0.0237 C   0  0  0  0  0  0  0  0  0  0  0  0
   -4.8776   -0.3320    0.0789 H   0  0  0  0  0  0  0  0  0  0  0  0
   -3.9706    0.9167   -0.8841 H   0  0  0  0  0  0  0  0  0  0  0  0
   -4.0089    0.9491    0.9248 H   0  0  0  0  0  0  0  0  0  0  0  0
   -1.4004    0.1618   -0.0198 C   0  0  0  0  0  0  0  0  0  0  0  0
   -2.6899   -1.3245   -0.8384 H   0  0  0  0  0  0  0  0  0  0  0  0
   -2.6604   -1.2606    0.9167 H   0  0  0  0  0  0  0  0  0  0  0  0
   -0.1762   -0.6786    0.0546 C   0  0  0  0  0  0  0  0  0  0  0  0
   -1.3791    0.8183    0.7904 H   0  0  0  0  0  0  0  0  0  0  0  0
   -1.3391    0.8484   -0.9702 H   0  0  0  0  0  0  0  0  0  0  0  0
   -0.2304   -1.2123    0.8886 H   0  0  0  0  0  0  0  0  0  0  0  0
    0.7463   -0.0853    0.1725 H   0  0  0  0  0  0  0  0  0  0  0  0
   -0.0947   -1.4399   -0.8640 H   0  0  0  0  0  0  0  0  0  0  0  0
  1  3  1  0  0  0  0
  1  5  1  0  0  0  0
  2  1  1  0  0  0  0
  2  8  1  0  0  0  0
  4  1  1  0  0  0  0
  6  2  1  0  0  0  0
  6  9  1  0  0  0  0
  6 10  1  0  0  0  0
  7  2  1  0  0  0  0
  9 13  1  0  0  0  0
  9 12  1  0  0  0  0
 11  6  1  0  0  0  0
 14  9  1  0  0  0  0
M  END
$$$$
