butane_opt
 OpenBabel08242015393D

 14 13  0  0  0  0  0  0  0  0999 V2000
   -3.9597    0.2790    0.0441 C   0  0  0  0  0  0  0  0  0  0  0  0
   -2.6961   -0.6306    0.0059 C   0  0  0  0  0  0  0  0  0  0  0  0
   -4.8631   -0.2907    0.0292 H   0  0  0  0  0  0  0  0  0  0  0  0
   -3.9870    0.8257   -0.8131 H   0  0  0  0  0  0  0  0  0  0  0  0
   -3.9767    0.9981    0.9208 H   0  0  0  0  0  0  0  0  0  0  0  0
   -1.3898    0.1754   -0.0082 C   0  0  0  0  0  0  0  0  0  0  0  0
   -2.7850   -1.3261   -0.8701 H   0  0  0  0  0  0  0  0  0  0  0  0
   -2.6654   -1.2168    0.8625 H   0  0  0  0  0  0  0  0  0  0  0  0
   -0.1643   -0.6911    0.0540 C   0  0  0  0  0  0  0  0  0  0  0  0
   -1.3824    0.8488    0.8097 H   0  0  0  0  0  0  0  0  0  0  0  0
   -1.3617    0.8003   -0.8952 H   0  0  0  0  0  0  0  0  0  0  0  0
   -0.1397   -1.4223    1.0380 H   0  0  0  0  0  0  0  0  0  0  0  0
    0.8136   -0.0374   -0.0425 H   0  0  0  0  0  0  0  0  0  0  0  0
   -0.1683   -1.2364   -0.7313 H   0  0  0  0  0  0  0  0  0  0  0  0
  1  5  1  0  0  0  0
  2  1  1  0  0  0  0
  2  8  1  0  0  0  0
  3  1  1  0  0  0  0
  4  1  1  0  0  0  0
  6  2  1  0  0  0  0
  6  9  1  0  0  0  0
  6 10  1  0  0  0  0
  7  2  1  0  0  0  0
  9 12  1  0  0  0  0
 11  6  1  0  0  0  0
 13  9  1  0  0  0  0
 14  9  1  0  0  0  0
M  END
$$$$
