14
butane_opt
C  -3.941554   0.174929   0.080282
C  -2.746820  -0.582509  -0.019463
H  -4.746164  -0.454854  -0.230127
H  -4.001087   0.341040  -0.524307
H  -4.115022   1.635790   1.502927
C  -1.443018   0.264493  -0.136658
H  -2.930657  -1.232294  -0.986074
H  -2.576126  -1.192195   0.927556
C  -0.062596  -0.721170   0.124602
H  -1.415536   1.055725   0.700423
H  -1.471676   0.956580  -1.162867
H  -0.147502  -1.781436   1.271110
H   0.618402  -0.388018   0.011613
H   0.155331  -1.089950  -0.546657
