14
butane_opt
C  -3.938918   0.277421   0.033131
C  -2.689296  -0.634416   0.001854
H  -4.856231  -0.290372   0.153011
H  -4.070042   0.935266  -0.876097
H  -3.843512   0.872575   0.865275
C  -1.394552   0.178364   0.007027
H  -2.692859  -1.294832  -0.816156
H  -2.710435  -1.230264   0.891975
C  -0.185555  -0.689518   0.042419
H  -1.433018   0.864155   0.880934
H  -1.347570   0.796819  -0.900133
H  -0.184035  -1.322052   0.965725
H   0.742894  -0.070203   0.030271
H  -0.138274  -1.309093  -0.778655
