butane_opt
 OpenBabel08242015393D

 14 13  0  0  0  0  0  0  0  0999 V2000
   -3.9561    0.2580    0.0332 C   0  0  0  0  0  0  0  0  0  0  0  0
   -2.6999   -0.6086    0.0303 C   0  0  0  0  0  0  0  0  0  0  0  0
   -4.9091   -0.3592    0.0719 H   0  0  0  0  0  0  0  0  0  0  0  0
   -3.9451    0.8589   -0.8578 H   0  0  0  0  0  0  0  0  0  0  0  0
   -3.9482    0.9276    0.8946 H   0  0  0  0  0  0  0  0  0  0  0  0
   -1.4082    0.2003   -0.0120 C   0  0  0  0  0  0  0  0  0  0  0  0
   -2.7276   -1.2889   -0.8185 H   0  0  0  0  0  0  0  0  0  0  0  0
   -2.7419   -1.2382    0.9298 H   0  0  0  0  0  0  0  0  0  0  0  0
   -0.1421   -0.7025    0.0459 C   0  0  0  0  0  0  0  0  0  0  0  0
   -1.4182    0.7940    0.7780 H   0  0  0  0  0  0  0  0  0  0  0  0
   -1.3758    0.8846   -0.9101 H   0  0  0  0  0  0  0  0  0  0  0  0
   -0.1794   -1.2197    0.9072 H   0  0  0  0  0  0  0  0  0  0  0  0
    0.7506   -0.1329    0.1445 H   0  0  0  0  0  0  0  0  0  0  0  0
   -0.0489   -1.4758   -0.8781 H   0  0  0  0  0  0  0  0  0  0  0  0
  1  3  1  0  0  0  0
  1  5  1  0  0  0  0
  2  1  1  0  0  0  0
  2  8  1  0  0  0  0
  4  1  1  0  0  0  0
  6  2  1  0  0  0  0
  6  9  1  0  0  0  0
  6 10  1  0  0  0  0
  7  2  1  0  0  0  0
  9 13  1  0  0  0  0
  9 12  1  0  0  0  0
 11  6  1  0  0  0  0
 14  9  1  0  0  0  0
M  END
$$$$
