14
butane_opt
C  -3.923852   0.264252  -0.059091
C  -2.636013  -0.677177   0.035748
H  -4.664620  -0.155587   0.768203
H  -4.188089   1.803949  -1.489841
H  -3.769489   0.321377   0.496804
C  -1.458634   0.129388   0.181696
H  -2.897938  -1.317120  -0.724348
H  -2.690972  -1.153088   0.821670
C  -0.162494  -0.635643  -0.024711
H  -1.480734   0.946150   0.984559
H  -1.413167   0.714156  -0.664760
H  -0.133778  -0.964701   0.667142
H   0.633429   0.032904  -0.112842
H  -0.274225  -1.639070  -1.048981
