14
butane_opt
C  -4.013386   0.248671   0.055529
C  -2.767481  -0.563499   0.009157
H  -4.959943  -0.386993  -0.239659
H  -3.834456   0.554466  -0.693802
H  -3.781309   1.175326   1.143462
C  -1.358328   0.192629  -0.063466
H  -2.933068  -0.902313  -0.572456
H  -2.523948  -1.520131   1.060576
C  -0.108979  -0.695130   0.076706
H  -1.519633   0.718889   0.492563
H  -1.270217   0.854456  -0.999361
H  -0.182244  -1.191907   0.878095
H   0.654095  -0.086787   0.418073
H   0.274000  -1.900835  -1.029310
