butane_opt
 OpenBabel08242015393D

 14  9  0  0  0  0  0  0  0  0999 V2000
   -4.0228    0.3434    0.0987 C   0  0  0  0  0  0  0  0  0  0  0  0
   -2.6832   -0.7467   -0.0543 C   0  0  0  0  0  0  0  0  0  0  0  0
   -4.7710   -0.0492   -0.2440 H   0  0  0  0  0  0  0  0  0  0  0  0
   -4.0824    0.4447   -0.5109 H   0  0  0  0  0  0  0  0  0  0  0  0
   -4.1881    1.3380    1.1603 H   0  0  0  0  0  0  0  0  0  0  0  0
   -1.3290    0.1638   -0.1105 C   0  0  0  0  0  0  0  0  0  0  0  0
   -2.5782   -1.4368   -0.8274 H   0  0  0  0  0  0  0  0  0  0  0  0
   -2.6196   -1.1277    0.7590 H   0  0  0  0  0  0  0  0  0  0  0  0
   -0.1663   -0.6500    0.1030 C   0  0  0  0  0  1  0  0  0  0  0  0
   -1.0602    0.9603    0.9726 H   0  0  0  0  0  0  0  0  0  0  0  0
   -1.2387    0.6039   -0.9568 H   0  0  0  0  0  0  0  0  0  0  0  0
   -0.1672   -1.7752    1.4804 H   0  0  0  0  0  0  0  0  0  0  0  0
    0.5663   -0.1051   -0.3273 H   0  0  0  0  0  0  0  0  0  0  0  0
   -0.4657   -0.6622   -0.3880 H   0  0  0  0  0  0  0  0  0  0  0  0
  1  5  1  0  0  0  0
  2  1  1  0  0  0  0
  2  8  1  0  0  0  0
  3  1  1  0  0  0  0
  6 10  1  0  0  0  0
  7  2  1  0  0  0  0
 11  6  1  0  0  0  0
 13  9  1  0  0  0  0
 14  6  1  0  0  0  0
M  RAD  5   1   2   2   2   4   2   6   2  12   2
M  END
$$$$
