14
butane_opt
C  -3.961289   0.301982   0.111426
C  -2.709300  -0.678903  -0.057046
H  -4.752331  -0.198796   0.631928
H  -4.502894   1.146083  -0.930224
H  -3.993713   0.550871   0.612945
C  -1.385777   0.165346  -0.014358
H  -2.825605  -1.606177  -1.247911
H  -2.707616  -1.113736   0.590465
C  -0.115644  -0.636963   0.078750
H  -1.538239   0.878927   0.818754
H  -1.329672   0.989901  -1.053925
H  -0.443573  -1.411557   1.066035
H   0.784073  -0.103058   0.146850
H   0.328457  -1.402800  -0.662508
