14
butane_opt
C  -3.888306   0.219003   0.163323
C  -2.697764  -0.559422  -0.141289
H  -4.860419  -0.534736  -0.090462
H  -3.844398   0.450965  -0.415217
H  -3.850879   1.073786   1.052522
C  -1.488336   0.293387  -0.054206
H  -2.792364  -1.688504  -1.259777
H  -2.608589  -0.953164   0.619785
C  -0.161645  -0.760224   0.152457
H  -1.326603   0.749785   0.693848
H  -1.369466   1.117239  -1.188360
H  -0.073850  -1.953475   1.575466
H   0.562650  -0.269102  -0.649829
H  -0.002367  -0.801059  -0.261802
