butane_opt
 OpenBabel08242015393D

 14 12  0  0  0  0  0  0  0  0999 V2000
   -4.0134    0.2487    0.0555 C   0  0  0  0  0  0  0  0  0  0  0  0
   -2.7675   -0.5635    0.0092 C   0  0  0  0  0  0  0  0  0  0  0  0
   -4.9599   -0.3870   -0.2397 H   0  0  0  0  0  0  0  0  0  0  0  0
   -3.8345    0.5545   -0.6938 H   0  0  0  0  0  0  0  0  0  0  0  0
   -3.7813    1.1753    1.1435 H   0  0  0  0  0  0  0  0  0  0  0  0
   -1.3583    0.1926   -0.0635 C   0  0  0  0  0  0  0  0  0  0  0  0
   -2.9331   -0.9023   -0.5725 H   0  0  0  0  0  0  0  0  0  0  0  0
   -2.5239   -1.5201    1.0606 H   0  0  0  0  0  0  0  0  0  0  0  0
   -0.1090   -0.6951    0.0767 C   0  0  0  0  0  0  0  0  0  0  0  0
   -1.5196    0.7189    0.4926 H   0  0  0  0  0  0  0  0  0  0  0  0
   -1.2702    0.8545   -0.9994 H   0  0  0  0  0  0  0  0  0  0  0  0
   -0.1822   -1.1919    0.8781 H   0  0  0  0  0  0  0  0  0  0  0  0
    0.6541   -0.0868    0.4181 H   0  0  0  0  0  0  0  0  0  0  0  0
    0.2740   -1.9008   -1.0293 H   0  0  0  0  0  0  0  0  0  0  0  0
  1  5  1  0  0  0  0
  2  1  1  0  0  0  0
  2  8  1  0  0  0  0
  3  1  1  0  0  0  0
  4  1  1  0  0  0  0
  6  2  1  0  0  0  0
  6  9  1  0  0  0  0
  6 10  1  0  0  0  0
  7  2  1  0  0  0  0
  9 13  1  0  0  0  0
  9 12  1  0  0  0  0
 11  6  1  0  0  0  0
M  RAD  2   9   2  14   2
M  END
$$$$
