butane_opt
 OpenBabel08242015393D

 14 12  0  0  0  0  0  0  0  0999 V2000
   -4.0005    0.3006   -0.1379 C   0  0  0  0  0  0  0  0  0  0  0  0
   -2.6669   -0.7213    0.1960 C   0  0  0  0  0  0  0  0  0  0  0  0
   -4.6381   -0.0204   -0.2114 H   0  0  0  0  0  0  0  0  0  0  0  0
   -3.8906    0.8746   -1.1681 H   0  0  0  0  0  0  0  0  0  0  0  0
   -4.2324    0.9078    0.7643 H   0  0  0  0  0  0  0  0  0  0  0  0
   -1.4071    0.1861    0.1435 C   0  0  0  0  0  0  0  0  0  0  0  0
   -2.6776   -0.9304   -0.3197 H   0  0  0  0  0  0  0  0  0  0  0  0
   -2.5776   -1.6685    1.2724 H   0  0  0  0  0  0  0  0  0  0  0  0
   -0.1571   -0.6708   -0.1194 C   0  0  0  0  0  0  0  0  0  0  0  0
   -1.2556    1.0513    1.1454 H   0  0  0  0  0  0  0  0  0  0  0  0
   -1.2879    0.6955   -0.5321 H   0  0  0  0  0  0  0  0  0  0  0  0
   -0.0901   -1.0195    0.4759 H   0  0  0  0  0  0  0  0  0  0  0  0
    0.8161   -0.0445    0.1522 H   0  0  0  0  0  0  0  0  0  0  0  0
   -0.4181   -1.4308   -1.1592 H   0  0  0  0  0  0  0  0  0  0  0  0
  1  2  1  0  0  0  0
  1  5  1  0  0  0  0
  2  8  1  0  0  0  0
  3  1  1  0  0  0  0
  4  1  1  0  0  0  0
  6  2  1  0  0  0  0
  6 10  1  0  0  0  0
  9  6  1  0  0  0  0
  9 13  1  0  0  0  0
  9 12  1  0  0  0  0
 11  6  1  0  0  0  0
 14  9  1  0  0  0  0
M  RAD  2   2   2   7   2
M  END
$$$$
