14
butane_opt
C  -3.940744   0.342216  -0.009770
C  -2.661876  -0.693428   0.155774
H  -4.739106  -0.288624  -0.104741
H  -3.930661   0.993629  -0.961297
H  -4.358172   0.786632   0.673960
C  -1.321282   0.113861   0.004640
H  -2.819084  -1.157303  -0.620060
H  -2.411328  -1.412496   1.018934
C  -0.270114  -0.631946  -0.038877
H  -1.315236   0.767430   0.816393
H  -1.286897   0.936852  -0.965579
H  -0.472934  -0.731895   0.536899
H   0.586153  -0.016533   0.776122
H   0.047921  -1.943066  -1.156071
