butane_opt
 OpenBabel08242015393D

 14 11  0  0  0  0  0  0  0  0999 V2000
   -3.9433    0.3195   -0.0167 C   0  0  0  0  0  0  0  0  0  0  0  0
   -2.6187   -0.6480    0.0557 C   0  0  0  0  0  0  0  0  0  0  0  0
   -4.8922   -0.2115    0.5288 H   0  0  0  0  0  0  0  0  0  0  0  0
   -4.0931    1.5611   -1.3836 H   0  0  0  0  0  0  0  0  0  0  0  0
   -4.0960    0.3488    0.3684 H   0  0  0  0  0  0  0  0  0  0  0  0
   -1.3746    0.0582    0.1249 C   0  0  0  0  0  0  0  0  0  0  0  0
   -2.6207   -1.5790   -0.9467 H   0  0  0  0  0  0  0  0  0  0  0  0
   -2.4797   -1.2890    0.9575 H   0  0  0  0  0  0  0  0  0  0  0  0
   -0.2137   -0.6042   -0.0132 C   0  0  0  0  0  0  0  0  0  0  0  0
   -1.2618    0.8720    1.0861 H   0  0  0  0  0  0  0  0  0  0  0  0
   -1.6693    0.7056   -0.6413 H   0  0  0  0  0  0  0  0  0  0  0  0
   -0.4228   -0.9950    0.7024 H   0  0  0  0  0  0  0  0  0  0  0  0
    0.6458    0.0535   -0.0681 H   0  0  0  0  0  0  0  0  0  0  0  0
   -0.3215   -1.4318   -1.0578 H   0  0  0  0  0  0  0  0  0  0  0  0
  1  2  1  0  0  0  0
  1  3  1  0  0  0  0
  2  6  1  0  0  0  0
  2  8  1  0  0  0  0
  6 10  1  0  0  0  0
  7  2  1  0  0  0  0
  9  6  1  0  0  0  0
  9 12  1  0  0  0  0
 11  6  1  0  0  0  0
 13  9  1  0  0  0  0
 14  9  1  0  0  0  0
M  RAD  3   1   3   4   2   5   2
M  END
$$$$
