butane_opt
 OpenBabel08242015393D

 14 12  0  0  0  0  0  0  0  0999 V2000
   -3.9319    0.2890    0.1695 C   0  0  0  0  0  0  0  0  0  0  0  0
   -2.7763   -0.6450   -0.1041 C   0  0  0  0  0  0  0  0  0  0  0  0
   -5.0764   -0.5145    0.2635 H   0  0  0  0  0  0  0  0  0  0  0  0
   -4.1236    0.4447   -0.4609 H   0  0  0  0  0  0  0  0  0  0  0  0
   -3.8064    1.1398    1.2375 H   0  0  0  0  0  0  0  0  0  0  0  0
   -1.3618    0.2599   -0.2413 C   0  0  0  0  0  0  0  0  0  0  0  0
   -2.8240   -1.3475   -0.7762 H   0  0  0  0  0  0  0  0  0  0  0  0
   -2.6841   -1.1153    0.6306 H   0  0  0  0  0  0  0  0  0  0  0  0
   -0.1328   -0.7212    0.2408 C   0  0  0  0  0  0  0  0  0  0  0  0
   -1.4189    0.6892    0.4105 H   0  0  0  0  0  0  0  0  0  0  0  0
   -1.4163    1.2289   -1.4109 H   0  0  0  0  0  0  0  0  0  0  0  0
   -0.2391   -1.1484    0.8804 H   0  0  0  0  0  0  0  0  0  0  0  0
    0.6491   -0.3562    0.7399 H   0  0  0  0  0  0  0  0  0  0  0  0
    0.3518   -1.7285   -0.8138 H   0  0  0  0  0  0  0  0  0  0  0  0
  1  3  1  0  0  0  0
  1  5  1  0  0  0  0
  2  1  1  0  0  0  0
  2  8  1  0  0  0  0
  4  1  1  0  0  0  0
  6  2  1  0  0  0  0
  6  9  1  0  0  0  0
  6 10  1  0  0  0  0
  7  2  1  0  0  0  0
  9 13  1  0  0  0  0
  9 12  1  0  0  0  0
 11  6  1  0  0  0  0
M  RAD  2   9   2  14   2
M  END
$$$$
