14
butane_opt
C  -3.942882   0.307738   0.078731
C  -2.693833  -0.675706  -0.113403
H  -4.730911  -0.157486   0.019113
H  -3.999744   0.654885  -0.550292
H  -4.067464   1.187743   1.101586
C  -1.419568   0.120448  -0.019708
H  -2.466316  -1.454700  -0.963872
H  -2.434734  -1.171070   0.753144
C  -0.174990  -0.595412   0.104987
H  -1.179278   0.895702   1.008539
H  -1.500536   0.521242  -0.833408
H  -0.179829  -2.079598   1.481695
H   0.703430  -0.102657  -0.787467
H  -0.413515  -0.610711  -0.284268
