14
butane_opt
C  -4.006704   0.350681   0.082002
C  -2.735335  -0.750243   0.061104
H  -4.738138  -0.191396  -0.547408
H  -3.884415   0.575952  -0.579593
H  -4.385940   1.412303   1.198720
C  -1.321430   0.135485  -0.107554
H  -2.670625  -1.373558  -0.711697
H  -2.669758  -1.201892   0.684950
C  -0.135768  -0.593676   0.091382
H  -1.440939   0.640738   0.621684
H  -1.120916   0.921499  -1.098072
H   0.051159  -1.343287   1.097397
H   0.555853  -0.189262   0.075995
H  -0.359959  -1.437275  -0.773387
