14
butane_opt
C  -3.927788   0.193959   0.092406
C  -2.740483  -0.527439  -0.109540
H  -4.852727  -0.427875   0.739635
H  -4.420918   1.024749  -0.846398
H  -3.585965   0.505995   0.796369
C  -1.403471   0.237221  -0.064087
H  -2.898197  -1.197551  -0.907948
H  -2.689593  -1.011521   0.480981
C  -0.110145  -0.766355   0.136482
H  -1.914333   1.144966   0.928377
H  -1.255804   0.803556  -0.914210
H  -0.125956  -1.387219   1.036602
H   0.864582  -0.167620  -0.151398
H   0.052119  -1.394164  -0.461663
