14
butane_opt
C  -3.924299   0.315911  -0.042470
C  -2.675478  -0.682054   0.101020
H  -4.806939  -0.178786  -0.304673
H  -3.419330   0.577120  -0.669347
H  -4.127956   1.245130   1.000125
C  -1.359739   0.134438   0.067430
H  -2.683674  -1.315179  -0.801571
H  -2.520005  -1.379472   1.130814
C  -0.262584  -0.642606  -0.011068
H  -1.418387   0.663503   0.918010
H  -1.404081   1.169346  -1.017332
H  -0.121710  -1.318057   0.809882
H   0.524604  -0.096836  -0.119616
H  -0.413843  -1.365048  -0.849174
