14
butane_opt
C  -3.890043   0.224363   0.167050
C  -2.675474  -0.575228  -0.076493
H  -4.935166  -0.579280  -0.770857
H  -3.626212   0.147347  -0.348229
H  -3.979305   1.601031   1.342432
C  -1.409328   0.275398  -0.138068
H  -2.813565  -1.118127  -0.775172
H  -2.830984  -1.254706   0.935337
C  -0.207902  -0.724700   0.152750
H  -1.632210   0.782556   0.434808
H  -1.156101   1.006037  -1.046118
H  -0.077007  -1.838666   1.299477
H   0.535459  -0.405488  -0.265191
H  -0.262401  -1.273594  -0.551435
