butane_opt
 OpenBabel08242015393D

 14 13  0  0  0  0  0  0  0  0999 V2000
   -3.9278    0.1940    0.0924 C   0  0  0  0  0  0  0  0  0  0  0  0
   -2.7405   -0.5274   -0.1095 C   0  0  0  0  0  0  0  0  0  0  0  0
   -4.8527   -0.4279    0.7396 H   0  0  0  0  0  0  0  0  0  0  0  0
   -4.4209    1.0247   -0.8464 H   0  0  0  0  0  0  0  0  0  0  0  0
   -3.5860    0.5060    0.7964 H   0  0  0  0  0  0  0  0  0  0  0  0
   -1.4035    0.2372   -0.0641 C   0  0  0  0  0  0  0  0  0  0  0  0
   -2.8982   -1.1976   -0.9079 H   0  0  0  0  0  0  0  0  0  0  0  0
   -2.6896   -1.0115    0.4810 H   0  0  0  0  0  0  0  0  0  0  0  0
   -0.1101   -0.7664    0.1365 C   0  0  0  0  0  0  0  0  0  0  0  0
   -1.9143    1.1450    0.9284 H   0  0  0  0  0  0  0  0  0  0  0  0
   -1.2558    0.8036   -0.9142 H   0  0  0  0  0  0  0  0  0  0  0  0
   -0.1260   -1.3872    1.0366 H   0  0  0  0  0  0  0  0  0  0  0  0
    0.8646   -0.1676   -0.1514 H   0  0  0  0  0  0  0  0  0  0  0  0
    0.0521   -1.3942   -0.4617 H   0  0  0  0  0  0  0  0  0  0  0  0
  1  3  1  0  0  0  0
  1  5  1  0  0  0  0
  2  6  1  0  0  0  0
  2  1  1  0  0  0  0
  2  8  1  0  0  0  0
  4  1  1  0  0  0  0
  6  9  1  0  0  0  0
  6 10  1  0  0  0  0
  7  2  1  0  0  0  0
  9 12  1  0  0  0  0
 11  6  1  0  0  0  0
 13  9  1  0  0  0  0
 14  9  1  0  0  0  0
M  END
$$$$
