butane_opt
 OpenBabel08242015393D

 14 13  0  0  0  0  0  0  0  0999 V2000
   -3.8480    0.2046    0.0115 C   0  0  0  0  0  0  0  0  0  0  0  0
   -2.7180   -0.5550    0.1325 C   0  0  0  0  0  0  0  0  0  0  0  0
   -4.7335   -0.4560   -0.6102 H   0  0  0  0  0  0  0  0  0  0  0  0
   -3.5583    0.4469   -0.8021 H   0  0  0  0  0  0  0  0  0  0  0  0
   -4.3465    1.0767    0.9155 H   0  0  0  0  0  0  0  0  0  0  0  0
   -1.4545    0.2521   -0.0006 C   0  0  0  0  0  0  0  0  0  0  0  0
   -2.7296   -0.9475   -0.5300 H   0  0  0  0  0  0  0  0  0  0  0  0
   -2.8635   -1.3626    1.1272 H   0  0  0  0  0  0  0  0  0  0  0  0
   -0.1663   -0.7230   -0.0075 C   0  0  0  0  0  0  0  0  0  0  0  0
   -1.6767    0.9965    0.7632 H   0  0  0  0  0  0  0  0  0  0  0  0
   -1.6581    0.7615   -0.8448 H   0  0  0  0  0  0  0  0  0  0  0  0
   -0.0620   -1.2873    0.8225 H   0  0  0  0  0  0  0  0  0  0  0  0
    0.6662   -0.1515   -0.0482 H   0  0  0  0  0  0  0  0  0  0  0  0
    0.1713   -1.7127   -0.9859 H   0  0  0  0  0  0  0  0  0  0  0  0
  1  2  1  0  0  0  0
  1  5  1  0  0  0  0
  2  8  1  0  0  0  0
  3  1  1  0  0  0  0
  4  1  1  0  0  0  0
  6  2  1  0  0  0  0
  6 10  1  0  0  0  0
  7  2  1  0  0  0  0
  9  6  1  0  0  0  0
  9 12  1  0  0  0  0
 11  6  1  0  0  0  0
 13  9  1  0  0  0  0
 14  9  1  0  0  0  0
M  END
$$$$
