14
butane_opt
C  -4.028567   0.303130   0.192024
C  -2.672725  -0.695419  -0.154941
H  -4.797203  -0.167052   0.312088
H  -4.313957   0.728388  -0.550118
H  -3.814939   1.082687   1.325810
C  -1.387597   0.138258  -0.265397
H  -2.796713  -1.233678  -0.885842
H  -2.560739  -1.201242   0.818173
C  -0.144984  -0.631770   0.268964
H  -1.533110   0.672364   0.494793
H  -1.041856   0.867490  -1.255955
H  -0.357738  -0.860407   0.877009
H   0.608424  -0.187315   0.495576
H   0.367875  -1.548337  -0.730634
