14
butane_opt
C  -3.882703   0.293617  -0.083722
C  -2.647903  -0.657777   0.158333
H  -4.847213  -0.239999   0.156650
H  -4.104963   1.382744  -1.187091
H  -4.064860   0.545411   0.536036
C  -1.400004   0.153543   0.105844
H  -2.872501  -1.304531  -0.727078
H  -2.762827  -1.282837   0.982287
C  -0.239734  -0.659415  -0.083018
H  -1.350960   1.215440   1.337320
H  -1.215014   0.495102  -0.698973
H  -0.157453  -1.313516   0.834054
H   0.697197   0.012654  -0.043915
H  -0.312492  -1.533236  -1.005217
