14
butane_opt
C  -3.852600   0.333889  -0.091827
C  -2.712900  -0.682257   0.074384
H  -4.576661  -0.115823   0.027534
H  -4.166431   0.914747  -1.118645
H  -4.081776   0.798337   0.614722
C  -1.419830   0.114429   0.205345
H  -2.315333  -1.259787  -0.680504
H  -2.833956  -1.551566   1.104387
C  -0.223555  -0.638866  -0.108285
H  -1.226133   1.111690   1.308808
H  -1.488811   0.637772  -0.432245
H   0.086510  -1.705102   1.082066
H   0.807172   0.069572  -0.554193
H  -0.742277  -0.856001  -0.806091
