14
butane_opt
C  -3.872237   0.309880  -0.193233
C  -2.677745  -0.676081   0.185827
H  -4.678575  -0.230504   0.075353
H  -3.999474   1.160282  -1.241870
H  -4.354107   0.843242   0.532456
C  -1.417577   0.118755   0.308652
H  -2.728727  -1.125332  -0.546784
H  -2.720234  -1.201455   1.041856
C  -0.224670  -0.666726  -0.124825
H  -1.179281   0.892212   1.206646
H  -1.287740   0.543044  -0.648671
H   0.266705  -1.350121   0.764941
H   0.857291   0.132164  -0.737512
H  -0.894858  -1.141863  -1.118898
