butane_opt
 OpenBabel08242015393D

 14 13  0  0  0  0  0  0  0  0999 V2000
   -3.9753    0.2423    0.1555 C   0  0  0  0  0  0  0  0  0  0  0  0
   -2.7062   -0.5620   -0.2167 C   0  0  0  0  0  0  0  0  0  0  0  0
   -4.9872   -0.4661    0.9705 H   0  0  0  0  0  0  0  0  0  0  0  0
   -4.4263    0.9224   -0.7795 H   0  0  0  0  0  0  0  0  0  0  0  0
   -3.3931    0.5313    1.0215 H   0  0  0  0  0  0  0  0  0  0  0  0
   -1.4212    0.2093   -0.0997 C   0  0  0  0  0  0  0  0  0  0  0  0
   -3.0060   -1.5333   -1.2551 H   0  0  0  0  0  0  0  0  0  0  0  0
   -2.6487   -0.9034    0.4593 H   0  0  0  0  0  0  0  0  0  0  0  0
   -0.0504   -0.7379    0.2086 C   0  0  0  0  0  0  0  0  0  0  0  0
   -1.5745    0.9142    0.6308 H   0  0  0  0  0  0  0  0  0  0  0  0
   -1.4335    1.1554   -1.1664 H   0  0  0  0  0  0  0  0  0  0  0  0
   -0.2034   -1.4915    1.3228 H   0  0  0  0  0  0  0  0  0  0  0  0
    0.7097   -0.2749    0.1549 H   0  0  0  0  0  0  0  0  0  0  0  0
   -0.1818   -1.1772   -0.4756 H   0  0  0  0  0  0  0  0  0  0  0  0
  1  3  1  0  0  0  0
  1  5  1  0  0  0  0
  2  6  1  0  0  0  0
  2  1  1  0  0  0  0
  2  8  1  0  0  0  0
  4  1  1  0  0  0  0
  6  9  1  0  0  0  0
  6 10  1  0  0  0  0
  7  2  1  0  0  0  0
  9 12  1  0  0  0  0
 11  6  1  0  0  0  0
 13  9  1  0  0  0  0
 14  9  1  0  0  0  0
M  END
$$$$
