14
butane_opt
C  -3.950846   0.201372  -0.009308
C  -2.784897  -0.528887   0.138066
H  -5.012343  -0.538908   0.144705
H  -3.773416   1.148136  -1.071480
H  -3.994580   0.750103   0.832193
C  -1.385684   0.233792  -0.014211
H  -2.793031  -1.204308  -0.538440
H  -3.076868  -1.067486   1.014564
C  -0.085777  -0.764820  -0.016146
H  -1.464894   0.744933   0.735873
H  -1.593570   0.979253  -0.939114
H  -0.379903  -0.717992   0.468131
H   0.910690  -0.268778   0.753684
H   0.639444  -2.007620  -1.223167
