14
butane_opt
C  -3.886257   0.275826  -0.051154
C  -2.693111  -0.654899   0.223439
H  -4.820890  -0.145921  -0.420788
H  -3.615397   0.763114  -0.983341
H  -4.627953   1.073394   0.772829
C  -1.456704   0.159743   0.017412
H  -2.624202  -1.397022  -0.490257
H  -2.608272  -1.171617   0.987945
C  -0.183697  -0.647313  -0.043360
H  -1.292292   0.763328   0.880292
H  -1.448087   0.751352  -0.808235
H   0.001088  -1.040556   0.752244
H   0.859000   0.042878   0.138069
H  -0.239001  -1.705169  -1.143518
