butane_opt
 OpenBabel08242015393D

 14 11  0  0  0  0  0  0  0  0999 V2000
   -3.8985    0.2027    0.1552 C   0  0  0  0  0  0  0  0  0  0  0  0
   -2.6634   -0.5482   -0.1214 C   0  0  0  0  0  0  0  0  0  0  0  0
   -4.8193   -0.4034    0.5409 H   0  0  0  0  0  0  0  0  0  0  0  0
   -4.0250    1.0751   -0.9930 H   0  0  0  0  0  0  0  0  0  0  0  0
   -3.7378    0.6462    0.9830 H   0  0  0  0  0  0  0  0  0  0  0  0
   -1.4028    0.2036   -0.0495 C   0  0  0  0  0  0  0  0  0  0  0  0
   -2.6253   -1.6497   -1.3417 H   0  0  0  0  0  0  0  0  0  0  0  0
   -2.7593   -0.8771    0.4963 H   0  0  0  0  0  0  0  0  0  0  0  0
   -0.2296   -0.7241    0.1185 C   0  0  0  0  0  0  0  0  0  0  0  0
   -1.5087    0.9113    0.7449 H   0  0  0  0  0  0  0  0  0  0  0  0
   -1.4194    1.1151   -1.0103 H   0  0  0  0  0  0  0  0  0  0  0  0
   -0.1603   -1.5424    1.3036 H   0  0  0  0  0  0  0  0  0  0  0  0
    0.4197   -0.3657   -0.1013 H   0  0  0  0  0  0  0  0  0  0  0  0
   -0.0032   -1.0140   -0.3796 H   0  0  0  0  0  0  0  0  0  0  0  0
  1  3  1  0  0  0  0
  1  5  1  0  0  0  0
  2  6  1  0  0  0  0
  2  1  1  0  0  0  0
  2  8  1  0  0  0  0
  4  1  1  0  0  0  0
  6  9  1  0  0  0  0
  6 10  1  0  0  0  0
  9 12  1  0  0  0  0
 11  6  1  0  0  0  0
 13  9  1  0  0  0  0
M  RAD  4   2   2   7   2   9   2  14   2
M  END
$$$$
