butane_opt
 OpenBabel08242015393D

 14 12  0  0  0  0  0  0  0  0999 V2000
   -3.9672    0.3162    0.1548 C   0  0  0  0  0  0  0  0  0  0  0  0
   -2.7509   -0.7686   -0.1071 C   0  0  0  0  0  0  0  0  0  0  0  0
   -4.7114    0.0508   -0.0183 H   0  0  0  0  0  0  0  0  0  0  0  0
   -4.1276    0.7626   -0.5895 H   0  0  0  0  0  0  0  0  0  0  0  0
   -3.9421    1.3584    1.4288 H   0  0  0  0  0  0  0  0  0  0  0  0
   -1.3716    0.1752   -0.1752 C   0  0  0  0  0  0  0  0  0  0  0  0
   -2.5662   -1.2031   -0.8487 H   0  0  0  0  0  0  0  0  0  0  0  0
   -2.7578   -1.3559    0.8852 H   0  0  0  0  0  0  0  0  0  0  0  0
   -0.1401   -0.6537    0.1489 C   0  0  0  0  0  0  0  0  0  0  0  0
   -1.4496    0.7945    0.5666 H   0  0  0  0  0  0  0  0  0  0  0  0
   -1.2168    0.8385   -1.2127 H   0  0  0  0  0  0  0  0  0  0  0  0
   -0.3300   -1.2764    1.1383 H   0  0  0  0  0  0  0  0  0  0  0  0
    0.8614    0.0382    0.5147 H   0  0  0  0  0  0  0  0  0  0  0  0
   -0.0639   -1.2922   -0.6208 H   0  0  0  0  0  0  0  0  0  0  0  0
  2  1  1  0  0  0  0
  2  8  1  0  0  0  0
  3  1  1  0  0  0  0
  4  1  1  0  0  0  0
  6  2  1  0  0  0  0
  6  9  1  0  0  0  0
  6 10  1  0  0  0  0
  7  2  1  0  0  0  0
  9 13  1  0  0  0  0
  9 12  1  0  0  0  0
 11  6  1  0  0  0  0
 14  9  1  0  0  0  0
M  RAD  2   1   2   5   2
M  END
$$$$
