butane_opt
 OpenBabel08242015393D

 14 11  0  0  0  0  0  0  0  0999 V2000
   -3.9578    0.2974   -0.1107 C   0  0  0  0  0  0  0  0  0  0  0  0
   -2.7324   -0.6928    0.2325 C   0  0  0  0  0  0  0  0  0  0  0  0
   -4.6829   -0.1751   -0.0833 H   0  0  0  0  0  0  0  0  0  0  0  0
   -4.0205    1.0963   -0.9830 H   0  0  0  0  0  0  0  0  0  0  0  0
   -4.0687    0.8752    0.7382 H   0  0  0  0  0  0  0  0  0  0  0  0
   -1.3682    0.1426    0.0501 C   0  0  0  0  0  0  0  0  0  0  0  0
   -2.6280   -1.1785   -0.5462 H   0  0  0  0  0  0  0  0  0  0  0  0
   -2.8685   -1.4780    1.1852 H   0  0  0  0  0  0  0  0  0  0  0  0
   -0.1192   -0.6696   -0.1075 C   0  0  0  0  0  0  0  0  0  0  0  0
   -1.4472    1.2229    1.0699 H   0  0  0  0  0  0  0  0  0  0  0  0
   -1.4969    0.7921   -0.6976 H   0  0  0  0  0  0  0  0  0  0  0  0
   -0.4736   -0.8924    0.6305 H   0  0  0  0  0  0  0  0  0  0  0  0
    0.7315   -0.0224    0.4844 H   0  0  0  0  0  0  0  0  0  0  0  0
    0.0483   -1.6727   -1.1962 H   0  0  0  0  0  0  0  0  0  0  0  0
  1  3  1  0  0  0  0
  1  2  1  0  0  0  0
  1  5  1  0  0  0  0
  2  8  1  0  0  0  0
  4  1  1  0  0  0  0
  6 10  1  0  0  0  0
  7  2  1  0  0  0  0
  9 13  1  0  0  0  0
  9 12  1  0  0  0  0
 11  6  1  0  0  0  0
 14  9  1  0  0  0  0
M  RAD  3   2   2   6   3   9   2
M  END
$$$$
