butane_opt
 OpenBabel08242015393D

 14 13  0  0  0  0  0  0  0  0999 V2000
   -3.9521    0.2667    0.0334 C   0  0  0  0  0  0  0  0  0  0  0  0
   -2.6871   -0.6255    0.0250 C   0  0  0  0  0  0  0  0  0  0  0  0
   -4.8184   -0.2950    0.0060 H   0  0  0  0  0  0  0  0  0  0  0  0
   -3.9698    0.8174   -0.7951 H   0  0  0  0  0  0  0  0  0  0  0  0
   -3.9872    1.0734    0.9723 H   0  0  0  0  0  0  0  0  0  0  0  0
   -1.3992    0.1746   -0.0111 C   0  0  0  0  0  0  0  0  0  0  0  0
   -2.7133   -1.3216   -0.8424 H   0  0  0  0  0  0  0  0  0  0  0  0
   -2.6994   -1.2451    0.9150 H   0  0  0  0  0  0  0  0  0  0  0  0
   -0.1671   -0.6792    0.0475 C   0  0  0  0  0  0  0  0  0  0  0  0
   -1.4306    0.7562    0.7663 H   0  0  0  0  0  0  0  0  0  0  0  0
   -1.3897    0.8520   -0.9594 H   0  0  0  0  0  0  0  0  0  0  0  0
   -0.1929   -1.3064    0.9732 H   0  0  0  0  0  0  0  0  0  0  0  0
    0.7715   -0.0726    0.0734 H   0  0  0  0  0  0  0  0  0  0  0  0
   -0.1343   -1.3601   -0.7918 H   0  0  0  0  0  0  0  0  0  0  0  0
  1  5  1  0  0  0  0
  2  1  1  0  0  0  0
  2  8  1  0  0  0  0
  3  1  1  0  0  0  0
  4  1  1  0  0  0  0
  6  2  1  0  0  0  0
  6  9  1  0  0  0  0
  6 10  1  0  0  0  0
  7  2  1  0  0  0  0
  9 13  1  0  0  0  0
  9 12  1  0  0  0  0
 11  6  1  0  0  0  0
 14  9  1  0  0  0  0
M  END
$$$$
