butane_opt
 OpenBabel08242015393D

 14 12  0  0  0  0  0  0  0  0999 V2000
   -4.0116    0.3382   -0.1455 C   0  0  0  0  0  0  0  0  0  0  0  0
   -2.7014   -0.6518    0.2772 C   0  0  0  0  0  0  0  0  0  0  0  0
   -4.8989   -0.1431   -0.9080 H   0  0  0  0  0  0  0  0  0  0  0  0
   -3.5083    0.6200   -0.9308 H   0  0  0  0  0  0  0  0  0  0  0  0
   -4.4309    1.3319    0.9320 H   0  0  0  0  0  0  0  0  0  0  0  0
   -1.3587    0.0589    0.1714 C   0  0  0  0  0  0  0  0  0  0  0  0
   -2.5685   -1.2290   -0.4350 H   0  0  0  0  0  0  0  0  0  0  0  0
   -2.8311   -1.5468    1.3523 H   0  0  0  0  0  0  0  0  0  0  0  0
   -0.1585   -0.6288   -0.1282 C   0  0  0  0  0  0  0  0  0  0  0  0
   -1.2074    0.5568    1.0880 H   0  0  0  0  0  0  0  0  0  0  0  0
   -1.1586    0.8815   -0.8625 H   0  0  0  0  0  0  0  0  0  0  0  0
    0.0614   -0.9244    0.5769 H   0  0  0  0  0  0  0  0  0  0  0  0
    0.6524    0.0055   -0.3597 H   0  0  0  0  0  0  0  0  0  0  0  0
   -0.4106   -1.4111   -1.1337 H   0  0  0  0  0  0  0  0  0  0  0  0
  1  2  1  0  0  0  0
  2  8  1  0  0  0  0
  3  1  1  0  0  0  0
  4  1  1  0  0  0  0
  6  2  1  0  0  0  0
  6 10  1  0  0  0  0
  7  2  1  0  0  0  0
  9  6  1  0  0  0  0
  9 12  1  0  0  0  0
 11  6  1  0  0  0  0
 13  9  1  0  0  0  0
 14  9  1  0  0  0  0
M  RAD  2   1   2   5   2
M  END
$$$$
