butane_opt
 OpenBabel08242015393D

 14  9  0  0  0  0  0  0  0  0999 V2000
   -3.8883    0.2190    0.1633 C   0  0  0  0  0  0  0  0  0  0  0  0
   -2.6978   -0.5594   -0.1413 C   0  0  0  0  0  0  0  0  0  0  0  0
   -4.8604   -0.5347   -0.0905 H   0  0  0  0  0  0  0  0  0  0  0  0
   -3.8444    0.4510   -0.4152 H   0  0  0  0  0  0  0  0  0  0  0  0
   -3.8509    1.0738    1.0525 H   0  0  0  0  0  0  0  0  0  0  0  0
   -1.4883    0.2934   -0.0542 C   0  0  0  0  0  0  0  0  0  0  0  0
   -2.7924   -1.6885   -1.2598 H   0  0  0  0  0  0  0  0  0  0  0  0
   -2.6086   -0.9532    0.6198 H   0  0  0  0  0  0  0  0  0  0  0  0
   -0.1616   -0.7602    0.1525 C   0  0  0  0  0  0  0  0  0  0  0  0
   -1.3266    0.7498    0.6938 H   0  0  0  0  0  0  0  0  0  0  0  0
   -1.3695    1.1172   -1.1884 H   0  0  0  0  0  0  0  0  0  0  0  0
   -0.0738   -1.9535    1.5755 H   0  0  0  0  0  0  0  0  0  0  0  0
    0.5626   -0.2691   -0.6498 H   0  0  0  0  0  0  0  0  0  0  0  0
   -0.0024   -0.8011   -0.2618 H   0  0  0  0  0  0  0  0  0  0  0  0
  1  5  1  0  0  0  0
  2  6  1  0  0  0  0
  2  1  1  0  0  0  0
  2  8  1  0  0  0  0
  3  1  1  0  0  0  0
  6  9  1  0  0  0  0
  6 10  1  0  0  0  0
 11  6  1  0  0  0  0
 13  9  1  0  0  0  0
M  RAD  7   1   2   2   2   4   2   7   2   9   3  12   2  14   2
M  END
$$$$
