butane_opt
 OpenBabel08242015393D

 14 10  0  0  0  0  0  0  0  0999 V2000
   -3.9407    0.3422   -0.0098 C   0  0  0  0  0  0  0  0  0  0  0  0
   -2.6619   -0.6934    0.1558 C   0  0  0  0  0  0  0  0  0  0  0  0
   -4.7391   -0.2886   -0.1047 H   0  0  0  0  0  0  0  0  0  0  0  0
   -3.9307    0.9936   -0.9613 H   0  0  0  0  0  0  0  0  0  0  0  0
   -4.3582    0.7866    0.6740 H   0  0  0  0  0  0  0  0  0  0  0  0
   -1.3213    0.1139    0.0046 C   0  0  0  0  0  0  0  0  0  0  0  0
   -2.8191   -1.1573   -0.6201 H   0  0  0  0  0  0  0  0  0  0  0  0
   -2.4113   -1.4125    1.0189 H   0  0  0  0  0  0  0  0  0  0  0  0
   -0.2701   -0.6319   -0.0389 C   0  0  0  0  0  0  0  0  0  0  0  0
   -1.3152    0.7674    0.8164 H   0  0  0  0  0  0  0  0  0  0  0  0
   -1.2869    0.9369   -0.9656 H   0  0  0  0  0  0  0  0  0  0  0  0
   -0.4729   -0.7319    0.5369 H   0  0  0  0  0  0  0  0  0  0  0  0
    0.5862   -0.0165    0.7761 H   0  0  0  0  0  0  0  0  0  0  0  0
    0.0479   -1.9431   -1.1561 H   0  0  0  0  0  0  0  0  0  0  0  0
  1  2  1  0  0  0  0
  1  5  1  0  0  0  0
  2  8  1  0  0  0  0
  3  1  1  0  0  0  0
  4  1  1  0  0  0  0
  6 10  1  0  0  0  0
  7  2  1  0  0  0  0
  9  6  1  0  0  0  0
  9 13  1  0  0  0  0
 11  6  1  0  0  0  0
M  RAD  5   2   2   6   2   9   3  12   2  14   2
M  END
$$$$
