butane_opt
 OpenBabel08242015393D

 14 12  0  0  0  0  0  0  0  0999 V2000
   -3.9439    0.2100    0.1957 C   0  0  0  0  0  0  0  0  0  0  0  0
   -2.8143   -0.5595   -0.0677 C   0  0  0  0  0  0  0  0  0  0  0  0
   -4.8543   -0.4149    0.1294 H   0  0  0  0  0  0  0  0  0  0  0  0
   -4.0713    1.0533   -0.7873 H   0  0  0  0  0  0  0  0  0  0  0  0
   -4.0242    0.9521    1.1373 H   0  0  0  0  0  0  0  0  0  0  0  0
   -1.3933    0.2300   -0.2047 C   0  0  0  0  0  0  0  0  0  0  0  0
   -2.8951   -1.3873   -0.9733 H   0  0  0  0  0  0  0  0  0  0  0  0
   -2.7238   -0.9552    0.6586 H   0  0  0  0  0  0  0  0  0  0  0  0
   -0.0406   -0.7252    0.1822 C   0  0  0  0  0  0  0  0  0  0  0  0
   -1.4389    0.4214    0.4411 H   0  0  0  0  0  0  0  0  0  0  0  0
   -1.3886    1.0498   -1.2040 H   0  0  0  0  0  0  0  0  0  0  0  0
   -0.6161   -0.9572    0.9188 H   0  0  0  0  0  0  0  0  0  0  0  0
    0.8592   -0.3504    0.7357 H   0  0  0  0  0  0  0  0  0  0  0  0
    0.4760   -1.7579   -0.9355 H   0  0  0  0  0  0  0  0  0  0  0  0
  1  5  1  0  0  0  0
  2  1  1  0  0  0  0
  2  8  1  0  0  0  0
  3  1  1  0  0  0  0
  4  1  1  0  0  0  0
  6  2  1  0  0  0  0
  6  9  1  0  0  0  0
  6 10  1  0  0  0  0
  7  2  1  0  0  0  0
  9 13  1  0  0  0  0
  9 12  1  0  0  0  0
 11  6  1  0  0  0  0
M  RAD  2   9   2  14   2
M  END
$$$$
