14
butane_opt
C  -3.919585   0.287188   0.117072
C  -2.645523  -0.676128   0.040126
H  -4.651162  -0.087345  -0.626191
H  -3.528470   0.407321  -0.501210
H  -4.370389   1.605650   1.409331
C  -1.383807   0.135341  -0.157184
H  -2.766833  -1.459031  -0.888822
H  -2.682751  -1.100379   0.736088
C  -0.230820  -0.646665   0.140757
H  -1.529210   0.586930   0.427806
H  -1.482470   0.901422  -1.150796
H  -0.312646  -1.264463   1.015668
H   0.749850   0.006998  -0.084118
H  -0.317069  -1.233332  -0.501740
