butane_opt
 OpenBabel08242015393D

 14 13  0  0  0  0  0  0  0  0999 V2000
   -3.9887    0.2060   -0.1010 C   0  0  0  0  0  0  0  0  0  0  0  0
   -2.7094   -0.5901    0.1428 C   0  0  0  0  0  0  0  0  0  0  0  0
   -4.9845   -0.3682   -0.3011 H   0  0  0  0  0  0  0  0  0  0  0  0
   -3.7651    0.8194   -1.0902 H   0  0  0  0  0  0  0  0  0  0  0  0
   -4.1425    0.6924    0.5285 H   0  0  0  0  0  0  0  0  0  0  0  0
   -1.4203    0.2789    0.2536 C   0  0  0  0  0  0  0  0  0  0  0  0
   -2.6609   -0.9966   -0.6362 H   0  0  0  0  0  0  0  0  0  0  0  0
   -2.9053   -1.1671    0.9380 H   0  0  0  0  0  0  0  0  0  0  0  0
   -0.0544   -0.7648   -0.0785 C   0  0  0  0  0  0  0  0  0  0  0  0
   -1.3358    0.9392    1.1322 H   0  0  0  0  0  0  0  0  0  0  0  0
   -1.6221    0.9858   -0.7324 H   0  0  0  0  0  0  0  0  0  0  0  0
    0.3290   -1.3925    0.8496 H   0  0  0  0  0  0  0  0  0  0  0  0
    0.7414   -0.3204   -0.8446 H   0  0  0  0  0  0  0  0  0  0  0  0
   -0.5629   -1.2753   -1.0060 H   0  0  0  0  0  0  0  0  0  0  0  0
  1  2  1  0  0  0  0
  1  5  1  0  0  0  0
  2  6  1  0  0  0  0
  2  8  1  0  0  0  0
  3  1  1  0  0  0  0
  4  1  1  0  0  0  0
  6 10  1  0  0  0  0
  7  2  1  0  0  0  0
  9  6  1  0  0  0  0
  9 12  1  0  0  0  0
 11  6  1  0  0  0  0
 13  9  1  0  0  0  0
 14  9  1  0  0  0  0
M  END
$$$$
