14
butane_opt
C  -3.936014   0.357069  -0.116145
C  -2.681953  -0.719667   0.225292
H  -4.945240  -0.349910  -0.483482
H  -3.671332   0.895593  -0.966667
H  -4.244148   1.173795   0.852987
C  -1.367024   0.136963   0.136518
H  -2.468864  -1.317579  -0.663555
H  -2.804856  -1.419260   1.105421
C  -0.202120  -0.613491  -0.069354
H  -1.297468   0.721713   0.857352
H  -1.381784   0.698936  -0.674470
H   0.150012  -1.293931   0.641401
H   0.689336  -0.055919  -0.265130
H  -0.806241  -1.447923  -1.039186
