14
butane_opt
C  -4.026800   0.271773   0.085683
C  -2.665302  -0.683490   0.027505
H  -4.703138   0.045360  -0.700801
H  -3.802214   0.136027  -0.228562
H  -4.354686   1.833920   1.562759
C  -1.396625   0.212462  -0.152045
H  -2.789883  -1.608471  -0.970165
H  -2.638753  -1.382604   0.948777
C  -0.121475  -0.680907   0.116479
H  -1.210883   0.660239   0.565326
H  -1.432285   0.898866  -1.273922
H  -0.371329  -1.554164   1.188253
H   0.862648   0.021131  -0.051738
H  -0.079169  -0.910830  -0.392945
