14
butane_opt
C  -4.054570   0.338634   0.027439
C  -2.684500  -0.677102   0.065679
H  -4.896663  -0.331475  -0.310641
H  -3.799890   0.303715  -0.408608
H  -4.214899   1.481183   1.307164
C  -1.404570   0.113543  -0.121941
H  -2.522338  -1.382512  -0.728425
H  -2.649582  -1.305173   0.991567
C  -0.124876  -0.652407   0.052085
H  -1.187624   0.930793   0.925702
H  -1.172480   0.759277  -1.147413
H  -0.325825  -1.387652   1.027365
H   0.817452   0.052550   0.126080
H   0.113000  -1.052096  -0.531386
