14
butane_opt
C  -3.884922   0.328478  -0.123386
C  -2.648368  -0.695383   0.243962
H  -4.656310  -0.073299  -0.137138
H  -3.928721   1.349573  -1.199430
H  -4.035406   0.744389   0.494107
C  -1.400264   0.055740   0.149173
H  -2.738166  -1.267261  -0.520378
H  -2.903880  -1.435855   1.093238
C  -0.272338  -0.621640  -0.113790
H  -1.453431   0.921418   1.135219
H  -1.228872   0.835227  -0.781757
H  -0.058939  -0.677239   0.433238
H   0.725019   0.120304   0.160869
H  -0.349767  -1.768600  -1.225946
