butane_opt
 OpenBabel08242015393D

 14 13  0  0  0  0  0  0  0  0999 V2000
   -3.9798    0.3356   -0.1410 C   0  0  0  0  0  0  0  0  0  0  0  0
   -2.7038   -0.7340    0.2967 C   0  0  0  0  0  0  0  0  0  0  0  0
   -4.7487    0.0427   -0.7737 H   0  0  0  0  0  0  0  0  0  0  0  0
   -3.6895    0.6718   -0.8991 H   0  0  0  0  0  0  0  0  0  0  0  0
   -4.6234    1.1728    0.7797 H   0  0  0  0  0  0  0  0  0  0  0  0
   -1.3075    0.1776    0.1765 C   0  0  0  0  0  0  0  0  0  0  0  0
   -2.4032   -1.3058   -0.4335 H   0  0  0  0  0  0  0  0  0  0  0  0
   -3.0489   -1.4273    1.2373 H   0  0  0  0  0  0  0  0  0  0  0  0
   -0.1954   -0.6672   -0.1509 C   0  0  0  0  0  0  0  0  0  0  0  0
   -1.1927    0.7529    0.9490 H   0  0  0  0  0  0  0  0  0  0  0  0
   -1.6527    0.7069   -0.7963 H   0  0  0  0  0  0  0  0  0  0  0  0
   -0.2742   -1.0819    0.5971 H   0  0  0  0  0  0  0  0  0  0  0  0
    0.9180    0.1044   -0.2698 H   0  0  0  0  0  0  0  0  0  0  0  0
   -0.1223   -1.4075   -1.1048 H   0  0  0  0  0  0  0  0  0  0  0  0
  1  2  1  0  0  0  0
  1  5  1  0  0  0  0
  2  8  1  0  0  0  0
  3  1  1  0  0  0  0
  4  1  1  0  0  0  0
  6  2  1  0  0  0  0
  6 10  1  0  0  0  0
  7  2  1  0  0  0  0
  9  6  1  0  0  0  0
  9 12  1  0  0  0  0
 11  6  1  0  0  0  0
 13  9  1  0  0  0  0
 14  9  1  0  0  0  0
M  END
$$$$
