butane_opt
 OpenBabel08242015393D

 14 13  0  0  0  0  0  0  0  0999 V2000
   -3.9832    0.2909    0.1079 C   0  0  0  0  0  0  0  0  0  0  0  0
   -2.7549   -0.6670    0.0182 C   0  0  0  0  0  0  0  0  0  0  0  0
   -4.7275   -0.2190    0.2222 H   0  0  0  0  0  0  0  0  0  0  0  0
   -4.0359    0.7796   -0.7396 H   0  0  0  0  0  0  0  0  0  0  0  0
   -3.8413    1.0735    1.1139 H   0  0  0  0  0  0  0  0  0  0  0  0
   -1.3418    0.1586   -0.2162 C   0  0  0  0  0  0  0  0  0  0  0  0
   -2.8450   -1.2840   -0.7858 H   0  0  0  0  0  0  0  0  0  0  0  0
   -2.7506   -1.0414    0.7159 H   0  0  0  0  0  0  0  0  0  0  0  0
   -0.1271   -0.6899    0.0985 C   0  0  0  0  0  0  0  0  0  0  0  0
   -1.5648    0.8787    0.7049 H   0  0  0  0  0  0  0  0  0  0  0  0
   -1.4052    0.9577   -1.0209 H   0  0  0  0  0  0  0  0  0  0  0  0
   -0.5334   -1.0992    0.8978 H   0  0  0  0  0  0  0  0  0  0  0  0
    0.8206    0.0233    0.9461 H   0  0  0  0  0  0  0  0  0  0  0  0
    0.2987   -1.6495   -0.7177 H   0  0  0  0  0  0  0  0  0  0  0  0
  1  3  1  0  0  0  0
  1  5  1  0  0  0  0
  2  1  1  0  0  0  0
  2  8  1  0  0  0  0
  4  1  1  0  0  0  0
  6  2  1  0  0  0  0
  6  9  1  0  0  0  0
  6 10  1  0  0  0  0
  7  2  1  0  0  0  0
  9 12  1  0  0  0  0
  9 13  1  0  0  0  0
 11  6  1  0  0  0  0
 14  9  1  0  0  0  0
M  END
$$$$
