butane_opt
 OpenBabel08242015393D

 14 13  0  0  0  0  0  0  0  0999 V2000
   -3.9976    0.3459   -0.1230 C   0  0  0  0  0  0  0  0  0  0  0  0
   -2.7171   -0.7136    0.1117 C   0  0  0  0  0  0  0  0  0  0  0  0
   -4.7483   -0.1612   -0.1742 H   0  0  0  0  0  0  0  0  0  0  0  0
   -4.2001    1.0568   -1.1551 H   0  0  0  0  0  0  0  0  0  0  0  0
   -4.2495    0.8861    0.6803 H   0  0  0  0  0  0  0  0  0  0  0  0
   -1.3012    0.1852    0.2452 C   0  0  0  0  0  0  0  0  0  0  0  0
   -2.5840   -1.5180   -0.7655 H   0  0  0  0  0  0  0  0  0  0  0  0
   -2.6387   -1.5213    1.1713 H   0  0  0  0  0  0  0  0  0  0  0  0
   -0.1920   -0.6695   -0.0852 C   0  0  0  0  0  0  0  0  0  0  0  0
   -1.1867    0.9484    1.1820 H   0  0  0  0  0  0  0  0  0  0  0  0
   -1.2732    0.5763   -0.5674 H   0  0  0  0  0  0  0  0  0  0  0  0
    0.4043   -1.4773    0.9641 H   0  0  0  0  0  0  0  0  0  0  0  0
    0.7630    0.0223   -0.9667 H   0  0  0  0  0  0  0  0  0  0  0  0
   -0.8132   -0.9902   -0.7221 H   0  0  0  0  0  0  0  0  0  0  0  0
  1  2  1  0  0  0  0
  1  5  1  0  0  0  0
  2  6  1  0  0  0  0
  2  8  1  0  0  0  0
  3  1  1  0  0  0  0
  4  1  1  0  0  0  0
  6 10  1  0  0  0  0
  7  2  1  0  0  0  0
  9  6  1  0  0  0  0
  9 12  1  0  0  0  0
 11  6  1  0  0  0  0
 13  9  1  0  0  0  0
 14  9  1  0  0  0  0
M  END
$$$$
