14
butane_opt
C  -3.948455   0.265565   0.037462
C  -2.682467  -0.615035   0.022049
H  -4.861132  -0.311385   0.018079
H  -4.011611   0.826074  -0.794391
H  -3.940275   1.010801   0.956278
C  -1.406949   0.171054  -0.024816
H  -2.726899  -1.290541  -0.804723
H  -2.710512  -1.244613   0.924382
C  -0.160445  -0.684775   0.052297
H  -1.439348   0.796466   0.780384
H  -1.361945   0.828613  -0.932273
H  -0.269159  -1.264630   0.961327
H   0.773737  -0.082079   0.116848
H  -0.095829  -1.384388  -0.834310
