butane_opt
 OpenBabel08242015393D

 14 10  0  0  0  0  0  0  0  0999 V2000
   -3.9945    0.3281    0.0188 C   0  0  0  0  0  0  0  0  0  0  0  0
   -2.7081   -0.6787    0.0712 C   0  0  0  0  0  0  0  0  0  0  0  0
   -4.8935   -0.2185   -0.8783 H   0  0  0  0  0  0  0  0  0  0  0  0
   -3.9987    0.2648   -0.4862 H   0  0  0  0  0  0  0  0  0  0  0  0
   -4.2306    1.7358    1.4127 H   0  0  0  0  0  0  0  0  0  0  0  0
   -1.3397    0.1532   -0.0481 C   0  0  0  0  0  0  0  0  0  0  0  0
   -3.0032   -1.1544   -0.7576 H   0  0  0  0  0  0  0  0  0  0  0  0
   -2.7352   -1.7432    1.1660 H   0  0  0  0  0  0  0  0  0  0  0  0
   -0.1345   -0.6262    0.0523 C   0  0  0  0  0  0  0  0  0  0  0  0
   -1.3167    0.6334    0.7526 H   0  0  0  0  0  0  0  0  0  0  0  0
   -1.1871    0.7875   -1.0392 H   0  0  0  0  0  0  0  0  0  0  0  0
    0.0553   -1.5008    1.1775 H   0  0  0  0  0  0  0  0  0  0  0  0
    0.5882   -0.1197   -0.1411 H   0  0  0  0  0  0  0  0  0  0  0  0
   -0.2056   -1.2693   -0.8453 H   0  0  0  0  0  0  0  0  0  0  0  0
  1  2  1  0  0  0  0
  3  1  1  0  0  0  0
  6  9  1  0  0  0  0
  6  2  1  0  0  0  0
  6 10  1  0  0  0  0
  7  2  1  0  0  0  0
  9 12  1  0  0  0  0
 11  6  1  0  0  0  0
 13  9  1  0  0  0  0
 14  9  1  0  0  0  0
M  RAD  5   1   3   2   2   4   2   5   2   8   2
M  END
$$$$
