14
butane_opt
C  -3.920613   0.235063   0.142687
C  -2.640116  -0.610100  -0.088808
H  -4.958977  -0.424303  -0.418965
H  -3.817882   0.283441  -0.346931
H  -3.933531   1.611902   1.551078
C  -1.448482   0.234043  -0.097532
H  -2.506570  -1.376128  -0.911668
H  -2.668534  -1.082320   0.601463
C  -0.235502  -0.728871   0.149263
H  -1.526338   0.537961   0.364798
H  -1.230377   1.086871  -1.301335
H  -0.021799  -1.767286   1.296248
H   0.861282  -0.099196  -0.123141
H  -0.269159  -0.798789  -0.385087
