14
butane_opt
C  -4.046327   0.371445  -0.160436
C  -2.658177  -0.704210   0.142740
H  -4.886677  -0.242970   0.037027
H  -4.063277   0.986291  -1.092110
H  -3.924989   0.764018   0.605515
C  -1.372197   0.105030   0.228646
H  -2.569945  -1.174139  -0.395415
H  -2.803937  -1.590420   1.185378
C  -0.130515  -0.596818  -0.133094
H  -1.138462   0.842027   1.173672
H  -1.474052   0.528469  -0.483901
H   0.065881  -1.402384   0.745327
H   0.707311   0.028317  -0.177348
H  -0.511277  -1.267617  -1.090919
