butane_opt
 OpenBabel08242015393D

 14 11  0  0  0  0  0  0  0  0999 V2000
   -3.9976    0.2914   -0.1085 C   0  0  0  0  0  0  0  0  0  0  0  0
   -2.7351   -0.7159    0.0978 C   0  0  0  0  0  0  0  0  0  0  0  0
   -4.7256   -0.2003    0.7789 H   0  0  0  0  0  0  0  0  0  0  0  0
   -4.1506    1.6240   -1.4490 H   0  0  0  0  0  0  0  0  0  0  0  0
   -3.7747    0.5568    0.3889 H   0  0  0  0  0  0  0  0  0  0  0  0
   -1.3572    0.1963    0.2018 C   0  0  0  0  0  0  0  0  0  0  0  0
   -2.3535   -1.1750   -0.6579 H   0  0  0  0  0  0  0  0  0  0  0  0
   -2.8674   -1.3590    1.1176 H   0  0  0  0  0  0  0  0  0  0  0  0
   -0.1642   -0.6669   -0.1083 C   0  0  0  0  0  0  0  0  0  0  0  0
   -1.1685    0.9955    1.0935 H   0  0  0  0  0  0  0  0  0  0  0  0
   -1.3114    0.5205   -0.5049 H   0  0  0  0  0  0  0  0  0  0  0  0
   -0.1946   -0.9794    0.6205 H   0  0  0  0  0  0  0  0  0  0  0  0
    0.5911   -0.1613    0.0941 H   0  0  0  0  0  0  0  0  0  0  0  0
   -0.0223   -1.5432   -1.0997 H   0  0  0  0  0  0  0  0  0  0  0  0
  1  2  1  0  0  0  0
  1  3  1  0  0  0  0
  2  6  1  0  0  0  0
  2  8  1  0  0  0  0
  6 10  1  0  0  0  0
  7  2  1  0  0  0  0
  9 13  1  0  0  0  0
  9  6  1  0  0  0  0
  9 12  1  0  0  0  0
 11  6  1  0  0  0  0
 14  9  1  0  0  0  0
M  RAD  3   1   3   4   2   5   2
M  END
$$$$
