butane_opt
 OpenBabel08242015393D

 14 12  0  0  0  0  0  0  0  0999 V2000
   -3.9822    0.2874    0.1029 C   0  0  0  0  0  0  0  0  0  0  0  0
   -2.6948   -0.6871   -0.1783 C   0  0  0  0  0  0  0  0  0  0  0  0
   -4.6799   -0.0933    0.9341 H   0  0  0  0  0  0  0  0  0  0  0  0
   -4.6089    1.6205   -1.1739 H   0  0  0  0  0  0  0  0  0  0  0  0
   -3.7435    0.5524    0.7571 H   0  0  0  0  0  0  0  0  0  0  0  0
   -1.3769    0.1509   -0.0025 C   0  0  0  0  0  0  0  0  0  0  0  0
   -2.9121   -1.2992   -0.8958 H   0  0  0  0  0  0  0  0  0  0  0  0
   -2.7066   -1.3798    0.7219 H   0  0  0  0  0  0  0  0  0  0  0  0
   -0.1576   -0.6436    0.1359 C   0  0  0  0  0  0  0  0  0  0  0  0
   -1.2138    1.0039    0.9845 H   0  0  0  0  0  0  0  0  0  0  0  0
   -1.1200    0.6957   -0.9218 H   0  0  0  0  0  0  0  0  0  0  0  0
   -0.2794   -1.1808    1.0979 H   0  0  0  0  0  0  0  0  0  0  0  0
    0.8676   -0.1206   -0.0313 H   0  0  0  0  0  0  0  0  0  0  0  0
   -0.1064   -1.5086   -0.8222 H   0  0  0  0  0  0  0  0  0  0  0  0
  1  5  1  0  0  0  0
  1  3  1  0  0  0  0
  2  6  1  0  0  0  0
  2  1  1  0  0  0  0
  2  8  1  0  0  0  0
  6  9  1  0  0  0  0
  6 10  1  0  0  0  0
  7  2  1  0  0  0  0
  9 12  1  0  0  0  0
 11  6  1  0  0  0  0
 13  9  1  0  0  0  0
 14  9  1  0  0  0  0
M  RAD  2   1   2   4   2
M  END
$$$$
