14
butane_opt
C  -3.926504   0.347201  -0.141663
C  -2.690030  -0.653563   0.150366
H  -4.864531  -0.344947   0.070119
H  -3.948751   1.046586  -1.076198
H  -3.973753   0.710204   0.420732
C  -1.391232   0.101606   0.204959
H  -2.396213  -1.517574  -0.611250
H  -2.536206  -1.373212   1.115311
C  -0.238854  -0.638146  -0.153858
H  -1.063623   1.222884   1.441216
H  -1.574595   0.490871  -0.481726
H   0.000183  -1.624830   1.056124
H   0.834382   0.067363  -0.460345
H  -0.579250  -0.994126  -0.730759
