14
butane_opt
C  -3.952048   0.279284  -0.000776
C  -2.694709  -0.627127   0.063989
H  -4.843277  -0.296496   0.064155
H  -3.917218   0.925611  -0.908836
H  -3.991346   0.864853   0.823482
C  -1.405895   0.170671   0.014941
H  -2.736150  -1.248693  -0.739592
H  -2.653417  -1.321466   0.996986
C  -0.166384  -0.681306   0.011103
H  -1.362721   0.879988   0.873069
H  -1.386433   0.759683  -0.848127
H  -0.216325  -1.169316   0.840346
H   0.788409  -0.079984   0.178161
H  -0.089691  -1.478162  -0.932134
