14
butane_opt
C  -3.975260   0.242339   0.155466
C  -2.706205  -0.561964  -0.216659
H  -4.987214  -0.466148   0.970546
H  -4.426300   0.922392  -0.779537
H  -3.393074   0.531309   1.021465
C  -1.421246   0.209270  -0.099749
H  -3.006040  -1.533302  -1.255124
H  -2.648749  -0.903422   0.459322
C  -0.050433  -0.737871   0.208633
H  -1.574451   0.914201   0.630775
H  -1.433543   1.155387  -1.166443
H  -0.203377  -1.491467   1.322825
H   0.709684  -0.274929   0.154921
H  -0.181848  -1.177192  -0.475588
