14
butane_opt
C  -3.942444   0.197121  -0.068290
C  -2.690265  -0.493006   0.017046
H  -5.063452  -0.438218   0.915599
H  -4.240224   1.234696  -1.274672
H  -3.201835   0.187967   0.366976
C  -1.439094   0.239343   0.155865
H  -2.547667  -1.199895  -0.865769
H  -2.647140  -1.341747   1.141546
C  -0.179823  -0.761131  -0.046715
H  -1.453024   1.117447   1.179457
H  -1.475615   0.712458  -0.720158
H  -0.195888  -1.158890   0.770071
H   0.752673  -0.172756   0.100284
H   0.079351  -1.603142  -0.970014
