14
butane_opt
C  -3.982672   0.223231   0.177517
C  -2.791596  -0.551463  -0.042145
H  -4.968897  -0.563656  -0.613325
H  -3.602046   0.169900  -0.434947
H  -4.181621   1.678460   1.540899
C  -1.369232   0.215588  -0.225701
H  -3.059309  -1.187470  -0.962103
H  -2.439560  -1.085336   0.669424
C  -0.107351  -0.746125   0.198955
H  -1.454895   0.777856   0.460145
H  -1.315034   1.044163  -1.147024
H  -0.070154  -1.576888   1.280287
H   0.781920  -0.262998  -0.111948
H   0.314003  -1.199755  -0.474138
