butane_opt
 OpenBabel08242015393D

 14 10  0  0  0  0  0  0  0  0999 V2000
   -3.9561    0.1865    0.1047 C   0  0  0  0  0  0  0  0  0  0  0  0
   -2.7393   -0.5459    0.0169 C   0  0  0  0  0  0  0  0  0  0  0  0
   -4.8382   -0.3245   -0.5053 H   0  0  0  0  0  0  0  0  0  0  0  0
   -3.4833    0.2345   -0.5144 H   0  0  0  0  0  0  0  0  0  0  0  0
   -4.2892    1.3198    1.1571 H   0  0  0  0  0  0  0  0  0  0  0  0
   -1.4218    0.2898   -0.0813 C   0  0  0  0  0  0  0  0  0  0  0  0
   -2.8294   -1.4482   -1.0710 H   0  0  0  0  0  0  0  0  0  0  0  0
   -2.5523   -1.0282    0.8152 H   0  0  0  0  0  0  0  0  0  0  0  0
   -0.1117   -0.7834    0.1193 C   0  0  0  0  0  0  0  0  0  0  0  0
   -1.4048    0.7658    0.4558 H   0  0  0  0  0  0  0  0  0  0  0  0
   -1.7167    1.0308   -1.0640 H   0  0  0  0  0  0  0  0  0  0  0  0
    0.0650   -1.5366    1.1782 H   0  0  0  0  0  0  0  0  0  0  0  0
    0.8603   -0.1856   -0.3101 H   0  0  0  0  0  0  0  0  0  0  0  0
   -0.0668   -1.0770   -0.5034 H   0  0  0  0  0  0  0  0  0  0  0  0
  2  8  1  0  0  0  0
  3  1  1  0  0  0  0
  4  1  1  0  0  0  0
  6  9  1  0  0  0  0
  6 10  1  0  0  0  0
  7  2  1  0  0  0  0
  9 12  1  0  0  0  0
 11  6  1  0  0  0  0
 13  9  1  0  0  0  0
 14  9  1  0  0  0  0
M  RAD  4   1   3   2   3   5   2   6   2
M  END
$$$$
