butane_opt
 OpenBabel08242015393D

 14 13  0  0  0  0  0  0  0  0999 V2000
   -4.0286    0.3031    0.1920 C   0  0  0  0  0  0  0  0  0  0  0  0
   -2.6727   -0.6954   -0.1549 C   0  0  0  0  0  0  0  0  0  0  0  0
   -4.7972   -0.1671    0.3121 H   0  0  0  0  0  0  0  0  0  0  0  0
   -4.3140    0.7284   -0.5501 H   0  0  0  0  0  0  0  0  0  0  0  0
   -3.8149    1.0827    1.3258 H   0  0  0  0  0  0  0  0  0  0  0  0
   -1.3876    0.1383   -0.2654 C   0  0  0  0  0  0  0  0  0  0  0  0
   -2.7967   -1.2337   -0.8858 H   0  0  0  0  0  0  0  0  0  0  0  0
   -2.5607   -1.2012    0.8182 H   0  0  0  0  0  0  0  0  0  0  0  0
   -0.1450   -0.6318    0.2690 C   0  0  0  0  0  0  0  0  0  0  0  0
   -1.5331    0.6724    0.4948 H   0  0  0  0  0  0  0  0  0  0  0  0
   -1.0419    0.8675   -1.2560 H   0  0  0  0  0  0  0  0  0  0  0  0
   -0.3577   -0.8604    0.8770 H   0  0  0  0  0  0  0  0  0  0  0  0
    0.6084   -0.1873    0.4956 H   0  0  0  0  0  0  0  0  0  0  0  0
    0.3679   -1.5483   -0.7306 H   0  0  0  0  0  0  0  0  0  0  0  0
  1  3  1  0  0  0  0
  1  5  1  0  0  0  0
  2  1  1  0  0  0  0
  2  8  1  0  0  0  0
  4  1  1  0  0  0  0
  6  2  1  0  0  0  0
  6  9  1  0  0  0  0
  6 10  1  0  0  0  0
  7  2  1  0  0  0  0
  9 13  1  0  0  0  0
  9 12  1  0  0  0  0
 11  6  1  0  0  0  0
 14  9  1  0  0  0  0
M  END
$$$$
