butane_opt
 OpenBabel08242015393D

 14 12  0  0  0  0  0  0  0  0999 V2000
   -3.8828    0.2223    0.1079 C   0  0  0  0  0  0  0  0  0  0  0  0
   -2.7103   -0.5258   -0.1134 C   0  0  0  0  0  0  0  0  0  0  0  0
   -5.0936   -0.6793    0.4206 H   0  0  0  0  0  0  0  0  0  0  0  0
   -4.2627    1.1424   -0.9360 H   0  0  0  0  0  0  0  0  0  0  0  0
   -3.5119    0.7413    0.9077 H   0  0  0  0  0  0  0  0  0  0  0  0
   -1.4074    0.2449    0.0006 C   0  0  0  0  0  0  0  0  0  0  0  0
   -2.5408   -1.3745   -1.1814 H   0  0  0  0  0  0  0  0  0  0  0  0
   -2.8373   -1.1631    0.7592 H   0  0  0  0  0  0  0  0  0  0  0  0
   -0.2050   -0.7701    0.1053 C   0  0  0  0  0  0  0  0  0  0  0  0
   -1.4892    0.7622    0.8631 H   0  0  0  0  0  0  0  0  0  0  0  0
   -1.2893    0.9707   -1.0079 H   0  0  0  0  0  0  0  0  0  0  0  0
   -0.1686   -1.4643    1.1794 H   0  0  0  0  0  0  0  0  0  0  0  0
    0.8795   -0.1898   -0.1714 H   0  0  0  0  0  0  0  0  0  0  0  0
   -0.1819   -1.2767   -0.6121 H   0  0  0  0  0  0  0  0  0  0  0  0
  1  5  1  0  0  0  0
  2  6  1  0  0  0  0
  2  1  1  0  0  0  0
  2  8  1  0  0  0  0
  4  1  1  0  0  0  0
  6  9  1  0  0  0  0
  6 10  1  0  0  0  0
  7  2  1  0  0  0  0
  9 12  1  0  0  0  0
 11  6  1  0  0  0  0
 13  9  1  0  0  0  0
 14  9  1  0  0  0  0
M  RAD  2   1   2   3   2
M  END
$$$$
