butane_opt
 OpenBabel08242015393D

 14 10  0  0  0  0  0  0  0  0999 V2000
   -3.8869    0.2355   -0.0860 C   0  0  0  0  0  0  0  0  0  0  0  0
   -2.7040   -0.5176    0.1629 C   0  0  0  0  0  0  0  0  0  0  0  0
   -5.2851   -0.7638   -0.0601 H   0  0  0  0  0  0  0  0  0  0  0  0
   -3.8854    0.9900   -1.1097 H   0  0  0  0  0  0  0  0  0  0  0  0
   -3.7973    0.6964    0.7617 H   0  0  0  0  0  0  0  0  0  0  0  0
   -1.3993    0.2530    0.0644 C   0  0  0  0  0  0  0  0  0  0  0  0
   -2.7975   -0.9702   -0.3932 H   0  0  0  0  0  0  0  0  0  0  0  0
   -2.7741   -1.4718    1.2193 H   0  0  0  0  0  0  0  0  0  0  0  0
   -0.1754   -0.7718   -0.0566 C   0  0  0  0  0  0  0  0  0  0  0  0
   -1.5764    0.9609    1.0144 H   0  0  0  0  0  0  0  0  0  0  0  0
   -1.3034    0.7465   -0.6923 H   0  0  0  0  0  0  0  0  0  0  0  0
   -0.1946   -0.9411    0.4823 H   0  0  0  0  0  0  0  0  0  0  0  0
    0.7085   -0.2443    0.3669 H   0  0  0  0  0  0  0  0  0  0  0  0
   -0.0652   -1.9147   -1.2810 H   0  0  0  0  0  0  0  0  0  0  0  0
  1  2  1  0  0  0  0
  1  5  1  0  0  0  0
  2  8  1  0  0  0  0
  4  1  1  0  0  0  0
  6  2  1  0  0  0  0
  6 10  1  0  0  0  0
  7  2  1  0  0  0  0
  9  6  1  0  0  0  0
  9 13  1  0  0  0  0
 11  6  1  0  0  0  0
M  RAD  5   1   2   3   2   9   3  12   2  14   2
M  END
$$$$
