14
butane_opt
C  -3.984252   0.189186   0.189359
C  -2.721349  -0.569283  -0.164950
H  -5.030895  -0.449937   0.493258
H  -4.262399   0.711429  -0.493480
H  -3.612891   1.127380   1.198392
C  -1.444857   0.315854  -0.220871
H  -2.669683  -1.348123  -0.972856
H  -2.836534  -1.187864   0.662969
C  -0.053574  -0.729054   0.225055
H  -1.420274   0.731691   0.344246
H  -1.196639   0.792853  -1.131672
H  -0.326309  -1.446979   1.170254
H   0.517676  -0.429493   0.532485
H   0.320753  -1.496378  -0.655849
