butane_opt
 OpenBabel08242015393D

 14  8  0  0  0  0  0  0  0  0999 V2000
   -3.9206    0.2351    0.1427 C   0  0  0  0  0  1  0  0  0  0  0  0
   -2.6401   -0.6101   -0.0888 C   0  0  0  0  0  0  0  0  0  0  0  0
   -4.9590   -0.4243   -0.4190 H   0  0  0  0  0  0  0  0  0  0  0  0
   -3.8179    0.2834   -0.3469 H   0  0  0  0  0  0  0  0  0  0  0  0
   -3.9335    1.6119    1.5511 H   0  0  0  0  0  0  0  0  0  0  0  0
   -1.4485    0.2340   -0.0975 C   0  0  0  0  0  0  0  0  0  0  0  0
   -2.5066   -1.3761   -0.9117 H   0  0  0  0  0  0  0  0  0  0  0  0
   -2.6685   -1.0823    0.6015 H   0  0  0  0  0  0  0  0  0  0  0  0
   -0.2355   -0.7289    0.1493 C   0  0  0  0  0  0  0  0  0  0  0  0
   -1.5263    0.5380    0.3648 H   0  0  0  0  0  0  0  0  0  0  0  0
   -1.2304    1.0869   -1.3013 H   0  0  0  0  0  0  0  0  0  0  0  0
   -0.0218   -1.7673    1.2962 H   0  0  0  0  0  0  0  0  0  0  0  0
    0.8613   -0.0992   -0.1231 H   0  0  0  0  0  0  0  0  0  0  0  0
   -0.2692   -0.7988   -0.3851 H   0  0  0  0  0  0  0  0  0  0  0  0
  2  8  1  0  0  0  0
  3  1  1  0  0  0  0
  4  2  1  0  0  0  0
  6  2  1  0  0  0  0
  6  9  1  0  0  0  0
  7  2  1  0  0  0  0
 11  6  1  0  0  0  0
 13  9  1  0  0  0  0
M  RAD  6   5   2   6   2   9   3  10   2  12   2  14   2
M  END
$$$$
