butane_opt
 OpenBabel08242015393D

 14 11  0  0  0  0  0  0  0  0999 V2000
   -3.8458    0.1868    0.1200 C   0  0  0  0  0  0  0  0  0  0  0  0
   -2.7474   -0.5371   -0.1439 C   0  0  0  0  0  0  0  0  0  0  0  0
   -4.7554   -0.3590    0.1753 H   0  0  0  0  0  0  0  0  0  0  0  0
   -3.9343    0.7384   -0.8210 H   0  0  0  0  0  0  0  0  0  0  0  0
   -3.6444    1.0135    1.1991 H   0  0  0  0  0  0  0  0  0  0  0  0
   -1.4418    0.2619   -0.0171 C   0  0  0  0  0  0  0  0  0  0  0  0
   -2.9032   -1.4317   -1.1395 H   0  0  0  0  0  0  0  0  0  0  0  0
   -2.8882   -0.8973    0.5704 H   0  0  0  0  0  0  0  0  0  0  0  0
   -0.1640   -0.7453    0.1393 C   0  0  0  0  0  0  0  0  0  0  0  0
   -1.5047    0.6728    0.6606 H   0  0  0  0  0  0  0  0  0  0  0  0
   -1.6333    1.0241   -0.8489 H   0  0  0  0  0  0  0  0  0  0  0  0
    0.2828   -1.9951    1.4226 H   0  0  0  0  0  0  0  0  0  0  0  0
    0.7047   -0.2773   -0.5214 H   0  0  0  0  0  0  0  0  0  0  0  0
   -0.3568   -0.9259   -0.3385 H   0  0  0  0  0  0  0  0  0  0  0  0
  1  3  1  0  0  0  0
  1  5  1  0  0  0  0
  2  6  1  0  0  0  0
  2  1  1  0  0  0  0
  2  8  1  0  0  0  0
  4  1  1  0  0  0  0
  6  9  1  0  0  0  0
  6 10  1  0  0  0  0
  7  2  1  0  0  0  0
 11  6  1  0  0  0  0
 13  9  1  0  0  0  0
M  RAD  3   9   3  12   2  14   2
M  END
$$$$
