14
butane_opt
C  -3.982221   0.287383   0.102873
C  -2.694841  -0.687060  -0.178328
H  -4.679854  -0.093285   0.934136
H  -4.608931   1.620522  -1.173907
H  -3.743456   0.552372   0.757117
C  -1.376895   0.150928  -0.002494
H  -2.912063  -1.299242  -0.895761
H  -2.706611  -1.379758   0.721886
C  -0.157614  -0.643587   0.135932
H  -1.213764   1.003916   0.984469
H  -1.119989   0.695705  -0.921779
H  -0.279422  -1.180846   1.097896
H   0.867598  -0.120555  -0.031303
H  -0.106432  -1.508560  -0.822178
