14
butane_opt
C  -3.882589   0.348884  -0.088959
C  -2.688546  -0.727741   0.133036
H  -4.542018  -0.132104   0.532120
H  -4.130778   1.628088  -1.544647
H  -3.876632   0.261466   0.256085
C  -1.372932   0.081981   0.202517
H  -2.519637  -1.276655  -0.746638
H  -2.825855  -1.138601   0.937885
C  -0.231065  -0.619154  -0.096815
H  -1.447053   1.111197   1.193894
H  -1.530015   0.459870  -0.551204
H  -0.139292  -0.965201   0.685257
H   0.705931  -0.076129  -0.081460
H  -0.646900  -1.318469  -1.106156
