butane_opt
 OpenBabel08242015393D

 14  9  0  0  0  0  0  0  0  0999 V2000
   -3.9777    0.2713    0.1129 C   0  0  0  0  0  1  0  0  0  0  0  0
   -2.7083   -0.6150    0.0372 C   0  0  0  0  0  0  0  0  0  0  0  0
   -4.9240   -0.4629   -0.5994 H   0  0  0  0  0  0  0  0  0  0  0  0
   -3.6967   -0.1601   -0.2124 H   0  0  0  0  0  0  0  0  0  0  0  0
   -4.4217    1.6988    1.4119 H   0  0  0  0  0  0  0  0  0  0  0  0
   -1.4250    0.1966   -0.1649 C   0  0  0  0  0  0  0  0  0  0  0  0
   -3.0682   -1.4679   -1.0788 H   0  0  0  0  0  0  0  0  0  0  0  0
   -2.6009   -1.0357    0.6134 H   0  0  0  0  0  0  0  0  0  0  0  0
   -0.0919   -0.6944    0.1449 C   0  0  0  0  0  0  0  0  0  0  0  0
   -1.2548    0.7048    0.5075 H   0  0  0  0  0  0  0  0  0  0  0  0
   -1.3797    1.2979   -1.3897 H   0  0  0  0  0  0  0  0  0  0  0  0
   -0.0281   -1.6446    1.3323 H   0  0  0  0  0  0  0  0  0  0  0  0
    0.5869   -0.3389   -0.0587 H   0  0  0  0  0  0  0  0  0  0  0  0
    0.2061   -1.0299   -0.4905 H   0  0  0  0  0  0  0  0  0  0  0  0
  2  8  1  0  0  0  0
  3  1  1  0  0  0  0
  4  2  1  0  0  0  0
  6  2  1  0  0  0  0
  6  9  1  0  0  0  0
  6 10  1  0  0  0  0
  7  2  1  0  0  0  0
 13  9  1  0  0  0  0
 14  9  1  0  0  0  0
M  RAD  5   5   2   6   2   9   2  11   2  12   2
M  END
$$$$
