butane_opt
 OpenBabel08242015393D

 14  7  0  0  0  0  0  0  0  0999 V2000
   -3.9658    0.2168   -0.0522 C   0  0  0  0  0  0  0  0  0  0  0  0
   -2.7750   -0.6241    0.1361 C   0  0  0  0  0  0  0  0  0  0  0  0
   -4.6933   -0.3599    0.0844 H   0  0  0  0  0  0  0  0  0  0  0  0
   -4.0688    1.2052   -1.2441 H   0  0  0  0  0  0  0  0  0  0  0  0
   -3.9429    0.4667    0.4357 H   0  0  0  0  0  0  0  0  0  0  0  0
   -1.4056    0.2931    0.0655 C   0  0  0  0  0  0  0  0  0  0  0  0
   -2.7046   -0.7325   -0.3306 H   0  0  0  0  0  0  0  0  0  0  0  0
   -2.7666   -1.4874    1.3875 H   0  0  0  0  0  0  0  0  0  0  0  0
   -0.0992   -0.7833   -0.0582 C   0  0  0  0  0  0  0  0  0  0  0  0
   -1.4013    1.1644    1.0276 H   0  0  0  0  0  0  0  0  0  0  0  0
   -1.4925    0.8233   -0.7534 H   0  0  0  0  0  0  0  0  0  0  0  0
   -0.1004   -0.5521    0.2143 H   0  0  0  0  0  0  0  0  0  0  0  0
    0.8939   -0.1179    0.7446 H   0  0  0  0  0  0  0  0  0  0  0  0
    0.2111   -2.1363   -1.3607 H   0  0  0  0  0  0  0  0  0  0  0  0
  1  3  1  0  0  0  0
  1  2  1  0  0  0  0
  6  2  1  0  0  0  0
  6 10  1  0  0  0  0
  9  6  1  0  0  0  0
  9 13  1  0  0  0  0
 11  6  1  0  0  0  0
M  RAD  8   1   3   2   3   4   2   5   2   7   2   8   2   9   3  12   2
M  RAD  1  14   2
M  END
$$$$
