butane_opt
 OpenBabel08242015393D

 14 13  0  0  0  0  0  0  0  0999 V2000
   -3.9360    0.3571   -0.1161 C   0  0  0  0  0  0  0  0  0  0  0  0
   -2.6820   -0.7197    0.2253 C   0  0  0  0  0  0  0  0  0  0  0  0
   -4.9452   -0.3499   -0.4835 H   0  0  0  0  0  0  0  0  0  0  0  0
   -3.6713    0.8956   -0.9667 H   0  0  0  0  0  0  0  0  0  0  0  0
   -4.2441    1.1738    0.8530 H   0  0  0  0  0  0  0  0  0  0  0  0
   -1.3670    0.1370    0.1365 C   0  0  0  0  0  0  0  0  0  0  0  0
   -2.4689   -1.3176   -0.6636 H   0  0  0  0  0  0  0  0  0  0  0  0
   -2.8049   -1.4193    1.1054 H   0  0  0  0  0  0  0  0  0  0  0  0
   -0.2021   -0.6135   -0.0694 C   0  0  0  0  0  0  0  0  0  0  0  0
   -1.2975    0.7217    0.8574 H   0  0  0  0  0  0  0  0  0  0  0  0
   -1.3818    0.6989   -0.6745 H   0  0  0  0  0  0  0  0  0  0  0  0
    0.1500   -1.2939    0.6414 H   0  0  0  0  0  0  0  0  0  0  0  0
    0.6893   -0.0559   -0.2651 H   0  0  0  0  0  0  0  0  0  0  0  0
   -0.8062   -1.4479   -1.0392 H   0  0  0  0  0  0  0  0  0  0  0  0
  1  2  1  0  0  0  0
  1  5  1  0  0  0  0
  2  8  1  0  0  0  0
  3  1  1  0  0  0  0
  4  1  1  0  0  0  0
  6  2  1  0  0  0  0
  6 10  1  0  0  0  0
  7  2  1  0  0  0  0
  9  6  1  0  0  0  0
  9 12  1  0  0  0  0
 11  6  1  0  0  0  0
 13  9  1  0  0  0  0
 14  9  1  0  0  0  0
M  END
$$$$
