butane_opt
 OpenBabel08242015393D

 14  9  0  0  0  0  0  0  0  0999 V2000
   -3.9387    0.3323    0.1600 C   0  0  0  0  0  0  0  0  0  0  0  0
   -2.6457   -0.7119   -0.0582 C   0  0  0  0  0  0  0  0  0  0  0  0
   -4.9020   -0.2269   -0.4487 H   0  0  0  0  0  0  0  0  0  0  0  0
   -3.8640    0.1847   -0.3147 H   0  0  0  0  0  0  0  0  0  0  0  0
   -4.1620    1.6837    1.5022 H   0  0  0  0  0  0  0  0  0  0  0  0
   -1.4045    0.1145   -0.1721 C   0  0  0  0  0  0  0  0  0  0  0  0
   -2.6209   -1.3984   -0.9364 H   0  0  0  0  0  0  0  0  0  0  0  0
   -2.4882   -1.0960    0.6414 H   0  0  0  0  0  0  0  0  0  0  0  0
   -0.2449   -0.6175    0.2162 C   0  0  0  0  0  0  0  0  0  0  0  0
   -1.4177    0.3608    0.3419 H   0  0  0  0  0  0  0  0  0  0  0  0
   -1.4405    1.1434   -1.5568 H   0  0  0  0  0  0  0  0  0  0  0  0
   -0.2382   -1.3260    1.1698 H   0  0  0  0  0  0  0  0  0  0  0  0
    0.8864    0.1223   -0.0002 H   0  0  0  0  0  0  0  0  0  0  0  0
   -0.0357   -1.3102   -0.6073 H   0  0  0  0  0  0  0  0  0  0  0  0
  2  1  1  0  0  0  0
  2  8  1  0  0  0  0
  3  1  1  0  0  0  0
  6  2  1  0  0  0  0
  6  9  1  0  0  0  0
  7  2  1  0  0  0  0
  9 12  1  0  0  0  0
 13  9  1  0  0  0  0
 14  9  1  0  0  0  0
M  RAD  6   1   3   4   2   5   2   6   3  10   2  11   2
M  END
$$$$
