14
butane_opt
C  -3.931905   0.288972   0.169532
C  -2.776331  -0.645006  -0.104112
H  -5.076354  -0.514476   0.263540
H  -4.123580   0.444672  -0.460861
H  -3.806412   1.139780   1.237452
C  -1.361752   0.259871  -0.241263
H  -2.823958  -1.347471  -0.776200
H  -2.684097  -1.115315   0.630559
C  -0.132769  -0.721250   0.240838
H  -1.418946   0.689150   0.410459
H  -1.416251   1.228867  -1.410925
H  -0.239099  -1.148424   0.880436
H   0.649094  -0.356188   0.739935
H   0.351827  -1.728525  -0.813764
