14
butane_opt
C  -3.886351   0.183056   0.118875
C  -2.713655  -0.509676  -0.054272
H  -4.964013  -0.577063  -0.184864
H  -3.773099   0.628566  -0.493182
H  -3.672053   1.240834   1.221627
C  -1.475651   0.242662  -0.105428
H  -2.620270  -1.529613  -1.068979
H  -2.592330  -1.142738   0.750354
C  -0.173143  -0.767811   0.178157
H  -1.769754   0.674219   0.605093
H  -1.303152   1.259212  -1.189094
H  -0.027835  -1.406700   0.994076
H   0.825954  -0.151634  -0.250567
H  -0.119737  -1.252771  -0.582480
