butane_opt
 OpenBabel08242015393D

 14  8  0  0  0  0  0  0  0  0999 V2000
   -3.8900    0.2244    0.1671 C   0  0  0  0  0 15  0  0  0  0  0  0
   -2.6755   -0.5752   -0.0765 C   0  0  0  0  0  0  0  0  0  0  0  0
   -4.9352   -0.5793   -0.7709 H   0  0  0  0  0  0  0  0  0  0  0  0
   -3.6262    0.1473   -0.3482 H   0  0  0  0  0  0  0  0  0  0  0  0
   -3.9793    1.6010    1.3424 H   0  0  0  0  0  0  0  0  0  0  0  0
   -1.4093    0.2754   -0.1381 C   0  0  0  0  0  0  0  0  0  0  0  0
   -2.8136   -1.1181   -0.7752 H   0  0  0  0  0  0  0  0  0  0  0  0
   -2.8310   -1.2547    0.9353 H   0  0  0  0  0  0  0  0  0  0  0  0
   -0.2079   -0.7247    0.1527 C   0  0  0  0  0  0  0  0  0  0  0  0
   -1.6322    0.7826    0.4348 H   0  0  0  0  0  0  0  0  0  0  0  0
   -1.1561    1.0060   -1.0461 H   0  0  0  0  0  0  0  0  0  0  0  0
   -0.0770   -1.8387    1.2995 H   0  0  0  0  0  0  0  0  0  0  0  0
    0.5355   -0.4055   -0.2652 H   0  0  0  0  0  0  0  0  0  0  0  0
   -0.2624   -1.2736   -0.5514 H   0  0  0  0  0  0  0  0  0  0  0  0
  2  8  1  0  0  0  0
  4  2  1  0  0  0  0
  6  9  1  0  0  0  0
  6 10  1  0  0  0  0
  7  2  1  0  0  0  0
 11  6  1  0  0  0  0
 13  9  1  0  0  0  0
 14  9  1  0  0  0  0
M  RAD  6   2   2   3   2   5   2   6   2   9   2  12   2
M  END
$$$$
