butane_opt
 OpenBabel08242015393D

 14 11  0  0  0  0  0  0  0  0999 V2000
   -3.8960    0.1871   -0.1573 C   0  0  0  0  0  0  0  0  0  0  0  0
   -2.8104   -0.5777    0.2501 C   0  0  0  0  0  0  0  0  0  0  0  0
   -4.7205   -0.4225   -0.5658 H   0  0  0  0  0  0  0  0  0  0  0  0
   -3.5349    0.6923   -0.8640 H   0  0  0  0  0  0  0  0  0  0  0  0
   -4.3781    1.3861    1.0548 H   0  0  0  0  0  0  0  0  0  0  0  0
   -1.4225    0.2612    0.1033 C   0  0  0  0  0  0  0  0  0  0  0  0
   -2.5213   -0.9125   -0.4117 H   0  0  0  0  0  0  0  0  0  0  0  0
   -3.1145   -1.5752    1.3968 H   0  0  0  0  0  0  0  0  0  0  0  0
   -0.0747   -0.7226   -0.0939 C   0  0  0  0  0  0  0  0  0  0  0  0
   -1.3997    1.1379    1.0439 H   0  0  0  0  0  0  0  0  0  0  0  0
   -1.4617    0.7997   -0.6260 H   0  0  0  0  0  0  0  0  0  0  0  0
    0.2119   -1.2796    0.6446 H   0  0  0  0  0  0  0  0  0  0  0  0
    0.6527   -0.4369   -0.2658 H   0  0  0  0  0  0  0  0  0  0  0  0
   -0.2671   -1.6795   -1.1573 H   0  0  0  0  0  0  0  0  0  0  0  0
  1  2  1  0  0  0  0
  3  1  1  0  0  0  0
  4  1  1  0  0  0  0
  6  2  1  0  0  0  0
  6 10  1  0  0  0  0
  7  2  1  0  0  0  0
  9  6  1  0  0  0  0
  9 12  1  0  0  0  0
 11  6  1  0  0  0  0
 13  9  1  0  0  0  0
 14  9  1  0  0  0  0
M  RAD  4   1   2   2   2   5   2   8   2
M  END
$$$$
