14
butane_opt
C  -3.896888   0.292625   0.149242
C  -2.714316  -0.604701  -0.108784
H  -4.937482  -0.313475   0.416261
H  -4.017831   0.824815  -0.622659
H  -3.650826   1.082510   1.150999
C  -1.389684   0.097712  -0.176861
H  -2.480617  -1.116412  -0.979155
H  -2.706129  -1.440835   0.995072
C  -0.256109  -0.652100   0.148893
H  -1.503018   0.705508   0.604326
H  -1.207476   0.891459  -1.220603
H  -0.554644  -1.025603   1.042538
H   0.772445   0.019230   0.794998
H   0.308803  -1.719902  -0.890352
