14
butane_opt
C  -3.956068   0.186516   0.104744
C  -2.739322  -0.545906   0.016882
H  -4.838158  -0.324450  -0.505256
H  -3.483291   0.234461  -0.514448
H  -4.289235   1.319846   1.157091
C  -1.421773   0.289773  -0.081334
H  -2.829364  -1.448197  -1.071008
H  -2.552298  -1.028227   0.815233
C  -0.111681  -0.783420   0.119269
H  -1.404772   0.765761   0.455839
H  -1.716700   1.030820  -1.063975
H   0.065019  -1.536630   1.178187
H   0.860288  -0.185621  -0.310092
H  -0.066837  -1.077047  -0.503444
