butane_opt
 OpenBabel08242015393D

 14 12  0  0  0  0  0  0  0  0999 V2000
   -3.9886    0.3182    0.1367 C   0  0  0  0  0  0  0  0  0  0  0  0
   -2.6784   -0.6738   -0.1617 C   0  0  0  0  0  0  0  0  0  0  0  0
   -4.6786   -0.0474    0.8030 H   0  0  0  0  0  0  0  0  0  0  0  0
   -4.6224    1.0737   -0.7227 H   0  0  0  0  0  0  0  0  0  0  0  0
   -3.6907    0.7290    0.9537 H   0  0  0  0  0  0  0  0  0  0  0  0
   -1.3477    0.1085   -0.0899 C   0  0  0  0  0  0  0  0  0  0  0  0
   -2.9496   -1.6195   -1.3685 H   0  0  0  0  0  0  0  0  0  0  0  0
   -2.4684   -1.0322    0.6131 H   0  0  0  0  0  0  0  0  0  0  0  0
   -0.1784   -0.6221    0.2076 C   0  0  0  0  0  0  0  0  0  0  0  0
   -1.4107    0.6619    0.6205 H   0  0  0  0  0  0  0  0  0  0  0  0
   -1.0534    0.9966   -1.2566 H   0  0  0  0  0  0  0  0  0  0  0  0
   -0.4193   -1.3289    1.2302 H   0  0  0  0  0  0  0  0  0  0  0  0
    0.8411   -0.1137    0.1180 H   0  0  0  0  0  0  0  0  0  0  0  0
   -0.2599   -1.3363   -0.6923 H   0  0  0  0  0  0  0  0  0  0  0  0
  1  3  1  0  0  0  0
  1  5  1  0  0  0  0
  2  6  1  0  0  0  0
  2  1  1  0  0  0  0
  2  8  1  0  0  0  0
  4  1  1  0  0  0  0
  6  9  1  0  0  0  0
  6 10  1  0  0  0  0
  9 12  1  0  0  0  0
 11  6  1  0  0  0  0
 13  9  1  0  0  0  0
 14  9  1  0  0  0  0
M  RAD  2   2   2   7   2
M  END
$$$$
