butane_opt
 OpenBabel08242015393D

 14 13  0  0  0  0  0  0  0  0999 V2000
   -3.9431    0.2630    0.0385 C   0  0  0  0  0  0  0  0  0  0  0  0
   -2.7154   -0.6174    0.0084 C   0  0  0  0  0  0  0  0  0  0  0  0
   -4.8451   -0.3441    0.0537 H   0  0  0  0  0  0  0  0  0  0  0  0
   -3.9852    0.8688   -0.8470 H   0  0  0  0  0  0  0  0  0  0  0  0
   -3.9553    0.9622    0.9152 H   0  0  0  0  0  0  0  0  0  0  0  0
   -1.3968    0.2019    0.0070 C   0  0  0  0  0  0  0  0  0  0  0  0
   -2.7746   -1.3631   -0.8775 H   0  0  0  0  0  0  0  0  0  0  0  0
   -2.7189   -1.2067    0.8518 H   0  0  0  0  0  0  0  0  0  0  0  0
   -0.1434   -0.6986    0.0534 C   0  0  0  0  0  0  0  0  0  0  0  0
   -1.4523    0.8400    0.8057 H   0  0  0  0  0  0  0  0  0  0  0  0
   -1.3716    0.8341   -0.9052 H   0  0  0  0  0  0  0  0  0  0  0  0
   -0.0742   -1.4365    1.0154 H   0  0  0  0  0  0  0  0  0  0  0  0
    0.7263   -0.1346   -0.0911 H   0  0  0  0  0  0  0  0  0  0  0  0
   -0.1860   -1.2733   -0.7559 H   0  0  0  0  0  0  0  0  0  0  0  0
  1  3  1  0  0  0  0
  1  5  1  0  0  0  0
  2  1  1  0  0  0  0
  2  8  1  0  0  0  0
  4  1  1  0  0  0  0
  6  2  1  0  0  0  0
  6  9  1  0  0  0  0
  6 10  1  0  0  0  0
  7  2  1  0  0  0  0
  9 12  1  0  0  0  0
 11  6  1  0  0  0  0
 13  9  1  0  0  0  0
 14  9  1  0  0  0  0
M  END
$$$$
