14
butane_opt
C  -3.897973   0.322511   0.160375
C  -2.654138  -0.693795  -0.208795
H  -4.757596  -0.101538   0.157494
H  -4.163184   0.718009  -0.516066
H  -3.899928   1.393274   1.246158
C  -1.447569   0.108966  -0.106714
H  -2.717096  -1.617771  -1.222015
H  -2.546458  -1.348771   0.630862
C  -0.195407  -0.624470   0.218361
H  -1.416771   0.778562   0.780903
H  -1.206781   0.746675  -0.891324
H  -0.068744  -1.812291   1.659864
H   0.868826   0.031809  -0.819433
H  -0.787050  -0.571594  -0.248865
