14
butane_opt
C  -3.928511   0.262678   0.045151
C  -2.708386  -0.605251  -0.008686
H  -4.827620  -0.330125   0.144933
H  -3.996644   0.876454  -0.835809
H  -3.886986   0.899001   0.895769
C  -1.407039   0.184417  -0.015095
H  -2.776378  -1.313709  -0.888497
H  -2.677975  -1.225509   0.877622
C  -0.168130  -0.699695   0.068641
H  -1.430514   0.875013   0.866069
H  -1.393375   0.808189  -0.901464
H  -0.114283  -1.371960   0.994496
H   0.744024  -0.077425  -0.047826
H  -0.127848  -1.309160  -0.745972
