butane_opt
 OpenBabel08242015393D

 14 12  0  0  0  0  0  0  0  0999 V2000
   -3.9222    0.3279   -0.1077 C   0  0  0  0  0  0  0  0  0  0  0  0
   -2.6854   -0.6313    0.2130 C   0  0  0  0  0  0  0  0  0  0  0  0
   -5.0424   -0.4439   -0.3705 H   0  0  0  0  0  0  0  0  0  0  0  0
   -3.6385    0.5605   -0.9168 H   0  0  0  0  0  0  0  0  0  0  0  0
   -3.9447    1.1425    0.9281 H   0  0  0  0  0  0  0  0  0  0  0  0
   -1.3939    0.1260    0.0425 C   0  0  0  0  0  0  0  0  0  0  0  0
   -2.5573   -0.9700   -0.4149 H   0  0  0  0  0  0  0  0  0  0  0  0
   -2.6704   -1.5041    1.2899 H   0  0  0  0  0  0  0  0  0  0  0  0
   -0.2424   -0.6534   -0.0530 C   0  0  0  0  0  0  0  0  0  0  0  0
   -1.5831    0.8816    0.9578 H   0  0  0  0  0  0  0  0  0  0  0  0
   -1.3715    0.5945   -0.6326 H   0  0  0  0  0  0  0  0  0  0  0  0
   -0.2278   -1.0935    0.5968 H   0  0  0  0  0  0  0  0  0  0  0  0
    0.9164    0.0683    0.0062 H   0  0  0  0  0  0  0  0  0  0  0  0
   -0.0327   -1.7254   -1.1905 H   0  0  0  0  0  0  0  0  0  0  0  0
  1  2  1  0  0  0  0
  1  5  1  0  0  0  0
  2  8  1  0  0  0  0
  3  1  1  0  0  0  0
  4  1  1  0  0  0  0
  6  2  1  0  0  0  0
  6 10  1  0  0  0  0
  7  2  1  0  0  0  0
  9 13  1  0  0  0  0
  9  6  1  0  0  0  0
  9 12  1  0  0  0  0
 11  6  1  0  0  0  0
M  RAD  2   9   2  14   2
M  END
$$$$
