butane_opt
 OpenBabel08242015393D

 14 12  0  0  0  0  0  0  0  0999 V2000
   -4.0188    0.2983    0.0627 C   0  0  0  0  0  0  0  0  0  0  0  0
   -2.6986   -0.7094   -0.0605 C   0  0  0  0  0  0  0  0  0  0  0  0
   -4.5942    0.0137    0.7147 H   0  0  0  0  0  0  0  0  0  0  0  0
   -4.5306    1.4281   -1.1502 H   0  0  0  0  0  0  0  0  0  0  0  0
   -3.9365    0.6287    0.9673 H   0  0  0  0  0  0  0  0  0  0  0  0
   -1.3423    0.1389    0.0082 C   0  0  0  0  0  0  0  0  0  0  0  0
   -2.6347   -1.5489   -1.0126 H   0  0  0  0  0  0  0  0  0  0  0  0
   -2.6287   -1.1611    0.6831 H   0  0  0  0  0  0  0  0  0  0  0  0
   -0.1450   -0.6345    0.0780 C   0  0  0  0  0  0  0  0  0  0  0  0
   -1.3358    0.5940    0.6918 H   0  0  0  0  0  0  0  0  0  0  0  0
   -1.2188    0.9591   -0.8910 H   0  0  0  0  0  0  0  0  0  0  0  0
   -0.4988   -0.9931    0.8406 H   0  0  0  0  0  0  0  0  0  0  0  0
    0.7161   -0.0910    0.2683 H   0  0  0  0  0  0  0  0  0  0  0  0
    0.1031   -1.3718   -0.8041 H   0  0  0  0  0  0  0  0  0  0  0  0
  1  3  1  0  0  0  0
  1  5  1  0  0  0  0
  2  6  1  0  0  0  0
  2  1  1  0  0  0  0
  2  8  1  0  0  0  0
  6  9  1  0  0  0  0
  6 10  1  0  0  0  0
  7  2  1  0  0  0  0
  9 13  1  0  0  0  0
  9 12  1  0  0  0  0
 11  6  1  0  0  0  0
 14  9  1  0  0  0  0
M  RAD  2   1   2   4   2
M  END
$$$$
