butane_opt
 OpenBabel08242015393D

 14 12  0  0  0  0  0  0  0  0999 V2000
   -3.9309    0.1783    0.0977 C   0  0  0  0  0  0  0  0  0  0  0  0
   -2.7133   -0.5660    0.0155 C   0  0  0  0  0  0  0  0  0  0  0  0
   -4.7091   -0.3760   -0.1163 H   0  0  0  0  0  0  0  0  0  0  0  0
   -4.0074    0.6577   -0.6219 H   0  0  0  0  0  0  0  0  0  0  0  0
   -3.9832    0.9846    1.0667 H   0  0  0  0  0  0  0  0  0  0  0  0
   -1.4819    0.2915   -0.1274 C   0  0  0  0  0  0  0  0  0  0  0  0
   -2.8270   -1.1181   -0.9162 H   0  0  0  0  0  0  0  0  0  0  0  0
   -2.8556   -1.1479    0.9010 H   0  0  0  0  0  0  0  0  0  0  0  0
   -0.1125   -0.7694    0.1449 C   0  0  0  0  0  0  0  0  0  0  0  0
   -1.6188    0.8195    0.5556 H   0  0  0  0  0  0  0  0  0  0  0  0
   -1.2194    1.0394   -1.1329 H   0  0  0  0  0  0  0  0  0  0  0  0
   -0.0643   -1.1321    0.8162 H   0  0  0  0  0  0  0  0  0  0  0  0
    0.8120   -0.0541    0.2604 H   0  0  0  0  0  0  0  0  0  0  0  0
    0.3159   -1.7858   -0.9764 H   0  0  0  0  0  0  0  0  0  0  0  0
  1  5  1  0  0  0  0
  2  1  1  0  0  0  0
  2  8  1  0  0  0  0
  3  1  1  0  0  0  0
  4  1  1  0  0  0  0
  6  2  1  0  0  0  0
  6  9  1  0  0  0  0
  6 10  1  0  0  0  0
  7  2  1  0  0  0  0
  9 13  1  0  0  0  0
  9 12  1  0  0  0  0
 11  6  1  0  0  0  0
M  RAD  2   9   2  14   2
M  END
$$$$
