butane_opt
 OpenBabel08242015393D

 14 13  0  0  0  0  0  0  0  0999 V2000
   -3.9402    0.2509    0.0322 C   0  0  0  0  0  0  0  0  0  0  0  0
   -2.6971   -0.5978    0.0420 C   0  0  0  0  0  0  0  0  0  0  0  0
   -4.8397   -0.3377   -0.0822 H   0  0  0  0  0  0  0  0  0  0  0  0
   -3.8924    0.7624   -0.7911 H   0  0  0  0  0  0  0  0  0  0  0  0
   -3.9829    1.0267    0.9681 H   0  0  0  0  0  0  0  0  0  0  0  0
   -1.4079    0.1843   -0.0163 C   0  0  0  0  0  0  0  0  0  0  0  0
   -2.6947   -1.3235   -0.8478 H   0  0  0  0  0  0  0  0  0  0  0  0
   -2.7291   -1.1789    0.9066 H   0  0  0  0  0  0  0  0  0  0  0  0
   -0.1643   -0.6990    0.0444 C   0  0  0  0  0  0  0  0  0  0  0  0
   -1.4314    0.8318    0.8266 H   0  0  0  0  0  0  0  0  0  0  0  0
   -1.4383    0.8898   -0.9618 H   0  0  0  0  0  0  0  0  0  0  0  0
   -0.1414   -1.3648    0.9807 H   0  0  0  0  0  0  0  0  0  0  0  0
    0.7826   -0.1095    0.0289 H   0  0  0  0  0  0  0  0  0  0  0  0
   -0.1442   -1.3295   -0.7942 H   0  0  0  0  0  0  0  0  0  0  0  0
  1  2  1  0  0  0  0
  1  5  1  0  0  0  0
  2  8  1  0  0  0  0
  3  1  1  0  0  0  0
  4  1  1  0  0  0  0
  6  2  1  0  0  0  0
  6  9  1  0  0  0  0
  6 10  1  0  0  0  0
  7  2  1  0  0  0  0
  9 12  1  0  0  0  0
 11  6  1  0  0  0  0
 13  9  1  0  0  0  0
 14  9  1  0  0  0  0
M  END
$$$$
