14
butane_opt
C  -3.975293   0.216774   0.128172
C  -2.789713  -0.569614  -0.130649
H  -4.839566  -0.407454   0.353877
H  -4.283260   0.896522  -0.779132
H  -3.768240   0.944081   0.919929
C  -1.354251   0.244852  -0.039191
H  -2.954852  -1.413839  -1.059610
H  -2.611789  -0.948149   0.482805
C  -0.063188  -0.772182   0.155863
H  -1.654070   0.917365   0.670452
H  -1.290401   0.921495  -1.047564
H   0.183154  -1.637614   1.222884
H   0.878265  -0.234687  -0.259985
H  -0.451006  -0.942096  -0.389881
