14
butane_opt
C  -3.927580   0.304915  -0.053249
C  -2.659459  -0.627901   0.105926
H  -4.713809  -0.234201   0.495656
H  -4.244313   1.245887  -1.085480
H  -4.006202   0.651582   0.525730
C  -1.412735   0.058725   0.040551
H  -2.573374  -1.256771  -0.712401
H  -2.660247  -1.265344   1.087796
C  -0.218379  -0.660870  -0.061911
H  -1.320888   1.151828   1.166693
H  -1.213418   0.533486  -0.779918
H  -0.414234  -0.896920   0.705164
H   0.996178   0.133126   0.455935
H  -0.255031  -1.411563  -0.844194
