butane_opt
 OpenBabel08242015393D

 14 11  0  0  0  0  0  0  0  0999 V2000
   -3.9534    0.3197    0.1618 C   0  0  0  0  0  0  0  0  0  0  0  0
   -2.6077   -0.6166   -0.1642 C   0  0  0  0  0  0  0  0  0  0  0  0
   -4.9907   -0.5479   -0.1695 H   0  0  0  0  0  0  0  0  0  0  0  0
   -4.1613    0.3922   -0.4387 H   0  0  0  0  0  0  0  0  0  0  0  0
   -3.8010    1.1622    1.1365 H   0  0  0  0  0  0  0  0  0  0  0  0
   -1.4263    0.1331   -0.0766 C   0  0  0  0  0  0  0  0  0  0  0  0
   -2.7285   -1.3607   -1.0521 H   0  0  0  0  0  0  0  0  0  0  0  0
   -2.5499   -1.2876    0.7431 H   0  0  0  0  0  0  0  0  0  0  0  0
   -0.2103   -0.6748    0.1589 C   0  0  0  0  0  1  0  0  0  0  0  0
   -1.7334    1.0004    0.7504 H   0  0  0  0  0  0  0  0  0  0  0  0
   -0.9687    0.8689   -1.0283 H   0  0  0  0  0  0  0  0  0  0  0  0
   -0.0379   -1.9729    1.5278 H   0  0  0  0  0  0  0  0  0  0  0  0
    0.8367   -0.0175   -0.5474 H   0  0  0  0  0  0  0  0  0  0  0  0
   -0.5071   -0.6578   -0.3778 H   0  0  0  0  0  0  0  0  0  0  0  0
  1  5  1  0  0  0  0
  2  6  1  0  0  0  0
  2  1  1  0  0  0  0
  2  8  1  0  0  0  0
  3  1  1  0  0  0  0
  4  1  1  0  0  0  0
  6 10  1  0  0  0  0
  7  2  1  0  0  0  0
 11  6  1  0  0  0  0
 13  9  1  0  0  0  0
 14  6  1  0  0  0  0
M  RAD  1  12   2
M  END
$$$$
