butane_opt
 OpenBabel08242015393D

 14 11  0  0  0  0  0  0  0  0999 V2000
   -3.9678    0.3133    0.1468 C   0  0  0  0  0  0  0  0  0  0  0  0
   -2.6735   -0.6338   -0.1304 C   0  0  0  0  0  0  0  0  0  0  0  0
   -5.0359   -0.3122    0.0577 H   0  0  0  0  0  0  0  0  0  0  0  0
   -4.0869    0.8269   -0.7956 H   0  0  0  0  0  0  0  0  0  0  0  0
   -3.8509    1.2030    1.2190 H   0  0  0  0  0  0  0  0  0  0  0  0
   -1.3415    0.1056   -0.0804 C   0  0  0  0  0  0  0  0  0  0  0  0
   -2.5208   -1.6076   -1.1456 H   0  0  0  0  0  0  0  0  0  0  0  0
   -2.5427   -1.2011    0.6975 H   0  0  0  0  0  0  0  0  0  0  0  0
   -0.2067   -0.6642    0.1832 C   0  0  0  0  0  0  0  0  0  0  0  0
   -1.4134    0.7224    0.6936 H   0  0  0  0  0  0  0  0  0  0  0  0
   -1.1017    0.9452   -1.0202 H   0  0  0  0  0  0  0  0  0  0  0  0
   -0.0466   -1.6528    1.2731 H   0  0  0  0  0  0  0  0  0  0  0  0
    0.6909    0.0036   -0.3393 H   0  0  0  0  0  0  0  0  0  0  0  0
   -0.7961   -0.8593   -0.5533 H   0  0  0  0  0  0  0  0  0  0  0  0
  1  5  1  0  0  0  0
  2  1  1  0  0  0  0
  2  8  1  0  0  0  0
  3  1  1  0  0  0  0
  4  1  1  0  0  0  0
  6 10  1  0  0  0  0
  7  2  1  0  0  0  0
  9 12  1  0  0  0  0
 11  6  1  0  0  0  0
 13  9  1  0  0  0  0
 14  9  1  0  0  0  0
M  RAD  3   2   2   6   3   9   2
M  END
$$$$
