14
butane_opt
C  -3.871086   0.224668  -0.102859
C  -2.721734  -0.522921   0.109478
H  -4.934507  -0.550919   0.153307
H  -3.714104   0.891254  -1.013093
H  -3.817665   0.609473   0.647867
C  -1.444506   0.245518   0.193453
H  -2.636968  -1.211788  -0.729411
H  -3.046547  -1.183568   1.169356
C  -0.206018  -0.729387  -0.108552
H  -1.398115   1.006226   1.074806
H  -1.359693   0.771692  -0.718251
H   0.307328  -1.709964   0.839118
H   0.632675  -0.246378  -0.218780
H  -0.147987  -1.460643  -0.843455
