butane_opt
 OpenBabel08242015393D

 14 11  0  0  0  0  0  0  0  0999 V2000
   -3.9499    0.2637    0.1207 C   0  0  0  0  0  0  0  0  0  0  0  0
   -2.7295   -0.6392   -0.0547 C   0  0  0  0  0  0  0  0  0  0  0  0
   -4.8013   -0.2987   -0.4366 H   0  0  0  0  0  0  0  0  0  0  0  0
   -3.7900    0.4887   -0.6134 H   0  0  0  0  0  0  0  0  0  0  0  0
   -3.9681    1.0573    1.0401 H   0  0  0  0  0  0  0  0  0  0  0  0
   -1.4262    0.2563   -0.0584 C   0  0  0  0  0  0  0  0  0  0  0  0
   -2.8018   -1.3403   -0.8204 H   0  0  0  0  0  0  0  0  0  0  0  0
   -2.4067   -1.2716    0.8438 H   0  0  0  0  0  0  0  0  0  0  0  0
   -0.1345   -0.6881    0.0815 C   0  0  0  0  0  0  0  0  0  0  0  0
   -1.5400    1.0168    0.7335 H   0  0  0  0  0  0  0  0  0  0  0  0
   -1.2588    0.7267   -0.8260 H   0  0  0  0  0  0  0  0  0  0  0  0
   -0.0524   -1.9069    1.2007 H   0  0  0  0  0  0  0  0  0  0  0  0
    0.5878   -0.3134   -0.2775 H   0  0  0  0  0  0  0  0  0  0  0  0
   -0.1104   -0.9420   -0.4381 H   0  0  0  0  0  0  0  0  0  0  0  0
  1  5  1  0  0  0  0
  2  1  1  0  0  0  0
  2  8  1  0  0  0  0
  3  1  1  0  0  0  0
  4  1  1  0  0  0  0
  6  2  1  0  0  0  0
  6  9  1  0  0  0  0
  6 10  1  0  0  0  0
  7  2  1  0  0  0  0
 11  6  1  0  0  0  0
 13  9  1  0  0  0  0
M  RAD  3   9   3  12   2  14   2
M  END
$$$$
