14
butane_opt
C  -3.881873   0.276199  -0.024461
C  -2.666299  -0.574042   0.025355
H  -4.916116  -0.294144   0.259782
H  -4.281156   1.337663  -1.347636
H  -3.938811   0.526774   0.479808
C  -1.395077   0.126774   0.145131
H  -2.882224  -1.248645  -0.806941
H  -2.581132  -1.394535   1.138164
C  -0.219701  -0.668955  -0.060903
H  -1.302274   1.023684   1.256385
H  -1.389151   0.377307  -0.538860
H  -0.202860  -1.481825   0.954208
H   0.879264   0.028802  -0.202413
H  -0.430730  -1.225544  -0.845529
