butane_opt
 OpenBabel08242015393D

 14 13  0  0  0  0  0  0  0  0999 V2000
   -3.8251    0.2247    0.1038 C   0  0  0  0  0  0  0  0  0  0  0  0
   -2.7557   -0.5144    0.0025 C   0  0  0  0  0  0  0  0  0  0  0  0
   -4.8878   -0.6361    0.2454 H   0  0  0  0  0  0  0  0  0  0  0  0
   -3.8326    0.5858   -0.6934 H   0  0  0  0  0  0  0  0  0  0  0  0
   -3.8773    0.9253    1.0373 H   0  0  0  0  0  0  0  0  0  0  0  0
   -1.4792    0.2188   -0.1852 C   0  0  0  0  0  0  0  0  0  0  0  0
   -2.9316   -1.0087   -0.8193 H   0  0  0  0  0  0  0  0  0  0  0  0
   -2.5737   -1.1700    0.7460 H   0  0  0  0  0  0  0  0  0  0  0  0
   -0.1394   -0.7511    0.1136 C   0  0  0  0  0  0  0  0  0  0  0  0
   -1.6639    0.9898    0.6325 H   0  0  0  0  0  0  0  0  0  0  0  0
   -1.3706    0.7594   -0.9440 H   0  0  0  0  0  0  0  0  0  0  0  0
   -0.5139   -1.3052    0.9331 H   0  0  0  0  0  0  0  0  0  0  0  0
    0.8241   -0.0477    0.7045 H   0  0  0  0  0  0  0  0  0  0  0  0
    0.2217   -1.7373   -0.8184 H   0  0  0  0  0  0  0  0  0  0  0  0
  1  3  1  0  0  0  0
  1  5  1  0  0  0  0
  2  1  1  0  0  0  0
  2  8  1  0  0  0  0
  4  1  1  0  0  0  0
  6  2  1  0  0  0  0
  6  9  1  0  0  0  0
  6 10  1  0  0  0  0
  7  2  1  0  0  0  0
  9 13  1  0  0  0  0
  9 12  1  0  0  0  0
 11  6  1  0  0  0  0
 14  9  1  0  0  0  0
M  END
$$$$
