butane_opt
 OpenBabel08242015393D

 14 11  0  0  0  0  0  0  0  0999 V2000
   -3.9255    0.1802   -0.0605 C   0  0  0  0  0  0  0  0  0  0  0  0
   -2.7867   -0.5722    0.1142 C   0  0  0  0  0  0  0  0  0  0  0  0
   -4.7469   -0.2646    0.0845 H   0  0  0  0  0  0  0  0  0  0  0  0
   -3.8213    1.1667   -1.2411 H   0  0  0  0  0  0  0  0  0  0  0  0
   -3.9850    0.7425    0.7076 H   0  0  0  0  0  0  0  0  0  0  0  0
   -1.3995    0.3186    0.1221 C   0  0  0  0  0  0  0  0  0  0  0  0
   -2.9020   -1.2561   -0.7398 H   0  0  0  0  0  0  0  0  0  0  0  0
   -2.8015   -1.2010    0.9809 H   0  0  0  0  0  0  0  0  0  0  0  0
   -0.0944   -0.7615   -0.0775 C   0  0  0  0  0  0  0  0  0  0  0  0
   -1.4218    1.2323    0.9399 H   0  0  0  0  0  0  0  0  0  0  0  0
   -1.4563    0.4433   -0.4259 H   0  0  0  0  0  0  0  0  0  0  0  0
    0.1903   -1.7467    0.9014 H   0  0  0  0  0  0  0  0  0  0  0  0
    0.7341   -0.2683   -0.1616 H   0  0  0  0  0  0  0  0  0  0  0  0
   -0.3073   -1.2778   -0.7728 H   0  0  0  0  0  0  0  0  0  0  0  0
  1  3  1  0  0  0  0
  1  2  1  0  0  0  0
  1  5  1  0  0  0  0
  2  6  1  0  0  0  0
  2  8  1  0  0  0  0
  6 10  1  0  0  0  0
  7  2  1  0  0  0  0
  9  6  1  0  0  0  0
  9 12  1  0  0  0  0
 13  9  1  0  0  0  0
 14  9  1  0  0  0  0
M  RAD  4   1   2   4   2   6   2  11   2
M  END
$$$$
