14
butane_opt
C  -3.941407   0.251004   0.053653
C  -2.721917  -0.593419  -0.005840
H  -4.844497  -0.343388   0.020687
H  -3.993411   0.844182  -0.825329
H  -3.935885   0.943694   0.916622
C  -1.404205   0.198326  -0.012150
H  -2.778251  -1.301940  -0.882765
H  -2.705417  -1.249081   0.895202
C  -0.138724  -0.706867   0.062246
H  -1.411124   0.879920   0.831449
H  -1.388810   0.811268  -0.917906
H  -0.108000  -1.401679   1.022303
H   0.762686  -0.157095  -0.053662
H  -0.138882  -1.283084  -0.733846
