14
butane_opt
C  -3.934810   0.297778   0.078739
C  -2.599297  -0.701594  -0.080352
H  -4.561058  -0.151479   0.105028
H  -3.915923   0.636448  -0.814204
H  -4.011114   1.099305   0.962748
C  -1.433667   0.144323   0.014621
H  -2.750841  -1.294813  -0.949389
H  -2.654459  -1.028562   0.711551
C  -0.225641  -0.661311   0.057794
H  -1.592061   1.126246   1.038607
H  -1.349545   0.605844  -0.815194
H  -0.173981  -1.939028   1.325736
H   0.750449   0.083010  -0.701363
H  -0.474394  -0.514114  -0.183852
