14
butane_opt
C  -3.906393   0.336874   0.113147
C  -2.711917  -0.677782  -0.017997
H  -4.855953  -0.192568   0.340849
H  -4.130725   1.051413  -0.849198
H  -3.740454   1.036670   1.166478
C  -1.392135   0.065328  -0.178347
H  -2.624302  -1.460213  -0.806372
H  -2.476428  -1.110436   0.794659
C  -0.225512  -0.657522   0.115722
H  -1.601257   0.627467   0.514459
H  -1.227515   0.832612  -1.081827
H  -0.729723  -0.813495   0.774253
H   1.044531   0.291083   0.979476
H   0.109625  -1.501985  -0.825677
