butane_opt
 OpenBabel08242015393D

 14 12  0  0  0  0  0  0  0  0999 V2000
   -4.0524    0.3029    0.0681 C   0  0  0  0  0  0  0  0  0  0  0  0
   -2.6445   -0.7374   -0.0860 C   0  0  0  0  0  0  0  0  0  0  0  0
   -4.7866   -0.1088    0.0648 H   0  0  0  0  0  0  0  0  0  0  0  0
   -4.1404    0.9429   -0.6968 H   0  0  0  0  0  0  0  0  0  0  0  0
   -4.0985    1.2214    1.1296 H   0  0  0  0  0  0  0  0  0  0  0  0
   -1.3421    0.1592    0.0336 C   0  0  0  0  0  0  0  0  0  0  0  0
   -2.6126   -1.4969   -1.0353 H   0  0  0  0  0  0  0  0  0  0  0  0
   -2.6043   -1.1555    0.7570 H   0  0  0  0  0  0  0  0  0  0  0  0
   -0.1867   -0.6096    0.0948 C   0  0  0  0  0  0  0  0  0  0  0  0
   -1.6517    0.5397    0.7233 H   0  0  0  0  0  0  0  0  0  0  0  0
   -1.0114    0.8609   -0.8629 H   0  0  0  0  0  0  0  0  0  0  0  0
    0.1685   -1.7281    1.2755 H   0  0  0  0  0  0  0  0  0  0  0  0
    0.6188   -0.0033   -0.6453 H   0  0  0  0  0  0  0  0  0  0  0  0
   -0.2344   -0.8944   -0.5750 H   0  0  0  0  0  0  0  0  0  0  0  0
  1  5  1  0  0  0  0
  2  6  1  0  0  0  0
  2  1  1  0  0  0  0
  2  8  1  0  0  0  0
  3  1  1  0  0  0  0
  4  1  1  0  0  0  0
  6  9  1  0  0  0  0
  6 10  1  0  0  0  0
  7  2  1  0  0  0  0
 11  6  1  0  0  0  0
 13  9  1  0  0  0  0
 14  9  1  0  0  0  0
M  RAD  2   9   2  12   2
M  END
$$$$
