14
butane_opt
C  -3.954202   0.323326   0.123983
C  -2.642458  -0.692936  -0.124941
H  -4.781539  -0.147895  -0.002742
H  -3.861331   0.652049  -0.603760
H  -4.255255   1.203831   1.071939
C  -1.367159   0.144492   0.005597
H  -2.743484  -1.729860  -1.246526
H  -2.188782  -1.064643   0.596207
C  -0.282442  -0.650084   0.127298
H  -1.403227   0.644226   0.601174
H  -1.246091   0.809446  -0.870165
H   0.065644  -1.951397   1.433490
H   0.786820   0.009302  -0.755434
H  -0.454188  -0.349182  -0.254055
