14
butane_opt
C  -3.868807   0.251847   0.120950
C  -2.706444  -0.607281   0.020002
H  -4.926811  -0.394890  -0.585595
H  -3.592047   0.368124  -0.563532
H  -4.083324   1.526321   1.459273
C  -1.401279   0.203869  -0.156435
H  -2.836386  -1.428592  -0.867412
H  -2.624305  -1.062514   0.682394
C  -0.251949  -0.685831   0.142562
H  -1.269280   0.520038   0.521489
H  -1.654248   1.122380  -1.163329
H  -0.258946  -1.426736   1.100405
H   0.659239  -0.253973  -0.013645
H   0.283776  -1.391092  -0.593913
