14
butane_opt
C  -3.981748   0.312380   0.134817
C  -2.717089  -0.752062  -0.157798
H  -4.777777  -0.068160   0.085468
H  -4.214012   0.757518  -0.565150
H  -4.203831   1.534334   1.311321
C  -1.353493   0.151188  -0.052579
H  -2.710516  -1.562728  -1.033152
H  -2.664633  -1.217451   0.551384
C  -0.096096  -0.619244   0.102518
H  -1.460793   0.921808   0.774135
H  -1.377864   0.639819  -0.938812
H  -0.257985  -2.054560   1.636224
H   0.683027  -0.076698  -0.587889
H  -0.257105  -0.417636   0.019335
