butane_opt
 OpenBabel08242015393D

 14 10  0  0  0  0  0  0  0  0999 V2000
   -4.0243    0.2467   -0.0660 C   0  0  0  0  0  0  0  0  0  0  0  0
   -2.7367   -0.5385    0.1915 C   0  0  0  0  0  0  0  0  0  0  0  0
   -4.8740   -0.4098    0.2150 H   0  0  0  0  0  0  0  0  0  0  0  0
   -3.8828    0.9416   -1.1952 H   0  0  0  0  0  0  0  0  0  0  0  0
   -3.9445    0.5949    0.5528 H   0  0  0  0  0  0  0  0  0  0  0  0
   -1.3231    0.1846    0.0166 C   0  0  0  0  0  0  0  0  0  0  0  0
   -2.9853   -1.0805   -0.5052 H   0  0  0  0  0  0  0  0  0  0  0  0
   -2.6789   -1.3609    1.1192 H   0  0  0  0  0  0  0  0  0  0  0  0
   -0.1276   -0.7357   -0.0309 C   0  0  0  0  0  1  0  0  0  0  0  0
   -1.4263    1.1203    0.9783 H   0  0  0  0  0  0  0  0  0  0  0  0
   -1.4357    0.7522   -0.8823 H   0  0  0  0  0  0  0  0  0  0  0  0
   -0.3373   -0.6060    0.4530 H   0  0  0  0  0  0  0  0  0  0  0  0
    0.7471   -0.2356    0.5940 H   0  0  0  0  0  0  0  0  0  0  0  0
    0.3227   -2.0847   -1.3458 H   0  0  0  0  0  0  0  0  0  0  0  0
  1  2  1  0  0  0  0
  1  3  1  0  0  0  0
  1  5  1  0  0  0  0
  2  8  1  0  0  0  0
  4  1  1  0  0  0  0
  6 12  1  0  0  0  0
  6 10  1  0  0  0  0
  7  2  1  0  0  0  0
  9 13  1  0  0  0  0
 11  6  1  0  0  0  0
M  RAD  3   2   2   6   2  14   2
M  END
$$$$
