14
butane_opt
C  -3.934632   0.257953  -0.139773
C  -2.599219  -0.662113   0.231503
H  -4.633256  -0.073191  -0.342252
H  -3.826040   1.222602  -1.362712
H  -4.176608   0.721643   0.633992
C  -1.440054   0.167736   0.280372
H  -2.345611  -1.302529  -0.711349
H  -3.000608  -1.140415   1.027050
C  -0.238609  -0.644179  -0.171054
H  -1.202982   0.779118   1.118761
H  -1.584219   0.568741  -0.507064
H  -0.008409  -1.502545   0.762134
H   0.809116   0.048514  -0.602889
H  -0.527463  -1.161737  -0.980903
