14
butane_opt
C  -3.952156   0.223998  -0.025816
C  -2.717608  -0.546270   0.139632
H  -5.081185  -0.582349   0.087485
H  -3.770181   1.068672  -1.032462
H  -4.132078   0.433554   0.516817
C  -1.433220   0.291262  -0.008821
H  -2.719217  -1.028913  -0.522190
H  -2.763903  -1.481175   1.313760
C  -0.100731  -0.770306  -0.041225
H  -1.402988   1.145063   1.163818
H  -1.304514   0.691971  -0.744167
H  -0.428693  -0.923761   0.528789
H   0.726099  -0.059709   0.576639
H   0.332830  -2.174485  -1.347112
