14
butane_opt
C  -3.865129   0.215119  -0.061075
C  -2.729131  -0.532701   0.162372
H  -4.929093  -0.578110   0.051038
H  -3.584718   1.168918  -1.176690
H  -3.839135   0.599643   0.647169
C  -1.412581   0.280414   0.075405
H  -2.627399  -1.186739  -0.579600
H  -2.726517  -1.521686   1.342079
C  -0.248126  -0.775919  -0.045215
H  -1.309524   0.807135   0.721472
H  -1.533590   0.996978  -0.894157
H  -0.006755  -0.615879   0.402589
H   0.620522  -0.194901   0.790549
H  -0.009238  -2.222555  -1.521371
