14
butane_opt
C  -3.928926   0.206292  -0.085729
C  -2.736562  -0.588657   0.134703
H  -4.717658  -0.247115   0.524294
H  -4.269537   1.590983  -1.512038
H  -3.813868   0.158971   0.209097
C  -1.404609   0.251059   0.209847
H  -2.763938  -1.245807  -0.653667
H  -3.029541  -0.992904   0.843411
C  -0.115301  -0.743934  -0.107259
H  -1.168980   1.116389   1.121970
H  -1.446261   0.714238  -0.634077
H  -0.032721  -1.040197   0.680303
H   0.708717  -0.437221   0.056682
H  -0.223285  -1.598055  -1.105755
