butane_opt
 OpenBabel08242015393D

 14  7  0  0  0  0  0  0  0  0999 V2000
   -3.8997    0.2960    0.1655 C   0  0  0  0  0  0  0  0  0  0  0  0
   -2.6506   -0.6701   -0.1350 C   0  0  0  0  0  0  0  0  0  0  0  0
   -4.6179   -0.1382   -0.0086 H   0  0  0  0  0  0  0  0  0  0  0  0
   -4.3496    0.5962   -0.5726 H   0  0  0  0  0  0  0  0  0  0  0  0
   -4.2073    1.2809    1.2919 H   0  0  0  0  0  0  0  0  0  0  0  0
   -1.4125    0.1438   -0.1211 C   0  0  0  0  0  0  0  0  0  0  0  0
   -2.5811   -1.7633   -1.2670 H   0  0  0  0  0  0  0  0  0  0  0  0
   -2.5327   -1.0793    0.5689 H   0  0  0  0  0  0  0  0  0  0  0  0
   -0.2328   -0.6328    0.2029 C   0  0  0  0  0  1  0  0  0  0  0  0
   -1.5405    0.5783    0.7351 H   0  0  0  0  0  0  0  0  0  0  0  0
   -1.2601    1.0340   -1.2401 H   0  0  0  0  0  0  0  0  0  0  0  0
    0.0600   -1.7958    1.5302 H   0  0  0  0  0  0  0  0  0  0  0  0
    0.9285    0.1764   -0.4329 H   0  0  0  0  0  0  0  0  0  0  0  0
   -0.5959   -0.9355   -0.4135 H   0  0  0  0  0  0  0  0  0  0  0  0
  2  1  1  0  0  0  0
  2  8  1  0  0  0  0
  3  1  1  0  0  0  0
  4  1  1  0  0  0  0
  6 10  1  0  0  0  0
 11  6  1  0  0  0  0
 14  9  1  0  0  0  0
M  RAD  7   1   2   2   3   5   2   6   3   7   2  12   2  13   2
M  END
$$$$
