butane_opt
 OpenBabel08242015393D

 14  9  0  0  0  0  0  0  0  0999 V2000
   -3.9971    0.2426   -0.0671 C   0  0  0  0  0  1  0  0  0  0  0  0
   -2.7280   -0.5947    0.0512 C   0  0  0  0  0  0  0  0  0  0  0  0
   -4.9295   -0.3677    0.8100 H   0  0  0  0  0  0  0  0  0  0  0  0
   -4.4233    1.4126   -1.2815 H   0  0  0  0  0  0  0  0  0  0  0  0
   -3.8080    0.1614    0.3394 H   0  0  0  0  0  0  0  0  0  0  0  0
   -1.4166    0.2333    0.1092 C   0  0  0  0  0  0  0  0  0  0  0  0
   -2.7548   -1.3508   -0.7966 H   0  0  0  0  0  0  0  0  0  0  0  0
   -2.7089   -1.1409    0.9730 H   0  0  0  0  0  0  0  0  0  0  0  0
   -0.0522   -0.7452   -0.0193 C   0  0  0  0  0  0  0  0  0  0  0  0
   -1.0406    1.3499    1.3378 H   0  0  0  0  0  0  0  0  0  0  0  0
   -1.6310    0.6719   -0.6529 H   0  0  0  0  0  0  0  0  0  0  0  0
   -0.2515   -1.2304    0.6773 H   0  0  0  0  0  0  0  0  0  0  0  0
    0.9278   -0.1235   -0.0242 H   0  0  0  0  0  0  0  0  0  0  0  0
   -0.0352   -1.4882   -0.9088 H   0  0  0  0  0  0  0  0  0  0  0  0
  1  3  1  0  0  0  0
  2  5  1  0  0  0  0
  2  8  1  0  0  0  0
  7  2  1  0  0  0  0
  9  6  1  0  0  0  0
  9 12  1  0  0  0  0
 11  6  1  0  0  0  0
 13  9  1  0  0  0  0
 14  9  1  0  0  0  0
M  RAD  4   2   2   4   2   6   3  10   2
M  END
$$$$
