butane_opt
 OpenBabel08242015393D

 14 13  0  0  0  0  0  0  0  0999 V2000
   -3.9452    0.2712    0.0345 C   0  0  0  0  0  0  0  0  0  0  0  0
   -2.6832   -0.6208    0.0093 C   0  0  0  0  0  0  0  0  0  0  0  0
   -4.8636   -0.3255    0.1713 H   0  0  0  0  0  0  0  0  0  0  0  0
   -4.0446    0.9788   -0.9112 H   0  0  0  0  0  0  0  0  0  0  0  0
   -3.8927    0.8761    0.8780 H   0  0  0  0  0  0  0  0  0  0  0  0
   -1.4025    0.1626    0.0003 C   0  0  0  0  0  0  0  0  0  0  0  0
   -2.7004   -1.2928   -0.8547 H   0  0  0  0  0  0  0  0  0  0  0  0
   -2.6771   -1.2694    0.8941 H   0  0  0  0  0  0  0  0  0  0  0  0
   -0.1696   -0.6796    0.0499 C   0  0  0  0  0  0  0  0  0  0  0  0
   -1.4514    0.8724    0.8538 H   0  0  0  0  0  0  0  0  0  0  0  0
   -1.3488    0.7933   -0.8873 H   0  0  0  0  0  0  0  0  0  0  0  0
   -0.2154   -1.2725    0.9252 H   0  0  0  0  0  0  0  0  0  0  0  0
    0.7149   -0.0747    0.0524 H   0  0  0  0  0  0  0  0  0  0  0  0
   -0.1363   -1.3590   -0.8260 H   0  0  0  0  0  0  0  0  0  0  0  0
  1  3  1  0  0  0  0
  1  5  1  0  0  0  0
  2  1  1  0  0  0  0
  2  8  1  0  0  0  0
  4  1  1  0  0  0  0
  6  2  1  0  0  0  0
  6  9  1  0  0  0  0
  6 10  1  0  0  0  0
  7  2  1  0  0  0  0
  9 13  1  0  0  0  0
  9 12  1  0  0  0  0
 11  6  1  0  0  0  0
 14  9  1  0  0  0  0
M  END
$$$$
