14
butane_opt
C  -3.962985   0.214876  -0.030812
C  -2.707003  -0.560613   0.135704
H  -5.164278  -0.615203   0.257094
H  -3.976414   1.066288  -1.073615
H  -3.617048   0.722421   0.791295
C  -1.444720   0.262401  -0.003428
H  -2.769651  -1.247853  -0.666765
H  -2.899329  -1.312553   0.979242
C  -0.113477  -0.742709   0.014007
H  -1.652503   0.886173   0.820354
H  -1.313843   1.083461  -1.048814
H   0.092785  -0.850014   0.368230
H   0.754405  -0.252348   0.757913
H   0.250852  -2.055919  -1.206922
