14
butane_opt
C  -3.949873   0.263693   0.120661
C  -2.729518  -0.639230  -0.054688
H  -4.801282  -0.298735  -0.436558
H  -3.790000   0.488739  -0.613445
H  -3.968105   1.057346   1.040054
C  -1.426221   0.256302  -0.058399
H  -2.801764  -1.340287  -0.820354
H  -2.406676  -1.271644   0.843767
C  -0.134497  -0.688077   0.081456
H  -1.540049   1.016777   0.733493
H  -1.258831   0.726704  -0.825962
H  -0.052429  -1.906871   1.200722
H   0.587818  -0.313433  -0.277472
H  -0.110422  -0.942030  -0.438117
