butane_opt
 OpenBabel08242015393D

 14 10  0  0  0  0  0  0  0  0999 V2000
   -3.9216    0.1918   -0.0436 C   0  0  0  0  0  1  0  0  0  0  0  0
   -2.7857   -0.5619    0.0095 C   0  0  0  0  0  0  0  0  0  0  0  0
   -4.7612   -0.1886    0.8149 H   0  0  0  0  0  0  0  0  0  0  0  0
   -4.1625    1.4427   -1.2400 H   0  0  0  0  0  0  0  0  0  0  0  0
   -3.6242    0.2203    0.4608 H   0  0  0  0  0  0  0  0  0  0  0  0
   -1.4404    0.2973    0.1138 C   0  0  0  0  0  0  0  0  0  0  0  0
   -3.0859   -1.2529   -0.8508 H   0  0  0  0  0  0  0  0  0  0  0  0
   -2.7632   -1.1221    1.0049 H   0  0  0  0  0  0  0  0  0  0  0  0
   -0.0705   -0.7504    0.0222 C   0  0  0  0  0  0  0  0  0  0  0  0
   -1.4658    0.8481    0.9602 H   0  0  0  0  0  0  0  0  0  0  0  0
   -1.2222    0.6618   -0.6283 H   0  0  0  0  0  0  0  0  0  0  0  0
    0.0614   -1.0824    0.6452 H   0  0  0  0  0  0  0  0  0  0  0  0
    0.6164   -0.3454   -0.0649 H   0  0  0  0  0  0  0  0  0  0  0  0
    0.0126   -1.7611   -1.0324 H   0  0  0  0  0  0  0  0  0  0  0  0
  1  3  1  0  0  0  0
  2  5  1  0  0  0  0
  2  8  1  0  0  0  0
  6 10  1  0  0  0  0
  7  2  1  0  0  0  0
  9  6  1  0  0  0  0
  9 12  1  0  0  0  0
 11  6  1  0  0  0  0
 13  9  1  0  0  0  0
 14  9  1  0  0  0  0
M  RAD  3   2   2   4   2   6   2
M  END
$$$$
