butane_opt
 OpenBabel08242015393D

 14 13  0  0  0  0  0  0  0  0999 V2000
   -3.8315    0.1934   -0.1244 C   0  0  0  0  0  0  0  0  0  0  0  0
   -2.7351   -0.5424    0.3095 C   0  0  0  0  0  0  0  0  0  0  0  0
   -4.6338   -0.4552   -0.7172 H   0  0  0  0  0  0  0  0  0  0  0  0
   -3.4982    0.8802   -1.0665 H   0  0  0  0  0  0  0  0  0  0  0  0
   -4.3133    0.9110    0.6193 H   0  0  0  0  0  0  0  0  0  0  0  0
   -1.4970    0.2447    0.1695 C   0  0  0  0  0  0  0  0  0  0  0  0
   -2.6225   -1.2594   -0.4763 H   0  0  0  0  0  0  0  0  0  0  0  0
   -2.7309   -1.3420    1.2177 H   0  0  0  0  0  0  0  0  0  0  0  0
   -0.1376   -0.7180   -0.1773 C   0  0  0  0  0  0  0  0  0  0  0  0
   -1.5729    0.8326    0.8806 H   0  0  0  0  0  0  0  0  0  0  0  0
   -1.5466    0.8124   -0.7445 H   0  0  0  0  0  0  0  0  0  0  0  0
   -0.0635   -0.9956    0.5718 H   0  0  0  0  0  0  0  0  0  0  0  0
    0.6258   -0.3099    0.1295 H   0  0  0  0  0  0  0  0  0  0  0  0
   -0.2231   -1.6878   -1.1513 H   0  0  0  0  0  0  0  0  0  0  0  0
  1  2  1  0  0  0  0
  1  5  1  0  0  0  0
  2  8  1  0  0  0  0
  3  1  1  0  0  0  0
  4  1  1  0  0  0  0
  6  2  1  0  0  0  0
  6 10  1  0  0  0  0
  7  2  1  0  0  0  0
  9 13  1  0  0  0  0
  9  6  1  0  0  0  0
  9 12  1  0  0  0  0
 11  6  1  0  0  0  0
 14  9  1  0  0  0  0
M  END
$$$$
