14
butane_opt
C  -3.943428   0.232330  -0.115651
C  -2.662963  -0.531995   0.181527
H  -4.964473  -0.604585  -0.431568
H  -3.553763   0.741908  -1.070255
H  -3.649233   0.919993   0.757576
C  -1.475856   0.227867   0.153800
H  -2.697657  -1.155452  -0.632503
H  -2.868850  -1.502614   1.199525
C  -0.169708  -0.715876  -0.101768
H  -1.540954   1.232991   1.204741
H  -1.382088   0.519665  -0.455558
H   0.316763  -1.653309   1.030589
H   0.721826  -0.255043  -0.647148
H  -0.410727  -1.244417  -0.942584
