14
butane_opt
C  -3.933390   0.203077  -0.115459
C  -2.730461  -0.563378   0.076313
H  -5.029016  -0.411390   0.716011
H  -4.274325   1.577807  -1.487203
H  -3.529023   0.145428   0.273944
C  -1.405769   0.264392   0.210828
H  -3.039828  -0.857571  -0.565830
H  -2.974524  -1.353279   1.175311
C  -0.106777  -0.795371  -0.121107
H  -1.460685   1.295901   1.465769
H  -1.463358   0.793289  -0.556526
H   0.009681  -1.090057   0.651754
H   0.931922  -0.125967   0.191649
H  -0.069316  -1.773394  -1.182537
