butane_opt
 OpenBabel08242015393D

 14 12  0  0  0  0  0  0  0  0999 V2000
   -3.8644    0.2340   -0.0486 C   0  0  0  0  0  0  0  0  0  0  0  0
   -2.7113   -0.4988    0.1685 C   0  0  0  0  0  0  0  0  0  0  0  0
   -5.0193   -0.6517   -0.2651 H   0  0  0  0  0  0  0  0  0  0  0  0
   -3.5003    0.5679   -0.9715 H   0  0  0  0  0  0  0  0  0  0  0  0
   -3.9242    0.8982    0.8485 H   0  0  0  0  0  0  0  0  0  0  0  0
   -1.4596    0.2416    0.0123 C   0  0  0  0  0  0  0  0  0  0  0  0
   -2.7735   -1.0918   -0.6380 H   0  0  0  0  0  0  0  0  0  0  0  0
   -2.7739   -1.3305    1.1479 H   0  0  0  0  0  0  0  0  0  0  0  0
   -0.2129   -0.7658   -0.0149 C   0  0  0  0  0  0  0  0  0  0  0  0
   -1.0931    1.0394    1.0101 H   0  0  0  0  0  0  0  0  0  0  0  0
   -1.6528    0.6717   -0.8973 H   0  0  0  0  0  0  0  0  0  0  0  0
   -0.1567   -1.2400    0.8325 H   0  0  0  0  0  0  0  0  0  0  0  0
    0.7824   -0.0392    0.0506 H   0  0  0  0  0  0  0  0  0  0  0  0
    0.0567   -1.8376   -1.0856 H   0  0  0  0  0  0  0  0  0  0  0  0
  1  2  1  0  0  0  0
  1  5  1  0  0  0  0
  2  8  1  0  0  0  0
  3  1  1  0  0  0  0
  4  1  1  0  0  0  0
  6  2  1  0  0  0  0
  6 10  1  0  0  0  0
  7  2  1  0  0  0  0
  9  6  1  0  0  0  0
  9 13  1  0  0  0  0
  9 12  1  0  0  0  0
 11  6  1  0  0  0  0
M  RAD  2   9   2  14   2
M  END
$$$$
