14
butane_opt
C  -3.986500   0.309251   0.205122
C  -2.648738  -0.668750  -0.190617
H  -5.094251  -0.358764   0.304818
H  -4.277270   1.056416  -0.754945
H  -4.105034   1.015826   1.066407
C  -1.337310   0.120812  -0.156525
H  -2.832663  -1.324484  -1.024236
H  -2.334190  -1.211496   0.589632
C  -0.188531  -0.645074   0.185637
H  -1.350820   0.766042   0.825837
H  -1.326307   0.647778  -0.997943
H  -0.315981  -1.536870   1.228573
H   0.705682  -0.016950   0.186195
H  -0.128300  -0.911050  -0.473192
