14
butane_opt
C  -3.937312   0.273327   0.253060
C  -2.786056  -0.628513  -0.224900
H  -5.047892  -0.484620   0.693692
H  -4.259658   1.180308  -0.936964
H  -3.664079   0.567324   0.914240
C  -1.384829   0.217754  -0.167186
H  -3.027880  -1.329584  -1.305203
H  -2.535315  -0.841654   0.307394
C  -0.087831  -0.732250   0.237186
H  -1.574182   0.814762   0.646619
H  -1.395691   0.950503  -1.148475
H  -0.030857  -1.500431   1.273504
H   0.915724  -0.105643   0.320918
H  -0.050902  -1.296349  -0.497028
