14
butane_opt
C  -3.819968   0.259457   0.210605
C  -2.740430  -0.599101  -0.075403
H  -4.880228  -0.323794   0.009451
H  -3.869913   0.618105  -0.501190
H  -4.045754   1.008411   1.119412
C  -1.439355   0.157788  -0.243231
H  -2.737131  -1.445337  -1.161166
H  -2.378232  -0.813835   0.599362
C  -0.226838  -0.695354   0.219418
H  -1.528597   0.727671   0.516096
H  -1.154870   0.989266  -1.321295
H  -0.467355  -1.133135   1.152474
H   0.596652  -0.214923   0.244134
H   0.192858  -1.427736  -0.566855
