14
butane_opt
C  -4.032369   0.305972   0.147726
C  -2.685697  -0.710995  -0.041812
H  -4.740701  -0.055895  -0.733212
H  -3.916536   0.239735  -0.277526
H  -4.570264   1.569424   1.375598
C  -1.354412   0.174620  -0.110900
H  -2.645735  -1.538740  -1.089247
H  -2.362198  -1.315332   0.903571
C  -0.150311  -0.624412   0.151132
H  -1.290799   0.563002   0.464199
H  -1.132362   1.176355  -1.403284
H  -0.025104  -1.656127   1.254555
H   0.769218  -0.176094  -0.059690
H  -0.418280  -1.032731  -0.623200
