butane_opt
 OpenBabel08242015393D

 14 12  0  0  0  0  0  0  0  0999 V2000
   -3.9701    0.1965   -0.1066 C   0  0  0  0  0  0  0  0  0  0  0  0
   -2.7804   -0.5414    0.1925 C   0  0  0  0  0  0  0  0  0  0  0  0
   -5.0576   -0.4513   -0.3428 H   0  0  0  0  0  0  0  0  0  0  0  0
   -3.6860    1.0270   -1.1839 H   0  0  0  0  0  0  0  0  0  0  0  0
   -4.2255    0.6224    0.4922 H   0  0  0  0  0  0  0  0  0  0  0  0
   -1.4027    0.2957    0.2646 C   0  0  0  0  0  0  0  0  0  0  0  0
   -2.4678   -1.2978   -0.8841 H   0  0  0  0  0  0  0  0  0  0  0  0
   -3.0030   -0.9655    1.0111 H   0  0  0  0  0  0  0  0  0  0  0  0
   -0.0874   -0.7908   -0.1520 C   0  0  0  0  0  0  0  0  0  0  0  0
   -1.1820    1.0282    1.1431 H   0  0  0  0  0  0  0  0  0  0  0  0
   -1.5705    0.6702   -0.4649 H   0  0  0  0  0  0  0  0  0  0  0  0
    0.4492   -1.9162    1.0002 H   0  0  0  0  0  0  0  0  0  0  0  0
    0.9350   -0.1012   -0.8085 H   0  0  0  0  0  0  0  0  0  0  0  0
   -0.2996   -1.0246   -0.8536 H   0  0  0  0  0  0  0  0  0  0  0  0
  1  2  1  0  0  0  0
  1  5  1  0  0  0  0
  2  6  1  0  0  0  0
  2  8  1  0  0  0  0
  3  1  1  0  0  0  0
  4  1  1  0  0  0  0
  6 10  1  0  0  0  0
  7  2  1  0  0  0  0
  9  6  1  0  0  0  0
 11  6  1  0  0  0  0
 13  9  1  0  0  0  0
 14  9  1  0  0  0  0
M  RAD  2   9   2  12   2
M  END
$$$$
