butane_opt
 OpenBabel08242015393D

 14 13  0  0  0  0  0  0  0  0999 V2000
   -3.9475    0.2288    0.0116 C   0  0  0  0  0  0  0  0  0  0  0  0
   -2.7249   -0.5679    0.1242 C   0  0  0  0  0  0  0  0  0  0  0  0
   -4.9598   -0.3610   -0.4144 H   0  0  0  0  0  0  0  0  0  0  0  0
   -3.7659    0.4298   -0.6342 H   0  0  0  0  0  0  0  0  0  0  0  0
   -4.1783    1.1760    1.1198 H   0  0  0  0  0  0  0  0  0  0  0  0
   -1.4139    0.1867   -0.0620 C   0  0  0  0  0  0  0  0  0  0  0  0
   -2.7446   -1.0578   -0.6992 H   0  0  0  0  0  0  0  0  0  0  0  0
   -2.5753   -1.0711    0.8569 H   0  0  0  0  0  0  0  0  0  0  0  0
   -0.1257   -0.7227    0.0468 C   0  0  0  0  0  0  0  0  0  0  0  0
   -1.4720    0.7112    0.6787 H   0  0  0  0  0  0  0  0  0  0  0  0
   -1.0221    1.0567   -1.0850 H   0  0  0  0  0  0  0  0  0  0  0  0
   -0.0120   -1.1036    0.8794 H   0  0  0  0  0  0  0  0  0  0  0  0
    0.5846   -0.2537    0.2399 H   0  0  0  0  0  0  0  0  0  0  0  0
   -0.2767   -1.5913   -0.9424 H   0  0  0  0  0  0  0  0  0  0  0  0
  1  2  1  0  0  0  0
  1  5  1  0  0  0  0
  2  8  1  0  0  0  0
  3  1  1  0  0  0  0
  4  1  1  0  0  0  0
  6  9  1  0  0  0  0
  6  2  1  0  0  0  0
  6 10  1  0  0  0  0
  7  2  1  0  0  0  0
  9 13  1  0  0  0  0
  9 12  1  0  0  0  0
 11  6  1  0  0  0  0
 14  9  1  0  0  0  0
M  END
$$$$
