butane_opt
 OpenBabel08242015393D

 14 13  0  0  0  0  0  0  0  0999 V2000
   -3.8942    0.1867    0.0944 C   0  0  0  0  0  0  0  0  0  0  0  0
   -2.6873   -0.5380   -0.0434 C   0  0  0  0  0  0  0  0  0  0  0  0
   -4.9024   -0.4580    0.1158 H   0  0  0  0  0  0  0  0  0  0  0  0
   -3.7127    0.4777   -0.6618 H   0  0  0  0  0  0  0  0  0  0  0  0
   -3.9052    1.0396    1.1173 H   0  0  0  0  0  0  0  0  0  0  0  0
   -1.4831    0.2978   -0.1192 C   0  0  0  0  0  0  0  0  0  0  0  0
   -2.8334   -1.1900   -0.7074 H   0  0  0  0  0  0  0  0  0  0  0  0
   -2.4485   -1.1806    0.8539 H   0  0  0  0  0  0  0  0  0  0  0  0
   -0.1647   -0.7519    0.0788 C   0  0  0  0  0  0  0  0  0  0  0  0
   -1.4452    0.8804    0.7427 H   0  0  0  0  0  0  0  0  0  0  0  0
   -1.3430    0.9139   -1.0021 H   0  0  0  0  0  0  0  0  0  0  0  0
   -0.4882   -1.5050    1.1604 H   0  0  0  0  0  0  0  0  0  0  0  0
    0.6990   -0.2941    0.4045 H   0  0  0  0  0  0  0  0  0  0  0  0
    0.1472   -1.5206   -0.6908 H   0  0  0  0  0  0  0  0  0  0  0  0
  1  3  1  0  0  0  0
  1  5  1  0  0  0  0
  2  1  1  0  0  0  0
  2  8  1  0  0  0  0
  4  1  1  0  0  0  0
  6  2  1  0  0  0  0
  6  9  1  0  0  0  0
  6 10  1  0  0  0  0
  7  2  1  0  0  0  0
  9 13  1  0  0  0  0
  9 12  1  0  0  0  0
 11  6  1  0  0  0  0
 14  9  1  0  0  0  0
M  END
$$$$
