butane_opt
 OpenBabel08242015393D

 14 10  0  0  0  0  0  0  0  0999 V2000
   -3.9302    0.2657    0.1128 C   0  0  0  0  0  1  0  0  0  0  0  0
   -2.7605   -0.6405   -0.0252 C   0  0  0  0  0  0  0  0  0  0  0  0
   -4.8472   -0.2831   -0.2628 H   0  0  0  0  0  0  0  0  0  0  0  0
   -3.9043    0.1717   -0.3344 H   0  0  0  0  0  0  0  0  0  0  0  0
   -4.0581    1.4842    1.2619 H   0  0  0  0  0  0  0  0  0  0  0  0
   -1.4044    0.2821   -0.1361 C   0  0  0  0  0  0  0  0  0  0  0  0
   -2.9213   -1.4221   -1.1235 H   0  0  0  0  0  0  0  0  0  0  0  0
   -3.0370   -1.1182    0.6956 H   0  0  0  0  0  0  0  0  0  0  0  0
   -0.0634   -0.7282    0.1614 C   0  0  0  0  0  0  0  0  0  0  0  0
   -1.3306    0.5412    0.5225 H   0  0  0  0  0  0  0  0  0  0  0  0
   -1.5655    1.0302   -1.1846 H   0  0  0  0  0  0  0  0  0  0  0  0
   -0.0093   -1.5574    1.2895 H   0  0  0  0  0  0  0  0  0  0  0  0
    0.7453   -0.4154   -0.1048 H   0  0  0  0  0  0  0  0  0  0  0  0
   -0.1858   -1.0587   -0.5221 H   0  0  0  0  0  0  0  0  0  0  0  0
  2  8  1  0  0  0  0
  3  1  1  0  0  0  0
  4  2  1  0  0  0  0
  6  9  1  0  0  0  0
  6 10  1  0  0  0  0
  7  2  1  0  0  0  0
  9 12  1  0  0  0  0
 11  6  1  0  0  0  0
 13  9  1  0  0  0  0
 14  9  1  0  0  0  0
M  RAD  3   2   2   5   2   6   2
M  END
$$$$
