butane_opt
 OpenBabel08242015393D

 14 10  0  0  0  0  0  0  0  0999 V2000
   -3.8688    0.2518    0.1210 C   0  0  0  0  0  0  0  0  0  0  0  0
   -2.7064   -0.6073    0.0200 C   0  0  0  0  0  0  0  0  0  0  0  0
   -4.9268   -0.3949   -0.5856 H   0  0  0  0  0  0  0  0  0  0  0  0
   -3.5920    0.3681   -0.5635 H   0  0  0  0  0  0  0  0  0  0  0  0
   -4.0833    1.5263    1.4593 H   0  0  0  0  0  0  0  0  0  0  0  0
   -1.4013    0.2039   -0.1564 C   0  0  0  0  0  0  0  0  0  0  0  0
   -2.8364   -1.4286   -0.8674 H   0  0  0  0  0  0  0  0  0  0  0  0
   -2.6243   -1.0625    0.6824 H   0  0  0  0  0  0  0  0  0  0  0  0
   -0.2519   -0.6858    0.1426 C   0  0  0  0  0  0  0  0  0  0  0  0
   -1.2693    0.5200    0.5215 H   0  0  0  0  0  0  0  0  0  0  0  0
   -1.6542    1.1224   -1.1633 H   0  0  0  0  0  0  0  0  0  0  0  0
   -0.2589   -1.4267    1.1004 H   0  0  0  0  0  0  0  0  0  0  0  0
    0.6592   -0.2540   -0.0136 H   0  0  0  0  0  0  0  0  0  0  0  0
    0.2838   -1.3911   -0.5939 H   0  0  0  0  0  0  0  0  0  0  0  0
  2  8  1  0  0  0  0
  3  1  1  0  0  0  0
  4  1  1  0  0  0  0
  6  9  1  0  0  0  0
  6 10  1  0  0  0  0
  7  2  1  0  0  0  0
  9 12  1  0  0  0  0
 11  6  1  0  0  0  0
 13  9  1  0  0  0  0
 14  9  1  0  0  0  0
M  RAD  4   1   3   2   3   5   2   6   2
M  END
$$$$
