butane_opt
 OpenBabel08242015393D

 14 13  0  0  0  0  0  0  0  0999 V2000
   -3.9549    0.2753    0.0443 C   0  0  0  0  0  0  0  0  0  0  0  0
   -2.6971   -0.6331    0.0175 C   0  0  0  0  0  0  0  0  0  0  0  0
   -4.8302   -0.2888    0.0638 H   0  0  0  0  0  0  0  0  0  0  0  0
   -4.0351    0.8713   -0.8211 H   0  0  0  0  0  0  0  0  0  0  0  0
   -3.9429    0.9280    0.9026 H   0  0  0  0  0  0  0  0  0  0  0  0
   -1.3948    0.1855   -0.0269 C   0  0  0  0  0  0  0  0  0  0  0  0
   -2.7494   -1.3121   -0.8519 H   0  0  0  0  0  0  0  0  0  0  0  0
   -2.6478   -1.2332    0.8988 H   0  0  0  0  0  0  0  0  0  0  0  0
   -0.1629   -0.6886    0.0666 C   0  0  0  0  0  0  0  0  0  0  0  0
   -1.3935    0.7851    0.7753 H   0  0  0  0  0  0  0  0  0  0  0  0
   -1.2967    0.8644   -0.9453 H   0  0  0  0  0  0  0  0  0  0  0  0
   -0.2046   -1.2269    0.9238 H   0  0  0  0  0  0  0  0  0  0  0  0
    0.7283   -0.1013    0.1342 H   0  0  0  0  0  0  0  0  0  0  0  0
   -0.1319   -1.4335   -0.8732 H   0  0  0  0  0  0  0  0  0  0  0  0
  1  3  1  0  0  0  0
  1  5  1  0  0  0  0
  2  1  1  0  0  0  0
  2  8  1  0  0  0  0
  4  1  1  0  0  0  0
  6  2  1  0  0  0  0
  6  9  1  0  0  0  0
  6 10  1  0  0  0  0
  7  2  1  0  0  0  0
  9 13  1  0  0  0  0
  9 12  1  0  0  0  0
 11  6  1  0  0  0  0
 14  9  1  0  0  0  0
M  END
$$$$
