butane_opt
 OpenBabel08242015393D

 14  8  0  0  0  0  0  0  0  0999 V2000
   -3.9542    0.3233    0.1240 C   0  0  0  0  0  0  0  0  0  0  0  0
   -2.6425   -0.6929   -0.1249 C   0  0  0  0  0  0  0  0  0  0  0  0
   -4.7815   -0.1479   -0.0027 H   0  0  0  0  0  0  0  0  0  0  0  0
   -3.8613    0.6520   -0.6038 H   0  0  0  0  0  0  0  0  0  0  0  0
   -4.2553    1.2038    1.0719 H   0  0  0  0  0  0  0  0  0  0  0  0
   -1.3672    0.1445    0.0056 C   0  0  0  0  0  0  0  0  0  0  0  0
   -2.7435   -1.7299   -1.2465 H   0  0  0  0  0  0  0  0  0  0  0  0
   -2.1888   -1.0646    0.5962 H   0  0  0  0  0  0  0  0  0  0  0  0
   -0.2824   -0.6501    0.1273 C   0  0  0  0  0 15  0  0  0  0  0  0
   -1.4032    0.6442    0.6012 H   0  0  0  0  0  0  0  0  0  0  0  0
   -1.2461    0.8094   -0.8702 H   0  0  0  0  0  0  0  0  0  0  0  0
    0.0656   -1.9514    1.4335 H   0  0  0  0  0  0  0  0  0  0  0  0
    0.7868    0.0093   -0.7554 H   0  0  0  0  0  0  0  0  0  0  0  0
   -0.4542   -0.3492   -0.2541 H   0  0  0  0  0  0  0  0  0  0  0  0
  1  5  1  0  0  0  0
  2  1  1  0  0  0  0
  2  8  1  0  0  0  0
  3  1  1  0  0  0  0
  4  1  1  0  0  0  0
  6 10  1  0  0  0  0
 11  6  1  0  0  0  0
 14  6  1  0  0  0  0
M  RAD  5   2   3   6   2   7   2  12   2  13   2
M  END
$$$$
