butane_opt
 OpenBabel08242015393D

 14 11  0  0  0  0  0  0  0  0999 V2000
   -3.9208    0.2158    0.0821 C   0  0  0  0  0  0  0  0  0  0  0  0
   -2.8027   -0.5390   -0.0889 C   0  0  0  0  0  0  0  0  0  0  0  0
   -4.9606   -0.4945    0.0138 H   0  0  0  0  0  0  0  0  0  0  0  0
   -4.1174    0.5605   -0.5939 H   0  0  0  0  0  0  0  0  0  0  0  0
   -3.9247    1.1612    1.1567 H   0  0  0  0  0  0  0  0  0  0  0  0
   -1.3842    0.2120   -0.0525 C   0  0  0  0  0  0  0  0  0  0  0  0
   -3.0304   -1.4223   -1.1662 H   0  0  0  0  0  0  0  0  0  0  0  0
   -2.8392   -0.9808    0.6565 H   0  0  0  0  0  0  0  0  0  0  0  0
   -0.0644   -0.7433    0.0971 C   0  0  0  0  0  1  0  0  0  0  0  0
   -1.3221    1.2178    0.9759 H   0  0  0  0  0  0  0  0  0  0  0  0
   -1.6561    0.8884   -0.7988 H   0  0  0  0  0  0  0  0  0  0  0  0
    0.3494   -2.1633    1.6114 H   0  0  0  0  0  0  0  0  0  0  0  0
    0.7844   -0.4471   -0.6148 H   0  0  0  0  0  0  0  0  0  0  0  0
   -0.2041   -0.5661   -0.1169 H   0  0  0  0  0  0  0  0  0  0  0  0
  1  5  1  0  0  0  0
  2  6  1  0  0  0  0
  2  1  1  0  0  0  0
  2  8  1  0  0  0  0
  3  1  1  0  0  0  0
  4  1  1  0  0  0  0
  6 10  1  0  0  0  0
  7  2  1  0  0  0  0
 11  6  1  0  0  0  0
 13  9  1  0  0  0  0
 14  6  1  0  0  0  0
M  RAD  1  12   2
M  END
$$$$
