14
butane_opt
C  -4.004826   0.290023  -0.140039
C  -2.684101  -0.630478   0.227295
H  -4.856975  -0.112354  -0.048994
H  -4.028883   0.884248  -0.941736
H  -4.142317   0.792162   0.620094
C  -1.374331   0.131056   0.075366
H  -2.848266  -0.779451  -0.351953
H  -2.710791  -1.630650   1.311968
C  -0.109226  -0.664309  -0.082603
H  -1.287224   0.894789   0.894574
H  -1.332347   0.624148  -0.654479
H  -0.287560  -0.653028   0.421364
H   0.875043  -0.093914   0.694284
H  -0.327885  -1.949477  -1.536068
