14
butane_opt
C  -3.912623   0.230027  -0.073222
C  -2.772740  -0.537499   0.024738
H  -5.011425  -0.537770   0.965437
H  -3.869147   1.288316  -1.217518
H  -3.437808   0.206506   0.411078
C  -1.412656   0.261285   0.107052
H  -2.642628  -1.144575  -0.796100
H  -2.620976  -1.159605   0.967917
C  -0.161877  -0.770596  -0.035641
H  -1.215913   1.164745   1.268277
H  -1.688003   0.534857  -0.450425
H  -0.070907  -1.434167   0.790488
H   0.616553  -0.119427   0.062656
H   0.033146  -1.478908  -0.873575
