butane_opt
 OpenBabel08242015393D

 14 11  0  0  0  0  0  0  0  0999 V2000
   -3.9722    0.2494    0.1545 C   0  0  0  0  0  0  0  0  0  0  0  0
   -2.7344   -0.5425   -0.0959 C   0  0  0  0  0  0  0  0  0  0  0  0
   -5.0445   -0.6209    0.4223 H   0  0  0  0  0  0  0  0  0  0  0  0
   -4.1867    0.5484   -0.5700 H   0  0  0  0  0  0  0  0  0  0  0  0
   -3.7835    0.8767    1.1355 H   0  0  0  0  0  0  0  0  0  0  0  0
   -1.4336    0.2529   -0.2204 C   0  0  0  0  0  0  0  0  0  0  0  0
   -3.0311   -1.5003   -1.0653 H   0  0  0  0  0  0  0  0  0  0  0  0
   -2.6227   -1.2497    0.9243 H   0  0  0  0  0  0  0  0  0  0  0  0
   -0.0593   -0.7310    0.2280 C   0  0  0  0  0  0  0  0  0  0  0  0
   -1.5634    0.6291    0.3730 H   0  0  0  0  0  0  0  0  0  0  0  0
   -1.1681    1.2243   -1.3216 H   0  0  0  0  0  0  0  0  0  0  0  0
   -0.1599   -0.9311    0.7912 H   0  0  0  0  0  0  0  0  0  0  0  0
    0.5982   -0.3845    0.8168 H   0  0  0  0  0  0  0  0  0  0  0  0
    0.3746   -1.8504   -0.8914 H   0  0  0  0  0  0  0  0  0  0  0  0
  1  3  1  0  0  0  0
  1  5  1  0  0  0  0
  2  1  1  0  0  0  0
  2  8  1  0  0  0  0
  4  1  1  0  0  0  0
  6  2  1  0  0  0  0
  6  9  1  0  0  0  0
  6 10  1  0  0  0  0
  7  2  1  0  0  0  0
  9 13  1  0  0  0  0
 11  6  1  0  0  0  0
M  RAD  3   9   3  12   2  14   2
M  END
$$$$
