14
butane_opt
C  -3.953059   0.299532  -0.087585
C  -2.663705  -0.660361   0.179157
H  -4.868596  -0.324554   0.211784
H  -4.229103   1.408311  -1.229264
H  -4.269451   0.803063   0.696498
C  -1.440404   0.105497   0.053408
H  -2.696902  -1.260061  -0.514507
H  -2.657838  -1.492759   1.329216
C  -0.134239  -0.637515  -0.107127
H  -1.216135   0.909582   1.142364
H  -1.360411   0.566134  -0.820331
H  -0.588242  -0.680687   0.493785
H   1.038343   0.057440   0.867405
H   0.130398  -1.717227  -1.285076
