butane_opt
 OpenBabel08242015393D

 14 13  0  0  0  0  0  0  0  0999 V2000
   -3.9800    0.2140    0.2398 C   0  0  0  0  0  0  0  0  0  0  0  0
   -2.7020   -0.5421   -0.1320 C   0  0  0  0  0  0  0  0  0  0  0  0
   -4.9268   -0.4128    0.2304 H   0  0  0  0  0  0  0  0  0  0  0  0
   -3.9189    0.5651   -0.5430 H   0  0  0  0  0  0  0  0  0  0  0  0
   -4.0061    1.0350    1.1915 H   0  0  0  0  0  0  0  0  0  0  0  0
   -1.4254    0.2291   -0.3287 C   0  0  0  0  0  0  0  0  0  0  0  0
   -2.9494   -1.2314   -1.0191 H   0  0  0  0  0  0  0  0  0  0  0  0
   -2.3764   -1.1411    0.7638 H   0  0  0  0  0  0  0  0  0  0  0  0
   -0.1232   -0.7168    0.2489 C   0  0  0  0  0  0  0  0  0  0  0  0
   -1.3090    0.6576    0.3995 H   0  0  0  0  0  0  0  0  0  0  0  0
   -1.2232    0.9025   -1.1089 H   0  0  0  0  0  0  0  0  0  0  0  0
   -0.6034   -0.9874    1.0215 H   0  0  0  0  0  0  0  0  0  0  0  0
    0.6999   -0.4280    0.8539 H   0  0  0  0  0  0  0  0  0  0  0  0
    0.4214   -1.6880   -0.6957 H   0  0  0  0  0  0  0  0  0  0  0  0
  1  5  1  0  0  0  0
  2  1  1  0  0  0  0
  2  8  1  0  0  0  0
  3  1  1  0  0  0  0
  4  1  1  0  0  0  0
  6  2  1  0  0  0  0
  6  9  1  0  0  0  0
  6 10  1  0  0  0  0
  7  2  1  0  0  0  0
  9 13  1  0  0  0  0
  9 12  1  0  0  0  0
 11  6  1  0  0  0  0
 14  9  1  0  0  0  0
M  END
$$$$
