14
butane_opt
C  -3.905156   0.233105   0.238801
C  -2.648329  -0.585416  -0.225924
H  -4.846516  -0.421782   0.481959
H  -4.051328   1.011304  -0.726909
H  -3.439591   0.677584   1.053043
C  -1.457881   0.199332  -0.204341
H  -2.912581  -1.263649  -1.093326
H  -2.585176  -1.009426   0.699277
C  -0.210064  -0.699598   0.219649
H  -1.579096   0.870332   0.635868
H  -1.240181   0.752375  -1.065461
H  -0.308166  -1.414769   1.146193
H   0.379669  -0.204311   0.409631
H   0.219051  -1.265314  -0.468254
