butane_opt
 OpenBabel08242015393D

 14 13  0  0  0  0  0  0  0  0999 V2000
   -4.0238    0.2566   -0.1359 C   0  0  0  0  0  0  0  0  0  0  0  0
   -2.7277   -0.6140    0.1929 C   0  0  0  0  0  0  0  0  0  0  0  0
   -4.9396   -0.3024   -0.4939 H   0  0  0  0  0  0  0  0  0  0  0  0
   -3.7657    0.9766   -0.9553 H   0  0  0  0  0  0  0  0  0  0  0  0
   -4.2718    1.0026    0.7086 H   0  0  0  0  0  0  0  0  0  0  0  0
   -1.3384    0.1624    0.1991 C   0  0  0  0  0  0  0  0  0  0  0  0
   -2.4336   -1.0400   -0.3571 H   0  0  0  0  0  0  0  0  0  0  0  0
   -2.7327   -1.3049    1.0513 H   0  0  0  0  0  0  0  0  0  0  0  0
   -0.1625   -0.6963   -0.1458 C   0  0  0  0  0  0  0  0  0  0  0  0
   -0.9138    1.0307    1.1590 H   0  0  0  0  0  0  0  0  0  0  0  0
   -1.6379    0.5963   -0.5415 H   0  0  0  0  0  0  0  0  0  0  0  0
    0.2262   -1.5722    0.8835 H   0  0  0  0  0  0  0  0  0  0  0  0
    0.8306    0.0253   -0.3673 H   0  0  0  0  0  0  0  0  0  0  0  0
   -0.3668   -1.1966   -0.9211 H   0  0  0  0  0  0  0  0  0  0  0  0
  1  2  1  0  0  0  0
  1  5  1  0  0  0  0
  2  6  1  0  0  0  0
  2  8  1  0  0  0  0
  3  1  1  0  0  0  0
  4  1  1  0  0  0  0
  6 10  1  0  0  0  0
  7  2  1  0  0  0  0
  9  6  1  0  0  0  0
  9 12  1  0  0  0  0
 11  6  1  0  0  0  0
 13  9  1  0  0  0  0
 14  9  1  0  0  0  0
M  END
$$$$
