butane_opt
 OpenBabel08242015393D

 14 13  0  0  0  0  0  0  0  0999 V2000
   -3.8800    0.3170    0.1021 C   0  0  0  0  0  0  0  0  0  0  0  0
   -2.6352   -0.6999   -0.1424 C   0  0  0  0  0  0  0  0  0  0  0  0
   -4.7043   -0.1119    0.8410 H   0  0  0  0  0  0  0  0  0  0  0  0
   -4.2887    1.0879   -0.8971 H   0  0  0  0  0  0  0  0  0  0  0  0
   -3.6171    0.7918    0.9402 H   0  0  0  0  0  0  0  0  0  0  0  0
   -1.4515    0.1499   -0.0393 C   0  0  0  0  0  0  0  0  0  0  0  0
   -2.7505   -1.6927   -1.2340 H   0  0  0  0  0  0  0  0  0  0  0  0
   -2.7701   -0.9554    0.6509 H   0  0  0  0  0  0  0  0  0  0  0  0
   -0.2371   -0.6447    0.1789 C   0  0  0  0  0  0  0  0  0  0  0  0
   -1.3807    0.5251    0.5791 H   0  0  0  0  0  0  0  0  0  0  0  0
   -1.5133    0.8223   -0.9937 H   0  0  0  0  0  0  0  0  0  0  0  0
   -0.1212   -1.3248    1.0011 H   0  0  0  0  0  0  0  0  0  0  0  0
    0.8081    0.0539   -0.0545 H   0  0  0  0  0  0  0  0  0  0  0  0
   -0.2876   -1.0587   -0.5393 H   0  0  0  0  0  0  0  0  0  0  0  0
  1  3  1  0  0  0  0
  1  5  1  0  0  0  0
  2  6  1  0  0  0  0
  2  1  1  0  0  0  0
  2  8  1  0  0  0  0
  4  1  1  0  0  0  0
  6  9  1  0  0  0  0
  6 10  1  0  0  0  0
  7  2  1  0  0  0  0
  9 12  1  0  0  0  0
 11  6  1  0  0  0  0
 13  9  1  0  0  0  0
 14  9  1  0  0  0  0
M  END
$$$$
