butane_opt
 OpenBabel08242015393D

 14 10  0  0  0  0  0  0  0  0999 V2000
   -3.9764    0.2929    0.0624 C   0  0  0  0  0  0  0  0  0  0  0  0
   -2.6712   -0.7143   -0.0786 C   0  0  0  0  0  0  0  0  0  0  0  0
   -4.7908   -0.1711    0.0755 H   0  0  0  0  0  0  0  0  0  0  0  0
   -4.3020    0.9622   -0.8503 H   0  0  0  0  0  0  0  0  0  0  0  0
   -3.9867    1.2216    1.1070 H   0  0  0  0  0  0  0  0  0  0  0  0
   -1.3995    0.1554    0.0324 C   0  0  0  0  0  0  0  0  0  0  0  0
   -3.0888   -1.4789   -1.0389 H   0  0  0  0  0  0  0  0  0  0  0  0
   -2.6879   -1.0266    0.5582 H   0  0  0  0  0  0  0  0  0  0  0  0
   -0.1405   -0.6385    0.1273 C   0  0  0  0  0  1  0  0  0  0  0  0
   -1.5186    0.6900    0.7140 H   0  0  0  0  0  0  0  0  0  0  0  0
   -1.2788    0.8507   -0.8153 H   0  0  0  0  0  0  0  0  0  0  0  0
    0.3828   -1.7931    1.1097 H   0  0  0  0  0  0  0  0  0  0  0  0
    0.8521   -0.0188   -0.7584 H   0  0  0  0  0  0  0  0  0  0  0  0
   -0.3900   -0.7891   -0.3455 H   0  0  0  0  0  0  0  0  0  0  0  0
  1  3  1  0  0  0  0
  1  5  1  0  0  0  0
  2  1  1  0  0  0  0
  2  8  1  0  0  0  0
  4  1  1  0  0  0  0
  6 10  1  0  0  0  0
  7  2  1  0  0  0  0
 11  6  1  0  0  0  0
 13  9  1  0  0  0  0
 14  6  1  0  0  0  0
M  RAD  3   2   2   6   2  12   2
M  END
$$$$
