butane_opt
 OpenBabel08242015393D

 14 11  0  0  0  0  0  0  0  0999 V2000
   -3.9373    0.2733    0.2531 C   0  0  0  0  0  0  0  0  0  0  0  0
   -2.7861   -0.6285   -0.2249 C   0  0  0  0  0  0  0  0  0  0  0  0
   -5.0479   -0.4846    0.6937 H   0  0  0  0  0  0  0  0  0  0  0  0
   -4.2597    1.1803   -0.9370 H   0  0  0  0  0  0  0  0  0  0  0  0
   -3.6641    0.5673    0.9142 H   0  0  0  0  0  0  0  0  0  0  0  0
   -1.3848    0.2178   -0.1672 C   0  0  0  0  0  0  0  0  0  0  0  0
   -3.0279   -1.3296   -1.3052 H   0  0  0  0  0  0  0  0  0  0  0  0
   -2.5353   -0.8417    0.3074 H   0  0  0  0  0  0  0  0  0  0  0  0
   -0.0878   -0.7322    0.2372 C   0  0  0  0  0  0  0  0  0  0  0  0
   -1.5742    0.8148    0.6466 H   0  0  0  0  0  0  0  0  0  0  0  0
   -1.3957    0.9505   -1.1485 H   0  0  0  0  0  0  0  0  0  0  0  0
   -0.0309   -1.5004    1.2735 H   0  0  0  0  0  0  0  0  0  0  0  0
    0.9157   -0.1056    0.3209 H   0  0  0  0  0  0  0  0  0  0  0  0
   -0.0509   -1.2963   -0.4970 H   0  0  0  0  0  0  0  0  0  0  0  0
  1  3  1  0  0  0  0
  1  5  1  0  0  0  0
  2  6  1  0  0  0  0
  2  1  1  0  0  0  0
  6  9  1  0  0  0  0
  6 10  1  0  0  0  0
  7  2  1  0  0  0  0
  9 13  1  0  0  0  0
  9 12  1  0  0  0  0
 11  6  1  0  0  0  0
 14  9  1  0  0  0  0
M  RAD  4   1   2   2   2   4   2   8   2
M  END
$$$$
