14
butane_opt
C  -3.910925   0.302552   0.212712
C  -2.644947  -0.634372  -0.114807
H  -4.853852  -0.348568   0.123273
H  -4.142616   1.019039  -0.600918
H  -3.729582   0.998700   1.125070
C  -1.383598   0.138642  -0.230697
H  -2.907029  -1.471325  -1.087187
H  -2.668257  -1.062659   0.686565
C  -0.229033  -0.698640   0.237599
H  -1.753753   0.637894   0.297220
H  -1.209075   0.773760  -1.163933
H  -0.537466  -1.033209   0.957606
H   0.986134   0.221481   0.486100
H  -0.193604  -1.479716  -0.682848
