butane_opt
 OpenBabel08242015393D

 14 13  0  0  0  0  0  0  0  0999 V2000
   -3.8549    0.2001   -0.1252 C   0  0  0  0  0  0  0  0  0  0  0  0
   -2.6903   -0.5565    0.2684 C   0  0  0  0  0  0  0  0  0  0  0  0
   -4.8585   -0.3604   -1.0080 H   0  0  0  0  0  0  0  0  0  0  0  0
   -3.3328    0.5426   -0.8624 H   0  0  0  0  0  0  0  0  0  0  0  0
   -4.0559    1.1677    0.9815 H   0  0  0  0  0  0  0  0  0  0  0  0
   -1.4458    0.2799    0.1108 C   0  0  0  0  0  0  0  0  0  0  0  0
   -2.8023   -1.0221   -0.4128 H   0  0  0  0  0  0  0  0  0  0  0  0
   -3.1054   -1.4691    1.3680 H   0  0  0  0  0  0  0  0  0  0  0  0
   -0.1745   -0.7769   -0.1498 C   0  0  0  0  0  0  0  0  0  0  0  0
   -1.2100    0.9967    1.1931 H   0  0  0  0  0  0  0  0  0  0  0  0
   -1.8978    0.8726   -0.7079 H   0  0  0  0  0  0  0  0  0  0  0  0
   -0.2032   -1.2966    0.6872 H   0  0  0  0  0  0  0  0  0  0  0  0
    0.6611   -0.3027   -0.0703 H   0  0  0  0  0  0  0  0  0  0  0  0
   -0.2150   -1.3780   -0.9558 H   0  0  0  0  0  0  0  0  0  0  0  0
  1  2  1  0  0  0  0
  1  5  1  0  0  0  0
  2  8  1  0  0  0  0
  3  1  1  0  0  0  0
  4  1  1  0  0  0  0
  6  2  1  0  0  0  0
  6 10  1  0  0  0  0
  7  2  1  0  0  0  0
  9 13  1  0  0  0  0
  9  6  1  0  0  0  0
  9 12  1  0  0  0  0
 11  6  1  0  0  0  0
 14  9  1  0  0  0  0
M  END
$$$$
