14
butane_opt
C  -3.967770   0.313314   0.146776
C  -2.673544  -0.633842  -0.130389
H  -5.035870  -0.312230   0.057719
H  -4.086949   0.826946  -0.795609
H  -3.850854   1.203001   1.219046
C  -1.341485   0.105622  -0.080393
H  -2.520831  -1.607600  -1.145627
H  -2.542736  -1.201134   0.697516
C  -0.206663  -0.664158   0.183175
H  -1.413352   0.722363   0.693594
H  -1.101656   0.945247  -1.020212
H  -0.046557  -1.652848   1.273106
H   0.690865   0.003571  -0.339254
H  -0.796104  -0.859317  -0.553317
