butane_opt
 OpenBabel08242015393D

 14 13  0  0  0  0  0  0  0  0999 V2000
   -3.8995    0.2633   -0.0797 C   0  0  0  0  0  0  0  0  0  0  0  0
   -2.7214   -0.5746    0.0320 C   0  0  0  0  0  0  0  0  0  0  0  0
   -5.1054   -0.6174   -0.0588 H   0  0  0  0  0  0  0  0  0  0  0  0
   -3.8570    0.7798   -0.9850 H   0  0  0  0  0  0  0  0  0  0  0  0
   -3.9060    0.7768    0.6708 H   0  0  0  0  0  0  0  0  0  0  0  0
   -1.4532    0.1925    0.1938 C   0  0  0  0  0  0  0  0  0  0  0  0
   -2.3958   -1.0110   -0.4959 H   0  0  0  0  0  0  0  0  0  0  0  0
   -2.6407   -1.4657    1.1394 H   0  0  0  0  0  0  0  0  0  0  0  0
   -0.1583   -0.7326   -0.0483 C   0  0  0  0  0  0  0  0  0  0  0  0
   -1.3172    1.1790    1.2906 H   0  0  0  0  0  0  0  0  0  0  0  0
   -1.5313    0.7937   -0.6237 H   0  0  0  0  0  0  0  0  0  0  0  0
    0.2250   -1.4987    1.0270 H   0  0  0  0  0  0  0  0  0  0  0  0
    0.7288   -0.1213   -0.8521 H   0  0  0  0  0  0  0  0  0  0  0  0
   -0.4124   -1.1146   -0.8503 H   0  0  0  0  0  0  0  0  0  0  0  0
  1  3  1  0  0  0  0
  1  2  1  0  0  0  0
  1  5  1  0  0  0  0
  2  6  1  0  0  0  0
  2  8  1  0  0  0  0
  4  1  1  0  0  0  0
  6 10  1  0  0  0  0
  7  2  1  0  0  0  0
  9  6  1  0  0  0  0
  9 12  1  0  0  0  0
 11  6  1  0  0  0  0
 13  9  1  0  0  0  0
 14  9  1  0  0  0  0
M  END
$$$$
