butane_opt
 OpenBabel08242015393D

 14 13  0  0  0  0  0  0  0  0999 V2000
   -4.0004    0.3290   -0.1087 C   0  0  0  0  0  0  0  0  0  0  0  0
   -2.7104   -0.7163    0.1248 C   0  0  0  0  0  0  0  0  0  0  0  0
   -4.7471   -0.1075    0.2936 H   0  0  0  0  0  0  0  0  0  0  0  0
   -4.0287    1.3278   -1.2515 H   0  0  0  0  0  0  0  0  0  0  0  0
   -4.1743    0.7387    0.5385 H   0  0  0  0  0  0  0  0  0  0  0  0
   -1.3250    0.1288    0.2094 C   0  0  0  0  0  0  0  0  0  0  0  0
   -2.5552   -1.5568   -0.7525 H   0  0  0  0  0  0  0  0  0  0  0  0
   -2.6457   -1.1466    0.9826 H   0  0  0  0  0  0  0  0  0  0  0  0
   -0.1820   -0.6239   -0.0698 C   0  0  0  0  0  0  0  0  0  0  0  0
   -1.3043    0.9400    1.1274 H   0  0  0  0  0  0  0  0  0  0  0  0
   -1.0801    0.7015   -0.6868 H   0  0  0  0  0  0  0  0  0  0  0  0
    0.1165   -1.5161    0.8664 H   0  0  0  0  0  0  0  0  0  0  0  0
    0.6296    0.0943   -0.4965 H   0  0  0  0  0  0  0  0  0  0  0  0
   -0.6410   -1.3418   -1.0791 H   0  0  0  0  0  0  0  0  0  0  0  0
  1  2  1  0  0  0  0
  1  3  1  0  0  0  0
  1  5  1  0  0  0  0
  2  6  1  0  0  0  0
  2  8  1  0  0  0  0
  4  1  1  0  0  0  0
  6 10  1  0  0  0  0
  7  2  1  0  0  0  0
  9  6  1  0  0  0  0
  9 12  1  0  0  0  0
 11  6  1  0  0  0  0
 13  9  1  0  0  0  0
 14  9  1  0  0  0  0
M  END
$$$$
