butane_opt
 OpenBabel08242015393D

 14  8  0  0  0  0  0  0  0  0999 V2000
   -4.0225    0.2141   -0.0441 C   0  0  0  0  0  1  0  0  0  0  0  0
   -2.7063   -0.5998    0.0765 C   0  0  0  0  0  0  0  0  0  0  0  0
   -4.7435   -0.2001    0.5773 H   0  0  0  0  0  0  0  0  0  0  0  0
   -4.2339    1.5291   -1.2978 H   0  0  0  0  0  0  0  0  0  0  0  0
   -3.7417    0.0412    0.2212 H   0  0  0  0  0  0  0  0  0  0  0  0
   -1.3588    0.2536    0.1064 C   0  0  0  0  0  1  0  0  0  0  0  0
   -2.6942   -1.1812   -0.7918 H   0  0  0  0  0  0  0  0  0  0  0  0
   -2.7978   -1.2421    0.9530 H   0  0  0  0  0  0  0  0  0  0  0  0
   -0.1369   -0.7077   -0.0679 C   0  0  0  0  0  0  0  0  0  0  0  0
   -1.3197    1.3521    1.2109 H   0  0  0  0  0  0  0  0  0  0  0  0
   -1.5255    0.4759   -0.3653 H   0  0  0  0  0  0  0  0  0  0  0  0
    0.1127   -1.2629    0.8727 H   0  0  0  0  0  0  0  0  0  0  0  0
    0.5359   -0.2809    0.0845 H   0  0  0  0  0  0  0  0  0  0  0  0
    0.0685   -1.6367   -0.9803 H   0  0  0  0  0  0  0  0  0  0  0  0
  1  3  1  0  0  0  0
  2  5  1  0  0  0  0
  2  8  1  0  0  0  0
  7  2  1  0  0  0  0
  9 13  1  0  0  0  0
  9  6  1  0  0  0  0
  9 12  1  0  0  0  0
 14  9  1  0  0  0  0
M  RAD  4   2   2   4   2  10   2  11   2
M  END
$$$$
