butane_opt
 OpenBabel08242015393D

 14 11  0  0  0  0  0  0  0  0999 V2000
   -3.8343    0.1866    0.1663 C   0  0  0  0  0  0  0  0  0  0  0  0
   -2.6747   -0.5384   -0.1798 C   0  0  0  0  0  0  0  0  0  0  0  0
   -4.8977   -0.4777    0.1440 H   0  0  0  0  0  0  0  0  0  0  0  0
   -4.3242    0.7417   -0.5820 H   0  0  0  0  0  0  0  0  0  0  0  0
   -3.6326    0.9747    1.0890 H   0  0  0  0  0  0  0  0  0  0  0  0
   -1.4392    0.2292   -0.0889 C   0  0  0  0  0  0  0  0  0  0  0  0
   -2.7080   -1.5235   -1.0816 H   0  0  0  0  0  0  0  0  0  0  0  0
   -2.7669   -0.8019    0.4642 H   0  0  0  0  0  0  0  0  0  0  0  0
   -0.1942   -0.7552    0.2075 C   0  0  0  0  0  1  0  0  0  0  0  0
   -1.8145    0.8314    0.6776 H   0  0  0  0  0  0  0  0  0  0  0  0
   -1.5877    1.0234   -1.0553 H   0  0  0  0  0  0  0  0  0  0  0  0
    0.1639   -1.6983    1.4515 H   0  0  0  0  0  0  0  0  0  0  0  0
    0.7185   -0.2360   -0.6024 H   0  0  0  0  0  0  0  0  0  0  0  0
   -0.4230   -0.7898   -0.2807 H   0  0  0  0  0  0  0  0  0  0  0  0
  1  5  1  0  0  0  0
  2  6  1  0  0  0  0
  2  1  1  0  0  0  0
  2  8  1  0  0  0  0
  3  1  1  0  0  0  0
  4  1  1  0  0  0  0
  6 10  1  0  0  0  0
  7  2  1  0  0  0  0
 11  6  1  0  0  0  0
 13  9  1  0  0  0  0
 14  6  1  0  0  0  0
M  RAD  1  12   2
M  END
$$$$
