14
butane_opt
C  -3.834285   0.186591   0.166348
C  -2.674704  -0.538421  -0.179783
H  -4.897672  -0.477669   0.144029
H  -4.324159   0.741664  -0.581994
H  -3.632642   0.974701   1.089048
C  -1.439158   0.229197  -0.088866
H  -2.708013  -1.523482  -1.081649
H  -2.766919  -0.801912   0.464208
C  -0.194162  -0.755177   0.207538
H  -1.814464   0.831356   0.677588
H  -1.587737   1.023376  -1.055338
H   0.163940  -1.698269   1.451518
H   0.718546  -0.236026  -0.602441
H  -0.423006  -0.789788  -0.280717
