14
butane_opt
C  -3.854857   0.200063  -0.125246
C  -2.690321  -0.556514   0.268365
H  -4.858463  -0.360413  -1.007981
H  -3.332765   0.542644  -0.862384
H  -4.055876   1.167690   0.981455
C  -1.445841   0.279880   0.110751
H  -2.802263  -1.022091  -0.412762
H  -3.105355  -1.469097   1.367991
C  -0.174547  -0.776924  -0.149819
H  -1.209997   0.996688   1.193127
H  -1.897763   0.872596  -0.707917
H  -0.203232  -1.296643   0.687233
H   0.661144  -0.302742  -0.070259
H  -0.215047  -1.378032  -0.955844
