butane_opt
 OpenBabel08242015393D

 14 10  0  0  0  0  0  0  0  0999 V2000
   -3.8651    0.2151   -0.0611 C   0  0  0  0  0  0  0  0  0  0  0  0
   -2.7291   -0.5327    0.1624 C   0  0  0  0  0  0  0  0  0  0  0  0
   -4.9291   -0.5781    0.0510 H   0  0  0  0  0  0  0  0  0  0  0  0
   -3.5847    1.1689   -1.1767 H   0  0  0  0  0  0  0  0  0  0  0  0
   -3.8391    0.5996    0.6472 H   0  0  0  0  0  0  0  0  0  0  0  0
   -1.4126    0.2804    0.0754 C   0  0  0  0  0  0  0  0  0  0  0  0
   -2.6274   -1.1867   -0.5796 H   0  0  0  0  0  0  0  0  0  0  0  0
   -2.7265   -1.5217    1.3421 H   0  0  0  0  0  0  0  0  0  0  0  0
   -0.2481   -0.7759   -0.0452 C   0  0  0  0  0  0  0  0  0  0  0  0
   -1.3095    0.8071    0.7215 H   0  0  0  0  0  0  0  0  0  0  0  0
   -1.5336    0.9970   -0.8942 H   0  0  0  0  0  0  0  0  0  0  0  0
   -0.0068   -0.6159    0.4026 H   0  0  0  0  0  0  0  0  0  0  0  0
    0.6205   -0.1949    0.7905 H   0  0  0  0  0  0  0  0  0  0  0  0
   -0.0092   -2.2226   -1.5214 H   0  0  0  0  0  0  0  0  0  0  0  0
  1  3  1  0  0  0  0
  1  2  1  0  0  0  0
  1  5  1  0  0  0  0
  4  1  1  0  0  0  0
  6  2  1  0  0  0  0
  6 10  1  0  0  0  0
  7  2  1  0  0  0  0
  9  6  1  0  0  0  0
  9 13  1  0  0  0  0
 11  6  1  0  0  0  0
M  RAD  5   2   2   8   2   9   3  12   2  14   2
M  END
$$$$
