14
butane_opt
C  -4.010411   0.233782   0.184758
C  -2.745278  -0.556895  -0.156030
H  -4.801060  -0.313581   0.506675
H  -4.227507   0.834071  -0.704332
H  -3.738020   0.682088   0.789138
C  -1.374749   0.190651  -0.121775
H  -2.797007  -1.432971  -1.255125
H  -2.722555  -0.930040   0.624953
C  -0.096495  -0.704867   0.206745
H  -1.829013   0.731394   0.619091
H  -1.248083   0.985520  -1.091438
H   0.286340  -1.517073   1.090207
H   0.907663  -0.136989   0.111122
H  -0.164300  -1.301110  -0.590288
