14
butane_opt
C  -3.899733   0.295987   0.165488
C  -2.650568  -0.670083  -0.135031
H  -4.617905  -0.138239  -0.008585
H  -4.349579   0.596218  -0.572552
H  -4.207329   1.280880   1.291912
C  -1.412499   0.143753  -0.121122
H  -2.581056  -1.763342  -1.267002
H  -2.532748  -1.079319   0.568941
C  -0.232783  -0.632785   0.202851
H  -1.540539   0.578275   0.735130
H  -1.260124   1.034002  -1.240060
H   0.060030  -1.795770   1.530172
H   0.928500   0.176442  -0.432947
H  -0.595880  -0.935455  -0.413541
