14
butane_opt
C  -3.907868   0.337464  -0.049435
C  -2.634952  -0.692276   0.098883
H  -4.704318  -0.156073   0.504627
H  -4.357999   1.680192  -1.382799
H  -3.994709   0.224301   0.259564
C  -1.394141   0.097228   0.163712
H  -2.941008  -1.402940  -0.718149
H  -2.665678  -1.190191   0.824293
C  -0.219230  -0.638394  -0.079013
H  -1.308480   0.836728   1.002409
H  -1.385251   0.629336  -0.699681
H  -0.304275  -0.826780   0.813569
H   0.835082   0.131012   0.274194
H  -0.355385  -1.613678  -1.181678
