14
butane_opt
C  -3.957144   0.259057  -0.027528
C  -2.792806  -0.637800   0.137117
H  -4.911448  -0.420061  -0.050324
H  -3.851399   0.958405  -0.974533
H  -4.027410   0.860345   0.858974
C  -1.367220   0.234651  -0.037392
H  -2.811934  -0.822537  -0.496155
H  -2.808553  -1.411499   1.114594
C  -0.057592  -0.712452   0.002905
H  -1.398548   0.989853   0.953899
H  -1.604638   0.802748  -0.864433
H  -0.398828  -0.807576   0.546542
H   0.747320  -0.225834   0.538279
H   0.152062  -2.159015  -1.170860
