14
butane_opt
C  -3.971844   0.216295  -0.107223
C  -2.724454  -0.514824   0.199267
H  -5.089754  -0.522077  -0.529869
H  -3.718862   0.491870  -0.704516
H  -4.195631   1.216130   1.080755
C  -1.400848   0.237899   0.074789
H  -2.538226  -0.976964  -0.427961
H  -2.970710  -1.558420   1.282518
C  -0.135246  -0.762697  -0.100469
H  -1.244226   0.890829   0.969085
H  -1.165549   0.894780  -0.857198
H  -0.026879  -1.338321   0.785975
H   0.775337  -0.120810   0.201909
H  -0.022091  -1.614544  -1.128684
