butane_opt
 OpenBabel08242015393D

 14 10  0  0  0  0  0  0  0  0999 V2000
   -4.0324    0.3060    0.1477 C   0  0  0  0  0  0  0  0  0  0  0  0
   -2.6857   -0.7110   -0.0418 C   0  0  0  0  0  0  0  0  0  0  0  0
   -4.7407   -0.0559   -0.7332 H   0  0  0  0  0  0  0  0  0  0  0  0
   -3.9165    0.2397   -0.2775 H   0  0  0  0  0  0  0  0  0  0  0  0
   -4.5703    1.5694    1.3756 H   0  0  0  0  0  0  0  0  0  0  0  0
   -1.3544    0.1746   -0.1109 C   0  0  0  0  0  0  0  0  0  0  0  0
   -2.6457   -1.5387   -1.0892 H   0  0  0  0  0  0  0  0  0  0  0  0
   -2.3622   -1.3153    0.9036 H   0  0  0  0  0  0  0  0  0  0  0  0
   -0.1503   -0.6244    0.1511 C   0  0  0  0  0  0  0  0  0  0  0  0
   -1.2908    0.5630    0.4642 H   0  0  0  0  0  0  0  0  0  0  0  0
   -1.1324    1.1764   -1.4033 H   0  0  0  0  0  0  0  0  0  0  0  0
   -0.0251   -1.6561    1.2546 H   0  0  0  0  0  0  0  0  0  0  0  0
    0.7692   -0.1761   -0.0597 H   0  0  0  0  0  0  0  0  0  0  0  0
   -0.4183   -1.0327   -0.6232 H   0  0  0  0  0  0  0  0  0  0  0  0
  2  1  1  0  0  0  0
  2  8  1  0  0  0  0
  3  1  1  0  0  0  0
  6  2  1  0  0  0  0
  6  9  1  0  0  0  0
  6 10  1  0  0  0  0
  7  2  1  0  0  0  0
  9 12  1  0  0  0  0
 13  9  1  0  0  0  0
 14  9  1  0  0  0  0
M  RAD  5   1   3   4   2   5   2   6   2  11   2
M  END
$$$$
