14
butane_opt
C  -3.906619   0.212299  -0.178945
C  -2.742285  -0.562754   0.204571
H  -4.854890  -0.425232  -0.041485
H  -3.916855   1.072884  -1.226305
H  -3.610569   0.572770   0.517181
C  -1.408259   0.272396   0.275653
H  -2.432719  -1.265376  -0.766953
H  -2.828637  -1.178207   1.166503
C  -0.182597  -0.772300  -0.111487
H  -1.088269   1.074849   1.157564
H  -1.666160   0.909340  -0.678289
H   0.281626  -1.450751   0.693232
H   0.593520  -0.159308  -0.551414
H  -0.586129  -1.453562  -1.118151
