butane_opt
 OpenBabel08242015393D

 14  9  0  0  0  0  0  0  0  0999 V2000
   -3.9421    0.3428    0.1360 C   0  0  0  0  0  0  0  0  0  0  0  0
   -2.6337   -0.7007   -0.1166 C   0  0  0  0  0  0  0  0  0  0  0  0
   -4.6945   -0.1954    0.2402 H   0  0  0  0  0  0  0  0  0  0  0  0
   -3.9504    0.6252   -0.4992 H   0  0  0  0  0  0  0  0  0  0  0  0
   -3.7969    1.1855    1.1664 H   0  0  0  0  0  0  0  0  0  0  0  0
   -1.3718    0.1264   -0.1113 C   0  0  0  0  0  0  0  0  0  0  0  0
   -2.7052   -1.6707   -1.3089 H   0  0  0  0  0  0  0  0  0  0  0  0
   -2.5294   -1.1259    0.5993 H   0  0  0  0  0  0  0  0  0  0  0  0
   -0.2789   -0.6344    0.1734 C   0  0  0  0  0  1  0  0  0  0  0  0
   -1.5660    0.8621    0.7231 H   0  0  0  0  0  0  0  0  0  0  0  0
   -0.9839    0.9269   -1.1331 H   0  0  0  0  0  0  0  0  0  0  0  0
   -0.2084   -1.7344    1.4450 H   0  0  0  0  0  0  0  0  0  0  0  0
    0.6158   -0.0411   -0.3887 H   0  0  0  0  0  0  0  0  0  0  0  0
   -0.5144   -0.8922   -0.3092 H   0  0  0  0  0  0  0  0  0  0  0  0
  1  3  1  0  0  0  0
  1  5  1  0  0  0  0
  2  1  1  0  0  0  0
  2  8  1  0  0  0  0
  4  1  1  0  0  0  0
  6 10  1  0  0  0  0
 11  6  1  0  0  0  0
 13  9  1  0  0  0  0
 14  6  1  0  0  0  0
M  RAD  4   2   3   6   2   7   2  12   2
M  END
$$$$
