14
butane_opt
C  -3.997128   0.242630  -0.067114
C  -2.728027  -0.594715   0.051228
H  -4.929506  -0.367712   0.810046
H  -4.423333   1.412566  -1.281511
H  -3.808009   0.161378   0.339354
C  -1.416622   0.233284   0.109168
H  -2.754846  -1.350849  -0.796625
H  -2.708865  -1.140901   0.972985
C  -0.052192  -0.745161  -0.019310
H  -1.040642   1.349899   1.337779
H  -1.630954   0.671894  -0.652906
H  -0.251511  -1.230426   0.677256
H   0.927795  -0.123471  -0.024191
H  -0.035234  -1.488151  -0.908799
