14
butane_opt
C  -3.900754   0.187943   0.155510
C  -2.717315  -0.502590  -0.059746
H  -4.886763  -0.354538   0.202435
H  -3.968447   0.706269  -0.632817
H  -3.663237   1.128310   1.332219
C  -1.455932   0.215771  -0.230433
H  -2.917065  -1.385399  -1.183153
H  -2.549668  -1.227119   0.811474
C  -0.155322  -0.745342   0.149437
H  -1.500562   0.692148   0.561131
H  -1.482236   0.902249  -1.185211
H  -0.528531  -1.250314   1.144707
H   0.904006  -0.046878   0.860494
H   0.325972  -1.487967  -0.622186
