14
butane_opt
C  -3.922731   0.275913  -0.054603
C  -2.777697  -0.697330   0.053836
H  -4.866491  -0.345310   0.044809
H  -4.043607   0.899579  -0.886410
H  -3.958846   1.141469   0.934668
C  -1.363358   0.259009   0.134711
H  -2.667828  -1.161446  -0.739010
H  -3.025037  -1.251557   0.928450
C  -0.118409  -0.720321  -0.028511
H  -1.505408   0.979530   0.915893
H  -1.473336   0.732310  -0.729302
H   0.023487  -1.631764   0.982522
H   0.767576  -0.247618  -0.520426
H  -0.085900  -0.993496  -0.711860
