14
butane_opt
C  -3.914490   0.189540  -0.052557
C  -2.770913  -0.578852   0.097796
H  -4.879039  -0.283694  -0.107636
H  -4.011082   1.118695  -1.189394
H  -3.943675   0.622309   0.671069
C  -1.418087   0.266273   0.149237
H  -2.616885  -1.150168  -0.584103
H  -3.066401  -1.250871   0.987821
C  -0.056045  -0.735514  -0.107510
H  -1.419326   1.272422   1.207393
H  -1.723362   0.564281  -0.544978
H   0.093523  -1.493510   1.001227
H   0.534904  -0.446248  -0.370318
H  -0.046519  -1.141964  -0.690230
