butane_opt
 OpenBabel08242015393D

 14 13  0  0  0  0  0  0  0  0999 V2000
   -3.9285    0.2533   -0.0070 C   0  0  0  0  0  0  0  0  0  0  0  0
   -2.7125   -0.6010    0.0748 C   0  0  0  0  0  0  0  0  0  0  0  0
   -4.8267   -0.3522   -0.0391 H   0  0  0  0  0  0  0  0  0  0  0  0
   -3.8574    0.8911   -0.9586 H   0  0  0  0  0  0  0  0  0  0  0  0
   -3.9893    0.9079    0.8240 H   0  0  0  0  0  0  0  0  0  0  0  0
   -1.4080    0.1982    0.0388 C   0  0  0  0  0  0  0  0  0  0  0  0
   -2.7100   -1.2415   -0.7447 H   0  0  0  0  0  0  0  0  0  0  0  0
   -2.7695   -1.2769    0.9995 H   0  0  0  0  0  0  0  0  0  0  0  0
   -0.1585   -0.7047   -0.0045 C   0  0  0  0  0  0  0  0  0  0  0  0
   -1.4073    0.9067    0.9412 H   0  0  0  0  0  0  0  0  0  0  0  0
   -1.4456    0.7661   -0.8055 H   0  0  0  0  0  0  0  0  0  0  0  0
   -0.0836   -1.3065    0.8595 H   0  0  0  0  0  0  0  0  0  0  0  0
    0.7101   -0.1371    0.0034 H   0  0  0  0  0  0  0  0  0  0  0  0
   -0.1551   -1.3753   -0.8662 H   0  0  0  0  0  0  0  0  0  0  0  0
  1  2  1  0  0  0  0
  1  5  1  0  0  0  0
  2  8  1  0  0  0  0
  3  1  1  0  0  0  0
  4  1  1  0  0  0  0
  6  2  1  0  0  0  0
  6 10  1  0  0  0  0
  7  2  1  0  0  0  0
  9 13  1  0  0  0  0
  9  6  1  0  0  0  0
  9 12  1  0  0  0  0
 11  6  1  0  0  0  0
 14  9  1  0  0  0  0
M  END
$$$$
