14
butane_opt
C  -3.988257   0.207642   0.039111
C  -2.737591  -0.621304   0.051330
H  -4.895586  -0.317521  -0.187618
H  -3.719055   0.450598  -0.632729
H  -4.069579   1.382892   1.097387
C  -1.396190   0.261022  -0.021076
H  -2.511630  -1.339991  -0.950250
H  -3.015229  -1.064556   0.803820
C  -0.086221  -0.712201   0.076449
H  -1.490207   0.731247   0.612933
H  -1.548034   1.103854  -1.038776
H   0.231452  -1.424747   0.961913
H   0.499050  -0.453888  -0.265853
H   0.009437  -1.204030  -0.596760
