butane_opt
 OpenBabel08242015393D

 14 13  0  0  0  0  0  0  0  0999 V2000
   -4.0330    0.3020   -0.2198 C   0  0  0  0  0  0  0  0  0  0  0  0
   -2.7011   -0.7179    0.2697 C   0  0  0  0  0  0  0  0  0  0  0  0
   -4.8363   -0.1476   -0.0701 H   0  0  0  0  0  0  0  0  0  0  0  0
   -3.9378    0.8379   -1.0688 H   0  0  0  0  0  0  0  0  0  0  0  0
   -4.3309    0.8990    0.5916 H   0  0  0  0  0  0  0  0  0  0  0  0
   -1.3540    0.2172    0.2517 C   0  0  0  0  0  0  0  0  0  0  0  0
   -2.3053   -1.2898   -0.6381 H   0  0  0  0  0  0  0  0  0  0  0  0
   -2.6824   -1.3322    1.1514 H   0  0  0  0  0  0  0  0  0  0  0  0
   -0.1358   -0.6681   -0.1574 C   0  0  0  0  0  0  0  0  0  0  0  0
   -1.1260    0.8863    1.1128 H   0  0  0  0  0  0  0  0  0  0  0  0
   -1.4381    0.7821   -0.5284 H   0  0  0  0  0  0  0  0  0  0  0  0
    0.2368   -1.2087    0.7746 H   0  0  0  0  0  0  0  0  0  0  0  0
    0.6852   -0.1859   -0.4661 H   0  0  0  0  0  0  0  0  0  0  0  0
   -0.5799   -1.3342   -1.1210 H   0  0  0  0  0  0  0  0  0  0  0  0
  1  3  1  0  0  0  0
  1  2  1  0  0  0  0
  1  5  1  0  0  0  0
  2  8  1  0  0  0  0
  4  1  1  0  0  0  0
  6  2  1  0  0  0  0
  6 10  1  0  0  0  0
  7  2  1  0  0  0  0
  9  6  1  0  0  0  0
  9 12  1  0  0  0  0
 11  6  1  0  0  0  0
 13  9  1  0  0  0  0
 14  9  1  0  0  0  0
M  END
$$$$
