butane_opt
 OpenBabel08242015393D

 14 11  0  0  0  0  0  0  0  0999 V2000
   -3.9429    0.2991    0.1399 C   0  0  0  0  0  0  0  0  0  0  0  0
   -2.6022   -0.6569    0.0457 C   0  0  0  0  0  0  0  0  0  0  0  0
   -4.7677   -0.3286   -0.8678 H   0  0  0  0  0  0  0  0  0  0  0  0
   -3.5160    0.3743   -0.5489 H   0  0  0  0  0  0  0  0  0  0  0  0
   -4.3987    1.5288    1.3232 H   0  0  0  0  0  0  0  0  0  0  0  0
   -1.4236    0.1578   -0.1226 C   0  0  0  0  0  0  0  0  0  0  0  0
   -2.7558   -1.3406   -1.0098 H   0  0  0  0  0  0  0  0  0  0  0  0
   -2.7365   -1.2029    0.8589 H   0  0  0  0  0  0  0  0  0  0  0  0
   -0.1702   -0.6564    0.0877 C   0  0  0  0  0  0  0  0  0  0  0  0
   -1.6561    0.5148    0.4722 H   0  0  0  0  0  0  0  0  0  0  0  0
   -1.4464    0.7861   -1.0664 H   0  0  0  0  0  0  0  0  0  0  0  0
   -0.4040   -1.5771    1.1192 H   0  0  0  0  0  0  0  0  0  0  0  0
    0.8361    0.1670    0.0538 H   0  0  0  0  0  0  0  0  0  0  0  0
   -0.5087   -1.0930   -0.5952 H   0  0  0  0  0  0  0  0  0  0  0  0
  2  8  1  0  0  0  0
  3  1  1  0  0  0  0
  4  1  1  0  0  0  0
  6  2  1  0  0  0  0
  6  9  1  0  0  0  0
  6 10  1  0  0  0  0
  7  2  1  0  0  0  0
  9 12  1  0  0  0  0
 11  6  1  0  0  0  0
 13  9  1  0  0  0  0
 14  9  1  0  0  0  0
M  RAD  3   1   3   2   2   5   2
M  END
$$$$
