butane_opt
 OpenBabel08242015393D

 14 13  0  0  0  0  0  0  0  0999 V2000
   -3.9726    0.2267    0.1799 C   0  0  0  0  0  0  0  0  0  0  0  0
   -2.7998   -0.5654   -0.0710 C   0  0  0  0  0  0  0  0  0  0  0  0
   -4.8145   -0.2939    0.1952 H   0  0  0  0  0  0  0  0  0  0  0  0
   -4.0899    0.7258   -0.4968 H   0  0  0  0  0  0  0  0  0  0  0  0
   -3.9752    0.7938    0.9317 H   0  0  0  0  0  0  0  0  0  0  0  0
   -1.3607    0.2745   -0.2140 C   0  0  0  0  0  0  0  0  0  0  0  0
   -3.0250   -1.2126   -0.9221 H   0  0  0  0  0  0  0  0  0  0  0  0
   -2.5004   -1.1308    0.7349 H   0  0  0  0  0  0  0  0  0  0  0  0
   -0.0815   -0.7763    0.1727 C   0  0  0  0  0  0  0  0  0  0  0  0
   -1.7021    0.8518    0.5190 H   0  0  0  0  0  0  0  0  0  0  0  0
   -1.1194    0.8013   -1.2326 H   0  0  0  0  0  0  0  0  0  0  0  0
   -0.6048   -1.1246    0.9284 H   0  0  0  0  0  0  0  0  0  0  0  0
    0.9407   -0.1324    0.7168 H   0  0  0  0  0  0  0  0  0  0  0  0
    0.4515   -1.6774   -0.8097 H   0  0  0  0  0  0  0  0  0  0  0  0
  1  3  1  0  0  0  0
  1  5  1  0  0  0  0
  2  1  1  0  0  0  0
  2  8  1  0  0  0  0
  4  1  1  0  0  0  0
  6  2  1  0  0  0  0
  6  9  1  0  0  0  0
  6 10  1  0  0  0  0
  7  2  1  0  0  0  0
  9 13  1  0  0  0  0
  9 12  1  0  0  0  0
 11  6  1  0  0  0  0
 14  9  1  0  0  0  0
M  END
$$$$
