14
butane_opt
C  -3.976018   0.303312   0.133763
C  -2.660151  -0.706028  -0.169409
H  -4.750629  -0.222313   0.059828
H  -4.456578   0.541167  -0.620861
H  -4.122146   1.439984   1.304177
C  -1.393081   0.134461  -0.039843
H  -2.743909  -1.392895  -1.046848
H  -2.854132  -1.188415   0.657256
C  -0.130352  -0.643253   0.135137
H  -1.566983   0.813239   0.787293
H  -1.241504   1.006037  -0.992265
H   0.088796  -1.974701   1.527543
H   0.840189  -0.001569  -0.556729
H  -0.306243  -0.533083  -0.271333
