butane_opt
 OpenBabel08242015393D

 14 10  0  0  0  0  0  0  0  0999 V2000
   -3.8627    0.1919   -0.0743 C   0  0  0  0  0  0  0  0  0  0  0  0
   -2.6816   -0.5163    0.1936 C   0  0  0  0  0  0  0  0  0  0  0  0
   -4.8815   -0.4455   -0.0283 H   0  0  0  0  0  0  0  0  0  0  0  0
   -3.7521    1.1382   -1.2458 H   0  0  0  0  0  0  0  0  0  0  0  0
   -3.9393    0.2381    0.4507 H   0  0  0  0  0  0  0  0  0  0  0  0
   -1.4744    0.2522    0.0934 C   0  0  0  0  0  0  0  0  0  0  0  0
   -2.6465   -0.8730   -0.5691 H   0  0  0  0  0  0  0  0  0  0  0  0
   -2.6694   -1.3747    1.2161 H   0  0  0  0  0  0  0  0  0  0  0  0
   -0.2288   -0.7433   -0.0767 C   0  0  0  0  0  0  0  0  0  0  0  0
   -1.2569    1.1036    1.0664 H   0  0  0  0  0  0  0  0  0  0  0  0
   -1.5565    0.6528   -0.6359 H   0  0  0  0  0  0  0  0  0  0  0  0
   -0.1278   -0.8708    0.3387 H   0  0  0  0  0  0  0  0  0  0  0  0
    0.6576   -0.2703    0.4208 H   0  0  0  0  0  0  0  0  0  0  0  0
    0.1462   -2.0170   -1.3198 H   0  0  0  0  0  0  0  0  0  0  0  0
  1  3  1  0  0  0  0
  1  2  1  0  0  0  0
  2  8  1  0  0  0  0
  4  1  1  0  0  0  0
  6  2  1  0  0  0  0
  6 10  1  0  0  0  0
  7  2  1  0  0  0  0
  9  6  1  0  0  0  0
  9 13  1  0  0  0  0
 11  6  1  0  0  0  0
M  RAD  5   1   2   5   2   9   3  12   2  14   2
M  END
$$$$
