14
butane_opt
C  -3.943457   0.274062   0.001470
C  -2.693143  -0.618491   0.041206
H  -4.852196  -0.321131   0.151133
H  -4.035826   1.017135  -0.958575
H  -3.898628   0.819441   0.781084
C  -1.404677   0.166013   0.028268
H  -2.674626  -1.303378  -0.795957
H  -2.653120  -1.310516   0.990604
C  -0.169073  -0.675837   0.021532
H  -1.373733   0.888729   0.935792
H  -1.399935   0.729648  -0.824820
H  -0.167989  -1.213706   0.873395
H   0.738122  -0.110641   0.041951
H  -0.182347  -1.408721  -0.891357
