14
butane_opt
C  -3.998049   0.253146  -0.090448
C  -2.728566  -0.578651   0.195840
H  -4.918029  -0.469120  -0.201824
H  -3.949679   1.027334  -1.160735
H  -3.931546   0.745754   0.594755
C  -1.369245   0.269451   0.053398
H  -2.971940  -0.943479  -0.321161
H  -2.922172  -1.599632   1.399617
C  -0.103298  -0.769765  -0.053786
H  -1.299569   0.927668   0.907665
H  -1.503782   0.593740  -0.596364
H  -0.086858  -0.666275   0.262997
H   0.951017  -0.025206   0.488891
H  -0.002241  -2.125884  -1.316293
