butane_opt
 OpenBabel08242015393D

 14 13  0  0  0  0  0  0  0  0999 V2000
   -3.9281    0.2556    0.0400 C   0  0  0  0  0  0  0  0  0  0  0  0
   -2.7047   -0.6022    0.0034 C   0  0  0  0  0  0  0  0  0  0  0  0
   -4.8514   -0.3769    0.0599 H   0  0  0  0  0  0  0  0  0  0  0  0
   -3.9741    0.8496   -0.8300 H   0  0  0  0  0  0  0  0  0  0  0  0
   -3.8927    0.9229    0.9261 H   0  0  0  0  0  0  0  0  0  0  0  0
   -1.4096    0.2078   -0.0073 C   0  0  0  0  0  0  0  0  0  0  0  0
   -2.7131   -1.3177   -0.8775 H   0  0  0  0  0  0  0  0  0  0  0  0
   -2.7185   -1.2311    0.8767 H   0  0  0  0  0  0  0  0  0  0  0  0
   -0.1723   -0.7088    0.0591 C   0  0  0  0  0  0  0  0  0  0  0  0
   -1.4308    0.8995    0.8704 H   0  0  0  0  0  0  0  0  0  0  0  0
   -1.3588    0.8290   -0.9050 H   0  0  0  0  0  0  0  0  0  0  0  0
   -0.0526   -1.4567    1.0224 H   0  0  0  0  0  0  0  0  0  0  0  0
    0.7409   -0.1030   -0.0802 H   0  0  0  0  0  0  0  0  0  0  0  0
   -0.1957   -1.3139   -0.7537 H   0  0  0  0  0  0  0  0  0  0  0  0
  1  3  1  0  0  0  0
  1  5  1  0  0  0  0
  2  1  1  0  0  0  0
  2  8  1  0  0  0  0
  4  1  1  0  0  0  0
  6  2  1  0  0  0  0
  6  9  1  0  0  0  0
  6 10  1  0  0  0  0
  7  2  1  0  0  0  0
  9 12  1  0  0  0  0
 11  6  1  0  0  0  0
 13  9  1  0  0  0  0
 14  9  1  0  0  0  0
M  END
$$$$
