butane_opt
 OpenBabel08242015393D

 14 13  0  0  0  0  0  0  0  0999 V2000
   -3.9814    0.2016    0.1137 C   0  0  0  0  0  0  0  0  0  0  0  0
   -2.7812   -0.5493    0.0183 C   0  0  0  0  0  0  0  0  0  0  0  0
   -4.9447   -0.3783    0.1507 H   0  0  0  0  0  0  0  0  0  0  0  0
   -4.1194    0.6782   -0.7181 H   0  0  0  0  0  0  0  0  0  0  0  0
   -3.8518    1.0081    1.1566 H   0  0  0  0  0  0  0  0  0  0  0  0
   -1.4381    0.2033   -0.2105 C   0  0  0  0  0  0  0  0  0  0  0  0
   -2.7635   -1.2179   -0.7259 H   0  0  0  0  0  0  0  0  0  0  0  0
   -2.5668   -0.9969    0.6947 H   0  0  0  0  0  0  0  0  0  0  0  0
   -0.0284   -0.7035    0.1030 C   0  0  0  0  0  0  0  0  0  0  0  0
   -1.5303    0.9049    0.6163 H   0  0  0  0  0  0  0  0  0  0  0  0
   -1.2967    0.8621   -1.1850 H   0  0  0  0  0  0  0  0  0  0  0  0
   -0.4958   -1.1156    1.0060 H   0  0  0  0  0  0  0  0  0  0  0  0
    0.8273   -0.3265    0.9409 H   0  0  0  0  0  0  0  0  0  0  0  0
    0.4852   -1.7523   -0.8085 H   0  0  0  0  0  0  0  0  0  0  0  0
  1  3  1  0  0  0  0
  1  5  1  0  0  0  0
  2  1  1  0  0  0  0
  2  8  1  0  0  0  0
  4  1  1  0  0  0  0
  6  2  1  0  0  0  0
  6  9  1  0  0  0  0
  6 10  1  0  0  0  0
  7  2  1  0  0  0  0
  9 13  1  0  0  0  0
  9 12  1  0  0  0  0
 11  6  1  0  0  0  0
 14  9  1  0  0  0  0
M  END
$$$$
