butane_opt
 OpenBabel08242015393D

 14 10  0  0  0  0  0  0  0  0999 V2000
   -3.9377    0.2537    0.0541 C   0  0  0  0  0  0  0  0  0  0  0  0
   -2.6340   -0.6156    0.0688 C   0  0  0  0  0  0  0  0  0  0  0  0
   -4.7109   -0.2260   -0.7213 H   0  0  0  0  0  0  0  0  0  0  0  0
   -3.4563    0.2513   -0.4656 H   0  0  0  0  0  0  0  0  0  0  0  0
   -4.2966    1.6386    1.3285 H   0  0  0  0  0  0  0  0  0  0  0  0
   -1.4485    0.1551   -0.0549 C   0  0  0  0  0  0  0  0  0  0  0  0
   -2.7782   -1.3094   -0.8145 H   0  0  0  0  0  0  0  0  0  0  0  0
   -2.3641   -1.2852    0.8324 H   0  0  0  0  0  0  0  0  0  0  0  0
   -0.2182   -0.6670    0.0789 C   0  0  0  0  0  0  0  0  0  0  0  0
   -1.4636    0.3829    0.5346 H   0  0  0  0  0  0  0  0  0  0  0  0
   -1.2066    1.0479   -1.1396 H   0  0  0  0  0  0  0  0  0  0  0  0
   -0.1154   -1.2250    0.9571 H   0  0  0  0  0  0  0  0  0  0  0  0
    0.5737   -0.1400   -0.1644 H   0  0  0  0  0  0  0  0  0  0  0  0
   -0.3415   -1.1167   -0.6046 H   0  0  0  0  0  0  0  0  0  0  0  0
  2  8  1  0  0  0  0
  3  1  1  0  0  0  0
  4  1  1  0  0  0  0
  6  2  1  0  0  0  0
  6  9  1  0  0  0  0
  7  2  1  0  0  0  0
  9 12  1  0  0  0  0
 11  6  1  0  0  0  0
 13  9  1  0  0  0  0
 14  9  1  0  0  0  0
M  RAD  5   1   3   2   2   5   2   6   2  10   2
M  END
$$$$
