butane_opt
 OpenBabel08242015393D

 14 13  0  0  0  0  0  0  0  0999 V2000
   -3.9481    0.2761    0.0490 C   0  0  0  0  0  0  0  0  0  0  0  0
   -2.6952   -0.6261    0.0106 C   0  0  0  0  0  0  0  0  0  0  0  0
   -4.8261   -0.2909    0.0613 H   0  0  0  0  0  0  0  0  0  0  0  0
   -3.9694    0.8473   -0.8291 H   0  0  0  0  0  0  0  0  0  0  0  0
   -3.9198    1.0011    0.9358 H   0  0  0  0  0  0  0  0  0  0  0  0
   -1.4042    0.1726   -0.0337 C   0  0  0  0  0  0  0  0  0  0  0  0
   -2.7507   -1.3139   -0.8409 H   0  0  0  0  0  0  0  0  0  0  0  0
   -2.6531   -1.3069    0.9376 H   0  0  0  0  0  0  0  0  0  0  0  0
   -0.1735   -0.6844    0.0619 C   0  0  0  0  0  0  0  0  0  0  0  0
   -1.3723    0.8154    0.7754 H   0  0  0  0  0  0  0  0  0  0  0  0
   -1.3174    0.8304   -0.9406 H   0  0  0  0  0  0  0  0  0  0  0  0
   -0.2130   -1.2343    0.9411 H   0  0  0  0  0  0  0  0  0  0  0  0
    0.7318   -0.0837    0.1779 H   0  0  0  0  0  0  0  0  0  0  0  0
   -0.0894   -1.3916   -0.8331 H   0  0  0  0  0  0  0  0  0  0  0  0
  1  3  1  0  0  0  0
  1  5  1  0  0  0  0
  2  1  1  0  0  0  0
  2  8  1  0  0  0  0
  4  1  1  0  0  0  0
  6  2  1  0  0  0  0
  6  9  1  0  0  0  0
  6 10  1  0  0  0  0
  7  2  1  0  0  0  0
  9 13  1  0  0  0  0
  9 12  1  0  0  0  0
 11  6  1  0  0  0  0
 14  9  1  0  0  0  0
M  END
$$$$
