14
butane_opt
C  -3.926518   0.206851  -0.069299
C  -2.769452  -0.590220   0.167865
H  -4.873577  -0.391712   0.089714
H  -3.903577   1.005269  -1.122075
H  -4.018423   0.654650   0.600164
C  -1.373766   0.306419   0.051785
H  -2.789507  -0.933188  -0.566668
H  -3.073777  -1.456847   1.323175
C  -0.125344  -0.779861  -0.086268
H  -1.304583   1.185444   1.082678
H  -1.780314   0.961341  -0.728920
H  -0.168750  -1.009149   0.610650
H   0.853357  -0.203882   0.698781
H   0.376304  -2.047521  -1.362831
