14
butane_opt
C  -4.012747   0.304879  -0.031962
C  -2.729020  -0.689408   0.056555
H  -4.861607  -0.267599   0.139318
H  -4.057767   1.281864  -1.138619
H  -3.930499   0.817113   0.681915
C  -1.347491   0.140902   0.113651
H  -2.386249  -1.434197  -0.779875
H  -2.680271  -1.142691   0.881143
C  -0.162819  -0.681729  -0.013181
H  -1.122584   1.122647   1.119359
H  -1.360409   0.785608  -0.657659
H   0.091396  -1.571415   0.991130
H   0.823394   0.113570  -0.377292
H  -0.520156  -1.080628  -0.900766
