14
butane_opt
C  -3.976571   0.324791   0.191865
C  -2.599666  -0.673290  -0.238305
H  -4.917282  -0.321903   0.859201
H  -4.281804   1.102453  -0.747523
H  -3.723474   0.800091   0.961262
C  -1.412700   0.103031  -0.097478
H  -2.609395  -1.449612  -1.143743
H  -2.365494  -1.065200   0.331300
C  -0.262720  -0.643543   0.251753
H  -1.358766   0.603279   0.551588
H  -1.151456   0.895625  -1.213639
H  -0.240703  -1.310740   1.210243
H   0.972036   0.094963  -0.028050
H  -0.353070  -1.113388  -0.601504
