14
butane_opt
C  -3.994425   0.270786  -0.045921
C  -2.746178  -0.591776   0.070022
H  -4.949172  -0.322045   0.598809
H  -3.967970   1.438009  -1.301982
H  -4.016522   0.225713   0.469834
C  -1.384881   0.197539   0.081913
H  -2.832805  -1.282001  -0.693714
H  -2.692723  -1.583267   1.102240
C  -0.035843  -0.690139  -0.054463
H  -1.409803   1.138239   1.134689
H  -1.683215   0.510630  -0.531201
H  -0.215587  -0.970375   0.701523
H   0.713461  -0.209872   0.431695
H  -0.033784  -1.636280  -1.171501
