14
butane_opt
C  -3.917865   0.285036   0.014416
C  -2.705063  -0.679095   0.106552
H  -4.604184  -0.172698   0.107641
H  -3.651743   1.189182  -1.049849
H  -4.326597   0.871050   0.683575
C  -1.378181   0.171093  -0.005671
H  -2.615669  -1.264872  -0.569771
H  -2.657681  -1.300041   1.079455
C  -0.190882  -0.688517  -0.001323
H  -1.404734   0.766909   0.739479
H  -1.362702   0.850174  -0.929287
H  -0.632131  -0.551203   0.415849
H   0.810049  -0.128182   0.622888
H  -0.246032  -1.789203  -1.084450
