14
butane_opt
C  -3.893664   0.178882   0.147964
C  -2.642253  -0.555819  -0.030995
H  -4.850359  -0.489040   0.210745
H  -3.750360   1.102229  -0.820778
H  -3.806515   0.938507   1.038050
C  -1.493612   0.253118  -0.156020
H  -2.982184  -1.396061  -1.129148
H  -2.320389  -1.212735   0.812680
C  -0.211253  -0.713473   0.119871
H  -1.468903   0.643605   0.584626
H  -1.229020   1.088283  -1.230075
H  -0.442188  -1.077217   0.928625
H   0.561186  -0.289168   0.951054
H   0.194880  -1.767396  -0.916825
