butane_opt
 OpenBabel08242015393D

 14 13  0  0  0  0  0  0  0  0999 V2000
   -3.8958    0.1994   -0.1526 C   0  0  0  0  0  0  0  0  0  0  0  0
   -2.6615   -0.5122    0.1876 C   0  0  0  0  0  0  0  0  0  0  0  0
   -4.8022   -0.3477    0.0594 H   0  0  0  0  0  0  0  0  0  0  0  0
   -3.7234    0.9098   -1.2005 H   0  0  0  0  0  0  0  0  0  0  0  0
   -4.0722    0.8044    0.5691 H   0  0  0  0  0  0  0  0  0  0  0  0
   -1.4677    0.1887    0.2570 C   0  0  0  0  0  0  0  0  0  0  0  0
   -2.5828   -1.2612   -0.7907 H   0  0  0  0  0  0  0  0  0  0  0  0
   -2.9688   -1.3392    1.1592 H   0  0  0  0  0  0  0  0  0  0  0  0
   -0.1909   -0.7455   -0.1379 C   0  0  0  0  0  0  0  0  0  0  0  0
   -1.3768    1.0441    1.0986 H   0  0  0  0  0  0  0  0  0  0  0  0
   -1.5212    0.8078   -0.5662 H   0  0  0  0  0  0  0  0  0  0  0  0
    0.1261   -1.3635    0.7330 H   0  0  0  0  0  0  0  0  0  0  0  0
    0.9371   -0.1010   -0.5554 H   0  0  0  0  0  0  0  0  0  0  0  0
   -0.4272   -1.1671   -0.8870 H   0  0  0  0  0  0  0  0  0  0  0  0
  1  3  1  0  0  0  0
  1  2  1  0  0  0  0
  1  5  1  0  0  0  0
  2  6  1  0  0  0  0
  2  8  1  0  0  0  0
  4  1  1  0  0  0  0
  6 10  1  0  0  0  0
  7  2  1  0  0  0  0
  9  6  1  0  0  0  0
  9 12  1  0  0  0  0
 11  6  1  0  0  0  0
 13  9  1  0  0  0  0
 14  9  1  0  0  0  0
M  END
$$$$
