14
butane_opt
C  -3.893747   0.230630   0.091490
C  -2.652846  -0.624756  -0.047625
H  -4.753519  -0.263990  -0.489792
H  -4.019995   0.240273  -0.388452
H  -4.054814   1.825749   1.566083
C  -1.406061   0.160856  -0.112586
H  -2.557862  -1.068871  -0.784561
H  -2.758046  -1.284488   0.781311
C  -0.202946  -0.657188   0.128532
H  -1.553922   0.692894   0.656811
H  -1.627380   0.832135  -1.139728
H  -0.129528  -1.726444   1.328425
H   0.757608  -0.180831  -0.175437
H  -0.440963  -0.849253  -0.466856
