butane_opt
 OpenBabel08242015393D

 14 11  0  0  0  0  0  0  0  0999 V2000
   -3.8980    0.1791    0.1916 C   0  0  0  0  0  0  0  0  0  0  0  0
   -2.6938   -0.4978   -0.1202 C   0  0  0  0  0  0  0  0  0  0  0  0
   -5.1240   -0.5365    0.4188 H   0  0  0  0  0  0  0  0  0  0  0  0
   -4.0070    0.5389   -0.5810 H   0  0  0  0  0  0  0  0  0  0  0  0
   -3.5246    1.2111    1.3462 H   0  0  0  0  0  0  0  0  0  0  0  0
   -1.4894    0.1981   -0.2243 C   0  0  0  0  0  0  0  0  0  0  0  0
   -2.6836   -1.2244   -1.1113 H   0  0  0  0  0  0  0  0  0  0  0  0
   -2.6278   -1.0555    0.7428 H   0  0  0  0  0  0  0  0  0  0  0  0
   -0.1837   -0.7405    0.2026 C   0  0  0  0  0  0  0  0  0  0  0  0
   -1.6477    0.6505    0.3918 H   0  0  0  0  0  0  0  0  0  0  0  0
   -1.1014    1.2148   -1.5564 H   0  0  0  0  0  0  0  0  0  0  0  0
   -0.3685   -1.1884    1.0263 H   0  0  0  0  0  0  0  0  0  0  0  0
    0.7445   -0.1287    0.9017 H   0  0  0  0  0  0  0  0  0  0  0  0
    0.5132   -1.6764   -0.7010 H   0  0  0  0  0  0  0  0  0  0  0  0
  1  3  1  0  0  0  0
  2  1  1  0  0  0  0
  2  8  1  0  0  0  0
  4  1  1  0  0  0  0
  6  2  1  0  0  0  0
  6  9  1  0  0  0  0
  6 10  1  0  0  0  0
  7  2  1  0  0  0  0
  9 13  1  0  0  0  0
  9 12  1  0  0  0  0
 14  9  1  0  0  0  0
M  RAD  4   1   2   5   2   6   2  11   2
M  END
$$$$
