butane_opt
 OpenBabel08242015393D

 14 10  0  0  0  0  0  0  0  0999 V2000
   -3.9867    0.3341   -0.0120 C   0  0  0  0  0  0  0  0  0  0  0  0
   -2.7450   -0.7256    0.0025 C   0  0  0  0  0  0  0  0  0  0  0  0
   -4.5913    0.1031    0.0849 H   0  0  0  0  0  0  0  0  0  0  0  0
   -4.3044    0.7984   -0.8599 H   0  0  0  0  0  0  0  0  0  0  0  0
   -3.9854    1.1474    0.9897 H   0  0  0  0  0  0  0  0  0  0  0  0
   -1.3211    0.1254    0.0680 C   0  0  0  0  0  0  0  0  0  0  0  0
   -2.7319   -1.4255   -0.9653 H   0  0  0  0  0  0  0  0  0  0  0  0
   -2.8378   -1.3120    0.9625 H   0  0  0  0  0  0  0  0  0  0  0  0
   -0.1382   -0.6055    0.0368 C   0  0  0  0  0  0  0  0  0  0  0  0
   -1.4774    0.8519    0.8542 H   0  0  0  0  0  0  0  0  0  0  0  0
   -1.3505    0.4825   -0.7618 H   0  0  0  0  0  0  0  0  0  0  0  0
    0.2701   -1.6759    1.1024 H   0  0  0  0  0  0  0  0  0  0  0  0
    0.7475   -0.1072   -0.4851 H   0  0  0  0  0  0  0  0  0  0  0  0
   -0.5257   -0.7938   -0.5463 H   0  0  0  0  0  0  0  0  0  0  0  0
  1  2  1  0  0  0  0
  1  3  1  0  0  0  0
  1  5  1  0  0  0  0
  2  8  1  0  0  0  0
  4  1  1  0  0  0  0
  6 10  1  0  0  0  0
  7  2  1  0  0  0  0
 11  6  1  0  0  0  0
 13  9  1  0  0  0  0
 14  9  1  0  0  0  0
M  RAD  4   2   2   6   3   9   3  12   2
M  END
$$$$
