14
butane_opt
C  -3.946454   0.270125   0.032340
C  -2.688832  -0.630565   0.033738
H  -4.834649  -0.311363   0.047218
H  -3.985368   0.919305  -0.892791
H  -3.992200   0.943580   0.891125
C  -1.396052   0.184817  -0.005544
H  -2.734697  -1.328246  -0.850215
H  -2.703011  -1.261068   0.947494
C  -0.173032  -0.687543   0.039039
H  -1.458075   0.808127   0.822027
H  -1.361251   0.863143  -0.912820
H  -0.154572  -1.238695   0.909523
H   0.775999  -0.080943   0.135006
H  -0.126998  -1.421396  -0.861208
