14
butane_opt
C  -3.843989   0.214587   0.035623
C  -2.717306  -0.565443   0.014009
H  -4.728872  -0.320896  -0.309983
H  -3.935868   0.538805  -0.757062
H  -3.735511   1.142035   1.091762
C  -1.480242   0.234503   0.013657
H  -2.851882  -1.293437  -1.032852
H  -2.966847  -1.098690   0.818676
C  -0.177357  -0.711248   0.028844
H  -1.356302   1.096967   1.054921
H  -1.508006   0.707238  -0.824412
H   0.096499  -2.201846   1.463682
H   0.773338  -0.198019  -0.625417
H  -0.210526  -0.888254  -0.452540
