butane_opt
 OpenBabel08242015393D

 14 13  0  0  0  0  0  0  0  0999 V2000
   -3.9523    0.2698   -0.0026 C   0  0  0  0  0  0  0  0  0  0  0  0
   -2.6940   -0.6303    0.0523 C   0  0  0  0  0  0  0  0  0  0  0  0
   -4.8335   -0.2641    0.1118 H   0  0  0  0  0  0  0  0  0  0  0  0
   -3.9904    0.9726   -0.9497 H   0  0  0  0  0  0  0  0  0  0  0  0
   -4.0205    0.8655    0.7901 H   0  0  0  0  0  0  0  0  0  0  0  0
   -1.3974    0.1775    0.0461 C   0  0  0  0  0  0  0  0  0  0  0  0
   -2.6681   -1.3137   -0.7856 H   0  0  0  0  0  0  0  0  0  0  0  0
   -2.6826   -1.2711    0.9331 H   0  0  0  0  0  0  0  0  0  0  0  0
   -0.1732   -0.6815    0.0126 C   0  0  0  0  0  0  0  0  0  0  0  0
   -1.3988    0.8559    0.9106 H   0  0  0  0  0  0  0  0  0  0  0  0
   -1.3402    0.8039   -0.8395 H   0  0  0  0  0  0  0  0  0  0  0  0
   -0.0917   -1.2919    0.8713 H   0  0  0  0  0  0  0  0  0  0  0  0
    0.7605   -0.0584   -0.0192 H   0  0  0  0  0  0  0  0  0  0  0  0
   -0.1652   -1.3862   -0.8972 H   0  0  0  0  0  0  0  0  0  0  0  0
  1  2  1  0  0  0  0
  1  3  1  0  0  0  0
  1  5  1  0  0  0  0
  2  8  1  0  0  0  0
  4  1  1  0  0  0  0
  6  2  1  0  0  0  0
  6 10  1  0  0  0  0
  7  2  1  0  0  0  0
  9  6  1  0  0  0  0
  9 12  1  0  0  0  0
 11  6  1  0  0  0  0
 13  9  1  0  0  0  0
 14  9  1  0  0  0  0
M  END
$$$$
