14
butane_opt
C  -3.931508   0.259614  -0.010198
C  -2.706155  -0.602584   0.068891
H  -4.853274  -0.367047   0.123707
H  -3.886761   0.940639  -0.970001
H  -3.908777   0.816061   0.749999
C  -1.405683   0.198838   0.044702
H  -2.704105  -1.315222  -0.794568
H  -2.733331  -1.239072   0.942562
C  -0.172157  -0.704314   0.007489
H  -1.348719   0.909333   0.917072
H  -1.474173   0.824107  -0.841810
H  -0.107077  -1.267516   0.860719
H   0.712306  -0.135610   0.016561
H  -0.138800  -1.456011  -0.902329
