14
butane_opt
C  -4.002404   0.235553   0.121940
C  -2.758406  -0.548803  -0.122984
H  -5.169289  -0.519325   0.735678
H  -4.056751   1.087652  -0.925633
H  -3.411117   0.690500   0.884946
C  -1.408486   0.274000  -0.080091
H  -3.137659  -1.535869  -1.226467
H  -2.678862  -1.149534   0.699019
C  -0.057891  -0.752837   0.182966
H  -1.484384   0.638491   0.685981
H  -1.170222   1.046491  -1.116312
H   0.127801  -1.383450   0.999204
H   0.753075  -0.272505   0.334432
H  -0.074515  -1.563895  -0.872031
