butane_opt
 OpenBabel08242015393D

 14 13  0  0  0  0  0  0  0  0999 V2000
   -3.9281    0.2494    0.0162 C   0  0  0  0  0  0  0  0  0  0  0  0
   -2.7113   -0.6013    0.0441 C   0  0  0  0  0  0  0  0  0  0  0  0
   -4.8265   -0.3522   -0.0651 H   0  0  0  0  0  0  0  0  0  0  0  0
   -3.9131    0.7843   -0.8428 H   0  0  0  0  0  0  0  0  0  0  0  0
   -3.9890    1.0190    0.9488 H   0  0  0  0  0  0  0  0  0  0  0  0
   -1.4107    0.2002    0.0080 C   0  0  0  0  0  0  0  0  0  0  0  0
   -2.7268   -1.2135   -0.7581 H   0  0  0  0  0  0  0  0  0  0  0  0
   -2.7285   -1.2676    0.9373 H   0  0  0  0  0  0  0  0  0  0  0  0
   -0.1591   -0.7054    0.0303 C   0  0  0  0  0  0  0  0  0  0  0  0
   -1.4401    0.8733    0.8410 H   0  0  0  0  0  0  0  0  0  0  0  0
   -1.3523    0.8305   -0.8940 H   0  0  0  0  0  0  0  0  0  0  0  0
   -0.1050   -1.3588    0.9518 H   0  0  0  0  0  0  0  0  0  0  0  0
    0.7345   -0.1462    0.0001 H   0  0  0  0  0  0  0  0  0  0  0  0
   -0.1602   -1.3620   -0.8522 H   0  0  0  0  0  0  0  0  0  0  0  0
  1  2  1  0  0  0  0
  1  5  1  0  0  0  0
  2  8  1  0  0  0  0
  3  1  1  0  0  0  0
  4  1  1  0  0  0  0
  6  9  1  0  0  0  0
  6  2  1  0  0  0  0
  6 10  1  0  0  0  0
  7  2  1  0  0  0  0
  9 12  1  0  0  0  0
 11  6  1  0  0  0  0
 13  9  1  0  0  0  0
 14  9  1  0  0  0  0
M  END
$$$$
