14
butane_opt
C  -3.962035   0.202432  -0.105956
C  -2.745070  -0.597027   0.161184
H  -4.808921  -0.351778   0.296617
H  -3.782234   1.122825  -1.243331
H  -3.955179   0.532903   0.544122
C  -1.423426   0.299047   0.130544
H  -2.879018  -1.061478  -0.505741
H  -2.811250  -1.282849   1.260047
C  -0.089271  -0.721823  -0.061985
H  -1.439898   0.792356   0.880543
H  -1.536328   0.947416  -0.808121
H   0.123778  -0.819978   0.441688
H   0.496753  -0.241249   0.415430
H   0.187587  -2.329745  -1.439143
