14
butane_opt
C  -3.949716   0.273695  -0.006320
C  -2.705585  -0.617592   0.063266
H  -4.878445  -0.307636  -0.014213
H  -3.977166   0.869408  -0.870125
H  -4.035154   0.940962   0.870253
C  -1.386913   0.175922   0.035415
H  -2.679852  -1.292205  -0.788393
H  -2.747355  -1.307039   0.989390
C  -0.160187  -0.688684   0.009146
H  -1.339810   0.817430   0.857715
H  -1.413201   0.833521  -0.859219
H  -0.104212  -1.269164   0.873327
H   0.748432  -0.094531   0.039681
H  -0.165185  -1.383234  -0.870937
