butane_opt
 OpenBabel08242015393D

 14 11  0  0  0  0  0  0  0  0999 V2000
   -3.8689    0.2421   -0.0459 C   0  0  0  0  0  0  0  0  0  0  0  0
   -2.7019   -0.6123    0.0627 C   0  0  0  0  0  0  0  0  0  0  0  0
   -4.8081   -0.3357    0.1067 H   0  0  0  0  0  0  0  0  0  0  0  0
   -3.9336    1.0146   -1.1113 H   0  0  0  0  0  0  0  0  0  0  0  0
   -3.8541    0.8613    0.7872 H   0  0  0  0  0  0  0  0  0  0  0  0
   -1.4632    0.2502    0.0824 C   0  0  0  0  0  0  0  0  0  0  0  0
   -2.5748   -1.3119   -0.7921 H   0  0  0  0  0  0  0  0  0  0  0  0
   -2.8929   -1.1544    0.9132 H   0  0  0  0  0  0  0  0  0  0  0  0
   -0.1704   -0.7015   -0.0455 C   0  0  0  0  0  0  0  0  0  0  0  0
   -1.1631    1.0421    1.2604 H   0  0  0  0  0  0  0  0  0  0  0  0
   -1.5221    0.3527   -0.4184 H   0  0  0  0  0  0  0  0  0  0  0  0
    0.0389   -1.8332    1.2341 H   0  0  0  0  0  0  0  0  0  0  0  0
    0.7231   -0.2174   -0.5276 H   0  0  0  0  0  0  0  0  0  0  0  0
   -0.5635   -0.9968   -0.6019 H   0  0  0  0  0  0  0  0  0  0  0  0
  1  2  1  0  0  0  0
  1  3  1  0  0  0  0
  1  5  1  0  0  0  0
  2  6  1  0  0  0  0
  2  8  1  0  0  0  0
  4  1  1  0  0  0  0
  6 10  1  0  0  0  0
  7  2  1  0  0  0  0
  9  6  1  0  0  0  0
 13  9  1  0  0  0  0
 14  9  1  0  0  0  0
M  RAD  4   6   2   9   2  11   2  12   2
M  END
$$$$
