14
butane_opt
C  -3.892864   0.288612  -0.157168
C  -2.701275  -0.675150   0.138760
H  -4.555266  -0.237822   0.152540
H  -3.853781   1.204403  -1.157179
H  -4.229980   0.758291   0.579960
C  -1.377794   0.180367   0.249229
H  -2.506910  -1.329622  -0.587570
H  -2.730397  -1.158534   0.870714
C  -0.251894  -0.713823  -0.070266
H  -1.155258   0.936902   1.200812
H  -1.584797   0.769477  -0.528523
H   0.374023  -1.325109   0.714492
H   0.812633   0.084643  -0.857236
H  -0.915333  -1.084654  -0.849432
