butane_opt
 OpenBabel08242015393D

 14 10  0  0  0  0  0  0  0  0999 V2000
   -3.9919    0.3183   -0.0627 C   0  0  0  0  0  0  0  0  0  0  0  0
   -2.7136   -0.6466    0.1357 C   0  0  0  0  0  0  0  0  0  0  0  0
   -4.8393   -0.2384    0.0162 H   0  0  0  0  0  0  0  0  0  0  0  0
   -3.9082    1.1743   -1.2586 H   0  0  0  0  0  0  0  0  0  0  0  0
   -4.2284    0.7417    0.6999 H   0  0  0  0  0  0  0  0  0  0  0  0
   -1.3875    0.1220    0.1134 C   0  0  0  0  0  0  0  0  0  0  0  0
   -2.6280   -1.1120   -0.6085 H   0  0  0  0  0  0  0  0  0  0  0  0
   -2.7540   -1.4763    1.2201 H   0  0  0  0  0  0  0  0  0  0  0  0
   -0.1191   -0.6426   -0.0395 C   0  0  0  0  0  1  0  0  0  0  0  0
   -1.1294    0.4572    0.8397 H   0  0  0  0  0  0  0  0  0  0  0  0
   -1.2713    0.7508   -0.6945 H   0  0  0  0  0  0  0  0  0  0  0  0
   -0.2141   -0.6021    0.4868 H   0  0  0  0  0  0  0  0  0  0  0  0
    0.7700   -0.0536    0.1779 H   0  0  0  0  0  0  0  0  0  0  0  0
   -0.2665   -1.9087   -1.2950 H   0  0  0  0  0  0  0  0  0  0  0  0
  1  3  1  0  0  0  0
  1  2  1  0  0  0  0
  1  5  1  0  0  0  0
  2  8  1  0  0  0  0
  4  1  1  0  0  0  0
  6 12  1  0  0  0  0
  6 10  1  0  0  0  0
  7  2  1  0  0  0  0
  9 13  1  0  0  0  0
 11  6  1  0  0  0  0
M  RAD  3   2   2   6   2  14   2
M  END
$$$$
