14
butane_opt
C  -4.018684   0.296549  -0.086383
C  -2.682962  -0.642223   0.173236
H  -4.976828  -0.274772  -0.652473
H  -3.973364   0.486376  -0.746051
H  -4.486542   1.464926   0.941655
C  -1.355841   0.115632   0.154173
H  -2.449735  -1.376132  -0.596812
H  -2.632170  -1.373003   1.122839
C  -0.155436  -0.656080  -0.085981
H  -1.092172   0.576205   0.839608
H  -1.334742   1.057977  -1.024295
H   0.165825  -1.288822   0.819847
H   0.772709  -0.139004  -0.157434
H  -0.429388  -0.993270  -0.873861
