butane_opt
 OpenBabel08242015393D

 14 12  0  0  0  0  0  0  0  0999 V2000
   -4.0024    0.2356    0.1219 C   0  0  0  0  0  0  0  0  0  0  0  0
   -2.7584   -0.5488   -0.1230 C   0  0  0  0  0  0  0  0  0  0  0  0
   -5.1693   -0.5193    0.7357 H   0  0  0  0  0  0  0  0  0  0  0  0
   -4.0568    1.0877   -0.9256 H   0  0  0  0  0  0  0  0  0  0  0  0
   -3.4111    0.6905    0.8849 H   0  0  0  0  0  0  0  0  0  0  0  0
   -1.4085    0.2740   -0.0801 C   0  0  0  0  0  0  0  0  0  0  0  0
   -3.1377   -1.5359   -1.2265 H   0  0  0  0  0  0  0  0  0  0  0  0
   -2.6789   -1.1495    0.6990 H   0  0  0  0  0  0  0  0  0  0  0  0
   -0.0579   -0.7528    0.1830 C   0  0  0  0  0  0  0  0  0  0  0  0
   -1.4844    0.6385    0.6860 H   0  0  0  0  0  0  0  0  0  0  0  0
   -1.1702    1.0465   -1.1163 H   0  0  0  0  0  0  0  0  0  0  0  0
    0.1278   -1.3835    0.9992 H   0  0  0  0  0  0  0  0  0  0  0  0
    0.7531   -0.2725    0.3344 H   0  0  0  0  0  0  0  0  0  0  0  0
   -0.0745   -1.5639   -0.8720 H   0  0  0  0  0  0  0  0  0  0  0  0
  1  3  1  0  0  0  0
  1  5  1  0  0  0  0
  2  6  1  0  0  0  0
  2  1  1  0  0  0  0
  2  8  1  0  0  0  0
  4  1  1  0  0  0  0
  6  9  1  0  0  0  0
  6 10  1  0  0  0  0
  9 13  1  0  0  0  0
  9 12  1  0  0  0  0
 11  6  1  0  0  0  0
 14  9  1  0  0  0  0
M  RAD  2   2   2   7   2
M  END
$$$$
