14
butane_opt
C  -3.935843   0.199391  -0.033753
C  -2.749157  -0.583203   0.132765
H  -4.725097  -0.307181  -0.673625
H  -3.864204   0.551747  -0.859498
H  -4.148170   1.119365   0.883870
C  -1.453040   0.324244   0.053371
H  -2.717742  -0.967043  -0.415641
H  -2.952994  -1.626621   1.333780
C  -0.100278  -0.763502  -0.039373
H  -1.512131   0.883485   0.857240
H  -1.374392   0.688451  -0.692354
H   0.270226  -1.107848   0.666704
H   0.824830  -0.313631  -0.063169
H   0.034970  -1.488408  -0.979252
