butane_opt
 OpenBabel08242015393D

 14 10  0  0  0  0  0  0  0  0999 V2000
   -3.9074    0.1766   -0.0809 C   0  0  0  0  0  0  0  0  0  0  0  0
   -2.6614   -0.5768    0.1958 C   0  0  0  0  0  0  0  0  0  0  0  0
   -4.7081   -0.4600   -0.1426 H   0  0  0  0  0  0  0  0  0  0  0  0
   -3.5292    1.2879   -1.2450 H   0  0  0  0  0  0  0  0  0  0  0  0
   -4.0382    0.7678    0.7172 H   0  0  0  0  0  0  0  0  0  0  0  0
   -1.4941    0.2850    0.0832 C   0  0  0  0  0  0  0  0  0  0  0  0
   -2.7318   -0.9736   -0.4298 H   0  0  0  0  0  0  0  0  0  0  0  0
   -2.7696   -1.5302    1.3700 H   0  0  0  0  0  0  0  0  0  0  0  0
   -0.1679   -0.7629   -0.0854 C   0  0  0  0  0  1  0  0  0  0  0  0
   -1.3322    1.0722    1.0424 H   0  0  0  0  0  0  0  0  0  0  0  0
   -1.5714    0.7312   -0.8310 H   0  0  0  0  0  0  0  0  0  0  0  0
   -0.4159   -0.6786    0.3764 H   0  0  0  0  0  0  0  0  0  0  0  0
    0.7806   -0.1132    0.4777 H   0  0  0  0  0  0  0  0  0  0  0  0
    0.0835   -2.0389   -1.3564 H   0  0  0  0  0  0  0  0  0  0  0  0
  1  2  1  0  0  0  0
  1  5  1  0  0  0  0
  2  8  1  0  0  0  0
  3  1  1  0  0  0  0
  6  2  1  0  0  0  0
  6 12  1  0  0  0  0
  6 10  1  0  0  0  0
  7  2  1  0  0  0  0
  9 13  1  0  0  0  0
 11  6  1  0  0  0  0
M  RAD  3   1   2   4   2  14   2
M  END
$$$$
