butane_opt
 OpenBabel08242015393D

 14 12  0  0  0  0  0  0  0  0999 V2000
   -3.8937    0.1789    0.1480 C   0  0  0  0  0  0  0  0  0  0  0  0
   -2.6423   -0.5558   -0.0310 C   0  0  0  0  0  0  0  0  0  0  0  0
   -4.8504   -0.4890    0.2107 H   0  0  0  0  0  0  0  0  0  0  0  0
   -3.7504    1.1022   -0.8208 H   0  0  0  0  0  0  0  0  0  0  0  0
   -3.8065    0.9385    1.0380 H   0  0  0  0  0  0  0  0  0  0  0  0
   -1.4936    0.2531   -0.1560 C   0  0  0  0  0  0  0  0  0  0  0  0
   -2.9822   -1.3961   -1.1291 H   0  0  0  0  0  0  0  0  0  0  0  0
   -2.3204   -1.2127    0.8127 H   0  0  0  0  0  0  0  0  0  0  0  0
   -0.2113   -0.7135    0.1199 C   0  0  0  0  0  0  0  0  0  0  0  0
   -1.4689    0.6436    0.5846 H   0  0  0  0  0  0  0  0  0  0  0  0
   -1.2290    1.0883   -1.2301 H   0  0  0  0  0  0  0  0  0  0  0  0
   -0.4422   -1.0772    0.9286 H   0  0  0  0  0  0  0  0  0  0  0  0
    0.5612   -0.2892    0.9511 H   0  0  0  0  0  0  0  0  0  0  0  0
    0.1949   -1.7674   -0.9168 H   0  0  0  0  0  0  0  0  0  0  0  0
  1  3  1  0  0  0  0
  1  5  1  0  0  0  0
  2  1  1  0  0  0  0
  2  8  1  0  0  0  0
  4  1  1  0  0  0  0
  6  2  1  0  0  0  0
  6  9  1  0  0  0  0
  6 10  1  0  0  0  0
  7  2  1  0  0  0  0
  9 12  1  0  0  0  0
  9 13  1  0  0  0  0
 11  6  1  0  0  0  0
M  RAD  2   9   2  14   2
M  END
$$$$
