butane_opt
 OpenBabel08242015393D

 14 13  0  0  0  0  0  0  0  0999 V2000
   -3.9767    0.3044   -0.0613 C   0  0  0  0  0  0  0  0  0  0  0  0
   -2.6756   -0.6503    0.1941 C   0  0  0  0  0  0  0  0  0  0  0  0
   -4.7801   -0.1514   -0.3725 H   0  0  0  0  0  0  0  0  0  0  0  0
   -3.6006    0.6285   -0.7448 H   0  0  0  0  0  0  0  0  0  0  0  0
   -4.5044    1.0599    0.9381 H   0  0  0  0  0  0  0  0  0  0  0  0
   -1.3834    0.1348    0.0429 C   0  0  0  0  0  0  0  0  0  0  0  0
   -2.3020   -1.3549   -0.6790 H   0  0  0  0  0  0  0  0  0  0  0  0
   -2.7537   -1.1612    0.9454 H   0  0  0  0  0  0  0  0  0  0  0  0
   -0.1453   -0.6675   -0.0436 C   0  0  0  0  0  0  0  0  0  0  0  0
   -1.2481    0.7415    0.9364 H   0  0  0  0  0  0  0  0  0  0  0  0
   -1.5896    0.6822   -0.9078 H   0  0  0  0  0  0  0  0  0  0  0  0
   -0.4369   -1.2141    0.8517 H   0  0  0  0  0  0  0  0  0  0  0  0
    0.8582    0.1102   -0.1041 H   0  0  0  0  0  0  0  0  0  0  0  0
   -0.4914   -1.2586   -0.9351 H   0  0  0  0  0  0  0  0  0  0  0  0
  1  2  1  0  0  0  0
  1  5  1  0  0  0  0
  2  8  1  0  0  0  0
  3  1  1  0  0  0  0
  4  1  1  0  0  0  0
  6  2  1  0  0  0  0
  6 10  1  0  0  0  0
  7  2  1  0  0  0  0
  9  6  1  0  0  0  0
  9 12  1  0  0  0  0
 11  6  1  0  0  0  0
 13  9  1  0  0  0  0
 14  9  1  0  0  0  0
M  END
$$$$
