butane_opt
 OpenBabel08242015393D

 14 13  0  0  0  0  0  0  0  0999 V2000
   -3.9035    0.2001    0.2595 C   0  0  0  0  0  0  0  0  0  0  0  0
   -2.6842   -0.5591   -0.1682 C   0  0  0  0  0  0  0  0  0  0  0  0
   -4.8433   -0.4352    0.1112 H   0  0  0  0  0  0  0  0  0  0  0  0
   -3.8515    0.6973   -0.5875 H   0  0  0  0  0  0  0  0  0  0  0  0
   -3.4646    0.9015    1.1767 H   0  0  0  0  0  0  0  0  0  0  0  0
   -1.4656    0.2793   -0.2937 C   0  0  0  0  0  0  0  0  0  0  0  0
   -2.8960   -1.2594   -0.9792 H   0  0  0  0  0  0  0  0  0  0  0  0
   -2.4997   -1.1717    0.7774 H   0  0  0  0  0  0  0  0  0  0  0  0
   -0.2159   -0.7646    0.2189 C   0  0  0  0  0  0  0  0  0  0  0  0
   -1.4190    0.9362    0.6190 H   0  0  0  0  0  0  0  0  0  0  0  0
   -1.2865    1.1178   -1.2855 H   0  0  0  0  0  0  0  0  0  0  0  0
   -0.6256   -1.1784    1.1498 H   0  0  0  0  0  0  0  0  0  0  0  0
    0.7079   -0.3801    0.8501 H   0  0  0  0  0  0  0  0  0  0  0  0
    0.4014   -1.6040   -0.6224 H   0  0  0  0  0  0  0  0  0  0  0  0
  1  5  1  0  0  0  0
  2  1  1  0  0  0  0
  2  8  1  0  0  0  0
  3  1  1  0  0  0  0
  4  1  1  0  0  0  0
  6  2  1  0  0  0  0
  6  9  1  0  0  0  0
  6 10  1  0  0  0  0
  7  2  1  0  0  0  0
  9 13  1  0  0  0  0
  9 12  1  0  0  0  0
 11  6  1  0  0  0  0
 14  9  1  0  0  0  0
M  END
$$$$
