14
butane_opt
C  -3.924950   0.311253  -0.086797
C  -2.651375  -0.631024   0.148133
H  -4.908568  -0.204105   0.598218
H  -4.140003   1.784433  -1.564699
H  -3.757176   0.065227   0.132497
C  -1.380610   0.115901   0.189080
H  -2.496626  -1.714899  -0.776430
H  -2.883535  -1.220742   1.014635
C  -0.222469  -0.676249  -0.093176
H  -1.395237   1.048021   1.202477
H  -1.744461   0.570501  -0.559250
H  -0.212410  -0.889789   0.431149
H   0.922933   0.186437   0.109075
H  -0.303109  -1.461637  -1.140424
