butane_opt
 OpenBabel08242015393D

 14 11  0  0  0  0  0  0  0  0999 V2000
   -3.9459    0.2365    0.2432 C   0  0  0  0  0  0  0  0  0  0  0  0
   -2.7481   -0.5559   -0.2669 C   0  0  0  0  0  0  0  0  0  0  0  0
   -5.1917   -0.6205    0.8598 H   0  0  0  0  0  0  0  0  0  0  0  0
   -4.3527    1.2754   -0.9043 H   0  0  0  0  0  0  0  0  0  0  0  0
   -3.5545    0.4919    0.9175 H   0  0  0  0  0  0  0  0  0  0  0  0
   -1.3986    0.2283   -0.1423 C   0  0  0  0  0  0  0  0  0  0  0  0
   -3.0794   -1.3808   -1.2391 H   0  0  0  0  0  0  0  0  0  0  0  0
   -2.6615   -0.9183    0.4097 H   0  0  0  0  0  0  0  0  0  0  0  0
   -0.0860   -0.7363    0.2160 C   0  0  0  0  0  0  0  0  0  0  0  0
   -1.3813    0.8165    0.6966 H   0  0  0  0  0  0  0  0  0  0  0  0
   -1.3770    0.8504   -1.1894 H   0  0  0  0  0  0  0  0  0  0  0  0
   -0.0443   -1.5168    1.3455 H   0  0  0  0  0  0  0  0  0  0  0  0
    0.5860   -0.2766    0.3631 H   0  0  0  0  0  0  0  0  0  0  0  0
    0.2060   -1.2957   -0.4240 H   0  0  0  0  0  0  0  0  0  0  0  0
  1  5  1  0  0  0  0
  2  6  1  0  0  0  0
  2  1  1  0  0  0  0
  2  8  1  0  0  0  0
  6  9  1  0  0  0  0
  6 10  1  0  0  0  0
  7  2  1  0  0  0  0
  9 13  1  0  0  0  0
  9 12  1  0  0  0  0
 11  6  1  0  0  0  0
 14  9  1  0  0  0  0
M  RAD  3   1   3   3   2   4   2
M  END
$$$$
