butane_opt
 OpenBabel08242015393D

 14 10  0  0  0  0  0  0  0  0999 V2000
   -3.9179    0.2850    0.0144 C   0  0  0  0  0  0  0  0  0  0  0  0
   -2.7051   -0.6791    0.1066 C   0  0  0  0  0  0  0  0  0  0  0  0
   -4.6042   -0.1727    0.1076 H   0  0  0  0  0  0  0  0  0  0  0  0
   -3.6517    1.1892   -1.0498 H   0  0  0  0  0  0  0  0  0  0  0  0
   -4.3266    0.8710    0.6836 H   0  0  0  0  0  0  0  0  0  0  0  0
   -1.3782    0.1711   -0.0057 C   0  0  0  0  0  0  0  0  0  0  0  0
   -2.6157   -1.2649   -0.5698 H   0  0  0  0  0  0  0  0  0  0  0  0
   -2.6577   -1.3000    1.0795 H   0  0  0  0  0  0  0  0  0  0  0  0
   -0.1909   -0.6885   -0.0013 C   0  0  0  0  0  1  0  0  0  0  0  0
   -1.4047    0.7669    0.7395 H   0  0  0  0  0  0  0  0  0  0  0  0
   -1.3627    0.8502   -0.9293 H   0  0  0  0  0  0  0  0  0  0  0  0
   -0.6321   -0.5512    0.4158 H   0  0  0  0  0  0  0  0  0  0  0  0
    0.8100   -0.1282    0.6229 H   0  0  0  0  0  0  0  0  0  0  0  0
   -0.2460   -1.7892   -1.0844 H   0  0  0  0  0  0  0  0  0  0  0  0
  1  2  1  0  0  0  0
  1  3  1  0  0  0  0
  1  5  1  0  0  0  0
  2  8  1  0  0  0  0
  4  1  1  0  0  0  0
  6 12  1  0  0  0  0
  6 10  1  0  0  0  0
  7  2  1  0  0  0  0
  9 13  1  0  0  0  0
 11  6  1  0  0  0  0
M  RAD  3   2   2   6   2  14   2
M  END
$$$$
