14
butane_opt
C  -3.869763   0.272526   0.217391
C  -2.689113  -0.612405  -0.102726
H  -4.517755  -0.165381   0.087420
H  -4.214801   0.814041  -0.518707
H  -3.857315   1.089748   1.102857
C  -1.385547   0.152153  -0.302550
H  -2.812839  -1.432488  -1.076149
H  -2.515153  -1.324048   0.832321
C  -0.288706  -0.693157   0.233544
H  -1.478089   0.843682   0.682986
H  -1.239750   0.734140  -1.184956
H  -0.586515  -1.177908   0.991940
H   0.785707   0.173593   0.726238
H   0.177716  -1.418435  -0.763521
