14
butane_opt
C  -3.907396   0.176572  -0.080933
C  -2.661361  -0.576781   0.195775
H  -4.708074  -0.460016  -0.142574
H  -3.529248   1.287909  -1.244956
H  -4.038236   0.767833   0.717223
C  -1.494125   0.285025   0.083188
H  -2.731815  -0.973618  -0.429788
H  -2.769636  -1.530160   1.369997
C  -0.167923  -0.762933  -0.085399
H  -1.332166   1.072173   1.042448
H  -1.571442   0.731210  -0.831004
H  -0.415860  -0.678559   0.376356
H   0.780620  -0.113187   0.477736
H   0.083542  -2.038889  -1.356437
