butane_opt
 OpenBabel08242015393D

 14 13  0  0  0  0  0  0  0  0999 V2000
   -4.0089    0.1981    0.2278 C   0  0  0  0  0  0  0  0  0  0  0  0
   -2.7212   -0.5689   -0.2372 C   0  0  0  0  0  0  0  0  0  0  0  0
   -4.9716   -0.3721    0.7340 H   0  0  0  0  0  0  0  0  0  0  0  0
   -4.3350    0.8859   -0.5918 H   0  0  0  0  0  0  0  0  0  0  0  0
   -3.5229    0.6805    0.9096 H   0  0  0  0  0  0  0  0  0  0  0  0
   -1.4266    0.2794   -0.2348 C   0  0  0  0  0  0  0  0  0  0  0  0
   -2.8569   -1.2282   -0.9836 H   0  0  0  0  0  0  0  0  0  0  0  0
   -2.5756   -0.9903    0.5909 H   0  0  0  0  0  0  0  0  0  0  0  0
   -0.0968   -0.7817    0.2779 C   0  0  0  0  0  0  0  0  0  0  0  0
   -1.6458    0.9463    0.6621 H   0  0  0  0  0  0  0  0  0  0  0  0
   -1.0813    0.8879   -1.1441 H   0  0  0  0  0  0  0  0  0  0  0  0
   -0.1647   -1.1743    1.0462 H   0  0  0  0  0  0  0  0  0  0  0  0
    0.8524   -0.1505    0.2430 H   0  0  0  0  0  0  0  0  0  0  0  0
    0.3274   -1.4970   -0.4945 H   0  0  0  0  0  0  0  0  0  0  0  0
  1  3  1  0  0  0  0
  1  5  1  0  0  0  0
  2  6  1  0  0  0  0
  2  1  1  0  0  0  0
  2  8  1  0  0  0  0
  4  1  1  0  0  0  0
  6  9  1  0  0  0  0
  6 10  1  0  0  0  0
  7  2  1  0  0  0  0
  9 12  1  0  0  0  0
 11  6  1  0  0  0  0
 13  9  1  0  0  0  0
 14  9  1  0  0  0  0
M  END
$$$$
