butane_opt
 OpenBabel08242015393D

 14 12  0  0  0  0  0  0  0  0999 V2000
   -3.9504    0.2256   -0.0806 C   0  0  0  0  0  0  0  0  0  0  0  0
   -2.7124   -0.6027    0.0888 C   0  0  0  0  0  0  0  0  0  0  0  0
   -4.9526   -0.6020   -0.3327 H   0  0  0  0  0  0  0  0  0  0  0  0
   -4.0356    0.9462   -1.0732 H   0  0  0  0  0  0  0  0  0  0  0  0
   -4.2029    1.0632    0.8165 H   0  0  0  0  0  0  0  0  0  0  0  0
   -1.4555    0.2597    0.1841 C   0  0  0  0  0  0  0  0  0  0  0  0
   -2.5156   -1.1992   -0.5693 H   0  0  0  0  0  0  0  0  0  0  0  0
   -2.9835   -1.5097    1.2078 H   0  0  0  0  0  0  0  0  0  0  0  0
   -0.0966   -0.7166   -0.0889 C   0  0  0  0  0  0  0  0  0  0  0  0
   -1.2319    1.2130    1.1845 H   0  0  0  0  0  0  0  0  0  0  0  0
   -1.3199    0.6635   -0.5641 H   0  0  0  0  0  0  0  0  0  0  0  0
    0.5004   -1.6364    1.0685 H   0  0  0  0  0  0  0  0  0  0  0  0
    0.6515   -0.3257   -0.7777 H   0  0  0  0  0  0  0  0  0  0  0  0
   -0.3029   -1.0924   -0.7390 H   0  0  0  0  0  0  0  0  0  0  0  0
  1  2  1  0  0  0  0
  1  5  1  0  0  0  0
  2  6  1  0  0  0  0
  2  8  1  0  0  0  0
  3  1  1  0  0  0  0
  4  1  1  0  0  0  0
  6 10  1  0  0  0  0
  7  2  1  0  0  0  0
  9  6  1  0  0  0  0
 11  6  1  0  0  0  0
 13  9  1  0  0  0  0
 14  9  1  0  0  0  0
M  RAD  2   9   2  12   2
M  END
$$$$
