butane_opt
 OpenBabel08242015393D

 14 11  0  0  0  0  0  0  0  0999 V2000
   -3.9556    0.3020   -0.1316 C   0  0  0  0  0  0  0  0  0  0  0  0
   -2.7187   -0.6736    0.1883 C   0  0  0  0  0  0  0  0  0  0  0  0
   -4.7631   -0.1435   -0.1437 H   0  0  0  0  0  0  0  0  0  0  0  0
   -4.0231    1.2220   -1.3348 H   0  0  0  0  0  0  0  0  0  0  0  0
   -4.4626    0.7161    0.4609 H   0  0  0  0  0  0  0  0  0  0  0  0
   -1.3515    0.1657    0.1985 C   0  0  0  0  0  0  0  0  0  0  0  0
   -2.5234   -1.1852   -0.4289 H   0  0  0  0  0  0  0  0  0  0  0  0
   -2.7501   -1.5521    1.1955 H   0  0  0  0  0  0  0  0  0  0  0  0
   -0.1958   -0.6578   -0.1429 C   0  0  0  0  0  0  0  0  0  0  0  0
   -1.0390    1.2077    1.4635 H   0  0  0  0  0  0  0  0  0  0  0  0
   -1.3434    0.3939   -0.3473 H   0  0  0  0  0  0  0  0  0  0  0  0
    0.0045   -1.3814    0.8662 H   0  0  0  0  0  0  0  0  0  0  0  0
    0.7608    0.0624   -0.5550 H   0  0  0  0  0  0  0  0  0  0  0  0
   -0.2401   -1.4215   -1.1448 H   0  0  0  0  0  0  0  0  0  0  0  0
  1  2  1  0  0  0  0
  1  5  1  0  0  0  0
  2  6  1  0  0  0  0
  2  8  1  0  0  0  0
  3  1  1  0  0  0  0
  4  1  1  0  0  0  0
  7  2  1  0  0  0  0
  9  6  1  0  0  0  0
  9 12  1  0  0  0  0
 13  9  1  0  0  0  0
 14  9  1  0  0  0  0
M  RAD  3   6   3  10   2  11   2
M  END
$$$$
