butane_opt
 OpenBabel08242015393D

 14 12  0  0  0  0  0  0  0  0999 V2000
   -3.8739    0.3344    0.1205 C   0  0  0  0  0  0  0  0  0  0  0  0
   -2.6379   -0.7024   -0.0455 C   0  0  0  0  0  0  0  0  0  0  0  0
   -4.7690   -0.2385   -0.4995 H   0  0  0  0  0  0  0  0  0  0  0  0
   -4.1033    0.2346   -0.2430 H   0  0  0  0  0  0  0  0  0  0  0  0
   -3.9515    1.2888    1.2399 H   0  0  0  0  0  0  0  0  0  0  0  0
   -1.4520    0.1584   -0.1179 C   0  0  0  0  0  0  0  0  0  0  0  0
   -2.5111   -1.1097   -0.7517 H   0  0  0  0  0  0  0  0  0  0  0  0
   -2.9132   -1.4443    0.8873 H   0  0  0  0  0  0  0  0  0  0  0  0
   -0.2064   -0.6495    0.1219 C   0  0  0  0  0  0  0  0  0  0  0  0
   -1.5836    0.7295    0.5090 H   0  0  0  0  0  0  0  0  0  0  0  0
   -1.4635    0.9134   -1.1113 H   0  0  0  0  0  0  0  0  0  0  0  0
   -0.4409   -1.4416    0.9898 H   0  0  0  0  0  0  0  0  0  0  0  0
    0.7814    0.0600    0.1200 H   0  0  0  0  0  0  0  0  0  0  0  0
   -0.0583   -1.1545   -0.5753 H   0  0  0  0  0  0  0  0  0  0  0  0
  1  5  1  0  0  0  0
  2  1  1  0  0  0  0
  2  8  1  0  0  0  0
  3  1  1  0  0  0  0
  6  2  1  0  0  0  0
  6  9  1  0  0  0  0
  6 10  1  0  0  0  0
  7  2  1  0  0  0  0
  9 12  1  0  0  0  0
 11  6  1  0  0  0  0
 13  9  1  0  0  0  0
 14  9  1  0  0  0  0
M  RAD  2   1   2   4   2
M  END
$$$$
