14
butane_opt
C  -3.924440   0.225698   0.210176
C  -2.644838  -0.558161  -0.083459
H  -4.740233  -0.290921   0.078350
H  -3.960181   0.864166  -0.565393
H  -3.969609   1.161708   1.213331
C  -1.456915   0.117866  -0.256382
H  -2.795310  -1.411324  -1.252278
H  -2.462904  -1.121387   0.742527
C  -0.170115  -0.671528   0.250710
H  -1.641640   0.621062   0.440491
H  -1.193029   0.879942  -1.293743
H  -0.742443  -1.037298   0.996100
H   0.897925   0.048057   0.410022
H  -0.031770  -1.556127  -0.807995
