butane_opt
 OpenBabel08242015393D

 14 10  0  0  0  0  0  0  0  0999 V2000
   -3.8144    0.2563   -0.0911 C   0  0  0  0  0  0  0  0  0  0  0  0
   -2.7394   -0.6176    0.1955 C   0  0  0  0  0  0  0  0  0  0  0  0
   -4.7602   -0.4188    0.3527 H   0  0  0  0  0  0  0  0  0  0  0  0
   -3.8109    1.3712   -1.3022 H   0  0  0  0  0  0  0  0  0  0  0  0
   -4.1552    0.4920    0.4956 H   0  0  0  0  0  0  0  0  0  0  0  0
   -1.4443    0.1904    0.0655 C   0  0  0  0  0  0  0  0  0  0  0  0
   -2.5247   -0.9483   -0.4551 H   0  0  0  0  0  0  0  0  0  0  0  0
   -2.9503   -1.3108    1.2738 H   0  0  0  0  0  0  0  0  0  0  0  0
   -0.1969   -0.7121   -0.1092 C   0  0  0  0  0  1  0  0  0  0  0  0
   -1.2983    1.0319    1.1227 H   0  0  0  0  0  0  0  0  0  0  0  0
   -1.6085    0.6363   -0.6133 H   0  0  0  0  0  0  0  0  0  0  0  0
   -0.4771   -0.6983    0.4535 H   0  0  0  0  0  0  0  0  0  0  0  0
    0.7526   -0.0617    0.8189 H   0  0  0  0  0  0  0  0  0  0  0  0
    0.1623   -2.0104   -1.5139 H   0  0  0  0  0  0  0  0  0  0  0  0
  1  2  1  0  0  0  0
  1  3  1  0  0  0  0
  1  5  1  0  0  0  0
  2  8  1  0  0  0  0
  6  2  1  0  0  0  0
  6 12  1  0  0  0  0
  6 10  1  0  0  0  0
  7  2  1  0  0  0  0
  9 13  1  0  0  0  0
 11  6  1  0  0  0  0
M  RAD  3   1   2   4   2  14   2
M  END
$$$$
