14
butane_opt
C  -3.926285   0.249601  -0.023754
C  -2.715226  -0.578322   0.142933
H  -5.010638  -0.515140  -0.053800
H  -4.055082   1.032255  -1.046498
H  -3.958859   0.659938   0.736790
C  -1.396059   0.265903  -0.042859
H  -2.901344  -0.900595  -0.493878
H  -2.981314  -1.500413   1.265733
C  -0.101828  -0.769149  -0.003413
H  -1.439229   1.024637   0.759672
H  -1.412236   0.536153  -0.650972
H  -0.301775  -0.642078   0.570410
H   0.792278  -0.118215   0.696156
H  -0.027058  -2.112204  -1.328502
