14
butane_opt
C  -3.972931   0.296450   0.135027
C  -2.639980  -0.619871  -0.160025
H  -4.924831  -0.364279   0.669126
H  -4.259013   1.319333  -0.932647
H  -3.505237   0.681731   0.893886
C  -1.403474   0.143017  -0.026831
H  -2.567629  -1.765150  -1.299567
H  -2.435851  -1.184913   0.658156
C  -0.221487  -0.664908   0.151360
H  -1.736588   0.535637   0.775780
H  -1.092225   0.897509  -1.016523
H  -0.102896  -1.492455   1.115607
H   0.819320   0.246203  -0.047870
H  -0.395017  -1.128435  -0.602127
