butane_opt
 OpenBabel08242015393D

 14 13  0  0  0  0  0  0  0  0999 V2000
   -4.0552    0.3204   -0.0902 C   0  0  0  0  0  0  0  0  0  0  0  0
   -2.6687   -0.7053    0.2184 C   0  0  0  0  0  0  0  0  0  0  0  0
   -4.7622   -0.0764   -0.4938 H   0  0  0  0  0  0  0  0  0  0  0  0
   -3.7967    0.7748   -0.9465 H   0  0  0  0  0  0  0  0  0  0  0  0
   -4.4139    0.9733    0.6889 H   0  0  0  0  0  0  0  0  0  0  0  0
   -1.3519    0.1681    0.1304 C   0  0  0  0  0  0  0  0  0  0  0  0
   -2.2976   -1.4402   -0.5844 H   0  0  0  0  0  0  0  0  0  0  0  0
   -2.8715   -1.5313    1.3019 H   0  0  0  0  0  0  0  0  0  0  0  0
   -0.1659   -0.6672   -0.1173 C   0  0  0  0  0  0  0  0  0  0  0  0
   -1.2168    0.7824    0.9092 H   0  0  0  0  0  0  0  0  0  0  0  0
   -1.3743    1.0801   -0.7842 H   0  0  0  0  0  0  0  0  0  0  0  0
    0.1085   -0.9959    0.5775 H   0  0  0  0  0  0  0  0  0  0  0  0
    0.7746    0.1594    0.1621 H   0  0  0  0  0  0  0  0  0  0  0  0
   -0.3063   -1.5781   -1.0761 H   0  0  0  0  0  0  0  0  0  0  0  0
  1  2  1  0  0  0  0
  1  5  1  0  0  0  0
  2  8  1  0  0  0  0
  3  1  1  0  0  0  0
  4  1  1  0  0  0  0
  6  2  1  0  0  0  0
  6 10  1  0  0  0  0
  7  2  1  0  0  0  0
  9  6  1  0  0  0  0
  9 13  1  0  0  0  0
  9 12  1  0  0  0  0
 11  6  1  0  0  0  0
 14  9  1  0  0  0  0
M  END
$$$$
