14
butane_opt
C  -3.942895   0.299061   0.139887
C  -2.602225  -0.656855   0.045691
H  -4.767680  -0.328552  -0.867762
H  -3.515963   0.374276  -0.548874
H  -4.398706   1.528800   1.323248
C  -1.423596   0.157773  -0.122605
H  -2.755798  -1.340620  -1.009826
H  -2.736532  -1.202851   0.858903
C  -0.170188  -0.656412   0.087703
H  -1.656140   0.514800   0.472204
H  -1.446403   0.786110  -1.066351
H  -0.404047  -1.577132   1.119163
H   0.836116   0.166959   0.053794
H  -0.508734  -1.092994  -0.595218
