butane_opt
 OpenBabel08242015393D

 14 11  0  0  0  0  0  0  0  0999 V2000
   -3.8686    0.1946   -0.0650 C   0  0  0  0  0  0  0  0  0  0  0  0
   -2.8001   -0.5463    0.1832 C   0  0  0  0  0  0  0  0  0  0  0  0
   -4.7470   -0.2917   -0.1195 H   0  0  0  0  0  0  0  0  0  0  0  0
   -3.9896    0.9657   -1.0564 H   0  0  0  0  0  0  0  0  0  0  0  0
   -3.7808    0.6826    0.8376 H   0  0  0  0  0  0  0  0  0  0  0  0
   -1.4245    0.2914   -0.0011 C   0  0  0  0  0  0  0  0  0  0  0  0
   -2.5990   -1.0509   -0.3850 H   0  0  0  0  0  0  0  0  0  0  0  0
   -2.9952   -1.3817    1.1769 H   0  0  0  0  0  0  0  0  0  0  0  0
   -0.1611   -0.7503   -0.0436 C   0  0  0  0  0  0  0  0  0  0  0  0
   -1.4031    0.8944    0.9132 H   0  0  0  0  0  0  0  0  0  0  0  0
   -1.4959    0.7620   -0.6983 H   0  0  0  0  0  0  0  0  0  0  0  0
   -0.1428   -0.9521    0.4951 H   0  0  0  0  0  0  0  0  0  0  0  0
    0.8001   -0.2334    0.6423 H   0  0  0  0  0  0  0  0  0  0  0  0
    0.3570   -2.1215   -1.3418 H   0  0  0  0  0  0  0  0  0  0  0  0
  1  2  1  0  0  0  0
  1  5  1  0  0  0  0
  2  8  1  0  0  0  0
  3  1  1  0  0  0  0
  4  1  1  0  0  0  0
  6  2  1  0  0  0  0
  6 10  1  0  0  0  0
  7  2  1  0  0  0  0
  9  6  1  0  0  0  0
  9 13  1  0  0  0  0
 11  6  1  0  0  0  0
M  RAD  3   9   3  12   2  14   2
M  END
$$$$
