14
butane_opt
C  -3.957667   0.253367   0.197156
C  -2.748699  -0.545269  -0.053403
H  -5.149743  -0.615452   0.322090
H  -4.156661   0.653304  -0.588744
H  -3.817757   0.955785   1.067495
C  -1.378066   0.224430  -0.246198
H  -2.773471  -1.693390  -1.349588
H  -2.516841  -0.980963   0.594475
C  -0.114733  -0.730562   0.192621
H  -1.538375   0.712400   0.404025
H  -1.248716   1.155420  -1.329343
H  -0.423525  -1.338429   0.971118
H   0.765281  -0.229165   0.887655
H   0.286300  -1.556220  -0.582421
