butane_opt
 OpenBabel08242015393D

 14 13  0  0  0  0  0  0  0  0999 V2000
   -3.9766    0.3248    0.1919 C   0  0  0  0  0  0  0  0  0  0  0  0
   -2.5997   -0.6733   -0.2383 C   0  0  0  0  0  0  0  0  0  0  0  0
   -4.9173   -0.3219    0.8592 H   0  0  0  0  0  0  0  0  0  0  0  0
   -4.2818    1.1025   -0.7475 H   0  0  0  0  0  0  0  0  0  0  0  0
   -3.7235    0.8001    0.9613 H   0  0  0  0  0  0  0  0  0  0  0  0
   -1.4127    0.1030   -0.0975 C   0  0  0  0  0  0  0  0  0  0  0  0
   -2.6094   -1.4496   -1.1437 H   0  0  0  0  0  0  0  0  0  0  0  0
   -2.3655   -1.0652    0.3313 H   0  0  0  0  0  0  0  0  0  0  0  0
   -0.2627   -0.6435    0.2518 C   0  0  0  0  0  0  0  0  0  0  0  0
   -1.3588    0.6033    0.5516 H   0  0  0  0  0  0  0  0  0  0  0  0
   -1.1515    0.8956   -1.2136 H   0  0  0  0  0  0  0  0  0  0  0  0
   -0.2407   -1.3107    1.2102 H   0  0  0  0  0  0  0  0  0  0  0  0
    0.9720    0.0950   -0.0280 H   0  0  0  0  0  0  0  0  0  0  0  0
   -0.3531   -1.1134   -0.6015 H   0  0  0  0  0  0  0  0  0  0  0  0
  1  3  1  0  0  0  0
  1  5  1  0  0  0  0
  2  6  1  0  0  0  0
  2  1  1  0  0  0  0
  2  8  1  0  0  0  0
  4  1  1  0  0  0  0
  6  9  1  0  0  0  0
  6 10  1  0  0  0  0
  7  2  1  0  0  0  0
  9 12  1  0  0  0  0
 11  6  1  0  0  0  0
 13  9  1  0  0  0  0
 14  9  1  0  0  0  0
M  END
$$$$
