14
butane_opt
C  -3.873923   0.334360   0.120519
C  -2.637937  -0.702378  -0.045535
H  -4.769023  -0.238531  -0.499484
H  -4.103283   0.234634  -0.243041
H  -3.951548   1.288828   1.239874
C  -1.452040   0.158419  -0.117934
H  -2.511092  -1.109677  -0.751729
H  -2.913228  -1.444277   0.887317
C  -0.206395  -0.649508   0.121885
H  -1.583626   0.729461   0.509049
H  -1.463532   0.913402  -1.111264
H  -0.440871  -1.441595   0.989814
H   0.781389   0.059955   0.120021
H  -0.058302  -1.154520  -0.575343
