butane_opt
 OpenBabel08242015393D

 14 12  0  0  0  0  0  0  0  0999 V2000
   -3.8593    0.3402   -0.1441 C   0  0  0  0  0  0  0  0  0  0  0  0
   -2.6748   -0.7069    0.2015 C   0  0  0  0  0  0  0  0  0  0  0  0
   -4.8033   -0.1617    0.0870 H   0  0  0  0  0  0  0  0  0  0  0  0
   -3.7449    1.4372   -1.2992 H   0  0  0  0  0  0  0  0  0  0  0  0
   -4.4167    0.5516    0.3101 H   0  0  0  0  0  0  0  0  0  0  0  0
   -1.4461    0.1529    0.2254 C   0  0  0  0  0  0  0  0  0  0  0  0
   -2.6728   -1.5912   -0.6598 H   0  0  0  0  0  0  0  0  0  0  0  0
   -2.6952   -1.3617    1.0516 H   0  0  0  0  0  0  0  0  0  0  0  0
   -0.2183   -0.6491   -0.1256 C   0  0  0  0  0  0  0  0  0  0  0  0
   -1.0217    0.9319    1.3237 H   0  0  0  0  0  0  0  0  0  0  0  0
   -1.4777    0.5885   -0.4538 H   0  0  0  0  0  0  0  0  0  0  0  0
    0.0591   -1.2378    0.6660 H   0  0  0  0  0  0  0  0  0  0  0  0
    0.8590    0.1577   -0.4345 H   0  0  0  0  0  0  0  0  0  0  0  0
   -0.7543   -1.3799   -1.0723 H   0  0  0  0  0  0  0  0  0  0  0  0
  1  3  1  0  0  0  0
  1  2  1  0  0  0  0
  1  5  1  0  0  0  0
  2  6  1  0  0  0  0
  2  8  1  0  0  0  0
  6 10  1  0  0  0  0
  7  2  1  0  0  0  0
  9  6  1  0  0  0  0
  9 12  1  0  0  0  0
 11  6  1  0  0  0  0
 13  9  1  0  0  0  0
 14  9  1  0  0  0  0
M  RAD  2   1   2   4   2
M  END
$$$$
