butane_opt
 OpenBabel08242015393D

 14 12  0  0  0  0  0  0  0  0999 V2000
   -3.9400    0.3210   -0.1495 C   0  0  0  0  0  0  0  0  0  0  0  0
   -2.6998   -0.6332    0.2490 C   0  0  0  0  0  0  0  0  0  0  0  0
   -4.8694   -0.1844   -0.7404 H   0  0  0  0  0  0  0  0  0  0  0  0
   -3.6936    0.7241   -0.8621 H   0  0  0  0  0  0  0  0  0  0  0  0
   -4.2206    1.1814    0.7442 H   0  0  0  0  0  0  0  0  0  0  0  0
   -1.3667    0.1006    0.2031 C   0  0  0  0  0  0  0  0  0  0  0  0
   -2.5355   -1.2249   -0.4566 H   0  0  0  0  0  0  0  0  0  0  0  0
   -2.9424   -1.6601    1.3828 H   0  0  0  0  0  0  0  0  0  0  0  0
   -0.1950   -0.6835   -0.1349 C   0  0  0  0  0  0  0  0  0  0  0  0
   -1.1800    0.7263    0.9419 H   0  0  0  0  0  0  0  0  0  0  0  0
   -1.7363    0.8886   -0.7769 H   0  0  0  0  0  0  0  0  0  0  0  0
   -0.0915   -0.9685    0.5408 H   0  0  0  0  0  0  0  0  0  0  0  0
    0.9971    0.1597   -0.1720 H   0  0  0  0  0  0  0  0  0  0  0  0
   -0.3827   -1.3428   -1.1600 H   0  0  0  0  0  0  0  0  0  0  0  0
  1  2  1  0  0  0  0
  1  5  1  0  0  0  0
  3  1  1  0  0  0  0
  4  1  1  0  0  0  0
  6  2  1  0  0  0  0
  6 10  1  0  0  0  0
  7  2  1  0  0  0  0
  9  6  1  0  0  0  0
  9 12  1  0  0  0  0
 11  6  1  0  0  0  0
 13  9  1  0  0  0  0
 14  9  1  0  0  0  0
M  RAD  2   2   2   8   2
M  END
$$$$
