butane_opt
 OpenBabel08242015393D

 14 13  0  0  0  0  0  0  0  0999 V2000
   -4.0127    0.3049   -0.0320 C   0  0  0  0  0  0  0  0  0  0  0  0
   -2.7290   -0.6894    0.0566 C   0  0  0  0  0  0  0  0  0  0  0  0
   -4.8616   -0.2676    0.1393 H   0  0  0  0  0  0  0  0  0  0  0  0
   -4.0578    1.2819   -1.1386 H   0  0  0  0  0  0  0  0  0  0  0  0
   -3.9305    0.8171    0.6819 H   0  0  0  0  0  0  0  0  0  0  0  0
   -1.3475    0.1409    0.1137 C   0  0  0  0  0  0  0  0  0  0  0  0
   -2.3862   -1.4342   -0.7799 H   0  0  0  0  0  0  0  0  0  0  0  0
   -2.6803   -1.1427    0.8811 H   0  0  0  0  0  0  0  0  0  0  0  0
   -0.1628   -0.6817   -0.0132 C   0  0  0  0  0  0  0  0  0  0  0  0
   -1.1226    1.1226    1.1194 H   0  0  0  0  0  0  0  0  0  0  0  0
   -1.3604    0.7856   -0.6577 H   0  0  0  0  0  0  0  0  0  0  0  0
    0.0914   -1.5714    0.9911 H   0  0  0  0  0  0  0  0  0  0  0  0
    0.8234    0.1136   -0.3773 H   0  0  0  0  0  0  0  0  0  0  0  0
   -0.5202   -1.0806   -0.9008 H   0  0  0  0  0  0  0  0  0  0  0  0
  1  2  1  0  0  0  0
  1  3  1  0  0  0  0
  1  5  1  0  0  0  0
  2  6  1  0  0  0  0
  2  8  1  0  0  0  0
  4  1  1  0  0  0  0
  6 10  1  0  0  0  0
  7  2  1  0  0  0  0
  9  6  1  0  0  0  0
  9 12  1  0  0  0  0
 11  6  1  0  0  0  0
 13  9  1  0  0  0  0
 14  9  1  0  0  0  0
M  END
$$$$
