14
butane_opt
C  -3.991894   0.318307  -0.062657
C  -2.713577  -0.646641   0.135679
H  -4.839290  -0.238357   0.016218
H  -3.908173   1.174276  -1.258603
H  -4.228369   0.741658   0.699932
C  -1.387484   0.121962   0.113350
H  -2.628011  -1.112004  -0.608507
H  -2.754032  -1.476347   1.220148
C  -0.119112  -0.642621  -0.039473
H  -1.129445   0.457216   0.839746
H  -1.271254   0.750843  -0.694457
H  -0.214057  -0.602068   0.486827
H   0.770016  -0.053586   0.177895
H  -0.266497  -1.908690  -1.295010
