butane_opt
 OpenBabel08242015393D

 14 10  0  0  0  0  0  0  0  0999 V2000
   -3.8630    0.2140   -0.0791 C   0  0  0  0  0  0  0  0  0  0  0  0
   -2.6988   -0.5533    0.1853 C   0  0  0  0  0  0  0  0  0  0  0  0
   -4.8759   -0.5027    0.1752 H   0  0  0  0  0  0  0  0  0  0  0  0
   -3.9096    1.2053   -1.3068 H   0  0  0  0  0  0  0  0  0  0  0  0
   -3.6202    0.5174    0.4342 H   0  0  0  0  0  0  0  0  0  0  0  0
   -1.4492    0.2751    0.0834 C   0  0  0  0  0  0  0  0  0  0  0  0
   -2.7669   -1.0242   -0.4233 H   0  0  0  0  0  0  0  0  0  0  0  0
   -3.1136   -1.3652    1.1978 H   0  0  0  0  0  0  0  0  0  0  0  0
   -0.2028   -0.7354   -0.1038 C   0  0  0  0  0  0  0  0  0  0  0  0
   -1.3097    1.0659    0.9697 H   0  0  0  0  0  0  0  0  0  0  0  0
   -1.6087    0.4932   -0.5683 H   0  0  0  0  0  0  0  0  0  0  0  0
   -0.2241   -0.9068    0.5495 H   0  0  0  0  0  0  0  0  0  0  0  0
    0.6438   -0.3781    0.6090 H   0  0  0  0  0  0  0  0  0  0  0  0
    0.3146   -1.9853   -1.3186 H   0  0  0  0  0  0  0  0  0  0  0  0
  1  3  1  0  0  0  0
  1  2  1  0  0  0  0
  1  5  1  0  0  0  0
  2  8  1  0  0  0  0
  6 10  1  0  0  0  0
  7  2  1  0  0  0  0
  9  6  1  0  0  0  0
  9 12  1  0  0  0  0
  9 13  1  0  0  0  0
 11  6  1  0  0  0  0
M  RAD  6   1   2   2   2   4   2   6   2   9   2  14   2
M  END
$$$$
