14
butane_opt
C  -4.008866   0.198060   0.227842
C  -2.721201  -0.568938  -0.237197
H  -4.971569  -0.372113   0.733963
H  -4.335037   0.885892  -0.591828
H  -3.522889   0.680542   0.909625
C  -1.426567   0.279433  -0.234821
H  -2.856934  -1.228245  -0.983601
H  -2.575555  -0.990340   0.590867
C  -0.096822  -0.781727   0.277886
H  -1.645844   0.946281   0.662076
H  -1.081313   0.887923  -1.144050
H  -0.164701  -1.174338   1.046250
H   0.852436  -0.150532   0.243035
H   0.327363  -1.496999  -0.494500
