14
butane_opt
C  -3.919770   0.349070   0.111110
C  -2.646803  -0.707871  -0.086913
H  -4.678349   0.017673  -0.279263
H  -3.979008   0.627465  -0.635945
H  -3.755848   1.252935   1.154133
C  -1.399110   0.133259  -0.068129
H  -3.114871  -1.550955  -1.088779
H  -2.519702  -1.407919   0.783458
C  -0.230065  -0.633371   0.131342
H  -1.501712   0.789830   0.904478
H  -1.322833   0.552655  -0.867830
H  -0.157257  -1.752068   1.346340
H   0.830979   0.002546  -0.594694
H  -0.553829  -0.590769  -0.293235
