butane_opt
 OpenBabel08242015393D

 14 11  0  0  0  0  0  0  0  0999 V2000
   -3.9944    0.2708   -0.0459 C   0  0  0  0  0  0  0  0  0  0  0  0
   -2.7462   -0.5918    0.0700 C   0  0  0  0  0  0  0  0  0  0  0  0
   -4.9492   -0.3220    0.5988 H   0  0  0  0  0  0  0  0  0  0  0  0
   -3.9680    1.4380   -1.3020 H   0  0  0  0  0  0  0  0  0  0  0  0
   -4.0165    0.2257    0.4698 H   0  0  0  0  0  0  0  0  0  0  0  0
   -1.3849    0.1975    0.0819 C   0  0  0  0  0  0  0  0  0  0  0  0
   -2.8328   -1.2820   -0.6937 H   0  0  0  0  0  0  0  0  0  0  0  0
   -2.6927   -1.5833    1.1022 H   0  0  0  0  0  0  0  0  0  0  0  0
   -0.0358   -0.6901   -0.0545 C   0  0  0  0  0  0  0  0  0  0  0  0
   -1.4098    1.1382    1.1347 H   0  0  0  0  0  0  0  0  0  0  0  0
   -1.6832    0.5106   -0.5312 H   0  0  0  0  0  0  0  0  0  0  0  0
   -0.2156   -0.9704    0.7015 H   0  0  0  0  0  0  0  0  0  0  0  0
    0.7135   -0.2099    0.4317 H   0  0  0  0  0  0  0  0  0  0  0  0
   -0.0338   -1.6363   -1.1715 H   0  0  0  0  0  0  0  0  0  0  0  0
  1  2  1  0  0  0  0
  1  3  1  0  0  0  0
  2  6  1  0  0  0  0
  2  8  1  0  0  0  0
  6 10  1  0  0  0  0
  7  2  1  0  0  0  0
  9  6  1  0  0  0  0
  9 13  1  0  0  0  0
  9 12  1  0  0  0  0
 11  6  1  0  0  0  0
 14  9  1  0  0  0  0
M  RAD  3   1   3   4   2   5   2
M  END
$$$$
