14
butane_opt
C  -3.926378   0.256462  -0.003257
C  -2.707194  -0.603450   0.068034
H  -4.851588  -0.365876   0.058246
H  -3.963603   0.912995  -0.927738
H  -3.945523   0.896840   0.837169
C  -1.410228   0.195794   0.024725
H  -2.652028  -1.289357  -0.769543
H  -2.756647  -1.279043   0.973017
C  -0.162782  -0.708046   0.011908
H  -1.377924   0.870674   0.867138
H  -1.435149   0.854209  -0.890055
H  -0.143969  -1.177912   0.842072
H   0.750966  -0.127860   0.134234
H  -0.158604  -1.459973  -0.906016
