butane_opt
 OpenBabel08242015393D

 14 11  0  0  0  0  0  0  0  0999 V2000
   -3.8988    0.2156    0.1835 C   0  0  0  0  0  0  0  0  0  0  0  0
   -2.7016   -0.4989   -0.0778 C   0  0  0  0  0  0  0  0  0  0  0  0
   -4.7310   -0.4403    0.2226 H   0  0  0  0  0  0  0  0  0  0  0  0
   -3.9637    0.6336   -0.6053 H   0  0  0  0  0  0  0  0  0  0  0  0
   -3.7992    0.7855    1.0307 H   0  0  0  0  0  0  0  0  0  0  0  0
   -1.4290    0.1886   -0.2209 C   0  0  0  0  0  0  0  0  0  0  0  0
   -2.9238   -1.2283   -1.0737 H   0  0  0  0  0  0  0  0  0  0  0  0
   -2.8769   -1.0070    0.8307 H   0  0  0  0  0  0  0  0  0  0  0  0
   -0.1819   -0.7671    0.2224 C   0  0  0  0  0  0  0  0  0  0  0  0
   -1.6538    0.6427    0.4990 H   0  0  0  0  0  0  0  0  0  0  0  0
   -1.1717    1.2773   -1.3206 H   0  0  0  0  0  0  0  0  0  0  0  0
   -0.3975   -0.7924    0.8589 H   0  0  0  0  0  0  0  0  0  0  0  0
    0.8293   -0.1094    0.5745 H   0  0  0  0  0  0  0  0  0  0  0  0
    0.2101   -1.9269   -0.9248 H   0  0  0  0  0  0  0  0  0  0  0  0
  1  3  1  0  0  0  0
  1  5  1  0  0  0  0
  2  1  1  0  0  0  0
  2  8  1  0  0  0  0
  4  1  1  0  0  0  0
  6  2  1  0  0  0  0
  6  9  1  0  0  0  0
  6 10  1  0  0  0  0
  7  2  1  0  0  0  0
  9 13  1  0  0  0  0
  9 12  1  0  0  0  0
M  RAD  4   6   2   9   2  11   2  14   2
M  END
$$$$
