14
butane_opt
C  -4.017478   0.280859  -0.196216
C  -2.700088  -0.645718   0.203691
H  -4.775088  -0.237363  -0.007027
H  -3.825817   1.073550  -1.190318
H  -3.974881   0.882386   0.525804
C  -1.355894   0.176563   0.266436
H  -2.496982  -1.264766  -0.561523
H  -2.964323  -1.260628   1.067772
C  -0.147512  -0.726294  -0.150614
H  -0.978581   0.914229   1.240121
H  -1.655909   0.754884  -0.355604
H   0.325694  -1.285439   0.744783
H   0.784190  -0.010112  -0.606169
H  -0.810796  -1.042926  -0.852052
