14
butane_opt
C  -4.034457   0.280806   0.207750
C  -2.679102  -0.663999  -0.224105
H  -4.896162  -0.205147   0.767543
H  -4.493603   1.217253  -0.879285
H  -3.412738   0.530387   0.920189
C  -1.340195   0.154281  -0.088388
H  -2.465081  -1.482133  -1.146917
H  -2.656209  -0.795630   0.453999
C  -0.166341  -0.682514   0.210304
H  -1.623986   0.643991   0.551795
H  -1.257802   1.073689  -1.241152
H  -0.249460  -1.320351   1.093634
H   0.707765  -0.020566   0.262566
H  -0.048535  -1.180776  -0.624853
