butane_opt
 OpenBabel08242015393D

 14 10  0  0  0  0  0  0  0  0999 V2000
   -3.9631    0.2775   -0.0461 C   0  0  0  0  0  1  0  0  0  0  0  0
   -2.7441   -0.6689    0.1087 C   0  0  0  0  0  0  0  0  0  0  0  0
   -4.9672   -0.3620    0.5880 H   0  0  0  0  0  0  0  0  0  0  0  0
   -4.2555    1.6708   -1.5316 H   0  0  0  0  0  0  0  0  0  0  0  0
   -4.0205    0.1481    0.1610 H   0  0  0  0  0  0  0  0  0  0  0  0
   -1.4012    0.2662    0.1588 C   0  0  0  0  0  0  0  0  0  0  0  0
   -2.6729   -1.4701   -0.7994 H   0  0  0  0  0  0  0  0  0  0  0  0
   -2.4786   -1.3007    0.9918 H   0  0  0  0  0  0  0  0  0  0  0  0
   -0.1064   -0.6930   -0.0839 C   0  0  0  0  0  0  0  0  0  0  0  0
   -1.4149    0.9960    1.1441 H   0  0  0  0  0  0  0  0  0  0  0  0
   -1.2996    0.5098   -0.5920 H   0  0  0  0  0  0  0  0  0  0  0  0
    0.0366   -1.0425    0.6018 H   0  0  0  0  0  0  0  0  0  0  0  0
    0.5973   -0.1294    0.2346 H   0  0  0  0  0  0  0  0  0  0  0  0
    0.0436   -1.6623   -1.1429 H   0  0  0  0  0  0  0  0  0  0  0  0
  1  3  1  0  0  0  0
  2  5  1  0  0  0  0
  2  8  1  0  0  0  0
  6 10  1  0  0  0  0
  7  2  1  0  0  0  0
  9  6  1  0  0  0  0
  9 13  1  0  0  0  0
  9 12  1  0  0  0  0
 11  6  1  0  0  0  0
 14  9  1  0  0  0  0
M  RAD  3   2   2   4   2   6   2
M  END
$$$$
