14
butane_opt
C  -4.016314   0.290737  -0.143623
C  -2.658455  -0.666587   0.233176
H  -4.877395  -0.147984  -0.683383
H  -3.882959   0.929098  -0.971602
H  -4.468723   1.107770   0.825041
C  -1.362769   0.095189   0.205196
H  -2.776617  -1.139890  -0.478969
H  -2.800462  -1.413083   1.229538
C  -0.165851  -0.655566  -0.108900
H  -1.171171   0.921247   1.000121
H  -1.437526   0.968506  -0.848541
H   0.186298  -1.095928   0.685177
H   0.984937   0.093571  -0.380372
H  -0.368055  -1.469768  -1.197307
