14
butane_opt
C  -3.859275   0.340241  -0.144129
C  -2.674784  -0.706931   0.201545
H  -4.803337  -0.161662   0.086994
H  -3.744907   1.437213  -1.299210
H  -4.416748   0.551631   0.310089
C  -1.446073   0.152881   0.225415
H  -2.672787  -1.591239  -0.659766
H  -2.695181  -1.361665   1.051554
C  -0.218301  -0.649103  -0.125551
H  -1.021655   0.931924   1.323741
H  -1.477685   0.588516  -0.453837
H   0.059131  -1.237792   0.666023
H   0.859017   0.157691  -0.434493
H  -0.754330  -1.379922  -1.072329
