butane_opt
 OpenBabel08242015393D

 14 12  0  0  0  0  0  0  0  0999 V2000
   -3.9358    0.1994   -0.0338 C   0  0  0  0  0  0  0  0  0  0  0  0
   -2.7492   -0.5832    0.1328 C   0  0  0  0  0  0  0  0  0  0  0  0
   -4.7251   -0.3072   -0.6736 H   0  0  0  0  0  0  0  0  0  0  0  0
   -3.8642    0.5517   -0.8595 H   0  0  0  0  0  0  0  0  0  0  0  0
   -4.1482    1.1194    0.8839 H   0  0  0  0  0  0  0  0  0  0  0  0
   -1.4530    0.3242    0.0534 C   0  0  0  0  0  0  0  0  0  0  0  0
   -2.7177   -0.9670   -0.4156 H   0  0  0  0  0  0  0  0  0  0  0  0
   -2.9530   -1.6266    1.3338 H   0  0  0  0  0  0  0  0  0  0  0  0
   -0.1003   -0.7635   -0.0394 C   0  0  0  0  0  0  0  0  0  0  0  0
   -1.5121    0.8835    0.8572 H   0  0  0  0  0  0  0  0  0  0  0  0
   -1.3744    0.6885   -0.6924 H   0  0  0  0  0  0  0  0  0  0  0  0
    0.2702   -1.1078    0.6667 H   0  0  0  0  0  0  0  0  0  0  0  0
    0.8248   -0.3136   -0.0632 H   0  0  0  0  0  0  0  0  0  0  0  0
    0.0350   -1.4884   -0.9793 H   0  0  0  0  0  0  0  0  0  0  0  0
  1  2  1  0  0  0  0
  1  5  1  0  0  0  0
  3  1  1  0  0  0  0
  4  1  1  0  0  0  0
  6  2  1  0  0  0  0
  6 10  1  0  0  0  0
  7  2  1  0  0  0  0
  9  6  1  0  0  0  0
  9 12  1  0  0  0  0
 11  6  1  0  0  0  0
 13  9  1  0  0  0  0
 14  9  1  0  0  0  0
M  RAD  2   2   2   8   2
M  END
$$$$
