14
butane_opt
C  -3.834211   0.202282  -0.093091
C  -2.735019  -0.562477   0.121667
H  -4.682946  -0.297322   0.093119
H  -3.848280   1.401411  -1.388950
H  -3.752735   0.405394   0.417685
C  -1.455468   0.240958   0.249430
H  -2.599104  -1.168462  -0.751565
H  -3.058238  -1.149746   0.973267
C  -0.196945  -0.723876  -0.092577
H  -1.574550   0.846470   1.174000
H  -1.476412   0.672333  -0.522900
H   0.463350  -1.387368   0.918914
H   0.675396  -0.132465  -0.620627
H  -0.546612  -1.515506  -1.145722
