butane_opt
 OpenBabel08242015393D

 14 13  0  0  0  0  0  0  0  0999 V2000
   -3.8731    0.1838    0.1362 C   0  0  0  0  0  0  0  0  0  0  0  0
   -2.6611   -0.5739   -0.1348 C   0  0  0  0  0  0  0  0  0  0  0  0
   -4.8152   -0.4557    0.5800 H   0  0  0  0  0  0  0  0  0  0  0  0
   -4.1739    0.9320   -0.8125 H   0  0  0  0  0  0  0  0  0  0  0  0
   -3.4676    0.9846    1.1909 H   0  0  0  0  0  0  0  0  0  0  0  0
   -1.4695    0.2914   -0.1212 C   0  0  0  0  0  0  0  0  0  0  0  0
   -3.0463   -1.3382   -1.1263 H   0  0  0  0  0  0  0  0  0  0  0  0
   -2.7817   -1.0327    0.4963 H   0  0  0  0  0  0  0  0  0  0  0  0
   -0.1780   -0.7673    0.1751 C   0  0  0  0  0  0  0  0  0  0  0  0
   -1.8115    0.7964    0.6066 H   0  0  0  0  0  0  0  0  0  0  0  0
   -1.3470    0.9791   -1.0559 H   0  0  0  0  0  0  0  0  0  0  0  0
   -0.0360   -1.4415    1.2119 H   0  0  0  0  0  0  0  0  0  0  0  0
    0.8030   -0.2362    0.1857 H   0  0  0  0  0  0  0  0  0  0  0  0
   -0.1524   -1.2439   -0.4782 H   0  0  0  0  0  0  0  0  0  0  0  0
  1  3  1  0  0  0  0
  1  5  1  0  0  0  0
  2  6  1  0  0  0  0
  2  1  1  0  0  0  0
  2  8  1  0  0  0  0
  4  1  1  0  0  0  0
  6  9  1  0  0  0  0
  6 10  1  0  0  0  0
  7  2  1  0  0  0  0
  9 13  1  0  0  0  0
  9 12  1  0  0  0  0
 11  6  1  0  0  0  0
 14  9  1  0  0  0  0
M  END
$$$$
