14
butane_opt
C  -3.957480   0.272144   0.029283
C  -2.696211  -0.629900   0.040420
H  -4.837069  -0.284922  -0.098271
H  -3.971651   0.754686  -0.773743
H  -4.077043   1.075469   0.989320
C  -1.400003   0.179166  -0.021829
H  -2.696106  -1.299857  -0.810230
H  -2.727982  -1.245752   0.923050
C  -0.152757  -0.687822   0.045629
H  -1.348658   0.829809   0.828530
H  -1.394714   0.794096  -0.913693
H  -0.183668  -1.347282   0.991819
H   0.788154  -0.038375  -0.014075
H  -0.101629  -1.308665  -0.784706
