14
butane_opt
C  -3.904079   0.242759  -0.114926
C  -2.727837  -0.510675   0.104248
H  -4.889185  -0.541869  -0.260432
H  -3.748338   0.935233  -1.263465
H  -3.825390   0.582380   0.525211
C  -1.388268   0.216303   0.256328
H  -2.597194  -1.008842  -0.494630
H  -2.726157  -1.468502   1.267968
C  -0.168254  -0.751439  -0.114478
H  -1.299277   1.076005   1.185474
H  -1.618626   0.487654  -0.275528
H   0.207407  -1.561208   0.748447
H   0.621612  -0.217093  -0.767009
H  -0.826436  -1.110992  -0.819260
