butane_opt
 OpenBabel08242015393D

 14 10  0  0  0  0  0  0  0  0999 V2000
   -3.8983    0.2220    0.0721 C   0  0  0  0  0  1  0  0  0  0  0  0
   -2.7663   -0.5216   -0.0271 C   0  0  0  0  0  0  0  0  0  0  0  0
   -4.9529   -0.6834   -0.4661 H   0  0  0  0  0  0  0  0  0  0  0  0
   -3.6992    0.0350   -0.2377 H   0  0  0  0  0  0  0  0  0  0  0  0
   -4.1335    1.7166    1.4952 H   0  0  0  0  0  0  0  0  0  0  0  0
   -1.4251    0.2048   -0.1624 C   0  0  0  0  0  0  0  0  0  0  0  0
   -2.9566   -1.0505   -0.6499 H   0  0  0  0  0  0  0  0  0  0  0  0
   -2.4746   -1.2915    0.9092 H   0  0  0  0  0  0  0  0  0  0  0  0
   -0.1462   -0.7347    0.1632 C   0  0  0  0  0  0  0  0  0  0  0  0
   -1.4857    0.8391    0.7327 H   0  0  0  0  0  0  0  0  0  0  0  0
   -1.2206    1.0593   -1.1841 H   0  0  0  0  0  0  0  0  0  0  0  0
    0.0848   -1.6440    1.2203 H   0  0  0  0  0  0  0  0  0  0  0  0
    0.6926   -0.2189   -0.1607 H   0  0  0  0  0  0  0  0  0  0  0  0
   -0.0278   -1.3339   -0.6914 H   0  0  0  0  0  0  0  0  0  0  0  0
  2  8  1  0  0  0  0
  3  1  1  0  0  0  0
  4  2  1  0  0  0  0
  6  9  1  0  0  0  0
  6 10  1  0  0  0  0
  7  2  1  0  0  0  0
  9 12  1  0  0  0  0
 11  6  1  0  0  0  0
 13  9  1  0  0  0  0
 14  9  1  0  0  0  0
M  RAD  3   2   2   5   2   6   2
M  END
$$$$
