14
butane_opt
C  -3.989773   0.296664  -0.118659
C  -2.698382  -0.739959   0.190357
H  -4.715625   0.009593   0.262418
H  -4.123999   1.299943  -1.189556
H  -4.079556   0.773820   0.595741
C  -1.386427   0.160351   0.067397
H  -2.498915  -1.015921  -0.389485
H  -2.834164  -1.800277   1.289984
C  -0.138161  -0.633330  -0.057259
H  -1.461170   1.162532   1.113721
H  -1.383799   0.747776  -0.716655
H  -0.263988  -0.462243   0.428611
H   0.857142   0.009332   0.438339
H  -0.017604  -2.195343  -1.503736
