butane_opt
 OpenBabel08242015393D

 14 11  0  0  0  0  0  0  0  0999 V2000
   -4.0193    0.2038    0.1313 C   0  0  0  0  0  0  0  0  0  0  0  0
   -2.7714   -0.5405   -0.0578 C   0  0  0  0  0  0  0  0  0  0  0  0
   -5.0169   -0.5612    0.2120 H   0  0  0  0  0  0  0  0  0  0  0  0
   -4.1706    0.7230   -0.6927 H   0  0  0  0  0  0  0  0  0  0  0  0
   -3.5151    1.0998    1.3050 H   0  0  0  0  0  0  0  0  0  0  0  0
   -1.3989    0.2325   -0.1931 C   0  0  0  0  0  0  0  0  0  0  0  0
   -2.8761   -1.1183   -0.7910 H   0  0  0  0  0  0  0  0  0  0  0  0
   -2.4800   -1.2383    0.7620 H   0  0  0  0  0  0  0  0  0  0  0  0
   -0.0570   -0.7271    0.1791 C   0  0  0  0  0  0  0  0  0  0  0  0
   -1.5443    0.6968    0.4212 H   0  0  0  0  0  0  0  0  0  0  0  0
   -1.3180    0.9847   -1.3290 H   0  0  0  0  0  0  0  0  0  0  0  0
   -0.3230   -0.9811    0.8739 H   0  0  0  0  0  0  0  0  0  0  0  0
    0.6242   -0.3537    0.9021 H   0  0  0  0  0  0  0  0  0  0  0  0
    0.5689   -1.7845   -0.9736 H   0  0  0  0  0  0  0  0  0  0  0  0
  1  3  1  0  0  0  0
  2  1  1  0  0  0  0
  2  8  1  0  0  0  0
  4  1  1  0  0  0  0
  6  2  1  0  0  0  0
  6  9  1  0  0  0  0
  6 10  1  0  0  0  0
  7  2  1  0  0  0  0
  9 12  1  0  0  0  0
  9 13  1  0  0  0  0
 11  6  1  0  0  0  0
M  RAD  4   1   2   5   2   9   2  14   2
M  END
$$$$
