butane_opt
 OpenBabel08242015393D

 14 13  0  0  0  0  0  0  0  0999 V2000
   -3.9333    0.2522    0.0219 C   0  0  0  0  0  0  0  0  0  0  0  0
   -2.6881   -0.5977    0.0297 C   0  0  0  0  0  0  0  0  0  0  0  0
   -4.8810   -0.3594    0.0398 H   0  0  0  0  0  0  0  0  0  0  0  0
   -3.9779    0.8685   -0.8768 H   0  0  0  0  0  0  0  0  0  0  0  0
   -3.9198    0.9472    0.8731 H   0  0  0  0  0  0  0  0  0  0  0  0
   -1.4154    0.1944    0.0119 C   0  0  0  0  0  0  0  0  0  0  0  0
   -2.7214   -1.3321   -0.8456 H   0  0  0  0  0  0  0  0  0  0  0  0
   -2.7586   -1.2279    0.9197 H   0  0  0  0  0  0  0  0  0  0  0  0
   -0.1672   -0.7054    0.0343 C   0  0  0  0  0  0  0  0  0  0  0  0
   -1.3955    0.9088    0.8808 H   0  0  0  0  0  0  0  0  0  0  0  0
   -1.4406    0.7861   -0.8525 H   0  0  0  0  0  0  0  0  0  0  0  0
   -0.1302   -1.4009    1.0049 H   0  0  0  0  0  0  0  0  0  0  0  0
    0.7901   -0.0863   -0.0926 H   0  0  0  0  0  0  0  0  0  0  0  0
   -0.1392   -1.2921   -0.7767 H   0  0  0  0  0  0  0  0  0  0  0  0
  1  2  1  0  0  0  0
  1  3  1  0  0  0  0
  1  5  1  0  0  0  0
  2  8  1  0  0  0  0
  4  1  1  0  0  0  0
  6  2  1  0  0  0  0
  6  9  1  0  0  0  0
  6 10  1  0  0  0  0
  7  2  1  0  0  0  0
  9 12  1  0  0  0  0
 11  6  1  0  0  0  0
 13  9  1  0  0  0  0
 14  9  1  0  0  0  0
M  END
$$$$
