butane_opt
 OpenBabel08242015393D

 14 11  0  0  0  0  0  0  0  0999 V2000
   -3.9739    0.2135   -0.1782 C   0  0  0  0  0  0  0  0  0  0  0  0
   -2.7728   -0.5536    0.1987 C   0  0  0  0  0  0  0  0  0  0  0  0
   -4.8180   -0.4306    0.1197 H   0  0  0  0  0  0  0  0  0  0  0  0
   -3.6744    0.9757   -1.3141 H   0  0  0  0  0  0  0  0  0  0  0  0
   -4.0699    0.6892    0.5789 H   0  0  0  0  0  0  0  0  0  0  0  0
   -1.4296    0.2501    0.2646 C   0  0  0  0  0  0  0  0  0  0  0  0
   -2.6155   -1.3865   -0.6928 H   0  0  0  0  0  0  0  0  0  0  0  0
   -2.9722   -1.1438    1.0332 H   0  0  0  0  0  0  0  0  0  0  0  0
   -0.1042   -0.7440   -0.1525 C   0  0  0  0  0  0  0  0  0  0  0  0
   -1.0845    1.2267    1.4391 H   0  0  0  0  0  0  0  0  0  0  0  0
   -1.3786    0.7775   -0.4932 H   0  0  0  0  0  0  0  0  0  0  0  0
    0.5436   -1.7164    0.8858 H   0  0  0  0  0  0  0  0  0  0  0  0
    0.5981   -0.4001   -0.7887 H   0  0  0  0  0  0  0  0  0  0  0  0
   -0.1878   -1.0478   -0.8837 H   0  0  0  0  0  0  0  0  0  0  0  0
  1  3  1  0  0  0  0
  1  2  1  0  0  0  0
  1  5  1  0  0  0  0
  2  6  1  0  0  0  0
  2  8  1  0  0  0  0
  4  1  1  0  0  0  0
  7  2  1  0  0  0  0
  9  6  1  0  0  0  0
 11  6  1  0  0  0  0
 13  9  1  0  0  0  0
 14  9  1  0  0  0  0
M  RAD  4   6   2   9   2  10   2  12   2
M  END
$$$$
