butane_opt
 OpenBabel08242015393D

 14 10  0  0  0  0  0  0  0  0999 V2000
   -3.9140    0.2660   -0.1888 C   0  0  0  0  0  1  0  0  0  0  0  0
   -2.6918   -0.5428    0.1361 C   0  0  0  0  0  0  0  0  0  0  0  0
   -5.0813   -0.7334    0.6426 H   0  0  0  0  0  0  0  0  0  0  0  0
   -4.0550    1.3651   -1.3548 H   0  0  0  0  0  0  0  0  0  0  0  0
   -3.3822    0.4347    0.5452 H   0  0  0  0  0  0  0  0  0  0  0  0
   -1.4173    0.2032    0.2333 C   0  0  0  0  0  0  0  0  0  0  0  0
   -2.6947   -1.1556   -0.6785 H   0  0  0  0  0  0  0  0  0  0  0  0
   -2.9871   -1.4512    1.1728 H   0  0  0  0  0  0  0  0  0  0  0  0
   -0.1807   -0.7388   -0.1377 C   0  0  0  0  0  0  0  0  0  0  0  0
   -1.3066    1.1603    1.3344 H   0  0  0  0  0  0  0  0  0  0  0  0
   -1.5659    0.6045   -0.4076 H   0  0  0  0  0  0  0  0  0  0  0  0
    0.1815   -1.3771    0.6738 H   0  0  0  0  0  0  0  0  0  0  0  0
    0.7146   -0.0830   -0.0640 H   0  0  0  0  0  0  0  0  0  0  0  0
   -0.3954   -1.4673   -0.9751 H   0  0  0  0  0  0  0  0  0  0  0  0
  1  5  1  0  0  0  0
  2  6  1  0  0  0  0
  2  8  1  0  0  0  0
  6 10  1  0  0  0  0
  7  2  1  0  0  0  0
  9 13  1  0  0  0  0
  9  6  1  0  0  0  0
  9 12  1  0  0  0  0
 11  6  1  0  0  0  0
 14  9  1  0  0  0  0
M  RAD  3   2   2   3   2   4   2
M  END
$$$$
