butane_opt
 OpenBabel08242015393D

 14 13  0  0  0  0  0  0  0  0999 V2000
   -3.9081    0.2171    0.2008 C   0  0  0  0  0  0  0  0  0  0  0  0
   -2.6934   -0.5470   -0.2428 C   0  0  0  0  0  0  0  0  0  0  0  0
   -4.8417   -0.2349    0.7265 H   0  0  0  0  0  0  0  0  0  0  0  0
   -4.3056    0.9418   -0.7711 H   0  0  0  0  0  0  0  0  0  0  0  0
   -3.3987    0.7619    1.0293 H   0  0  0  0  0  0  0  0  0  0  0  0
   -1.3998    0.2197   -0.1933 C   0  0  0  0  0  0  0  0  0  0  0  0
   -2.9205   -1.3445   -1.1210 H   0  0  0  0  0  0  0  0  0  0  0  0
   -2.4575   -1.3411    0.8313 H   0  0  0  0  0  0  0  0  0  0  0  0
   -0.2271   -0.7241    0.2742 C   0  0  0  0  0  0  0  0  0  0  0  0
   -1.5228    0.8631    0.7444 H   0  0  0  0  0  0  0  0  0  0  0  0
   -1.2622    0.7778   -1.1555 H   0  0  0  0  0  0  0  0  0  0  0  0
   -0.2915   -1.1519    1.1061 H   0  0  0  0  0  0  0  0  0  0  0  0
    0.6237   -0.1893    0.1155 H   0  0  0  0  0  0  0  0  0  0  0  0
    0.0953   -1.5193   -0.5984 H   0  0  0  0  0  0  0  0  0  0  0  0
  1  3  1  0  0  0  0
  1  5  1  0  0  0  0
  2  6  1  0  0  0  0
  2  1  1  0  0  0  0
  2  8  1  0  0  0  0
  4  1  1  0  0  0  0
  6  9  1  0  0  0  0
  6 10  1  0  0  0  0
  7  2  1  0  0  0  0
  9 12  1  0  0  0  0
 11  6  1  0  0  0  0
 13  9  1  0  0  0  0
 14  9  1  0  0  0  0
M  END
$$$$
