14
butane_opt
C  -3.940229   0.272557   0.042980
C  -2.698376  -0.614346   0.019135
H  -4.846140  -0.319011   0.002333
H  -3.920818   0.820081  -0.807891
H  -4.018994   0.991089   0.943282
C  -1.406738   0.162506  -0.023037
H  -2.752705  -1.336738  -0.871328
H  -2.656971  -1.190076   0.901450
C  -0.170260  -0.691763   0.061303
H  -1.351512   0.831117   0.832942
H  -1.367285   0.851926  -0.957365
H  -0.161346  -1.310490   0.977716
H   0.782582  -0.054064   0.006114
H  -0.146718  -1.304024  -0.780938
