butane_opt
 OpenBabel08242015393D

 14 13  0  0  0  0  0  0  0  0999 V2000
   -3.9856    0.2381    0.1448 C   0  0  0  0  0  0  0  0  0  0  0  0
   -2.7832   -0.5427   -0.2036 C   0  0  0  0  0  0  0  0  0  0  0  0
   -5.0632   -0.5021    0.5982 H   0  0  0  0  0  0  0  0  0  0  0  0
   -4.2139    0.9883   -0.8495 H   0  0  0  0  0  0  0  0  0  0  0  0
   -3.5284    0.7222    0.9234 H   0  0  0  0  0  0  0  0  0  0  0  0
   -1.4010    0.2307   -0.0658 C   0  0  0  0  0  0  0  0  0  0  0  0
   -3.0602   -1.2102   -0.9730 H   0  0  0  0  0  0  0  0  0  0  0  0
   -2.4941   -1.2619    0.8317 H   0  0  0  0  0  0  0  0  0  0  0  0
   -0.1047   -0.7424    0.1631 C   0  0  0  0  0  0  0  0  0  0  0  0
   -1.4122    0.8877    0.8716 H   0  0  0  0  0  0  0  0  0  0  0  0
   -1.0525    0.8008   -1.0236 H   0  0  0  0  0  0  0  0  0  0  0  0
   -0.0058   -1.5773    1.2220 H   0  0  0  0  0  0  0  0  0  0  0  0
    0.7092   -0.0490   -0.0624 H   0  0  0  0  0  0  0  0  0  0  0  0
    0.3676   -1.4728   -0.6307 H   0  0  0  0  0  0  0  0  0  0  0  0
  1  3  1  0  0  0  0
  1  5  1  0  0  0  0
  2  6  1  0  0  0  0
  2  1  1  0  0  0  0
  2  8  1  0  0  0  0
  4  1  1  0  0  0  0
  6  9  1  0  0  0  0
  6 10  1  0  0  0  0
  7  2  1  0  0  0  0
  9 12  1  0  0  0  0
 11  6  1  0  0  0  0
 13  9  1  0  0  0  0
 14  9  1  0  0  0  0
M  END
$$$$
