butane_opt
 OpenBabel08242015393D

 14  9  0  0  0  0  0  0  0  0999 V2000
   -3.8666    0.2056    0.0916 C   0  0  0  0  0  1  0  0  0  0  0  0
   -2.6666   -0.5322    0.0624 C   0  0  0  0  0  0  0  0  0  0  0  0
   -4.8930   -0.5655   -0.7033 H   0  0  0  0  0  0  0  0  0  0  0  0
   -3.5268   -0.0022   -0.3150 H   0  0  0  0  0  0  0  0  0  0  0  0
   -4.0556    1.6736    1.3766 H   0  0  0  0  0  0  0  0  0  0  0  0
   -1.4322    0.2524   -0.1741 C   0  0  0  0  0  0  0  0  0  0  0  0
   -2.7443   -1.0971   -0.9251 H   0  0  0  0  0  0  0  0  0  0  0  0
   -2.9732   -1.1029    0.9209 H   0  0  0  0  0  0  0  0  0  0  0  0
   -0.2093   -0.7288    0.1112 C   0  0  0  0  0  0  0  0  0  0  0  0
   -1.3511    0.7708    0.5301 H   0  0  0  0  0  0  0  0  0  0  0  0
   -1.5215    0.7593   -0.9411 H   0  0  0  0  0  0  0  0  0  0  0  0
   -0.3694   -1.7475    1.2869 H   0  0  0  0  0  0  0  0  0  0  0  0
    0.4709   -0.3148   -0.1323 H   0  0  0  0  0  0  0  0  0  0  0  0
    0.0853   -1.2809   -0.6242 H   0  0  0  0  0  0  0  0  0  0  0  0
  2  8  1  0  0  0  0
  3  1  1  0  0  0  0
  4  2  1  0  0  0  0
  6  9  1  0  0  0  0
  6 10  1  0  0  0  0
  7  2  1  0  0  0  0
 11  6  1  0  0  0  0
 13  9  1  0  0  0  0
 14  9  1  0  0  0  0
M  RAD  5   2   2   5   2   6   2   9   2  12   2
M  END
$$$$
