14
butane_opt
C  -4.007496   0.202565   0.194646
C  -2.671894  -0.550320  -0.252292
H  -4.914464  -0.429023   0.680833
H  -4.189494   0.872863  -0.648856
H  -3.388877   0.865457   0.976628
C  -1.416609   0.222671  -0.089782
H  -2.933100  -1.170367  -1.159079
H  -2.677473  -0.968229   0.493789
C  -0.141106  -0.714066   0.207367
H  -1.754694   0.836125   0.675829
H  -1.041294   0.771924  -1.105907
H  -0.024876  -1.853814   1.521414
H   0.711224  -0.183528  -0.263523
H   0.010357  -1.143407  -0.439700
