14
butane_opt
C  -3.932903   0.335659  -0.025548
C  -2.691095  -0.726072  -0.003698
H  -4.839488  -0.250022   0.681958
H  -4.388534   1.415596  -1.381995
H  -4.031551   0.518894   0.528917
C  -1.345272   0.192374   0.103669
H  -2.771130  -1.089036  -0.637539
H  -2.667535  -1.643316   1.051273
C  -0.187713  -0.663124   0.001692
H  -1.388990   0.921617   1.023917
H  -1.423052   0.641577  -0.493190
H  -0.140690  -1.008064   0.670315
H   0.789623   0.064709   0.177858
H  -0.276119  -1.681624  -1.180292
