14
butane_opt
C  -3.863862   0.255062   0.179578
C  -2.712805  -0.589918  -0.023122
H  -4.740369  -0.230985   0.191279
H  -3.616029   0.859404  -0.616232
H  -3.723048   0.987766   0.977329
C  -1.412952   0.199842  -0.224321
H  -3.058622  -1.631883  -1.177372
H  -2.606438  -1.280024   0.734943
C  -0.215077  -0.712952   0.175212
H  -1.828311   0.698282   0.421939
H  -1.307490   1.073324  -1.261036
H  -0.694474  -0.853239   0.894236
H   0.679074  -0.157342   0.768432
H   0.285960  -1.750485  -0.837136
