butane_opt
 OpenBabel08242015393D

 14 13  0  0  0  0  0  0  0  0999 V2000
   -3.9404    0.2115   -0.1317 C   0  0  0  0  0  0  0  0  0  0  0  0
   -2.7965   -0.5373    0.1583 C   0  0  0  0  0  0  0  0  0  0  0  0
   -4.8977   -0.4488   -0.0131 H   0  0  0  0  0  0  0  0  0  0  0  0
   -3.8965    0.9404   -1.1485 H   0  0  0  0  0  0  0  0  0  0  0  0
   -4.0596    0.5995    0.4890 H   0  0  0  0  0  0  0  0  0  0  0  0
   -1.4226    0.2444    0.2065 C   0  0  0  0  0  0  0  0  0  0  0  0
   -2.7086   -1.2265   -0.6667 H   0  0  0  0  0  0  0  0  0  0  0  0
   -2.7286   -1.2295    1.0780 H   0  0  0  0  0  0  0  0  0  0  0  0
   -0.0658   -0.7713   -0.0618 C   0  0  0  0  0  0  0  0  0  0  0  0
   -1.3893    1.0497    1.2835 H   0  0  0  0  0  0  0  0  0  0  0  0
   -1.5802    0.9927   -0.7256 H   0  0  0  0  0  0  0  0  0  0  0  0
    0.4636   -1.1825    0.7248 H   0  0  0  0  0  0  0  0  0  0  0  0
    0.9606   -0.2468   -0.6585 H   0  0  0  0  0  0  0  0  0  0  0  0
   -0.4690   -1.4908   -1.0292 H   0  0  0  0  0  0  0  0  0  0  0  0
  1  3  1  0  0  0  0
  1  2  1  0  0  0  0
  1  5  1  0  0  0  0
  2  6  1  0  0  0  0
  2  8  1  0  0  0  0
  4  1  1  0  0  0  0
  6 10  1  0  0  0  0
  7  2  1  0  0  0  0
  9  6  1  0  0  0  0
  9 12  1  0  0  0  0
 11  6  1  0  0  0  0
 13  9  1  0  0  0  0
 14  9  1  0  0  0  0
M  END
$$$$
