14
butane_opt
C  -3.995907   0.167989  -0.078513
C  -2.755006  -0.525134   0.095721
H  -4.901666  -0.298458   0.373109
H  -3.963507   1.384993  -1.385041
H  -3.825890   0.203284   0.289113
C  -1.463583   0.235741   0.183200
H  -2.796753  -1.097102  -0.642285
H  -2.746796  -1.167933   1.125620
C  -0.025113  -0.754012  -0.114243
H  -1.282105   1.305384   1.355533
H  -1.458321   0.730690  -0.508238
H   0.085543  -1.270071   0.701766
H   0.734950  -0.228183  -0.105548
H   0.026390  -1.559258  -0.908317
