butane_opt
 OpenBabel08242015393D

 14 10  0  0  0  0  0  0  0  0999 V2000
   -4.0077    0.2921   -0.1013 C   0  0  0  0  0  0  0  0  0  0  0  0
   -2.6814   -0.6215    0.1831 C   0  0  0  0  0  0  0  0  0  0  0  0
   -4.9416   -0.5169    0.1778 H   0  0  0  0  0  0  0  0  0  0  0  0
   -3.9736    1.3483   -1.2787 H   0  0  0  0  0  0  0  0  0  0  0  0
   -3.9414    0.6742    0.5230 H   0  0  0  0  0  0  0  0  0  0  0  0
   -1.3713    0.1352    0.1497 C   0  0  0  0  0  0  0  0  0  0  0  0
   -2.4673   -1.1023   -0.5412 H   0  0  0  0  0  0  0  0  0  0  0  0
   -3.1274   -1.2353    1.1616 H   0  0  0  0  0  0  0  0  0  0  0  0
   -0.1509   -0.6714   -0.1201 C   0  0  0  0  0  0  0  0  0  0  0  0
   -1.2774    0.6012    0.9984 H   0  0  0  0  0  0  0  0  0  0  0  0
   -1.3958    0.7793   -0.6818 H   0  0  0  0  0  0  0  0  0  0  0  0
   -0.0011   -0.7578    0.4423 H   0  0  0  0  0  0  0  0  0  0  0  0
    0.7376   -0.0941    0.4882 H   0  0  0  0  0  0  0  0  0  0  0  0
   -0.1094   -1.7795   -1.2407 H   0  0  0  0  0  0  0  0  0  0  0  0
  1  3  1  0  0  0  0
  1  2  1  0  0  0  0
  1  5  1  0  0  0  0
  2  8  1  0  0  0  0
  6  2  1  0  0  0  0
  6 10  1  0  0  0  0
  7  2  1  0  0  0  0
  9  6  1  0  0  0  0
  9 13  1  0  0  0  0
 11  6  1  0  0  0  0
M  RAD  5   1   2   4   2   9   3  12   2  14   2
M  END
$$$$
