14
butane_opt
C  -4.004867   0.314316  -0.080907
C  -2.694350  -0.750582   0.109465
H  -4.608398  -0.033576  -0.208036
H  -4.020141   0.972334  -1.047831
H  -4.330231   1.019953   0.675541
C  -1.368928   0.134648   0.157321
H  -2.394019  -0.940299  -0.369869
H  -2.967046  -1.513067   1.115726
C  -0.135742  -0.615370  -0.088475
H  -1.428749   0.988019   1.276022
H  -1.436029   0.597091  -0.632244
H   0.240959  -1.303893   0.817236
H   0.833114  -0.080833  -0.305279
H  -0.524976  -1.135538  -1.019107
