butane_opt
 OpenBabel08242015393D

 14 11  0  0  0  0  0  0  0  0999 V2000
   -3.9895    0.3541   -0.0375 C   0  0  0  0  0  0  0  0  0  0  0  0
   -2.6966   -0.7453    0.1919 C   0  0  0  0  0  0  0  0  0  0  0  0
   -4.9530   -0.2180   -0.1645 H   0  0  0  0  0  0  0  0  0  0  0  0
   -3.8420    0.9799   -0.9949 H   0  0  0  0  0  0  0  0  0  0  0  0
   -4.5273    1.0231    0.8318 H   0  0  0  0  0  0  0  0  0  0  0  0
   -1.3730    0.1132    0.0252 C   0  0  0  0  0  0  0  0  0  0  0  0
   -2.6121   -1.3789   -0.5265 H   0  0  0  0  0  0  0  0  0  0  0  0
   -2.6971   -1.3218    0.9711 H   0  0  0  0  0  0  0  0  0  0  0  0
   -0.1048   -0.6228   -0.0599 C   0  0  0  0  0  0  0  0  0  0  0  0
   -1.5391    0.6647    0.8519 H   0  0  0  0  0  0  0  0  0  0  0  0
   -1.4294    0.9386   -0.9554 H   0  0  0  0  0  0  0  0  0  0  0  0
   -0.4161   -0.8380    0.6571 H   0  0  0  0  0  0  0  0  0  0  0  0
    0.8898    0.1813    0.5843 H   0  0  0  0  0  0  0  0  0  0  0  0
    0.0256   -1.6976   -1.2855 H   0  0  0  0  0  0  0  0  0  0  0  0
  1  2  1  0  0  0  0
  1  5  1  0  0  0  0
  2  8  1  0  0  0  0
  3  1  1  0  0  0  0
  4  1  1  0  0  0  0
  6 10  1  0  0  0  0
  7  2  1  0  0  0  0
  9  6  1  0  0  0  0
  9 13  1  0  0  0  0
  9 12  1  0  0  0  0
 11  6  1  0  0  0  0
M  RAD  4   2   2   6   2   9   2  14   2
M  END
$$$$
