14
butane_opt
C  -3.968926   0.196528  -0.044604
C  -2.752560  -0.583693  -0.039834
H  -4.967811  -0.306042   0.849355
H  -4.204838   1.275229  -1.269710
H  -3.701962   0.459469   0.576864
C  -1.339831   0.253679   0.139436
H  -2.876336  -0.938454  -0.566165
H  -2.671894  -1.186943   0.928973
C  -0.131609  -0.723645  -0.033803
H  -1.396716   1.174572   1.079117
H  -1.370072   0.773776  -0.561729
H   0.068176  -1.460948   1.009648
H   0.495798  -0.428373   0.005394
H  -0.042397  -1.608707  -0.929396
