butane_opt
 OpenBabel08242015393D

 14 13  0  0  0  0  0  0  0  0999 V2000
   -3.9861    0.3423    0.2082 C   0  0  0  0  0  0  0  0  0  0  0  0
   -2.6518   -0.7272   -0.1759 C   0  0  0  0  0  0  0  0  0  0  0  0
   -4.9952   -0.3859    0.3351 H   0  0  0  0  0  0  0  0  0  0  0  0
   -4.4644    0.8764   -0.5919 H   0  0  0  0  0  0  0  0  0  0  0  0
   -3.8217    1.1746    1.0306 H   0  0  0  0  0  0  0  0  0  0  0  0
   -1.3834    0.1451   -0.1593 C   0  0  0  0  0  0  0  0  0  0  0  0
   -2.7745   -1.6562   -1.1666 H   0  0  0  0  0  0  0  0  0  0  0  0
   -2.6716   -1.1634    0.6397 H   0  0  0  0  0  0  0  0  0  0  0  0
   -0.1558   -0.6310    0.1797 C   0  0  0  0  0  0  0  0  0  0  0  0
   -1.5058    0.8261    0.7608 H   0  0  0  0  0  0  0  0  0  0  0  0
   -1.1356    0.8795   -1.2419 H   0  0  0  0  0  0  0  0  0  0  0  0
   -0.5042   -1.5045    1.3141 H   0  0  0  0  0  0  0  0  0  0  0  0
    0.7217   -0.1791    0.0933 H   0  0  0  0  0  0  0  0  0  0  0  0
    0.2491   -0.8858   -0.3454 H   0  0  0  0  0  0  0  0  0  0  0  0
  1  3  1  0  0  0  0
  1  5  1  0  0  0  0
  2  6  1  0  0  0  0
  2  1  1  0  0  0  0
  2  8  1  0  0  0  0
  4  1  1  0  0  0  0
  6  9  1  0  0  0  0
  6 10  1  0  0  0  0
  7  2  1  0  0  0  0
  9 12  1  0  0  0  0
 11  6  1  0  0  0  0
 13  9  1  0  0  0  0
 14  9  1  0  0  0  0
M  END
$$$$
