butane_opt
 OpenBabel08242015393D

 14 12  0  0  0  0  0  0  0  0999 V2000
   -3.8901    0.3104    0.1636 C   0  0  0  0  0  0  0  0  0  0  0  0
   -2.6840   -0.5991   -0.0709 C   0  0  0  0  0  0  0  0  0  0  0  0
   -5.1870   -0.7341    0.1761 H   0  0  0  0  0  0  0  0  0  0  0  0
   -4.0416    0.6607   -0.5543 H   0  0  0  0  0  0  0  0  0  0  0  0
   -3.6092    1.0299    1.2954 H   0  0  0  0  0  0  0  0  0  0  0  0
   -1.4164    0.1842   -0.2280 C   0  0  0  0  0  0  0  0  0  0  0  0
   -3.0091   -1.2896   -0.9350 H   0  0  0  0  0  0  0  0  0  0  0  0
   -2.5710   -1.0378    0.6704 H   0  0  0  0  0  0  0  0  0  0  0  0
   -0.1854   -0.7224    0.1828 C   0  0  0  0  0  0  0  0  0  0  0  0
   -1.4803    0.4239    0.5071 H   0  0  0  0  0  0  0  0  0  0  0  0
   -1.2953    1.1118   -1.3833 H   0  0  0  0  0  0  0  0  0  0  0  0
   -0.7407   -0.9887    0.9382 H   0  0  0  0  0  0  0  0  0  0  0  0
    0.6903   -0.1138    0.9336 H   0  0  0  0  0  0  0  0  0  0  0  0
    0.3509   -1.6543   -0.8110 H   0  0  0  0  0  0  0  0  0  0  0  0
  1  5  1  0  0  0  0
  2  1  1  0  0  0  0
  2  8  1  0  0  0  0
  4  1  1  0  0  0  0
  6  2  1  0  0  0  0
  6  9  1  0  0  0  0
  6 10  1  0  0  0  0
  7  2  1  0  0  0  0
  9 13  1  0  0  0  0
  9 12  1  0  0  0  0
 11  6  1  0  0  0  0
 14  9  1  0  0  0  0
M  RAD  2   1   2   3   2
M  END
$$$$
