14
butane_opt
C  -3.878675   0.261534   0.151241
C  -2.701197  -0.540653  -0.054190
H  -4.891438  -0.450235  -0.090909
H  -3.889643   0.473591  -0.403234
H  -3.680510   0.972999   1.151197
C  -1.434500   0.180684  -0.167159
H  -2.795033  -1.177007  -1.001663
H  -2.864089  -1.255362   0.850820
C  -0.161539  -0.704246   0.164767
H  -1.396386   0.469272   0.416665
H  -1.448738   1.102077  -1.305220
H  -0.581370  -1.134098   0.894593
H   0.484365  -0.201760   0.669211
H   0.162521  -1.688231  -0.858627
