butane_opt
 OpenBabel08242015393D

 14  8  0  0  0  0  0  0  0  0999 V2000
   -3.8730    0.3257    0.0939 C   0  0  0  0  0  0  0  0  0  0  0  0
   -2.6941   -0.6747   -0.0801 C   0  0  0  0  0  0  0  0  0  0  0  0
   -4.7525   -0.1693   -0.0067 H   0  0  0  0  0  0  0  0  0  0  0  0
   -4.0921    0.6650   -0.6778 H   0  0  0  0  0  0  0  0  0  0  0  0
   -4.1648    1.0829    1.0483 H   0  0  0  0  0  0  0  0  0  0  0  0
   -1.3632    0.1581   -0.0010 C   0  0  0  0  0  0  0  0  0  0  0  0
   -2.7637   -1.7042   -1.2460 H   0  0  0  0  0  0  0  0  0  0  0  0
   -2.4567   -0.9949    0.5847 H   0  0  0  0  0  0  0  0  0  0  0  0
   -0.2619   -0.6656    0.1331 C   0  0  0  0  0  1  0  0  0  0  0  0
   -1.2730    0.7976    0.8180 H   0  0  0  0  0  0  0  0  0  0  0  0
   -1.4523    0.7965   -1.0451 H   0  0  0  0  0  0  0  0  0  0  0  0
    0.0941   -2.0825    1.4514 H   0  0  0  0  0  0  0  0  0  0  0  0
    0.8710    0.1260   -0.7054 H   0  0  0  0  0  0  0  0  0  0  0  0
   -0.7420   -0.6631   -0.4049 H   0  0  0  0  0  0  0  0  0  0  0  0
  1  5  1  0  0  0  0
  2  1  1  0  0  0  0
  2  8  1  0  0  0  0
  3  1  1  0  0  0  0
  4  1  1  0  0  0  0
  6 10  1  0  0  0  0
 11  6  1  0  0  0  0
 14  9  1  0  0  0  0
M  RAD  5   2   3   6   3   7   2  12   2  13   2
M  END
$$$$
