butane_opt
 OpenBabel08242015393D

 14 12  0  0  0  0  0  0  0  0999 V2000
   -4.0049    0.3143   -0.0809 C   0  0  0  0  0  0  0  0  0  0  0  0
   -2.6944   -0.7506    0.1095 C   0  0  0  0  0  0  0  0  0  0  0  0
   -4.6084   -0.0336   -0.2080 H   0  0  0  0  0  0  0  0  0  0  0  0
   -4.0201    0.9723   -1.0478 H   0  0  0  0  0  0  0  0  0  0  0  0
   -4.3302    1.0200    0.6755 H   0  0  0  0  0  0  0  0  0  0  0  0
   -1.3689    0.1346    0.1573 C   0  0  0  0  0  0  0  0  0  0  0  0
   -2.3940   -0.9403   -0.3699 H   0  0  0  0  0  0  0  0  0  0  0  0
   -2.9670   -1.5131    1.1157 H   0  0  0  0  0  0  0  0  0  0  0  0
   -0.1357   -0.6154   -0.0885 C   0  0  0  0  0  0  0  0  0  0  0  0
   -1.4287    0.9880    1.2760 H   0  0  0  0  0  0  0  0  0  0  0  0
   -1.4360    0.5971   -0.6322 H   0  0  0  0  0  0  0  0  0  0  0  0
    0.2410   -1.3039    0.8172 H   0  0  0  0  0  0  0  0  0  0  0  0
    0.8331   -0.0808   -0.3053 H   0  0  0  0  0  0  0  0  0  0  0  0
   -0.5250   -1.1355   -1.0191 H   0  0  0  0  0  0  0  0  0  0  0  0
  1  2  1  0  0  0  0
  1  5  1  0  0  0  0
  2  6  1  0  0  0  0
  2  8  1  0  0  0  0
  3  1  1  0  0  0  0
  4  1  1  0  0  0  0
  6 10  1  0  0  0  0
  9  6  1  0  0  0  0
  9 12  1  0  0  0  0
 11  6  1  0  0  0  0
 13  9  1  0  0  0  0
 14  9  1  0  0  0  0
M  RAD  2   2   2   7   2
M  END
$$$$
