14
butane_opt
C  -3.926257   0.313087   0.134486
C  -2.617249  -0.700669  -0.057039
H  -4.963103  -0.291391  -0.473897
H  -3.781320   0.416433  -0.361086
H  -3.958459   1.611901   1.623147
C  -1.416536   0.119513  -0.156334
H  -2.551413  -1.180767  -0.832005
H  -2.630980  -1.318037   0.755329
C  -0.248806  -0.622099   0.122209
H  -1.659492   0.571792   0.503944
H  -1.230065   0.914607  -1.156745
H  -0.254972  -1.550909   1.249215
H   0.595712   0.029010   0.242760
H  -0.114859  -1.008206  -0.531958
