14
butane_opt
C  -3.927556   0.248411   0.053001
C  -2.697664  -0.611290   0.011372
H  -4.854901  -0.343089   0.044009
H  -3.960472   0.865297  -0.839926
H  -3.929217   0.966268   0.943911
C  -1.424631   0.207480  -0.030460
H  -2.725611  -1.293676  -0.842666
H  -2.726914  -1.206144   0.900713
C  -0.159409  -0.708609   0.063704
H  -1.453851   0.793094   0.759091
H  -1.366233   0.891901  -0.956286
H  -0.144175  -1.250178   0.911341
H   0.754984  -0.102441   0.152070
H  -0.099643  -1.429071  -0.804596
