14
butane_opt
C  -4.060771   0.321954  -0.019977
C  -2.661014  -0.719411   0.128701
H  -4.740062  -0.119378   0.204836
H  -4.246327   0.946928  -0.933865
H  -4.101175   0.986627   0.660852
C  -1.370508   0.132301  -0.016614
H  -2.633484  -1.262192  -0.704874
H  -2.883744  -1.271922   1.123890
C  -0.083661  -0.643097   0.045245
H  -1.220446   0.599166   0.653684
H  -1.508959   0.973686  -1.034776
H  -0.520120  -0.564482   0.525989
H   0.960603   0.205018   0.610518
H  -0.044844  -2.073781  -1.365380
