14
butane_opt
C  -4.021759   0.182952   0.190430
C  -2.716132  -0.523183  -0.159782
H  -4.913429  -0.367580   0.302861
H  -4.163322   0.610867  -0.585409
H  -3.627974   0.840930   1.125580
C  -1.428343   0.255708  -0.153050
H  -2.807865  -1.219200  -1.171865
H  -2.513033  -0.904340   0.542313
C  -0.089531  -0.737819   0.165182
H  -1.477202   0.824242   0.666003
H  -1.175430   0.845008  -1.070887
H  -0.387511  -1.775800   1.374764
H   0.748020  -0.253406   0.034925
H   0.389168  -1.217479  -0.283962
