14
butane_opt
C  -4.027808   0.335807   0.120529
C  -2.691643  -0.719113  -0.061978
H  -4.972934  -0.247469  -0.416669
H  -4.038789   0.445589  -0.546322
H  -4.218230   1.655358   1.497432
C  -1.347927   0.140916  -0.151676
H  -2.727264  -1.261000  -0.907106
H  -2.528636  -1.303457   0.820520
C  -0.150475  -0.671178   0.166846
H  -1.264897   0.589218   0.649523
H  -1.129251   0.863580  -1.039272
H   0.093197  -1.408970   1.162833
H   0.852891   0.112580  -0.133273
H  -0.463995  -0.947546  -0.436083
