14
butane_opt
C  -3.945650   0.280739  -0.109743
C  -2.764827  -0.667339   0.214898
H  -4.870968  -0.391878  -0.320279
H  -3.667959   0.656562  -0.916354
H  -4.197484   1.236352   0.878339
C  -1.386075   0.252910   0.129173
H  -2.447548  -1.266515  -0.471160
H  -2.863664  -1.271947   1.196945
C  -0.174391  -0.727563  -0.109297
H  -1.299161   0.574063   0.773508
H  -1.281399   1.030883  -0.928256
H   0.099508  -0.899375   0.507849
H   0.715064  -0.303791   0.210599
H   0.042608  -1.503770  -0.972107
