butane_opt
 OpenBabel08242015393D

 14 12  0  0  0  0  0  0  0  0999 V2000
   -3.9951    0.2673    0.1283 C   0  0  0  0  0  0  0  0  0  0  0  0
   -2.6657   -0.5869   -0.0610 C   0  0  0  0  0  0  0  0  0  0  0  0
   -4.9188   -0.2971    0.1073 H   0  0  0  0  0  0  0  0  0  0  0  0
   -4.2788    0.5846   -0.4416 H   0  0  0  0  0  0  0  0  0  0  0  0
   -3.9557    1.0674    1.1880 H   0  0  0  0  0  0  0  0  0  0  0  0
   -1.4081    0.1337   -0.1614 C   0  0  0  0  0  0  0  0  0  0  0  0
   -2.7915   -1.5259   -1.0045 H   0  0  0  0  0  0  0  0  0  0  0  0
   -2.3658   -1.0963    0.5948 H   0  0  0  0  0  0  0  0  0  0  0  0
   -0.1581   -0.6861    0.1770 C   0  0  0  0  0  0  0  0  0  0  0  0
   -1.2492    0.6562    0.5579 H   0  0  0  0  0  0  0  0  0  0  0  0
   -1.2046    1.1093   -1.3840 H   0  0  0  0  0  0  0  0  0  0  0  0
   -0.3465   -1.1838    1.0567 H   0  0  0  0  0  0  0  0  0  0  0  0
    0.6960    0.0117    0.3709 H   0  0  0  0  0  0  0  0  0  0  0  0
    0.1281   -1.3543   -0.5871 H   0  0  0  0  0  0  0  0  0  0  0  0
  1  5  1  0  0  0  0
  2  1  1  0  0  0  0
  2  8  1  0  0  0  0
  3  1  1  0  0  0  0
  4  1  1  0  0  0  0
  6  2  1  0  0  0  0
  6  9  1  0  0  0  0
  6 10  1  0  0  0  0
  7  2  1  0  0  0  0
  9 13  1  0  0  0  0
  9 12  1  0  0  0  0
 14  9  1  0  0  0  0
M  RAD  2   6   2  11   2
M  END
$$$$
