butane_opt
 OpenBabel08242015393D

 14 12  0  0  0  0  0  0  0  0999 V2000
   -4.0275    0.3443    0.1561 C   0  0  0  0  0  0  0  0  0  0  0  0
   -2.6073   -0.7653   -0.1819 C   0  0  0  0  0  0  0  0  0  0  0  0
   -4.9440   -0.3811    0.8625 H   0  0  0  0  0  0  0  0  0  0  0  0
   -4.8184    1.2811   -0.8996 H   0  0  0  0  0  0  0  0  0  0  0  0
   -3.7673    0.8817    0.9766 H   0  0  0  0  0  0  0  0  0  0  0  0
   -1.3503    0.1804   -0.1444 C   0  0  0  0  0  0  0  0  0  0  0  0
   -2.6934   -1.5303   -0.9580 H   0  0  0  0  0  0  0  0  0  0  0  0
   -2.7422   -1.1815    0.5316 H   0  0  0  0  0  0  0  0  0  0  0  0
   -0.1700   -0.6336    0.1907 C   0  0  0  0  0  0  0  0  0  0  0  0
   -1.3850    0.9251    0.7606 H   0  0  0  0  0  0  0  0  0  0  0  0
   -1.1345    0.6100   -0.9155 H   0  0  0  0  0  0  0  0  0  0  0  0
   -0.2916   -1.4256    1.0839 H   0  0  0  0  0  0  0  0  0  0  0  0
    0.6746   -0.0336    0.2949 H   0  0  0  0  0  0  0  0  0  0  0  0
   -0.0410   -1.1018   -0.5344 H   0  0  0  0  0  0  0  0  0  0  0  0
  1  3  1  0  0  0  0
  1  5  1  0  0  0  0
  2  6  1  0  0  0  0
  2  1  1  0  0  0  0
  2  8  1  0  0  0  0
  6  9  1  0  0  0  0
  6 10  1  0  0  0  0
  7  2  1  0  0  0  0
  9 13  1  0  0  0  0
  9 12  1  0  0  0  0
 11  6  1  0  0  0  0
 14  9  1  0  0  0  0
M  RAD  2   1   2   4   2
M  END
$$$$
