butane_opt
 OpenBabel08242015393D

 14 11  0  0  0  0  0  0  0  0999 V2000
   -3.9502    0.2152   -0.0806 C   0  0  0  0  0  0  0  0  0  0  0  0
   -2.7036   -0.5171    0.0874 C   0  0  0  0  0  0  0  0  0  0  0  0
   -4.9197   -0.4751    0.6335 H   0  0  0  0  0  0  0  0  0  0  0  0
   -4.0561    1.4003   -1.3497 H   0  0  0  0  0  0  0  0  0  0  0  0
   -3.4360    0.0879    0.4683 H   0  0  0  0  0  0  0  0  0  0  0  0
   -1.3950    0.2124    0.1222 C   0  0  0  0  0  0  0  0  0  0  0  0
   -2.7822   -1.0544   -0.6380 H   0  0  0  0  0  0  0  0  0  0  0  0
   -2.9202   -0.9697    0.9188 H   0  0  0  0  0  0  0  0  0  0  0  0
   -0.1580   -0.7472   -0.0571 C   0  0  0  0  0  0  0  0  0  0  0  0
   -1.1592    1.1915    1.2358 H   0  0  0  0  0  0  0  0  0  0  0  0
   -1.6464    0.4671   -0.6455 H   0  0  0  0  0  0  0  0  0  0  0  0
   -0.1228   -1.1749    0.7573 H   0  0  0  0  0  0  0  0  0  0  0  0
    0.5672   -0.3013    0.1315 H   0  0  0  0  0  0  0  0  0  0  0  0
   -0.0584   -1.6158   -1.0170 H   0  0  0  0  0  0  0  0  0  0  0  0
  1  5  1  0  0  0  0
  1  3  1  0  0  0  0
  2  6  1  0  0  0  0
  2  8  1  0  0  0  0
  6 10  1  0  0  0  0
  7  2  1  0  0  0  0
  9  6  1  0  0  0  0
  9 13  1  0  0  0  0
  9 12  1  0  0  0  0
 11  6  1  0  0  0  0
 14  9  1  0  0  0  0
M  RAD  3   1   3   2   2   4   2
M  END
$$$$
