butane_opt
 OpenBabel08242015393D

 14 13  0  0  0  0  0  0  0  0999 V2000
   -4.0293    0.3015    0.1232 C   0  0  0  0  0  0  0  0  0  0  0  0
   -2.6517   -0.6938   -0.0099 C   0  0  0  0  0  0  0  0  0  0  0  0
   -4.9867   -0.1727   -0.0154 H   0  0  0  0  0  0  0  0  0  0  0  0
   -4.2596    0.8631   -0.6680 H   0  0  0  0  0  0  0  0  0  0  0  0
   -3.9416    1.1781    1.1503 H   0  0  0  0  0  0  0  0  0  0  0  0
   -1.3627    0.1296   -0.1950 C   0  0  0  0  0  0  0  0  0  0  0  0
   -2.8824   -1.3667   -0.8670 H   0  0  0  0  0  0  0  0  0  0  0  0
   -2.6172   -1.2712    0.8198 H   0  0  0  0  0  0  0  0  0  0  0  0
   -0.1011   -0.6511    0.1451 C   0  0  0  0  0  0  0  0  0  0  0  0
   -1.2418    0.8876    0.6054 H   0  0  0  0  0  0  0  0  0  0  0  0
   -1.4471    1.0021   -1.2167 H   0  0  0  0  0  0  0  0  0  0  0  0
   -0.7719   -0.9574    0.9719 H   0  0  0  0  0  0  0  0  0  0  0  0
    0.8410    0.0394    0.6596 H   0  0  0  0  0  0  0  0  0  0  0  0
    0.0407   -1.7489   -0.7921 H   0  0  0  0  0  0  0  0  0  0  0  0
  1  5  1  0  0  0  0
  2  1  1  0  0  0  0
  2  8  1  0  0  0  0
  3  1  1  0  0  0  0
  4  1  1  0  0  0  0
  6  2  1  0  0  0  0
  6  9  1  0  0  0  0
  6 10  1  0  0  0  0
  7  2  1  0  0  0  0
  9 13  1  0  0  0  0
  9 12  1  0  0  0  0
 11  6  1  0  0  0  0
 14  9  1  0  0  0  0
M  END
$$$$
