14
butane_opt
C  -3.965553   0.213334   0.166800
C  -2.752060  -0.618492  -0.167206
H  -4.674313  -0.261440   0.593382
H  -4.207865   1.110270  -0.799319
H  -3.401654   0.422362   0.675644
C  -1.446245   0.331325  -0.068202
H  -2.923604  -1.451903  -1.064212
H  -2.981128  -0.894471   0.579210
C  -0.058005  -0.761969   0.134432
H  -1.546778   1.005488   0.804288
H  -1.484016   0.777991  -0.903733
H  -0.167649  -1.717082   1.293363
H   0.688869  -0.269389   0.023515
H   0.289706  -1.143608  -0.568977
