14
butane_opt
C  -3.909008   0.266466  -0.106760
C  -2.701504  -0.605761   0.099831
H  -4.800906  -0.266660   0.946929
H  -4.283889   1.679215  -1.305327
H  -3.644511   0.482125   0.438541
C  -1.430534   0.095880   0.166847
H  -2.608848  -1.482295  -0.882933
H  -2.870206  -1.043041   0.947081
C  -0.156842  -0.653468  -0.055950
H  -1.307489   0.855741   1.075211
H  -1.266304   0.760628  -0.872288
H  -0.308274  -1.012148   0.728748
H   0.802151   0.038071   0.189996
H  -0.363104  -1.713366  -1.152904
