butane_opt
 OpenBabel08242015393D

 14 12  0  0  0  0  0  0  0  0999 V2000
   -3.9264    0.3220   -0.0696 C   0  0  0  0  0  0  0  0  0  0  0  0
   -2.7116   -0.6660    0.0655 C   0  0  0  0  0  0  0  0  0  0  0  0
   -4.7354   -0.2767   -0.1031 H   0  0  0  0  0  0  0  0  0  0  0  0
   -3.7022    0.8257   -0.9695 H   0  0  0  0  0  0  0  0  0  0  0  0
   -4.1753    1.1701    0.7010 H   0  0  0  0  0  0  0  0  0  0  0  0
   -1.3940    0.1060    0.2037 C   0  0  0  0  0  0  0  0  0  0  0  0
   -2.4846   -1.2342   -0.7309 H   0  0  0  0  0  0  0  0  0  0  0  0
   -2.4995   -1.2320    1.0196 H   0  0  0  0  0  0  0  0  0  0  0  0
   -0.2286   -0.5979   -0.0434 C   0  0  0  0  0  0  0  0  0  0  0  0
   -1.2155    0.5929    0.9514 H   0  0  0  0  0  0  0  0  0  0  0  0
   -1.1891    0.6725   -0.6556 H   0  0  0  0  0  0  0  0  0  0  0  0
    0.1927   -1.7445    1.0670 H   0  0  0  0  0  0  0  0  0  0  0  0
    0.6993   -0.0788   -0.7782 H   0  0  0  0  0  0  0  0  0  0  0  0
   -0.8052   -1.1153   -0.8788 H   0  0  0  0  0  0  0  0  0  0  0  0
  1  2  1  0  0  0  0
  1  5  1  0  0  0  0
  2  6  1  0  0  0  0
  2  8  1  0  0  0  0
  3  1  1  0  0  0  0
  4  1  1  0  0  0  0
  6 10  1  0  0  0  0
  7  2  1  0  0  0  0
  9  6  1  0  0  0  0
 11  6  1  0  0  0  0
 13  9  1  0  0  0  0
 14  9  1  0  0  0  0
M  RAD  2   9   2  12   2
M  END
$$$$
