14
butane_opt
C  -3.893341   0.218993  -0.096620
C  -2.761580  -0.577207   0.234439
H  -4.800005  -0.514998  -0.664172
H  -3.532173   0.403365  -0.846662
H  -4.172443   1.279457   0.975827
C  -1.403630   0.256301   0.093962
H  -2.628988  -0.938127  -0.535270
H  -3.002661  -1.300230   1.271024
C  -0.175334  -0.749244  -0.138138
H  -1.442841   0.916051   0.915009
H  -1.570767   0.846868  -0.775262
H   0.223127  -1.304145   0.748234
H   0.522951  -0.383348   0.165977
H   0.191687  -1.303166  -0.871774
