14
butane_opt
C  -3.930545   0.271783   0.032565
C  -2.700916  -0.618015   0.036948
H  -4.854036  -0.321314  -0.095415
H  -3.929893   0.780382  -0.813913
H  -4.014179   1.038997   0.961257
C  -1.403948   0.170972  -0.010611
H  -2.687648  -1.321549  -0.849975
H  -2.700683  -1.242507   0.935320
C  -0.173438  -0.688737   0.050609
H  -1.400090   0.814465   0.825164
H  -1.340384   0.855024  -0.936335
H  -0.122268  -1.298817   0.954398
H   0.711176  -0.096199  -0.056647
H  -0.175169  -1.318391  -0.789396
