butane_opt
 OpenBabel08242015393D

 14 11  0  0  0  0  0  0  0  0999 V2000
   -3.9423    0.2770   -0.1628 C   0  0  0  0  0  0  0  0  0  0  0  0
   -2.6515   -0.6182    0.1764 C   0  0  0  0  0  0  0  0  0  0  0  0
   -4.7979   -0.3915   -0.1562 H   0  0  0  0  0  0  0  0  0  0  0  0
   -3.9959    1.0220   -1.2232 H   0  0  0  0  0  0  0  0  0  0  0  0
   -4.2037    0.8640    0.6540 H   0  0  0  0  0  0  0  0  0  0  0  0
   -1.4008    0.1559    0.2207 C   0  0  0  0  0  0  0  0  0  0  0  0
   -2.1770   -1.2180   -0.5487 H   0  0  0  0  0  0  0  0  0  0  0  0
   -2.7634   -1.4985    1.2452 H   0  0  0  0  0  0  0  0  0  0  0  0
   -0.2296   -0.6407   -0.1217 C   0  0  0  0  0  0  0  0  0  0  0  0
   -1.3291    1.0981    1.2645 H   0  0  0  0  0  0  0  0  0  0  0  0
   -1.3848    0.3511   -0.2083 H   0  0  0  0  0  0  0  0  0  0  0  0
    0.4641   -1.6251    0.9022 H   0  0  0  0  0  0  0  0  0  0  0  0
    0.7019   -0.1062   -0.7388 H   0  0  0  0  0  0  0  0  0  0  0  0
   -0.8239   -1.0294   -1.0667 H   0  0  0  0  0  0  0  0  0  0  0  0
  1  3  1  0  0  0  0
  1  2  1  0  0  0  0
  1  5  1  0  0  0  0
  2  6  1  0  0  0  0
  2  8  1  0  0  0  0
  4  1  1  0  0  0  0
  6 10  1  0  0  0  0
  7  2  1  0  0  0  0
  9  6  1  0  0  0  0
 13  9  1  0  0  0  0
 14  9  1  0  0  0  0
M  RAD  4   6   2   9   2  11   2  12   2
M  END
$$$$
