butane_opt
 OpenBabel08242015393D

 14 10  0  0  0  0  0  0  0  0999 V2000
   -3.9605    0.3300   -0.0481 C   0  0  0  0  0  0  0  0  0  0  0  0
   -2.6807   -0.7181    0.0503 C   0  0  0  0  0  0  0  0  0  0  0  0
   -4.7571   -0.1488    0.8481 H   0  0  0  0  0  0  0  0  0  0  0  0
   -4.3947    1.5307   -1.2706 H   0  0  0  0  0  0  0  0  0  0  0  0
   -4.1320    0.4537    0.4660 H   0  0  0  0  0  0  0  0  0  0  0  0
   -1.3655    0.1292    0.1009 C   0  0  0  0  0  0  0  0  0  0  0  0
   -2.8849   -1.4191   -0.8265 H   0  0  0  0  0  0  0  0  0  0  0  0
   -2.6340   -1.3346    0.8957 H   0  0  0  0  0  0  0  0  0  0  0  0
   -0.1480   -0.6175    0.0228 C   0  0  0  0  0  0  0  0  0  0  0  0
   -1.4564    0.8788    0.8149 H   0  0  0  0  0  0  0  0  0  0  0  0
   -1.4322    0.6405   -0.7189 H   0  0  0  0  0  0  0  0  0  0  0  0
   -0.0285   -0.9046    0.5764 H   0  0  0  0  0  0  0  0  0  0  0  0
    0.7490    0.1121    0.2330 H   0  0  0  0  0  0  0  0  0  0  0  0
   -0.2253   -1.7291   -1.1672 H   0  0  0  0  0  0  0  0  0  0  0  0
  1  2  1  0  0  0  0
  1  3  1  0  0  0  0
  2  6  1  0  0  0  0
  2  8  1  0  0  0  0
  6 10  1  0  0  0  0
  7  2  1  0  0  0  0
  9  6  1  0  0  0  0
  9 13  1  0  0  0  0
  9 12  1  0  0  0  0
 11  6  1  0  0  0  0
M  RAD  5   1   3   4   2   5   2   9   2  14   2
M  END
$$$$
