butane_opt
 OpenBabel08242015393D

 14 13  0  0  0  0  0  0  0  0999 V2000
   -3.8594    0.1741    0.0900 C   0  0  0  0  0  0  0  0  0  0  0  0
   -2.6695   -0.5281   -0.0694 C   0  0  0  0  0  0  0  0  0  0  0  0
   -4.8845   -0.3359    0.0561 H   0  0  0  0  0  0  0  0  0  0  0  0
   -3.8988    0.7666   -0.7594 H   0  0  0  0  0  0  0  0  0  0  0  0
   -3.8041    0.9445    1.0834 H   0  0  0  0  0  0  0  0  0  0  0  0
   -1.4551    0.2674    0.0131 C   0  0  0  0  0  0  0  0  0  0  0  0
   -2.7826   -1.3929   -1.1114 H   0  0  0  0  0  0  0  0  0  0  0  0
   -3.0288   -0.9791    0.6497 H   0  0  0  0  0  0  0  0  0  0  0  0
   -0.1523   -0.7424    0.1336 C   0  0  0  0  0  0  0  0  0  0  0  0
   -1.6693    0.6717    0.5299 H   0  0  0  0  0  0  0  0  0  0  0  0
   -1.5330    0.9352   -0.9010 H   0  0  0  0  0  0  0  0  0  0  0  0
   -0.0501   -1.7351    1.1697 H   0  0  0  0  0  0  0  0  0  0  0  0
    0.6463   -0.2461   -0.6376 H   0  0  0  0  0  0  0  0  0  0  0  0
   -0.3414   -1.1593   -0.5995 H   0  0  0  0  0  0  0  0  0  0  0  0
  1  5  1  0  0  0  0
  2  6  1  0  0  0  0
  2  1  1  0  0  0  0
  2  8  1  0  0  0  0
  3  1  1  0  0  0  0
  4  1  1  0  0  0  0
  6  9  1  0  0  0  0
  6 10  1  0  0  0  0
  7  2  1  0  0  0  0
  9 12  1  0  0  0  0
 11  6  1  0  0  0  0
 13  9  1  0  0  0  0
 14  9  1  0  0  0  0
M  END
$$$$
