14
butane_opt
C  -4.009902   0.189980  -0.123735
C  -2.749446  -0.542245   0.081263
H  -5.040208  -0.467656   0.206731
H  -3.687166   1.018976  -1.071879
H  -3.987201   0.826285   0.662214
C  -1.404707   0.258100   0.223191
H  -2.752930  -1.055229  -0.803193
H  -2.692388  -1.373701   1.128740
C  -0.067797  -0.773738  -0.077578
H  -1.304181   1.249889   1.296628
H  -1.287992   0.704125  -0.551111
H   0.392147  -1.677910   0.851767
H   0.667808  -0.318856  -0.772496
H  -0.486046  -1.000484  -0.719795
