butane_opt
 OpenBabel08242015393D

 14 13  0  0  0  0  0  0  0  0999 V2000
   -3.9606    0.3153   -0.1072 C   0  0  0  0  0  0  0  0  0  0  0  0
   -2.5998   -0.6822    0.2547 C   0  0  0  0  0  0  0  0  0  0  0  0
   -4.7344   -0.3220   -0.5775 H   0  0  0  0  0  0  0  0  0  0  0  0
   -3.5888    0.7955   -0.9716 H   0  0  0  0  0  0  0  0  0  0  0  0
   -4.2686    1.2415    0.8687 H   0  0  0  0  0  0  0  0  0  0  0  0
   -1.3671    0.1496    0.0558 C   0  0  0  0  0  0  0  0  0  0  0  0
   -2.4084   -1.2959   -0.5530 H   0  0  0  0  0  0  0  0  0  0  0  0
   -2.7943   -1.6190    1.3974 H   0  0  0  0  0  0  0  0  0  0  0  0
   -0.2753   -0.6128   -0.1153 C   0  0  0  0  0  0  0  0  0  0  0  0
   -1.2078    0.9564    1.1617 H   0  0  0  0  0  0  0  0  0  0  0  0
   -1.6552    0.5556   -0.6460 H   0  0  0  0  0  0  0  0  0  0  0  0
   -0.3010   -1.2819    0.7632 H   0  0  0  0  0  0  0  0  0  0  0  0
    0.6466   -0.0574    0.2018 H   0  0  0  0  0  0  0  0  0  0  0  0
   -0.3069   -1.4566   -1.2220 H   0  0  0  0  0  0  0  0  0  0  0  0
  1  2  1  0  0  0  0
  1  5  1  0  0  0  0
  2  8  1  0  0  0  0
  3  1  1  0  0  0  0
  4  1  1  0  0  0  0
  6  2  1  0  0  0  0
  6 10  1  0  0  0  0
  7  2  1  0  0  0  0
  9  6  1  0  0  0  0
  9 13  1  0  0  0  0
  9 12  1  0  0  0  0
 11  6  1  0  0  0  0
 14  9  1  0  0  0  0
M  END
$$$$
