14
butane_opt
C  -3.908056   0.217124   0.200765
C  -2.693399  -0.546990  -0.242825
H  -4.841662  -0.234886   0.726531
H  -4.305644   0.941813  -0.771087
H  -3.398734   0.761903   1.029267
C  -1.399828   0.219705  -0.193294
H  -2.920483  -1.344533  -1.120977
H  -2.457475  -1.341106   0.831311
C  -0.227061  -0.724128   0.274173
H  -1.522775   0.863148   0.744389
H  -1.262215   0.777764  -1.155510
H  -0.291476  -1.151888   1.106144
H   0.623733  -0.189319   0.115487
H   0.095335  -1.519326  -0.598411
