butane_opt
 OpenBabel08242015393D

 14 12  0  0  0  0  0  0  0  0999 V2000
   -3.9573    0.3410   -0.0018 C   0  0  0  0  0  0  0  0  0  0  0  0
   -2.6584   -0.6506   -0.0244 C   0  0  0  0  0  0  0  0  0  0  0  0
   -5.0119   -0.2804    0.6567 H   0  0  0  0  0  0  0  0  0  0  0  0
   -4.1822    1.4688   -1.2079 H   0  0  0  0  0  0  0  0  0  0  0  0
   -3.7811    0.6038    0.5584 H   0  0  0  0  0  0  0  0  0  0  0  0
   -1.3607    0.0719    0.1154 C   0  0  0  0  0  0  0  0  0  0  0  0
   -2.7136   -1.3556   -0.8618 H   0  0  0  0  0  0  0  0  0  0  0  0
   -2.6792   -1.2727    0.9068 H   0  0  0  0  0  0  0  0  0  0  0  0
   -0.2087   -0.5993    0.0324 C   0  0  0  0  0  0  0  0  0  0  0  0
   -1.2751    0.5133    0.8534 H   0  0  0  0  0  0  0  0  0  0  0  0
   -1.2634    0.5525   -0.7644 H   0  0  0  0  0  0  0  0  0  0  0  0
   -0.2122   -1.0449    0.8485 H   0  0  0  0  0  0  0  0  0  0  0  0
    0.6984    0.0153   -0.1100 H   0  0  0  0  0  0  0  0  0  0  0  0
   -0.4029   -1.5904   -0.9752 H   0  0  0  0  0  0  0  0  0  0  0  0
  1  5  1  0  0  0  0
  1  3  1  0  0  0  0
  2  1  1  0  0  0  0
  2  6  1  0  0  0  0
  2  8  1  0  0  0  0
  6 10  1  0  0  0  0
  7  2  1  0  0  0  0
  9  6  1  0  0  0  0
  9 12  1  0  0  0  0
 11  6  1  0  0  0  0
 13  9  1  0  0  0  0
 14  9  1  0  0  0  0
M  RAD  2   1   2   4   2
M  END
$$$$
