14
butane_opt
C  -3.945252   0.248862   0.019196
C  -2.703844  -0.612454   0.040741
H  -4.836434  -0.342686   0.074580
H  -3.952806   0.914907  -0.924472
H  -3.949017   0.925099   0.885023
C  -1.404012   0.209249   0.001162
H  -2.744416  -1.242402  -0.776943
H  -2.729804  -1.305074   0.963867
C  -0.151165  -0.708339   0.033133
H  -1.444646   0.892811   0.868076
H  -1.418132   0.860138  -0.902323
H  -0.150690  -1.221257   0.865674
H   0.747068  -0.138626   0.159621
H  -0.089758  -1.464821  -0.914282
