14
butane_opt
C  -3.898330   0.222012   0.072104
C  -2.766266  -0.521633  -0.027050
H  -4.952860  -0.683389  -0.466138
H  -3.699176   0.035034  -0.237746
H  -4.133484   1.716582   1.495204
C  -1.425063   0.204753  -0.162434
H  -2.956589  -1.050500  -0.649905
H  -2.474552  -1.291455   0.909200
C  -0.146174  -0.734707   0.163204
H  -1.485684   0.839131   0.732694
H  -1.220647   1.059293  -1.184066
H   0.084761  -1.643985   1.220295
H   0.692631  -0.218915  -0.160726
H  -0.027842  -1.333949  -0.691406
