butane_opt
 OpenBabel08242015393D

 14  9  0  0  0  0  0  0  0  0999 V2000
   -4.0168    0.2874   -0.1100 C   0  0  0  0  0  0  0  0  0  0  0  0
   -2.6904   -0.6838    0.2153 C   0  0  0  0  0  0  0  0  0  0  0  0
   -4.7967   -0.1865    0.1273 H   0  0  0  0  0  0  0  0  0  0  0  0
   -4.2368    1.2108   -1.2128 H   0  0  0  0  0  0  0  0  0  0  0  0
   -3.8381    0.8305    0.7702 H   0  0  0  0  0  0  0  0  0  0  0  0
   -1.3700    0.1807    0.0352 C   0  0  0  0  0  0  0  0  0  0  0  0
   -2.5567   -1.1656   -0.4218 H   0  0  0  0  0  0  0  0  0  0  0  0
   -2.8593   -1.7469    1.3073 H   0  0  0  0  0  0  0  0  0  0  0  0
   -0.1431   -0.6102   -0.0813 C   0  0  0  0  0  1  0  0  0  0  0  0
   -1.5170    0.8941    0.9562 H   0  0  0  0  0  0  0  0  0  0  0  0
   -1.3870    0.6577   -0.7414 H   0  0  0  0  0  0  0  0  0  0  0  0
   -0.2450   -0.5771    0.4537 H   0  0  0  0  0  0  0  0  0  0  0  0
    0.7150   -0.2005    0.8241 H   0  0  0  0  0  0  0  0  0  0  0  0
    0.2845   -2.2368   -1.4624 H   0  0  0  0  0  0  0  0  0  0  0  0
  1  3  1  0  0  0  0
  1  2  1  0  0  0  0
  1  5  1  0  0  0  0
  4  1  1  0  0  0  0
  6 12  1  0  0  0  0
  6 10  1  0  0  0  0
  7  2  1  0  0  0  0
  9 13  1  0  0  0  0
 11  6  1  0  0  0  0
M  RAD  4   2   3   6   2   8   2  14   2
M  END
$$$$
