14
butane_opt
C  -3.904667   0.208297   0.195618
C  -2.651263  -0.579133  -0.185136
H  -4.975228  -0.611586  -0.093300
H  -3.823913   0.577680  -0.686510
H  -3.796335   1.072561   1.247420
C  -1.450238   0.277302  -0.057460
H  -2.702591  -1.485857  -1.250254
H  -2.794169  -0.774751   0.480617
C  -0.204896  -0.760911   0.180042
H  -1.634146   0.874722   0.775210
H  -1.266238   1.284624  -1.135180
H   0.369389  -2.211746   1.602314
H   0.662113  -0.192329  -0.770800
H  -0.495700  -0.784297  -0.214556
