14
butane_opt
C  -4.016794   0.287416  -0.109986
C  -2.690407  -0.683829   0.215337
H  -4.796691  -0.186532   0.127299
H  -4.236751   1.210846  -1.212770
H  -3.838089   0.830545   0.770184
C  -1.369970   0.180728   0.035172
H  -2.556715  -1.165576  -0.421750
H  -2.859255  -1.746861   1.307286
C  -0.143067  -0.610157  -0.081256
H  -1.517033   0.894130   0.956202
H  -1.387019   0.657657  -0.741441
H  -0.245013  -0.577082   0.453678
H   0.714973  -0.200473   0.824069
H   0.284528  -2.236757  -1.462371
