butane_opt
 OpenBabel08242015393D

 14 11  0  0  0  0  0  0  0  0999 V2000
   -3.9496    0.2137   -0.1489 C   0  0  0  0  0  0  0  0  0  0  0  0
   -2.7638   -0.5960    0.2068 C   0  0  0  0  0  0  0  0  0  0  0  0
   -4.7809   -0.2872    0.1332 H   0  0  0  0  0  0  0  0  0  0  0  0
   -3.9192    1.1696   -1.3476 H   0  0  0  0  0  0  0  0  0  0  0  0
   -4.0737    0.4910    0.3241 H   0  0  0  0  0  0  0  0  0  0  0  0
   -1.4113    0.2915    0.2443 C   0  0  0  0  0  0  0  0  0  0  0  0
   -2.8033   -1.2493   -0.5835 H   0  0  0  0  0  0  0  0  0  0  0  0
   -2.9154   -1.0777    0.9125 H   0  0  0  0  0  0  0  0  0  0  0  0
   -0.1089   -0.8172   -0.1576 C   0  0  0  0  0  0  0  0  0  0  0  0
   -1.0751    1.2881    1.2608 H   0  0  0  0  0  0  0  0  0  0  0  0
   -1.5204    0.7119   -0.5208 H   0  0  0  0  0  0  0  0  0  0  0  0
    0.3427   -1.3121    0.7648 H   0  0  0  0  0  0  0  0  0  0  0  0
    0.8457   -0.1505   -0.3297 H   0  0  0  0  0  0  0  0  0  0  0  0
   -0.3053   -1.1648   -0.9136 H   0  0  0  0  0  0  0  0  0  0  0  0
  1  3  1  0  0  0  0
  1  2  1  0  0  0  0
  2  6  1  0  0  0  0
  2  8  1  0  0  0  0
  6 10  1  0  0  0  0
  7  2  1  0  0  0  0
  9  6  1  0  0  0  0
  9 12  1  0  0  0  0
 11  6  1  0  0  0  0
 13  9  1  0  0  0  0
 14  9  1  0  0  0  0
M  RAD  3   1   3   4   2   5   2
M  END
$$$$
