butane_opt
 OpenBabel08242015393D

 14 10  0  0  0  0  0  0  0  0999 V2000
   -4.0608    0.3220   -0.0200 C   0  0  0  0  0  0  0  0  0  0  0  0
   -2.6610   -0.7194    0.1287 C   0  0  0  0  0  0  0  0  0  0  0  0
   -4.7401   -0.1194    0.2048 H   0  0  0  0  0  0  0  0  0  0  0  0
   -4.2463    0.9469   -0.9339 H   0  0  0  0  0  0  0  0  0  0  0  0
   -4.1012    0.9866    0.6609 H   0  0  0  0  0  0  0  0  0  0  0  0
   -1.3705    0.1323   -0.0166 C   0  0  0  0  0  0  0  0  0  0  0  0
   -2.6335   -1.2622   -0.7049 H   0  0  0  0  0  0  0  0  0  0  0  0
   -2.8837   -1.2719    1.1239 H   0  0  0  0  0  0  0  0  0  0  0  0
   -0.0837   -0.6431    0.0452 C   0  0  0  0  0  0  0  0  0  0  0  0
   -1.2204    0.5992    0.6537 H   0  0  0  0  0  0  0  0  0  0  0  0
   -1.5090    0.9737   -1.0348 H   0  0  0  0  0  0  0  0  0  0  0  0
   -0.5201   -0.5645    0.5260 H   0  0  0  0  0  0  0  0  0  0  0  0
    0.9606    0.2050    0.6105 H   0  0  0  0  0  0  0  0  0  0  0  0
   -0.0448   -2.0738   -1.3654 H   0  0  0  0  0  0  0  0  0  0  0  0
  1  2  1  0  0  0  0
  1  3  1  0  0  0  0
  1  5  1  0  0  0  0
  2  8  1  0  0  0  0
  4  1  1  0  0  0  0
  6 10  1  0  0  0  0
  7  2  1  0  0  0  0
  9 12  1  0  0  0  0
  9 13  1  0  0  0  0
 11  6  1  0  0  0  0
M  RAD  4   2   2   6   3   9   3  14   2
M  END
$$$$
