butane_opt
 OpenBabel08242015393D

 14 13  0  0  0  0  0  0  0  0999 V2000
   -3.9695    0.2705    0.0025 C   0  0  0  0  0  0  0  0  0  0  0  0
   -2.6977   -0.6242    0.0511 C   0  0  0  0  0  0  0  0  0  0  0  0
   -4.8809   -0.3057    0.1045 H   0  0  0  0  0  0  0  0  0  0  0  0
   -4.0234    1.0063   -0.9636 H   0  0  0  0  0  0  0  0  0  0  0  0
   -3.9427    0.8339    0.7980 H   0  0  0  0  0  0  0  0  0  0  0  0
   -1.3918    0.1830    0.0287 C   0  0  0  0  0  0  0  0  0  0  0  0
   -2.7205   -1.3081   -0.8186 H   0  0  0  0  0  0  0  0  0  0  0  0
   -2.6455   -1.3022    0.9578 H   0  0  0  0  0  0  0  0  0  0  0  0
   -0.1544   -0.6884    0.0186 C   0  0  0  0  0  0  0  0  0  0  0  0
   -1.3636    0.9067    0.9279 H   0  0  0  0  0  0  0  0  0  0  0  0
   -1.3819    0.7456   -0.8301 H   0  0  0  0  0  0  0  0  0  0  0  0
   -0.1288   -1.2542    0.8673 H   0  0  0  0  0  0  0  0  0  0  0  0
    0.7627   -0.0915    0.0364 H   0  0  0  0  0  0  0  0  0  0  0  0
   -0.1389   -1.3852   -0.8731 H   0  0  0  0  0  0  0  0  0  0  0  0
  1  2  1  0  0  0  0
  1  3  1  0  0  0  0
  1  5  1  0  0  0  0
  2  8  1  0  0  0  0
  4  1  1  0  0  0  0
  6  2  1  0  0  0  0
  6 10  1  0  0  0  0
  7  2  1  0  0  0  0
  9  6  1  0  0  0  0
  9 13  1  0  0  0  0
  9 12  1  0  0  0  0
 11  6  1  0  0  0  0
 14  9  1  0  0  0  0
M  END
$$$$
