butane_opt
 OpenBabel08242015393D

 14 10  0  0  0  0  0  0  0  0999 V2000
   -3.9329    0.3357   -0.0255 C   0  0  0  0  0  0  0  0  0  0  0  0
   -2.6911   -0.7261   -0.0037 C   0  0  0  0  0  0  0  0  0  0  0  0
   -4.8395   -0.2500    0.6820 H   0  0  0  0  0  0  0  0  0  0  0  0
   -4.3885    1.4156   -1.3820 H   0  0  0  0  0  0  0  0  0  0  0  0
   -4.0316    0.5189    0.5289 H   0  0  0  0  0  0  0  0  0  0  0  0
   -1.3453    0.1924    0.1037 C   0  0  0  0  0  0  0  0  0  0  0  0
   -2.7711   -1.0890   -0.6375 H   0  0  0  0  0  0  0  0  0  0  0  0
   -2.6675   -1.6433    1.0513 H   0  0  0  0  0  0  0  0  0  0  0  0
   -0.1877   -0.6631    0.0017 C   0  0  0  0  0  0  0  0  0  0  0  0
   -1.3890    0.9216    1.0239 H   0  0  0  0  0  0  0  0  0  0  0  0
   -1.4231    0.6416   -0.4932 H   0  0  0  0  0  0  0  0  0  0  0  0
   -0.1407   -1.0081    0.6703 H   0  0  0  0  0  0  0  0  0  0  0  0
    0.7896    0.0647    0.1779 H   0  0  0  0  0  0  0  0  0  0  0  0
   -0.2761   -1.6816   -1.1803 H   0  0  0  0  0  0  0  0  0  0  0  0
  1  2  1  0  0  0  0
  1  3  1  0  0  0  0
  2  6  1  0  0  0  0
  2  8  1  0  0  0  0
  6 10  1  0  0  0  0
  7  2  1  0  0  0  0
  9  6  1  0  0  0  0
  9 13  1  0  0  0  0
  9 12  1  0  0  0  0
 11  6  1  0  0  0  0
M  RAD  5   1   3   4   2   5   2   9   2  14   2
M  END
$$$$
