butane_opt
 OpenBabel08242015393D

 14  8  0  0  0  0  0  0  0  0999 V2000
   -3.9126    0.2389   -0.1011 C   0  0  0  0  0  0  0  0  0  0  0  0
   -2.7430   -0.5928    0.1725 C   0  0  0  0  0  0  0  0  0  0  0  0
   -4.9043   -0.3742    0.2545 H   0  0  0  0  0  0  0  0  0  0  0  0
   -3.8728    1.2839   -1.2722 H   0  0  0  0  0  0  0  0  0  0  0  0
   -3.9335    0.4276    0.4717 H   0  0  0  0  0  0  0  0  0  0  0  0
   -1.4339    0.2686    0.0948 C   0  0  0  0  0  0  0  0  0  0  0  0
   -3.0972   -0.9689   -0.5380 H   0  0  0  0  0  0  0  0  0  0  0  0
   -2.8665   -1.7359    1.4154 H   0  0  0  0  0  0  0  0  0  0  0  0
   -0.0613   -0.7534   -0.0799 C   0  0  0  0  0  1  0  0  0  0  0  0
   -1.4001    1.1736    1.0500 H   0  0  0  0  0  0  0  0  0  0  0  0
   -1.5467    0.7132   -0.5522 H   0  0  0  0  0  0  0  0  0  0  0  0
   -0.4499   -0.6073    0.3707 H   0  0  0  0  0  0  0  0  0  0  0  0
    0.6800   -0.3027    0.5600 H   0  0  0  0  0  0  0  0  0  0  0  0
    0.2109   -2.0584   -1.5157 H   0  0  0  0  0  0  0  0  0  0  0  0
  1  2  1  0  0  0  0
  1  3  1  0  0  0  0
  6  2  1  0  0  0  0
  6 12  1  0  0  0  0
  6 10  1  0  0  0  0
  7  2  1  0  0  0  0
  9 13  1  0  0  0  0
 11  6  1  0  0  0  0
M  RAD  6   1   3   2   2   4   2   5   2   8   2  14   2
M  END
$$$$
