14
butane_opt
C  -4.031949   0.278251  -0.169874
C  -2.682424  -0.647127   0.331483
H  -4.771286  -0.101338  -0.650224
H  -3.677658   0.870559  -1.066063
H  -4.695903   1.372122   0.871235
C  -1.367317   0.109467   0.170989
H  -2.420520  -1.347605  -0.513971
H  -2.887298  -1.581805   1.341278
C  -0.093397  -0.616134  -0.209314
H  -1.248229   0.740074   1.093367
H  -1.560373   0.690587  -0.723519
H  -0.317433  -1.151992   0.631825
H   0.939574   0.110109   0.086548
H  -0.292472  -1.515054  -1.076273
