butane_opt
 OpenBabel08242015393D

 14 13  0  0  0  0  0  0  0  0999 V2000
   -3.9369    0.2542    0.0225 C   0  0  0  0  0  0  0  0  0  0  0  0
   -2.6981   -0.6003    0.0437 C   0  0  0  0  0  0  0  0  0  0  0  0
   -4.8741   -0.3610   -0.0962 H   0  0  0  0  0  0  0  0  0  0  0  0
   -3.8387    0.7742   -0.8181 H   0  0  0  0  0  0  0  0  0  0  0  0
   -3.9745    0.9990    0.9270 H   0  0  0  0  0  0  0  0  0  0  0  0
   -1.4210    0.1974    0.0021 C   0  0  0  0  0  0  0  0  0  0  0  0
   -2.7586   -1.2759   -0.8121 H   0  0  0  0  0  0  0  0  0  0  0  0
   -2.7133   -1.2451    0.9499 H   0  0  0  0  0  0  0  0  0  0  0  0
   -0.1552   -0.7031    0.0327 C   0  0  0  0  0  0  0  0  0  0  0  0
   -1.4358    0.8903    0.8665 H   0  0  0  0  0  0  0  0  0  0  0  0
   -1.4086    0.8055   -0.9043 H   0  0  0  0  0  0  0  0  0  0  0  0
   -0.1342   -1.3867    1.0032 H   0  0  0  0  0  0  0  0  0  0  0  0
    0.7737   -0.1052   -0.0733 H   0  0  0  0  0  0  0  0  0  0  0  0
   -0.1308   -1.3478   -0.8079 H   0  0  0  0  0  0  0  0  0  0  0  0
  1  2  1  0  0  0  0
  1  5  1  0  0  0  0
  2  8  1  0  0  0  0
  3  1  1  0  0  0  0
  4  1  1  0  0  0  0
  6  9  1  0  0  0  0
  6  2  1  0  0  0  0
  6 10  1  0  0  0  0
  7  2  1  0  0  0  0
  9 12  1  0  0  0  0
 11  6  1  0  0  0  0
 13  9  1  0  0  0  0
 14  9  1  0  0  0  0
M  END
$$$$
