14
butane_opt
C  -3.873620   0.319532   0.186087
C  -2.690886  -0.640567  -0.185455
H  -4.879618  -0.290871  -0.032854
H  -4.090306   0.682482  -0.515221
H  -3.863016   0.955543   1.181431
C  -1.424233   0.163409  -0.120586
H  -2.991552  -1.385585  -1.200290
H  -2.300952  -1.232813   0.708295
C  -0.242283  -0.665725   0.184384
H  -1.324324   0.734870   0.700569
H  -1.102695   0.662606  -0.962568
H  -0.169315  -1.780589   1.338692
H   0.661082  -0.143109  -0.291888
H  -0.184200  -0.773261  -0.235413
