14
butane_opt
C  -3.910687   0.245393   0.183777
C  -2.679556  -0.650382  -0.171932
H  -4.839727  -0.248015   0.799553
H  -4.492433   1.161962  -0.961985
H  -3.564766   0.791646   1.061497
C  -1.402167   0.241539  -0.115158
H  -2.827392  -1.612177  -1.350954
H  -2.938534  -0.834834   0.343822
C  -0.193667  -0.741216   0.201191
H  -1.569574   0.760288   0.538549
H  -1.248032   1.037823  -1.082788
H  -0.027785  -1.455257   1.144194
H   0.882774  -0.117784   0.160982
H  -0.147503  -1.064110  -0.342432
