butane_opt
 OpenBabel08242015393D

 14 10  0  0  0  0  0  0  0  0999 V2000
   -3.9107    0.2454    0.1838 C   0  0  0  0  0  0  0  0  0  0  0  0
   -2.6796   -0.6504   -0.1719 C   0  0  0  0  0  1  0  0  0  0  0  0
   -4.8397   -0.2480    0.7996 H   0  0  0  0  0  0  0  0  0  0  0  0
   -4.4924    1.1620   -0.9620 H   0  0  0  0  0  0  0  0  0  0  0  0
   -3.5648    0.7916    1.0615 H   0  0  0  0  0  0  0  0  0  0  0  0
   -1.4022    0.2415   -0.1152 C   0  0  0  0  0  0  0  0  0  0  0  0
   -2.8274   -1.6122   -1.3510 H   0  0  0  0  0  0  0  0  0  0  0  0
   -2.9385   -0.8348    0.3438 H   0  0  0  0  0  0  0  0  0  0  0  0
   -0.1937   -0.7412    0.2012 C   0  0  0  0  0  0  0  0  0  0  0  0
   -1.5696    0.7603    0.5385 H   0  0  0  0  0  0  0  0  0  0  0  0
   -1.2480    1.0378   -1.0828 H   0  0  0  0  0  0  0  0  0  0  0  0
   -0.0278   -1.4553    1.1442 H   0  0  0  0  0  0  0  0  0  0  0  0
    0.8828   -0.1178    0.1610 H   0  0  0  0  0  0  0  0  0  0  0  0
   -0.1475   -1.0641   -0.3424 H   0  0  0  0  0  0  0  0  0  0  0  0
  1  8  1  0  0  0  0
  1  3  1  0  0  0  0
  1  5  1  0  0  0  0
  2  6  1  0  0  0  0
  6  9  1  0  0  0  0
  6 10  1  0  0  0  0
  9 12  1  0  0  0  0
 11  6  1  0  0  0  0
 13  9  1  0  0  0  0
 14  9  1  0  0  0  0
M  RAD  3   1   2   4   2   7   2
M  END
$$$$
