butane_opt
 OpenBabel08242015393D

 14 12  0  0  0  0  0  0  0  0999 V2000
   -3.8599    0.1639   -0.1089 C   0  0  0  0  0  0  0  0  0  0  0  0
   -2.6626   -0.5453    0.1036 C   0  0  0  0  0  0  0  0  0  0  0  0
   -4.8561   -0.5043   -0.2972 H   0  0  0  0  0  0  0  0  0  0  0  0
   -3.7349    0.9195   -1.1141 H   0  0  0  0  0  0  0  0  0  0  0  0
   -3.9475    0.9595    0.7901 H   0  0  0  0  0  0  0  0  0  0  0  0
   -1.4941    0.3087    0.2291 C   0  0  0  0  0  0  0  0  0  0  0  0
   -2.5973   -1.0428   -0.5446 H   0  0  0  0  0  0  0  0  0  0  0  0
   -2.9658   -1.4401    1.1298 H   0  0  0  0  0  0  0  0  0  0  0  0
   -0.2024   -0.8063   -0.0983 C   0  0  0  0  0  0  0  0  0  0  0  0
   -1.2582    1.2633    1.1681 H   0  0  0  0  0  0  0  0  0  0  0  0
   -1.6604    0.6711   -0.5603 H   0  0  0  0  0  0  0  0  0  0  0  0
    0.4827   -1.6723    1.0193 H   0  0  0  0  0  0  0  0  0  0  0  0
    0.7515   -0.1339   -0.7659 H   0  0  0  0  0  0  0  0  0  0  0  0
   -0.5734   -0.9503   -0.8304 H   0  0  0  0  0  0  0  0  0  0  0  0
  1  2  1  0  0  0  0
  1  5  1  0  0  0  0
  2  6  1  0  0  0  0
  2  8  1  0  0  0  0
  3  1  1  0  0  0  0
  4  1  1  0  0  0  0
  6 10  1  0  0  0  0
  7  2  1  0  0  0  0
  9  6  1  0  0  0  0
 11  6  1  0  0  0  0
 13  9  1  0  0  0  0
 14  9  1  0  0  0  0
M  RAD  2   9   2  12   2
M  END
$$$$
