butane_opt
 OpenBabel08242015393D

 14 12  0  0  0  0  0  0  0  0999 V2000
   -3.7975    0.1943    0.1395 C   0  0  0  0  0  0  0  0  0  0  0  0
   -2.7255   -0.5961   -0.0949 C   0  0  0  0  0  0  0  0  0  0  0  0
   -4.8979   -0.4741    0.2118 H   0  0  0  0  0  0  0  0  0  0  0  0
   -3.9469    0.5537   -0.6773 H   0  0  0  0  0  0  0  0  0  0  0  0
   -3.8282    1.1908    1.1272 H   0  0  0  0  0  0  0  0  0  0  0  0
   -1.5027    0.2705   -0.1314 C   0  0  0  0  0  0  0  0  0  0  0  0
   -2.8314   -1.0949   -0.8961 H   0  0  0  0  0  0  0  0  0  0  0  0
   -2.4687   -1.1547    0.8467 H   0  0  0  0  0  0  0  0  0  0  0  0
   -0.1793   -0.7540    0.1641 C   0  0  0  0  0  0  0  0  0  0  0  0
   -1.7390    0.7883    0.5891 H   0  0  0  0  0  0  0  0  0  0  0  0
   -1.4392    1.2855   -1.3071 H   0  0  0  0  0  0  0  0  0  0  0  0
   -0.2586   -1.2542    1.0257 H   0  0  0  0  0  0  0  0  0  0  0  0
    0.7665   -0.1459    0.4704 H   0  0  0  0  0  0  0  0  0  0  0  0
    0.1116   -1.6149   -0.8634 H   0  0  0  0  0  0  0  0  0  0  0  0
  1  3  1  0  0  0  0
  1  5  1  0  0  0  0
  2  1  1  0  0  0  0
  2  8  1  0  0  0  0
  4  1  1  0  0  0  0
  6  2  1  0  0  0  0
  6  9  1  0  0  0  0
  6 10  1  0  0  0  0
  7  2  1  0  0  0  0
  9 13  1  0  0  0  0
  9 12  1  0  0  0  0
 14  9  1  0  0  0  0
M  RAD  2   6   2  11   2
M  END
$$$$
