14
butane_opt
C  -4.009391   0.333370  -0.155980
C  -2.735382  -0.667041   0.128388
H  -4.752235  -0.284749   0.464649
H  -4.375970   1.421900  -1.291712
H  -3.874620   0.747923   0.530816
C  -1.372619   0.108146   0.213852
H  -2.620548  -1.296753  -0.705388
H  -2.916160  -1.586017   1.234902
C  -0.135664  -0.647644  -0.092881
H  -0.921185   1.015319   1.090862
H  -1.354597   0.535923  -0.494575
H   0.236718  -1.180521   0.648151
H   0.950664   0.114600  -0.078104
H  -0.392012  -1.419287  -1.092665
