14
butane_opt
C  -3.899919   0.233760   0.229624
C  -2.730401  -0.537135  -0.231997
H  -4.875981  -0.535058   0.852326
H  -4.271695   1.368776  -0.817755
H  -3.587219   0.429075   0.833014
C  -1.396041   0.193689  -0.121850
H  -2.963895  -1.587507  -1.316711
H  -2.422338  -0.842247   0.400382
C  -0.163464  -0.760279   0.195923
H  -1.835069   0.820379   0.517827
H  -1.139479   0.889444  -1.078101
H  -0.326740  -1.404088   1.135939
H   0.843848  -0.122279   0.354591
H  -0.115989  -1.040276  -0.341547
