butane_opt
 OpenBabel08242015393D

 14 11  0  0  0  0  0  0  0  0999 V2000
   -3.8556    0.2283   -0.1249 C   0  0  0  0  0  0  0  0  0  0  0  0
   -2.7385   -0.5621    0.2271 C   0  0  0  0  0  0  0  0  0  0  0  0
   -4.7987   -0.5637   -0.0007 H   0  0  0  0  0  0  0  0  0  0  0  0
   -3.8841    1.0578   -1.2070 H   0  0  0  0  0  0  0  0  0  0  0  0
   -4.0531    0.6863    0.4768 H   0  0  0  0  0  0  0  0  0  0  0  0
   -1.4047    0.2354    0.1608 C   0  0  0  0  0  0  0  0  0  0  0  0
   -2.7367   -0.9799   -0.3545 H   0  0  0  0  0  0  0  0  0  0  0  0
   -2.7869   -1.3818    1.2008 H   0  0  0  0  0  0  0  0  0  0  0  0
   -0.1933   -0.7342   -0.1198 C   0  0  0  0  0  0  0  0  0  0  0  0
   -1.4331    0.7794    0.8677 H   0  0  0  0  0  0  0  0  0  0  0  0
   -1.5625    1.0109   -0.8596 H   0  0  0  0  0  0  0  0  0  0  0  0
   -0.0408   -0.7409    0.3286 H   0  0  0  0  0  0  0  0  0  0  0  0
    0.6950   -0.2080    0.6677 H   0  0  0  0  0  0  0  0  0  0  0  0
   -0.0954   -2.1725   -1.4749 H   0  0  0  0  0  0  0  0  0  0  0  0
  1  3  1  0  0  0  0
  1  2  1  0  0  0  0
  1  5  1  0  0  0  0
  2  8  1  0  0  0  0
  4  1  1  0  0  0  0
  6  2  1  0  0  0  0
  6 10  1  0  0  0  0
  7  2  1  0  0  0  0
  9  6  1  0  0  0  0
  9 13  1  0  0  0  0
 11  6  1  0  0  0  0
M  RAD  3   9   3  12   2  14   2
M  END
$$$$
