butane_opt
 OpenBabel08242015393D

 14 12  0  0  0  0  0  0  0  0999 V2000
   -4.0112    0.3129   -0.1472 C   0  0  0  0  0  0  0  0  0  0  0  0
   -2.6733   -0.6507    0.2399 C   0  0  0  0  0  0  0  0  0  0  0  0
   -5.0943   -0.3564   -0.6870 H   0  0  0  0  0  0  0  0  0  0  0  0
   -3.5631    0.5599   -0.7167 H   0  0  0  0  0  0  0  0  0  0  0  0
   -4.6279    1.1797    0.8347 H   0  0  0  0  0  0  0  0  0  0  0  0
   -1.3660    0.1741    0.1657 C   0  0  0  0  0  0  0  0  0  0  0  0
   -2.6886   -1.1329   -0.5298 H   0  0  0  0  0  0  0  0  0  0  0  0
   -2.8894   -1.5804    1.4925 H   0  0  0  0  0  0  0  0  0  0  0  0
   -0.1073   -0.6945   -0.0911 C   0  0  0  0  0  0  0  0  0  0  0  0
   -1.1818    0.6815    0.8091 H   0  0  0  0  0  0  0  0  0  0  0  0
   -1.4992    0.9511   -0.8604 H   0  0  0  0  0  0  0  0  0  0  0  0
    0.0959   -0.8356    0.5001 H   0  0  0  0  0  0  0  0  0  0  0  0
    0.7821   -0.0987   -0.2126 H   0  0  0  0  0  0  0  0  0  0  0  0
   -0.4298   -1.5916   -1.1866 H   0  0  0  0  0  0  0  0  0  0  0  0
  1  2  1  0  0  0  0
  1  5  1  0  0  0  0
  3  1  1  0  0  0  0
  4  1  1  0  0  0  0
  6  2  1  0  0  0  0
  6 10  1  0  0  0  0
  7  2  1  0  0  0  0
  9  6  1  0  0  0  0
  9 12  1  0  0  0  0
 11  6  1  0  0  0  0
 13  9  1  0  0  0  0
 14  9  1  0  0  0  0
M  RAD  2   2   2   8   2
M  END
$$$$
