butane_opt
 OpenBabel08242015393D

 14 13  0  0  0  0  0  0  0  0999 V2000
   -3.8431    0.2215   -0.0418 C   0  0  0  0  0  0  0  0  0  0  0  0
   -2.7762   -0.5473    0.1107 C   0  0  0  0  0  0  0  0  0  0  0  0
   -4.7829   -0.4631    0.0134 H   0  0  0  0  0  0  0  0  0  0  0  0
   -3.6187    0.7670   -0.9271 H   0  0  0  0  0  0  0  0  0  0  0  0
   -3.9857    0.7974    0.9155 H   0  0  0  0  0  0  0  0  0  0  0  0
   -1.4507    0.2944    0.0150 C   0  0  0  0  0  0  0  0  0  0  0  0
   -2.7757   -1.3092   -0.7383 H   0  0  0  0  0  0  0  0  0  0  0  0
   -2.6871   -1.3794    1.0599 H   0  0  0  0  0  0  0  0  0  0  0  0
   -0.1930   -0.7691   -0.0247 C   0  0  0  0  0  0  0  0  0  0  0  0
   -1.5168    1.3141    1.0897 H   0  0  0  0  0  0  0  0  0  0  0  0
   -1.3362    0.6144   -0.7207 H   0  0  0  0  0  0  0  0  0  0  0  0
   -0.0075   -1.5691    1.0071 H   0  0  0  0  0  0  0  0  0  0  0  0
    0.7595   -0.1442   -0.1202 H   0  0  0  0  0  0  0  0  0  0  0  0
    0.0678   -1.4717   -0.8609 H   0  0  0  0  0  0  0  0  0  0  0  0
  1  3  1  0  0  0  0
  1  2  1  0  0  0  0
  1  5  1  0  0  0  0
  2  8  1  0  0  0  0
  4  1  1  0  0  0  0
  6  2  1  0  0  0  0
  6 10  1  0  0  0  0
  7  2  1  0  0  0  0
  9  6  1  0  0  0  0
  9 12  1  0  0  0  0
 11  6  1  0  0  0  0
 13  9  1  0  0  0  0
 14  9  1  0  0  0  0
M  END
$$$$
