butane_opt
 OpenBabel08242015393D

 14 12  0  0  0  0  0  0  0  0999 V2000
   -4.0094    0.3334   -0.1560 C   0  0  0  0  0  0  0  0  0  0  0  0
   -2.7354   -0.6670    0.1284 C   0  0  0  0  0  0  0  0  0  0  0  0
   -4.7522   -0.2847    0.4646 H   0  0  0  0  0  0  0  0  0  0  0  0
   -4.3760    1.4219   -1.2917 H   0  0  0  0  0  0  0  0  0  0  0  0
   -3.8746    0.7479    0.5308 H   0  0  0  0  0  0  0  0  0  0  0  0
   -1.3726    0.1081    0.2139 C   0  0  0  0  0  0  0  0  0  0  0  0
   -2.6205   -1.2968   -0.7054 H   0  0  0  0  0  0  0  0  0  0  0  0
   -2.9162   -1.5860    1.2349 H   0  0  0  0  0  0  0  0  0  0  0  0
   -0.1357   -0.6476   -0.0929 C   0  0  0  0  0  0  0  0  0  0  0  0
   -0.9212    1.0153    1.0909 H   0  0  0  0  0  0  0  0  0  0  0  0
   -1.3546    0.5359   -0.4946 H   0  0  0  0  0  0  0  0  0  0  0  0
    0.2367   -1.1805    0.6482 H   0  0  0  0  0  0  0  0  0  0  0  0
    0.9507    0.1146   -0.0781 H   0  0  0  0  0  0  0  0  0  0  0  0
   -0.3920   -1.4193   -1.0927 H   0  0  0  0  0  0  0  0  0  0  0  0
  1  2  1  0  0  0  0
  1  3  1  0  0  0  0
  1  5  1  0  0  0  0
  2  6  1  0  0  0  0
  2  8  1  0  0  0  0
  6 10  1  0  0  0  0
  7  2  1  0  0  0  0
  9 13  1  0  0  0  0
  9  6  1  0  0  0  0
  9 12  1  0  0  0  0
 11  6  1  0  0  0  0
 14  9  1  0  0  0  0
M  RAD  2   1   2   4   2
M  END
$$$$
