butane_opt
 OpenBabel08242015393D

 14 12  0  0  0  0  0  0  0  0999 V2000
   -3.8895    0.2234   -0.1000 C   0  0  0  0  0  0  0  0  0  0  0  0
   -2.6687   -0.5889    0.1285 C   0  0  0  0  0  0  0  0  0  0  0  0
   -5.0450   -0.3802   -0.1905 H   0  0  0  0  0  0  0  0  0  0  0  0
   -3.7518    0.9502   -1.2008 H   0  0  0  0  0  0  0  0  0  0  0  0
   -4.0259    1.0135    0.8150 H   0  0  0  0  0  0  0  0  0  0  0  0
   -1.4264    0.1925    0.1433 C   0  0  0  0  0  0  0  0  0  0  0  0
   -2.8996   -1.2567   -0.6235 H   0  0  0  0  0  0  0  0  0  0  0  0
   -2.6027   -1.3465    1.1480 H   0  0  0  0  0  0  0  0  0  0  0  0
   -0.1470   -0.7127   -0.0805 C   0  0  0  0  0  0  0  0  0  0  0  0
   -1.4683    1.2968    1.2676 H   0  0  0  0  0  0  0  0  0  0  0  0
   -1.7100    0.6700   -0.4984 H   0  0  0  0  0  0  0  0  0  0  0  0
   -0.0586   -1.5319    1.0109 H   0  0  0  0  0  0  0  0  0  0  0  0
    0.6937   -0.1696   -0.6521 H   0  0  0  0  0  0  0  0  0  0  0  0
   -0.5250   -1.1201   -0.7534 H   0  0  0  0  0  0  0  0  0  0  0  0
  1  2  1  0  0  0  0
  1  5  1  0  0  0  0
  2  6  1  0  0  0  0
  2  8  1  0  0  0  0
  3  1  1  0  0  0  0
  4  1  1  0  0  0  0
  7  2  1  0  0  0  0
  9  6  1  0  0  0  0
  9 12  1  0  0  0  0
 11  6  1  0  0  0  0
 13  9  1  0  0  0  0
 14  9  1  0  0  0  0
M  RAD  2   6   2  10   2
M  END
$$$$
