14
butane_opt
C  -3.990990   0.335725   0.110200
C  -2.718507  -0.658862   0.000141
H  -5.038831  -0.237673  -0.354705
H  -3.809672   0.597484  -0.495275
H  -4.182550   1.414935   1.321044
C  -1.371663   0.121863  -0.149146
H  -2.708850  -1.546371  -0.992350
H  -2.674031  -1.349180   0.955012
C  -0.127267  -0.647308   0.082701
H  -1.276450   0.598034   0.730675
H  -1.157899   0.788592  -1.051307
H  -0.454595  -1.497025   1.173945
H   0.823796   0.009498   0.326667
H  -0.053231  -1.057418  -0.628543
