14
butane_opt
C  -3.986109   0.342323   0.208190
C  -2.651826  -0.727246  -0.175914
H  -4.995182  -0.385910   0.335126
H  -4.464422   0.876447  -0.591918
H  -3.821740   1.174578   1.030606
C  -1.383419   0.145079  -0.159329
H  -2.774517  -1.656249  -1.166626
H  -2.671604  -1.163360   0.639747
C  -0.155840  -0.630975   0.179674
H  -1.505827   0.826079   0.760841
H  -1.135627   0.879505  -1.241898
H  -0.504174  -1.504509   1.314098
H   0.721696  -0.179095   0.093263
H   0.249101  -0.885818  -0.345385
