butane_opt
 OpenBabel08242015393D

 14  8  0  0  0  0  0  0  0  0999 V2000
   -3.8862    0.2597   -0.0313 C   0  0  0  0  0  1  0  0  0  0  0  0
   -2.7451   -0.5436    0.1233 C   0  0  0  0  0  0  0  0  0  0  0  0
   -5.1093   -0.6217    0.2156 H   0  0  0  0  0  0  0  0  0  0  0  0
   -3.7436    0.9989   -1.0333 H   0  0  0  0  0  0  0  0  0  0  0  0
   -3.7790    0.3311    0.4291 H   0  0  0  0  0  0  0  0  0  0  0  0
   -1.4000    0.2312    0.0402 C   0  0  0  0  0  0  0  0  0  0  0  0
   -2.8924   -0.9700   -0.4811 H   0  0  0  0  0  0  0  0  0  0  0  0
   -2.5216   -1.3575    1.0712 H   0  0  0  0  0  0  0  0  0  0  0  0
   -0.1686   -0.7395   -0.0482 C   0  0  0  0  0  0  0  0  0  0  0  0
   -1.5283    1.0167    0.9031 H   0  0  0  0  0  0  0  0  0  0  0  0
   -1.5338    0.7872   -0.7996 H   0  0  0  0  0  0  0  0  0  0  0  0
   -0.4578   -0.7356    0.5962 H   0  0  0  0  0  0  0  0  0  0  0  0
    0.6638   -0.3637    0.6445 H   0  0  0  0  0  0  0  0  0  0  0  0
    0.2892   -2.1130   -1.2586 H   0  0  0  0  0  0  0  0  0  0  0  0
  2  5  1  0  0  0  0
  2  8  1  0  0  0  0
  4  1  1  0  0  0  0
  6 10  1  0  0  0  0
  7  2  1  0  0  0  0
  9 12  1  0  0  0  0
  9 13  1  0  0  0  0
 11  6  1  0  0  0  0
M  RAD  5   2   2   3   2   6   3   9   3  14   2
M  END
$$$$
