14
butane_opt
C  -3.966802   0.342707   0.135350
C  -2.671483  -0.656454  -0.032193
H  -4.895025  -0.229171  -0.617768
H  -3.931545   0.117490  -0.254730
H  -4.155499   1.567599   1.306504
C  -1.367745   0.057716  -0.192927
H  -2.732750  -1.370863  -0.910022
H  -2.359389  -1.202407   0.938378
C  -0.183003  -0.571966   0.124521
H  -1.590852   0.705913   0.660591
H  -1.303504   0.593627  -1.018081
H  -0.288765  -1.740656   1.347071
H   0.678074  -0.047145  -0.031886
H  -0.204222  -0.927269  -0.312886
