14
butane_opt
C  -3.855611   0.228310  -0.124919
C  -2.738533  -0.562142   0.227060
H  -4.798686  -0.563676  -0.000676
H  -3.884125   1.057836  -1.206986
H  -4.053113   0.686311   0.476763
C  -1.404726   0.235442   0.160802
H  -2.736688  -0.979873  -0.354515
H  -2.786937  -1.381759   1.200820
C  -0.193328  -0.734156  -0.119806
H  -1.433056   0.779438   0.867709
H  -1.562508   1.010932  -0.859604
H  -0.040774  -0.740914   0.328648
H   0.695017  -0.207992   0.667695
H  -0.095382  -2.172469  -1.474900
