14
butane_opt
C  -3.940673   0.253720   0.209410
C  -2.780140  -0.578681  -0.185267
H  -5.007501  -0.479716   0.245911
H  -4.098566   0.553010  -0.326069
H  -3.929880   1.228261   1.130887
C  -1.355545   0.242782  -0.250262
H  -3.018514  -1.228253  -0.870689
H  -2.582482  -1.559840   0.957666
C  -0.116192  -0.716134   0.223828
H  -1.538201   0.674944   0.447039
H  -1.171511   1.029655  -1.239370
H  -0.224056  -1.082495   1.064779
H   0.486749  -0.406454   0.771202
H   0.397889  -1.675215  -0.714345
