butane_opt
 OpenBabel08242015393D

 14 12  0  0  0  0  0  0  0  0999 V2000
   -3.9925    0.2135    0.0660 C   0  0  0  0  0  0  0  0  0  0  0  0
   -2.7688   -0.5873   -0.0307 C   0  0  0  0  0  0  0  0  0  0  0  0
   -4.9864   -0.5649   -0.2697 H   0  0  0  0  0  0  0  0  0  0  0  0
   -3.8736    0.8566   -0.9206 H   0  0  0  0  0  0  0  0  0  0  0  0
   -3.9194    0.9672    1.0329 H   0  0  0  0  0  0  0  0  0  0  0  0
   -1.4346    0.2937    0.0777 C   0  0  0  0  0  0  0  0  0  0  0  0
   -2.8006   -1.3496   -0.9711 H   0  0  0  0  0  0  0  0  0  0  0  0
   -2.4860   -1.0739    0.7016 H   0  0  0  0  0  0  0  0  0  0  0  0
   -0.0409   -0.7254    0.0729 C   0  0  0  0  0  0  0  0  0  0  0  0
   -1.4493    0.7342    0.7277 H   0  0  0  0  0  0  0  0  0  0  0  0
   -1.3965    0.8868   -0.9738 H   0  0  0  0  0  0  0  0  0  0  0  0
    0.3329   -1.8349    1.1464 H   0  0  0  0  0  0  0  0  0  0  0  0
    0.6729   -0.3376   -0.6283 H   0  0  0  0  0  0  0  0  0  0  0  0
   -0.2471   -1.0867   -0.6120 H   0  0  0  0  0  0  0  0  0  0  0  0
  1  5  1  0  0  0  0
  2  1  1  0  0  0  0
  2  6  1  0  0  0  0
  2  8  1  0  0  0  0
  3  1  1  0  0  0  0
  4  1  1  0  0  0  0
  6 10  1  0  0  0  0
  7  2  1  0  0  0  0
  9  6  1  0  0  0  0
 11  6  1  0  0  0  0
 13  9  1  0  0  0  0
 14  9  1  0  0  0  0
M  RAD  2   9   2  12   2
M  END
$$$$
