butane_opt
 OpenBabel08242015393D

 14 11  0  0  0  0  0  0  0  0999 V2000
   -3.8736    0.3195    0.1861 C   0  0  0  0  0  0  0  0  0  0  0  0
   -2.6909   -0.6406   -0.1855 C   0  0  0  0  0  0  0  0  0  0  0  0
   -4.8796   -0.2909   -0.0329 H   0  0  0  0  0  0  0  0  0  0  0  0
   -4.0903    0.6825   -0.5152 H   0  0  0  0  0  0  0  0  0  0  0  0
   -3.8630    0.9555    1.1814 H   0  0  0  0  0  0  0  0  0  0  0  0
   -1.4242    0.1634   -0.1206 C   0  0  0  0  0  0  0  0  0  0  0  0
   -2.9916   -1.3856   -1.2003 H   0  0  0  0  0  0  0  0  0  0  0  0
   -2.3010   -1.2328    0.7083 H   0  0  0  0  0  0  0  0  0  0  0  0
   -0.2423   -0.6657    0.1844 C   0  0  0  0  0  0  0  0  0  0  0  0
   -1.3243    0.7349    0.7006 H   0  0  0  0  0  0  0  0  0  0  0  0
   -1.1027    0.6626   -0.9626 H   0  0  0  0  0  0  0  0  0  0  0  0
   -0.1693   -1.7806    1.3387 H   0  0  0  0  0  0  0  0  0  0  0  0
    0.6611   -0.1431   -0.2919 H   0  0  0  0  0  0  0  0  0  0  0  0
   -0.1842   -0.7733   -0.2354 H   0  0  0  0  0  0  0  0  0  0  0  0
  1  5  1  0  0  0  0
  2  6  1  0  0  0  0
  2  1  1  0  0  0  0
  2  8  1  0  0  0  0
  3  1  1  0  0  0  0
  4  1  1  0  0  0  0
  6  9  1  0  0  0  0
  6 10  1  0  0  0  0
  7  2  1  0  0  0  0
 11  6  1  0  0  0  0
 13  9  1  0  0  0  0
M  RAD  3   9   3  12   2  14   2
M  END
$$$$
