butane_opt
 OpenBabel08242015393D

 14 13  0  0  0  0  0  0  0  0999 V2000
   -4.0513    0.2950    0.0907 C   0  0  0  0  0  0  0  0  0  0  0  0
   -2.6925   -0.6801   -0.1054 C   0  0  0  0  0  0  0  0  0  0  0  0
   -4.8625   -0.1791    0.6174 H   0  0  0  0  0  0  0  0  0  0  0  0
   -4.3410    1.1642   -0.8998 H   0  0  0  0  0  0  0  0  0  0  0  0
   -3.4998    0.8368    0.9084 H   0  0  0  0  0  0  0  0  0  0  0  0
   -1.3419    0.1683   -0.0511 C   0  0  0  0  0  0  0  0  0  0  0  0
   -2.8183   -1.3801   -1.1127 H   0  0  0  0  0  0  0  0  0  0  0  0
   -2.5473   -1.0361    0.6839 H   0  0  0  0  0  0  0  0  0  0  0  0
   -0.1591   -0.6938    0.1428 C   0  0  0  0  0  0  0  0  0  0  0  0
   -1.2428    0.6774    0.7295 H   0  0  0  0  0  0  0  0  0  0  0  0
   -1.1248    0.8224   -0.8934 H   0  0  0  0  0  0  0  0  0  0  0  0
   -0.0990   -1.2891    0.9672 H   0  0  0  0  0  0  0  0  0  0  0  0
    0.7182   -0.1443    0.1841 H   0  0  0  0  0  0  0  0  0  0  0  0
   -0.2611   -1.0128   -0.6672 H   0  0  0  0  0  0  0  0  0  0  0  0
  1  3  1  0  0  0  0
  1  5  1  0  0  0  0
  2  6  1  0  0  0  0
  2  1  1  0  0  0  0
  2  8  1  0  0  0  0
  4  1  1  0  0  0  0
  6  9  1  0  0  0  0
  6 10  1  0  0  0  0
  7  2  1  0  0  0  0
  9 13  1  0  0  0  0
  9 12  1  0  0  0  0
 11  6  1  0  0  0  0
 14  9  1  0  0  0  0
M  END
$$$$
