14
butane_opt
C  -3.884287   0.226848   0.186446
C  -2.638693  -0.603876  -0.078054
H  -4.796385  -0.401844  -0.553719
H  -3.452204   0.134169  -0.271165
H  -4.297537   1.609728   1.372361
C  -1.471379   0.233304  -0.202622
H  -2.998289  -1.135024  -1.033318
H  -2.618079  -1.296591   0.888245
C  -0.197683  -0.732638   0.170967
H  -1.498320   0.908646   0.586524
H  -1.596249   1.030056  -1.207658
H  -0.329781  -1.772463   1.370045
H   0.855385   0.098681   0.025780
H   0.002669  -1.164117  -0.526891
