butane_opt
 OpenBabel08242015393D

 14 12  0  0  0  0  0  0  0  0999 V2000
   -3.8781    0.3275   -0.0498 C   0  0  0  0  0  0  0  0  0  0  0  0
   -2.6820   -0.6689    0.0982 C   0  0  0  0  0  0  0  0  0  0  0  0
   -4.6947   -0.1993    0.3204 H   0  0  0  0  0  0  0  0  0  0  0  0
   -4.3101    1.3005   -1.1271 H   0  0  0  0  0  0  0  0  0  0  0  0
   -3.8795    0.4979    0.4724 H   0  0  0  0  0  0  0  0  0  0  0  0
   -1.4327    0.1218    0.1399 C   0  0  0  0  0  0  0  0  0  0  0  0
   -2.5066   -1.5111   -0.8615 H   0  0  0  0  0  0  0  0  0  0  0  0
   -2.5725   -1.4781    0.9775 H   0  0  0  0  0  0  0  0  0  0  0  0
   -0.2111   -0.6563   -0.0355 C   0  0  0  0  0  0  0  0  0  0  0  0
   -1.6138    0.7374    0.8957 H   0  0  0  0  0  0  0  0  0  0  0  0
   -1.3645    0.8669   -0.7919 H   0  0  0  0  0  0  0  0  0  0  0  0
   -0.2137   -0.8663    0.6428 H   0  0  0  0  0  0  0  0  0  0  0  0
    0.9029    0.1451    0.1731 H   0  0  0  0  0  0  0  0  0  0  0  0
   -0.3540   -1.4078   -1.1814 H   0  0  0  0  0  0  0  0  0  0  0  0
  1  2  1  0  0  0  0
  1  3  1  0  0  0  0
  2  6  1  0  0  0  0
  2  8  1  0  0  0  0
  4  1  1  0  0  0  0
  6 10  1  0  0  0  0
  7  2  1  0  0  0  0
  9  6  1  0  0  0  0
  9 13  1  0  0  0  0
  9 12  1  0  0  0  0
 11  6  1  0  0  0  0
 14  9  1  0  0  0  0
M  RAD  2   1   2   5   2
M  END
$$$$
