butane_opt
 OpenBabel08242015393D

 14 10  0  0  0  0  0  0  0  0999 V2000
   -3.8641    0.2136   -0.0742 C   0  0  0  0  0  0  0  0  0  0  0  0
   -2.6531   -0.5568    0.2015 C   0  0  0  0  0  0  0  0  0  0  0  0
   -4.9369   -0.3271    0.0471 H   0  0  0  0  0  0  0  0  0  0  0  0
   -3.7699    1.0816   -1.2663 H   0  0  0  0  0  0  0  0  0  0  0  0
   -3.9219    0.7609    0.6469 H   0  0  0  0  0  0  0  0  0  0  0  0
   -1.4975    0.2088    0.0035 C   0  0  0  0  0  0  0  0  0  0  0  0
   -2.8316   -1.1027   -0.4777 H   0  0  0  0  0  0  0  0  0  0  0  0
   -2.5624   -1.6526    1.3010 H   0  0  0  0  0  0  0  0  0  0  0  0
   -0.2314   -0.6920   -0.0472 C   0  0  0  0  0  1  0  0  0  0  0  0
   -1.2936    0.9839    1.0690 H   0  0  0  0  0  0  0  0  0  0  0  0
   -1.4744    0.6058   -0.6496 H   0  0  0  0  0  0  0  0  0  0  0  0
   -0.3440   -0.6141    0.3893 H   0  0  0  0  0  0  0  0  0  0  0  0
    0.6689   -0.1521    0.5932 H   0  0  0  0  0  0  0  0  0  0  0  0
    0.3808   -2.1328   -1.3540 H   0  0  0  0  0  0  0  0  0  0  0  0
  1  3  1  0  0  0  0
  1  2  1  0  0  0  0
  1  5  1  0  0  0  0
  4  1  1  0  0  0  0
  6  2  1  0  0  0  0
  6 12  1  0  0  0  0
  6 10  1  0  0  0  0
  7  2  1  0  0  0  0
  9 13  1  0  0  0  0
 11  6  1  0  0  0  0
M  RAD  3   2   2   8   2  14   2
M  END
$$$$
