butane_opt
 OpenBabel08242015393D

 14 12  0  0  0  0  0  0  0  0999 V2000
   -4.0351    0.2892    0.1793 C   0  0  0  0  0  0  0  0  0  0  0  0
   -2.6450   -0.6793   -0.2317 C   0  0  0  0  0  0  0  0  0  0  0  0
   -4.5975   -0.0791    0.8857 H   0  0  0  0  0  0  0  0  0  0  0  0
   -4.8116    1.2174   -0.7799 H   0  0  0  0  0  0  0  0  0  0  0  0
   -3.4925    0.7893    0.9571 H   0  0  0  0  0  0  0  0  0  0  0  0
   -1.3654    0.1447   -0.1397 C   0  0  0  0  0  0  0  0  0  0  0  0
   -2.7972   -1.5479   -1.2409 H   0  0  0  0  0  0  0  0  0  0  0  0
   -2.7970   -1.3538    0.5994 H   0  0  0  0  0  0  0  0  0  0  0  0
   -0.1445   -0.6309    0.2049 C   0  0  0  0  0  0  0  0  0  0  0  0
   -1.4454    0.8318    0.7319 H   0  0  0  0  0  0  0  0  0  0  0  0
   -1.3008    0.7750   -0.9492 H   0  0  0  0  0  0  0  0  0  0  0  0
   -0.1779   -1.3515    1.2796 H   0  0  0  0  0  0  0  0  0  0  0  0
    0.6622   -0.0959    0.2459 H   0  0  0  0  0  0  0  0  0  0  0  0
   -0.0178   -1.0755   -0.4380 H   0  0  0  0  0  0  0  0  0  0  0  0
  1  3  1  0  0  0  0
  1  5  1  0  0  0  0
  2  6  1  0  0  0  0
  2  1  1  0  0  0  0
  2  8  1  0  0  0  0
  6  9  1  0  0  0  0
  6 10  1  0  0  0  0
  7  2  1  0  0  0  0
  9 13  1  0  0  0  0
  9 12  1  0  0  0  0
 11  6  1  0  0  0  0
 14  9  1  0  0  0  0
M  RAD  2   1   2   4   2
M  END
$$$$
