14
butane_opt
C  -3.981293   0.288030   0.060124
C  -2.614959  -0.639048  -0.107128
H  -5.024731  -0.361373   0.058595
H  -3.953357   0.930355  -0.732177
H  -3.971084   1.285337   1.019925
C  -1.415883   0.102233   0.025145
H  -2.545737  -1.287780  -0.777921
H  -2.464645  -1.522818   0.981276
C  -0.210077  -0.665558   0.091866
H  -1.346767   0.959203   0.942197
H  -1.248845   0.729259  -0.865953
H  -0.126596  -1.546344   1.048005
H   0.880527   0.116155  -0.502023
H  -0.538133  -0.789241  -0.524134
