14
butane_opt
C  -3.944829   0.288252  -0.028170
C  -2.723052  -0.657983   0.112532
H  -4.830433  -0.301541  -0.522403
H  -3.843849   0.365766  -0.536840
H  -4.202192   1.157345   0.956208
C  -1.435569   0.229904   0.001453
H  -2.666513  -0.990058  -0.522411
H  -2.972282  -1.503104   1.077057
C  -0.087967  -0.713603   0.035927
H  -1.487315   0.951033   0.834876
H  -1.394501   0.768849  -0.830930
H   0.069037  -1.188791   0.887423
H   0.756452  -0.118797  -0.300849
H  -0.177235  -1.401060  -1.044895
