14
butane_opt
C  -3.978392   0.319565   0.107844
C  -2.633010  -0.631870  -0.113726
H  -4.783780  -0.254706   0.905654
H  -4.376092   1.323108  -1.023918
H  -3.410099   0.661909   0.901222
C  -1.403084   0.035097  -0.054746
H  -2.658209  -1.673901  -1.264201
H  -2.312784  -1.088879   0.501816
C  -0.250675  -0.582278   0.135759
H  -1.414013   0.586212   0.647470
H  -1.247084   0.943786  -1.035507
H  -0.274603  -1.313791   1.156133
H   0.782320   0.197010   0.392893
H  -0.209420  -1.476317  -0.669147
