butane_opt
 OpenBabel08242015393D

 14 12  0  0  0  0  0  0  0  0999 V2000
   -3.9065    0.3363   -0.1747 C   0  0  0  0  0  0  0  0  0  0  0  0
   -2.6437   -0.6952    0.2775 C   0  0  0  0  0  0  0  0  0  0  0  0
   -4.8171   -0.2386   -0.7417 H   0  0  0  0  0  0  0  0  0  0  0  0
   -3.7268    0.5089   -0.8315 H   0  0  0  0  0  0  0  0  0  0  0  0
   -4.3799    1.2799    0.7926 H   0  0  0  0  0  0  0  0  0  0  0  0
   -1.4295    0.1415    0.1356 C   0  0  0  0  0  0  0  0  0  0  0  0
   -2.4539   -1.1859   -0.3229 H   0  0  0  0  0  0  0  0  0  0  0  0
   -2.4926   -1.7985    1.3839 H   0  0  0  0  0  0  0  0  0  0  0  0
   -0.2529   -0.6336   -0.1380 C   0  0  0  0  0  0  0  0  0  0  0  0
   -1.2819    1.0538    1.2262 H   0  0  0  0  0  0  0  0  0  0  0  0
   -1.4029    0.6377   -0.5822 H   0  0  0  0  0  0  0  0  0  0  0  0
    0.0660   -1.3315    0.7692 H   0  0  0  0  0  0  0  0  0  0  0  0
    0.7943    0.1344   -0.1855 H   0  0  0  0  0  0  0  0  0  0  0  0
   -0.5752   -1.3123   -1.2497 H   0  0  0  0  0  0  0  0  0  0  0  0
  1  2  1  0  0  0  0
  1  5  1  0  0  0  0
  3  1  1  0  0  0  0
  4  1  1  0  0  0  0
  6  2  1  0  0  0  0
  6 10  1  0  0  0  0
  7  2  1  0  0  0  0
  9  6  1  0  0  0  0
  9 12  1  0  0  0  0
 11  6  1  0  0  0  0
 13  9  1  0  0  0  0
 14  9  1  0  0  0  0
M  RAD  2   2   2   8   2
M  END
$$$$
