14
butane_opt
C  -3.878137   0.327484  -0.049818
C  -2.682009  -0.668933   0.098209
H  -4.694676  -0.199276   0.320401
H  -4.310134   1.300479  -1.127113
H  -3.879535   0.497894   0.472429
C  -1.432658   0.121789   0.139920
H  -2.506647  -1.511080  -0.861528
H  -2.572499  -1.478141   0.977509
C  -0.211057  -0.656287  -0.035451
H  -1.613796   0.737417   0.895684
H  -1.364532   0.866865  -0.791902
H  -0.213656  -0.866327   0.642777
H   0.902935   0.145090   0.173064
H  -0.354031  -1.407828  -1.181417
