butane_opt
 OpenBabel08242015393D

 14  9  0  0  0  0  0  0  0  0999 V2000
   -3.9612    0.2400   -0.0076 C   0  0  0  0  0 15  0  0  0  0  0  0
   -2.7875   -0.5468   -0.0186 C   0  0  0  0  0  0  0  0  0  0  0  0
   -5.0805   -0.5907    0.8798 H   0  0  0  0  0  0  0  0  0  0  0  0
   -4.0305    1.3864   -1.2064 H   0  0  0  0  0  0  0  0  0  0  0  0
   -3.7612    0.1938    0.3590 H   0  0  0  0  0  0  0  0  0  0  0  0
   -1.3756    0.2839    0.1151 C   0  0  0  0  0  0  0  0  0  0  0  0
   -2.6744   -1.3054   -0.9015 H   0  0  0  0  0  0  0  0  0  0  0  0
   -2.9331   -1.2090    0.8927 H   0  0  0  0  0  0  0  0  0  0  0  0
   -0.0777   -0.7659    0.0318 C   0  0  0  0  0  0  0  0  0  0  0  0
   -1.5720    0.8881    0.8817 H   0  0  0  0  0  0  0  0  0  0  0  0
   -1.3262    0.7775   -0.5125 H   0  0  0  0  0  0  0  0  0  0  0  0
    0.2343   -1.2178    0.6296 H   0  0  0  0  0  0  0  0  0  0  0  0
    0.7664   -0.3810   -0.0661 H   0  0  0  0  0  0  0  0  0  0  0  0
   -0.1827   -1.5541   -1.0203 H   0  0  0  0  0  0  0  0  0  0  0  0
  2  5  1  0  0  0  0
  2  8  1  0  0  0  0
  6 10  1  0  0  0  0
  7  2  1  0  0  0  0
  9  6  1  0  0  0  0
  9 12  1  0  0  0  0
 11  6  1  0  0  0  0
 13  9  1  0  0  0  0
 14  9  1  0  0  0  0
M  RAD  4   2   2   3   2   4   2   6   2
M  END
$$$$
