butane_opt
 OpenBabel08242015393D

 14 10  0  0  0  0  0  0  0  0999 V2000
   -3.9390    0.1727   -0.1154 C   0  0  0  0  0  0  0  0  0  0  0  0
   -2.6914   -0.4799    0.2025 C   0  0  0  0  0  0  0  0  0  0  0  0
   -4.9598   -0.5470    0.3284 H   0  0  0  0  0  0  0  0  0  0  0  0
   -3.6561    1.2417   -1.3122 H   0  0  0  0  0  0  0  0  0  0  0  0
   -3.8719    0.5562    0.5455 H   0  0  0  0  0  0  0  0  0  0  0  0
   -1.4318    0.2312    0.1162 C   0  0  0  0  0  0  0  0  0  0  0  0
   -2.2491   -1.0237   -0.4248 H   0  0  0  0  0  0  0  0  0  0  0  0
   -2.8686   -1.4028    1.2655 H   0  0  0  0  0  0  0  0  0  0  0  0
   -0.1856   -0.7465   -0.1106 C   0  0  0  0  0  0  0  0  0  0  0  0
   -1.3205    0.9908    0.9411 H   0  0  0  0  0  0  0  0  0  0  0  0
   -1.6581    0.5074   -0.6061 H   0  0  0  0  0  0  0  0  0  0  0  0
   -0.3228   -0.8601    0.3688 H   0  0  0  0  0  0  0  0  0  0  0  0
    0.6730   -0.0350    0.5574 H   0  0  0  0  0  0  0  0  0  0  0  0
    0.2070   -2.0398   -1.3905 H   0  0  0  0  0  0  0  0  0  0  0  0
  1  2  1  0  0  0  0
  1  3  1  0  0  0  0
  1  5  1  0  0  0  0
  2  8  1  0  0  0  0
  6  2  1  0  0  0  0
  6 10  1  0  0  0  0
  7  2  1  0  0  0  0
  9  6  1  0  0  0  0
  9 13  1  0  0  0  0
 11  6  1  0  0  0  0
M  RAD  5   1   2   4   2   9   3  12   2  14   2
M  END
$$$$
