butane_opt
 OpenBabel08242015393D

 14 11  0  0  0  0  0  0  0  0999 V2000
   -4.0031    0.2204    0.0485 C   0  0  0  0  0  0  0  0  0  0  0  0
   -2.7192   -0.5587   -0.0717 C   0  0  0  0  0  0  0  0  0  0  0  0
   -5.0059   -0.5614   -0.1522 H   0  0  0  0  0  0  0  0  0  0  0  0
   -4.1360    0.6356   -0.5909 H   0  0  0  0  0  0  0  0  0  0  0  0
   -3.6400    1.1668    1.0442 H   0  0  0  0  0  0  0  0  0  0  0  0
   -1.4139    0.2155    0.0439 C   0  0  0  0  0  0  0  0  0  0  0  0
   -2.7058   -1.2251   -0.8911 H   0  0  0  0  0  0  0  0  0  0  0  0
   -2.9858   -1.0904    0.8069 H   0  0  0  0  0  0  0  0  0  0  0  0
   -0.0808   -0.7345    0.0475 C   0  0  0  0  0  0  0  0  0  0  0  0
   -1.5309    0.9205    0.9532 H   0  0  0  0  0  0  0  0  0  0  0  0
   -1.3600    0.7481   -0.8789 H   0  0  0  0  0  0  0  0  0  0  0  0
    0.4185   -1.8800    1.3877 H   0  0  0  0  0  0  0  0  0  0  0  0
    0.5918   -0.2685   -0.7276 H   0  0  0  0  0  0  0  0  0  0  0  0
   -0.0704   -0.6430   -0.2631 H   0  0  0  0  0  0  0  0  0  0  0  0
  1  5  1  0  0  0  0
  2  6  1  0  0  0  0
  2  1  1  0  0  0  0
  2  8  1  0  0  0  0
  3  1  1  0  0  0  0
  4  1  1  0  0  0  0
  6  9  1  0  0  0  0
  6 10  1  0  0  0  0
  7  2  1  0  0  0  0
 11  6  1  0  0  0  0
 13  9  1  0  0  0  0
M  RAD  3   9   3  12   2  14   2
M  END
$$$$
