butane_opt
 OpenBabel08242015393D

 14 12  0  0  0  0  0  0  0  0999 V2000
   -3.9626    0.2752   -0.0153 C   0  0  0  0  0  0  0  0  0  0  0  0
   -2.6985   -0.6906    0.1401 C   0  0  0  0  0  0  0  0  0  0  0  0
   -4.8112   -0.1397   -0.0081 H   0  0  0  0  0  0  0  0  0  0  0  0
   -4.2244    1.0722   -0.9698 H   0  0  0  0  0  0  0  0  0  0  0  0
   -4.0779    1.0526    0.8737 H   0  0  0  0  0  0  0  0  0  0  0  0
   -1.3812    0.1435   -0.0303 C   0  0  0  0  0  0  0  0  0  0  0  0
   -2.8146   -1.4696   -0.6893 H   0  0  0  0  0  0  0  0  0  0  0  0
   -2.6267   -1.2183    0.8848 H   0  0  0  0  0  0  0  0  0  0  0  0
   -0.1689   -0.6306    0.0195 C   0  0  0  0  0  0  0  0  0  0  0  0
   -1.2524    0.7390    0.8510 H   0  0  0  0  0  0  0  0  0  0  0  0
   -1.5694    1.1048   -1.0599 H   0  0  0  0  0  0  0  0  0  0  0  0
   -0.1908   -0.9211    0.6271 H   0  0  0  0  0  0  0  0  0  0  0  0
    0.7336    0.0029    0.5812 H   0  0  0  0  0  0  0  0  0  0  0  0
    0.2966   -1.8601   -1.0754 H   0  0  0  0  0  0  0  0  0  0  0  0
  1  3  1  0  0  0  0
  1  2  1  0  0  0  0
  1  5  1  0  0  0  0
  2  8  1  0  0  0  0
  4  1  1  0  0  0  0
  6  9  1  0  0  0  0
  6  2  1  0  0  0  0
  6 10  1  0  0  0  0
  7  2  1  0  0  0  0
  9 13  1  0  0  0  0
  9 12  1  0  0  0  0
 11  6  1  0  0  0  0
M  RAD  2   9   2  14   2
M  END
$$$$
