14
butane_opt
C  -4.054206   0.328734   0.222165
C  -2.654902  -0.701242  -0.240917
H  -4.877793  -0.234210   0.651997
H  -4.502429   1.400521  -0.844493
H  -3.751373   0.573021   0.857063
C  -1.387153   0.124509  -0.158922
H  -2.913128  -1.489574  -1.255911
H  -2.232685  -1.187419   0.653717
C  -0.120714  -0.604406   0.206047
H  -1.266503   0.862388   0.839271
H  -1.134765   0.618672  -0.864984
H  -0.488988  -1.563649   1.354681
H   0.884298  -0.025109   0.209068
H  -0.134935  -1.173513  -0.559250
