butane_opt
 OpenBabel08242015393D

 14 12  0  0  0  0  0  0  0  0999 V2000
   -4.0338    0.3095   -0.1972 C   0  0  0  0  0  0  0  0  0  0  0  0
   -2.6519   -0.7061    0.2419 C   0  0  0  0  0  0  0  0  0  0  0  0
   -4.8362   -0.1435   -0.2417 H   0  0  0  0  0  0  0  0  0  0  0  0
   -4.0072    1.0650   -1.2088 H   0  0  0  0  0  0  0  0  0  0  0  0
   -4.2864    0.7700    0.4859 H   0  0  0  0  0  0  0  0  0  0  0  0
   -1.3787    0.1640    0.3080 C   0  0  0  0  0  0  0  0  0  0  0  0
   -2.7494   -1.3924   -0.7020 H   0  0  0  0  0  0  0  0  0  0  0  0
   -2.7839   -1.0366    1.0419 H   0  0  0  0  0  0  0  0  0  0  0  0
   -0.0836   -0.6423   -0.1842 C   0  0  0  0  0  0  0  0  0  0  0  0
   -1.1271    0.9725    1.2516 H   0  0  0  0  0  0  0  0  0  0  0  0
   -1.6551    0.5466   -0.4465 H   0  0  0  0  0  0  0  0  0  0  0  0
    0.1138   -1.7652    0.9151 H   0  0  0  0  0  0  0  0  0  0  0  0
    0.9144    0.0508   -0.8147 H   0  0  0  0  0  0  0  0  0  0  0  0
   -0.8310   -1.0110   -0.8398 H   0  0  0  0  0  0  0  0  0  0  0  0
  1  2  1  0  0  0  0
  1  5  1  0  0  0  0
  2  6  1  0  0  0  0
  2  8  1  0  0  0  0
  3  1  1  0  0  0  0
  4  1  1  0  0  0  0
  6 10  1  0  0  0  0
  7  2  1  0  0  0  0
  9  6  1  0  0  0  0
 11  6  1  0  0  0  0
 13  9  1  0  0  0  0
 14  9  1  0  0  0  0
M  RAD  2   9   2  12   2
M  END
$$$$
