14
butane_opt
C  -3.964322   0.351948   0.082126
C  -2.740475  -0.695202  -0.037390
H  -4.823011  -0.283382  -0.064778
H  -3.966402   0.414735  -0.593741
H  -4.311031   1.270889   1.016544
C  -1.329175   0.165294  -0.023647
H  -2.704339  -1.777238  -1.296476
H  -2.515017  -1.050471   0.668400
C  -0.179041  -0.643844   0.112379
H  -1.081087   0.721060   0.875434
H  -1.400822   1.004323  -0.993734
H   0.067308  -2.051210   1.389131
H   0.623604  -0.074208  -0.695593
H  -0.360816  -0.771823  -0.322635
