14
butane_opt
C  -4.041469   0.323075  -0.160082
C  -2.719453  -0.675847   0.168984
H  -4.841605  -0.157167  -0.082567
H  -3.768961   1.062599  -1.043584
H  -4.271330   1.056752   0.745945
C  -1.344390   0.095648   0.184629
H  -2.267217  -1.101491  -0.553677
H  -2.785403  -1.588990   1.217792
C  -0.161875  -0.593396  -0.098772
H  -1.221641   1.012352   1.161304
H  -1.219179   0.240221  -0.282290
H   0.325494  -1.442685   0.892963
H   0.840845  -0.028812  -0.763771
H  -0.646194  -1.271100  -0.966337
