14
butane_opt
C  -3.901636   0.204929  -0.025222
C  -2.682535  -0.546768   0.143769
H  -5.028948  -0.506970   0.043246
H  -3.818283   1.002631  -1.118609
H  -4.047557   0.831949   0.862048
C  -1.431364   0.187302  -0.071791
H  -2.738097  -0.864617  -0.529997
H  -2.370650  -1.311558   1.167104
C  -0.172539  -0.714630  -0.017632
H  -1.378266   0.995276   0.983859
H  -1.534764   0.595260  -0.659895
H  -0.383382  -0.842672   0.630266
H   0.612579  -0.129360   0.839437
H  -0.005402  -1.889200  -1.194821
