14
butane_opt
C  -3.953301   0.274689  -0.006887
C  -2.707637  -0.622190   0.048370
H  -4.865267  -0.316401   0.122007
H  -3.980611   1.007116  -0.988349
H  -3.982617   0.854086   0.812758
C  -1.402783   0.177741   0.049289
H  -2.690576  -1.291584  -0.766117
H  -2.763657  -1.317543   0.983586
C  -0.143635  -0.688370   0.003709
H  -1.350293   0.919012   0.940208
H  -1.351831   0.732497  -0.807236
H  -0.121519  -1.289579   0.900572
H   0.774813  -0.079688  -0.027206
H  -0.204558  -1.381851  -0.874786
