14
butane_opt
C  -4.017646   0.308022   0.187039
C  -2.639293  -0.666428  -0.182953
H  -4.787984  -0.225787   0.796575
H  -4.698210   1.204062  -0.928687
H  -3.627286   0.722773   0.889599
C  -1.367917   0.110228  -0.120258
H  -2.799048  -1.536749  -1.158899
H  -2.734166  -1.187918   0.606560
C  -0.116393  -0.665146   0.156926
H  -1.624424   1.014076   0.748582
H  -1.277980   0.748994  -1.097480
H  -0.777652  -1.194125   1.238876
H   0.902864  -0.011408   0.319747
H   0.103899  -1.014992  -0.499646
