butane_opt
 OpenBabel08242015393D

 14  8  0  0  0  0  0  0  0  0999 V2000
   -3.9089    0.3096    0.1331 C   0  0  0  0  0  0  0  0  0  0  0  0
   -2.7037   -0.6387   -0.0774 C   0  0  0  0  0  0  0  0  0  0  0  0
   -4.7132   -0.1266   -0.5768 H   0  0  0  0  0  0  0  0  0  0  0  0
   -4.0414    0.2574   -0.1812 H   0  0  0  0  0  0  0  0  0  0  0  0
   -4.0146    1.7384    1.3805 H   0  0  0  0  0  0  0  0  0  0  0  0
   -1.3996    0.0266   -0.1339 C   0  0  0  0  0  0  0  0  0  0  0  0
   -2.7259   -1.3025   -0.8901 H   0  0  0  0  0  0  0  0  0  0  0  0
   -2.4252   -1.1901    0.7246 H   0  0  0  0  0  0  0  0  0  0  0  0
   -0.1813   -0.6243    0.1765 C   0  0  0  0  0  0  0  0  0  0  0  0
   -1.6395    0.6737    0.4993 H   0  0  0  0  0  0  0  0  0  0  0  0
   -1.0841    0.8742   -1.1979 H   0  0  0  0  0  0  0  0  0  0  0  0
   -0.3207   -1.5453    1.3861 H   0  0  0  0  0  0  0  0  0  0  0  0
    0.8250    0.0902   -0.4761 H   0  0  0  0  0  0  0  0  0  0  0  0
   -0.5679   -0.8334   -0.3447 H   0  0  0  0  0  0  0  0  0  0  0  0
  2  1  1  0  0  0  0
  2  8  1  0  0  0  0
  3  1  1  0  0  0  0
  6 10  1  0  0  0  0
  7  2  1  0  0  0  0
 11  6  1  0  0  0  0
 13  9  1  0  0  0  0
 14  9  1  0  0  0  0
M  RAD  7   1   3   2   2   4   2   5   2   6   3   9   3  12   2
M  END
$$$$
