14
butane_opt
C  -3.839613   0.193325  -0.109241
C  -2.686680  -0.535437   0.128758
H  -5.095250  -0.590176  -0.072863
H  -3.710395   1.002089  -1.226243
H  -4.015099   0.650253   0.514509
C  -1.471951   0.272777   0.231244
H  -2.448291  -0.957584  -0.507069
H  -2.966079  -1.372614   1.206497
C  -0.198539  -0.776189  -0.101324
H  -1.320203   1.335812   1.188350
H  -1.294622   0.722408  -0.545196
H   0.199248  -1.448769   0.733415
H   0.552112  -0.253535  -0.710832
H  -0.472854  -1.494391  -0.963101
