butane_opt
 OpenBabel08242015393D

 14 10  0  0  0  0  0  0  0  0999 V2000
   -3.9571    0.2249   -0.1127 C   0  0  0  0  0  1  0  0  0  0  0  0
   -2.6921   -0.5460    0.0754 C   0  0  0  0  0  0  0  0  0  0  0  0
   -5.0855   -0.6396    0.7313 H   0  0  0  0  0  0  0  0  0  0  0  0
   -3.9533    1.4148   -1.3128 H   0  0  0  0  0  0  0  0  0  0  0  0
   -3.3135    0.3240    0.3834 H   0  0  0  0  0  0  0  0  0  0  0  0
   -1.4550    0.2127    0.1594 C   0  0  0  0  0  0  0  0  0  0  0  0
   -2.7600   -0.9933   -0.5265 H   0  0  0  0  0  0  0  0  0  0  0  0
   -2.7581   -1.3772    1.2226 H   0  0  0  0  0  0  0  0  0  0  0  0
   -0.1080   -0.7444   -0.0976 C   0  0  0  0  0  0  0  0  0  0  0  0
   -1.3756    1.1354    1.1315 H   0  0  0  0  0  0  0  0  0  0  0  0
   -1.5768    0.7010   -0.4641 H   0  0  0  0  0  0  0  0  0  0  0  0
   -0.0484   -0.9398    0.5467 H   0  0  0  0  0  0  0  0  0  0  0  0
    0.5447   -0.3226    0.4665 H   0  0  0  0  0  0  0  0  0  0  0  0
   -0.1200   -1.5943   -1.1223 H   0  0  0  0  0  0  0  0  0  0  0  0
  1  5  1  0  0  0  0
  2  6  1  0  0  0  0
  2  8  1  0  0  0  0
  6 10  1  0  0  0  0
  7  2  1  0  0  0  0
  9  6  1  0  0  0  0
  9 13  1  0  0  0  0
  9 12  1  0  0  0  0
 11  6  1  0  0  0  0
 14  9  1  0  0  0  0
M  RAD  3   2   2   3   2   4   2
M  END
$$$$
