14
butane_opt
C  -3.892834   0.174454  -0.027646
C  -2.673054  -0.535677   0.194409
H  -4.784701  -0.525883  -0.407460
H  -3.598492   0.986068  -1.055418
H  -4.007723   0.760012   0.657140
C  -1.424985   0.255780   0.050365
H  -2.905351  -1.131525  -0.644977
H  -2.441274  -1.151105   1.058106
C  -0.211835  -0.745354  -0.053946
H  -1.569095   0.752897   0.916836
H  -1.679350   1.002600  -0.903579
H  -0.240636  -0.900739   0.407656
H   0.561576  -0.376276   0.469409
H   0.109474  -1.708052  -1.108760
