14
butane_opt
C  -4.014625   0.196262   0.155710
C  -2.713357  -0.537324  -0.179339
H  -5.088602  -0.478239   0.060806
H  -3.994577   0.523796  -0.450884
H  -3.757666   1.035528   1.218181
C  -1.447805   0.272639  -0.067146
H  -2.862805  -1.368527  -1.200159
H  -2.498908  -0.887785   0.579603
C  -0.060609  -0.735120   0.156220
H  -1.299120   0.816309   0.643804
H  -1.340379   0.808498  -0.969028
H  -0.124102  -2.194649   1.748134
H   0.759669  -0.316839  -0.634750
H   0.058708  -0.802809  -0.266215
