butane_opt
 OpenBabel08242015393D

 14 11  0  0  0  0  0  0  0  0999 V2000
   -4.0276    0.3052    0.0524 C   0  0  0  0  0  0  0  0  0  0  0  0
   -2.6195   -0.6486    0.0835 C   0  0  0  0  0  0  0  0  0  0  0  0
   -4.9978   -0.2862   -0.7853 H   0  0  0  0  0  0  0  0  0  0  0  0
   -3.9157    0.3306   -0.5611 H   0  0  0  0  0  0  0  0  0  0  0  0
   -4.5725    1.6264    1.3094 H   0  0  0  0  0  0  0  0  0  0  0  0
   -1.3754    0.1188   -0.1203 C   0  0  0  0  0  0  0  0  0  0  0  0
   -3.0074   -1.3328   -0.7589 H   0  0  0  0  0  0  0  0  0  0  0  0
   -2.4704   -1.5088    1.1731 H   0  0  0  0  0  0  0  0  0  0  0  0
   -0.1469   -0.6453    0.0741 C   0  0  0  0  0  0  0  0  0  0  0  0
   -1.3405    0.9331    0.7256 H   0  0  0  0  0  0  0  0  0  0  0  0
   -1.2038    0.6655   -0.8852 H   0  0  0  0  0  0  0  0  0  0  0  0
   -0.2799   -1.4596    1.0354 H   0  0  0  0  0  0  0  0  0  0  0  0
    0.7826    0.1400   -0.0981 H   0  0  0  0  0  0  0  0  0  0  0  0
    0.0327   -1.1572   -0.7659 H   0  0  0  0  0  0  0  0  0  0  0  0
  1  2  1  0  0  0  0
  2  8  1  0  0  0  0
  3  1  1  0  0  0  0
  6  9  1  0  0  0  0
  6  2  1  0  0  0  0
  6 10  1  0  0  0  0
  7  2  1  0  0  0  0
  9 12  1  0  0  0  0
 11  6  1  0  0  0  0
 13  9  1  0  0  0  0
 14  9  1  0  0  0  0
M  RAD  3   1   3   4   2   5   2
M  END
$$$$
