14
butane_opt
C  -3.951632   0.253532   0.194128
C  -2.738626  -0.600146  -0.107700
H  -5.199282  -0.588467   0.257440
H  -3.816819   0.947470  -0.754048
H  -3.743936   0.820265   1.002620
C  -1.413999   0.228718  -0.156437
H  -2.919790  -1.261382  -1.043887
H  -2.691281  -0.969948   0.547763
C  -0.122371  -0.747855   0.179455
H  -1.440363   0.748757   0.515594
H  -1.299629   1.196671  -1.166336
H  -0.254876  -1.226361   1.038044
H   0.728980  -0.130522   0.418699
H   0.339027  -1.688965  -0.714621
