14
butane_opt
C  -4.017121   0.307633  -0.060490
C  -2.664488  -0.716963   0.229711
H  -4.767664  -0.130596  -0.028713
H  -3.940664   1.272974  -1.222966
H  -4.551135   0.565899   0.440931
C  -1.332293   0.137055   0.054574
H  -2.685802  -1.162447  -0.432493
H  -2.553179  -1.386982   0.985698
C  -0.176388  -0.616750  -0.067250
H  -1.189150   0.853691   0.967376
H  -1.579872   0.904440  -0.852459
H  -0.208646  -0.488495   0.266972
H   0.705204  -0.241165   0.853132
H   0.016485  -2.007726  -1.496927
