butane_opt
 OpenBabel08242015393D

 14 13  0  0  0  0  0  0  0  0999 V2000
   -4.0058    0.3348    0.1135 C   0  0  0  0  0  0  0  0  0  0  0  0
   -2.6710   -0.6987   -0.0982 C   0  0  0  0  0  0  0  0  0  0  0  0
   -4.9602   -0.1900    0.4853 H   0  0  0  0  0  0  0  0  0  0  0  0
   -4.1047    0.9870   -0.7060 H   0  0  0  0  0  0  0  0  0  0  0  0
   -3.6702    0.9963    1.0407 H   0  0  0  0  0  0  0  0  0  0  0  0
   -1.3728    0.1341   -0.1357 C   0  0  0  0  0  0  0  0  0  0  0  0
   -2.8217   -1.3301   -0.8314 H   0  0  0  0  0  0  0  0  0  0  0  0
   -2.6731   -1.5518    0.9172 H   0  0  0  0  0  0  0  0  0  0  0  0
   -0.1587   -0.6394    0.1433 C   0  0  0  0  0  0  0  0  0  0  0  0
   -1.5719    0.7028    0.7353 H   0  0  0  0  0  0  0  0  0  0  0  0
   -0.9973    0.9055   -1.0802 H   0  0  0  0  0  0  0  0  0  0  0  0
   -0.5479   -0.8770    0.7931 H   0  0  0  0  0  0  0  0  0  0  0  0
    0.6113   -0.1534    0.5759 H   0  0  0  0  0  0  0  0  0  0  0  0
    0.1794   -1.5242   -0.8292 H   0  0  0  0  0  0  0  0  0  0  0  0
  1  3  1  0  0  0  0
  1  5  1  0  0  0  0
  2  1  1  0  0  0  0
  2  8  1  0  0  0  0
  4  1  1  0  0  0  0
  6  2  1  0  0  0  0
  6  9  1  0  0  0  0
  6 10  1  0  0  0  0
  7  2  1  0  0  0  0
  9 13  1  0  0  0  0
  9 12  1  0  0  0  0
 11  6  1  0  0  0  0
 14  9  1  0  0  0  0
M  END
$$$$
