14
butane_opt
C  -3.965870   0.336682  -0.102321
C  -2.745279  -0.726456   0.248336
H  -4.764117  -0.201121  -0.429424
H  -3.775175   0.872410  -0.837300
H  -4.463635   1.033852   0.721120
C  -1.342824   0.197296   0.061664
H  -2.966894  -1.480501  -0.494669
H  -2.629837  -1.337999   1.127693
C  -0.128145  -0.645048  -0.053937
H  -1.368546   0.781580   0.832419
H  -1.488147   0.881308  -0.828753
H  -0.255746  -0.965772   0.609510
H   0.889459  -0.118984   0.111806
H  -0.061011  -1.868129  -1.294023
