14
butane_opt
C  -4.002049   0.275708  -0.014119
C  -2.667613  -0.710646   0.165231
H  -4.659278  -0.019426  -0.054925
H  -4.226523   1.143282  -1.160970
H  -4.207663   1.014765   0.811384
C  -1.388797   0.164585  -0.013643
H  -2.701232  -1.270827  -0.565428
H  -2.805116  -1.428300   1.082635
C  -0.178932  -0.661282  -0.059473
H  -1.136421   0.979925   0.979339
H  -1.313681   0.907007  -0.933920
H  -0.537342  -0.870042   0.607025
H   1.025093   0.045738   0.871412
H   0.354506  -1.764553  -1.187878
