14
butane_opt
C  -3.925214   0.277629   0.161286
C  -2.695357  -0.670278  -0.047138
H  -4.806152  -0.273806  -0.686864
H  -3.515306   0.223104  -0.382164
H  -4.098451   1.807719   1.460322
C  -1.418350   0.178340  -0.149096
H  -2.907095  -1.338787  -0.945628
H  -2.394967  -1.160118   0.733595
C  -0.214818  -0.679541   0.159606
H  -1.462921   0.546580   0.506383
H  -1.043950   1.254102  -1.342088
H  -0.060289  -1.704834   1.281140
H   0.603288  -0.018489  -0.017408
H  -0.311774  -1.116343  -0.559740
