butane_opt
 OpenBabel08242015393D

 14 13  0  0  0  0  0  0  0  0999 V2000
   -3.9570    0.2604    0.0243 C   0  0  0  0  0  0  0  0  0  0  0  0
   -2.7027   -0.6093    0.0394 C   0  0  0  0  0  0  0  0  0  0  0  0
   -4.8878   -0.3493    0.0185 H   0  0  0  0  0  0  0  0  0  0  0  0
   -3.9738    0.8246   -0.8374 H   0  0  0  0  0  0  0  0  0  0  0  0
   -3.9543    0.9492    0.9054 H   0  0  0  0  0  0  0  0  0  0  0  0
   -1.4023    0.1931   -0.0135 C   0  0  0  0  0  0  0  0  0  0  0  0
   -2.7126   -1.2835   -0.8249 H   0  0  0  0  0  0  0  0  0  0  0  0
   -2.7246   -1.2503    0.9479 H   0  0  0  0  0  0  0  0  0  0  0  0
   -0.1419   -0.6950    0.0390 C   0  0  0  0  0  0  0  0  0  0  0  0
   -1.3662    0.8652    0.8322 H   0  0  0  0  0  0  0  0  0  0  0  0
   -1.4350    0.7934   -0.8890 H   0  0  0  0  0  0  0  0  0  0  0  0
   -0.1302   -1.2875    0.9577 H   0  0  0  0  0  0  0  0  0  0  0  0
    0.7069   -0.1546    0.1023 H   0  0  0  0  0  0  0  0  0  0  0  0
   -0.0940   -1.3790   -0.8349 H   0  0  0  0  0  0  0  0  0  0  0  0
  1  2  1  0  0  0  0
  1  5  1  0  0  0  0
  2  8  1  0  0  0  0
  3  1  1  0  0  0  0
  4  1  1  0  0  0  0
  6  9  1  0  0  0  0
  6  2  1  0  0  0  0
  6 10  1  0  0  0  0
  7  2  1  0  0  0  0
  9 13  1  0  0  0  0
  9 12  1  0  0  0  0
 11  6  1  0  0  0  0
 14  9  1  0  0  0  0
M  END
$$$$
