butane_opt
 OpenBabel08242015393D

 14 11  0  0  0  0  0  0  0  0999 V2000
   -4.0542    0.3287    0.2222 C   0  0  0  0  0  0  0  0  0  0  0  0
   -2.6549   -0.7012   -0.2409 C   0  0  0  0  0  0  0  0  0  0  0  0
   -4.8778   -0.2342    0.6520 H   0  0  0  0  0  0  0  0  0  0  0  0
   -4.5024    1.4005   -0.8445 H   0  0  0  0  0  0  0  0  0  0  0  0
   -3.7514    0.5730    0.8571 H   0  0  0  0  0  0  0  0  0  0  0  0
   -1.3872    0.1245   -0.1589 C   0  0  0  0  0  0  0  0  0  0  0  0
   -2.9131   -1.4896   -1.2559 H   0  0  0  0  0  0  0  0  0  0  0  0
   -2.2327   -1.1874    0.6537 H   0  0  0  0  0  0  0  0  0  0  0  0
   -0.1207   -0.6044    0.2060 C   0  0  0  0  0  0  0  0  0  0  0  0
   -1.2665    0.8624    0.8393 H   0  0  0  0  0  0  0  0  0  0  0  0
   -1.1348    0.6187   -0.8650 H   0  0  0  0  0  0  0  0  0  0  0  0
   -0.4890   -1.5636    1.3547 H   0  0  0  0  0  0  0  0  0  0  0  0
    0.8843   -0.0251    0.2091 H   0  0  0  0  0  0  0  0  0  0  0  0
   -0.1349   -1.1735   -0.5593 H   0  0  0  0  0  0  0  0  0  0  0  0
  1  3  1  0  0  0  0
  1  5  1  0  0  0  0
  2  6  1  0  0  0  0
  2  1  1  0  0  0  0
  2  8  1  0  0  0  0
  6  9  1  0  0  0  0
  6 10  1  0  0  0  0
  7  2  1  0  0  0  0
  9 13  1  0  0  0  0
 11  6  1  0  0  0  0
 14  9  1  0  0  0  0
M  RAD  4   1   2   4   2   9   2  12   2
M  END
$$$$
