butane_opt
 OpenBabel08242015393D

 14  7  0  0  0  0  0  0  0  0999 V2000
   -3.9667    0.3103   -0.0703 C   0  0  0  0  0  0  0  0  0  0  0  0
   -2.5959   -0.6641    0.2002 C   0  0  0  0  0  0  0  0  0  0  0  0
   -4.7675   -0.1940   -0.3315 H   0  0  0  0  0  0  0  0  0  0  0  0
   -3.8076    0.9948   -1.2143 H   0  0  0  0  0  0  0  0  0  0  0  0
   -4.0320    0.9563    0.6978 H   0  0  0  0  0  0  0  0  0  0  0  0
   -1.4080    0.0801    0.0745 C   0  0  0  0  0  1  0  0  0  0  0  0
   -2.4634   -0.9655   -0.3124 H   0  0  0  0  0  0  0  0  0  0  0  0
   -2.9077   -1.5813    1.3496 H   0  0  0  0  0  0  0  0  0  0  0  0
   -0.2230   -0.6452   -0.1115 C   0  0  0  0  0  1  0  0  0  0  0  0
   -1.3304    0.9901    1.1599 H   0  0  0  0  0  0  0  0  0  0  0  0
   -1.6456    0.6485   -0.7976 H   0  0  0  0  0  0  0  0  0  0  0  0
   -0.6633   -0.7696    0.5233 H   0  0  0  0  0  0  0  0  0  0  0  0
    1.0322    0.2490    0.4770 H   0  0  0  0  0  0  0  0  0  0  0  0
   -0.1690   -1.7371   -1.2840 H   0  0  0  0  0  0  0  0  0  0  0  0
  1  2  1  0  0  0  0
  1  5  1  0  0  0  0
  2  8  1  0  0  0  0
  3  1  1  0  0  0  0
  4  1  1  0  0  0  0
  9 12  1  0  0  0  0
 11  6  1  0  0  0  0
M  RAD  5   2   3   7   2  10   2  13   2  14   2
M  END
$$$$
