14
butane_opt
C  -3.967525   0.306269  -0.111147
C  -2.780269  -0.651058   0.188237
H  -5.043396  -0.513159   0.339817
H  -3.931820   1.260773  -1.158250
H  -4.114040   0.628544   0.445168
C  -1.369354   0.186813   0.148439
H  -2.451230  -1.075461  -0.407447
H  -2.798415  -1.320677   1.029942
C  -0.113037  -0.696588  -0.086075
H  -1.060150   0.717293   0.842728
H  -1.587910   0.951759  -0.896630
H  -0.243529  -0.719617   0.305692
H   0.934893  -0.038525   0.685499
H   0.031023  -2.134065  -1.461823
