14
butane_opt
C  -3.800337   0.181751  -0.086141
C  -2.695921  -0.515191   0.148643
H  -4.914915  -0.433173   0.613518
H  -4.244678   1.656772  -1.565964
H  -3.642133   0.023817   0.221371
C  -1.538920   0.259724   0.171073
H  -2.552861  -1.562393  -0.759049
H  -3.042989  -1.057192   0.994551
C  -0.147096  -0.740019  -0.090289
H  -1.314345   1.072339   1.136124
H  -1.636926   0.591712  -0.544914
H  -0.078371  -1.084696   0.546830
H   0.677566  -0.252123   0.168495
H  -0.048032  -1.653444  -1.194732
