butane_opt
 OpenBabel08242015393D

 14  9  0  0  0  0  0  0  0  0999 V2000
   -3.9252    0.2776    0.1613 C   0  0  0  0  0  0  0  0  0  0  0  0
   -2.6954   -0.6703   -0.0471 C   0  0  0  0  0  0  0  0  0  0  0  0
   -4.8062   -0.2738   -0.6869 H   0  0  0  0  0  0  0  0  0  0  0  0
   -3.5153    0.2231   -0.3822 H   0  0  0  0  0  0  0  0  0  0  0  0
   -4.0985    1.8077    1.4603 H   0  0  0  0  0  0  0  0  0  0  0  0
   -1.4183    0.1783   -0.1491 C   0  0  0  0  0  0  0  0  0  0  0  0
   -2.9071   -1.3388   -0.9456 H   0  0  0  0  0  0  0  0  0  0  0  0
   -2.3950   -1.1601    0.7336 H   0  0  0  0  0  0  0  0  0  0  0  0
   -0.2148   -0.6795    0.1596 C   0  0  0  0  0  0  0  0  0  0  0  0
   -1.4629    0.5466    0.5064 H   0  0  0  0  0  0  0  0  0  0  0  0
   -1.0439    1.2541   -1.3421 H   0  0  0  0  0  0  0  0  0  0  0  0
   -0.0603   -1.7048    1.2811 H   0  0  0  0  0  0  0  0  0  0  0  0
    0.6033   -0.0185   -0.0174 H   0  0  0  0  0  0  0  0  0  0  0  0
   -0.3118   -1.1163   -0.5597 H   0  0  0  0  0  0  0  0  0  0  0  0
  2  8  1  0  0  0  0
  3  1  1  0  0  0  0
  4  1  1  0  0  0  0
  6  2  1  0  0  0  0
  6  9  1  0  0  0  0
  6 10  1  0  0  0  0
  7  2  1  0  0  0  0
 13  9  1  0  0  0  0
 14  9  1  0  0  0  0
M  RAD  7   1   3   2   2   5   2   6   2   9   2  11   2  12   2
M  END
$$$$
