14
butane_opt
C  -3.997324   0.202912  -0.084040
C  -2.666809  -0.528150   0.098159
H  -5.026841  -0.593332   0.291913
H  -3.708771   1.071158  -1.191073
H  -3.964462   0.474642   0.589677
C  -1.420760   0.274899   0.167560
H  -2.776568  -1.440010  -0.862268
H  -2.862599  -0.867335   0.893938
C  -0.122462  -0.750530  -0.052462
H  -1.134562   0.991489   0.960276
H  -1.840994   0.701715  -0.418840
H   0.312027  -1.685283   1.028634
H   0.764677  -0.285714  -0.515743
H  -0.271068  -1.233238  -0.850627
