14
butane_opt
C  -3.957122   0.224883  -0.112712
C  -2.692115  -0.546021   0.075376
H  -5.085474  -0.639603   0.731284
H  -3.953341   1.414848  -1.312843
H  -3.313455   0.323986   0.383430
C  -1.454989   0.212677   0.159428
H  -2.759971  -0.993283  -0.526496
H  -2.758077  -1.377170   1.222610
C  -0.107952  -0.744403  -0.097626
H  -1.375592   1.135379   1.131514
H  -1.576817   0.701021  -0.464111
H  -0.048399  -0.939829   0.546667
H   0.544718  -0.322633   0.466457
H  -0.120048  -1.594258  -1.122267
