butane_opt
 OpenBabel08242015393D

 14 12  0  0  0  0  0  0  0  0999 V2000
   -3.9813    0.2880    0.0601 C   0  0  0  0  0  0  0  0  0  0  0  0
   -2.6150   -0.6390   -0.1071 C   0  0  0  0  0  0  0  0  0  0  0  0
   -5.0247   -0.3614    0.0586 H   0  0  0  0  0  0  0  0  0  0  0  0
   -3.9534    0.9304   -0.7322 H   0  0  0  0  0  0  0  0  0  0  0  0
   -3.9711    1.2853    1.0199 H   0  0  0  0  0  0  0  0  0  0  0  0
   -1.4159    0.1022    0.0251 C   0  0  0  0  0  0  0  0  0  0  0  0
   -2.5457   -1.2878   -0.7779 H   0  0  0  0  0  0  0  0  0  0  0  0
   -2.4646   -1.5228    0.9813 H   0  0  0  0  0  0  0  0  0  0  0  0
   -0.2101   -0.6656    0.0919 C   0  0  0  0  0  0  0  0  0  0  0  0
   -1.3468    0.9592    0.9422 H   0  0  0  0  0  0  0  0  0  0  0  0
   -1.2488    0.7293   -0.8660 H   0  0  0  0  0  0  0  0  0  0  0  0
   -0.1266   -1.5463    1.0480 H   0  0  0  0  0  0  0  0  0  0  0  0
    0.8805    0.1162   -0.5020 H   0  0  0  0  0  0  0  0  0  0  0  0
   -0.5381   -0.7892   -0.5241 H   0  0  0  0  0  0  0  0  0  0  0  0
  1  5  1  0  0  0  0
  2  6  1  0  0  0  0
  2  1  1  0  0  0  0
  2  8  1  0  0  0  0
  3  1  1  0  0  0  0
  4  1  1  0  0  0  0
  6 10  1  0  0  0  0
  7  2  1  0  0  0  0
  9 12  1  0  0  0  0
 11  6  1  0  0  0  0
 13  9  1  0  0  0  0
 14  9  1  0  0  0  0
M  RAD  2   6   2   9   2
M  END
$$$$
