14
butane_opt
C  -3.993120   0.312578   0.184836
C  -2.674926  -0.691976  -0.137847
H  -4.749374  -0.138034   0.403563
H  -4.419118   0.831738  -0.590774
H  -3.832987   0.941795   1.022618
C  -1.402322   0.168784  -0.162990
H  -2.854196  -1.440114  -1.049847
H  -2.333005  -1.402121   0.599603
C  -0.201955  -0.635487   0.228921
H  -1.522052   0.472198   0.388799
H  -0.972597   1.114086  -1.316437
H  -0.345873  -0.944124   0.931770
H   0.838621  -0.103069   0.531835
H   0.379848  -1.613212  -0.898770
