butane_opt
 OpenBabel08242015393D

 14 10  0  0  0  0  0  0  0  0999 V2000
   -4.0171    0.3076   -0.0605 C   0  0  0  0  0  0  0  0  0  0  0  0
   -2.6645   -0.7170    0.2297 C   0  0  0  0  0  0  0  0  0  0  0  0
   -4.7677   -0.1306   -0.0287 H   0  0  0  0  0  0  0  0  0  0  0  0
   -3.9407    1.2730   -1.2230 H   0  0  0  0  0  0  0  0  0  0  0  0
   -4.5511    0.5659    0.4409 H   0  0  0  0  0  0  0  0  0  0  0  0
   -1.3323    0.1371    0.0546 C   0  0  0  0  0  0  0  0  0  0  0  0
   -2.6858   -1.1624   -0.4325 H   0  0  0  0  0  0  0  0  0  0  0  0
   -2.5532   -1.3870    0.9857 H   0  0  0  0  0  0  0  0  0  0  0  0
   -0.1764   -0.6168   -0.0673 C   0  0  0  0  0  1  0  0  0  0  0  0
   -1.1891    0.8537    0.9674 H   0  0  0  0  0  0  0  0  0  0  0  0
   -1.5799    0.9044   -0.8525 H   0  0  0  0  0  0  0  0  0  0  0  0
   -0.2086   -0.4885    0.2670 H   0  0  0  0  0  0  0  0  0  0  0  0
    0.7052   -0.2412    0.8531 H   0  0  0  0  0  0  0  0  0  0  0  0
    0.0165   -2.0077   -1.4969 H   0  0  0  0  0  0  0  0  0  0  0  0
  1  3  1  0  0  0  0
  1  2  1  0  0  0  0
  1  5  1  0  0  0  0
  2  8  1  0  0  0  0
  4  1  1  0  0  0  0
  6 12  1  0  0  0  0
  6 10  1  0  0  0  0
  7  2  1  0  0  0  0
  9 13  1  0  0  0  0
 11  6  1  0  0  0  0
M  RAD  3   2   2   6   2  14   2
M  END
$$$$
