butane_opt
 OpenBabel08242015393D

 14 10  0  0  0  0  0  0  0  0999 V2000
   -3.8911    0.2243   -0.1568 C   0  0  0  0  0  1  0  0  0  0  0  0
   -2.7046   -0.5737    0.1158 C   0  0  0  0  0  0  0  0  0  0  0  0
   -4.8807   -0.6560    0.9064 H   0  0  0  0  0  0  0  0  0  0  0  0
   -4.2397    1.3862   -1.4410 H   0  0  0  0  0  0  0  0  0  0  0  0
   -3.3480    0.2334    0.2156 H   0  0  0  0  0  0  0  0  0  0  0  0
   -1.4899    0.2602    0.2332 C   0  0  0  0  0  0  0  0  0  0  0  0
   -2.6419   -1.0946   -0.7231 H   0  0  0  0  0  0  0  0  0  0  0  0
   -2.7390   -1.2583    1.1008 H   0  0  0  0  0  0  0  0  0  0  0  0
   -0.1398   -0.7590   -0.0978 C   0  0  0  0  0  0  0  0  0  0  0  0
   -1.2366    1.3187    1.2797 H   0  0  0  0  0  0  0  0  0  0  0  0
   -1.5242    0.7535   -0.5887 H   0  0  0  0  0  0  0  0  0  0  0  0
   -0.0306   -1.0641    0.5932 H   0  0  0  0  0  0  0  0  0  0  0  0
    0.5988   -0.3055   -0.0521 H   0  0  0  0  0  0  0  0  0  0  0  0
   -0.2228   -1.6506   -1.0750 H   0  0  0  0  0  0  0  0  0  0  0  0
  1  5  1  0  0  0  0
  2  6  1  0  0  0  0
  2  8  1  0  0  0  0
  6 10  1  0  0  0  0
  7  2  1  0  0  0  0
  9 13  1  0  0  0  0
  9  6  1  0  0  0  0
  9 12  1  0  0  0  0
 11  6  1  0  0  0  0
 14  9  1  0  0  0  0
M  RAD  3   2   2   3   2   4   2
M  END
$$$$
