butane_opt
 OpenBabel08242015393D

 14 11  0  0  0  0  0  0  0  0999 V2000
   -4.0146    0.1963    0.1557 C   0  0  0  0  0  0  0  0  0  0  0  0
   -2.7134   -0.5373   -0.1793 C   0  0  0  0  0  0  0  0  0  0  0  0
   -5.0886   -0.4782    0.0608 H   0  0  0  0  0  0  0  0  0  0  0  0
   -3.9946    0.5238   -0.4509 H   0  0  0  0  0  0  0  0  0  0  0  0
   -3.7577    1.0355    1.2182 H   0  0  0  0  0  0  0  0  0  0  0  0
   -1.4478    0.2726   -0.0671 C   0  0  0  0  0  0  0  0  0  0  0  0
   -2.8628   -1.3685   -1.2002 H   0  0  0  0  0  0  0  0  0  0  0  0
   -2.4989   -0.8878    0.5796 H   0  0  0  0  0  0  0  0  0  0  0  0
   -0.0606   -0.7351    0.1562 C   0  0  0  0  0  0  0  0  0  0  0  0
   -1.2991    0.8163    0.6438 H   0  0  0  0  0  0  0  0  0  0  0  0
   -1.3404    0.8085   -0.9690 H   0  0  0  0  0  0  0  0  0  0  0  0
   -0.1241   -2.1946    1.7481 H   0  0  0  0  0  0  0  0  0  0  0  0
    0.7597   -0.3168   -0.6348 H   0  0  0  0  0  0  0  0  0  0  0  0
    0.0587   -0.8028   -0.2662 H   0  0  0  0  0  0  0  0  0  0  0  0
  1  5  1  0  0  0  0
  2  6  1  0  0  0  0
  2  1  1  0  0  0  0
  2  8  1  0  0  0  0
  3  1  1  0  0  0  0
  4  1  1  0  0  0  0
  6  9  1  0  0  0  0
  6 10  1  0  0  0  0
  7  2  1  0  0  0  0
 11  6  1  0  0  0  0
 13  9  1  0  0  0  0
M  RAD  3   9   3  12   2  14   2
M  END
$$$$
