butane_opt
 OpenBabel08242015393D

 14 10  0  0  0  0  0  0  0  0999 V2000
   -3.8904    0.2460   -0.1047 C   0  0  0  0  0  0  0  0  0  0  0  0
   -2.7138   -0.5296    0.1929 C   0  0  0  0  0  0  0  0  0  0  0  0
   -5.0742   -0.6713    0.2058 H   0  0  0  0  0  0  0  0  0  0  0  0
   -3.8256    1.0880   -1.2307 H   0  0  0  0  0  0  0  0  0  0  0  0
   -3.8517    0.5822    0.5120 H   0  0  0  0  0  0  0  0  0  0  0  0
   -1.4670    0.2063    0.1036 C   0  0  0  0  0  0  0  0  0  0  0  0
   -2.4894   -1.3642   -0.7440 H   0  0  0  0  0  0  0  0  0  0  0  0
   -2.6414   -1.4084    1.2139 H   0  0  0  0  0  0  0  0  0  0  0  0
   -0.1523   -0.7082   -0.0596 C   0  0  0  0  0  0  0  0  0  0  0  0
   -1.1555    0.9182    1.0064 H   0  0  0  0  0  0  0  0  0  0  0  0
   -1.7692    0.8386   -0.5983 H   0  0  0  0  0  0  0  0  0  0  0  0
   -0.2957   -0.9861    0.4657 H   0  0  0  0  0  0  0  0  0  0  0  0
    0.7332   -0.1091    0.1744 H   0  0  0  0  0  0  0  0  0  0  0  0
    0.0627   -1.9524   -1.2206 H   0  0  0  0  0  0  0  0  0  0  0  0
  1  2  1  0  0  0  0
  1  5  1  0  0  0  0
  2  8  1  0  0  0  0
  4  1  1  0  0  0  0
  6  2  1  0  0  0  0
  6 10  1  0  0  0  0
  7  2  1  0  0  0  0
  9  6  1  0  0  0  0
  9 13  1  0  0  0  0
 11  6  1  0  0  0  0
M  RAD  5   1   2   3   2   9   3  12   2  14   2
M  END
$$$$
