butane_opt
 OpenBabel08242015393D

 14 12  0  0  0  0  0  0  0  0999 V2000
   -3.8495    0.2988    0.0272 C   0  0  0  0  0  0  0  0  0  0  0  0
   -2.6562   -0.6297    0.0574 C   0  0  0  0  0  0  0  0  0  0  0  0
   -5.0138   -0.3551   -0.2429 H   0  0  0  0  0  0  0  0  0  0  0  0
   -3.7692    0.5792   -0.6110 H   0  0  0  0  0  0  0  0  0  0  0  0
   -4.2590    1.3368    1.2027 H   0  0  0  0  0  0  0  0  0  0  0  0
   -1.4466    0.1306   -0.0437 C   0  0  0  0  0  0  0  0  0  0  0  0
   -2.6424   -1.5277   -0.8704 H   0  0  0  0  0  0  0  0  0  0  0  0
   -2.6807   -1.1339    0.9003 H   0  0  0  0  0  0  0  0  0  0  0  0
   -0.2407   -0.6411    0.0651 C   0  0  0  0  0  0  0  0  0  0  0  0
   -1.3424    0.6068    0.6095 H   0  0  0  0  0  0  0  0  0  0  0  0
   -1.2313    0.8350   -0.9374 H   0  0  0  0  0  0  0  0  0  0  0  0
   -0.1666   -1.4738    1.0455 H   0  0  0  0  0  0  0  0  0  0  0  0
    0.6298   -0.0571   -0.1323 H   0  0  0  0  0  0  0  0  0  0  0  0
   -0.2130   -1.2075   -0.7324 H   0  0  0  0  0  0  0  0  0  0  0  0
  1  2  1  0  0  0  0
  2  8  1  0  0  0  0
  3  1  1  0  0  0  0
  4  1  1  0  0  0  0
  6  2  1  0  0  0  0
  6  9  1  0  0  0  0
  6 10  1  0  0  0  0
  7  2  1  0  0  0  0
  9 12  1  0  0  0  0
 11  6  1  0  0  0  0
 13  9  1  0  0  0  0
 14  9  1  0  0  0  0
M  RAD  2   1   2   5   2
M  END
$$$$
