butane_opt
 OpenBabel08242015393D

 14 10  0  0  0  0  0  0  0  0999 V2000
   -4.0560    0.2536    0.1096 C   0  0  0  0  0  0  0  0  0  0  0  0
   -2.7321   -0.6384   -0.0201 C   0  0  0  0  0  0  0  0  0  0  0  0
   -4.7765   -0.2341   -0.0765 H   0  0  0  0  0  0  0  0  0  0  0  0
   -4.0263    0.7872   -0.6809 H   0  0  0  0  0  0  0  0  0  0  0  0
   -4.0091    1.3050    1.1337 H   0  0  0  0  0  0  0  0  0  0  0  0
   -1.3689    0.1720   -0.0670 C   0  0  0  0  0  0  0  0  0  0  0  0
   -2.6809   -1.8044   -1.2385 H   0  0  0  0  0  0  0  0  0  0  0  0
   -2.5262   -0.8788    0.6193 H   0  0  0  0  0  0  0  0  0  0  0  0
   -0.0676   -0.7098    0.1054 C   0  0  0  0  0  0  0  0  0  0  0  0
   -1.5217    0.8288    0.6997 H   0  0  0  0  0  0  0  0  0  0  0  0
   -1.3053    0.8881   -1.1615 H   0  0  0  0  0  0  0  0  0  0  0  0
   -0.0586   -1.6947    1.2500 H   0  0  0  0  0  0  0  0  0  0  0  0
    0.8116    0.0262   -0.2075 H   0  0  0  0  0  0  0  0  0  0  0  0
   -0.2318   -0.6017   -0.3369 H   0  0  0  0  0  0  0  0  0  0  0  0
  1  5  1  0  0  0  0
  2  1  1  0  0  0  0
  2  8  1  0  0  0  0
  3  1  1  0  0  0  0
  4  1  1  0  0  0  0
  6 10  1  0  0  0  0
  9 12  1  0  0  0  0
 11  6  1  0  0  0  0
 13  9  1  0  0  0  0
 14  6  1  0  0  0  0
M  RAD  4   2   3   6   2   7   2   9   3
M  END
$$$$
