butane_opt
 OpenBabel08242015393D

 14 13  0  0  0  0  0  0  0  0999 V2000
   -3.9604    0.3041   -0.1666 C   0  0  0  0  0  0  0  0  0  0  0  0
   -2.6094   -0.6473    0.3109 C   0  0  0  0  0  0  0  0  0  0  0  0
   -4.7336   -0.1723   -0.6071 H   0  0  0  0  0  0  0  0  0  0  0  0
   -3.6883    1.0507   -1.2330 H   0  0  0  0  0  0  0  0  0  0  0  0
   -4.1676    1.1092    0.7780 H   0  0  0  0  0  0  0  0  0  0  0  0
   -1.4353    0.0316    0.1679 C   0  0  0  0  0  0  0  0  0  0  0  0
   -2.5072   -1.3792   -0.5008 H   0  0  0  0  0  0  0  0  0  0  0  0
   -2.9935   -1.2993    1.3296 H   0  0  0  0  0  0  0  0  0  0  0  0
   -0.1937   -0.6154   -0.1716 C   0  0  0  0  0  0  0  0  0  0  0  0
   -1.1493    0.9330    1.0764 H   0  0  0  0  0  0  0  0  0  0  0  0
   -1.7160    0.6063   -0.5435 H   0  0  0  0  0  0  0  0  0  0  0  0
   -0.1811   -0.9859    0.7614 H   0  0  0  0  0  0  0  0  0  0  0  0
    0.8972    0.1983   -0.1683 H   0  0  0  0  0  0  0  0  0  0  0  0
   -0.4483   -1.3785   -1.1532 H   0  0  0  0  0  0  0  0  0  0  0  0
  1  2  1  0  0  0  0
  1  5  1  0  0  0  0
  2  8  1  0  0  0  0
  3  1  1  0  0  0  0
  4  1  1  0  0  0  0
  6  2  1  0  0  0  0
  6 10  1  0  0  0  0
  7  2  1  0  0  0  0
  9 13  1  0  0  0  0
  9  6  1  0  0  0  0
  9 12  1  0  0  0  0
 11  6  1  0  0  0  0
 14  9  1  0  0  0  0
M  END
$$$$
