14
butane_opt
C  -4.012957   0.309293   0.082300
C  -2.735335  -0.664774   0.040808
H  -4.996269  -0.313501  -0.483345
H  -4.030965   0.550192  -0.620042
H  -4.134196   1.384361   1.210177
C  -1.354971   0.175533  -0.100268
H  -2.762704  -1.490215  -0.837585
H  -2.646395  -1.267051   0.824317
C  -0.065210  -0.670381   0.123972
H  -1.609296   0.552055   0.572599
H  -1.302004   0.946735  -1.071765
H  -0.136285  -1.323262   1.023646
H   0.794219   0.033433  -0.019801
H  -0.187929  -1.341938  -0.906650
