14
butane_opt
C  -3.919827   0.315262   0.027591
C  -2.645257  -0.689844  -0.050185
H  -4.763060  -0.189798   0.061627
H  -3.959397   0.837393  -0.735279
H  -4.037326   1.253953   1.076297
C  -1.391010   0.079205   0.043152
H  -2.784444  -1.303077  -1.012769
H  -2.513656  -1.448895   0.917422
C  -0.246903  -0.613095   0.072482
H  -1.530058   0.833818   0.937428
H  -1.357236   0.763894  -0.941587
H   0.153281  -1.499805   1.140112
H   0.577887  -0.051904  -0.477810
H  -0.411739  -0.744751  -0.581155
