14
butane_opt
C  -3.969090   0.354197   0.213149
C  -2.669263  -0.679977  -0.097488
H  -4.764826  -0.186604   0.091568
H  -3.963936   0.792374  -0.600416
H  -3.808967   0.992616   1.251581
C  -1.344354   0.056511  -0.274200
H  -2.899828  -1.406728  -0.961017
H  -2.320586  -1.025287   0.570999
C  -0.238693  -0.612627   0.239413
H  -1.369088   0.448585   0.526121
H  -1.304484   0.962937  -1.447253
H  -0.608508  -0.900586   0.936016
H   0.642365   0.003697   0.886496
H  -0.025371  -1.553683  -0.799513
