butane_opt
 OpenBabel08242015393D

 14 10  0  0  0  0  0  0  0  0999 V2000
   -3.9408    0.3182    0.1561 C   0  0  0  0  0  0  0  0  0  0  0  0
   -2.6623   -0.6163   -0.0351 C   0  0  0  0  0  0  0  0  0  0  0  0
   -4.8216   -0.2380   -0.1847 H   0  0  0  0  0  0  0  0  0  0  0  0
   -3.6216    0.4754   -0.6353 H   0  0  0  0  0  0  0  0  0  0  0  0
   -4.0316    1.5128    1.4022 H   0  0  0  0  0  0  0  0  0  0  0  0
   -1.4105    0.0938   -0.1510 C   0  0  0  0  0  0  0  0  0  0  0  0
   -2.8566   -1.6845   -1.1554 H   0  0  0  0  0  0  0  0  0  0  0  0
   -2.4215   -1.2430    0.6493 H   0  0  0  0  0  0  0  0  0  0  0  0
   -0.2569   -0.6293    0.1505 C   0  0  0  0  0  0  0  0  0  0  0  0
   -1.1075    0.3585    0.4513 H   0  0  0  0  0  0  0  0  0  0  0  0
   -1.2464    1.0142   -1.3438 H   0  0  0  0  0  0  0  0  0  0  0  0
   -0.5053   -1.4311    1.2122 H   0  0  0  0  0  0  0  0  0  0  0  0
    0.7460    0.0286    0.2973 H   0  0  0  0  0  0  0  0  0  0  0  0
    0.0377   -1.2038   -0.6020 H   0  0  0  0  0  0  0  0  0  0  0  0
  2  1  1  0  0  0  0
  2  8  1  0  0  0  0
  3  1  1  0  0  0  0
  4  1  1  0  0  0  0
  6  2  1  0  0  0  0
  6 10  1  0  0  0  0
  9 13  1  0  0  0  0
  9 12  1  0  0  0  0
 11  6  1  0  0  0  0
 14  9  1  0  0  0  0
M  RAD  6   1   2   2   2   5   2   6   2   7   2   9   2
M  END
$$$$
