butane_opt
 OpenBabel08242015393D

 14 12  0  0  0  0  0  0  0  0999 V2000
   -3.9000    0.2254   -0.0686 C   0  0  0  0  0  0  0  0  0  0  0  0
   -2.6888   -0.5559    0.1351 C   0  0  0  0  0  0  0  0  0  0  0  0
   -4.9533   -0.5414   -0.1266 H   0  0  0  0  0  0  0  0  0  0  0  0
   -3.7397    0.7151   -1.0544 H   0  0  0  0  0  0  0  0  0  0  0  0
   -4.1368    0.7795    0.5935 H   0  0  0  0  0  0  0  0  0  0  0  0
   -1.4362    0.2673    0.1558 C   0  0  0  0  0  0  0  0  0  0  0  0
   -2.8280   -1.3155   -0.8136 H   0  0  0  0  0  0  0  0  0  0  0  0
   -2.8479   -0.8911    0.9465 H   0  0  0  0  0  0  0  0  0  0  0  0
   -0.1409   -0.7534   -0.0524 C   0  0  0  0  0  0  0  0  0  0  0  0
   -1.5860    1.0632    1.0203 H   0  0  0  0  0  0  0  0  0  0  0  0
   -1.4694    0.6410   -0.5840 H   0  0  0  0  0  0  0  0  0  0  0  0
    0.1299   -1.8171    1.0073 H   0  0  0  0  0  0  0  0  0  0  0  0
    0.8475   -0.0753   -0.8620 H   0  0  0  0  0  0  0  0  0  0  0  0
   -0.4185   -1.2383   -0.7208 H   0  0  0  0  0  0  0  0  0  0  0  0
  1  2  1  0  0  0  0
  1  5  1  0  0  0  0
  2  6  1  0  0  0  0
  2  8  1  0  0  0  0
  3  1  1  0  0  0  0
  4  1  1  0  0  0  0
  6 10  1  0  0  0  0
  7  2  1  0  0  0  0
  9  6  1  0  0  0  0
 11  6  1  0  0  0  0
 13  9  1  0  0  0  0
 14  9  1  0  0  0  0
M  RAD  2   9   2  12   2
M  END
$$$$
