14
butane_opt
C  -3.900922   0.212396   0.043484
C  -2.671403  -0.549555  -0.064929
H  -5.099815  -0.530013   0.013573
H  -3.818301   0.599235  -0.714686
H  -3.911479   1.342119   1.087802
C  -1.428216   0.221892   0.047563
H  -2.651826  -1.170838  -0.964739
H  -2.458832  -1.194961   0.676067
C  -0.210798  -0.748992   0.044691
H  -1.359422   0.850227   0.906870
H  -1.581633   0.629387  -0.742616
H  -0.028327  -2.053673   1.360825
H   0.807326   0.043099  -0.704436
H  -0.343554  -0.610346  -0.200699
