14
butane_opt
C  -3.906498   0.336332  -0.174660
C  -2.643663  -0.695203   0.277458
H  -4.817106  -0.238600  -0.741700
H  -3.726793   0.508915  -0.831513
H  -4.379857   1.279949   0.792580
C  -1.429493   0.141542   0.135626
H  -2.453935  -1.185900  -0.322931
H  -2.492625  -1.798498   1.383929
C  -0.252907  -0.633637  -0.137996
H  -1.281869   1.053759   1.226236
H  -1.402926   0.637659  -0.582151
H   0.065963  -1.331490   0.769228
H   0.794259   0.134417  -0.185502
H  -0.575204  -1.312275  -1.249687
