butane_opt
 OpenBabel08242015393D

 14 13  0  0  0  0  0  0  0  0999 V2000
   -3.9432    0.2702   -0.0163 C   0  0  0  0  0  0  0  0  0  0  0  0
   -2.7021   -0.6290    0.0626 C   0  0  0  0  0  0  0  0  0  0  0  0
   -4.8222   -0.2817   -0.0162 H   0  0  0  0  0  0  0  0  0  0  0  0
   -4.0048    0.9243   -0.9008 H   0  0  0  0  0  0  0  0  0  0  0  0
   -4.0114    0.8987    0.7963 H   0  0  0  0  0  0  0  0  0  0  0  0
   -1.4019    0.1779    0.0590 C   0  0  0  0  0  0  0  0  0  0  0  0
   -2.6393   -1.2998   -0.7713 H   0  0  0  0  0  0  0  0  0  0  0  0
   -2.7687   -1.2820    0.9863 H   0  0  0  0  0  0  0  0  0  0  0  0
   -0.1572   -0.6801   -0.0041 C   0  0  0  0  0  0  0  0  0  0  0  0
   -1.3632    0.9132    0.9797 H   0  0  0  0  0  0  0  0  0  0  0  0
   -1.4322    0.7639   -0.7947 H   0  0  0  0  0  0  0  0  0  0  0  0
   -0.0473   -1.3803    0.9347 H   0  0  0  0  0  0  0  0  0  0  0  0
    0.7417   -0.0992   -0.1502 H   0  0  0  0  0  0  0  0  0  0  0  0
   -0.2291   -1.2896   -0.8360 H   0  0  0  0  0  0  0  0  0  0  0  0
  1  3  1  0  0  0  0
  1  2  1  0  0  0  0
  1  5  1  0  0  0  0
  2  8  1  0  0  0  0
  4  1  1  0  0  0  0
  6  2  1  0  0  0  0
  6 10  1  0  0  0  0
  7  2  1  0  0  0  0
  9  6  1  0  0  0  0
  9 12  1  0  0  0  0
 11  6  1  0  0  0  0
 13  9  1  0  0  0  0
 14  9  1  0  0  0  0
M  END
$$$$
