14
butane_opt
C  -3.832193   0.220920   0.125132
C  -2.697171  -0.519569   0.044027
H  -4.814679  -0.598440  -0.915078
H  -3.589748   0.027533  -0.369253
H  -4.011317   1.527367   1.361014
C  -1.455605   0.251518  -0.180673
H  -3.051522  -1.272453  -0.867191
H  -2.686818  -1.221510   0.866638
C  -0.191890  -0.723886   0.110292
H  -1.695915   0.826404   0.565676
H  -1.318822   0.716363  -0.989634
H  -0.172157  -1.709290   1.353773
H   0.457293  -0.482511  -0.088633
H   0.010332  -1.065276  -0.598642
