butane_opt
 OpenBabel08242015393D

 14 12  0  0  0  0  0  0  0  0999 V2000
   -3.8985    0.3297   -0.1571 C   0  0  0  0  0  0  0  0  0  0  0  0
   -2.6858   -0.7317    0.1366 C   0  0  0  0  0  0  0  0  0  0  0  0
   -4.8041   -0.1666   -0.0264 H   0  0  0  0  0  0  0  0  0  0  0  0
   -4.0327    1.1838   -1.1327 H   0  0  0  0  0  0  0  0  0  0  0  0
   -4.1808    0.9006    0.5698 H   0  0  0  0  0  0  0  0  0  0  0  0
   -1.4100    0.1184    0.2749 C   0  0  0  0  0  0  0  0  0  0  0  0
   -2.4172   -1.1723   -0.5714 H   0  0  0  0  0  0  0  0  0  0  0  0
   -2.7127   -1.5590    1.1800 H   0  0  0  0  0  0  0  0  0  0  0  0
   -0.1921   -0.6441   -0.1360 C   0  0  0  0  0  0  0  0  0  0  0  0
   -1.5357    1.1050    1.4252 H   0  0  0  0  0  0  0  0  0  0  0  0
   -1.3904    0.5347   -0.4649 H   0  0  0  0  0  0  0  0  0  0  0  0
   -0.0238   -1.3851    0.8170 H   0  0  0  0  0  0  0  0  0  0  0  0
    0.8525    0.0615   -0.8952 H   0  0  0  0  0  0  0  0  0  0  0  0
   -0.5594   -0.8146   -0.9142 H   0  0  0  0  0  0  0  0  0  0  0  0
  1  3  1  0  0  0  0
  1  2  1  0  0  0  0
  1  5  1  0  0  0  0
  2  6  1  0  0  0  0
  2  8  1  0  0  0  0
  4  1  1  0  0  0  0
  7  2  1  0  0  0  0
  9  6  1  0  0  0  0
  9 12  1  0  0  0  0
 11  6  1  0  0  0  0
 13  9  1  0  0  0  0
 14  9  1  0  0  0  0
M  RAD  2   6   2  10   2
M  END
$$$$
