butane_opt
 OpenBabel08242015393D

 14 12  0  0  0  0  0  0  0  0999 V2000
   -4.0130    0.3093    0.0823 C   0  0  0  0  0  0  0  0  0  0  0  0
   -2.7353   -0.6648    0.0408 C   0  0  0  0  0  0  0  0  0  0  0  0
   -4.9963   -0.3135   -0.4833 H   0  0  0  0  0  0  0  0  0  0  0  0
   -4.0310    0.5502   -0.6200 H   0  0  0  0  0  0  0  0  0  0  0  0
   -4.1342    1.3844    1.2102 H   0  0  0  0  0  0  0  0  0  0  0  0
   -1.3550    0.1755   -0.1003 C   0  0  0  0  0  0  0  0  0  0  0  0
   -2.7627   -1.4902   -0.8376 H   0  0  0  0  0  0  0  0  0  0  0  0
   -2.6464   -1.2671    0.8243 H   0  0  0  0  0  0  0  0  0  0  0  0
   -0.0652   -0.6704    0.1240 C   0  0  0  0  0  0  0  0  0  0  0  0
   -1.6093    0.5521    0.5726 H   0  0  0  0  0  0  0  0  0  0  0  0
   -1.3020    0.9467   -1.0718 H   0  0  0  0  0  0  0  0  0  0  0  0
   -0.1363   -1.3233    1.0236 H   0  0  0  0  0  0  0  0  0  0  0  0
    0.7942    0.0334   -0.0198 H   0  0  0  0  0  0  0  0  0  0  0  0
   -0.1879   -1.3419   -0.9066 H   0  0  0  0  0  0  0  0  0  0  0  0
  2  1  1  0  0  0  0
  2  8  1  0  0  0  0
  3  1  1  0  0  0  0
  4  1  1  0  0  0  0
  6  2  1  0  0  0  0
  6  9  1  0  0  0  0
  6 10  1  0  0  0  0
  7  2  1  0  0  0  0
  9 12  1  0  0  0  0
 11  6  1  0  0  0  0
 13  9  1  0  0  0  0
 14  9  1  0  0  0  0
M  RAD  2   1   2   5   2
M  END
$$$$
