butane_opt
 OpenBabel08242015393D

 14  9  0  0  0  0  0  0  0  0999 V2000
   -4.0121    0.2794    0.1343 C   0  0  0  0  0  0  0  0  0  0  0  0
   -2.7252   -0.6596   -0.0824 C   0  0  0  0  0  0  0  0  0  0  0  0
   -4.6703    0.0061   -0.1891 H   0  0  0  0  0  0  0  0  0  0  0  0
   -3.9620    0.6538   -0.6133 H   0  0  0  0  0  0  0  0  0  0  0  0
   -4.2564    1.3002    1.2813 H   0  0  0  0  0  0  0  0  0  0  0  0
   -1.3481    0.1449   -0.0669 C   0  0  0  0  0  0  0  0  0  0  0  0
   -2.8156   -1.5688   -1.1099 H   0  0  0  0  0  0  0  0  0  0  0  0
   -2.4268   -0.9553    0.5373 H   0  0  0  0  0  0  0  0  0  0  0  0
   -0.1538   -0.6478    0.1173 C   0  0  0  0  0  1  0  0  0  0  0  0
   -1.5614    0.7048    0.7074 H   0  0  0  0  0  0  0  0  0  0  0  0
   -1.1306    0.7131   -1.1205 H   0  0  0  0  0  0  0  0  0  0  0  0
    0.0586   -1.9598    1.5478 H   0  0  0  0  0  0  0  0  0  0  0  0
    1.0125    0.0528   -0.4409 H   0  0  0  0  0  0  0  0  0  0  0  0
   -0.4485   -0.7432   -0.2908 H   0  0  0  0  0  0  0  0  0  0  0  0
  2  1  1  0  0  0  0
  2  8  1  0  0  0  0
  3  1  1  0  0  0  0
  4  1  1  0  0  0  0
  6 10  1  0  0  0  0
  7  2  1  0  0  0  0
 11  6  1  0  0  0  0
 13  9  1  0  0  0  0
 14  6  1  0  0  0  0
M  RAD  5   1   2   2   2   5   2   6   2  12   2
M  END
$$$$
