14
butane_opt
C  -3.891124   0.224260  -0.156807
C  -2.704601  -0.573687   0.115796
H  -4.880669  -0.656024   0.906413
H  -4.239732   1.386233  -1.441016
H  -3.348013   0.233428   0.215620
C  -1.489890   0.260170   0.233242
H  -2.641873  -1.094551  -0.723105
H  -2.739045  -1.258319   1.100814
C  -0.139838  -0.758964  -0.097766
H  -1.236593   1.318682   1.279710
H  -1.524153   0.753500  -0.588712
H  -0.030619  -1.064138   0.593169
H   0.598768  -0.305501  -0.052132
H  -0.222835  -1.650581  -1.075014
