butane_opt
 OpenBabel08242015393D

 14 13  0  0  0  0  0  0  0  0999 V2000
   -3.8396    0.1933   -0.1092 C   0  0  0  0  0  0  0  0  0  0  0  0
   -2.6867   -0.5354    0.1288 C   0  0  0  0  0  0  0  0  0  0  0  0
   -5.0953   -0.5902   -0.0729 H   0  0  0  0  0  0  0  0  0  0  0  0
   -3.7104    1.0021   -1.2262 H   0  0  0  0  0  0  0  0  0  0  0  0
   -4.0151    0.6503    0.5145 H   0  0  0  0  0  0  0  0  0  0  0  0
   -1.4720    0.2728    0.2312 C   0  0  0  0  0  0  0  0  0  0  0  0
   -2.4483   -0.9576   -0.5071 H   0  0  0  0  0  0  0  0  0  0  0  0
   -2.9661   -1.3726    1.2065 H   0  0  0  0  0  0  0  0  0  0  0  0
   -0.1985   -0.7762   -0.1013 C   0  0  0  0  0  0  0  0  0  0  0  0
   -1.3202    1.3358    1.1884 H   0  0  0  0  0  0  0  0  0  0  0  0
   -1.2946    0.7224   -0.5452 H   0  0  0  0  0  0  0  0  0  0  0  0
    0.1992   -1.4488    0.7334 H   0  0  0  0  0  0  0  0  0  0  0  0
    0.5521   -0.2535   -0.7108 H   0  0  0  0  0  0  0  0  0  0  0  0
   -0.4729   -1.4944   -0.9631 H   0  0  0  0  0  0  0  0  0  0  0  0
  1  3  1  0  0  0  0
  1  2  1  0  0  0  0
  1  5  1  0  0  0  0
  2  6  1  0  0  0  0
  2  8  1  0  0  0  0
  4  1  1  0  0  0  0
  6 10  1  0  0  0  0
  7  2  1  0  0  0  0
  9  6  1  0  0  0  0
  9 12  1  0  0  0  0
 11  6  1  0  0  0  0
 13  9  1  0  0  0  0
 14  9  1  0  0  0  0
M  END
$$$$
