14
butane_opt
C  -3.952664   0.277964   0.047076
C  -2.705464  -0.636623  -0.001679
H  -4.818886  -0.251517   0.160950
H  -4.041112   0.941989  -0.872080
H  -3.926441   0.877496   0.889485
C  -1.390132   0.181064  -0.014734
H  -2.774238  -1.343316  -0.880660
H  -2.700065  -1.270286   0.882405
C  -0.157398  -0.684273   0.052178
H  -1.441103   0.893832   0.867231
H  -1.344432   0.790313  -0.914298
H  -0.175396  -1.341968   0.991946
H   0.769354  -0.091877   0.089899
H  -0.117669  -1.318450  -0.772678
