14
butane_opt
C  -3.928876   0.322494  -0.139243
C  -2.669315  -0.679162   0.191089
H  -4.594886  -0.133017   0.004033
H  -3.925577   1.204912  -1.286233
H  -4.138320   0.721719   0.379917
C  -1.349048   0.086961   0.210479
H  -2.502389  -1.174139  -0.515347
H  -2.819038  -1.485995   1.166393
C  -0.254764  -0.639660  -0.167373
H  -0.946829   1.151466   1.384842
H  -1.814095   0.651089  -0.434193
H  -0.165814  -1.307229   0.686403
H   0.758123   0.101470  -0.039349
H  -0.486540  -1.259743  -1.026426
