butane_opt
 OpenBabel08242015393D

 14 13  0  0  0  0  0  0  0  0999 V2000
   -3.9326    0.2552    0.0184 C   0  0  0  0  0  0  0  0  0  0  0  0
   -2.6947   -0.6000    0.0412 C   0  0  0  0  0  0  0  0  0  0  0  0
   -4.8651   -0.3634    0.0799 H   0  0  0  0  0  0  0  0  0  0  0  0
   -3.9724    0.8458   -0.8456 H   0  0  0  0  0  0  0  0  0  0  0  0
   -3.8905    0.9167    0.8833 H   0  0  0  0  0  0  0  0  0  0  0  0
   -1.4229    0.1968   -0.0027 C   0  0  0  0  0  0  0  0  0  0  0  0
   -2.7299   -1.2964   -0.8190 H   0  0  0  0  0  0  0  0  0  0  0  0
   -2.6827   -1.2449    0.9143 H   0  0  0  0  0  0  0  0  0  0  0  0
   -0.1680   -0.7043    0.0436 C   0  0  0  0  0  0  0  0  0  0  0  0
   -1.3976    0.7908    0.7972 H   0  0  0  0  0  0  0  0  0  0  0  0
   -1.3849    0.8707   -0.9233 H   0  0  0  0  0  0  0  0  0  0  0  0
   -0.1569   -1.1876    0.8753 H   0  0  0  0  0  0  0  0  0  0  0  0
    0.7237   -0.1214    0.1091 H   0  0  0  0  0  0  0  0  0  0  0  0
   -0.0474   -1.4575   -0.8521 H   0  0  0  0  0  0  0  0  0  0  0  0
  1  2  1  0  0  0  0
  1  3  1  0  0  0  0
  1  5  1  0  0  0  0
  2  8  1  0  0  0  0
  4  1  1  0  0  0  0
  6  2  1  0  0  0  0
  6  9  1  0  0  0  0
  6 10  1  0  0  0  0
  7  2  1  0  0  0  0
  9 13  1  0  0  0  0
  9 12  1  0  0  0  0
 11  6  1  0  0  0  0
 14  9  1  0  0  0  0
M  END
$$$$
