14
butane_opt
C  -4.012118   0.279394   0.134267
C  -2.725226  -0.659595  -0.082364
H  -4.670347   0.006088  -0.189091
H  -3.962031   0.653767  -0.613328
H  -4.256380   1.300169   1.281255
C  -1.348132   0.144913  -0.066859
H  -2.815557  -1.568829  -1.109891
H  -2.426753  -0.955348   0.537315
C  -0.153798  -0.647765   0.117266
H  -1.561376   0.704797   0.707398
H  -1.130588   0.713083  -1.120485
H   0.058593  -1.959806   1.547751
H   1.012492   0.052776  -0.440929
H  -0.448466  -0.743240  -0.290801
