butane_opt
 OpenBabel08242015393D

 14 12  0  0  0  0  0  0  0  0999 V2000
   -4.0415    0.3231   -0.1601 C   0  0  0  0  0  0  0  0  0  0  0  0
   -2.7195   -0.6758    0.1690 C   0  0  0  0  0  0  0  0  0  0  0  0
   -4.8416   -0.1572   -0.0826 H   0  0  0  0  0  0  0  0  0  0  0  0
   -3.7690    1.0626   -1.0436 H   0  0  0  0  0  0  0  0  0  0  0  0
   -4.2713    1.0568    0.7459 H   0  0  0  0  0  0  0  0  0  0  0  0
   -1.3444    0.0956    0.1846 C   0  0  0  0  0  0  0  0  0  0  0  0
   -2.2672   -1.1015   -0.5537 H   0  0  0  0  0  0  0  0  0  0  0  0
   -2.7854   -1.5890    1.2178 H   0  0  0  0  0  0  0  0  0  0  0  0
   -0.1619   -0.5934   -0.0988 C   0  0  0  0  0  0  0  0  0  0  0  0
   -1.2216    1.0124    1.1613 H   0  0  0  0  0  0  0  0  0  0  0  0
   -1.2192    0.2402   -0.2823 H   0  0  0  0  0  0  0  0  0  0  0  0
    0.3255   -1.4427    0.8930 H   0  0  0  0  0  0  0  0  0  0  0  0
    0.8408   -0.0288   -0.7638 H   0  0  0  0  0  0  0  0  0  0  0  0
   -0.6462   -1.2711   -0.9663 H   0  0  0  0  0  0  0  0  0  0  0  0
  1  3  1  0  0  0  0
  1  2  1  0  0  0  0
  1  5  1  0  0  0  0
  2  6  1  0  0  0  0
  2  8  1  0  0  0  0
  4  1  1  0  0  0  0
  6 10  1  0  0  0  0
  7  2  1  0  0  0  0
  9 12  1  0  0  0  0
 11  9  1  0  0  0  0
 13  9  1  0  0  0  0
 14  9  1  0  0  0  0
M  RAD  1   6   3
M  END
$$$$
