butane_opt
 OpenBabel08242015393D

 14 13  0  0  0  0  0  0  0  0999 V2000
   -3.9451    0.2677    0.0168 C   0  0  0  0  0  0  0  0  0  0  0  0
   -2.6816   -0.6252    0.0351 C   0  0  0  0  0  0  0  0  0  0  0  0
   -4.8098   -0.2714    0.0844 H   0  0  0  0  0  0  0  0  0  0  0  0
   -3.9986    0.9807   -0.9379 H   0  0  0  0  0  0  0  0  0  0  0  0
   -3.9367    0.8407    0.8097 H   0  0  0  0  0  0  0  0  0  0  0  0
   -1.4066    0.1786    0.0345 C   0  0  0  0  0  0  0  0  0  0  0  0
   -2.7597   -1.3611   -0.8514 H   0  0  0  0  0  0  0  0  0  0  0  0
   -2.6858   -1.2431    0.9014 H   0  0  0  0  0  0  0  0  0  0  0  0
   -0.1709   -0.6877    0.0258 C   0  0  0  0  0  0  0  0  0  0  0  0
   -1.3971    0.8842    0.8788 H   0  0  0  0  0  0  0  0  0  0  0  0
   -1.4156    0.8157   -0.8760 H   0  0  0  0  0  0  0  0  0  0  0  0
   -0.1486   -1.3151    0.9478 H   0  0  0  0  0  0  0  0  0  0  0  0
    0.7638   -0.0729   -0.0239 H   0  0  0  0  0  0  0  0  0  0  0  0
   -0.1947   -1.3187   -0.8506 H   0  0  0  0  0  0  0  0  0  0  0  0
  1  2  1  0  0  0  0
  1  3  1  0  0  0  0
  1  5  1  0  0  0  0
  2  8  1  0  0  0  0
  4  1  1  0  0  0  0
  6  2  1  0  0  0  0
  6 10  1  0  0  0  0
  7  2  1  0  0  0  0
  9  6  1  0  0  0  0
  9 12  1  0  0  0  0
 11  6  1  0  0  0  0
 13  9  1  0  0  0  0
 14  9  1  0  0  0  0
M  END
$$$$
