butane_opt
 OpenBabel08242015393D

 14 12  0  0  0  0  0  0  0  0999 V2000
   -3.8857    0.2718   -0.0935 C   0  0  0  0  0  0  0  0  0  0  0  0
   -2.7004   -0.6033    0.1726 C   0  0  0  0  0  0  0  0  0  0  0  0
   -4.7895   -0.3568    0.0137 H   0  0  0  0  0  0  0  0  0  0  0  0
   -3.6782    0.8390   -1.0233 H   0  0  0  0  0  0  0  0  0  0  0  0
   -4.1238    0.7985    0.6430 H   0  0  0  0  0  0  0  0  0  0  0  0
   -1.4401    0.2030    0.1266 C   0  0  0  0  0  0  0  0  0  0  0  0
   -2.4943   -1.6604   -0.9121 H   0  0  0  0  0  0  0  0  0  0  0  0
   -2.9737   -1.2119    1.0771 H   0  0  0  0  0  0  0  0  0  0  0  0
   -0.1716   -0.7132   -0.0817 C   0  0  0  0  0  0  0  0  0  0  0  0
   -1.4408    0.9500    1.0438 H   0  0  0  0  0  0  0  0  0  0  0  0
   -1.7402    0.8932   -0.5858 H   0  0  0  0  0  0  0  0  0  0  0  0
    0.1377   -1.3772    0.8239 H   0  0  0  0  0  0  0  0  0  0  0  0
    0.7647    0.0297   -0.3522 H   0  0  0  0  0  0  0  0  0  0  0  0
   -0.3323   -1.2433   -0.7318 H   0  0  0  0  0  0  0  0  0  0  0  0
  1  3  1  0  0  0  0
  1  2  1  0  0  0  0
  1  5  1  0  0  0  0
  2  8  1  0  0  0  0
  4  1  1  0  0  0  0
  6  2  1  0  0  0  0
  6 10  1  0  0  0  0
  9  6  1  0  0  0  0
  9 12  1  0  0  0  0
 11  6  1  0  0  0  0
 13  9  1  0  0  0  0
 14  9  1  0  0  0  0
M  RAD  2   2   2   7   2
M  END
$$$$
