butane_opt
 OpenBabel08242015393D

 14 11  0  0  0  0  0  0  0  0999 V2000
   -3.9240    0.2942    0.0086 C   0  0  0  0  0  0  0  0  0  0  0  0
   -2.6321   -0.7072    0.0304 C   0  0  0  0  0  0  0  0  0  0  0  0
   -4.6675   -0.0887    0.6390 H   0  0  0  0  0  0  0  0  0  0  0  0
   -4.3789    1.4850   -1.2580 H   0  0  0  0  0  0  0  0  0  0  0  0
   -3.8342    0.5348    0.4119 H   0  0  0  0  0  0  0  0  0  0  0  0
   -1.4531    0.1528    0.0570 C   0  0  0  0  0  0  0  0  0  0  0  0
   -2.5695   -1.6540   -1.0421 H   0  0  0  0  0  0  0  0  0  0  0  0
   -2.6885   -1.0711    0.9265 H   0  0  0  0  0  0  0  0  0  0  0  0
   -0.1966   -0.6310    0.0125 C   0  0  0  0  0  0  0  0  0  0  0  0
   -1.0729    0.9784    1.0340 H   0  0  0  0  0  0  0  0  0  0  0  0
   -1.5298    0.7032   -0.7685 H   0  0  0  0  0  0  0  0  0  0  0  0
   -0.2995   -1.3243    0.9601 H   0  0  0  0  0  0  0  0  0  0  0  0
    0.8901    0.1388    0.1958 H   0  0  0  0  0  0  0  0  0  0  0  0
   -0.4163   -1.4531   -0.9790 H   0  0  0  0  0  0  0  0  0  0  0  0
  1  2  1  0  0  0  0
  1  3  1  0  0  0  0
  2  6  1  0  0  0  0
  2  8  1  0  0  0  0
  6 10  1  0  0  0  0
  7  2  1  0  0  0  0
  9  6  1  0  0  0  0
  9 13  1  0  0  0  0
  9 12  1  0  0  0  0
 11  6  1  0  0  0  0
 14  9  1  0  0  0  0
M  RAD  3   1   3   4   2   5   2
M  END
$$$$
