14
butane_opt
C  -3.936174   0.293382   0.229255
C  -2.662336  -0.695142  -0.095940
H  -4.673596  -0.000616  -0.629067
H  -3.784882   0.543824  -0.383239
H  -4.226779   1.555568   1.351396
C  -1.396717   0.148995  -0.220442
H  -2.666800  -1.430772  -1.072094
H  -2.507756  -1.355390   0.798078
C  -0.242170  -0.644907   0.177357
H  -1.434922   0.739326   0.652752
H  -1.146489   0.827093  -1.254570
H  -0.502682  -1.602163   1.496185
H   0.915157   0.130448   0.012990
H  -0.187021  -1.082149  -0.551065
