butane_opt
 OpenBabel08242015393D

 14 12  0  0  0  0  0  0  0  0999 V2000
   -3.9206    0.1589    0.1457 C   0  0  0  0  0  0  0  0  0  0  0  0
   -2.7190   -0.5553   -0.0926 C   0  0  0  0  0  0  0  0  0  0  0  0
   -4.8769   -0.4495   -0.1441 H   0  0  0  0  0  0  0  0  0  0  0  0
   -3.8959    0.9057   -0.8851 H   0  0  0  0  0  0  0  0  0  0  0  0
   -4.1458    1.0994    1.1933 H   0  0  0  0  0  0  0  0  0  0  0  0
   -1.4231    0.2685   -0.0557 C   0  0  0  0  0  0  0  0  0  0  0  0
   -3.0339   -1.3721   -1.1673 H   0  0  0  0  0  0  0  0  0  0  0  0
   -2.5701   -1.0979    0.6925 H   0  0  0  0  0  0  0  0  0  0  0  0
   -0.0901   -0.7202    0.1296 C   0  0  0  0  0  0  0  0  0  0  0  0
   -1.5448    0.9449    0.8108 H   0  0  0  0  0  0  0  0  0  0  0  0
   -1.5662    1.0310   -1.0039 H   0  0  0  0  0  0  0  0  0  0  0  0
   -0.0400   -1.7765    1.3063 H   0  0  0  0  0  0  0  0  0  0  0  0
    0.6045   -0.3991   -0.4855 H   0  0  0  0  0  0  0  0  0  0  0  0
   -0.0504   -1.2035   -0.3867 H   0  0  0  0  0  0  0  0  0  0  0  0
  1  5  1  0  0  0  0
  2  6  1  0  0  0  0
  2  1  1  0  0  0  0
  2  8  1  0  0  0  0
  3  1  1  0  0  0  0
  4  1  1  0  0  0  0
  6  9  1  0  0  0  0
  6 10  1  0  0  0  0
  7  2  1  0  0  0  0
 11  6  1  0  0  0  0
 13  9  1  0  0  0  0
 14  9  1  0  0  0  0
M  RAD  2   9   2  12   2
M  END
$$$$
