butane_opt
 OpenBabel08242015393D

 14 10  0  0  0  0  0  0  0  0999 V2000
   -3.9377    0.2143   -0.0475 C   0  0  0  0  0  0  0  0  0  0  0  0
   -2.7826   -0.5310    0.0075 C   0  0  0  0  0  0  0  0  0  0  0  0
   -4.8211   -0.4394    0.6552 H   0  0  0  0  0  0  0  0  0  0  0  0
   -4.2644    1.4093   -1.2993 H   0  0  0  0  0  0  0  0  0  0  0  0
   -3.4176    0.4675    0.4388 H   0  0  0  0  0  0  0  0  0  0  0  0
   -1.3869    0.2061    0.1207 C   0  0  0  0  0  0  0  0  0  0  0  0
   -2.8017   -1.0579   -0.7441 H   0  0  0  0  0  0  0  0  0  0  0  0
   -2.9844   -1.2656    1.0418 H   0  0  0  0  0  0  0  0  0  0  0  0
   -0.0883   -0.7111   -0.0102 C   0  0  0  0  0  0  0  0  0  0  0  0
   -1.4637    0.9843    1.1581 H   0  0  0  0  0  0  0  0  0  0  0  0
   -1.7567    0.4772   -0.4771 H   0  0  0  0  0  0  0  0  0  0  0  0
    0.1295   -1.3442    0.8216 H   0  0  0  0  0  0  0  0  0  0  0  0
    0.8698   -0.2201   -0.1121 H   0  0  0  0  0  0  0  0  0  0  0  0
   -0.1945   -1.5731   -0.9514 H   0  0  0  0  0  0  0  0  0  0  0  0
  1  5  1  0  0  0  0
  1  3  1  0  0  0  0
  2  8  1  0  0  0  0
  6 10  1  0  0  0  0
  7  2  1  0  0  0  0
  9  6  1  0  0  0  0
  9 12  1  0  0  0  0
 11  6  1  0  0  0  0
 13  9  1  0  0  0  0
 14  9  1  0  0  0  0
M  RAD  4   1   3   2   3   4   2   6   2
M  END
$$$$
