butane_opt
 OpenBabel08242015393D

 14 10  0  0  0  0  0  0  0  0999 V2000
   -3.9238    0.2792   -0.1319 C   0  0  0  0  0  0  0  0  0  0  0  0
   -2.6464   -0.6844    0.2522 C   0  0  0  0  0  0  0  0  0  0  0  0
   -4.7696   -0.1779   -0.2647 H   0  0  0  0  0  0  0  0  0  0  0  0
   -3.8756    1.0246   -1.1181 H   0  0  0  0  0  0  0  0  0  0  0  0
   -4.2183    1.0656    0.5658 H   0  0  0  0  0  0  0  0  0  0  0  0
   -1.4093    0.1384    0.1171 C   0  0  0  0  0  0  0  0  0  0  0  0
   -2.3664   -1.0907   -0.4806 H   0  0  0  0  0  0  0  0  0  0  0  0
   -2.5709   -1.6228    1.4030 H   0  0  0  0  0  0  0  0  0  0  0  0
   -0.2007   -0.6633   -0.0754 C   0  0  0  0  0  1  0  0  0  0  0  0
   -1.3038    0.8742    1.0257 H   0  0  0  0  0  0  0  0  0  0  0  0
   -1.5274    0.8758   -0.7811 H   0  0  0  0  0  0  0  0  0  0  0  0
   -0.4185   -0.4395    0.2721 H   0  0  0  0  0  0  0  0  0  0  0  0
    0.7340   -0.0235    0.1652 H   0  0  0  0  0  0  0  0  0  0  0  0
   -0.4949   -1.8390   -1.3714 H   0  0  0  0  0  0  0  0  0  0  0  0
  1  2  1  0  0  0  0
  1  5  1  0  0  0  0
  2  8  1  0  0  0  0
  3  1  1  0  0  0  0
  4  1  1  0  0  0  0
  6 12  1  0  0  0  0
  6 10  1  0  0  0  0
  7  2  1  0  0  0  0
  9 13  1  0  0  0  0
 11  6  1  0  0  0  0
M  RAD  3   2   2   6   2  14   2
M  END
$$$$
