14
butane_opt
C  -3.974132   0.245075   0.150849
C  -2.726292  -0.595524  -0.029194
H  -4.965631  -0.388022  -0.802816
H  -4.009282   0.152560  -0.263360
H  -4.240727   1.653353   1.455759
C  -1.378163   0.184044  -0.165670
H  -3.181520  -1.251319  -0.850201
H  -2.676385  -0.924402   0.615967
C  -0.068303  -0.730797   0.194134
H  -1.579612   0.577463   0.339850
H  -1.228792   1.225758  -1.356550
H   0.084732  -1.551535   1.229254
H   0.810929   0.030895  -0.172193
H  -0.251648  -1.286298  -0.497254
