butane_opt
 OpenBabel08242015393D

 14 12  0  0  0  0  0  0  0  0999 V2000
   -3.9832    0.2600   -0.0678 C   0  0  0  0  0  0  0  0  0  0  0  0
   -2.7392   -0.6093    0.1545 C   0  0  0  0  0  0  0  0  0  0  0  0
   -4.8304   -0.3263   -0.0257 H   0  0  0  0  0  0  0  0  0  0  0  0
   -3.8683    1.0592   -1.0562 H   0  0  0  0  0  0  0  0  0  0  0  0
   -3.8890    0.6673    0.5706 H   0  0  0  0  0  0  0  0  0  0  0  0
   -1.4095    0.2178    0.0755 C   0  0  0  0  0  0  0  0  0  0  0  0
   -2.8399   -0.9468   -0.4648 H   0  0  0  0  0  0  0  0  0  0  0  0
   -3.0118   -1.3121    1.2254 H   0  0  0  0  0  0  0  0  0  0  0  0
   -0.0817   -0.7326   -0.0921 C   0  0  0  0  0  0  0  0  0  0  0  0
   -1.1416    0.9629    0.9799 H   0  0  0  0  0  0  0  0  0  0  0  0
   -1.7179    0.5888   -0.6110 H   0  0  0  0  0  0  0  0  0  0  0  0
   -0.3335   -1.1299    0.6871 H   0  0  0  0  0  0  0  0  0  0  0  0
    0.9319    0.0614    0.5467 H   0  0  0  0  0  0  0  0  0  0  0  0
    0.1948   -1.7319   -1.2938 H   0  0  0  0  0  0  0  0  0  0  0  0
  1  3  1  0  0  0  0
  1  2  1  0  0  0  0
  1  5  1  0  0  0  0
  2  8  1  0  0  0  0
  4  1  1  0  0  0  0
  6  2  1  0  0  0  0
  6 10  1  0  0  0  0
  7  2  1  0  0  0  0
  9  6  1  0  0  0  0
  9 13  1  0  0  0  0
  9 12  1  0  0  0  0
 11  6  1  0  0  0  0
M  RAD  2   9   2  14   2
M  END
$$$$
