14
butane_opt
C  -3.984279   0.194751  -0.102791
C  -2.728531  -0.528406   0.184695
H  -5.047950  -0.498387   0.119217
H  -3.988811   1.045967  -1.083444
H  -4.154493   0.646631   0.711569
C  -1.371234   0.223003   0.129018
H  -2.359393  -1.151171  -0.615960
H  -2.982673  -1.320273   1.176534
C  -0.106939  -0.738505  -0.079436
H  -1.293077   0.863873   0.863634
H  -1.552513   1.119634  -0.906569
H  -0.022965  -0.789109   0.338338
H   0.619157  -0.377053   0.429743
H   0.129128  -1.886012  -1.200704
