butane_opt
 OpenBabel08242015393D

 14 13  0  0  0  0  0  0  0  0999 V2000
   -3.9558    0.2826    0.0356 C   0  0  0  0  0  0  0  0  0  0  0  0
   -2.7098   -0.6353    0.0014 C   0  0  0  0  0  0  0  0  0  0  0  0
   -4.8550   -0.3020    0.1996 H   0  0  0  0  0  0  0  0  0  0  0  0
   -4.0815    0.8863   -0.8489 H   0  0  0  0  0  0  0  0  0  0  0  0
   -3.8886    0.9137    0.8774 H   0  0  0  0  0  0  0  0  0  0  0  0
   -1.3918    0.1807   -0.0102 C   0  0  0  0  0  0  0  0  0  0  0  0
   -2.7012   -1.3215   -0.8790 H   0  0  0  0  0  0  0  0  0  0  0  0
   -2.6788   -1.2642    0.8843 H   0  0  0  0  0  0  0  0  0  0  0  0
   -0.1540   -0.6815    0.0606 C   0  0  0  0  0  0  0  0  0  0  0  0
   -1.3622    0.8457    0.8405 H   0  0  0  0  0  0  0  0  0  0  0  0
   -1.3584    0.8053   -0.9003 H   0  0  0  0  0  0  0  0  0  0  0  0
   -0.1734   -1.3278    0.9596 H   0  0  0  0  0  0  0  0  0  0  0  0
    0.7400   -0.1057    0.0435 H   0  0  0  0  0  0  0  0  0  0  0  0
   -0.1300   -1.3541   -0.7813 H   0  0  0  0  0  0  0  0  0  0  0  0
  1  3  1  0  0  0  0
  1  5  1  0  0  0  0
  2  1  1  0  0  0  0
  2  8  1  0  0  0  0
  4  1  1  0  0  0  0
  6  2  1  0  0  0  0
  6  9  1  0  0  0  0
  6 10  1  0  0  0  0
  7  2  1  0  0  0  0
  9 12  1  0  0  0  0
 11  6  1  0  0  0  0
 13  9  1  0  0  0  0
 14  9  1  0  0  0  0
M  END
$$$$
