14
butane_opt
C  -3.846197   0.183355   0.025294
C  -2.707821  -0.548931   0.057043
H  -4.756442  -0.292190  -0.330347
H  -3.895693   0.179410  -0.516386
H  -3.914439   1.413091   1.268298
C  -1.440547   0.254373  -0.077172
H  -2.731695  -0.921142  -0.691060
H  -3.130632  -1.198686   0.919212
C  -0.152018  -0.754936   0.049631
H  -1.538698   0.931392   0.813831
H  -1.404358   0.914568  -1.073759
H  -0.192312  -1.535481   1.114174
H   0.561558  -0.364102   0.097968
H  -0.215303  -1.264533  -0.714748
