butane_opt
 OpenBabel08242015393D

 14 10  0  0  0  0  0  0  0  0999 V2000
   -3.8907    0.2164   -0.0976 C   0  0  0  0  0  1  0  0  0  0  0  0
   -2.7171   -0.5384    0.1120 C   0  0  0  0  0  0  0  0  0  0  0  0
   -4.7659   -0.4109    0.8024 H   0  0  0  0  0  0  0  0  0  0  0  0
   -4.0814    1.6227   -1.5109 H   0  0  0  0  0  0  0  0  0  0  0  0
   -3.6482    0.1164    0.1317 H   0  0  0  0  0  0  0  0  0  0  0  0
   -1.4687    0.1870    0.1953 C   0  0  0  0  0  0  0  0  0  0  0  0
   -2.5135   -1.1907   -0.7754 H   0  0  0  0  0  0  0  0  0  0  0  0
   -2.9102   -1.1890    1.1014 H   0  0  0  0  0  0  0  0  0  0  0  0
   -0.1493   -0.7366   -0.0803 C   0  0  0  0  0  0  0  0  0  0  0  0
   -1.5970    1.0593    1.0547 H   0  0  0  0  0  0  0  0  0  0  0  0
   -1.5133    0.4548   -0.4566 H   0  0  0  0  0  0  0  0  0  0  0  0
    0.2765   -0.8611    0.4920 H   0  0  0  0  0  0  0  0  0  0  0  0
    0.7882    0.0190    0.1049 H   0  0  0  0  0  0  0  0  0  0  0  0
   -0.3556   -1.6106   -1.1438 H   0  0  0  0  0  0  0  0  0  0  0  0
  1  3  1  0  0  0  0
  2  5  1  0  0  0  0
  2  8  1  0  0  0  0
  6 10  1  0  0  0  0
  7  2  1  0  0  0  0
  9 13  1  0  0  0  0
  9  6  1  0  0  0  0
  9 12  1  0  0  0  0
 11  6  1  0  0  0  0
 14  9  1  0  0  0  0
M  RAD  3   2   2   4   2   6   2
M  END
$$$$
