14
butane_opt
C  -3.983186   0.259991  -0.067770
C  -2.739162  -0.609283   0.154482
H  -4.830442  -0.326300  -0.025735
H  -3.868335   1.059246  -1.056160
H  -3.888984   0.667350   0.570550
C  -1.409524   0.217848   0.075476
H  -2.839879  -0.946800  -0.464810
H  -3.011783  -1.312114   1.225430
C  -0.081678  -0.732616  -0.092140
H  -1.141598   0.962879   0.979920
H  -1.717904   0.588784  -0.610961
H  -0.333477  -1.129856   0.687052
H   0.931923   0.061360   0.546740
H   0.194779  -1.731857  -1.293823
