14
butane_opt
C  -3.833617   0.273247  -0.099208
C  -2.682847  -0.580837   0.098409
H  -4.852334  -0.434318   0.924786
H  -4.029014   1.502315  -1.386392
H  -3.786303  -0.008269   0.166601
C  -1.455495   0.165819   0.128633
H  -2.646719  -1.149497  -0.690370
H  -2.926185  -1.304142   1.059484
C  -0.223256  -0.688048  -0.074305
H  -1.280148   1.473559   1.436252
H  -1.378087   0.458408  -0.373210
H  -0.096931  -1.189912   0.547323
H   0.562947  -0.249911   0.099328
H  -0.231536  -1.631782  -1.066773
