butane_opt
 OpenBabel08242015393D

 14  9  0  0  0  0  0  0  0  0999 V2000
   -3.9374    0.1929    0.1320 C   0  0  0  0  0  1  0  0  0  0  0  0
   -2.6835   -0.5963   -0.0484 C   0  0  0  0  0  0  0  0  0  0  0  0
   -4.8394   -0.4223   -0.4854 H   0  0  0  0  0  0  0  0  0  0  0  0
   -3.6376    0.1431   -0.2605 H   0  0  0  0  0  0  0  0  0  0  0  0
   -4.2363    1.6494    1.5867 H   0  0  0  0  0  0  0  0  0  0  0  0
   -1.4372    0.3102   -0.1737 C   0  0  0  0  0  0  0  0  0  0  0  0
   -3.0293   -1.4338   -0.9468 H   0  0  0  0  0  0  0  0  0  0  0  0
   -2.7105   -0.9239    0.6954 H   0  0  0  0  0  0  0  0  0  0  0  0
   -0.0835   -0.7565    0.1928 C   0  0  0  0  0  0  0  0  0  0  0  0
   -1.9151    0.6274    0.4991 H   0  0  0  0  0  0  0  0  0  0  0  0
   -1.2822    1.0810   -1.2952 H   0  0  0  0  0  0  0  0  0  0  0  0
   -0.0298   -1.6982    1.1876 H   0  0  0  0  0  0  0  0  0  0  0  0
    0.6882   -0.2974   -0.3297 H   0  0  0  0  0  0  0  0  0  0  0  0
   -0.2873   -1.0100   -0.3463 H   0  0  0  0  0  0  0  0  0  0  0  0
  2  8  1  0  0  0  0
  3  1  1  0  0  0  0
  4  2  1  0  0  0  0
  6  9  1  0  0  0  0
  6 10  1  0  0  0  0
  7  2  1  0  0  0  0
  9 12  1  0  0  0  0
 11  6  1  0  0  0  0
 13  9  1  0  0  0  0
M  RAD  5   2   2   5   2   6   2   9   2  14   2
M  END
$$$$
