14
butane_opt
C  -3.948768   0.294450  -0.149922
C  -2.635639  -0.717628   0.234449
H  -4.686841  -0.053115  -0.360043
H  -3.656339   0.761541  -0.973456
H  -4.439108   1.069973   0.658438
C  -1.383579   0.180685   0.166730
H  -2.494709  -0.954116  -0.293781
H  -2.829144  -1.617177   1.465264
C  -0.187301  -0.653828  -0.134570
H  -1.649560   0.877206   1.032661
H  -1.464867   0.690934  -0.688954
H  -0.232681  -0.867412   0.521037
H   0.748100  -0.035584   0.042462
H  -0.469642  -1.597927  -1.392145
