14
butane_opt
C  -3.954712   0.261099   0.154329
C  -2.665180  -0.674464  -0.175388
H  -4.678934  -0.114673   0.685553
H  -4.326560   1.226874  -0.842437
H  -3.674937   1.057544   1.037884
C  -1.403734   0.146663  -0.097816
H  -2.645834  -1.636130  -1.236503
H  -2.402356  -1.099771   0.495597
C  -0.195052  -0.661435   0.205277
H  -1.712938   0.695991   0.784764
H  -1.190165   0.869752  -1.093972
H  -0.125761  -1.490931   1.158374
H   0.834351   0.136779  -0.079655
H  -0.494222  -0.916666  -0.479122
