14
butane_opt
C  -3.973889   0.234151   0.090770
C  -2.716276  -0.550043   0.093055
H  -4.971110  -0.509802  -1.042438
H  -3.158182   0.315439  -0.546984
H  -4.145399   1.323881   1.116872
C  -1.424895   0.185567  -0.059720
H  -2.656274  -1.387456  -0.707744
H  -2.494991  -1.140092   0.926029
C  -0.147258  -0.733721   0.038858
H  -1.560885   0.858951   0.728655
H  -1.446055   1.145155  -1.155633
H  -0.054317  -1.410423   1.062794
H   0.663444  -0.180380  -0.153239
H  -0.068234  -1.165342  -0.706214
