butane_opt
 OpenBabel08242015393D

 14  9  0  0  0  0  0  0  0  0999 V2000
   -3.9390    0.2289    0.1681 C   0  0  0  0  0  0  0  0  0  0  0  0
   -2.7418   -0.5940   -0.1493 C   0  0  0  0  0  0  0  0  0  0  0  0
   -4.9509   -0.4381    0.1247 H   0  0  0  0  0  0  0  0  0  0  0  0
   -3.9314    0.5587   -0.5575 H   0  0  0  0  0  0  0  0  0  0  0  0
   -3.8804    0.9290    1.0439 H   0  0  0  0  0  0  0  0  0  0  0  0
   -1.4104    0.2744   -0.0720 C   0  0  0  0  0  0  0  0  0  0  0  0
   -2.7862   -1.6640   -1.2311 H   0  0  0  0  0  0  0  0  0  0  0  0
   -2.7334   -0.7239    0.4691 H   0  0  0  0  0  0  0  0  0  0  0  0
   -0.1030   -0.7170    0.2001 C   0  0  0  0  0  0  0  0  0  0  0  0
   -1.6196    0.8403    0.5895 H   0  0  0  0  0  0  0  0  0  0  0  0
   -1.3217    0.9837   -1.0382 H   0  0  0  0  0  0  0  0  0  0  0  0
    0.2480   -1.9966    1.5388 H   0  0  0  0  0  0  0  0  0  0  0  0
    0.4094   -0.5414   -0.7673 H   0  0  0  0  0  0  0  0  0  0  0  0
   -0.1012   -0.7783   -0.4151 H   0  0  0  0  0  0  0  0  0  0  0  0
  1  5  1  0  0  0  0
  2  6  1  0  0  0  0
  2  1  1  0  0  0  0
  3  1  1  0  0  0  0
  4  1  1  0  0  0  0
  6  9  1  0  0  0  0
  6 10  1  0  0  0  0
 11  6  1  0  0  0  0
 13  9  1  0  0  0  0
M  RAD  6   2   3   7   2   8   2   9   3  12   2  14   2
M  END
$$$$
