14
butane_opt
C  -4.019855   0.214114  -0.010650
C  -2.727749  -0.556610   0.043366
H  -4.977751  -0.373349  -0.229170
H  -3.932055   0.857779  -0.964522
H  -3.853466   0.811919   0.830241
C  -1.443183   0.230604   0.080776
H  -2.584535  -1.202502  -0.673188
H  -2.839071  -1.157787   0.861304
C  -0.072970  -0.701144   0.011513
H  -1.314984   0.889249   1.061680
H  -1.324585   0.670026  -0.623961
H   0.447459  -1.659062   1.069158
H   0.802579  -0.286513  -0.655624
H  -0.297622  -1.243316  -0.739234
