butane_opt
 OpenBabel08242015393D

 14 12  0  0  0  0  0  0  0  0999 V2000
   -3.8681    0.2371   -0.1663 C   0  0  0  0  0  0  0  0  0  0  0  0
   -2.7021   -0.5518    0.1826 C   0  0  0  0  0  0  0  0  0  0  0  0
   -5.1514   -0.6781   -0.1001 H   0  0  0  0  0  0  0  0  0  0  0  0
   -3.4321    0.8759   -1.2086 H   0  0  0  0  0  0  0  0  0  0  0  0
   -4.0194    0.8576    0.6920 H   0  0  0  0  0  0  0  0  0  0  0  0
   -1.4475    0.2300    0.2685 C   0  0  0  0  0  0  0  0  0  0  0  0
   -2.4104   -1.2392   -0.5409 H   0  0  0  0  0  0  0  0  0  0  0  0
   -2.8933   -1.1269    1.0451 H   0  0  0  0  0  0  0  0  0  0  0  0
   -0.2053   -0.7374   -0.0987 C   0  0  0  0  0  0  0  0  0  0  0  0
   -1.5355    0.9314    1.1421 H   0  0  0  0  0  0  0  0  0  0  0  0
   -1.5276    0.7187   -0.5620 H   0  0  0  0  0  0  0  0  0  0  0  0
    0.5635   -1.5461    0.7009 H   0  0  0  0  0  0  0  0  0  0  0  0
    0.7376   -0.2525   -0.9616 H   0  0  0  0  0  0  0  0  0  0  0  0
   -0.6640   -1.1464   -0.9621 H   0  0  0  0  0  0  0  0  0  0  0  0
  1  2  1  0  0  0  0
  1  5  1  0  0  0  0
  2  6  1  0  0  0  0
  2  8  1  0  0  0  0
  4  1  1  0  0  0  0
  6 10  1  0  0  0  0
  7  2  1  0  0  0  0
  9  6  1  0  0  0  0
  9 12  1  0  0  0  0
 11  6  1  0  0  0  0
 13  9  1  0  0  0  0
 14  9  1  0  0  0  0
M  RAD  2   1   2   3   2
M  END
$$$$
