butane_opt
 OpenBabel08242015393D

 14 11  0  0  0  0  0  0  0  0999 V2000
   -3.9679    0.1918   -0.0693 C   0  0  0  0  0  0  0  0  0  0  0  0
   -2.7309   -0.5646    0.1176 C   0  0  0  0  0  0  0  0  0  0  0  0
   -4.8852   -0.5054    0.1650 H   0  0  0  0  0  0  0  0  0  0  0  0
   -4.0940    1.1351   -1.1997 H   0  0  0  0  0  0  0  0  0  0  0  0
   -3.9165    0.7628    0.8136 H   0  0  0  0  0  0  0  0  0  0  0  0
   -1.4065    0.2872    0.1303 C   0  0  0  0  0  0  0  0  0  0  0  0
   -2.5995   -1.2555   -0.6633 H   0  0  0  0  0  0  0  0  0  0  0  0
   -2.8720   -1.3361    1.0488 H   0  0  0  0  0  0  0  0  0  0  0  0
   -0.0975   -0.7726   -0.0227 C   0  0  0  0  0  0  0  0  0  0  0  0
   -1.3075    0.8764    0.7824 H   0  0  0  0  0  0  0  0  0  0  0  0
   -1.7778    1.0604   -0.9360 H   0  0  0  0  0  0  0  0  0  0  0  0
   -0.1065   -0.9682    0.5755 H   0  0  0  0  0  0  0  0  0  0  0  0
    0.9287   -0.1668    0.1619 H   0  0  0  0  0  0  0  0  0  0  0  0
    0.0773   -1.7700   -1.2160 H   0  0  0  0  0  0  0  0  0  0  0  0
  1  2  1  0  0  0  0
  1  3  1  0  0  0  0
  1  5  1  0  0  0  0
  2  6  1  0  0  0  0
  2  8  1  0  0  0  0
  4  1  1  0  0  0  0
  6 10  1  0  0  0  0
  7  2  1  0  0  0  0
  9  6  1  0  0  0  0
  9 13  1  0  0  0  0
 11  6  1  0  0  0  0
M  RAD  3   9   3  12   2  14   2
M  END
$$$$
