butane_opt
 OpenBabel08242015393D

 14 11  0  0  0  0  0  0  0  0999 V2000
   -3.8462    0.1834    0.0253 C   0  0  0  0  0  0  0  0  0  0  0  0
   -2.7078   -0.5489    0.0570 C   0  0  0  0  0  0  0  0  0  0  0  0
   -4.7564   -0.2922   -0.3303 H   0  0  0  0  0  0  0  0  0  0  0  0
   -3.8957    0.1794   -0.5164 H   0  0  0  0  0  0  0  0  0  0  0  0
   -3.9144    1.4131    1.2683 H   0  0  0  0  0  0  0  0  0  0  0  0
   -1.4405    0.2544   -0.0772 C   0  0  0  0  0  0  0  0  0  0  0  0
   -2.7317   -0.9211   -0.6911 H   0  0  0  0  0  0  0  0  0  0  0  0
   -3.1306   -1.1987    0.9192 H   0  0  0  0  0  0  0  0  0  0  0  0
   -0.1520   -0.7549    0.0496 C   0  0  0  0  0  0  0  0  0  0  0  0
   -1.5387    0.9314    0.8138 H   0  0  0  0  0  0  0  0  0  0  0  0
   -1.4044    0.9146   -1.0738 H   0  0  0  0  0  0  0  0  0  0  0  0
   -0.1923   -1.5355    1.1142 H   0  0  0  0  0  0  0  0  0  0  0  0
    0.5616   -0.3641    0.0980 H   0  0  0  0  0  0  0  0  0  0  0  0
   -0.2153   -1.2645   -0.7147 H   0  0  0  0  0  0  0  0  0  0  0  0
  1  2  1  0  0  0  0
  2  8  1  0  0  0  0
  3  1  1  0  0  0  0
  6  9  1  0  0  0  0
  6  2  1  0  0  0  0
  6 10  1  0  0  0  0
  7  2  1  0  0  0  0
  9 13  1  0  0  0  0
  9 12  1  0  0  0  0
 11  6  1  0  0  0  0
 14  9  1  0  0  0  0
M  RAD  3   1   3   4   2   5   2
M  END
$$$$
