butane_opt
 OpenBabel08242015393D

 14 13  0  0  0  0  0  0  0  0999 V2000
   -3.9738    0.3114   -0.1421 C   0  0  0  0  0  0  0  0  0  0  0  0
   -2.7114   -0.7072    0.2445 C   0  0  0  0  0  0  0  0  0  0  0  0
   -4.5583    0.0400   -0.6019 H   0  0  0  0  0  0  0  0  0  0  0  0
   -3.9433    0.6476   -0.7881 H   0  0  0  0  0  0  0  0  0  0  0  0
   -4.4990    1.1885    0.8987 H   0  0  0  0  0  0  0  0  0  0  0  0
   -1.3142    0.1479    0.1046 C   0  0  0  0  0  0  0  0  0  0  0  0
   -2.5871   -1.0802   -0.3176 H   0  0  0  0  0  0  0  0  0  0  0  0
   -2.8550   -1.4902    1.3779 H   0  0  0  0  0  0  0  0  0  0  0  0
   -0.1569   -0.6357   -0.1146 C   0  0  0  0  0  0  0  0  0  0  0  0
   -1.4448    0.8398    0.9182 H   0  0  0  0  0  0  0  0  0  0  0  0
   -1.3325    0.6433   -0.7197 H   0  0  0  0  0  0  0  0  0  0  0  0
   -0.0799   -1.1124    0.6286 H   0  0  0  0  0  0  0  0  0  0  0  0
    0.6249    0.0386    0.1132 H   0  0  0  0  0  0  0  0  0  0  0  0
   -0.4848   -1.5844   -1.1838 H   0  0  0  0  0  0  0  0  0  0  0  0
  1  2  1  0  0  0  0
  1  5  1  0  0  0  0
  2  8  1  0  0  0  0
  3  1  1  0  0  0  0
  4  1  1  0  0  0  0
  6  2  1  0  0  0  0
  6 10  1  0  0  0  0
  7  2  1  0  0  0  0
  9  6  1  0  0  0  0
  9 13  1  0  0  0  0
  9 12  1  0  0  0  0
 11  6  1  0  0  0  0
 14  9  1  0  0  0  0
M  END
$$$$
