butane_opt
 OpenBabel08242015393D

 14 13  0  0  0  0  0  0  0  0999 V2000
   -4.0202    0.2853   -0.0400 C   0  0  0  0  0  0  0  0  0  0  0  0
   -2.7027   -0.6758    0.1159 C   0  0  0  0  0  0  0  0  0  0  0  0
   -4.7720   -0.0555   -0.6830 H   0  0  0  0  0  0  0  0  0  0  0  0
   -3.7713    0.6599   -0.8292 H   0  0  0  0  0  0  0  0  0  0  0  0
   -4.1860    1.2030    0.8141 H   0  0  0  0  0  0  0  0  0  0  0  0
   -1.3614    0.1567    0.1206 C   0  0  0  0  0  0  0  0  0  0  0  0
   -2.4744   -1.3086   -0.5320 H   0  0  0  0  0  0  0  0  0  0  0  0
   -2.8410   -1.5851    1.2157 H   0  0  0  0  0  0  0  0  0  0  0  0
   -0.1516   -0.6182   -0.0552 C   0  0  0  0  0  0  0  0  0  0  0  0
   -1.4347    0.9923    1.0890 H   0  0  0  0  0  0  0  0  0  0  0  0
   -1.3249    0.8073   -0.8065 H   0  0  0  0  0  0  0  0  0  0  0  0
    0.2755   -1.5309    0.9010 H   0  0  0  0  0  0  0  0  0  0  0  0
    0.5557   -0.2459   -0.5301 H   0  0  0  0  0  0  0  0  0  0  0  0
   -0.2782   -1.1664   -0.8752 H   0  0  0  0  0  0  0  0  0  0  0  0
  1  2  1  0  0  0  0
  1  5  1  0  0  0  0
  2  6  1  0  0  0  0
  2  8  1  0  0  0  0
  3  1  1  0  0  0  0
  4  1  1  0  0  0  0
  6 10  1  0  0  0  0
  7  2  1  0  0  0  0
  9  6  1  0  0  0  0
  9 12  1  0  0  0  0
 11  6  1  0  0  0  0
 13  9  1  0  0  0  0
 14  9  1  0  0  0  0
M  END
$$$$
