14
butane_opt
C  -3.938989   0.223512   0.011712
C  -2.741096  -0.544582   0.040064
H  -5.024774  -0.551346  -0.039079
H  -3.986209   0.747374  -0.876448
H  -3.834173   0.750350   0.695804
C  -1.424039   0.190216   0.081458
H  -2.901251  -1.434922  -0.981382
H  -2.556765  -0.769652   0.580690
C  -0.095459  -0.724971   0.031402
H  -1.384266   1.095064   0.922506
H  -1.678270   0.905920  -0.823474
H   0.269434  -1.792116   1.215044
H   0.582771  -0.309438  -0.681024
H  -0.098375  -0.900043  -0.519476
