14
butane_opt
C  -3.939861   0.184561   0.132471
C  -2.756452  -0.601750  -0.131537
H  -4.814924  -0.401407   0.035229
H  -3.954347   0.765433  -0.711832
H  -3.759048   1.304037   1.241944
C  -1.414252   0.297815  -0.059408
H  -2.938444  -1.394336  -1.066978
H  -2.840150  -1.040224   0.581916
C  -0.075948  -0.757332   0.078145
H  -1.743915   1.038331   0.891618
H  -1.455706   0.795394  -0.756960
H   0.158748  -2.235676   1.654466
H   0.609808  -0.238500  -0.437931
H  -0.043406  -0.538599  -0.121994
