14
butane_opt
C  -3.950252   0.233169   0.153405
C  -2.711837  -0.618563  -0.092006
H  -4.739928  -0.294827  -0.164083
H  -4.261127   0.441814  -0.387469
H  -4.131981   1.206055   1.401618
C  -1.433737   0.265888  -0.183883
H  -2.658578  -1.112915  -0.897376
H  -2.845519  -1.417178   0.946833
C  -0.102079  -0.723112   0.169065
H  -1.520027   0.641430   0.418846
H  -1.195513   0.956202  -1.133306
H  -0.287835  -1.151679   0.998519
H   0.723077  -0.269793   0.408363
H   0.315363  -1.376503  -0.683856
