14
butane_opt
C  -3.908848   0.264554   0.218369
C  -2.625129  -0.661428  -0.138503
H  -4.556089   0.089121  -0.276130
H  -4.086680   0.846985  -0.666272
H  -3.993248   1.249628   1.322805
C  -1.419747   0.100251  -0.157611
H  -2.662669  -1.441906  -1.274226
H  -2.616615  -1.210342   0.682529
C  -0.256362  -0.647419   0.169539
H  -1.407720   0.903710   0.761247
H  -1.210207   0.677769  -1.052689
H  -0.437665  -1.678356   1.360289
H   0.772334   0.038745  -0.237560
H  -0.301748  -0.575593  -0.213051
