butane_opt
 OpenBabel08242015393D

 14 11  0  0  0  0  0  0  0  0999 V2000
   -3.9434    0.2182   -0.1368 C   0  0  0  0  0  0  0  0  0  0  0  0
   -2.6655   -0.6088    0.2599 C   0  0  0  0  0  0  0  0  0  0  0  0
   -4.7247   -0.2976    0.0127 H   0  0  0  0  0  0  0  0  0  0  0  0
   -4.0629    0.9442   -1.0987 H   0  0  0  0  0  0  0  0  0  0  0  0
   -4.1398    0.9101    0.7305 H   0  0  0  0  0  0  0  0  0  0  0  0
   -1.4396    0.2088    0.1025 C   0  0  0  0  0  0  0  0  0  0  0  0
   -2.7137   -1.2403   -0.5606 H   0  0  0  0  0  0  0  0  0  0  0  0
   -3.0892   -1.2210    1.2588 H   0  0  0  0  0  0  0  0  0  0  0  0
   -0.1292   -0.6908   -0.0946 C   0  0  0  0  0  0  0  0  0  0  0  0
   -1.4796    0.8600    0.9119 H   0  0  0  0  0  0  0  0  0  0  0  0
   -1.4223    1.0537   -1.0187 H   0  0  0  0  0  0  0  0  0  0  0  0
   -0.2041   -0.7356    0.3975 H   0  0  0  0  0  0  0  0  0  0  0  0
    0.7812   -0.1073    0.4240 H   0  0  0  0  0  0  0  0  0  0  0  0
    0.1627   -2.1746   -1.2698 H   0  0  0  0  0  0  0  0  0  0  0  0
  1  3  1  0  0  0  0
  1  2  1  0  0  0  0
  1  5  1  0  0  0  0
  2  8  1  0  0  0  0
  4  1  1  0  0  0  0
  6  2  1  0  0  0  0
  6 10  1  0  0  0  0
  7  2  1  0  0  0  0
  9  6  1  0  0  0  0
  9 13  1  0  0  0  0
 11  6  1  0  0  0  0
M  RAD  3   9   3  12   2  14   2
M  END
$$$$
