butane_opt
 OpenBabel08242015393D

 14 12  0  0  0  0  0  0  0  0999 V2000
   -3.9409    0.2926    0.1223 C   0  0  0  0  0  0  0  0  0  0  0  0
   -2.6930   -0.6100    0.0554 C   0  0  0  0  0  0  0  0  0  0  0  0
   -4.5983   -0.0817   -0.9036 H   0  0  0  0  0  0  0  0  0  0  0  0
   -3.6613    0.4280   -0.5468 H   0  0  0  0  0  0  0  0  0  0  0  0
   -4.2486    1.5752    1.3694 H   0  0  0  0  0  0  0  0  0  0  0  0
   -1.3760    0.0766   -0.1864 C   0  0  0  0  0  0  0  0  0  0  0  0
   -2.7250   -1.5197   -0.8919 H   0  0  0  0  0  0  0  0  0  0  0  0
   -2.5232   -1.3773    1.0687 H   0  0  0  0  0  0  0  0  0  0  0  0
   -0.2055   -0.6517    0.1237 C   0  0  0  0  0  0  0  0  0  0  0  0
   -1.4690    0.8287    0.6354 H   0  0  0  0  0  0  0  0  0  0  0  0
   -1.3423    0.6996   -1.0153 H   0  0  0  0  0  0  0  0  0  0  0  0
   -0.4068   -1.3910    1.0044 H   0  0  0  0  0  0  0  0  0  0  0  0
    0.8208    0.2375    0.0084 H   0  0  0  0  0  0  0  0  0  0  0  0
   -0.3092   -1.1155   -0.6219 H   0  0  0  0  0  0  0  0  0  0  0  0
  2  1  1  0  0  0  0
  2  8  1  0  0  0  0
  3  1  1  0  0  0  0
  4  1  1  0  0  0  0
  6  2  1  0  0  0  0
  6  9  1  0  0  0  0
  6 10  1  0  0  0  0
  7  2  1  0  0  0  0
  9 12  1  0  0  0  0
 11  6  1  0  0  0  0
 13  9  1  0  0  0  0
 14  9  1  0  0  0  0
M  RAD  2   1   2   5   2
M  END
$$$$
