14
butane_opt
C  -3.939035   0.228940   0.168100
C  -2.741760  -0.594046  -0.149298
H  -4.950851  -0.438099   0.124748
H  -3.931406   0.558685  -0.557529
H  -3.880352   0.929027   1.043873
C  -1.410425   0.274376  -0.071952
H  -2.786198  -1.663958  -1.231053
H  -2.733427  -0.723923   0.469085
C  -0.103002  -0.716962   0.200073
H  -1.619602   0.840280   0.589464
H  -1.321737   0.983661  -1.038203
H   0.248040  -1.996627   1.538805
H   0.409382  -0.541415  -0.767341
H  -0.101219  -0.778268  -0.415109
