14
butane_opt
C  -3.956919   0.370167  -0.114565
C  -2.644149  -0.657991   0.219879
H  -4.880442  -0.293453   0.264479
H  -3.903622   1.288162  -1.446610
H  -3.979034   0.476489   0.420779
C  -1.387071   0.047172   0.116085
H  -2.817824  -1.049705  -0.555750
H  -2.529167  -1.575578   1.352037
C  -0.273933  -0.601531  -0.132135
H  -1.092880   0.979295   1.134249
H  -1.318935   0.422511  -0.712174
H  -0.338354  -0.733583   0.436156
H   0.869885   0.215684   0.820848
H   0.031369  -2.054453  -1.454954
