butane_opt
 OpenBabel08242015393D

 14 12  0  0  0  0  0  0  0  0999 V2000
   -4.0338    0.3393   -0.0971 C   0  0  0  0  0  0  0  0  0  0  0  0
   -2.6745   -0.7259    0.2205 C   0  0  0  0  0  0  0  0  0  0  0  0
   -4.7692    0.0067   -0.5048 H   0  0  0  0  0  0  0  0  0  0  0  0
   -3.9108    0.6620   -0.7383 H   0  0  0  0  0  0  0  0  0  0  0  0
   -4.3844    1.2476    0.8654 H   0  0  0  0  0  0  0  0  0  0  0  0
   -1.3138    0.1691    0.0732 C   0  0  0  0  0  0  0  0  0  0  0  0
   -2.8812   -1.3493   -0.7359 H   0  0  0  0  0  0  0  0  0  0  0  0
   -2.8092   -1.5917    1.2236 H   0  0  0  0  0  0  0  0  0  0  0  0
   -0.1439   -0.6604   -0.0332 C   0  0  0  0  0  0  0  0  0  0  0  0
   -1.2222    0.6525    0.8716 H   0  0  0  0  0  0  0  0  0  0  0  0
   -1.3417    0.9406   -1.0056 H   0  0  0  0  0  0  0  0  0  0  0  0
   -0.0392   -0.9926    0.6173 H   0  0  0  0  0  0  0  0  0  0  0  0
    0.8184    0.0143    0.1552 H   0  0  0  0  0  0  0  0  0  0  0  0
   -0.5201   -1.5114   -1.2493 H   0  0  0  0  0  0  0  0  0  0  0  0
  1  2  1  0  0  0  0
  1  5  1  0  0  0  0
  2  8  1  0  0  0  0
  3  1  1  0  0  0  0
  4  1  1  0  0  0  0
  6  2  1  0  0  0  0
  6 10  1  0  0  0  0
  7  2  1  0  0  0  0
  9  6  1  0  0  0  0
  9 13  1  0  0  0  0
  9 12  1  0  0  0  0
 11  6  1  0  0  0  0
M  RAD  2   9   2  14   2
M  END
$$$$
