butane_opt
 OpenBabel08242015393D

 14 11  0  0  0  0  0  0  0  0999 V2000
   -3.9524    0.2298    0.1604 C   0  0  0  0  0  0  0  0  0  0  0  0
   -2.7250   -0.5409   -0.0697 C   0  0  0  0  0  0  0  0  0  0  0  0
   -5.0384   -0.5940   -0.1526 H   0  0  0  0  0  0  0  0  0  0  0  0
   -3.7617    0.3323   -0.5414 H   0  0  0  0  0  0  0  0  0  0  0  0
   -4.1695    1.1031    1.0909 H   0  0  0  0  0  0  0  0  0  0  0  0
   -1.4071    0.2511   -0.1184 C   0  0  0  0  0  0  0  0  0  0  0  0
   -2.5454   -1.2643   -1.0235 H   0  0  0  0  0  0  0  0  0  0  0  0
   -2.6444   -1.0471    0.7568 H   0  0  0  0  0  0  0  0  0  0  0  0
   -0.1370   -0.7534    0.1594 C   0  0  0  0  0  0  0  0  0  0  0  0
   -1.6097    0.6125    0.5206 H   0  0  0  0  0  0  0  0  0  0  0  0
   -1.2895    1.1058   -1.1265 H   0  0  0  0  0  0  0  0  0  0  0  0
   -0.0724   -1.4593    1.1261 H   0  0  0  0  0  0  0  0  0  0  0  0
    0.8451   -0.2467   -0.0498 H   0  0  0  0  0  0  0  0  0  0  0  0
   -0.0305   -1.2964   -0.6727 H   0  0  0  0  0  0  0  0  0  0  0  0
  1  5  1  0  0  0  0
  2  8  1  0  0  0  0
  3  1  1  0  0  0  0
  4  1  1  0  0  0  0
  6  9  1  0  0  0  0
  6 10  1  0  0  0  0
  7  2  1  0  0  0  0
  9 12  1  0  0  0  0
 11  6  1  0  0  0  0
 13  9  1  0  0  0  0
 14  9  1  0  0  0  0
M  RAD  3   1   2   2   3   6   2
M  END
$$$$
