14
butane_opt
C  -3.960930   0.324762  -0.119553
C  -2.646959  -0.642178   0.211927
H  -4.916822  -0.198617  -0.446921
H  -3.938495   0.469241  -0.665187
H  -4.288259   1.166922   0.814173
C  -1.413869   0.092223   0.037452
H  -2.506515  -0.950931  -0.338228
H  -2.609156  -1.599975   1.328685
C  -0.193561  -0.642599  -0.075126
H  -1.301410   0.806871   0.958357
H  -1.094723   0.658141  -0.616770
H  -0.140748  -0.963286   0.561937
H   0.819427   0.144183   0.225728
H  -0.456458  -1.616731  -1.057428
