butane_opt
 OpenBabel08242015393D

 14 11  0  0  0  0  0  0  0  0999 V2000
   -3.9521    0.1811   -0.0645 C   0  0  0  0  0  0  0  0  0  0  0  0
   -2.6982   -0.5926    0.1196 C   0  0  0  0  0  0  0  0  0  0  0  0
   -5.1097   -0.5190    0.5469 H   0  0  0  0  0  0  0  0  0  0  0  0
   -3.9783    1.4482   -1.4327 H   0  0  0  0  0  0  0  0  0  0  0  0
   -3.8721    0.4219    0.4761 H   0  0  0  0  0  0  0  0  0  0  0  0
   -1.3991    0.3178    0.1348 C   0  0  0  0  0  0  0  0  0  0  0  0
   -2.6053   -1.4747   -0.7838 H   0  0  0  0  0  0  0  0  0  0  0  0
   -2.8789   -1.0266    1.0312 H   0  0  0  0  0  0  0  0  0  0  0  0
   -0.1100   -0.7439   -0.0797 C   0  0  0  0  0  0  0  0  0  0  0  0
   -1.3781    1.1478    1.0279 H   0  0  0  0  0  0  0  0  0  0  0  0
   -1.6657    0.9450   -0.6218 H   0  0  0  0  0  0  0  0  0  0  0  0
   -0.2192   -1.1439    0.8023 H   0  0  0  0  0  0  0  0  0  0  0  0
    0.5202   -0.5509    0.0986 H   0  0  0  0  0  0  0  0  0  0  0  0
    0.1621   -1.7449   -1.1087 H   0  0  0  0  0  0  0  0  0  0  0  0
  1  2  1  0  0  0  0
  1  3  1  0  0  0  0
  2  6  1  0  0  0  0
  2  8  1  0  0  0  0
  6 10  1  0  0  0  0
  7  2  1  0  0  0  0
  9 13  1  0  0  0  0
  9  6  1  0  0  0  0
  9 12  1  0  0  0  0
 11  6  1  0  0  0  0
 14  9  1  0  0  0  0
M  RAD  3   1   3   4   2   5   2
M  END
$$$$
