14
butane_opt
C  -3.887358   0.263649  -0.141574
C  -2.725242  -0.566466   0.164233
H  -5.037749  -0.771381   0.360920
H  -3.891647   1.432026  -1.401883
H  -3.809864   0.463623   0.361374
C  -1.407501   0.184772   0.273108
H  -2.376282  -1.188578  -0.667498
H  -3.107769  -1.164799   1.079180
C  -0.177782  -0.713853  -0.129527
H  -1.370139   0.852188   1.088798
H  -1.540544   0.810544  -0.472211
H   0.106545  -1.170021   0.513747
H   0.627887  -0.241692  -0.303879
H  -0.213342  -1.538616  -1.164569
