butane_opt
 OpenBabel08242015393D

 14 12  0  0  0  0  0  0  0  0999 V2000
   -3.9609    0.3248   -0.1196 C   0  0  0  0  0  0  0  0  0  0  0  0
   -2.6470   -0.6422    0.2119 C   0  0  0  0  0  0  0  0  0  0  0  0
   -4.9168   -0.1986   -0.4469 H   0  0  0  0  0  0  0  0  0  0  0  0
   -3.9385    0.4692   -0.6652 H   0  0  0  0  0  0  0  0  0  0  0  0
   -4.2883    1.1669    0.8142 H   0  0  0  0  0  0  0  0  0  0  0  0
   -1.4139    0.0922    0.0375 C   0  0  0  0  0  0  0  0  0  0  0  0
   -2.5065   -0.9509   -0.3382 H   0  0  0  0  0  0  0  0  0  0  0  0
   -2.6092   -1.6000    1.3287 H   0  0  0  0  0  0  0  0  0  0  0  0
   -0.1936   -0.6426   -0.0751 C   0  0  0  0  0  0  0  0  0  0  0  0
   -1.3014    0.8069    0.9584 H   0  0  0  0  0  0  0  0  0  0  0  0
   -1.0947    0.6581   -0.6168 H   0  0  0  0  0  0  0  0  0  0  0  0
   -0.1407   -0.9633    0.5619 H   0  0  0  0  0  0  0  0  0  0  0  0
    0.8194    0.1442    0.2257 H   0  0  0  0  0  0  0  0  0  0  0  0
   -0.4565   -1.6167   -1.0574 H   0  0  0  0  0  0  0  0  0  0  0  0
  1  2  1  0  0  0  0
  1  5  1  0  0  0  0
  2  8  1  0  0  0  0
  3  1  1  0  0  0  0
  6  2  1  0  0  0  0
  6 10  1  0  0  0  0
  7  2  1  0  0  0  0
  9  6  1  0  0  0  0
  9 13  1  0  0  0  0
  9 12  1  0  0  0  0
 11  6  1  0  0  0  0
 14  9  1  0  0  0  0
M  RAD  2   1   2   4   2
M  END
$$$$
