14
butane_opt
C  -4.007609   0.331836  -0.128286
C  -2.690504  -0.675123   0.267138
H  -4.772364  -0.099622  -0.504838
H  -3.700028   0.731655  -0.939094
H  -4.622013   1.092249   0.730297
C  -1.349526   0.068309   0.131613
H  -2.602934  -1.163949  -0.491817
H  -2.975656  -1.194210   1.141645
C  -0.125705  -0.633043  -0.151419
H  -1.074814   0.738075   1.146299
H  -1.505225   0.692724  -0.692207
H  -0.320150  -1.057277   0.744470
H   0.862749  -0.030406  -0.095947
H  -0.251966  -1.284223  -1.004204
