14
butane_opt
C  -3.963753   0.308845   0.154736
C  -2.630992  -0.680973  -0.020646
H  -4.763739  -0.201805  -0.833340
H  -3.842490   0.142726  -0.273582
H  -4.163303   1.425802   1.480255
C  -1.430362   0.179862  -0.217004
H  -2.655328  -1.263185  -0.838516
H  -2.365646  -1.275503   0.825095
C  -0.192225  -0.659083   0.177045
H  -1.229678   0.713746   0.597090
H  -1.323573   0.841548  -1.274065
H  -0.494586  -1.398562   1.216955
H   0.722569  -0.062302   0.033383
H  -0.288148  -1.187674  -0.561549
