butane_opt
 OpenBabel08242015393D

 14 10  0  0  0  0  0  0  0  0999 V2000
   -3.9607    0.2385   -0.1165 C   0  0  0  0  0  1  0  0  0  0  0  0
   -2.7443   -0.6012    0.1182 C   0  0  0  0  0  0  0  0  0  0  0  0
   -4.8476   -0.2737    0.7942 H   0  0  0  0  0  0  0  0  0  0  0  0
   -4.2998    1.3332   -1.3308 H   0  0  0  0  0  0  0  0  0  0  0  0
   -3.7671    0.2582    0.4135 H   0  0  0  0  0  0  0  0  0  0  0  0
   -1.4145    0.2400    0.1730 C   0  0  0  0  0  0  0  0  0  0  0  0
   -2.4599   -1.3294   -0.7302 H   0  0  0  0  0  0  0  0  0  0  0  0
   -2.7918   -1.1956    1.0257 H   0  0  0  0  0  0  0  0  0  0  0  0
   -0.0987   -0.6960   -0.0780 C   0  0  0  0  0  0  0  0  0  0  0  0
   -1.3342    0.9681    1.0567 H   0  0  0  0  0  0  0  0  0  0  0  0
   -1.3685    0.5440   -0.6859 H   0  0  0  0  0  0  0  0  0  0  0  0
    0.1102   -1.0845    0.6071 H   0  0  0  0  0  0  0  0  0  0  0  0
    0.4514   -0.3201    0.2371 H   0  0  0  0  0  0  0  0  0  0  0  0
   -0.0751   -1.5521   -1.1564 H   0  0  0  0  0  0  0  0  0  0  0  0
  1  3  1  0  0  0  0
  2  5  1  0  0  0  0
  2  8  1  0  0  0  0
  6 10  1  0  0  0  0
  7  2  1  0  0  0  0
  9  6  1  0  0  0  0
  9 13  1  0  0  0  0
  9 12  1  0  0  0  0
 11  6  1  0  0  0  0
 14  9  1  0  0  0  0
M  RAD  3   2   2   4   2   6   2
M  END
$$$$
