14
butane_opt
C  -3.828535   0.231623  -0.053074
C  -2.755858  -0.518918   0.099656
H  -4.950250  -0.545850  -0.142170
H  -3.645107   0.858093  -0.980072
H  -4.024607   0.689545   0.634660
C  -1.498246   0.237768   0.157654
H  -2.855888  -1.400952  -1.034242
H  -2.734959  -0.994199   0.796372
C  -0.129466  -0.779630  -0.002024
H  -1.210144   0.974741   1.155655
H  -1.600974   0.716140  -0.692580
H   0.230559  -1.819530   1.171121
H   0.908831   0.022908  -1.059563
H  -0.585158  -1.024381  -0.805226
