14
butane_opt
C  -3.869433   0.192836   0.102750
C  -2.700318  -0.542170  -0.114520
H  -4.733741  -0.226056  -0.047534
H  -4.107058   0.647660  -0.593740
H  -3.738895   1.064779   1.034851
C  -1.437494   0.247085   0.002298
H  -2.915287  -1.517975  -1.103601
H  -2.890707  -0.942004   0.646286
C  -0.151116  -0.735704   0.141964
H  -1.520942   0.693146   0.648592
H  -1.479013   0.807952  -0.901441
H   0.190871  -1.933847   1.396899
H   0.641822  -0.353283  -0.740730
H  -0.543645  -0.641558  -0.401429
