butane_opt
 OpenBabel08242015393D

 14 13  0  0  0  0  0  0  0  0999 V2000
   -3.9460    0.2756    0.0092 C   0  0  0  0  0  0  0  0  0  0  0  0
   -2.6879   -0.6217    0.0567 C   0  0  0  0  0  0  0  0  0  0  0  0
   -4.8597   -0.3378   -0.0854 H   0  0  0  0  0  0  0  0  0  0  0  0
   -3.9051    0.7549   -0.8151 H   0  0  0  0  0  0  0  0  0  0  0  0
   -4.0093    1.0341    0.9516 H   0  0  0  0  0  0  0  0  0  0  0  0
   -1.4078    0.1722    0.0060 C   0  0  0  0  0  0  0  0  0  0  0  0
   -2.6446   -1.2893   -0.7996 H   0  0  0  0  0  0  0  0  0  0  0  0
   -2.7434   -1.2447    0.9610 H   0  0  0  0  0  0  0  0  0  0  0  0
   -0.1673   -0.6786    0.0320 C   0  0  0  0  0  0  0  0  0  0  0  0
   -1.3748    0.8040    0.8375 H   0  0  0  0  0  0  0  0  0  0  0  0
   -1.3967    0.8248   -0.8983 H   0  0  0  0  0  0  0  0  0  0  0  0
   -0.1187   -1.3498    0.9416 H   0  0  0  0  0  0  0  0  0  0  0  0
    0.7392   -0.0880   -0.0213 H   0  0  0  0  0  0  0  0  0  0  0  0
   -0.2059   -1.3500   -0.8554 H   0  0  0  0  0  0  0  0  0  0  0  0
  1  2  1  0  0  0  0
  1  5  1  0  0  0  0
  2  8  1  0  0  0  0
  3  1  1  0  0  0  0
  4  1  1  0  0  0  0
  6  9  1  0  0  0  0
  6  2  1  0  0  0  0
  6 10  1  0  0  0  0
  7  2  1  0  0  0  0
  9 12  1  0  0  0  0
 11  6  1  0  0  0  0
 13  9  1  0  0  0  0
 14  9  1  0  0  0  0
M  END
$$$$
