butane_opt
 OpenBabel08242015393D

 14 11  0  0  0  0  0  0  0  0999 V2000
   -3.9594    0.2084   -0.0678 C   0  0  0  0  0  0  0  0  0  0  0  0
   -2.7182   -0.5710    0.1512 C   0  0  0  0  0  0  0  0  0  0  0  0
   -4.8952   -0.4894    0.3659 H   0  0  0  0  0  0  0  0  0  0  0  0
   -4.1140    1.1239   -1.0994 H   0  0  0  0  0  0  0  0  0  0  0  0
   -3.7254    0.5580    0.5993 H   0  0  0  0  0  0  0  0  0  0  0  0
   -1.3815    0.2939    0.0571 C   0  0  0  0  0  0  0  0  0  0  0  0
   -2.9033   -1.1101   -0.6559 H   0  0  0  0  0  0  0  0  0  0  0  0
   -2.9350   -1.1706    0.9834 H   0  0  0  0  0  0  0  0  0  0  0  0
   -0.1214   -0.7593   -0.0334 C   0  0  0  0  0  1  0  0  0  0  0  0
   -1.3104    0.7236    0.8743 H   0  0  0  0  0  0  0  0  0  0  0  0
   -1.4108    1.0016   -0.9279 H   0  0  0  0  0  0  0  0  0  0  0  0
   -0.2311   -0.6086    0.4230 H   0  0  0  0  0  0  0  0  0  0  0  0
    0.4823   -0.5715    0.6374 H   0  0  0  0  0  0  0  0  0  0  0  0
    0.2385   -2.0376   -1.1541 H   0  0  0  0  0  0  0  0  0  0  0  0
  1  2  1  0  0  0  0
  1  3  1  0  0  0  0
  1  5  1  0  0  0  0
  2  8  1  0  0  0  0
  4  1  1  0  0  0  0
  6  2  1  0  0  0  0
  6 12  1  0  0  0  0
  6 10  1  0  0  0  0
  7  2  1  0  0  0  0
  9 13  1  0  0  0  0
 11  6  1  0  0  0  0
M  RAD  1  14   2
M  END
$$$$
