14
butane_opt
C  -3.961163   0.256435  -0.010111
C  -2.747633  -0.622473   0.111174
H  -4.931678  -0.346126  -0.108279
H  -3.843722   0.932185  -0.995285
H  -3.936791   0.812206   0.889464
C  -1.390962   0.239642  -0.052612
H  -3.060394  -1.127943  -0.638777
H  -2.682121  -1.468260   1.330667
C  -0.103600  -0.702628  -0.000898
H  -1.292417   1.125541   1.020802
H  -1.261615   0.763215  -0.861124
H  -0.208854  -0.926738   0.570512
H   0.490930  -0.563267   0.612419
H   0.178349  -1.769693  -1.038228
