butane_opt
 OpenBabel08242015393D

 14  8  0  0  0  0  0  0  0  0999 V2000
   -3.9806    0.2096    0.1509 C   0  0  0  0  0  0  0  0  0  0  0  0
   -2.7541   -0.5584   -0.1132 C   0  0  0  0  0  0  0  0  0  0  0  0
   -5.0256   -0.4806   -0.1311 H   0  0  0  0  0  0  0  0  0  0  0  0
   -3.9804    0.4900   -0.5968 H   0  0  0  0  0  0  0  0  0  0  0  0
   -3.6150    1.0577    1.2094 H   0  0  0  0  0  0  0  0  0  0  0  0
   -1.4421    0.2686   -0.0805 C   0  0  0  0  0  0  0  0  0  0  0  0
   -2.8967   -1.5969   -1.3341 H   0  0  0  0  0  0  0  0  0  0  0  0
   -2.3946   -0.6528    0.4151 H   0  0  0  0  0  0  0  0  0  0  0  0
   -0.0725   -0.7366    0.1741 C   0  0  0  0  0  1  0  0  0  0  0  0
   -1.5405    0.8294    0.7074 H   0  0  0  0  0  0  0  0  0  0  0  0
   -1.4619    0.9342   -0.9519 H   0  0  0  0  0  0  0  0  0  0  0  0
    0.1600   -2.3650    1.5827 H   0  0  0  0  0  0  0  0  0  0  0  0
    0.8753   -0.2440   -0.7531 H   0  0  0  0  0  0  0  0  0  0  0  0
   -0.1479   -0.6396   -0.1994 H   0  0  0  0  0  0  0  0  0  0  0  0
  1  5  1  0  0  0  0
  2  1  1  0  0  0  0
  2  8  1  0  0  0  0
  3  1  1  0  0  0  0
  4  1  1  0  0  0  0
  6 10  1  0  0  0  0
 11  6  1  0  0  0  0
 13  9  1  0  0  0  0
M  RAD  5   2   3   6   3   7   2  12   2  14   2
M  END
$$$$
