14
butane_opt
C  -3.981515   0.270867   0.148776
C  -2.695831  -0.616977  -0.066304
H  -4.841911  -0.241690  -0.582816
H  -3.855422   0.512805  -0.414499
H  -4.340985   1.538910   1.410702
C  -1.322561   0.133503  -0.088035
H  -2.748276  -1.400364  -1.045024
H  -2.807034  -1.164806   0.714574
C  -0.138474  -0.644864   0.144305
H  -1.635146   0.444574   0.606229
H  -1.239204   1.056961  -1.293541
H  -0.024313  -1.817992   1.289357
H   0.723509  -0.052328  -0.263779
H  -0.586405  -1.048430  -0.533312
