14
butane_opt
C  -3.950927   0.255944   0.037855
C  -2.716633  -0.614021   0.029585
H  -4.824688  -0.292426   0.022040
H  -3.966307   0.821261  -0.814196
H  -3.951472   0.954495   0.909275
C  -1.397851   0.208883  -0.024846
H  -2.751000  -1.315008  -0.822209
H  -2.701154  -1.223476   0.890863
C  -0.147042  -0.706892   0.050704
H  -1.363768   0.836369   0.811689
H  -1.410424   0.864263  -0.919804
H  -0.218653  -1.300167   0.945877
H   0.754684  -0.118139   0.102918
H  -0.042322  -1.425857  -0.807869
