butane_opt
 OpenBabel08242015393D

 14 13  0  0  0  0  0  0  0  0999 V2000
   -3.9523    0.2727   -0.0114 C   0  0  0  0  0  0  0  0  0  0  0  0
   -2.7128   -0.6325    0.0740 C   0  0  0  0  0  0  0  0  0  0  0  0
   -4.8005   -0.2816    0.0062 H   0  0  0  0  0  0  0  0  0  0  0  0
   -3.9631    0.9578   -0.9707 H   0  0  0  0  0  0  0  0  0  0  0  0
   -4.0480    0.9141    0.8013 H   0  0  0  0  0  0  0  0  0  0  0  0
   -1.3937    0.1744    0.0564 C   0  0  0  0  0  0  0  0  0  0  0  0
   -2.6629   -1.3182   -0.7683 H   0  0  0  0  0  0  0  0  0  0  0  0
   -2.7509   -1.2395    0.9610 H   0  0  0  0  0  0  0  0  0  0  0  0
   -0.1569   -0.6872   -0.0051 C   0  0  0  0  0  0  0  0  0  0  0  0
   -1.3228    0.8727    0.9062 H   0  0  0  0  0  0  0  0  0  0  0  0
   -1.4218    0.7954   -0.8210 H   0  0  0  0  0  0  0  0  0  0  0  0
   -0.1149   -1.2603    0.8716 H   0  0  0  0  0  0  0  0  0  0  0  0
    0.7752   -0.0860   -0.0681 H   0  0  0  0  0  0  0  0  0  0  0  0
   -0.1323   -1.3452   -0.8518 H   0  0  0  0  0  0  0  0  0  0  0  0
  1  3  1  0  0  0  0
  1  2  1  0  0  0  0
  1  5  1  0  0  0  0
  2  8  1  0  0  0  0
  4  1  1  0  0  0  0
  6  2  1  0  0  0  0
  6 10  1  0  0  0  0
  7  2  1  0  0  0  0
  9  6  1  0  0  0  0
  9 12  1  0  0  0  0
 11  6  1  0  0  0  0
 13  9  1  0  0  0  0
 14  9  1  0  0  0  0
M  END
$$$$
