butane_opt
 OpenBabel08242015393D

 14 11  0  0  0  0  0  0  0  0999 V2000
   -3.9924    0.3352   -0.0544 C   0  0  0  0  0  0  0  0  0  0  0  0
   -2.7028   -0.6610    0.1226 C   0  0  0  0  0  0  0  0  0  0  0  0
   -4.7593   -0.1678    0.4713 H   0  0  0  0  0  0  0  0  0  0  0  0
   -4.0565    1.4501   -1.3174 H   0  0  0  0  0  0  0  0  0  0  0  0
   -4.0443    0.3201    0.2867 H   0  0  0  0  0  0  0  0  0  0  0  0
   -1.3711    0.0844    0.1506 C   0  0  0  0  0  0  0  0  0  0  0  0
   -2.5863   -1.5862   -0.7747 H   0  0  0  0  0  0  0  0  0  0  0  0
   -2.7125   -1.1066    0.9788 H   0  0  0  0  0  0  0  0  0  0  0  0
   -0.1142   -0.5959   -0.0927 C   0  0  0  0  0  0  0  0  0  0  0  0
   -1.4830    0.7454    1.1005 H   0  0  0  0  0  0  0  0  0  0  0  0
   -1.4911    0.5836   -0.7341 H   0  0  0  0  0  0  0  0  0  0  0  0
   -0.3920   -1.0025    0.7192 H   0  0  0  0  0  0  0  0  0  0  0  0
    0.7975   -0.0029    0.1302 H   0  0  0  0  0  0  0  0  0  0  0  0
   -0.1834   -1.5957   -1.0323 H   0  0  0  0  0  0  0  0  0  0  0  0
  1  2  1  0  0  0  0
  1  3  1  0  0  0  0
  2  6  1  0  0  0  0
  2  8  1  0  0  0  0
  6 10  1  0  0  0  0
  7  2  1  0  0  0  0
  9 13  1  0  0  0  0
  9  6  1  0  0  0  0
  9 12  1  0  0  0  0
 11  6  1  0  0  0  0
 14  9  1  0  0  0  0
M  RAD  3   1   3   4   2   5   2
M  END
$$$$
