14
butane_opt
C  -3.858056   0.179814   0.207380
C  -2.694498  -0.528770  -0.240793
H  -4.725190  -0.465445   0.711669
H  -4.428169   0.980825  -0.722237
H  -3.455973   0.756109   0.916074
C  -1.428092   0.250540  -0.135457
H  -2.790389  -1.258022  -1.109984
H  -2.787656  -1.105555   0.729314
C  -0.153888  -0.741613   0.221560
H  -1.781478   0.678148   0.547163
H  -1.605102   0.936699  -1.079250
H  -0.444033  -1.305718   1.161811
H   0.541537  -0.226154   0.257742
H   0.114492  -1.401966  -0.628282
