butane_opt
 OpenBabel08242015393D

 14 10  0  0  0  0  0  0  0  0999 V2000
   -4.0023    0.3192   -0.1474 C   0  0  0  0  0  0  0  0  0  0  0  0
   -2.6290   -0.6510    0.2105 C   0  0  0  0  0  0  0  0  0  0  0  0
   -4.8040   -0.2871   -0.1376 H   0  0  0  0  0  0  0  0  0  0  0  0
   -3.9192    1.2123   -1.2652 H   0  0  0  0  0  0  0  0  0  0  0  0
   -4.0819    0.5232    0.3310 H   0  0  0  0  0  0  0  0  0  0  0  0
   -1.3963    0.1296    0.2281 C   0  0  0  0  0  1  0  0  0  0  0  0
   -2.4503   -1.2332   -0.6179 H   0  0  0  0  0  0  0  0  0  0  0  0
   -2.5805   -1.3800    1.1518 H   0  0  0  0  0  0  0  0  0  0  0  0
   -0.1866   -0.6393   -0.1681 C   0  0  0  0  0  0  0  0  0  0  0  0
   -1.2503    1.1788    1.3881 H   0  0  0  0  0  0  0  0  0  0  0  0
   -1.2877    0.2357   -0.2958 H   0  0  0  0  0  0  0  0  0  0  0  0
   -0.1262   -1.3979    0.8889 H   0  0  0  0  0  0  0  0  0  0  0  0
    0.7995   -0.0124   -0.6030 H   0  0  0  0  0  0  0  0  0  0  0  0
   -0.7439   -1.1848   -0.9399 H   0  0  0  0  0  0  0  0  0  0  0  0
  1  3  1  0  0  0  0
  1  2  1  0  0  0  0
  2  6  1  0  0  0  0
  2  8  1  0  0  0  0
  4  1  1  0  0  0  0
  7  2  1  0  0  0  0
  9 12  1  0  0  0  0
 11  9  1  0  0  0  0
 13  9  1  0  0  0  0
 14  9  1  0  0  0  0
M  RAD  3   1   2   5   2  10   2
M  END
$$$$
