14
butane_opt
C  -3.880864   0.290659   0.163158
C  -2.745662  -0.646501  -0.196059
H  -4.642809  -0.386008   0.985107
H  -4.399619   1.042963  -0.728654
H  -3.250381   0.458658   0.741244
C  -1.407289   0.242355  -0.061872
H  -2.767333  -1.453870  -1.350847
H  -2.768081  -0.958638   0.469698
C  -0.161115  -0.703645   0.199512
H  -1.753045   0.699766   0.556413
H  -1.237803   1.055290  -1.095362
H  -0.456428  -1.473192   1.190559
H   0.598071  -0.268814   0.036347
H  -0.015296  -1.383773  -0.656393
