14
butane_opt
C  -3.962469   0.277208  -0.017498
C  -2.697683  -0.632400   0.051544
H  -4.821285  -0.288395   0.181969
H  -4.054562   0.990404  -0.981959
H  -3.914804   0.842342   0.783723
C  -1.381799   0.178423   0.053223
H  -2.691548  -1.285163  -0.742626
H  -2.708240  -1.281420   0.954958
C  -0.172220  -0.681093   0.005478
H  -1.332204   0.894237   0.932090
H  -1.399851   0.747160  -0.792673
H  -0.133696  -1.300705   0.871370
H   0.738116  -0.079229  -0.000580
H  -0.146308  -1.402429  -0.894437
