14
butane_opt
C  -4.033821   0.339346  -0.097130
C  -2.674499  -0.725910   0.220469
H  -4.769219   0.006692  -0.504828
H  -3.910780   0.662022  -0.738341
H  -4.384418   1.247585   0.865371
C  -1.313844   0.169062   0.073232
H  -2.881169  -1.349297  -0.735931
H  -2.809170  -1.591722   1.223582
C  -0.143884  -0.660377  -0.033158
H  -1.222193   0.652543   0.871578
H  -1.341739   0.940575  -1.005575
H  -0.039237  -0.992625   0.617297
H   0.818401   0.014301   0.155198
H  -0.520141  -1.511427  -1.249347
