14
butane_opt
C  -3.928621   0.257968   0.052284
C  -2.691375  -0.611536   0.015851
H  -4.876372  -0.358313  -0.116664
H  -3.919752   0.759625  -0.783224
H  -3.997720   1.047575   0.969887
C  -1.416069   0.201350  -0.028624
H  -2.747835  -1.308253  -0.859848
H  -2.677257  -1.256046   0.914273
C  -0.169515  -0.700716   0.059523
H  -1.387779   0.853858   0.836054
H  -1.396567   0.838934  -0.931350
H  -0.141268  -1.412608   1.027380
H   0.741078  -0.120768  -0.027016
H  -0.145734  -1.286226  -0.759660
