butane_opt
 OpenBabel08242015393D

 14 11  0  0  0  0  0  0  0  0999 V2000
   -3.9638    0.3088    0.1547 C   0  0  0  0  0  1  0  0  0  0  0  0
   -2.6310   -0.6810   -0.0206 C   0  0  0  0  0  0  0  0  0  0  0  0
   -4.7637   -0.2018   -0.8333 H   0  0  0  0  0  0  0  0  0  0  0  0
   -3.8425    0.1427   -0.2736 H   0  0  0  0  0  0  0  0  0  0  0  0
   -4.1633    1.4258    1.4803 H   0  0  0  0  0  0  0  0  0  0  0  0
   -1.4304    0.1799   -0.2170 C   0  0  0  0  0  0  0  0  0  0  0  0
   -2.6553   -1.2632   -0.8385 H   0  0  0  0  0  0  0  0  0  0  0  0
   -2.3656   -1.2755    0.8251 H   0  0  0  0  0  0  0  0  0  0  0  0
   -0.1922   -0.6591    0.1770 C   0  0  0  0  0  0  0  0  0  0  0  0
   -1.2297    0.7137    0.5971 H   0  0  0  0  0  0  0  0  0  0  0  0
   -1.3236    0.8415   -1.2741 H   0  0  0  0  0  0  0  0  0  0  0  0
   -0.4946   -1.3986    1.2170 H   0  0  0  0  0  0  0  0  0  0  0  0
    0.7226   -0.0623    0.0334 H   0  0  0  0  0  0  0  0  0  0  0  0
   -0.2881   -1.1877   -0.5615 H   0  0  0  0  0  0  0  0  0  0  0  0
  2  8  1  0  0  0  0
  3  1  1  0  0  0  0
  4  2  1  0  0  0  0
  6  2  1  0  0  0  0
  6  9  1  0  0  0  0
  6 10  1  0  0  0  0
  7  2  1  0  0  0  0
  9 12  1  0  0  0  0
 11  6  1  0  0  0  0
 13  9  1  0  0  0  0
 14  9  1  0  0  0  0
M  RAD  1   5   2
M  END
$$$$
