14
butane_opt
C  -4.030632   0.223402  -0.053348
C  -2.710829  -0.559075   0.163558
H  -5.177899  -0.508598  -0.034935
H  -3.585347   0.717557  -0.915387
H  -3.936207   1.000085   0.866492
C  -1.426041   0.268004  -0.030838
H  -2.732615  -1.145396  -0.557414
H  -2.925911  -1.475063   1.197201
C  -0.067956  -0.726353  -0.040088
H  -1.182093   0.963470   0.927156
H  -1.703661   0.719851  -0.689709
H  -0.171295  -1.085133   0.803973
H   0.785766  -0.275061   0.529454
H   0.409575  -1.876135  -1.155254
