butane_opt
 OpenBabel08242015393D

 14 13  0  0  0  0  0  0  0  0999 V2000
   -3.9800    0.2243   -0.1658 C   0  0  0  0  0  0  0  0  0  0  0  0
   -2.6888   -0.5660    0.1620 C   0  0  0  0  0  0  0  0  0  0  0  0
   -5.1514   -0.4816    0.1463 H   0  0  0  0  0  0  0  0  0  0  0  0
   -4.1121    1.1226   -1.3136 H   0  0  0  0  0  0  0  0  0  0  0  0
   -3.6749    0.5877    0.5289 H   0  0  0  0  0  0  0  0  0  0  0  0
   -1.4072    0.2426    0.2220 C   0  0  0  0  0  0  0  0  0  0  0  0
   -2.7765   -1.0131   -0.4706 H   0  0  0  0  0  0  0  0  0  0  0  0
   -2.8700   -1.4823    1.1936 H   0  0  0  0  0  0  0  0  0  0  0  0
   -0.0898   -0.7364   -0.1169 C   0  0  0  0  0  0  0  0  0  0  0  0
   -1.3927    1.3155    1.2622 H   0  0  0  0  0  0  0  0  0  0  0  0
   -1.4865    0.6088   -0.5076 H   0  0  0  0  0  0  0  0  0  0  0  0
    0.1944   -1.2761    0.8185 H   0  0  0  0  0  0  0  0  0  0  0  0
    0.7061   -0.2426   -0.3778 H   0  0  0  0  0  0  0  0  0  0  0  0
   -0.4347   -1.6219   -1.1351 H   0  0  0  0  0  0  0  0  0  0  0  0
  1  3  1  0  0  0  0
  1  2  1  0  0  0  0
  1  5  1  0  0  0  0
  2  6  1  0  0  0  0
  2  8  1  0  0  0  0
  4  1  1  0  0  0  0
  6 10  1  0  0  0  0
  7  2  1  0  0  0  0
  9  6  1  0  0  0  0
  9 12  1  0  0  0  0
 11  6  1  0  0  0  0
 13  9  1  0  0  0  0
 14  9  1  0  0  0  0
M  END
$$$$
