butane_opt
 OpenBabel08242015393D

 14  9  0  0  0  0  0  0  0  0999 V2000
   -3.8874    0.2636   -0.1416 C   0  0  0  0  0  1  0  0  0  0  0  0
   -2.7252   -0.5665    0.1642 C   0  0  0  0  0  0  0  0  0  0  0  0
   -5.0377   -0.7714    0.3609 H   0  0  0  0  0  0  0  0  0  0  0  0
   -3.8916    1.4320   -1.4019 H   0  0  0  0  0  0  0  0  0  0  0  0
   -3.8099    0.4636    0.3614 H   0  0  0  0  0  0  0  0  0  0  0  0
   -1.4075    0.1848    0.2731 C   0  0  0  0  0  0  0  0  0  0  0  0
   -2.3763   -1.1886   -0.6675 H   0  0  0  0  0  0  0  0  0  0  0  0
   -3.1078   -1.1648    1.0792 H   0  0  0  0  0  0  0  0  0  0  0  0
   -0.1778   -0.7139   -0.1295 C   0  0  0  0  0  0  0  0  0  0  0  0
   -1.3701    0.8522    1.0888 H   0  0  0  0  0  0  0  0  0  0  0  0
   -1.5405    0.8105   -0.4722 H   0  0  0  0  0  0  0  0  0  0  0  0
    0.1065   -1.1700    0.5137 H   0  0  0  0  0  0  0  0  0  0  0  0
    0.6279   -0.2417   -0.3039 H   0  0  0  0  0  0  0  0  0  0  0  0
   -0.2133   -1.5386   -1.1646 H   0  0  0  0  0  0  0  0  0  0  0  0
  1  2  1  0  0  0  0
  2  8  1  0  0  0  0
  6 10  1  0  0  0  0
  7  2  1  0  0  0  0
  9  6  1  0  0  0  0
  9 12  1  0  0  0  0
 11  6  1  0  0  0  0
 13  9  1  0  0  0  0
 14  9  1  0  0  0  0
M  RAD  5   2   2   3   2   4   2   5   2   6   2
M  END
$$$$
