14
butane_opt
C  -3.868097   0.237092  -0.166306
C  -2.702125  -0.551812   0.182585
H  -5.151390  -0.678092  -0.100079
H  -3.432067   0.875897  -1.208623
H  -4.019416   0.857624   0.692041
C  -1.447496   0.229986   0.268547
H  -2.410444  -1.239170  -0.540916
H  -2.893326  -1.126918   1.045090
C  -0.205293  -0.737354  -0.098668
H  -1.535532   0.931420   1.142145
H  -1.527560   0.718739  -0.562008
H   0.563531  -1.546056   0.700870
H   0.737642  -0.252535  -0.961553
H  -0.664023  -1.146437  -0.962110
