butane_opt
 OpenBabel08242015393D

 14 13  0  0  0  0  0  0  0  0999 V2000
   -3.9360    0.2715    0.0474 C   0  0  0  0  0  0  0  0  0  0  0  0
   -2.6885   -0.6251    0.0047 C   0  0  0  0  0  0  0  0  0  0  0  0
   -4.8348   -0.3233   -0.0083 H   0  0  0  0  0  0  0  0  0  0  0  0
   -4.0130    0.8443   -0.8142 H   0  0  0  0  0  0  0  0  0  0  0  0
   -3.9735    0.9873    0.9096 H   0  0  0  0  0  0  0  0  0  0  0  0
   -1.3998    0.1728   -0.0023 C   0  0  0  0  0  0  0  0  0  0  0  0
   -2.7198   -1.3517   -0.8850 H   0  0  0  0  0  0  0  0  0  0  0  0
   -2.6887   -1.1960    0.8435 H   0  0  0  0  0  0  0  0  0  0  0  0
   -0.1738   -0.6887    0.0515 C   0  0  0  0  0  0  0  0  0  0  0  0
   -1.3939    0.8515    0.8707 H   0  0  0  0  0  0  0  0  0  0  0  0
   -1.4284    0.8513   -0.9178 H   0  0  0  0  0  0  0  0  0  0  0  0
   -0.1609   -1.4404    1.0585 H   0  0  0  0  0  0  0  0  0  0  0  0
    0.7519   -0.0633   -0.1063 H   0  0  0  0  0  0  0  0  0  0  0  0
   -0.1875   -1.1953   -0.7081 H   0  0  0  0  0  0  0  0  0  0  0  0
  1  5  1  0  0  0  0
  2  1  1  0  0  0  0
  2  8  1  0  0  0  0
  3  1  1  0  0  0  0
  4  1  1  0  0  0  0
  6  2  1  0  0  0  0
  6  9  1  0  0  0  0
  6 10  1  0  0  0  0
  7  2  1  0  0  0  0
  9 12  1  0  0  0  0
 11  6  1  0  0  0  0
 13  9  1  0  0  0  0
 14  9  1  0  0  0  0
M  END
$$$$
