butane_opt
 OpenBabel08242015393D

 14 10  0  0  0  0  0  0  0  0999 V2000
   -3.9739    0.2342    0.0908 C   0  0  0  0  0  0  0  0  0  0  0  0
   -2.7163   -0.5500    0.0931 C   0  0  0  0  0  0  0  0  0  0  0  0
   -4.9711   -0.5098   -1.0424 H   0  0  0  0  0  0  0  0  0  0  0  0
   -3.1582    0.3154   -0.5470 H   0  0  0  0  0  0  0  0  0  0  0  0
   -4.1454    1.3239    1.1169 H   0  0  0  0  0  0  0  0  0  0  0  0
   -1.4249    0.1856   -0.0597 C   0  0  0  0  0  0  0  0  0  0  0  0
   -2.6563   -1.3875   -0.7077 H   0  0  0  0  0  0  0  0  0  0  0  0
   -2.4950   -1.1401    0.9260 H   0  0  0  0  0  0  0  0  0  0  0  0
   -0.1473   -0.7337    0.0389 C   0  0  0  0  0  0  0  0  0  0  0  0
   -1.5609    0.8590    0.7287 H   0  0  0  0  0  0  0  0  0  0  0  0
   -1.4461    1.1452   -1.1556 H   0  0  0  0  0  0  0  0  0  0  0  0
   -0.0543   -1.4104    1.0628 H   0  0  0  0  0  0  0  0  0  0  0  0
    0.6634   -0.1804   -0.1532 H   0  0  0  0  0  0  0  0  0  0  0  0
   -0.0682   -1.1653   -0.7062 H   0  0  0  0  0  0  0  0  0  0  0  0
  1  5  1  0  0  0  0
  2  8  1  0  0  0  0
  4  1  1  0  0  0  0
  6  9  1  0  0  0  0
  6 10  1  0  0  0  0
  7  2  1  0  0  0  0
  9 12  1  0  0  0  0
 11  6  1  0  0  0  0
 13  9  1  0  0  0  0
 14  9  1  0  0  0  0
M  RAD  4   1   3   2   3   3   2   6   2
M  END
$$$$
