14
butane_opt
C  -3.922502   0.239898  -0.158497
C  -2.662058  -0.598374   0.215988
H  -4.988120  -0.407379   0.304208
H  -3.895594   1.137588  -1.118097
H  -3.997740   0.785644   0.608288
C  -1.409956   0.203489   0.099672
H  -2.609310  -1.064627  -0.488391
H  -2.892242  -1.617485   1.540349
C  -0.178104  -0.717571  -0.084688
H  -1.424683   0.964227   0.953606
H  -1.837556   0.838455  -0.803717
H  -0.231707  -0.462090   0.260374
H   0.925903   0.068090   0.676119
H  -0.001590  -2.256113  -1.439858
