butane_opt
 OpenBabel08242015393D

 14 11  0  0  0  0  0  0  0  0999 V2000
   -3.8889    0.2165   -0.0566 C   0  0  0  0  0  0  0  0  0  0  0  0
   -2.6697   -0.5475    0.1427 C   0  0  0  0  0  0  0  0  0  0  0  0
   -4.9678   -0.4578    0.1548 H   0  0  0  0  0  0  0  0  0  0  0  0
   -3.6350    0.9466   -1.0641 H   0  0  0  0  0  0  0  0  0  0  0  0
   -4.0047    0.5247    0.7522 H   0  0  0  0  0  0  0  0  0  0  0  0
   -1.4609    0.2459    0.0359 C   0  0  0  0  0  0  0  0  0  0  0  0
   -2.7541   -0.8544   -0.4121 H   0  0  0  0  0  0  0  0  0  0  0  0
   -2.8944   -1.3341    1.2267 H   0  0  0  0  0  0  0  0  0  0  0  0
   -0.1248   -0.7486   -0.0289 C   0  0  0  0  0  1  0  0  0  0  0  0
   -1.6379    0.8567    0.7149 H   0  0  0  0  0  0  0  0  0  0  0  0
   -1.4575    0.8635   -0.7908 H   0  0  0  0  0  0  0  0  0  0  0  0
   -0.4827   -0.6998    0.4800 H   0  0  0  0  0  0  0  0  0  0  0  0
    0.7069   -0.0963    0.6806 H   0  0  0  0  0  0  0  0  0  0  0  0
   -0.1192   -2.2861   -1.5210 H   0  0  0  0  0  0  0  0  0  0  0  0
  1  2  1  0  0  0  0
  1  3  1  0  0  0  0
  1  5  1  0  0  0  0
  2  8  1  0  0  0  0
  4  1  1  0  0  0  0
  6  2  1  0  0  0  0
  6 12  1  0  0  0  0
  6 10  1  0  0  0  0
  7  2  1  0  0  0  0
  9 13  1  0  0  0  0
 11  6  1  0  0  0  0
M  RAD  1  14   2
M  END
$$$$
