butane_opt
 OpenBabel08242015393D

 14 10  0  0  0  0  0  0  0  0999 V2000
   -3.9976    0.2593   -0.1171 C   0  0  0  0  0 15  0  0  0  0  0  0
   -2.6687   -0.5853    0.1420 C   0  0  0  0  0  0  0  0  0  0  0  0
   -5.1299   -0.5769    0.5849 H   0  0  0  0  0  0  0  0  0  0  0  0
   -4.0423    1.5356   -1.4317 H   0  0  0  0  0  0  0  0  0  0  0  0
   -3.9774   -0.0735    0.1940 H   0  0  0  0  0  0  0  0  0  0  0  0
   -1.4062    0.2486    0.2337 C   0  0  0  0  0  0  0  0  0  0  0  0
   -2.5314   -1.2409   -0.7089 H   0  0  0  0  0  0  0  0  0  0  0  0
   -2.9671   -1.0902    1.0537 H   0  0  0  0  0  0  0  0  0  0  0  0
   -0.1119   -0.7163   -0.1344 C   0  0  0  0  0  0  0  0  0  0  0  0
   -1.1502    1.1867    1.2698 H   0  0  0  0  0  0  0  0  0  0  0  0
   -1.5716    0.5419   -0.5094 H   0  0  0  0  0  0  0  0  0  0  0  0
   -0.1866   -1.2914    0.6831 H   0  0  0  0  0  0  0  0  0  0  0  0
    0.7927   -0.1697   -0.1614 H   0  0  0  0  0  0  0  0  0  0  0  0
   -0.0132   -1.7860   -1.1246 H   0  0  0  0  0  0  0  0  0  0  0  0
  2  5  1  0  0  0  0
  2  6  1  0  0  0  0
  2  8  1  0  0  0  0
  6 10  1  0  0  0  0
  7  2  1  0  0  0  0
  9  6  1  0  0  0  0
  9 12  1  0  0  0  0
 11  6  1  0  0  0  0
 13  9  1  0  0  0  0
 14  9  1  0  0  0  0
M  RAD  2   3   2   4   2
M  END
$$$$
