butane_opt
 OpenBabel08242015393D

 14 12  0  0  0  0  0  0  0  0999 V2000
   -4.0306    0.2234   -0.0533 C   0  0  0  0  0  0  0  0  0  0  0  0
   -2.7108   -0.5591    0.1636 C   0  0  0  0  0  0  0  0  0  0  0  0
   -5.1779   -0.5086   -0.0349 H   0  0  0  0  0  0  0  0  0  0  0  0
   -3.5853    0.7176   -0.9154 H   0  0  0  0  0  0  0  0  0  0  0  0
   -3.9362    1.0001    0.8665 H   0  0  0  0  0  0  0  0  0  0  0  0
   -1.4260    0.2680   -0.0308 C   0  0  0  0  0  0  0  0  0  0  0  0
   -2.7326   -1.1454   -0.5574 H   0  0  0  0  0  0  0  0  0  0  0  0
   -2.9259   -1.4751    1.1972 H   0  0  0  0  0  0  0  0  0  0  0  0
   -0.0680   -0.7264   -0.0401 C   0  0  0  0  0  0  0  0  0  0  0  0
   -1.1821    0.9635    0.9272 H   0  0  0  0  0  0  0  0  0  0  0  0
   -1.7037    0.7199   -0.6897 H   0  0  0  0  0  0  0  0  0  0  0  0
   -0.1713   -1.0851    0.8040 H   0  0  0  0  0  0  0  0  0  0  0  0
    0.7858   -0.2751    0.5295 H   0  0  0  0  0  0  0  0  0  0  0  0
    0.4096   -1.8761   -1.1553 H   0  0  0  0  0  0  0  0  0  0  0  0
  1  3  1  0  0  0  0
  1  2  1  0  0  0  0
  1  5  1  0  0  0  0
  2  8  1  0  0  0  0
  4  1  1  0  0  0  0
  6  2  1  0  0  0  0
  6 10  1  0  0  0  0
  7  2  1  0  0  0  0
  9  6  1  0  0  0  0
  9 13  1  0  0  0  0
  9 12  1  0  0  0  0
 11  6  1  0  0  0  0
M  RAD  2   9   2  14   2
M  END
$$$$
