14
butane_opt
C  -3.990619   0.325838   0.178164
C  -2.671054  -0.723169  -0.169485
H  -4.895211  -0.407871   0.229475
H  -4.208282   1.030741  -0.755883
H  -3.887190   1.195342   1.129927
C  -1.292915   0.174095  -0.087237
H  -2.814226  -1.506470  -1.100107
H  -2.521747  -1.118555   0.668546
C  -0.247201  -0.669251   0.192935
H  -1.402936   0.600076   0.470352
H  -1.312706   1.074488  -1.145279
H  -0.073416  -1.507526   1.089478
H   0.722422  -0.017177   0.105651
H  -0.205160  -1.096795  -0.576374
