14
butane_opt
C  -3.932040   0.271754   0.004451
C  -2.694542  -0.624299   0.072654
H  -4.840203  -0.328782   0.034165
H  -3.953458   0.894964  -0.903780
H  -4.010561   0.881016   0.795939
C  -1.410771   0.185336   0.008566
H  -2.725582  -1.307294  -0.795219
H  -2.700449  -1.274358   0.986106
C  -0.164599  -0.693448   0.016702
H  -1.432072   0.892514   0.893151
H  -1.385731   0.825734  -0.877230
H  -0.164711  -1.203660   0.843348
H   0.747318  -0.072175   0.151664
H  -0.136375  -1.457671  -0.931831
