butane_opt
 OpenBabel08242015393D

 14  9  0  0  0  0  0  0  0  0999 V2000
   -3.9021    0.3502   -0.1313 C   0  0  0  0  0  0  0  0  0  0  0  0
   -2.6734   -0.6418    0.2089 C   0  0  0  0  0  0  0  0  0  0  0  0
   -4.7039   -0.2868    0.1644 H   0  0  0  0  0  0  0  0  0  0  0  0
   -4.2684    1.2627   -1.2077 H   0  0  0  0  0  0  0  0  0  0  0  0
   -3.7677    0.6963    0.5282 H   0  0  0  0  0  0  0  0  0  0  0  0
   -1.3743    0.0281    0.0882 C   0  0  0  0  0  0  0  0  0  0  0  0
   -2.5919   -1.0736   -0.4882 H   0  0  0  0  0  0  0  0  0  0  0  0
   -2.9318   -1.5901    1.3351 H   0  0  0  0  0  0  0  0  0  0  0  0
   -0.2445   -0.6178   -0.0848 C   0  0  0  0  0 15  0  0  0  0  0  0
   -1.1691    0.8185    1.0403 H   0  0  0  0  0  0  0  0  0  0  0  0
   -1.7045    0.7090   -0.6082 H   0  0  0  0  0  0  0  0  0  0  0  0
   -0.4763   -0.5501    0.4128 H   0  0  0  0  0  0  0  0  0  0  0  0
    1.0024    0.2900    0.6039 H   0  0  0  0  0  0  0  0  0  0  0  0
   -0.1434   -2.1321   -1.4254 H   0  0  0  0  0  0  0  0  0  0  0  0
  1  3  1  0  0  0  0
  1  2  1  0  0  0  0
  1  5  1  0  0  0  0
  2  8  1  0  0  0  0
  4  1  1  0  0  0  0
  6 12  1  0  0  0  0
  6 10  1  0  0  0  0
  7  2  1  0  0  0  0
 11  6  1  0  0  0  0
M  RAD  4   2   2   6   2  13   2  14   2
M  END
$$$$
