14
butane_opt
C  -3.943521   0.258571   0.036470
C  -2.714523  -0.599386   0.008972
H  -4.866606  -0.369362   0.021144
H  -3.973984   0.793717  -0.820991
H  -3.978867   0.939860   0.914221
C  -1.397273   0.197762   0.004685
H  -2.758075  -1.299645  -0.856311
H  -2.728611  -1.209700   0.887051
C  -0.144662  -0.706552   0.044994
H  -1.446833   0.906836   0.843180
H  -1.385659   0.817000  -0.871643
H  -0.099798  -1.466103   1.041686
H   0.751283  -0.121028  -0.134191
H  -0.130372  -1.270341  -0.713887
