butane_opt
 OpenBabel08242015393D

 14  6  0  0  0  0  0  0  0  0999 V2000
   -3.9569    0.3702   -0.1146 C   0  0  0  0  0  0  0  0  0  0  0  0
   -2.6441   -0.6580    0.2199 C   0  0  0  0  0  0  0  0  0  0  0  0
   -4.8804   -0.2935    0.2645 H   0  0  0  0  0  0  0  0  0  0  0  0
   -3.9036    1.2882   -1.4466 H   0  0  0  0  0  0  0  0  0  0  0  0
   -3.9790    0.4765    0.4208 H   0  0  0  0  0  0  0  0  0  0  0  0
   -1.3871    0.0472    0.1161 C   0  0  0  0  0  0  0  0  0  0  0  0
   -2.8178   -1.0497   -0.5557 H   0  0  0  0  0  0  0  0  0  0  0  0
   -2.5292   -1.5756    1.3520 H   0  0  0  0  0  0  0  0  0  0  0  0
   -0.2739   -0.6015   -0.1321 C   0  0  0  0  0  1  0  0  0  0  0  0
   -1.0929    0.9793    1.1342 H   0  0  0  0  0  0  0  0  0  0  0  0
   -1.3189    0.4225   -0.7122 H   0  0  0  0  0  0  0  0  0  0  0  0
   -0.3384   -0.7336    0.4362 H   0  0  0  0  0  0  0  0  0  0  0  0
    0.8699    0.2157    0.8208 H   0  0  0  0  0  0  0  0  0  0  0  0
    0.0314   -2.0545   -1.4550 H   0  0  0  0  0  0  0  0  0  0  0  0
  1  2  1  0  0  0  0
  1  3  1  0  0  0  0
  2  8  1  0  0  0  0
  7  2  1  0  0  0  0
  9  6  1  0  0  0  0
 11  6  1  0  0  0  0
M  RAD  8   1   3   2   2   4   2   5   2   6   3  10   2  12   2  13   2
M  RAD  1  14   2
M  END
$$$$
