14
butane_opt
C  -3.980005   0.224313  -0.165760
C  -2.688804  -0.565987   0.161957
H  -5.151354  -0.481628   0.146290
H  -4.112064   1.122618  -1.313625
H  -3.674893   0.587717   0.528858
C  -1.407188   0.242602   0.221999
H  -2.776550  -1.013119  -0.470596
H  -2.870042  -1.482339   1.193551
C  -0.089842  -0.736376  -0.116906
H  -1.392731   1.315462   1.262231
H  -1.486450   0.608779  -0.507559
H   0.194352  -1.276069   0.818467
H   0.706094  -0.242594  -0.377843
H  -0.434680  -1.621946  -1.135072
