butane_opt
 OpenBabel08242015393D

 14 12  0  0  0  0  0  0  0  0999 V2000
   -3.8905    0.2717   -0.0283 C   0  0  0  0  0  0  0  0  0  0  0  0
   -2.6712   -0.6505    0.0568 C   0  0  0  0  0  0  0  0  0  0  0  0
   -4.6617   -0.0819    0.3324 H   0  0  0  0  0  0  0  0  0  0  0  0
   -3.9111    1.4731   -1.3163 H   0  0  0  0  0  0  0  0  0  0  0  0
   -3.9599    0.6037    0.6985 H   0  0  0  0  0  0  0  0  0  0  0  0
   -1.4468    0.0991    0.1498 C   0  0  0  0  0  0  0  0  0  0  0  0
   -2.4534   -1.4199   -0.7744 H   0  0  0  0  0  0  0  0  0  0  0  0
   -2.7735   -1.3623    1.0058 H   0  0  0  0  0  0  0  0  0  0  0  0
   -0.2121   -0.6412   -0.0155 C   0  0  0  0  0  0  0  0  0  0  0  0
   -1.5848    0.8457    0.8789 H   0  0  0  0  0  0  0  0  0  0  0  0
   -1.3354    0.8502   -0.8603 H   0  0  0  0  0  0  0  0  0  0  0  0
   -0.0869   -0.8268    0.6010 H   0  0  0  0  0  0  0  0  0  0  0  0
    0.6897    0.0191   -0.1289 H   0  0  0  0  0  0  0  0  0  0  0  0
   -0.3286   -1.4819   -1.0274 H   0  0  0  0  0  0  0  0  0  0  0  0
  1  2  1  0  0  0  0
  1  3  1  0  0  0  0
  1  5  1  0  0  0  0
  2  6  1  0  0  0  0
  2  8  1  0  0  0  0
  6 10  1  0  0  0  0
  7  2  1  0  0  0  0
  9  6  1  0  0  0  0
  9 12  1  0  0  0  0
 11  6  1  0  0  0  0
 13  9  1  0  0  0  0
 14  9  1  0  0  0  0
M  RAD  2   1   2   4   2
M  END
$$$$
