14
butane_opt
C  -3.944773   0.257375  -0.003409
C  -2.702997  -0.610192   0.064779
H  -4.894318  -0.358097   0.064309
H  -3.981676   0.936676  -0.907483
H  -3.982885   0.873302   0.822524
C  -1.400099   0.202142   0.017655
H  -2.735496  -1.256140  -0.760142
H  -2.782715  -1.288430   1.010407
C  -0.152382  -0.702119   0.023022
H  -1.374747   0.877226   0.858713
H  -1.382265   0.836065  -0.853062
H  -0.124860  -1.169567   0.807574
H   0.719418  -0.154362   0.098927
H  -0.070575  -1.548765  -0.952145
