butane_opt
 OpenBabel08242015393D

 14  9  0  0  0  0  0  0  0  0999 V2000
   -3.8825    0.1816    0.1410 C   0  0  0  0  0  0  0  0  0  0  0  0
   -2.7577   -0.4987   -0.0237 C   0  0  0  0  0  0  0  0  0  0  0  0
   -4.8345   -0.5007   -0.5280 H   0  0  0  0  0  0  0  0  0  0  0  0
   -3.4547    0.2962   -0.3336 H   0  0  0  0  0  0  0  0  0  0  0  0
   -4.3401    1.4868    1.4467 H   0  0  0  0  0  0  0  0  0  0  0  0
   -1.4623    0.2318   -0.1903 C   0  0  0  0  0  0  0  0  0  0  0  0
   -2.7897   -1.3337   -1.0415 H   0  0  0  0  0  0  0  0  0  0  0  0
   -2.5821   -0.9949    0.6884 H   0  0  0  0  0  0  0  0  0  0  0  0
   -0.0779   -0.7393    0.1751 C   0  0  0  0  0  0  0  0  0  0  0  0
   -1.5924    0.6651    0.6033 H   0  0  0  0  0  0  0  0  0  0  0  0
   -1.5334    0.7341   -1.0727 H   0  0  0  0  0  0  0  0  0  0  0  0
   -0.0986   -1.7614    1.3135 H   0  0  0  0  0  0  0  0  0  0  0  0
    0.7050   -0.1379   -0.3066 H   0  0  0  0  0  0  0  0  0  0  0  0
   -0.2931   -1.0430   -0.4308 H   0  0  0  0  0  0  0  0  0  0  0  0
  2  8  1  0  0  0  0
  3  1  1  0  0  0  0
  4  1  1  0  0  0  0
  6  9  1  0  0  0  0
  6 10  1  0  0  0  0
  7  2  1  0  0  0  0
 11  6  1  0  0  0  0
 13  9  1  0  0  0  0
 14  9  1  0  0  0  0
M  RAD  6   1   3   2   3   5   2   6   2   9   2  12   2
M  END
$$$$
