14
butane_opt
C  -3.840952   0.221595  -0.113194
C  -2.738884  -0.553630   0.166364
H  -4.893651  -0.437133   0.607442
H  -3.852053   1.430423  -1.489580
H  -4.028158   0.235903   0.307018
C  -1.477003   0.220566   0.159597
H  -2.805652  -1.238294  -0.749853
H  -2.579692  -1.094951   1.062062
C  -0.150293  -0.727682  -0.077387
H  -1.404891   0.995572   1.119144
H  -1.612160   0.584029  -0.484054
H   0.036953  -1.111382   0.504963
H   0.787057   0.010960   0.154888
H  -0.172814  -1.781543  -1.301410
