14
butane_opt
C  -3.989723   0.331809   0.145503
C  -2.700316  -0.687178  -0.080669
H  -4.783135  -0.119001   0.323647
H  -4.220489   0.943156  -0.726827
H  -3.944103   0.768332   0.904308
C  -1.318109   0.173041  -0.124128
H  -2.523955  -1.788301  -1.062980
H  -2.519650  -0.976845   0.536873
C  -0.247277  -0.680607   0.169881
H  -1.268184   0.790705   0.651201
H  -1.221574   0.700831  -0.974512
H  -0.322655  -1.404334   1.152479
H   0.725988   0.099643  -0.083328
H   0.083759  -1.089552  -0.603820
