14
butane_opt
C  -3.890482   0.271666  -0.028332
C  -2.671247  -0.650488   0.056796
H  -4.661737  -0.081936   0.332407
H  -3.911090   1.473094  -1.316304
H  -3.959929   0.603712   0.698466
C  -1.446756   0.099137   0.149835
H  -2.453399  -1.419940  -0.774393
H  -2.773486  -1.362256   1.005842
C  -0.212081  -0.641196  -0.015529
H  -1.584765   0.845747   0.878913
H  -1.335442   0.850168  -0.860345
H  -0.086911  -0.826762   0.600981
H   0.689735   0.019097  -0.128915
H  -0.328573  -1.481916  -1.027360
