14
butane_opt
C  -3.874554   0.209421   0.146483
C  -2.690176  -0.534976  -0.036447
H  -4.804809  -0.525765  -0.505982
H  -3.741727   0.045844  -0.175686
H  -3.838947   1.509821   1.435176
C  -1.470252   0.267350  -0.161344
H  -2.566899  -1.471473  -1.158214
H  -2.595931  -1.193159   0.787530
C  -0.230718  -0.731777   0.140820
H  -1.715208   0.457716   0.427737
H  -1.220879   1.188486  -1.348432
H   0.006778  -1.630107   1.256746
H   0.553659  -0.259942   0.127713
H   0.092519  -1.117284  -0.372400
