butane_opt
 OpenBabel08242015393D

 14 13  0  0  0  0  0  0  0  0999 V2000
   -3.8891    0.3484   -0.1953 C   0  0  0  0  0  0  0  0  0  0  0  0
   -2.6832   -0.7222    0.3559 C   0  0  0  0  0  0  0  0  0  0  0  0
   -4.6647    0.0020   -0.6825 H   0  0  0  0  0  0  0  0  0  0  0  0
   -3.5483    0.6126   -0.9259 H   0  0  0  0  0  0  0  0  0  0  0  0
   -4.4759    1.2040    0.7843 H   0  0  0  0  0  0  0  0  0  0  0  0
   -1.4244    0.1473    0.1621 C   0  0  0  0  0  0  0  0  0  0  0  0
   -2.5897   -1.3317   -0.3905 H   0  0  0  0  0  0  0  0  0  0  0  0
   -2.8464   -1.4719    1.1788 H   0  0  0  0  0  0  0  0  0  0  0  0
   -0.1963   -0.6293   -0.1851 C   0  0  0  0  0  0  0  0  0  0  0  0
   -1.2128    0.7244    0.9929 H   0  0  0  0  0  0  0  0  0  0  0  0
   -1.4048    0.6219   -0.6351 H   0  0  0  0  0  0  0  0  0  0  0  0
   -0.1954   -1.0361    0.6156 H   0  0  0  0  0  0  0  0  0  0  0  0
    0.8158   -0.0377   -0.0437 H   0  0  0  0  0  0  0  0  0  0  0  0
   -0.6236   -1.4432   -1.0775 H   0  0  0  0  0  0  0  0  0  0  0  0
  1  2  1  0  0  0  0
  1  5  1  0  0  0  0
  2  8  1  0  0  0  0
  3  1  1  0  0  0  0
  4  1  1  0  0  0  0
  6  2  1  0  0  0  0
  6 10  1  0  0  0  0
  7  2  1  0  0  0  0
  9 13  1  0  0  0  0
  9  6  1  0  0  0  0
  9 12  1  0  0  0  0
 11  6  1  0  0  0  0
 14  9  1  0  0  0  0
M  END
$$$$
