14
butane_opt
C  -3.948091   0.261575  -0.011855
C  -2.712383  -0.616194   0.066351
H  -4.860207  -0.369847   0.105763
H  -4.018024   0.975715  -0.970499
H  -3.902947   0.841474   0.789687
C  -1.405403   0.192979   0.051662
H  -2.687587  -1.292831  -0.764378
H  -2.763353  -1.198214   0.910621
C  -0.136582  -0.698812   0.005158
H  -1.429857   0.894803   0.891931
H  -1.424561   0.821110  -0.853936
H  -0.106730  -1.282007   0.884826
H   0.768856  -0.119792   0.005480
H  -0.169336  -1.418539  -0.909463
