butane_opt
 OpenBabel08242015393D

 14 12  0  0  0  0  0  0  0  0999 V2000
   -3.9878    0.3221    0.1812 C   0  0  0  0  0  0  0  0  0  0  0  0
   -2.6830   -0.7458   -0.1665 C   0  0  0  0  0  0  0  0  0  0  0  0
   -4.7599   -0.1608    0.5769 H   0  0  0  0  0  0  0  0  0  0  0  0
   -4.6146    1.2894   -0.9432 H   0  0  0  0  0  0  0  0  0  0  0  0
   -3.6911    0.8751    0.9149 H   0  0  0  0  0  0  0  0  0  0  0  0
   -1.3289    0.1642   -0.0596 C   0  0  0  0  0  0  0  0  0  0  0  0
   -2.6867   -1.5580   -1.1192 H   0  0  0  0  0  0  0  0  0  0  0  0
   -2.8176   -1.0913    0.4099 H   0  0  0  0  0  0  0  0  0  0  0  0
   -0.1674   -0.6444    0.1593 C   0  0  0  0  0  0  0  0  0  0  0  0
   -1.4341    0.7401    0.6645 H   0  0  0  0  0  0  0  0  0  0  0  0
   -1.1803    1.1117   -1.1981 H   0  0  0  0  0  0  0  0  0  0  0  0
   -0.4667   -1.4557    1.2491 H   0  0  0  0  0  0  0  0  0  0  0  0
    0.8524   -0.0990    0.1775 H   0  0  0  0  0  0  0  0  0  0  0  0
   -0.2225   -1.2539   -0.6630 H   0  0  0  0  0  0  0  0  0  0  0  0
  1  3  1  0  0  0  0
  1  5  1  0  0  0  0
  2  6  1  0  0  0  0
  2  1  1  0  0  0  0
  2  8  1  0  0  0  0
  6  9  1  0  0  0  0
  6 10  1  0  0  0  0
  7  2  1  0  0  0  0
  9 13  1  0  0  0  0
  9 12  1  0  0  0  0
 11  6  1  0  0  0  0
 14  9  1  0  0  0  0
M  RAD  2   1   2   4   2
M  END
$$$$
