butane_opt
 OpenBabel08242015393D

 14 11  0  0  0  0  0  0  0  0999 V2000
   -3.9637    0.2245   -0.0729 C   0  0  0  0  0  0  0  0  0  0  0  0
   -2.7646   -0.5476    0.2009 C   0  0  0  0  0  0  0  0  0  0  0  0
   -4.8753   -0.3829   -0.1060 H   0  0  0  0  0  0  0  0  0  0  0  0
   -3.9856    1.0143   -0.9237 H   0  0  0  0  0  0  0  0  0  0  0  0
   -4.0437    0.8200    0.8126 H   0  0  0  0  0  0  0  0  0  0  0  0
   -1.3633    0.1941   -0.0013 C   0  0  0  0  0  0  0  0  0  0  0  0
   -2.6015   -1.0797   -0.4973 H   0  0  0  0  0  0  0  0  0  0  0  0
   -2.8222   -1.3392    1.0630 H   0  0  0  0  0  0  0  0  0  0  0  0
   -0.0868   -0.7435   -0.0539 C   0  0  0  0  0  0  0  0  0  0  0  0
   -1.2287    0.9707    0.9594 H   0  0  0  0  0  0  0  0  0  0  0  0
   -1.5852    0.6986   -0.7539 H   0  0  0  0  0  0  0  0  0  0  0  0
   -0.6192   -0.7184    0.5291 H   0  0  0  0  0  0  0  0  0  0  0  0
    0.8149   -0.3106    0.5219 H   0  0  0  0  0  0  0  0  0  0  0  0
    0.1262   -1.7064   -1.1052 H   0  0  0  0  0  0  0  0  0  0  0  0
  1  2  1  0  0  0  0
  1  5  1  0  0  0  0
  2  8  1  0  0  0  0
  3  1  1  0  0  0  0
  4  1  1  0  0  0  0
  6 10  1  0  0  0  0
  7  2  1  0  0  0  0
  9 13  1  0  0  0  0
  9 12  1  0  0  0  0
 11  6  1  0  0  0  0
 14  9  1  0  0  0  0
M  RAD  3   2   2   6   3   9   2
M  END
$$$$
