butane_opt
 OpenBabel08242015393D

 14 13  0  0  0  0  0  0  0  0999 V2000
   -3.9445    0.2651    0.0502 C   0  0  0  0  0  0  0  0  0  0  0  0
   -2.6996   -0.6238    0.0145 C   0  0  0  0  0  0  0  0  0  0  0  0
   -4.8300   -0.3199   -0.0813 H   0  0  0  0  0  0  0  0  0  0  0  0
   -3.9155    0.7550   -0.7714 H   0  0  0  0  0  0  0  0  0  0  0  0
   -4.0095    1.0269    0.9789 H   0  0  0  0  0  0  0  0  0  0  0  0
   -1.4109    0.1942   -0.0261 C   0  0  0  0  0  0  0  0  0  0  0  0
   -2.7466   -1.2899   -0.8168 H   0  0  0  0  0  0  0  0  0  0  0  0
   -2.7446   -1.2401    0.8905 H   0  0  0  0  0  0  0  0  0  0  0  0
   -0.1453   -0.6955    0.0550 C   0  0  0  0  0  0  0  0  0  0  0  0
   -1.4265    0.8731    0.8142 H   0  0  0  0  0  0  0  0  0  0  0  0
   -1.3931    0.8327   -0.9449 H   0  0  0  0  0  0  0  0  0  0  0  0
   -0.1417   -1.4007    0.9974 H   0  0  0  0  0  0  0  0  0  0  0  0
    0.7292   -0.1200    0.0180 H   0  0  0  0  0  0  0  0  0  0  0  0
   -0.1440   -1.2706   -0.7424 H   0  0  0  0  0  0  0  0  0  0  0  0
  1  5  1  0  0  0  0
  2  1  1  0  0  0  0
  2  8  1  0  0  0  0
  3  1  1  0  0  0  0
  4  1  1  0  0  0  0
  6  2  1  0  0  0  0
  6  9  1  0  0  0  0
  6 10  1  0  0  0  0
  7  2  1  0  0  0  0
  9 12  1  0  0  0  0
 11  6  1  0  0  0  0
 13  9  1  0  0  0  0
 14  9  1  0  0  0  0
M  END
$$$$
