butane_opt
 OpenBabel08242015393D

 14 13  0  0  0  0  0  0  0  0999 V2000
   -3.8815    0.2151   -0.0786 C   0  0  0  0  0  0  0  0  0  0  0  0
   -2.7152   -0.5394    0.1788 C   0  0  0  0  0  0  0  0  0  0  0  0
   -4.9267   -0.5036   -0.4532 H   0  0  0  0  0  0  0  0  0  0  0  0
   -3.4318    0.5405   -0.8069 H   0  0  0  0  0  0  0  0  0  0  0  0
   -4.0617    1.0700    0.9225 H   0  0  0  0  0  0  0  0  0  0  0  0
   -1.4454    0.2185    0.0869 C   0  0  0  0  0  0  0  0  0  0  0  0
   -2.9060   -1.1911   -0.7048 H   0  0  0  0  0  0  0  0  0  0  0  0
   -2.6478   -1.0070    1.0232 H   0  0  0  0  0  0  0  0  0  0  0  0
   -0.1270   -0.7433   -0.0531 C   0  0  0  0  0  0  0  0  0  0  0  0
   -1.4754    0.8998    0.9217 H   0  0  0  0  0  0  0  0  0  0  0  0
   -1.8373    0.8226   -0.8214 H   0  0  0  0  0  0  0  0  0  0  0  0
   -0.1840   -1.5522    0.9702 H   0  0  0  0  0  0  0  0  0  0  0  0
    0.6920   -0.0123   -0.3517 H   0  0  0  0  0  0  0  0  0  0  0  0
   -0.2098   -1.3882   -0.8469 H   0  0  0  0  0  0  0  0  0  0  0  0
  1  2  1  0  0  0  0
  1  5  1  0  0  0  0
  2  8  1  0  0  0  0
  3  1  1  0  0  0  0
  4  1  1  0  0  0  0
  6  2  1  0  0  0  0
  6 10  1  0  0  0  0
  7  2  1  0  0  0  0
  9  6  1  0  0  0  0
  9 12  1  0  0  0  0
 11  6  1  0  0  0  0
 13  9  1  0  0  0  0
 14  9  1  0  0  0  0
M  END
$$$$
