butane_opt
 OpenBabel08242015393D

 14 13  0  0  0  0  0  0  0  0999 V2000
   -3.9612    0.2755   -0.0113 C   0  0  0  0  0  0  0  0  0  0  0  0
   -2.7018   -0.6194    0.0637 C   0  0  0  0  0  0  0  0  0  0  0  0
   -4.8528   -0.3253    0.0153 H   0  0  0  0  0  0  0  0  0  0  0  0
   -3.9514    0.8907   -0.9048 H   0  0  0  0  0  0  0  0  0  0  0  0
   -3.9978    0.9665    0.8494 H   0  0  0  0  0  0  0  0  0  0  0  0
   -1.3958    0.1670    0.0457 C   0  0  0  0  0  0  0  0  0  0  0  0
   -2.6903   -1.2985   -0.7590 H   0  0  0  0  0  0  0  0  0  0  0  0
   -2.7195   -1.2859    0.9857 H   0  0  0  0  0  0  0  0  0  0  0  0
   -0.1608   -0.6838    0.0053 C   0  0  0  0  0  0  0  0  0  0  0  0
   -1.3195    0.8003    0.8787 H   0  0  0  0  0  0  0  0  0  0  0  0
   -1.3812    0.8332   -0.8738 H   0  0  0  0  0  0  0  0  0  0  0  0
   -0.1103   -1.2341    0.8669 H   0  0  0  0  0  0  0  0  0  0  0  0
    0.7673   -0.0880    0.0003 H   0  0  0  0  0  0  0  0  0  0  0  0
   -0.1407   -1.3933   -0.8631 H   0  0  0  0  0  0  0  0  0  0  0  0
  1  3  1  0  0  0  0
  1  2  1  0  0  0  0
  1  5  1  0  0  0  0
  2  8  1  0  0  0  0
  4  1  1  0  0  0  0
  6  2  1  0  0  0  0
  6 10  1  0  0  0  0
  7  2  1  0  0  0  0
  9  6  1  0  0  0  0
  9 12  1  0  0  0  0
 11  6  1  0  0  0  0
 13  9  1  0  0  0  0
 14  9  1  0  0  0  0
M  END
$$$$
