14
butane_opt
C  -3.985685   0.257958   0.097534
C  -2.747807  -0.603681  -0.002095
H  -4.731991  -0.278000  -0.109050
H  -3.752287   0.483591  -0.698947
H  -4.080211   1.277570   1.232762
C  -1.399960   0.243228  -0.154591
H  -2.806439  -1.136395  -0.735229
H  -2.822368  -1.519111   0.903642
C  -0.119411  -0.696104   0.129476
H  -1.326877   0.733941   0.592730
H  -1.124246   0.707619  -0.936680
H  -0.126843  -1.216075   0.969203
H   0.629092  -0.268095   0.287205
H   0.134262  -1.647195  -0.874468
