14
butane_opt
C  -4.063999   0.304587  -0.106280
C  -2.692255  -0.633502   0.226418
H  -4.888533  -0.152898  -0.620404
H  -3.872796   0.986627  -1.083242
H  -4.554855   0.904490   0.664334
C  -1.326103   0.105955   0.202403
H  -2.562231  -1.493637  -0.796622
H  -2.581734  -1.417708   1.142887
C  -0.143598  -0.639498  -0.141710
H  -1.319765   0.856260   1.073130
H  -1.295181   0.696156  -0.592729
H   0.254227  -1.364949   0.751493
H   0.928936   0.090017  -0.548846
H  -0.431823  -1.172556  -0.741344
