14
butane_opt
C  -3.834808   0.203821  -0.126209
C  -2.698947  -0.553863   0.241299
H  -4.877933  -0.543948   0.165458
H  -3.880444   1.239297  -1.269526
H  -3.949940   0.678916   0.559895
C  -1.451101   0.288568   0.121297
H  -2.868385  -1.293606  -0.718480
H  -2.855468  -1.198629   1.100019
C  -0.190498  -0.776510  -0.123016
H  -1.155716   0.872038   1.043184
H  -1.621525   0.850845  -0.788754
H  -0.225176  -0.949246   0.470177
H   0.789830  -0.199836   0.573326
H  -0.211572  -1.876908  -1.097286
