butane_opt
 OpenBabel08242015393D

 14 11  0  0  0  0  0  0  0  0999 V2000
   -4.0019    0.3343   -0.0839 C   0  0  0  0  0  0  0  0  0  0  0  0
   -2.7159   -0.7103    0.1194 C   0  0  0  0  0  0  0  0  0  0  0  0
   -4.8588   -0.3867    0.4840 H   0  0  0  0  0  0  0  0  0  0  0  0
   -4.2133    1.7454   -1.4142 H   0  0  0  0  0  0  0  0  0  0  0  0
   -4.1909    0.3085    0.2980 H   0  0  0  0  0  0  0  0  0  0  0  0
   -1.3378    0.1430    0.2133 C   0  0  0  0  0  0  0  0  0  0  0  0
   -2.5552   -1.4017   -0.7452 H   0  0  0  0  0  0  0  0  0  0  0  0
   -2.9802   -0.8931    0.8881 H   0  0  0  0  0  0  0  0  0  0  0  0
   -0.1110   -0.6887   -0.1202 C   0  0  0  0  0  0  0  0  0  0  0  0
   -1.0796    0.9899    1.2175 H   0  0  0  0  0  0  0  0  0  0  0  0
   -1.5190    0.6693   -0.6035 H   0  0  0  0  0  0  0  0  0  0  0  0
   -0.1425   -1.2342    0.7893 H   0  0  0  0  0  0  0  0  0  0  0  0
    1.0040    0.1376   -0.0494 H   0  0  0  0  0  0  0  0  0  0  0  0
   -0.4756   -1.3410   -1.0059 H   0  0  0  0  0  0  0  0  0  0  0  0
  1  2  1  0  0  0  0
  1  3  1  0  0  0  0
  2  6  1  0  0  0  0
  2  8  1  0  0  0  0
  6 10  1  0  0  0  0
  7  2  1  0  0  0  0
  9 13  1  0  0  0  0
  9  6  1  0  0  0  0
  9 12  1  0  0  0  0
 11  6  1  0  0  0  0
 14  9  1  0  0  0  0
M  RAD  3   1   3   4   2   5   2
M  END
$$$$
