butane_opt
 OpenBabel08242015393D

 14 10  0  0  0  0  0  0  0  0999 V2000
   -3.9415    0.3428   -0.1601 C   0  0  0  0  0  0  0  0  0  0  0  0
   -2.6096   -0.6935    0.2484 C   0  0  0  0  0  0  0  0  0  0  0  0
   -4.8689   -0.2660    0.4956 H   0  0  0  0  0  0  0  0  0  0  0  0
   -4.0214    1.3900   -1.2212 H   0  0  0  0  0  0  0  0  0  0  0  0
   -4.0520    0.6073    0.4979 H   0  0  0  0  0  0  0  0  0  0  0  0
   -1.3548    0.1376    0.1249 C   0  0  0  0  0  0  0  0  0  0  0  0
   -2.5379   -1.3882   -0.4998 H   0  0  0  0  0  0  0  0  0  0  0  0
   -2.8158   -1.3249    1.1159 H   0  0  0  0  0  0  0  0  0  0  0  0
   -0.3042   -0.6548   -0.1256 C   0  0  0  0  0  0  0  0  0  0  0  0
   -1.1533    0.8026    0.9073 H   0  0  0  0  0  0  0  0  0  0  0  0
   -1.3163    0.5192   -0.6754 H   0  0  0  0  0  0  0  0  0  0  0  0
   -0.5427   -0.5648    0.4864 H   0  0  0  0  0  0  0  0  0  0  0  0
    0.7562    0.1067    0.6113 H   0  0  0  0  0  0  0  0  0  0  0  0
    0.0249   -1.9204   -1.4214 H   0  0  0  0  0  0  0  0  0  0  0  0
  1  2  1  0  0  0  0
  1  3  1  0  0  0  0
  1  5  1  0  0  0  0
  2  8  1  0  0  0  0
  4  1  1  0  0  0  0
  6 10  1  0  0  0  0
  7  2  1  0  0  0  0
  9 12  1  0  0  0  0
  9 13  1  0  0  0  0
 11  6  1  0  0  0  0
M  RAD  4   2   2   6   3   9   3  14   2
M  END
$$$$
