14
butane_opt
C  -3.893211   0.336461   0.145434
C  -2.637746  -0.700868  -0.057978
H  -4.839242  -0.157640   0.405571
H  -4.032089   0.745229  -0.571837
H  -4.007794   1.061139   1.017657
C  -1.399413   0.118066  -0.252642
H  -3.037641  -1.184943  -0.962635
H  -2.298034  -1.279424   0.777000
C  -0.272570  -0.607031   0.175562
H  -1.430620   0.758961   0.644631
H  -1.128676   0.590192  -1.045524
H  -0.693740  -1.100600   1.053672
H   0.647788   0.073257   0.776533
H   0.195285  -1.752201  -0.811318
