butane_opt
 OpenBabel08242015393D

 14  9  0  0  0  0  0  0  0  0999 V2000
   -3.8580    0.1973    0.0371 C   0  0  0  0  0  0  0  0  0  0  0  0
   -2.6922   -0.5707    0.0304 C   0  0  0  0  0  1  0  0  0  0  0  0
   -4.7538   -0.4390   -0.6251 H   0  0  0  0  0  0  0  0  0  0  0  0
   -3.4406    0.1299   -0.4436 H   0  0  0  0  0  0  0  0  0  0  0  0
   -4.1570    1.6014    1.5326 H   0  0  0  0  0  0  0  0  0  0  0  0
   -1.4888    0.2345   -0.0837 C   0  0  0  0  0  0  0  0  0  0  0  0
   -2.7241   -0.8718   -0.5079 H   0  0  0  0  0  0  0  0  0  0  0  0
   -2.9314   -1.2479    0.9871 H   0  0  0  0  0  0  0  0  0  0  0  0
   -0.1762   -0.7147    0.0861 C   0  0  0  0  0  0  0  0  0  0  0  0
   -1.7405    0.8703    0.7136 H   0  0  0  0  0  0  0  0  0  0  0  0
   -1.4466    0.8066   -1.1224 H   0  0  0  0  0  0  0  0  0  0  0  0
    0.1552   -1.5281    1.1519 H   0  0  0  0  0  0  0  0  0  0  0  0
    0.7003   -0.2430   -0.2744 H   0  0  0  0  0  0  0  0  0  0  0  0
   -0.1313   -1.3138   -0.7127 H   0  0  0  0  0  0  0  0  0  0  0  0
  2  8  1  0  0  0  0
  3  1  1  0  0  0  0
  4  1  1  0  0  0  0
  6  9  1  0  0  0  0
  6 10  1  0  0  0  0
  9 12  1  0  0  0  0
 11  6  1  0  0  0  0
 13  9  1  0  0  0  0
 14  9  1  0  0  0  0
M  RAD  4   1   3   5   2   6   2   7   2
M  END
$$$$
