butane_opt
 OpenBabel08242015393D

 14 13  0  0  0  0  0  0  0  0999 V2000
   -3.9385    0.2692    0.0006 C   0  0  0  0  0  0  0  0  0  0  0  0
   -2.6969   -0.6206    0.0552 C   0  0  0  0  0  0  0  0  0  0  0  0
   -4.8348   -0.3277    0.0498 H   0  0  0  0  0  0  0  0  0  0  0  0
   -3.9836    0.8692   -0.9128 H   0  0  0  0  0  0  0  0  0  0  0  0
   -3.9266    0.9163    0.8486 H   0  0  0  0  0  0  0  0  0  0  0  0
   -1.4108    0.1808    0.0223 C   0  0  0  0  0  0  0  0  0  0  0  0
   -2.6592   -1.2405   -0.7382 H   0  0  0  0  0  0  0  0  0  0  0  0
   -2.6684   -1.3034    0.9934 H   0  0  0  0  0  0  0  0  0  0  0  0
   -0.1694   -0.6883    0.0157 C   0  0  0  0  0  0  0  0  0  0  0  0
   -1.3857    0.8547    0.8553 H   0  0  0  0  0  0  0  0  0  0  0  0
   -1.4011    0.8134   -0.8505 H   0  0  0  0  0  0  0  0  0  0  0  0
   -0.2206   -1.2014    0.8566 H   0  0  0  0  0  0  0  0  0  0  0  0
    0.7411   -0.1050    0.1006 H   0  0  0  0  0  0  0  0  0  0  0  0
   -0.0967   -1.4437   -0.9060 H   0  0  0  0  0  0  0  0  0  0  0  0
  1  3  1  0  0  0  0
  1  2  1  0  0  0  0
  1  5  1  0  0  0  0
  2  8  1  0  0  0  0
  4  1  1  0  0  0  0
  6  2  1  0  0  0  0
  6 10  1  0  0  0  0
  7  2  1  0  0  0  0
  9  6  1  0  0  0  0
  9 13  1  0  0  0  0
  9 12  1  0  0  0  0
 11  6  1  0  0  0  0
 14  9  1  0  0  0  0
M  END
$$$$
