butane_opt
 OpenBabel08242015393D

 14  9  0  0  0  0  0  0  0  0999 V2000
   -3.9601    0.2669   -0.1229 C   0  0  0  0  0  0  0  0  0  0  0  0
   -2.6395   -0.6228    0.2659 C   0  0  0  0  0  0  0  0  0  0  0  0
   -4.9447   -0.3534    0.0091 H   0  0  0  0  0  0  0  0  0  0  0  0
   -3.9812    1.4234   -1.2389 H   0  0  0  0  0  0  0  0  0  0  0  0
   -4.1292    0.6330    0.5548 H   0  0  0  0  0  0  0  0  0  0  0  0
   -1.3665    0.1026    0.0886 C   0  0  0  0  0  0  0  0  0  0  0  0
   -2.4194   -1.2969   -0.5009 H   0  0  0  0  0  0  0  0  0  0  0  0
   -2.7105   -1.2413    1.2182 H   0  0  0  0  0  0  0  0  0  0  0  0
   -0.2058   -0.6280   -0.1081 C   0  0  0  0  0  1  0  0  0  0  0  0
   -1.1179    0.9553    1.1191 H   0  0  0  0  0  0  0  0  0  0  0  0
   -1.7389    0.7739   -0.9506 H   0  0  0  0  0  0  0  0  0  0  0  0
   -0.4610   -0.6602    0.3990 H   0  0  0  0  0  0  0  0  0  0  0  0
    0.6588   -0.0405    0.7063 H   0  0  0  0  0  0  0  0  0  0  0  0
   -0.0996   -2.1269   -1.4453 H   0  0  0  0  0  0  0  0  0  0  0  0
  1  3  1  0  0  0  0
  1  2  1  0  0  0  0
  1  5  1  0  0  0  0
  2  8  1  0  0  0  0
  6 12  1  0  0  0  0
  6 10  1  0  0  0  0
  7  2  1  0  0  0  0
  9 13  1  0  0  0  0
 11  6  1  0  0  0  0
M  RAD  5   1   2   2   2   4   2   6   2  14   2
M  END
$$$$
