14
butane_opt
C  -3.941521   0.342836  -0.160108
C  -2.609628  -0.693457   0.248383
H  -4.868948  -0.266006   0.495621
H  -4.021379   1.389958  -1.221189
H  -4.052028   0.607277   0.497949
C  -1.354804   0.137626   0.124918
H  -2.537908  -1.388219  -0.499758
H  -2.815805  -1.324891   1.115925
C  -0.304176  -0.654781  -0.125633
H  -1.153273   0.802624   0.907349
H  -1.316270   0.519215  -0.675359
H  -0.542678  -0.564775   0.486363
H   0.756225   0.106744   0.611301
H   0.024948  -1.920383  -1.421422
