butane_opt
 OpenBabel08242015393D

 14 13  0  0  0  0  0  0  0  0999 V2000
   -4.0640    0.3046   -0.1063 C   0  0  0  0  0  0  0  0  0  0  0  0
   -2.6923   -0.6335    0.2264 C   0  0  0  0  0  0  0  0  0  0  0  0
   -4.8885   -0.1529   -0.6204 H   0  0  0  0  0  0  0  0  0  0  0  0
   -3.8728    0.9866   -1.0832 H   0  0  0  0  0  0  0  0  0  0  0  0
   -4.5549    0.9045    0.6643 H   0  0  0  0  0  0  0  0  0  0  0  0
   -1.3261    0.1060    0.2024 C   0  0  0  0  0  0  0  0  0  0  0  0
   -2.5622   -1.4936   -0.7966 H   0  0  0  0  0  0  0  0  0  0  0  0
   -2.5817   -1.4177    1.1429 H   0  0  0  0  0  0  0  0  0  0  0  0
   -0.1436   -0.6395   -0.1417 C   0  0  0  0  0  0  0  0  0  0  0  0
   -1.3198    0.8563    1.0731 H   0  0  0  0  0  0  0  0  0  0  0  0
   -1.2952    0.6962   -0.5927 H   0  0  0  0  0  0  0  0  0  0  0  0
    0.2542   -1.3649    0.7515 H   0  0  0  0  0  0  0  0  0  0  0  0
    0.9289    0.0900   -0.5488 H   0  0  0  0  0  0  0  0  0  0  0  0
   -0.4318   -1.1726   -0.7413 H   0  0  0  0  0  0  0  0  0  0  0  0
  1  2  1  0  0  0  0
  1  5  1  0  0  0  0
  2  8  1  0  0  0  0
  3  1  1  0  0  0  0
  4  1  1  0  0  0  0
  6  2  1  0  0  0  0
  6 10  1  0  0  0  0
  7  2  1  0  0  0  0
  9  6  1  0  0  0  0
  9 12  1  0  0  0  0
 11  6  1  0  0  0  0
 13  9  1  0  0  0  0
 14  9  1  0  0  0  0
M  END
$$$$
