14
butane_opt
C  -3.863903   0.224562  -0.094344
C  -2.699740  -0.569958   0.137485
H  -4.906347  -0.530974   0.137807
H  -3.753938   1.256302  -1.222111
H  -3.785765   0.612970   0.670519
C  -1.474897   0.242479   0.090950
H  -2.500586  -0.961288  -0.581928
H  -2.691690  -1.734586   1.528070
C  -0.226043  -0.715977  -0.074566
H  -1.353934   0.980791   1.074242
H  -1.588983   0.724890  -0.596694
H   0.046214  -0.856522   0.406341
H   0.783279  -0.149616   0.603066
H  -0.091558  -1.985857  -1.366962
