14
butane_opt
C  -4.000942   0.279547   0.111270
C  -2.706554  -0.630640  -0.106210
H  -4.709571  -0.103082  -0.060315
H  -4.505915   0.710451  -0.541432
H  -3.959238   1.201272   1.229110
C  -1.364753   0.119621  -0.040614
H  -2.445356  -1.829478  -1.353599
H  -2.804540  -0.982049   0.695798
C  -0.136025  -0.669200   0.164877
H  -1.505759   0.606337   0.746971
H  -1.276630   1.025275  -1.050938
H   0.187845  -1.826837   1.343670
H   0.892964   0.212495  -0.795205
H  -0.409998  -0.620966  -0.246598
