14
butane_opt
C  -3.939053   0.210883  -0.031083
C  -2.738992  -0.550628   0.055531
H  -4.915612  -0.406025   0.509496
H  -3.909904   1.603883  -1.414441
H  -3.768748   0.305432   0.436873
C  -1.379532   0.232802   0.170533
H  -2.761855  -1.360227  -0.809442
H  -2.925190  -1.108402   0.839352
C  -0.122638  -0.768418  -0.048111
H  -1.567650   1.167803   1.084682
H  -1.450615   0.765500  -0.693364
H  -0.004686  -1.351357   0.869095
H   0.936079  -0.143545  -0.118492
H  -0.475280  -1.431368  -1.084596
