14
butane_opt
C  -3.937582   0.251614   0.010508
C  -2.710734  -0.607899   0.054841
H  -4.876963  -0.348117  -0.035677
H  -3.988472   0.867888  -0.876470
H  -4.001151   0.974502   0.890500
C  -1.405048   0.206082   0.002921
H  -2.753728  -1.206347  -0.748770
H  -2.748697  -1.303150   0.966135
C  -0.148956  -0.710695   0.032055
H  -1.359192   0.884022   0.855915
H  -1.382733   0.798483  -0.863505
H  -0.121204  -1.232504   0.876853
H   0.758423  -0.137120   0.052313
H  -0.108368  -1.448566  -0.890764
