14
butane_opt
C  -3.985868   0.229294   0.010012
C  -2.748720  -0.571994   0.045763
H  -5.028965  -0.704751  -0.358706
H  -3.689912   0.392199  -0.589210
H  -4.004288   1.503309   1.288716
C  -1.448374   0.244760  -0.012904
H  -2.561730  -1.300723  -0.799107
H  -2.793874  -1.005791   0.845123
C  -0.044259  -0.735509   0.080875
H  -1.120814   0.498807   0.561648
H  -1.475296   1.175270  -0.942002
H   0.111766  -1.480025   1.049454
H   0.656900  -0.343188  -0.341314
H  -0.317664  -1.264789  -0.653847
