butane_opt
 OpenBabel08242015393D

 14 11  0  0  0  0  0  0  0  0999 V2000
   -3.9709    0.2621    0.1003 C   0  0  0  0  0  0  0  0  0  0  0  0
   -2.6838   -0.6542   -0.0204 C   0  0  0  0  0  0  0  0  0  0  0  0
   -4.6705   -0.1586   -0.2637 H   0  0  0  0  0  0  0  0  0  0  0  0
   -4.1269    0.3478   -0.4241 H   0  0  0  0  0  0  0  0  0  0  0  0
   -4.2147    1.5231    1.3085 H   0  0  0  0  0  0  0  0  0  0  0  0
   -1.3734    0.1995   -0.1469 C   0  0  0  0  0  0  0  0  0  0  0  0
   -2.9590   -1.3086   -0.9919 H   0  0  0  0  0  0  0  0  0  0  0  0
   -2.4968   -1.4570    1.0498 H   0  0  0  0  0  0  0  0  0  0  0  0
   -0.1277   -0.6686    0.1547 C   0  0  0  0  0  0  0  0  0  0  0  0
   -1.6070    0.6610    0.4388 H   0  0  0  0  0  0  0  0  0  0  0  0
   -1.2968    0.9720   -1.2495 H   0  0  0  0  0  0  0  0  0  0  0  0
   -0.1926   -1.2705    1.0349 H   0  0  0  0  0  0  0  0  0  0  0  0
    0.6241   -0.1056    0.3714 H   0  0  0  0  0  0  0  0  0  0  0  0
   -0.1887   -1.3605   -0.8291 H   0  0  0  0  0  0  0  0  0  0  0  0
  2  1  1  0  0  0  0
  2  8  1  0  0  0  0
  3  1  1  0  0  0  0
  6  2  1  0  0  0  0
  6  9  1  0  0  0  0
  6 10  1  0  0  0  0
  7  2  1  0  0  0  0
  9 13  1  0  0  0  0
  9 12  1  0  0  0  0
 11  6  1  0  0  0  0
 14  9  1  0  0  0  0
M  RAD  3   1   3   4   2   5   2
M  END
$$$$
