butane_opt
 OpenBabel08242015393D

 14 11  0  0  0  0  0  0  0  0999 V2000
   -3.9348    0.3147    0.1035 C   0  0  0  0  0  0  0  0  0  0  0  0
   -2.6674   -0.6447   -0.0497 C   0  0  0  0  0  0  0  0  0  0  0  0
   -4.9189   -0.3354   -0.2876 H   0  0  0  0  0  0  0  0  0  0  0  0
   -3.7302    0.4280   -0.4552 H   0  0  0  0  0  0  0  0  0  0  0  0
   -4.0886    1.6327    1.4173 H   0  0  0  0  0  0  0  0  0  0  0  0
   -1.3716    0.0863   -0.1333 C   0  0  0  0  0  0  0  0  0  0  0  0
   -2.8151   -0.9780   -0.7369 H   0  0  0  0  0  0  0  0  0  0  0  0
   -2.5791   -1.5310    0.9277 H   0  0  0  0  0  0  0  0  0  0  0  0
   -0.2306   -0.6758    0.1265 C   0  0  0  0  0  0  0  0  0  0  0  0
   -1.6027    0.6894    0.7014 H   0  0  0  0  0  0  0  0  0  0  0  0
   -1.2131    0.9247   -1.2170 H   0  0  0  0  0  0  0  0  0  0  0  0
   -0.3480   -1.2642    1.0305 H   0  0  0  0  0  0  0  0  0  0  0  0
    0.8585    0.3166    0.1923 H   0  0  0  0  0  0  0  0  0  0  0  0
   -0.1726   -1.3158   -0.6427 H   0  0  0  0  0  0  0  0  0  0  0  0
  2  1  1  0  0  0  0
  2  8  1  0  0  0  0
  3  1  1  0  0  0  0
  6  2  1  0  0  0  0
  6  9  1  0  0  0  0
  6 10  1  0  0  0  0
  7  2  1  0  0  0  0
  9 13  1  0  0  0  0
  9 12  1  0  0  0  0
 11  6  1  0  0  0  0
 14  9  1  0  0  0  0
M  RAD  3   1   3   4   2   5   2
M  END
$$$$
