butane_opt
 OpenBabel08242015393D

 14  9  0  0  0  0  0  0  0  0999 V2000
   -3.8841    0.2857   -0.0574 C   0  0  0  0  0  0  0  0  0  0  0  0
   -2.6782   -0.6191    0.1220 C   0  0  0  0  0  0  0  0  0  0  0  0
   -4.8383   -0.2889    0.1993 H   0  0  0  0  0  0  0  0  0  0  0  0
   -4.0147    1.5203   -1.4573 H   0  0  0  0  0  0  0  0  0  0  0  0
   -3.8531    0.4192    0.4765 H   0  0  0  0  0  0  0  0  0  0  0  0
   -1.4392    0.1545    0.1281 C   0  0  0  0  0  0  0  0  0  0  0  0
   -2.7193   -1.2693   -0.5896 H   0  0  0  0  0  0  0  0  0  0  0  0
   -2.6533   -1.5443    1.3108 H   0  0  0  0  0  0  0  0  0  0  0  0
   -0.2513   -0.6652   -0.0661 C   0  0  0  0  0  0  0  0  0  0  0  0
   -1.1796    0.7335    1.0661 H   0  0  0  0  0  0  0  0  0  0  0  0
   -1.3229    0.7550   -0.8183 H   0  0  0  0  0  0  0  0  0  0  0  0
   -0.0272   -0.6019    0.4719 H   0  0  0  0  0  0  0  0  0  0  0  0
    0.6580    0.0292    0.5159 H   0  0  0  0  0  0  0  0  0  0  0  0
   -0.0771   -2.0657   -1.4084 H   0  0  0  0  0  0  0  0  0  0  0  0
  1  2  1  0  0  0  0
  1  3  1  0  0  0  0
  2  6  1  0  0  0  0
  2  8  1  0  0  0  0
  6 10  1  0  0  0  0
  7  2  1  0  0  0  0
  9  6  1  0  0  0  0
  9 13  1  0  0  0  0
 11  6  1  0  0  0  0
M  RAD  6   1   3   4   2   5   2   9   3  12   2  14   2
M  END
$$$$
