14
butane_opt
C  -3.854678   0.322601  -0.057494
C  -2.680952  -0.673773   0.184083
H  -4.834720  -0.216364   0.076010
H  -3.885309   1.198121  -1.049793
H  -4.251933   0.931622   0.694155
C  -1.399524   0.133520  -0.003939
H  -2.753337  -1.293682  -0.629344
H  -2.624998  -1.636075   1.303215
C  -0.234816  -0.637532  -0.048673
H  -1.434695   1.039190   1.012097
H  -1.309970   0.366866  -0.832390
H  -0.657242  -0.871408   0.556590
H   0.834478   0.136136   0.627135
H  -0.080066  -1.839055  -1.278863
