14
butane_opt
C  -3.981520   0.243720   0.198740
C  -2.800344  -0.575635  -0.100709
H  -4.801915  -0.338743  -0.036119
H  -4.070292   0.549074  -0.418815
H  -3.981603   1.223422   1.195806
C  -1.379698   0.200929  -0.250107
H  -3.034611  -1.299749  -1.033998
H  -2.450575  -1.073045   0.653939
C  -0.096458  -0.714365   0.204242
H  -1.597231   0.752017   0.507812
H  -1.127416   0.832137  -1.027066
H  -0.326574  -1.538932   1.257552
H   0.954907  -0.025555   0.265882
H   0.480427  -1.402246  -0.561325
