butane_opt
 OpenBabel08242015393D

 14 12  0  0  0  0  0  0  0  0999 V2000
   -3.9457    0.3247   -0.0443 C   0  0  0  0  0  0  0  0  0  0  0  0
   -2.6659   -0.6520    0.1092 C   0  0  0  0  0  0  0  0  0  0  0  0
   -5.0718   -0.4232   -0.5468 H   0  0  0  0  0  0  0  0  0  0  0  0
   -3.5175    0.4124   -0.6439 H   0  0  0  0  0  0  0  0  0  0  0  0
   -4.2905    1.5364    1.3489 H   0  0  0  0  0  0  0  0  0  0  0  0
   -1.3575    0.1157    0.0304 C   0  0  0  0  0  0  0  0  0  0  0  0
   -2.4834   -0.9489   -0.5295 H   0  0  0  0  0  0  0  0  0  0  0  0
   -2.6316   -1.5028    1.2094 H   0  0  0  0  0  0  0  0  0  0  0  0
   -0.2196   -0.6517   -0.0195 C   0  0  0  0  0  0  0  0  0  0  0  0
   -1.5547    0.7090    0.8120 H   0  0  0  0  0  0  0  0  0  0  0  0
   -1.1534    0.7739   -0.9492 H   0  0  0  0  0  0  0  0  0  0  0  0
   -0.3340   -1.3455    0.8563 H   0  0  0  0  0  0  0  0  0  0  0  0
    0.8173   -0.0467   -0.0929 H   0  0  0  0  0  0  0  0  0  0  0  0
   -0.5097   -1.2984   -0.8773 H   0  0  0  0  0  0  0  0  0  0  0  0
  1  2  1  0  0  0  0
  2  8  1  0  0  0  0
  3  1  1  0  0  0  0
  4  1  1  0  0  0  0
  6  2  1  0  0  0  0
  6 10  1  0  0  0  0
  7  2  1  0  0  0  0
  9  6  1  0  0  0  0
  9 12  1  0  0  0  0
 11  6  1  0  0  0  0
 13  9  1  0  0  0  0
 14  9  1  0  0  0  0
M  RAD  2   1   2   5   2
M  END
$$$$
