14
butane_opt
C  -3.987840   0.322051   0.181201
C  -2.682995  -0.745795  -0.166537
H  -4.759927  -0.160826   0.576861
H  -4.614635   1.289381  -0.943174
H  -3.691122   0.875080   0.914863
C  -1.328850   0.164160  -0.059613
H  -2.686696  -1.558024  -1.119237
H  -2.817615  -1.091304   0.409943
C  -0.167423  -0.644444   0.159267
H  -1.434117   0.740145   0.664534
H  -1.180278   1.111731  -1.198130
H  -0.466680  -1.455735   1.249070
H   0.852431  -0.099016   0.177544
H  -0.222521  -1.253940  -0.662979
