butane_opt
 OpenBabel08242015393D

 14 11  0  0  0  0  0  0  0  0999 V2000
   -3.8924    0.2596    0.1053 C   0  0  0  0  0  0  0  0  0  0  0  0
   -2.6602   -0.5524    0.0379 C   0  0  0  0  0  0  0  0  0  0  0  0
   -4.8156   -0.3232   -0.6327 H   0  0  0  0  0  0  0  0  0  0  0  0
   -3.6091    0.5587   -0.6486 H   0  0  0  0  0  0  0  0  0  0  0  0
   -4.3743    1.3980    1.2844 H   0  0  0  0  0  0  0  0  0  0  0  0
   -1.4158    0.1325   -0.1039 C   0  0  0  0  0  0  0  0  0  0  0  0
   -2.8072   -1.4354   -0.8401 H   0  0  0  0  0  0  0  0  0  0  0  0
   -2.7441   -1.2264    1.0523 H   0  0  0  0  0  0  0  0  0  0  0  0
   -0.2330   -0.7032    0.0779 C   0  0  0  0  0  0  0  0  0  0  0  0
   -1.4188    0.4527    0.6037 H   0  0  0  0  0  0  0  0  0  0  0  0
   -1.3572    0.8969   -1.1906 H   0  0  0  0  0  0  0  0  0  0  0  0
   -0.2591   -1.2767    0.9674 H   0  0  0  0  0  0  0  0  0  0  0  0
    0.9709    0.2447    0.2776 H   0  0  0  0  0  0  0  0  0  0  0  0
   -0.2093   -1.3544   -0.7876 H   0  0  0  0  0  0  0  0  0  0  0  0
  2  1  1  0  0  0  0
  2  8  1  0  0  0  0
  3  1  1  0  0  0  0
  4  1  1  0  0  0  0
  6  2  1  0  0  0  0
  6  9  1  0  0  0  0
  6 10  1  0  0  0  0
  7  2  1  0  0  0  0
  9 12  1  0  0  0  0
 11  6  1  0  0  0  0
 14  9  1  0  0  0  0
M  RAD  4   1   2   5   2   9   2  13   2
M  END
$$$$
