butane_opt
 OpenBabel08242015393D

 14 10  0  0  0  0  0  0  0  0999 V2000
   -3.8226    0.2352   -0.1462 C   0  0  0  0  0  0  0  0  0  0  0  0
   -2.7280   -0.5830    0.1941 C   0  0  0  0  0  0  0  0  0  0  0  0
   -4.8364   -0.3906    0.2727 H   0  0  0  0  0  0  0  0  0  0  0  0
   -3.6924    1.3674   -1.3523 H   0  0  0  0  0  0  0  0  0  0  0  0
   -3.7990    0.3675    0.2250 H   0  0  0  0  0  0  0  0  0  0  0  0
   -1.4499    0.2526    0.2416 C   0  0  0  0  0  0  0  0  0  0  0  0
   -2.9094   -1.3956   -0.7970 H   0  0  0  0  0  0  0  0  0  0  0  0
   -2.7573   -1.2182    1.0661 H   0  0  0  0  0  0  0  0  0  0  0  0
   -0.2269   -0.7452   -0.1117 C   0  0  0  0  0  0  0  0  0  0  0  0
   -1.4847    1.2985    1.3365 H   0  0  0  0  0  0  0  0  0  0  0  0
   -1.6235    0.5736   -0.5932 H   0  0  0  0  0  0  0  0  0  0  0  0
    0.2128   -1.3942    0.7291 H   0  0  0  0  0  0  0  0  0  0  0  0
    0.7845   -0.0713   -0.5481 H   0  0  0  0  0  0  0  0  0  0  0  0
   -0.2424   -1.4936   -1.1150 H   0  0  0  0  0  0  0  0  0  0  0  0
  1  2  1  0  0  0  0
  1  3  1  0  0  0  0
  2  8  1  0  0  0  0
  6 10  1  0  0  0  0
  7  2  1  0  0  0  0
  9  6  1  0  0  0  0
  9 12  1  0  0  0  0
 11  6  1  0  0  0  0
 13  9  1  0  0  0  0
 14  9  1  0  0  0  0
M  RAD  5   1   3   2   2   4   2   5   2   6   2
M  END
$$$$
