butane_opt
 OpenBabel08242015393D

 14 11  0  0  0  0  0  0  0  0999 V2000
   -3.9174    0.3139   -0.1613 C   0  0  0  0  0  0  0  0  0  0  0  0
   -2.6771   -0.6996    0.2808 C   0  0  0  0  0  0  0  0  0  0  0  0
   -4.5140   -0.0521   -0.7054 H   0  0  0  0  0  0  0  0  0  0  0  0
   -3.5670    0.5436   -0.8474 H   0  0  0  0  0  0  0  0  0  0  0  0
   -4.3787    1.5866    0.9797 H   0  0  0  0  0  0  0  0  0  0  0  0
   -1.4281    0.0988    0.1122 C   0  0  0  0  0  0  0  0  0  0  0  0
   -2.5850   -1.0135   -0.4915 H   0  0  0  0  0  0  0  0  0  0  0  0
   -2.7986   -1.6958    1.4343 H   0  0  0  0  0  0  0  0  0  0  0  0
   -0.2246   -0.6178   -0.1106 C   0  0  0  0  0  0  0  0  0  0  0  0
   -1.3574    0.9352    1.0433 H   0  0  0  0  0  0  0  0  0  0  0  0
   -1.1546    0.6264   -0.7232 H   0  0  0  0  0  0  0  0  0  0  0  0
    0.0382   -1.1994    0.7430 H   0  0  0  0  0  0  0  0  0  0  0  0
    0.7980    0.2002   -0.2248 H   0  0  0  0  0  0  0  0  0  0  0  0
   -0.5979   -1.5230   -1.1880 H   0  0  0  0  0  0  0  0  0  0  0  0
  1  2  1  0  0  0  0
  3  1  1  0  0  0  0
  4  1  1  0  0  0  0
  6  2  1  0  0  0  0
  6 10  1  0  0  0  0
  7  2  1  0  0  0  0
  9  6  1  0  0  0  0
  9 12  1  0  0  0  0
 11  6  1  0  0  0  0
 13  9  1  0  0  0  0
 14  9  1  0  0  0  0
M  RAD  4   1   2   2   2   5   2   8   2
M  END
$$$$
