14
butane_opt
C  -3.857984   0.197288   0.037093
C  -2.692158  -0.570727   0.030365
H  -4.753806  -0.439001  -0.625052
H  -3.440561   0.129934  -0.443623
H  -4.157032   1.601433   1.532550
C  -1.488755   0.234510  -0.083701
H  -2.724112  -0.871768  -0.507932
H  -2.931424  -1.247906   0.987074
C  -0.176199  -0.714731   0.086103
H  -1.740547   0.870346   0.713576
H  -1.446565   0.806561  -1.122433
H   0.155156  -1.528089   1.151863
H   0.700250  -0.243029  -0.274416
H  -0.131252  -1.313824  -0.712725
