14
butane_opt
C  -3.931672   0.305804   0.259148
C  -2.623815  -0.728532  -0.215271
H  -4.578824  -0.205509   0.224676
H  -4.170369   0.898732  -0.605102
H  -3.576231   1.122103   1.245259
C  -1.451141   0.152154  -0.265134
H  -2.775898  -1.120326  -0.874559
H  -2.657998  -1.292220   0.794300
C  -0.213839  -0.638316   0.244044
H  -1.771604   0.670205   0.454587
H  -1.151331   0.946125  -1.231347
H  -0.642953  -1.035734   1.087138
H   0.840494   0.108445   0.727346
H   0.050151  -1.632339  -0.702894
