butane_opt
 OpenBabel08242015393D

 14 13  0  0  0  0  0  0  0  0999 V2000
   -3.9141    0.2294    0.2591 C   0  0  0  0  0  0  0  0  0  0  0  0
   -2.7162   -0.5381   -0.1787 C   0  0  0  0  0  0  0  0  0  0  0  0
   -4.8934   -0.4412    0.1041 H   0  0  0  0  0  0  0  0  0  0  0  0
   -4.1635    0.8783   -0.6457 H   0  0  0  0  0  0  0  0  0  0  0  0
   -4.0007    0.8112    1.0172 H   0  0  0  0  0  0  0  0  0  0  0  0
   -1.3839    0.2171   -0.2110 C   0  0  0  0  0  0  0  0  0  0  0  0
   -3.2579   -1.3783   -1.1438 H   0  0  0  0  0  0  0  0  0  0  0  0
   -2.6319   -0.9361    0.5849 H   0  0  0  0  0  0  0  0  0  0  0  0
   -0.1204   -0.7626    0.2376 C   0  0  0  0  0  0  0  0  0  0  0  0
   -1.4428    0.6684    0.5331 H   0  0  0  0  0  0  0  0  0  0  0  0
   -1.3722    0.8336   -1.2446 H   0  0  0  0  0  0  0  0  0  0  0  0
   -0.3340   -1.3347    1.0615 H   0  0  0  0  0  0  0  0  0  0  0  0
    0.6924   -0.1739    0.3882 H   0  0  0  0  0  0  0  0  0  0  0  0
    0.0502   -1.1629   -0.4987 H   0  0  0  0  0  0  0  0  0  0  0  0
  1  5  1  0  0  0  0
  2  1  1  0  0  0  0
  2  8  1  0  0  0  0
  3  1  1  0  0  0  0
  4  1  1  0  0  0  0
  6  2  1  0  0  0  0
  6  9  1  0  0  0  0
  6 10  1  0  0  0  0
  7  2  1  0  0  0  0
  9 13  1  0  0  0  0
  9 12  1  0  0  0  0
 11  6  1  0  0  0  0
 14  9  1  0  0  0  0
M  END
$$$$
