14
butane_opt
C  -3.891818   0.168040  -0.050367
C  -2.696524  -0.485307   0.027498
H  -5.063951  -0.700827   0.666190
H  -4.001426   1.217376  -1.226981
H  -3.769594   0.530432   0.576332
C  -1.450257   0.240935   0.092533
H  -2.411004  -1.057103  -0.626792
H  -2.662222  -1.125030   0.992201
C  -0.159524  -0.761145   0.020718
H  -1.509246   1.110781   1.135395
H  -1.490716   0.516127  -0.680927
H   0.073839  -1.296537   0.709261
H   0.562925  -0.126145  -0.177957
H  -0.299045  -1.535628  -1.043312
