butane_opt
 OpenBabel08242015393D

 14 13  0  0  0  0  0  0  0  0999 V2000
   -3.9177    0.1983   -0.1524 C   0  0  0  0  0  0  0  0  0  0  0  0
   -2.7117   -0.5637    0.1388 C   0  0  0  0  0  0  0  0  0  0  0  0
   -4.8914   -0.3686    0.2650 H   0  0  0  0  0  0  0  0  0  0  0  0
   -4.1851    0.9927   -1.1989 H   0  0  0  0  0  0  0  0  0  0  0  0
   -3.9124    0.6893    0.6357 H   0  0  0  0  0  0  0  0  0  0  0  0
   -1.4536    0.2850    0.2122 C   0  0  0  0  0  0  0  0  0  0  0  0
   -2.5697   -1.0732   -0.5854 H   0  0  0  0  0  0  0  0  0  0  0  0
   -3.0461   -1.3531    1.0442 H   0  0  0  0  0  0  0  0  0  0  0  0
   -0.1112   -0.7467   -0.0958 C   0  0  0  0  0  0  0  0  0  0  0  0
   -1.4293    1.1639    1.2064 H   0  0  0  0  0  0  0  0  0  0  0  0
   -1.3468    0.4653   -0.4221 H   0  0  0  0  0  0  0  0  0  0  0  0
    0.2075   -1.4967    0.8050 H   0  0  0  0  0  0  0  0  0  0  0  0
    0.7552   -0.2577   -0.6850 H   0  0  0  0  0  0  0  0  0  0  0  0
   -0.2368   -1.2916   -0.8833 H   0  0  0  0  0  0  0  0  0  0  0  0
  1  2  1  0  0  0  0
  1  3  1  0  0  0  0
  1  5  1  0  0  0  0
  2  6  1  0  0  0  0
  2  8  1  0  0  0  0
  4  1  1  0  0  0  0
  6 10  1  0  0  0  0
  7  2  1  0  0  0  0
  9  6  1  0  0  0  0
  9 12  1  0  0  0  0
 11  6  1  0  0  0  0
 13  9  1  0  0  0  0
 14  9  1  0  0  0  0
M  END
$$$$
