14
butane_opt
C  -3.847452   0.249912   0.098548
C  -2.751397  -0.542359   0.011770
H  -4.821034  -0.402429   0.037736
H  -3.729739   0.501020  -0.604553
H  -3.827314   0.973228   1.009426
C  -1.435957   0.189137  -0.199530
H  -2.770513  -1.215451  -0.761710
H  -2.718748  -1.246690   1.056382
C  -0.185003  -0.751573   0.115922
H  -1.501793   1.030207   0.712011
H  -1.567933   0.919446  -1.047829
H  -0.580660  -0.981883   0.907012
H   0.931986  -0.051959   0.652738
H   0.189343  -1.762377  -0.851919
