14
butane_opt
C  -3.945722   0.324683  -0.044279
C  -2.665918  -0.652040   0.109213
H  -5.071786  -0.423193  -0.546792
H  -3.517507   0.412380  -0.643947
H  -4.290526   1.536437   1.348927
C  -1.357535   0.115651   0.030398
H  -2.483379  -0.948950  -0.529521
H  -2.631589  -1.502844   1.209375
C  -0.219602  -0.651656  -0.019502
H  -1.554713   0.709038   0.812013
H  -1.153385   0.773871  -0.949225
H  -0.333969  -1.345523   0.856267
H   0.817271  -0.046659  -0.092894
H  -0.509654  -1.298394  -0.877297
