butane_opt
 OpenBabel08242015393D

 14 11  0  0  0  0  0  0  0  0999 V2000
   -3.9118    0.2833   -0.1283 C   0  0  0  0  0  0  0  0  0  0  0  0
   -2.6958   -0.5723    0.1751 C   0  0  0  0  0  0  0  0  0  0  0  0
   -4.9631   -0.3526   -0.3223 H   0  0  0  0  0  0  0  0  0  0  0  0
   -3.6538    1.2629   -1.2348 H   0  0  0  0  0  0  0  0  0  0  0  0
   -4.0296    0.7770    0.4951 H   0  0  0  0  0  0  0  0  0  0  0  0
   -1.4207    0.0877    0.2150 C   0  0  0  0  0  0  0  0  0  0  0  0
   -2.5896   -1.2209   -0.5692 H   0  0  0  0  0  0  0  0  0  0  0  0
   -2.5623   -1.6033    1.2237 H   0  0  0  0  0  0  0  0  0  0  0  0
   -0.2019   -0.6387   -0.1363 C   0  0  0  0  0  0  0  0  0  0  0  0
   -1.1142    1.1518    1.3970 H   0  0  0  0  0  0  0  0  0  0  0  0
   -1.5667    0.3170   -0.3290 H   0  0  0  0  0  0  0  0  0  0  0  0
    0.0824   -1.5799    0.8701 H   0  0  0  0  0  0  0  0  0  0  0  0
    0.7700   -0.0131   -0.5564 H   0  0  0  0  0  0  0  0  0  0  0  0
   -0.6540   -1.1055   -1.0574 H   0  0  0  0  0  0  0  0  0  0  0  0
  1  2  1  0  0  0  0
  1  5  1  0  0  0  0
  2  6  1  0  0  0  0
  2  8  1  0  0  0  0
  3  1  1  0  0  0  0
  4  1  1  0  0  0  0
  7  2  1  0  0  0  0
  9  6  1  0  0  0  0
  9 12  1  0  0  0  0
 13  9  1  0  0  0  0
 14  9  1  0  0  0  0
M  RAD  3   6   3  10   2  11   2
M  END
$$$$
