14
butane_opt
C  -3.935780   0.204134  -0.077674
C  -2.793415  -0.543310   0.079256
H  -4.917186  -0.324343   0.886798
H  -4.309151   1.622289  -1.363981
H  -3.670449   0.229744   0.431581
C  -1.420631   0.195490   0.113012
H  -2.729344  -1.243837  -0.671997
H  -2.792248  -1.026649   0.790193
C  -0.077940  -0.740504  -0.057388
H  -1.406997   1.217469   1.242422
H  -1.381814   0.524725  -0.530998
H  -0.192480  -1.234080   0.753243
H   0.888057  -0.046999   0.094002
H   0.217268  -1.570154  -0.994892
