14
butane_opt
C  -3.959902   0.199666  -0.017112
C  -2.724689  -0.551701  -0.008674
H  -5.116026  -0.462017   0.897545
H  -4.276775   1.356465  -1.305937
H  -3.482011   0.347261   0.473381
C  -1.404525   0.263776   0.091750
H  -3.048529  -1.195836  -0.941686
H  -2.699304  -1.011633   0.793762
C  -0.133956  -0.791926   0.032998
H  -1.355245   1.108209   1.132058
H  -1.322887   0.957978  -0.757604
H   0.033837  -1.266816   0.866410
H   0.865627  -0.168268  -0.046883
H   0.076057  -1.611142  -0.961045
