14
butane_opt
C  -3.822552   0.235165  -0.146190
C  -2.728018  -0.583038   0.194093
H  -4.836445  -0.390639   0.272686
H  -3.692447   1.367369  -1.352288
H  -3.798995   0.367538   0.225037
C  -1.449866   0.252572   0.241626
H  -2.909443  -1.395641  -0.796991
H  -2.757319  -1.218240   1.066063
C  -0.226906  -0.745176  -0.111720
H  -1.484720   1.298540   1.336531
H  -1.623464   0.573559  -0.593210
H   0.212751  -1.394220   0.729103
H   0.784490  -0.071311  -0.548078
H  -0.242421  -1.493552  -1.115011
