butane_opt
 OpenBabel08242015393D

 14 12  0  0  0  0  0  0  0  0999 V2000
   -3.7884    0.2297   -0.1555 C   0  0  0  0  0  0  0  0  0  0  0  0
   -2.7628   -0.5829    0.2905 C   0  0  0  0  0  0  0  0  0  0  0  0
   -4.7215   -0.5344   -0.6934 H   0  0  0  0  0  0  0  0  0  0  0  0
   -3.5598    0.5545   -0.9143 H   0  0  0  0  0  0  0  0  0  0  0  0
   -4.3583    1.2026    0.8995 H   0  0  0  0  0  0  0  0  0  0  0  0
   -1.4525    0.2182    0.1465 C   0  0  0  0  0  0  0  0  0  0  0  0
   -2.6817   -0.9291   -0.4631 H   0  0  0  0  0  0  0  0  0  0  0  0
   -2.6388   -1.2052    1.0929 H   0  0  0  0  0  0  0  0  0  0  0  0
   -0.2183   -0.7385   -0.0870 C   0  0  0  0  0  0  0  0  0  0  0  0
   -1.3053    0.8849    0.9072 H   0  0  0  0  0  0  0  0  0  0  0  0
   -1.5453    0.9671   -0.7822 H   0  0  0  0  0  0  0  0  0  0  0  0
    0.1031   -1.1995    0.6196 H   0  0  0  0  0  0  0  0  0  0  0  0
    0.7209   -0.1862   -0.2997 H   0  0  0  0  0  0  0  0  0  0  0  0
   -0.3343   -1.6038   -1.2527 H   0  0  0  0  0  0  0  0  0  0  0  0
  1  2  1  0  0  0  0
  2  8  1  0  0  0  0
  3  1  1  0  0  0  0
  4  1  1  0  0  0  0
  6  2  1  0  0  0  0
  6 10  1  0  0  0  0
  7  2  1  0  0  0  0
  9  6  1  0  0  0  0
  9 12  1  0  0  0  0
 11  6  1  0  0  0  0
 13  9  1  0  0  0  0
 14  9  1  0  0  0  0
M  RAD  2   1   2   5   2
M  END
$$$$
