butane_opt
 OpenBabel08242015393D

 14 13  0  0  0  0  0  0  0  0999 V2000
   -3.9815    0.2437    0.1987 C   0  0  0  0  0  0  0  0  0  0  0  0
   -2.8003   -0.5756   -0.1007 C   0  0  0  0  0  0  0  0  0  0  0  0
   -4.8019   -0.3387   -0.0361 H   0  0  0  0  0  0  0  0  0  0  0  0
   -4.0703    0.5491   -0.4188 H   0  0  0  0  0  0  0  0  0  0  0  0
   -3.9816    1.2234    1.1958 H   0  0  0  0  0  0  0  0  0  0  0  0
   -1.3797    0.2009   -0.2501 C   0  0  0  0  0  0  0  0  0  0  0  0
   -3.0346   -1.2997   -1.0340 H   0  0  0  0  0  0  0  0  0  0  0  0
   -2.4506   -1.0730    0.6539 H   0  0  0  0  0  0  0  0  0  0  0  0
   -0.0965   -0.7144    0.2042 C   0  0  0  0  0  0  0  0  0  0  0  0
   -1.5972    0.7520    0.5078 H   0  0  0  0  0  0  0  0  0  0  0  0
   -1.1274    0.8321   -1.0271 H   0  0  0  0  0  0  0  0  0  0  0  0
   -0.3266   -1.5389    1.2576 H   0  0  0  0  0  0  0  0  0  0  0  0
    0.9549   -0.0256    0.2659 H   0  0  0  0  0  0  0  0  0  0  0  0
    0.4804   -1.4022   -0.5613 H   0  0  0  0  0  0  0  0  0  0  0  0
  1  5  1  0  0  0  0
  2  1  1  0  0  0  0
  2  8  1  0  0  0  0
  3  1  1  0  0  0  0
  4  1  1  0  0  0  0
  6  2  1  0  0  0  0
  6  9  1  0  0  0  0
  6 10  1  0  0  0  0
  7  2  1  0  0  0  0
  9 13  1  0  0  0  0
  9 12  1  0  0  0  0
 11  6  1  0  0  0  0
 14  9  1  0  0  0  0
M  END
$$$$
