14
butane_opt
C  -3.955605   0.261374   0.056313
C  -2.727620  -0.570351  -0.045504
H  -5.033257  -0.676901  -0.079776
H  -3.913500   0.503746  -0.636478
H  -3.917139   0.973997   0.966620
C  -1.431862   0.219787   0.007336
H  -2.701434  -1.362418  -0.964197
H  -2.869450  -1.076798   0.790627
C  -0.087401  -0.745604   0.040822
H  -1.232815   1.048538   1.019600
H  -1.546890   1.085782  -0.857145
H   0.233942  -1.895034   1.351314
H   0.692379  -0.297869  -0.397492
H  -0.270609  -0.805319  -0.346176
