butane_opt
 OpenBabel08242015393D

 14 13  0  0  0  0  0  0  0  0999 V2000
   -3.9093    0.2103   -0.1372 C   0  0  0  0  0  0  0  0  0  0  0  0
   -2.7783   -0.5350    0.3059 C   0  0  0  0  0  0  0  0  0  0  0  0
   -4.9039   -0.5315   -0.9447 H   0  0  0  0  0  0  0  0  0  0  0  0
   -3.5203    0.7093   -0.9205 H   0  0  0  0  0  0  0  0  0  0  0  0
   -4.3886    1.0355    0.7274 H   0  0  0  0  0  0  0  0  0  0  0  0
   -1.3966    0.2491    0.1114 C   0  0  0  0  0  0  0  0  0  0  0  0
   -2.7847   -0.9306   -0.4591 H   0  0  0  0  0  0  0  0  0  0  0  0
   -2.9880   -1.3885    1.4514 H   0  0  0  0  0  0  0  0  0  0  0  0
   -0.0971   -0.7566   -0.1340 C   0  0  0  0  0  0  0  0  0  0  0  0
   -1.4215    1.1553    1.0570 H   0  0  0  0  0  0  0  0  0  0  0  0
   -1.6903    0.4053   -0.4834 H   0  0  0  0  0  0  0  0  0  0  0  0
    0.2509   -1.2776    0.6583 H   0  0  0  0  0  0  0  0  0  0  0  0
    0.7058   -0.1756   -0.2610 H   0  0  0  0  0  0  0  0  0  0  0  0
   -0.0877   -1.5266   -1.1565 H   0  0  0  0  0  0  0  0  0  0  0  0
  1  2  1  0  0  0  0
  1  5  1  0  0  0  0
  2  8  1  0  0  0  0
  3  1  1  0  0  0  0
  4  1  1  0  0  0  0
  6  2  1  0  0  0  0
  6 10  1  0  0  0  0
  7  2  1  0  0  0  0
  9  6  1  0  0  0  0
  9 12  1  0  0  0  0
 11  6  1  0  0  0  0
 13  9  1  0  0  0  0
 14  9  1  0  0  0  0
M  END
$$$$
