14
butane_opt
C  -3.907128   0.236803  -0.072068
C  -2.670150  -0.491243   0.125961
H  -5.064786  -0.500589   0.368399
H  -3.899922   1.235608  -1.239688
H  -3.630406   0.195981   0.405238
C  -1.411040   0.182755   0.138503
H  -2.850832  -1.469655  -0.855407
H  -2.633317  -0.957254   0.968578
C  -0.232469  -0.733127  -0.063645
H  -1.305384   0.907912   1.115450
H  -1.530173   0.733171  -0.749895
H  -0.036166  -1.284142   0.757701
H   0.742017  -0.134086   0.108115
H  -0.171069  -1.537118  -1.061872
