butane_opt
 OpenBabel08242015393D

 14 13  0  0  0  0  0  0  0  0999 V2000
   -3.9440    0.2379    0.1964 C   0  0  0  0  0  0  0  0  0  0  0  0
   -2.7702   -0.6208   -0.2063 C   0  0  0  0  0  0  0  0  0  0  0  0
   -4.8074   -0.3139    0.5544 H   0  0  0  0  0  0  0  0  0  0  0  0
   -4.3826    0.9757   -0.7202 H   0  0  0  0  0  0  0  0  0  0  0  0
   -3.6284    0.6936    0.9510 H   0  0  0  0  0  0  0  0  0  0  0  0
   -1.3498    0.2775   -0.1393 C   0  0  0  0  0  0  0  0  0  0  0  0
   -2.8559   -1.2753   -1.0236 H   0  0  0  0  0  0  0  0  0  0  0  0
   -2.8353   -1.2781    0.6094 H   0  0  0  0  0  0  0  0  0  0  0  0
   -0.1351   -0.7561    0.2119 C   0  0  0  0  0  0  0  0  0  0  0  0
   -1.7398    1.1619    0.7384 H   0  0  0  0  0  0  0  0  0  0  0  0
   -1.1486    1.0651   -1.1451 H   0  0  0  0  0  0  0  0  0  0  0  0
   -0.0961   -1.3871    1.1015 H   0  0  0  0  0  0  0  0  0  0  0  0
    0.7574   -0.2641    0.0353 H   0  0  0  0  0  0  0  0  0  0  0  0
    0.1085   -1.5123   -0.4571 H   0  0  0  0  0  0  0  0  0  0  0  0
  1  3  1  0  0  0  0
  1  5  1  0  0  0  0
  2  6  1  0  0  0  0
  2  1  1  0  0  0  0
  2  8  1  0  0  0  0
  4  1  1  0  0  0  0
  6  9  1  0  0  0  0
  6 10  1  0  0  0  0
  7  2  1  0  0  0  0
  9 12  1  0  0  0  0
 11  6  1  0  0  0  0
 13  9  1  0  0  0  0
 14  9  1  0  0  0  0
M  END
$$$$
