butane_opt
 OpenBabel08242015393D

 14  9  0  0  0  0  0  0  0  0999 V2000
   -3.9941    0.2253    0.1622 C   0  0  0  0  0  1  0  0  0  0  0  0
   -2.7051   -0.5926   -0.0672 C   0  0  0  0  0  0  0  0  0  0  0  0
   -4.9511   -0.3598   -0.8082 H   0  0  0  0  0  0  0  0  0  0  0  0
   -3.6196    0.0861   -0.2279 H   0  0  0  0  0  0  0  0  0  0  0  0
   -4.0591    1.5301    1.5465 H   0  0  0  0  0  0  0  0  0  0  0  0
   -1.3746    0.3081   -0.1948 C   0  0  0  0  0  0  0  0  0  0  0  0
   -3.2139   -1.2747   -0.8228 H   0  0  0  0  0  0  0  0  0  0  0  0
   -2.6083   -1.2103    0.8922 H   0  0  0  0  0  0  0  0  0  0  0  0
   -0.1511   -0.7597    0.1473 C   0  0  0  0  0  0  0  0  0  0  0  0
   -1.4229    0.8812    0.5719 H   0  0  0  0  0  0  0  0  0  0  0  0
   -1.1888    1.0016   -1.1649 H   0  0  0  0  0  0  0  0  0  0  0  0
   -0.0532   -1.9702    1.5385 H   0  0  0  0  0  0  0  0  0  0  0  0
    0.6308   -0.2400    0.0007 H   0  0  0  0  0  0  0  0  0  0  0  0
    0.1530   -1.1312   -0.5820 H   0  0  0  0  0  0  0  0  0  0  0  0
  2  8  1  0  0  0  0
  3  1  1  0  0  0  0
  4  2  1  0  0  0  0
  6  9  1  0  0  0  0
  6 10  1  0  0  0  0
  7  2  1  0  0  0  0
 11  6  1  0  0  0  0
 13  9  1  0  0  0  0
 14  9  1  0  0  0  0
M  RAD  5   2   2   5   2   6   2   9   2  12   2
M  END
$$$$
