14
butane_opt
C  -3.918111   0.302764  -0.140385
C  -2.666483  -0.687236   0.129459
H  -4.635731  -0.161861  -0.042311
H  -3.700828   1.291845  -1.265537
H  -4.226082   0.820452   0.602649
C  -1.411290   0.106971   0.257032
H  -2.647080  -1.243902  -0.499224
H  -2.954318  -1.341961   1.167199
C  -0.193744  -0.623869  -0.147796
H  -1.244804   1.203140   1.503687
H  -1.527603   0.434254  -0.498507
H   0.152179  -1.647481   0.951653
H   0.636135   0.039326  -0.805398
H  -0.654149  -1.000338  -0.843472
