butane_opt
 OpenBabel08242015393D

 14  9  0  0  0  0  0  0  0  0999 V2000
   -3.9303    0.2267   -0.0814 C   0  0  0  0  0  1  0  0  0  0  0  0
   -2.6478   -0.5189    0.0257 C   0  0  0  0  0  0  0  0  0  0  0  0
   -5.0210   -0.6314    0.8520 H   0  0  0  0  0  0  0  0  0  0  0  0
   -4.2401    1.3793   -1.3627 H   0  0  0  0  0  0  0  0  0  0  0  0
   -3.3846    0.3166    0.4857 H   0  0  0  0  0  0  0  0  0  0  0  0
   -1.3983    0.1790    0.1276 C   0  0  0  0  0  0  0  0  0  0  0  0
   -2.5049   -1.1674   -0.7024 H   0  0  0  0  0  0  0  0  0  0  0  0
   -2.8209   -1.3534    1.0273 H   0  0  0  0  0  0  0  0  0  0  0  0
   -0.2293   -0.7440   -0.0440 C   0  0  0  0  0  0  0  0  0  0  0  0
   -1.4213    1.1806    1.3203 H   0  0  0  0  0  0  0  0  0  0  0  0
   -1.7776    0.7162   -0.5333 H   0  0  0  0  0  0  0  0  0  0  0  0
    0.1496   -1.0594    0.7551 H   0  0  0  0  0  0  0  0  0  0  0  0
    0.7657   -0.1530    0.1103 H   0  0  0  0  0  0  0  0  0  0  0  0
   -0.2889   -1.3976   -0.8922 H   0  0  0  0  0  0  0  0  0  0  0  0
  1  5  1  0  0  0  0
  2  6  1  0  0  0  0
  2  8  1  0  0  0  0
  7  2  1  0  0  0  0
  9 13  1  0  0  0  0
  9  6  1  0  0  0  0
  9 12  1  0  0  0  0
 11  6  1  0  0  0  0
 14  9  1  0  0  0  0
M  RAD  5   2   2   3   2   4   2   6   2  10   2
M  END
$$$$
