14
butane_opt
C  -3.840870   0.227254   0.166201
C  -2.770337  -0.528946  -0.058029
H  -4.803520  -0.381083  -0.634710
H  -3.628138  -0.167630  -0.228169
H  -3.846747   1.543692   1.476454
C  -1.471523   0.228814  -0.177342
H  -2.531366  -1.272986  -1.010928
H  -2.768034  -1.085129   0.858565
C  -0.134604  -0.739412   0.196157
H  -1.586268   0.474532   0.404658
H  -1.452621   1.261823  -1.332772
H  -0.464612  -1.652689   1.213685
H   0.840722  -0.176698  -0.153602
H  -0.154330  -1.294542  -0.568661
