14
butane_opt
C  -4.010023   0.205237   0.146215
C  -2.763807  -0.556059  -0.178226
H  -4.729314  -0.312162   0.026558
H  -3.701597   0.587981  -0.555920
H  -3.984128   1.028297   1.049958
C  -1.410232   0.286113  -0.031786
H  -3.062174  -1.357410  -1.173972
H  -2.650685  -1.057734   0.734876
C  -0.062254  -0.795986   0.141340
H  -1.263944   1.057078   0.842506
H  -1.356840   0.814997  -0.917095
H   0.207646  -2.153092   1.594674
H   0.816469  -0.108303  -0.757844
H  -0.338343  -0.635007  -0.221236
