butane_opt
 OpenBabel08242015393D

 14 12  0  0  0  0  0  0  0  0999 V2000
   -3.9621    0.2261    0.2046 C   0  0  0  0  0  0  0  0  0  0  0  0
   -2.6953   -0.5998   -0.2289 C   0  0  0  0  0  0  0  0  0  0  0  0
   -4.9423   -0.4272    1.1365 H   0  0  0  0  0  0  0  0  0  0  0  0
   -4.3107    1.2055   -0.7549 H   0  0  0  0  0  0  0  0  0  0  0  0
   -3.5453    0.6596    0.8648 H   0  0  0  0  0  0  0  0  0  0  0  0
   -1.3848    0.2799   -0.1735 C   0  0  0  0  0  0  0  0  0  0  0  0
   -3.0130   -1.5661   -1.4013 H   0  0  0  0  0  0  0  0  0  0  0  0
   -2.5127   -1.0870    0.4655 H   0  0  0  0  0  0  0  0  0  0  0  0
   -0.1819   -0.7727    0.2425 C   0  0  0  0  0  0  0  0  0  0  0  0
   -1.6523    1.1162    0.7594 H   0  0  0  0  0  0  0  0  0  0  0  0
   -0.9536    0.7824   -1.1333 H   0  0  0  0  0  0  0  0  0  0  0  0
   -0.1945   -1.4666    1.1362 H   0  0  0  0  0  0  0  0  0  0  0  0
    0.6139   -0.2434    0.1918 H   0  0  0  0  0  0  0  0  0  0  0  0
    0.2093   -1.0510   -0.3732 H   0  0  0  0  0  0  0  0  0  0  0  0
  1  5  1  0  0  0  0
  1  3  1  0  0  0  0
  2  6  1  0  0  0  0
  2  1  1  0  0  0  0
  2  8  1  0  0  0  0
  4  1  1  0  0  0  0
  6  9  1  0  0  0  0
  6 10  1  0  0  0  0
  9 12  1  0  0  0  0
 11  6  1  0  0  0  0
 13  9  1  0  0  0  0
 14  9  1  0  0  0  0
M  RAD  2   2   2   7   2
M  END
$$$$
