14
butane_opt
C  -3.911789   0.283325  -0.128262
C  -2.695757  -0.572279   0.175099
H  -4.963092  -0.352561  -0.322340
H  -3.653769   1.262869  -1.234779
H  -4.029634   0.777045   0.495074
C  -1.420713   0.087670   0.214951
H  -2.589579  -1.220936  -0.569229
H  -2.562263  -1.603284   1.223676
C  -0.201858  -0.638676  -0.136317
H  -1.114159   1.151759   1.396987
H  -1.566664   0.317008  -0.329031
H   0.082436  -1.579858   0.870079
H   0.770002  -0.013054  -0.556422
H  -0.654043  -1.105533  -1.057439
