butane_opt
 OpenBabel08242015393D

 14 11  0  0  0  0  0  0  0  0999 V2000
   -3.9496    0.3286    0.1231 C   0  0  0  0  0  0  0  0  0  0  0  0
   -2.6956   -0.6855   -0.0334 C   0  0  0  0  0  0  0  0  0  0  0  0
   -4.9008   -0.3076   -0.3721 H   0  0  0  0  0  0  0  0  0  0  0  0
   -3.9839    0.3606   -0.3726 H   0  0  0  0  0  0  0  0  0  0  0  0
   -4.2956    1.3762    1.1805 H   0  0  0  0  0  0  0  0  0  0  0  0
   -1.3873    0.1534   -0.1009 C   0  0  0  0  0  0  0  0  0  0  0  0
   -2.8718   -1.2841   -1.0232 H   0  0  0  0  0  0  0  0  0  0  0  0
   -2.6122   -1.1696    0.7269 H   0  0  0  0  0  0  0  0  0  0  0  0
   -0.1796   -0.6205    0.1594 C   0  0  0  0  0  0  0  0  0  0  0  0
   -1.3092    0.4100    0.4772 H   0  0  0  0  0  0  0  0  0  0  0  0
   -1.0818    1.0917   -1.2315 H   0  0  0  0  0  0  0  0  0  0  0  0
   -0.0576   -1.4596    1.1019 H   0  0  0  0  0  0  0  0  0  0  0  0
    0.6692   -0.1493   -0.1708 H   0  0  0  0  0  0  0  0  0  0  0  0
   -0.0472   -1.4737   -0.6118 H   0  0  0  0  0  0  0  0  0  0  0  0
  2  1  1  0  0  0  0
  2  8  1  0  0  0  0
  3  1  1  0  0  0  0
  6  2  1  0  0  0  0
  6  9  1  0  0  0  0
  6 10  1  0  0  0  0
  7  2  1  0  0  0  0
  9 12  1  0  0  0  0
 11  6  1  0  0  0  0
 13  9  1  0  0  0  0
 14  9  1  0  0  0  0
M  RAD  3   1   3   4   2   5   2
M  END
$$$$
