butane_opt
 OpenBabel08242015393D

 14 12  0  0  0  0  0  0  0  0999 V2000
   -3.9672    0.3070    0.1915 C   0  0  0  0  0  0  0  0  0  0  0  0
   -2.7070   -0.6775   -0.0775 C   0  0  0  0  0  0  0  0  0  0  0  0
   -4.8413   -0.2156    0.3416 H   0  0  0  0  0  0  0  0  0  0  0  0
   -3.9347    1.0222   -0.8053 H   0  0  0  0  0  0  0  0  0  0  0  0
   -4.1367    1.0158    1.0329 H   0  0  0  0  0  0  0  0  0  0  0  0
   -1.4032    0.1346   -0.1911 C   0  0  0  0  0  0  0  0  0  0  0  0
   -2.8484   -1.4910   -1.0154 H   0  0  0  0  0  0  0  0  0  0  0  0
   -2.2987   -1.1078    0.6132 H   0  0  0  0  0  0  0  0  0  0  0  0
   -0.1422   -0.6733    0.1533 C   0  0  0  0  0  0  0  0  0  0  0  0
   -1.6990    0.4689    0.5500 H   0  0  0  0  0  0  0  0  0  0  0  0
   -1.1492    0.9259   -1.2391 H   0  0  0  0  0  0  0  0  0  0  0  0
   -0.6440   -0.8278    0.7721 H   0  0  0  0  0  0  0  0  0  0  0  0
    1.0000    0.1343    0.7961 H   0  0  0  0  0  0  0  0  0  0  0  0
    0.1452   -1.4361   -0.5572 H   0  0  0  0  0  0  0  0  0  0  0  0
  1  3  1  0  0  0  0
  1  5  1  0  0  0  0
  2  1  1  0  0  0  0
  2  8  1  0  0  0  0
  4  1  1  0  0  0  0
  6  2  1  0  0  0  0
  6  9  1  0  0  0  0
  6 10  1  0  0  0  0
  7  2  1  0  0  0  0
  9 12  1  0  0  0  0
 11  6  1  0  0  0  0
 14  9  1  0  0  0  0
M  RAD  2   9   2  13   2
M  END
$$$$
