14
butane_opt
C  -3.970947   0.262090   0.100343
C  -2.683799  -0.654214  -0.020364
H  -4.670505  -0.158562  -0.263716
H  -4.126949   0.347796  -0.424109
H  -4.214740   1.523141   1.308549
C  -1.373435   0.199546  -0.146939
H  -2.958978  -1.308592  -0.991893
H  -2.496803  -1.457020   1.049844
C  -0.127655  -0.668569   0.154747
H  -1.607019   0.660963   0.438765
H  -1.296780   0.971975  -1.249456
H  -0.192589  -1.270483   1.034936
H   0.624063  -0.105626   0.371383
H  -0.188721  -1.360519  -0.829107
