14
butane_opt
C  -3.935498   0.266426   0.044936
C  -2.697108  -0.615019   0.008272
H  -4.841341  -0.357360   0.109833
H  -3.975885   0.979891  -0.912715
H  -3.869105   0.866479   0.870177
C  -1.403437   0.189729  -0.008964
H  -2.748489  -1.327856  -0.872921
H  -2.691671  -1.271613   0.890239
C  -0.172632  -0.692724   0.047536
H  -1.437443   0.896186   0.868780
H  -1.387807   0.780006  -0.866288
H  -0.180002  -1.334893   0.985099
H   0.727394  -0.103335   0.042268
H  -0.120242  -1.370599  -0.790200
