14
butane_opt
C  -3.962030   0.273338   0.016049
C  -2.742498  -0.593544   0.137532
H  -4.770526  -0.327450  -0.203689
H  -4.184377   1.061832  -1.036780
H  -4.289764   0.900997   0.668014
C  -1.340156   0.136893   0.001972
H  -2.738013  -1.439623  -0.754685
H  -2.696618  -1.241027   1.106794
C  -0.126380  -0.704684  -0.008930
H  -1.083265   0.699312   0.829642
H  -1.645391   0.950947  -1.048802
H  -0.515067  -0.753591   0.528165
H   0.898335  -0.003594   0.591193
H   0.091452  -1.660822  -1.048166
