14
butane_opt
C  -3.938075   0.280189  -0.013835
C  -2.595577  -0.634951  -0.017335
H  -4.750802  -0.214116   0.862008
H  -4.047974   1.513863  -1.231195
H  -3.630046   0.431132   0.608601
C  -1.444794   0.109175   0.091524
H  -2.761223  -1.495970  -0.940430
H  -2.622268  -1.335858   0.895215
C  -0.232698  -0.631849  -0.014654
H  -1.277924   1.089038   1.067959
H  -1.530589   0.627294  -0.701020
H  -0.331785  -1.262170   0.880704
H   0.515917  -0.017677   0.177936
H  -0.086945  -1.240867  -0.765151
