butane_opt
 OpenBabel08242015393D

 14 10  0  0  0  0  0  0  0  0999 V2000
   -3.9841    0.3325    0.0986 C   0  0  0  0  0  0  0  0  0  0  0  0
   -2.7143   -0.7415   -0.1469 C   0  0  0  0  0  0  0  0  0  0  0  0
   -4.8575   -0.1537    0.2690 H   0  0  0  0  0  0  0  0  0  0  0  0
   -4.4928    1.0280   -0.7181 H   0  0  0  0  0  0  0  0  0  0  0  0
   -3.9999    1.2540    1.0721 H   0  0  0  0  0  0  0  0  0  0  0  0
   -1.3211    0.1491   -0.0153 C   0  0  0  0  0  0  0  0  0  0  0  0
   -2.5195   -1.4956   -0.9647 H   0  0  0  0  0  0  0  0  0  0  0  0
   -2.9703   -1.3820    0.7137 H   0  0  0  0  0  0  0  0  0  0  0  0
   -0.1377   -0.6419    0.0971 C   0  0  0  0  0  1  0  0  0  0  0  0
   -1.3929    0.8773    0.9741 H   0  0  0  0  0  0  0  0  0  0  0  0
   -1.2765    0.7337   -0.8523 H   0  0  0  0  0  0  0  0  0  0  0  0
    0.0529   -1.8054    1.3848 H   0  0  0  0  0  0  0  0  0  0  0  0
    0.7616    0.0409   -0.4364 H   0  0  0  0  0  0  0  0  0  0  0  0
   -0.4521   -0.7070   -0.3106 H   0  0  0  0  0  0  0  0  0  0  0  0
  1  3  1  0  0  0  0
  1  5  1  0  0  0  0
  2  1  1  0  0  0  0
  2  8  1  0  0  0  0
  4  1  1  0  0  0  0
  6 10  1  0  0  0  0
  7  2  1  0  0  0  0
 11  6  1  0  0  0  0
 13  9  1  0  0  0  0
 14  6  1  0  0  0  0
M  RAD  3   2   2   6   2  12   2
M  END
$$$$
