butane_opt
 OpenBabel08242015393D

 14 11  0  0  0  0  0  0  0  0999 V2000
   -3.8348    0.2038   -0.1262 C   0  0  0  0  0  0  0  0  0  0  0  0
   -2.6989   -0.5539    0.2413 C   0  0  0  0  0  0  0  0  0  0  0  0
   -4.8779   -0.5439    0.1655 H   0  0  0  0  0  0  0  0  0  0  0  0
   -3.8804    1.2393   -1.2695 H   0  0  0  0  0  0  0  0  0  0  0  0
   -3.9499    0.6789    0.5599 H   0  0  0  0  0  0  0  0  0  0  0  0
   -1.4511    0.2886    0.1213 C   0  0  0  0  0  0  0  0  0  0  0  0
   -2.8684   -1.2936   -0.7185 H   0  0  0  0  0  0  0  0  0  0  0  0
   -2.8555   -1.1986    1.1000 H   0  0  0  0  0  0  0  0  0  0  0  0
   -0.1905   -0.7765   -0.1230 C   0  0  0  0  0  0  0  0  0  0  0  0
   -1.1557    0.8720    1.0432 H   0  0  0  0  0  0  0  0  0  0  0  0
   -1.6215    0.8508   -0.7888 H   0  0  0  0  0  0  0  0  0  0  0  0
   -0.2252   -0.9492    0.4702 H   0  0  0  0  0  0  0  0  0  0  0  0
    0.7898   -0.1998    0.5733 H   0  0  0  0  0  0  0  0  0  0  0  0
   -0.2116   -1.8769   -1.0973 H   0  0  0  0  0  0  0  0  0  0  0  0
  1  3  1  0  0  0  0
  1  2  1  0  0  0  0
  1  5  1  0  0  0  0
  2  8  1  0  0  0  0
  6  2  1  0  0  0  0
  6 10  1  0  0  0  0
  7  2  1  0  0  0  0
  9  6  1  0  0  0  0
  9 13  1  0  0  0  0
 11  6  1  0  0  0  0
 14  9  1  0  0  0  0
M  RAD  4   1   2   4   2   9   2  12   2
M  END
$$$$
