butane_opt
 OpenBabel08242015393D

 14 13  0  0  0  0  0  0  0  0999 V2000
   -3.9362    0.2580    0.0326 C   0  0  0  0  0  0  0  0  0  0  0  0
   -2.7091   -0.6100    0.0272 C   0  0  0  0  0  0  0  0  0  0  0  0
   -4.8488   -0.3722   -0.0115 H   0  0  0  0  0  0  0  0  0  0  0  0
   -3.9817    0.8335   -0.8380 H   0  0  0  0  0  0  0  0  0  0  0  0
   -3.9778    0.9854    0.9117 H   0  0  0  0  0  0  0  0  0  0  0  0
   -1.4065    0.1992   -0.0041 C   0  0  0  0  0  0  0  0  0  0  0  0
   -2.7511   -1.3339   -0.8509 H   0  0  0  0  0  0  0  0  0  0  0  0
   -2.7380   -1.1836    0.8871 H   0  0  0  0  0  0  0  0  0  0  0  0
   -0.1506   -0.6972    0.0445 C   0  0  0  0  0  0  0  0  0  0  0  0
   -1.3783    0.8423    0.8294 H   0  0  0  0  0  0  0  0  0  0  0  0
   -1.4608    0.8075   -0.8828 H   0  0  0  0  0  0  0  0  0  0  0  0
   -0.0753   -1.4188    1.0104 H   0  0  0  0  0  0  0  0  0  0  0  0
    0.7368   -0.1298   -0.0353 H   0  0  0  0  0  0  0  0  0  0  0  0
   -0.1178   -1.3003   -0.7650 H   0  0  0  0  0  0  0  0  0  0  0  0
  1  5  1  0  0  0  0
  2  1  1  0  0  0  0
  2  8  1  0  0  0  0
  3  1  1  0  0  0  0
  4  1  1  0  0  0  0
  6  2  1  0  0  0  0
  6  9  1  0  0  0  0
  6 10  1  0  0  0  0
  7  2  1  0  0  0  0
  9 12  1  0  0  0  0
 11  6  1  0  0  0  0
 13  9  1  0  0  0  0
 14  9  1  0  0  0  0
M  END
$$$$
