butane_opt
 OpenBabel08242015393D

 14 11  0  0  0  0  0  0  0  0999 V2000
   -3.9455    0.2075    0.0776 C   0  0  0  0  0  0  0  0  0  0  0  0
   -2.7344   -0.5670   -0.0768 C   0  0  0  0  0  0  0  0  0  0  0  0
   -4.8498   -0.3469   -0.0745 H   0  0  0  0  0  0  0  0  0  0  0  0
   -3.9894    0.6874   -0.6274 H   0  0  0  0  0  0  0  0  0  0  0  0
   -3.9810    1.0033    1.0537 H   0  0  0  0  0  0  0  0  0  0  0  0
   -1.4567    0.2315    0.0236 C   0  0  0  0  0  0  0  0  0  0  0  0
   -2.8057   -1.4080   -1.0091 H   0  0  0  0  0  0  0  0  0  0  0  0
   -3.0201   -0.9471    0.6696 H   0  0  0  0  0  0  0  0  0  0  0  0
   -0.0418   -0.7083    0.0358 C   0  0  0  0  0  0  0  0  0  0  0  0
   -1.4252    1.0470    0.8269 H   0  0  0  0  0  0  0  0  0  0  0  0
   -1.5642    0.7231   -0.7439 H   0  0  0  0  0  0  0  0  0  0  0  0
    0.2059   -2.2885    1.6705 H   0  0  0  0  0  0  0  0  0  0  0  0
    0.7871   -0.2827   -0.5722 H   0  0  0  0  0  0  0  0  0  0  0  0
   -0.2390   -0.6301   -0.3433 H   0  0  0  0  0  0  0  0  0  0  0  0
  1  5  1  0  0  0  0
  2  6  1  0  0  0  0
  2  1  1  0  0  0  0
  2  8  1  0  0  0  0
  3  1  1  0  0  0  0
  4  1  1  0  0  0  0
  6  9  1  0  0  0  0
  6 10  1  0  0  0  0
  7  2  1  0  0  0  0
 11  6  1  0  0  0  0
 13  9  1  0  0  0  0
M  RAD  3   9   3  12   2  14   2
M  END
$$$$
