butane_opt
 OpenBabel08242015393D

 14 13  0  0  0  0  0  0  0  0999 V2000
   -3.8475    0.2499    0.0985 C   0  0  0  0  0  0  0  0  0  0  0  0
   -2.7514   -0.5424    0.0118 C   0  0  0  0  0  0  0  0  0  0  0  0
   -4.8210   -0.4024    0.0377 H   0  0  0  0  0  0  0  0  0  0  0  0
   -3.7297    0.5010   -0.6046 H   0  0  0  0  0  0  0  0  0  0  0  0
   -3.8273    0.9732    1.0094 H   0  0  0  0  0  0  0  0  0  0  0  0
   -1.4360    0.1891   -0.1995 C   0  0  0  0  0  0  0  0  0  0  0  0
   -2.7705   -1.2155   -0.7617 H   0  0  0  0  0  0  0  0  0  0  0  0
   -2.7187   -1.2467    1.0564 H   0  0  0  0  0  0  0  0  0  0  0  0
   -0.1850   -0.7516    0.1159 C   0  0  0  0  0  0  0  0  0  0  0  0
   -1.5018    1.0302    0.7120 H   0  0  0  0  0  0  0  0  0  0  0  0
   -1.5679    0.9194   -1.0478 H   0  0  0  0  0  0  0  0  0  0  0  0
   -0.5807   -0.9819    0.9070 H   0  0  0  0  0  0  0  0  0  0  0  0
    0.9320   -0.0520    0.6527 H   0  0  0  0  0  0  0  0  0  0  0  0
    0.1893   -1.7624   -0.8519 H   0  0  0  0  0  0  0  0  0  0  0  0
  1  5  1  0  0  0  0
  2  1  1  0  0  0  0
  2  8  1  0  0  0  0
  3  1  1  0  0  0  0
  4  1  1  0  0  0  0
  6  2  1  0  0  0  0
  6  9  1  0  0  0  0
  6 10  1  0  0  0  0
  7  2  1  0  0  0  0
  9 13  1  0  0  0  0
  9 12  1  0  0  0  0
 11  6  1  0  0  0  0
 14  9  1  0  0  0  0
M  END
$$$$
