butane_opt
 OpenBabel08242015393D

 14 10  0  0  0  0  0  0  0  0999 V2000
   -3.9517    0.3018    0.1674 C   0  0  0  0  0  0  0  0  0  0  0  0
   -2.6271   -0.6760   -0.0777 C   0  0  0  0  0  0  0  0  0  0  0  0
   -4.8597   -0.1145   -0.4567 H   0  0  0  0  0  0  0  0  0  0  0  0
   -3.7355    0.4173   -0.3308 H   0  0  0  0  0  0  0  0  0  0  0  0
   -4.0228    1.6633    1.5831 H   0  0  0  0  0  0  0  0  0  0  0  0
   -1.4038    0.1077   -0.2100 C   0  0  0  0  0  0  0  0  0  0  0  0
   -2.8639   -1.4249   -1.0313 H   0  0  0  0  0  0  0  0  0  0  0  0
   -2.3727   -1.5002    0.8827 H   0  0  0  0  0  0  0  0  0  0  0  0
   -0.2344   -0.5884    0.1724 C   0  0  0  0  0  0  0  0  0  0  0  0
   -1.4979    0.5743    0.5161 H   0  0  0  0  0  0  0  0  0  0  0  0
   -1.4819    0.8954   -1.2491 H   0  0  0  0  0  0  0  0  0  0  0  0
   -0.5897   -1.4903    1.3877 H   0  0  0  0  0  0  0  0  0  0  0  0
    0.7124    0.0165    0.1991 H   0  0  0  0  0  0  0  0  0  0  0  0
    0.2218   -1.2239   -0.6328 H   0  0  0  0  0  0  0  0  0  0  0  0
  2  1  1  0  0  0  0
  2  8  1  0  0  0  0
  3  1  1  0  0  0  0
  6  2  1  0  0  0  0
  6  9  1  0  0  0  0
  6 10  1  0  0  0  0
  7  2  1  0  0  0  0
  9 13  1  0  0  0  0
 11  6  1  0  0  0  0
 14  9  1  0  0  0  0
M  RAD  5   1   3   4   2   5   2   9   2  12   2
M  END
$$$$
