butane_opt
 OpenBabel08242015393D

 14 12  0  0  0  0  0  0  0  0999 V2000
   -3.9239    0.2376    0.1530 C   0  0  0  0  0  0  0  0  0  0  0  0
   -2.6651   -0.5190   -0.0399 C   0  0  0  0  0  0  0  0  0  0  0  0
   -4.9233   -0.4534    0.1056 H   0  0  0  0  0  0  0  0  0  0  0  0
   -3.8765    0.8233   -0.7324 H   0  0  0  0  0  0  0  0  0  0  0  0
   -3.8477    0.8352    1.1592 H   0  0  0  0  0  0  0  0  0  0  0  0
   -1.3972    0.1498   -0.2246 C   0  0  0  0  0  0  0  0  0  0  0  0
   -2.8305   -1.2277   -0.8840 H   0  0  0  0  0  0  0  0  0  0  0  0
   -2.4529   -1.2764    0.7897 H   0  0  0  0  0  0  0  0  0  0  0  0
   -0.1947   -0.6832    0.1896 C   0  0  0  0  0  0  0  0  0  0  0  0
   -1.5922    0.7324    0.5237 H   0  0  0  0  0  0  0  0  0  0  0  0
   -1.4784    0.7657   -1.0994 H   0  0  0  0  0  0  0  0  0  0  0  0
   -0.6295   -0.8903    0.9226 H   0  0  0  0  0  0  0  0  0  0  0  0
    0.6615   -0.1489    0.6534 H   0  0  0  0  0  0  0  0  0  0  0  0
    0.1363   -1.8678   -0.9975 H   0  0  0  0  0  0  0  0  0  0  0  0
  1  5  1  0  0  0  0
  2  1  1  0  0  0  0
  2  8  1  0  0  0  0
  3  1  1  0  0  0  0
  4  1  1  0  0  0  0
  6  2  1  0  0  0  0
  6  9  1  0  0  0  0
  6 10  1  0  0  0  0
  7  2  1  0  0  0  0
  9 13  1  0  0  0  0
  9 12  1  0  0  0  0
 11  6  1  0  0  0  0
M  RAD  2   9   2  14   2
M  END
$$$$
