butane_opt
 OpenBabel08242015393D

 14 13  0  0  0  0  0  0  0  0999 V2000
   -3.9285    0.2593    0.0033 C   0  0  0  0  0  0  0  0  0  0  0  0
   -2.7099   -0.6088    0.0503 C   0  0  0  0  0  0  0  0  0  0  0  0
   -4.8354   -0.3586    0.0575 H   0  0  0  0  0  0  0  0  0  0  0  0
   -3.9352    0.8962   -0.8986 H   0  0  0  0  0  0  0  0  0  0  0  0
   -3.9285    0.8999    0.8400 H   0  0  0  0  0  0  0  0  0  0  0  0
   -1.4146    0.1912    0.0213 C   0  0  0  0  0  0  0  0  0  0  0  0
   -2.6986   -1.2240   -0.7620 H   0  0  0  0  0  0  0  0  0  0  0  0
   -2.7460   -1.2813    1.0084 H   0  0  0  0  0  0  0  0  0  0  0  0
   -0.1638   -0.7057    0.0173 C   0  0  0  0  0  0  0  0  0  0  0  0
   -1.3818    0.9019    0.8965 H   0  0  0  0  0  0  0  0  0  0  0  0
   -1.4349    0.8387   -0.8811 H   0  0  0  0  0  0  0  0  0  0  0  0
   -0.1688   -1.2230    0.8559 H   0  0  0  0  0  0  0  0  0  0  0  0
    0.7837   -0.0893    0.0779 H   0  0  0  0  0  0  0  0  0  0  0  0
   -0.0797   -1.4667   -0.8732 H   0  0  0  0  0  0  0  0  0  0  0  0
  1  2  1  0  0  0  0
  1  3  1  0  0  0  0
  1  5  1  0  0  0  0
  2  8  1  0  0  0  0
  4  1  1  0  0  0  0
  6  2  1  0  0  0  0
  6 10  1  0  0  0  0
  7  2  1  0  0  0  0
  9  6  1  0  0  0  0
  9 13  1  0  0  0  0
  9 12  1  0  0  0  0
 11  6  1  0  0  0  0
 14  9  1  0  0  0  0
M  END
$$$$
