butane_opt
 OpenBabel08242015393D

 14 11  0  0  0  0  0  0  0  0999 V2000
   -3.9760    0.2176    0.0813 C   0  0  0  0  0  0  0  0  0  0  0  0
   -2.7375   -0.5403   -0.0591 C   0  0  0  0  0  0  0  0  0  0  0  0
   -4.9148   -0.4126    0.5235 H   0  0  0  0  0  0  0  0  0  0  0  0
   -4.4259    0.9882   -0.9176 H   0  0  0  0  0  0  0  0  0  0  0  0
   -3.5623    0.4480    0.7121 H   0  0  0  0  0  0  0  0  0  0  0  0
   -1.4419    0.2693   -0.0481 C   0  0  0  0  0  0  0  0  0  0  0  0
   -3.0144   -1.6585   -1.0522 H   0  0  0  0  0  0  0  0  0  0  0  0
   -2.5451   -0.9910    0.7029 H   0  0  0  0  0  0  0  0  0  0  0  0
   -0.0767   -0.7212    0.0988 C   0  0  0  0  0  0  0  0  0  0  0  0
   -1.2322    0.9555    0.8508 H   0  0  0  0  0  0  0  0  0  0  0  0
   -1.2534    0.9561   -0.9690 H   0  0  0  0  0  0  0  0  0  0  0  0
   -0.0583   -1.5361    1.1216 H   0  0  0  0  0  0  0  0  0  0  0  0
    0.6415   -0.3887    0.1813 H   0  0  0  0  0  0  0  0  0  0  0  0
    0.1491   -1.5398   -0.6473 H   0  0  0  0  0  0  0  0  0  0  0  0
  1  3  1  0  0  0  0
  1  5  1  0  0  0  0
  2  1  1  0  0  0  0
  2  8  1  0  0  0  0
  4  1  1  0  0  0  0
  6  9  1  0  0  0  0
  6 10  1  0  0  0  0
  9 13  1  0  0  0  0
  9 12  1  0  0  0  0
 11  6  1  0  0  0  0
 14  9  1  0  0  0  0
M  RAD  3   2   3   6   2   7   2
M  END
$$$$
