14
butane_opt
C  -4.082341   0.332965   0.147572
C  -2.662716  -0.666854  -0.082682
H  -4.870801  -0.158675   0.299626
H  -4.318667   0.772304  -0.600950
H  -3.853295   1.100910   1.123315
C  -1.346081   0.104904  -0.182703
H  -2.761350  -1.253415  -0.903124
H  -2.524181  -1.552068   0.873731
C  -0.157056  -0.631906   0.153215
H  -1.364295   0.616092   0.532040
H  -0.904368   0.995977  -1.225918
H  -0.816777  -0.938677   0.876227
H   0.946144   0.160576   0.809576
H   0.387314  -1.857854  -0.833171
