14
butane_opt
C  -3.863423   0.210848   0.100524
C  -2.690514  -0.549687  -0.131587
H  -4.770773  -0.366370   0.712923
H  -4.370914   1.295118  -0.958655
H  -3.274769   0.472686   0.841991
C  -1.480655   0.175017  -0.038088
H  -2.717314  -1.274560  -1.080427
H  -2.791333  -1.089683   0.781392
C  -0.166074  -0.687244   0.101496
H  -1.821183   0.900381   0.942945
H  -1.401032   0.766528  -0.846548
H  -0.236283  -1.566876   1.151868
H   0.713249   0.026284   0.162689
H   0.024342  -1.403299  -0.723975
