14
butane_opt
C  -3.911172   0.221590   0.211550
C  -2.741722  -0.597852  -0.135443
H  -4.943187  -0.485943   0.036386
H  -4.195966   0.574287  -0.527764
H  -3.610863   1.128796   1.240459
C  -1.426777   0.279713  -0.209601
H  -2.789688  -1.381372  -0.989309
H  -2.817285  -1.101689   0.675377
C  -0.130744  -0.756403   0.202263
H  -1.670033   0.874915   0.548248
H  -1.398874   1.197331  -1.333769
H  -0.301004  -1.536666   1.284353
H   0.723262  -0.143814   0.435753
H   0.492237  -1.403514  -0.733983
