butane_opt
 OpenBabel08242015393D

 14 11  0  0  0  0  0  0  0  0999 V2000
   -3.8594    0.2285   -0.0686 C   0  0  0  0  0  0  0  0  0  0  0  0
   -2.6543   -0.5600    0.2064 C   0  0  0  0  0  0  0  0  0  0  0  0
   -4.9610   -0.5938    0.0151 H   0  0  0  0  0  0  0  0  0  0  0  0
   -3.5045    1.1407   -1.1355 H   0  0  0  0  0  0  0  0  0  0  0  0
   -4.2907    0.4365    0.5281 H   0  0  0  0  0  0  0  0  0  0  0  0
   -1.4421    0.2656    0.0714 C   0  0  0  0  0  0  0  0  0  0  0  0
   -2.6493   -1.1887   -0.7492 H   0  0  0  0  0  0  0  0  0  0  0  0
   -2.6747   -1.5226    1.3447 H   0  0  0  0  0  0  0  0  0  0  0  0
   -0.2122   -0.7323   -0.0840 C   0  0  0  0  0  1  0  0  0  0  0  0
   -1.4294    0.9782    0.9753 H   0  0  0  0  0  0  0  0  0  0  0  0
   -1.6151    0.8362   -0.7540 H   0  0  0  0  0  0  0  0  0  0  0  0
   -0.3342   -0.7196    0.3800 H   0  0  0  0  0  0  0  0  0  0  0  0
    0.4312   -0.2134    0.5478 H   0  0  0  0  0  0  0  0  0  0  0  0
    0.0837   -2.1071   -1.3096 H   0  0  0  0  0  0  0  0  0  0  0  0
  1  3  1  0  0  0  0
  1  2  1  0  0  0  0
  1  5  1  0  0  0  0
  2  8  1  0  0  0  0
  4  1  1  0  0  0  0
  6  2  1  0  0  0  0
  6 12  1  0  0  0  0
  6 10  1  0  0  0  0
  7  2  1  0  0  0  0
  9 13  1  0  0  0  0
 11  6  1  0  0  0  0
M  RAD  1  14   2
M  END
$$$$
