14
butane_opt
C  -3.910006   0.229214   0.199971
C  -2.720081  -0.581384  -0.149580
H  -4.857530  -0.435214   0.213610
H  -4.175063   0.874104  -0.597883
H  -3.827704   0.902610   1.111881
C  -1.430752   0.200658  -0.133774
H  -2.695093  -1.639517  -1.399718
H  -2.500709  -0.815390   0.471837
C  -0.122138  -0.756092   0.201910
H  -1.385337   0.842314   0.674327
H  -1.539285   1.157764  -1.290039
H  -0.481535  -1.588528   1.313231
H   0.763497   0.034880  -0.163962
H  -0.066830  -0.949740  -0.274027
