butane_opt
 OpenBabel08242015393D

 14 11  0  0  0  0  0  0  0  0999 V2000
   -3.9106    0.2220   -0.0796 C   0  0  0  0  0  0  0  0  0  0  0  0
   -2.7394   -0.5806    0.0477 C   0  0  0  0  0  0  0  0  0  0  0  0
   -4.9436   -0.4297   -0.0220 H   0  0  0  0  0  0  0  0  0  0  0  0
   -3.7565    0.8063   -0.9903 H   0  0  0  0  0  0  0  0  0  0  0  0
   -3.8149    0.7036    0.8474 H   0  0  0  0  0  0  0  0  0  0  0  0
   -1.4389    0.2480    0.1693 C   0  0  0  0  0  0  0  0  0  0  0  0
   -2.4061   -1.0899   -0.6843 H   0  0  0  0  0  0  0  0  0  0  0  0
   -2.6743   -1.1707    0.9708 H   0  0  0  0  0  0  0  0  0  0  0  0
   -0.1385   -0.7480   -0.0789 C   0  0  0  0  0  0  0  0  0  0  0  0
   -1.1391    1.1565    1.2480 H   0  0  0  0  0  0  0  0  0  0  0  0
   -1.7633    0.7305   -0.4962 H   0  0  0  0  0  0  0  0  0  0  0  0
    0.2222   -1.8463    1.1390 H   0  0  0  0  0  0  0  0  0  0  0  0
    0.4968   -0.2973   -0.5918 H   0  0  0  0  0  0  0  0  0  0  0  0
   -0.4697   -0.7800   -0.6023 H   0  0  0  0  0  0  0  0  0  0  0  0
  1  3  1  0  0  0  0
  1  2  1  0  0  0  0
  1  5  1  0  0  0  0
  2  6  1  0  0  0  0
  2  8  1  0  0  0  0
  4  1  1  0  0  0  0
  6 10  1  0  0  0  0
  7  2  1  0  0  0  0
  9  6  1  0  0  0  0
 11  6  1  0  0  0  0
 13  9  1  0  0  0  0
M  RAD  3   9   3  12   2  14   2
M  END
$$$$
