14
butane_opt
C  -3.858421   0.190947  -0.081557
C  -2.714160  -0.543780   0.213022
H  -4.747101  -0.436867  -0.660128
H  -3.629869   0.715428  -0.831153
H  -4.143665   1.040100   0.901660
C  -1.414140   0.247730   0.067145
H  -2.745686  -1.056899  -0.573281
H  -2.780862  -1.162927   1.226330
C  -0.189727  -0.727172  -0.026509
H  -1.433925   0.794638   0.747500
H  -1.579481   0.922275  -0.881273
H   0.050465  -1.175444   0.666040
H   0.643069  -0.248038  -0.024426
H  -0.491193  -1.928302  -1.222675
