butane_opt
 OpenBabel08242015393D

 14 13  0  0  0  0  0  0  0  0999 V2000
   -3.9822    0.3215    0.1571 C   0  0  0  0  0  0  0  0  0  0  0  0
   -2.6889   -0.7285   -0.1380 C   0  0  0  0  0  0  0  0  0  0  0  0
   -4.7390   -0.1264    0.5815 H   0  0  0  0  0  0  0  0  0  0  0  0
   -4.4151    1.0405   -0.7650 H   0  0  0  0  0  0  0  0  0  0  0  0
   -3.9175    0.6323    0.8095 H   0  0  0  0  0  0  0  0  0  0  0  0
   -1.4182    0.2010   -0.1060 C   0  0  0  0  0  0  0  0  0  0  0  0
   -2.9873   -1.5763   -1.2718 H   0  0  0  0  0  0  0  0  0  0  0  0
   -2.5774   -1.1711    0.6471 H   0  0  0  0  0  0  0  0  0  0  0  0
   -0.1092   -0.6501    0.2415 C   0  0  0  0  0  0  0  0  0  0  0  0
   -1.4587    0.7385    0.5901 H   0  0  0  0  0  0  0  0  0  0  0  0
   -1.2730    1.0083   -1.1597 H   0  0  0  0  0  0  0  0  0  0  0  0
   -0.1293   -1.1079    0.9424 H   0  0  0  0  0  0  0  0  0  0  0  0
    0.8596   -0.1638   -0.0223 H   0  0  0  0  0  0  0  0  0  0  0  0
   -0.0323   -1.4452   -0.8137 H   0  0  0  0  0  0  0  0  0  0  0  0
  1  3  1  0  0  0  0
  1  5  1  0  0  0  0
  2  6  1  0  0  0  0
  2  1  1  0  0  0  0
  2  8  1  0  0  0  0
  4  1  1  0  0  0  0
  6  9  1  0  0  0  0
  6 10  1  0  0  0  0
  7  2  1  0  0  0  0
  9 12  1  0  0  0  0
 11  6  1  0  0  0  0
 13  9  1  0  0  0  0
 14  9  1  0  0  0  0
M  END
$$$$
