butane_opt
 OpenBabel08242015393D

 14 13  0  0  0  0  0  0  0  0999 V2000
   -4.0093    0.3608    0.2049 C   0  0  0  0  0  0  0  0  0  0  0  0
   -2.6893   -0.7201   -0.1450 C   0  0  0  0  0  0  0  0  0  0  0  0
   -4.9687   -0.4131    0.3308 H   0  0  0  0  0  0  0  0  0  0  0  0
   -4.1931    0.8919   -0.5637 H   0  0  0  0  0  0  0  0  0  0  0  0
   -3.9975    1.3729    1.2694 H   0  0  0  0  0  0  0  0  0  0  0  0
   -1.3694    0.1141   -0.2739 C   0  0  0  0  0  0  0  0  0  0  0  0
   -2.7459   -1.5549   -1.0586 H   0  0  0  0  0  0  0  0  0  0  0  0
   -2.5899   -1.3812    0.7130 H   0  0  0  0  0  0  0  0  0  0  0  0
   -0.1610   -0.6331    0.2391 C   0  0  0  0  0  0  0  0  0  0  0  0
   -1.2648    0.8152    0.6266 H   0  0  0  0  0  0  0  0  0  0  0  0
   -1.0175    0.8067   -1.1711 H   0  0  0  0  0  0  0  0  0  0  0  0
   -0.4717   -1.1411    1.1469 H   0  0  0  0  0  0  0  0  0  0  0  0
    0.7998    0.0061    0.4030 H   0  0  0  0  0  0  0  0  0  0  0  0
    0.1653   -1.3239   -0.5363 H   0  0  0  0  0  0  0  0  0  0  0  0
  1  3  1  0  0  0  0
  1  5  1  0  0  0  0
  2  1  1  0  0  0  0
  2  8  1  0  0  0  0
  4  1  1  0  0  0  0
  6  2  1  0  0  0  0
  6  9  1  0  0  0  0
  6 10  1  0  0  0  0
  7  2  1  0  0  0  0
  9 13  1  0  0  0  0
  9 12  1  0  0  0  0
 11  6  1  0  0  0  0
 14  9  1  0  0  0  0
M  END
$$$$
