butane_opt
 OpenBabel08242015393D

 14 12  0  0  0  0  0  0  0  0999 V2000
   -3.9435    0.2015   -0.2144 C   0  0  0  0  0  0  0  0  0  0  0  0
   -2.7586   -0.5081    0.2650 C   0  0  0  0  0  0  0  0  0  0  0  0
   -4.7915   -0.4047   -0.2833 H   0  0  0  0  0  0  0  0  0  0  0  0
   -3.7281    0.5140   -0.8416 H   0  0  0  0  0  0  0  0  0  0  0  0
   -4.3746    0.9912    0.7477 H   0  0  0  0  0  0  0  0  0  0  0  0
   -1.4272    0.2400    0.1718 C   0  0  0  0  0  0  0  0  0  0  0  0
   -2.6418   -1.0466   -0.3205 H   0  0  0  0  0  0  0  0  0  0  0  0
   -2.7847   -1.6342    1.4411 H   0  0  0  0  0  0  0  0  0  0  0  0
   -0.0895   -0.7452   -0.1398 C   0  0  0  0  0  0  0  0  0  0  0  0
   -1.3577    1.1116    1.1381 H   0  0  0  0  0  0  0  0  0  0  0  0
   -1.5158    0.7985   -0.6735 H   0  0  0  0  0  0  0  0  0  0  0  0
    0.2067   -1.1717    0.5398 H   0  0  0  0  0  0  0  0  0  0  0  0
    0.8211   -0.1473   -0.1282 H   0  0  0  0  0  0  0  0  0  0  0  0
   -0.2146   -1.7419   -1.1722 H   0  0  0  0  0  0  0  0  0  0  0  0
  1  2  1  0  0  0  0
  1  5  1  0  0  0  0
  3  1  1  0  0  0  0
  4  1  1  0  0  0  0
  6  2  1  0  0  0  0
  6 10  1  0  0  0  0
  7  2  1  0  0  0  0
  9 13  1  0  0  0  0
  9  6  1  0  0  0  0
  9 12  1  0  0  0  0
 11  6  1  0  0  0  0
 14  9  1  0  0  0  0
M  RAD  2   2   2   8   2
M  END
$$$$
