14
butane_opt
C  -3.962031   0.345478   0.236720
C  -2.625312  -0.668298  -0.217922
H  -5.070709  -0.381632   0.643331
H  -4.355778   1.037270  -0.830596
H  -3.601240   0.886733   1.052564
C  -1.342243   0.104305  -0.200173
H  -2.874157  -1.332895  -1.098783
H  -2.537235  -1.140909   0.538423
C  -0.252575  -0.685063   0.188687
H  -1.632389   0.788297   0.606879
H  -0.980705   0.688495  -0.914539
H  -0.571994  -1.394524   1.215629
H   0.792112   0.170603   0.571048
H   0.001187  -0.949544  -0.433325
