butane_opt
 OpenBabel08242015393D

 14  9  0  0  0  0  0  0  0  0999 V2000
   -3.9264    0.1797   -0.1074 C   0  0  0  0  0  1  0  0  0  0  0  0
   -2.6598   -0.4959    0.1804 C   0  0  0  0  0  0  0  0  0  0  0  0
   -4.9148   -0.5168    0.7024 H   0  0  0  0  0  0  0  0  0  0  0  0
   -3.9154    1.6836   -1.5250 H   0  0  0  0  0  0  0  0  0  0  0  0
   -3.6526    0.0696    0.1794 H   0  0  0  0  0  0  0  0  0  0  0  0
   -1.4466    0.2148    0.1688 C   0  0  0  0  0  0  0  0  0  0  0  0
   -2.7105   -1.2649   -0.8460 H   0  0  0  0  0  0  0  0  0  0  0  0
   -2.7569   -1.0215    0.9777 H   0  0  0  0  0  0  0  0  0  0  0  0
   -0.1597   -0.7275   -0.1330 C   0  0  0  0  0  0  0  0  0  0  0  0
   -1.5280    0.9766    1.0565 H   0  0  0  0  0  0  0  0  0  0  0  0
   -1.5511    0.5237   -0.3602 H   0  0  0  0  0  0  0  0  0  0  0  0
   -0.1345   -0.9927    0.6534 H   0  0  0  0  0  0  0  0  0  0  0  0
    0.6239   -0.1741    0.3541 H   0  0  0  0  0  0  0  0  0  0  0  0
   -0.1383   -1.8278   -1.1824 H   0  0  0  0  0  0  0  0  0  0  0  0
  1  3  1  0  0  0  0
  2  8  1  0  0  0  0
  5  2  1  0  0  0  0
  6  2  1  0  0  0  0
  6 10  1  0  0  0  0
  7  2  1  0  0  0  0
  9  6  1  0  0  0  0
  9 13  1  0  0  0  0
  9 12  1  0  0  0  0
M  RAD  5   4   2   6   2   9   2  11   2  14   2
M  END
$$$$
