butane_opt
 OpenBabel08242015393D

 14 12  0  0  0  0  0  0  0  0999 V2000
   -3.9400    0.3151   -0.0262 C   0  0  0  0  0  0  0  0  0  0  0  0
   -2.6982   -0.7059    0.0640 C   0  0  0  0  0  0  0  0  0  0  0  0
   -4.6676   -0.1232   -0.0694 H   0  0  0  0  0  0  0  0  0  0  0  0
   -4.3245    1.0504   -0.9953 H   0  0  0  0  0  0  0  0  0  0  0  0
   -4.1496    0.7328    0.6167 H   0  0  0  0  0  0  0  0  0  0  0  0
   -1.3856    0.1607    0.0773 C   0  0  0  0  0  0  0  0  0  0  0  0
   -2.5191   -0.9934   -0.4543 H   0  0  0  0  0  0  0  0  0  0  0  0
   -2.5578   -1.6302    1.0916 H   0  0  0  0  0  0  0  0  0  0  0  0
   -0.1783   -0.6571   -0.0213 C   0  0  0  0  0  0  0  0  0  0  0  0
   -1.2693    1.0010    1.0118 H   0  0  0  0  0  0  0  0  0  0  0  0
   -1.5028    0.5803   -0.7543 H   0  0  0  0  0  0  0  0  0  0  0  0
   -0.1619   -0.9331    0.6271 H   0  0  0  0  0  0  0  0  0  0  0  0
    0.9068    0.0310    0.1221 H   0  0  0  0  0  0  0  0  0  0  0  0
   -0.3580   -1.5045   -0.9331 H   0  0  0  0  0  0  0  0  0  0  0  0
  1  2  1  0  0  0  0
  1  5  1  0  0  0  0
  2  6  1  0  0  0  0
  2  8  1  0  0  0  0
  3  1  1  0  0  0  0
  4  1  1  0  0  0  0
  6 10  1  0  0  0  0
  9  6  1  0  0  0  0
  9 13  1  0  0  0  0
  9 12  1  0  0  0  0
 11  6  1  0  0  0  0
 14  9  1  0  0  0  0
M  RAD  2   2   2   7   2
M  END
$$$$
