14
butane_opt
C  -3.900546   0.176057  -0.112982
C  -2.664352  -0.571599   0.176093
H  -4.735526  -0.265905   0.108130
H  -3.719900   1.170133  -1.173235
H  -3.914628   0.688742   0.578208
C  -1.476360   0.258443   0.099664
H  -2.798518  -0.778565  -0.429223
H  -2.871158  -1.814999   1.488855
C  -0.156000  -0.768839  -0.066990
H  -1.402645   1.126443   1.013500
H  -1.573117   0.951379  -0.670547
H  -0.300865  -0.399873   0.134365
H   0.704528  -0.211442   0.543213
H  -0.006359  -2.107576  -1.425588
