butane_opt
 OpenBabel08242015393D

 14 13  0  0  0  0  0  0  0  0999 V2000
   -3.9584    0.2775    0.0492 C   0  0  0  0  0  0  0  0  0  0  0  0
   -2.6954   -0.6360   -0.0067 C   0  0  0  0  0  0  0  0  0  0  0  0
   -4.8554   -0.3095    0.1642 H   0  0  0  0  0  0  0  0  0  0  0  0
   -4.0386    0.9035   -0.8624 H   0  0  0  0  0  0  0  0  0  0  0  0
   -3.9451    0.9110    0.8902 H   0  0  0  0  0  0  0  0  0  0  0  0
   -1.3878    0.1838   -0.0221 C   0  0  0  0  0  0  0  0  0  0  0  0
   -2.7893   -1.3408   -0.8874 H   0  0  0  0  0  0  0  0  0  0  0  0
   -2.6719   -1.2091    0.8726 H   0  0  0  0  0  0  0  0  0  0  0  0
   -0.1668   -0.6909    0.0696 C   0  0  0  0  0  0  0  0  0  0  0  0
   -1.3581    0.9125    0.8657 H   0  0  0  0  0  0  0  0  0  0  0  0
   -1.3588    0.8112   -0.9180 H   0  0  0  0  0  0  0  0  0  0  0  0
   -0.1415   -1.3627    0.9665 H   0  0  0  0  0  0  0  0  0  0  0  0
    0.7460   -0.0988    0.0109 H   0  0  0  0  0  0  0  0  0  0  0  0
   -0.1124   -1.2978   -0.7396 H   0  0  0  0  0  0  0  0  0  0  0  0
  1  3  1  0  0  0  0
  1  5  1  0  0  0  0
  2  1  1  0  0  0  0
  2  8  1  0  0  0  0
  4  1  1  0  0  0  0
  6  2  1  0  0  0  0
  6  9  1  0  0  0  0
  6 10  1  0  0  0  0
  7  2  1  0  0  0  0
  9 12  1  0  0  0  0
 11  6  1  0  0  0  0
 13  9  1  0  0  0  0
 14  9  1  0  0  0  0
M  END
$$$$
