14
butane_opt
C  -3.968191   0.223665  -0.097722
C  -2.709085  -0.640434   0.184186
H  -4.771761  -0.288051   0.191155
H  -3.893172   1.082498  -1.244535
H  -3.946619   0.701410   0.627576
C  -1.446712   0.303412   0.036082
H  -2.929429  -0.918918  -0.438036
H  -2.948036  -1.665611   1.326273
C  -0.073818  -0.745594  -0.027921
H  -1.348723   1.086472   0.904251
H  -1.654559   0.738442  -0.570362
H  -0.093890  -0.508874   0.271995
H   0.705922  -0.161292   0.517325
H   0.222349  -2.236360  -1.394308
