butane_opt
 OpenBabel08242015393D

 14 12  0  0  0  0  0  0  0  0999 V2000
   -3.8844    0.3168    0.1969 C   0  0  0  0  0  0  0  0  0  0  0  0
   -2.6841   -0.6981   -0.1858 C   0  0  0  0  0  0  0  0  0  0  0  0
   -4.6339   -0.1605    0.7040 H   0  0  0  0  0  0  0  0  0  0  0  0
   -4.1926    1.3105   -1.1561 H   0  0  0  0  0  0  0  0  0  0  0  0
   -3.8373    0.5645    0.7854 H   0  0  0  0  0  0  0  0  0  0  0  0
   -1.4472    0.1646   -0.1006 C   0  0  0  0  0  0  0  0  0  0  0  0
   -2.7644   -1.6001   -1.2101 H   0  0  0  0  0  0  0  0  0  0  0  0
   -2.3725   -1.2554    0.7814 H   0  0  0  0  0  0  0  0  0  0  0  0
   -0.2233   -0.6515    0.1633 C   0  0  0  0  0  0  0  0  0  0  0  0
   -1.4641    0.8681    0.7951 H   0  0  0  0  0  0  0  0  0  0  0  0
   -1.3846    0.6571   -0.9274 H   0  0  0  0  0  0  0  0  0  0  0  0
   -0.2856   -1.2865    1.0617 H   0  0  0  0  0  0  0  0  0  0  0  0
    0.8597    0.0877    0.2840 H   0  0  0  0  0  0  0  0  0  0  0  0
   -0.1167   -1.1575   -0.5833 H   0  0  0  0  0  0  0  0  0  0  0  0
  1  3  1  0  0  0  0
  1  5  1  0  0  0  0
  2  6  1  0  0  0  0
  2  1  1  0  0  0  0
  2  8  1  0  0  0  0
  6  9  1  0  0  0  0
  6 10  1  0  0  0  0
  7  2  1  0  0  0  0
  9 13  1  0  0  0  0
  9 12  1  0  0  0  0
 11  6  1  0  0  0  0
 14  9  1  0  0  0  0
M  RAD  2   1   2   4   2
M  END
$$$$
