butane_opt
 OpenBabel08242015393D

 14 13  0  0  0  0  0  0  0  0999 V2000
   -3.9620    0.3455    0.2367 C   0  0  0  0  0  0  0  0  0  0  0  0
   -2.6253   -0.6683   -0.2179 C   0  0  0  0  0  0  0  0  0  0  0  0
   -5.0707   -0.3816    0.6433 H   0  0  0  0  0  0  0  0  0  0  0  0
   -4.3558    1.0373   -0.8306 H   0  0  0  0  0  0  0  0  0  0  0  0
   -3.6012    0.8867    1.0526 H   0  0  0  0  0  0  0  0  0  0  0  0
   -1.3422    0.1043   -0.2002 C   0  0  0  0  0  0  0  0  0  0  0  0
   -2.8742   -1.3329   -1.0988 H   0  0  0  0  0  0  0  0  0  0  0  0
   -2.5372   -1.1409    0.5384 H   0  0  0  0  0  0  0  0  0  0  0  0
   -0.2526   -0.6851    0.1887 C   0  0  0  0  0  0  0  0  0  0  0  0
   -1.6324    0.7883    0.6069 H   0  0  0  0  0  0  0  0  0  0  0  0
   -0.9807    0.6885   -0.9145 H   0  0  0  0  0  0  0  0  0  0  0  0
   -0.5720   -1.3945    1.2156 H   0  0  0  0  0  0  0  0  0  0  0  0
    0.7921    0.1706    0.5710 H   0  0  0  0  0  0  0  0  0  0  0  0
    0.0012   -0.9495   -0.4333 H   0  0  0  0  0  0  0  0  0  0  0  0
  1  3  1  0  0  0  0
  1  5  1  0  0  0  0
  2  6  1  0  0  0  0
  2  1  1  0  0  0  0
  2  8  1  0  0  0  0
  4  1  1  0  0  0  0
  6  9  1  0  0  0  0
  6 10  1  0  0  0  0
  7  2  1  0  0  0  0
  9 13  1  0  0  0  0
  9 12  1  0  0  0  0
 11  6  1  0  0  0  0
 14  9  1  0  0  0  0
M  END
$$$$
