14
butane_opt
C  -3.904044   0.211139  -0.124000
C  -2.735081  -0.504633   0.156755
H  -4.695717  -0.272550  -0.137715
H  -3.756655   0.880586  -1.272237
H  -3.753528   0.667843   0.601688
C  -1.423368   0.161969   0.220956
H  -2.511665  -1.118109  -0.752587
H  -2.767986  -1.229993   1.174950
C  -0.184612  -0.748726  -0.147126
H  -1.328482   1.243720   1.462477
H  -1.588478   0.611627  -0.444118
H  -0.007012  -1.731564   0.986876
H   0.848334  -0.006732  -0.659984
H  -0.497753  -0.931780  -0.790387
