butane_opt
 OpenBabel08242015393D

 14  8  0  0  0  0  0  0  0  0999 V2000
   -3.9715    0.3326   -0.0563 C   0  0  0  0  0  0  0  0  0  0  0  0
   -2.6076   -0.6490    0.1282 C   0  0  0  0  0  0  0  0  0  0  0  0
   -4.8421   -0.3729    0.4041 H   0  0  0  0  0  0  0  0  0  0  0  0
   -4.1379    1.5742   -1.3281 H   0  0  0  0  0  0  0  0  0  0  0  0
   -3.8122    0.2676    0.3104 H   0  0  0  0  0  0  0  0  0  0  0  0
   -1.3707    0.0991    0.1068 C   0  0  0  0  0  1  0  0  0  0  0  0
   -2.4574   -1.1984   -0.6866 H   0  0  0  0  0  0  0  0  0  0  0  0
   -2.6402   -1.5024    1.0873 H   0  0  0  0  0  0  0  0  0  0  0  0
   -0.2037   -0.6303   -0.1112 C   0  0  0  0  0  0  0  0  0  0  0  0
   -1.5036    1.0280    1.0717 H   0  0  0  0  0  0  0  0  0  0  0  0
   -1.5181    0.3072   -0.3407 H   0  0  0  0  0  0  0  0  0  0  0  0
   -0.6990   -0.8591    0.6539 H   0  0  0  0  0  0  0  0  0  0  0  0
    0.7668    0.0590    0.4202 H   0  0  0  0  0  0  0  0  0  0  0  0
   -0.3222   -1.5801   -1.0843 H   0  0  0  0  0  0  0  0  0  0  0  0
  1  2  1  0  0  0  0
  1  3  1  0  0  0  0
  2  8  1  0  0  0  0
  6 10  1  0  0  0  0
  7  2  1  0  0  0  0
  9 13  1  0  0  0  0
  9 12  1  0  0  0  0
 14  9  1  0  0  0  0
M  RAD  6   1   3   2   2   4   2   5   2   9   2  11   2
M  END
$$$$
