butane_opt
 OpenBabel08242015393D

 14 10  0  0  0  0  0  0  0  0999 V2000
   -3.9914    0.2235   -0.0459 C   0  0  0  0  0  0  0  0  0  0  0  0
   -2.7334   -0.5976    0.0424 C   0  0  0  0  0  0  0  0  0  0  0  0
   -4.8317   -0.3673    0.6972 H   0  0  0  0  0  0  0  0  0  0  0  0
   -4.0547    1.3492   -1.4189 H   0  0  0  0  0  0  0  0  0  0  0  0
   -3.5518    0.2102    0.5282 H   0  0  0  0  0  0  0  0  0  0  0  0
   -1.4397    0.3281    0.1030 C   0  0  0  0  0  0  0  0  0  0  0  0
   -2.7407   -1.1233   -0.7414 H   0  0  0  0  0  0  0  0  0  0  0  0
   -2.7854   -1.4610    1.0931 H   0  0  0  0  0  0  0  0  0  0  0  0
   -0.0963   -0.7525   -0.0182 C   0  0  0  0  0  0  0  0  0  0  0  0
   -1.1803    1.1545    0.9516 H   0  0  0  0  0  0  0  0  0  0  0  0
   -1.4615    0.5407   -0.5411 H   0  0  0  0  0  0  0  0  0  0  0  0
    0.1555   -1.0903    0.5666 H   0  0  0  0  0  0  0  0  0  0  0  0
    0.6052   -0.3645    0.3508 H   0  0  0  0  0  0  0  0  0  0  0  0
   -0.0349   -1.7148   -1.0798 H   0  0  0  0  0  0  0  0  0  0  0  0
  1  5  1  0  0  0  0
  1  3  1  0  0  0  0
  2  8  1  0  0  0  0
  6 10  1  0  0  0  0
  7  2  1  0  0  0  0
  9  6  1  0  0  0  0
  9 13  1  0  0  0  0
  9 12  1  0  0  0  0
 11  6  1  0  0  0  0
 14  9  1  0  0  0  0
M  RAD  4   1   3   2   3   4   2   6   2
M  END
$$$$
