butane_opt
 OpenBabel08242015393D

 14 13  0  0  0  0  0  0  0  0999 V2000
   -3.9341    0.2498    0.0506 C   0  0  0  0  0  0  0  0  0  0  0  0
   -2.7133   -0.6033    0.0130 C   0  0  0  0  0  0  0  0  0  0  0  0
   -4.8564   -0.3487   -0.0097 H   0  0  0  0  0  0  0  0  0  0  0  0
   -3.9204    0.8343   -0.8111 H   0  0  0  0  0  0  0  0  0  0  0  0
   -3.9077    0.9995    0.9784 H   0  0  0  0  0  0  0  0  0  0  0  0
   -1.4137    0.2037   -0.0382 C   0  0  0  0  0  0  0  0  0  0  0  0
   -2.8052   -1.2562   -0.8206 H   0  0  0  0  0  0  0  0  0  0  0  0
   -2.6554   -1.2356    0.9010 H   0  0  0  0  0  0  0  0  0  0  0  0
   -0.1519   -0.7105    0.0605 C   0  0  0  0  0  0  0  0  0  0  0  0
   -1.4308    0.8269    0.8087 H   0  0  0  0  0  0  0  0  0  0  0  0
   -1.3720    0.8446   -0.9407 H   0  0  0  0  0  0  0  0  0  0  0  0
   -0.2057   -1.3108    0.9385 H   0  0  0  0  0  0  0  0  0  0  0  0
    0.7561   -0.1191    0.1404 H   0  0  0  0  0  0  0  0  0  0  0  0
   -0.0674   -1.3845   -0.7799 H   0  0  0  0  0  0  0  0  0  0  0  0
  1  5  1  0  0  0  0
  2  1  1  0  0  0  0
  2  8  1  0  0  0  0
  3  1  1  0  0  0  0
  4  1  1  0  0  0  0
  6  2  1  0  0  0  0
  6  9  1  0  0  0  0
  6 10  1  0  0  0  0
  7  2  1  0  0  0  0
  9 13  1  0  0  0  0
  9 12  1  0  0  0  0
 11  6  1  0  0  0  0
 14  9  1  0  0  0  0
M  END
$$$$
