14
butane_opt
C  -3.927194   0.181412   0.139335
C  -2.704961  -0.546952  -0.055625
H  -4.918745  -0.550764  -0.486618
H  -3.646942   0.134687  -0.344803
H  -3.951116   1.579088   1.454765
C  -1.446989   0.324905  -0.145562
H  -2.654574  -1.257612  -0.954207
H  -2.492949  -1.208511   0.790455
C  -0.159683  -0.746273   0.142035
H  -1.745286   0.623693   0.468834
H  -1.119073   1.025122  -1.129501
H  -0.041266  -1.791319   1.378484
H   0.658617  -0.426058  -0.099490
H  -0.189474  -1.187606  -0.506277
