14
butane_opt
C  -3.822169   0.249466   0.169042
C  -2.744327  -0.572220  -0.056297
H  -4.739235  -0.321336  -0.272180
H  -3.707080   0.465820  -0.598655
H  -4.030994   1.274154   1.205482
C  -1.441267   0.174271  -0.196451
H  -2.965866  -1.247709  -0.991223
H  -2.534250  -1.320543   0.813185
C  -0.228392  -0.710104   0.185043
H  -1.439594   0.925900   0.792172
H  -1.415187   0.903189  -1.225347
H  -0.319275  -1.344847   1.052320
H   0.796317  -0.136291   0.036441
H   0.141133  -1.350850  -0.563057
