butane_opt
 OpenBabel08242015393D

 14 11  0  0  0  0  0  0  0  0999 V2000
   -3.8505    0.2383   -0.1229 C   0  0  0  0  0  0  0  0  0  0  0  0
   -2.6924   -0.5742    0.2347 C   0  0  0  0  0  0  0  0  0  0  0  0
   -4.9646   -0.6335   -0.7158 H   0  0  0  0  0  0  0  0  0  0  0  0
   -3.1501    0.5056   -0.6925 H   0  0  0  0  0  0  0  0  0  0  0  0
   -4.1961    1.2327    0.9132 H   0  0  0  0  0  0  0  0  0  0  0  0
   -1.4392    0.2750    0.0754 C   0  0  0  0  0  0  0  0  0  0  0  0
   -2.9446   -1.0171   -0.3944 H   0  0  0  0  0  0  0  0  0  0  0  0
   -2.7762   -1.4492    1.2280 H   0  0  0  0  0  0  0  0  0  0  0  0
   -0.2350   -0.7777   -0.0948 C   0  0  0  0  0  0  0  0  0  0  0  0
   -1.3625    1.0660    1.0225 H   0  0  0  0  0  0  0  0  0  0  0  0
   -1.6150    0.6717   -0.5817 H   0  0  0  0  0  0  0  0  0  0  0  0
    0.1316   -1.2704    0.7270 H   0  0  0  0  0  0  0  0  0  0  0  0
    0.5225   -0.2413   -0.2519 H   0  0  0  0  0  0  0  0  0  0  0  0
   -0.0654   -1.3127   -0.9072 H   0  0  0  0  0  0  0  0  0  0  0  0
  1  2  1  0  0  0  0
  1  5  1  0  0  0  0
  2  8  1  0  0  0  0
  4  1  1  0  0  0  0
  6 10  1  0  0  0  0
  7  2  1  0  0  0  0
  9  6  1  0  0  0  0
  9 12  1  0  0  0  0
 11  6  1  0  0  0  0
 13  9  1  0  0  0  0
 14  9  1  0  0  0  0
M  RAD  4   1   2   2   2   3   2   6   2
M  END
$$$$
