butane_opt
 OpenBabel08242015393D

 14 12  0  0  0  0  0  0  0  0999 V2000
   -4.0534    0.2944   -0.0330 C   0  0  0  0  0  0  0  0  0  0  0  0
   -2.6833   -0.6683    0.0967 C   0  0  0  0  0  0  0  0  0  0  0  0
   -4.9764   -0.3400   -0.5936 H   0  0  0  0  0  0  0  0  0  0  0  0
   -3.7516    0.7234   -0.7899 H   0  0  0  0  0  0  0  0  0  0  0  0
   -4.2854    1.3221    1.1637 H   0  0  0  0  0  0  0  0  0  0  0  0
   -1.3890    0.1200    0.0400 C   0  0  0  0  0  0  0  0  0  0  0  0
   -2.6375   -0.9235   -0.5032 H   0  0  0  0  0  0  0  0  0  0  0  0
   -2.8788   -1.5096    1.3242 H   0  0  0  0  0  0  0  0  0  0  0  0
   -0.0904   -0.6440   -0.0270 C   0  0  0  0  0  0  0  0  0  0  0  0
   -1.4032    0.9129    0.9344 H   0  0  0  0  0  0  0  0  0  0  0  0
   -1.2686    0.6776   -0.8393 H   0  0  0  0  0  0  0  0  0  0  0  0
    0.2239   -1.2221    0.8924 H   0  0  0  0  0  0  0  0  0  0  0  0
    0.7564   -0.0900   -0.0695 H   0  0  0  0  0  0  0  0  0  0  0  0
   -0.2296   -1.2735   -0.9734 H   0  0  0  0  0  0  0  0  0  0  0  0
  1  2  1  0  0  0  0
  2  8  1  0  0  0  0
  3  1  1  0  0  0  0
  4  1  1  0  0  0  0
  6  2  1  0  0  0  0
  6 10  1  0  0  0  0
  7  2  1  0  0  0  0
  9  6  1  0  0  0  0
  9 12  1  0  0  0  0
 11  6  1  0  0  0  0
 13  9  1  0  0  0  0
 14  9  1  0  0  0  0
M  RAD  2   1   2   5   2
M  END
$$$$
