butane_opt
 OpenBabel08242015393D

 14 13  0  0  0  0  0  0  0  0999 V2000
   -3.8456    0.2113    0.1124 C   0  0  0  0  0  0  0  0  0  0  0  0
   -2.7388   -0.5353   -0.0984 C   0  0  0  0  0  0  0  0  0  0  0  0
   -4.6154   -0.2324    0.6516 H   0  0  0  0  0  0  0  0  0  0  0  0
   -4.4246    0.8023   -0.8496 H   0  0  0  0  0  0  0  0  0  0  0  0
   -3.5022    0.6509    0.9114 H   0  0  0  0  0  0  0  0  0  0  0  0
   -1.4133    0.2476   -0.0838 C   0  0  0  0  0  0  0  0  0  0  0  0
   -2.8740   -1.4613   -1.0560 H   0  0  0  0  0  0  0  0  0  0  0  0
   -2.6032   -0.9461    0.5034 H   0  0  0  0  0  0  0  0  0  0  0  0
   -0.2283   -0.7569    0.1748 C   0  0  0  0  0  0  0  0  0  0  0  0
   -1.5067    0.5492    0.5833 H   0  0  0  0  0  0  0  0  0  0  0  0
   -1.4055    1.1215   -1.0702 H   0  0  0  0  0  0  0  0  0  0  0  0
   -0.3173   -1.2521    1.0206 H   0  0  0  0  0  0  0  0  0  0  0  0
    0.7954   -0.0941    0.1922 H   0  0  0  0  0  0  0  0  0  0  0  0
    0.1350   -1.5713   -0.7511 H   0  0  0  0  0  0  0  0  0  0  0  0
  1  3  1  0  0  0  0
  1  5  1  0  0  0  0
  2  6  1  0  0  0  0
  2  1  1  0  0  0  0
  2  8  1  0  0  0  0
  4  1  1  0  0  0  0
  6  9  1  0  0  0  0
  6 10  1  0  0  0  0
  7  2  1  0  0  0  0
  9 13  1  0  0  0  0
  9 12  1  0  0  0  0
 11  6  1  0  0  0  0
 14  9  1  0  0  0  0
M  END
$$$$
