butane_opt
 OpenBabel08242015393D

 14 13  0  0  0  0  0  0  0  0999 V2000
   -3.8724    0.2294   -0.1045 C   0  0  0  0  0  0  0  0  0  0  0  0
   -2.7007   -0.5480    0.1736 C   0  0  0  0  0  0  0  0  0  0  0  0
   -5.0556   -0.6136   -0.1530 H   0  0  0  0  0  0  0  0  0  0  0  0
   -3.6018    0.8821   -1.0586 H   0  0  0  0  0  0  0  0  0  0  0  0
   -3.8059    0.8287    0.7119 H   0  0  0  0  0  0  0  0  0  0  0  0
   -1.4774    0.2205    0.1569 C   0  0  0  0  0  0  0  0  0  0  0  0
   -2.4306   -1.4947   -0.9150 H   0  0  0  0  0  0  0  0  0  0  0  0
   -2.8589   -1.0825    1.0602 H   0  0  0  0  0  0  0  0  0  0  0  0
   -0.1592   -0.7386   -0.1019 C   0  0  0  0  0  0  0  0  0  0  0  0
   -1.2204    1.0245    1.2008 H   0  0  0  0  0  0  0  0  0  0  0  0
   -1.6052    0.8801   -0.6435 H   0  0  0  0  0  0  0  0  0  0  0  0
    0.2132   -1.5779    0.9114 H   0  0  0  0  0  0  0  0  0  0  0  0
    0.4429   -0.2657   -0.4628 H   0  0  0  0  0  0  0  0  0  0  0  0
   -0.5267   -1.0634   -0.6465 H   0  0  0  0  0  0  0  0  0  0  0  0
  1  2  1  0  0  0  0
  1  5  1  0  0  0  0
  2  8  1  0  0  0  0
  3  1  1  0  0  0  0
  4  1  1  0  0  0  0
  6  2  1  0  0  0  0
  6 10  1  0  0  0  0
  7  2  1  0  0  0  0
  9  6  1  0  0  0  0
  9 12  1  0  0  0  0
 11  6  1  0  0  0  0
 13  9  1  0  0  0  0
 14  9  1  0  0  0  0
M  END
$$$$
