butane_opt
 OpenBabel08242015393D

 14 12  0  0  0  0  0  0  0  0999 V2000
   -3.9578    0.1738   -0.1248 C   0  0  0  0  0  0  0  0  0  0  0  0
   -2.7232   -0.5540    0.2362 C   0  0  0  0  0  0  0  0  0  0  0  0
   -4.9421   -0.4617   -0.5882 H   0  0  0  0  0  0  0  0  0  0  0  0
   -3.3822    0.5978   -0.8122 H   0  0  0  0  0  0  0  0  0  0  0  0
   -4.3898    1.2967    0.9100 H   0  0  0  0  0  0  0  0  0  0  0  0
   -1.4277    0.3355    0.1300 C   0  0  0  0  0  0  0  0  0  0  0  0
   -2.5548   -1.2144   -0.7027 H   0  0  0  0  0  0  0  0  0  0  0  0
   -3.0770   -1.3478    1.3802 H   0  0  0  0  0  0  0  0  0  0  0  0
   -0.1425   -0.7811   -0.0490 C   0  0  0  0  0  0  0  0  0  0  0  0
   -1.2519    0.9215    0.8171 H   0  0  0  0  0  0  0  0  0  0  0  0
   -1.2792    0.8755   -0.8197 H   0  0  0  0  0  0  0  0  0  0  0  0
    0.5127   -1.3662    0.6378 H   0  0  0  0  0  0  0  0  0  0  0  0
    0.6989   -0.2642   -0.4996 H   0  0  0  0  0  0  0  0  0  0  0  0
   -0.3002   -1.6382   -1.1337 H   0  0  0  0  0  0  0  0  0  0  0  0
  1  2  1  0  0  0  0
  2  8  1  0  0  0  0
  3  1  1  0  0  0  0
  4  1  1  0  0  0  0
  6  2  1  0  0  0  0
  6 10  1  0  0  0  0
  7  2  1  0  0  0  0
  9  6  1  0  0  0  0
  9 12  1  0  0  0  0
 11  6  1  0  0  0  0
 13  9  1  0  0  0  0
 14  9  1  0  0  0  0
M  RAD  2   1   2   5   2
M  END
$$$$
