butane_opt
 OpenBabel08242015393D

 14 13  0  0  0  0  0  0  0  0999 V2000
   -3.9112    0.2216    0.2115 C   0  0  0  0  0  0  0  0  0  0  0  0
   -2.7417   -0.5979   -0.1354 C   0  0  0  0  0  0  0  0  0  0  0  0
   -4.9432   -0.4859    0.0364 H   0  0  0  0  0  0  0  0  0  0  0  0
   -4.1960    0.5743   -0.5278 H   0  0  0  0  0  0  0  0  0  0  0  0
   -3.6109    1.1288    1.2405 H   0  0  0  0  0  0  0  0  0  0  0  0
   -1.4268    0.2797   -0.2096 C   0  0  0  0  0  0  0  0  0  0  0  0
   -2.7897   -1.3814   -0.9893 H   0  0  0  0  0  0  0  0  0  0  0  0
   -2.8173   -1.1017    0.6754 H   0  0  0  0  0  0  0  0  0  0  0  0
   -0.1307   -0.7564    0.2023 C   0  0  0  0  0  0  0  0  0  0  0  0
   -1.6700    0.8749    0.5482 H   0  0  0  0  0  0  0  0  0  0  0  0
   -1.3989    1.1973   -1.3338 H   0  0  0  0  0  0  0  0  0  0  0  0
   -0.3010   -1.5367    1.2844 H   0  0  0  0  0  0  0  0  0  0  0  0
    0.7233   -0.1438    0.4358 H   0  0  0  0  0  0  0  0  0  0  0  0
    0.4922   -1.4035   -0.7340 H   0  0  0  0  0  0  0  0  0  0  0  0
  1  5  1  0  0  0  0
  2  1  1  0  0  0  0
  2  8  1  0  0  0  0
  3  1  1  0  0  0  0
  4  1  1  0  0  0  0
  6  2  1  0  0  0  0
  6  9  1  0  0  0  0
  6 10  1  0  0  0  0
  7  2  1  0  0  0  0
  9 13  1  0  0  0  0
  9 12  1  0  0  0  0
 11  6  1  0  0  0  0
 14  9  1  0  0  0  0
M  END
$$$$
