butane_opt
 OpenBabel08242015393D

 14 12  0  0  0  0  0  0  0  0999 V2000
   -3.9701    0.3201   -0.1503 C   0  0  0  0  0  0  0  0  0  0  0  0
   -2.7162   -0.7390    0.2388 C   0  0  0  0  0  0  0  0  0  0  0  0
   -4.8942   -0.1893   -0.6497 H   0  0  0  0  0  0  0  0  0  0  0  0
   -3.8919    0.9440   -0.9067 H   0  0  0  0  0  0  0  0  0  0  0  0
   -4.5540    1.2630    0.8360 H   0  0  0  0  0  0  0  0  0  0  0  0
   -1.3355    0.1336    0.1782 C   0  0  0  0  0  0  0  0  0  0  0  0
   -2.6711   -0.9799   -0.2606 H   0  0  0  0  0  0  0  0  0  0  0  0
   -2.7346   -1.6047    1.3094 H   0  0  0  0  0  0  0  0  0  0  0  0
   -0.1529   -0.6151   -0.1412 C   0  0  0  0  0  0  0  0  0  0  0  0
   -1.3367    0.8185    0.8690 H   0  0  0  0  0  0  0  0  0  0  0  0
   -1.2992    0.7470   -0.6783 H   0  0  0  0  0  0  0  0  0  0  0  0
    0.2141   -1.0166    0.4905 H   0  0  0  0  0  0  0  0  0  0  0  0
    0.5819   -0.1549    0.0497 H   0  0  0  0  0  0  0  0  0  0  0  0
   -0.3352   -1.5327   -1.1452 H   0  0  0  0  0  0  0  0  0  0  0  0
  1  2  1  0  0  0  0
  1  5  1  0  0  0  0
  2  8  1  0  0  0  0
  3  1  1  0  0  0  0
  4  1  1  0  0  0  0
  6  2  1  0  0  0  0
  6 10  1  0  0  0  0
  9 13  1  0  0  0  0
  9  6  1  0  0  0  0
  9 12  1  0  0  0  0
 11  6  1  0  0  0  0
 14  9  1  0  0  0  0
M  RAD  2   2   2   7   2
M  END
$$$$
