14
butane_opt
C  -3.835570   0.216560   0.031875
C  -2.742615  -0.526020  -0.043862
H  -4.832054  -0.494834   0.786965
H  -4.368289   1.625978  -1.239928
H  -3.477438   0.337119   0.506665
C  -1.460696   0.164740   0.062238
H  -2.793060  -1.261822  -0.997861
H  -2.715532  -1.284502   0.885126
C  -0.152461  -0.719594   0.015317
H  -1.753809   1.061813   1.008868
H  -1.207061   0.698292  -0.658076
H  -0.155589  -1.210786   0.936366
H   0.744971  -0.044211   0.180729
H  -0.143414  -1.532168  -0.879690
