butane_opt
 OpenBabel08242015393D

 14  8  0  0  0  0  0  0  0  0999 V2000
   -3.8492    0.2566    0.1172 C   0  0  0  0  0  1  0  0  0  0  0  0
   -2.6989   -0.5743    0.0375 C   0  0  0  0  0  0  0  0  0  0  0  0
   -4.9516   -0.4908   -0.7690 H   0  0  0  0  0  0  0  0  0  0  0  0
   -3.3673    0.3559   -0.4899 H   0  0  0  0  0  0  0  0  0  0  0  0
   -4.2075    1.3462    1.2645 H   0  0  0  0  0  0  0  0  0  0  0  0
   -1.4051    0.2271   -0.0832 C   0  0  0  0  0  0  0  0  0  0  0  0
   -2.7050   -1.4811   -1.0247 H   0  0  0  0  0  0  0  0  0  0  0  0
   -2.8070   -1.1318    0.8083 H   0  0  0  0  0  0  0  0  0  0  0  0
   -0.2664   -0.7108    0.1035 C   0  0  0  0  0  0  0  0  0  0  0  0
   -1.4880    0.7062    0.6258 H   0  0  0  0  0  0  0  0  0  0  0  0
   -1.4481    0.9064   -1.1742 H   0  0  0  0  0  0  0  0  0  0  0  0
   -0.0350   -1.7604    1.2636 H   0  0  0  0  0  0  0  0  0  0  0  0
    0.5374   -0.1407   -0.3994 H   0  0  0  0  0  0  0  0  0  0  0  0
    0.0571   -1.1758   -0.6800 H   0  0  0  0  0  0  0  0  0  0  0  0
  2  8  1  0  0  0  0
  4  1  1  0  0  0  0
  6  9  1  0  0  0  0
  6 10  1  0  0  0  0
  7  2  1  0  0  0  0
 11  6  1  0  0  0  0
 13  9  1  0  0  0  0
 14  9  1  0  0  0  0
M  RAD  6   2   3   3   2   5   2   6   2   9   2  12   2
M  END
$$$$
