butane_opt
 OpenBabel08242015393D

 14 12  0  0  0  0  0  0  0  0999 V2000
   -3.8584    0.1909   -0.0816 C   0  0  0  0  0  0  0  0  0  0  0  0
   -2.7142   -0.5438    0.2130 C   0  0  0  0  0  0  0  0  0  0  0  0
   -4.7471   -0.4369   -0.6601 H   0  0  0  0  0  0  0  0  0  0  0  0
   -3.6299    0.7154   -0.8312 H   0  0  0  0  0  0  0  0  0  0  0  0
   -4.1437    1.0401    0.9017 H   0  0  0  0  0  0  0  0  0  0  0  0
   -1.4141    0.2477    0.0671 C   0  0  0  0  0  0  0  0  0  0  0  0
   -2.7457   -1.0569   -0.5733 H   0  0  0  0  0  0  0  0  0  0  0  0
   -2.7809   -1.1629    1.2263 H   0  0  0  0  0  0  0  0  0  0  0  0
   -0.1897   -0.7272   -0.0265 C   0  0  0  0  0  0  0  0  0  0  0  0
   -1.4339    0.7946    0.7475 H   0  0  0  0  0  0  0  0  0  0  0  0
   -1.5795    0.9223   -0.8813 H   0  0  0  0  0  0  0  0  0  0  0  0
    0.0505   -1.1754    0.6660 H   0  0  0  0  0  0  0  0  0  0  0  0
    0.6431   -0.2480   -0.0244 H   0  0  0  0  0  0  0  0  0  0  0  0
   -0.4912   -1.9283   -1.2227 H   0  0  0  0  0  0  0  0  0  0  0  0
  1  2  1  0  0  0  0
  1  5  1  0  0  0  0
  2  8  1  0  0  0  0
  3  1  1  0  0  0  0
  4  1  1  0  0  0  0
  6  2  1  0  0  0  0
  6 10  1  0  0  0  0
  7  2  1  0  0  0  0
  9 13  1  0  0  0  0
  9  6  1  0  0  0  0
  9 12  1  0  0  0  0
 11  6  1  0  0  0  0
M  RAD  2   9   2  14   2
M  END
$$$$
