butane_opt
 OpenBabel08242015393D

 14 10  0  0  0  0  0  0  0  0999 V2000
   -3.9855    0.3152   -0.1003 C   0  0  0  0  0  0  0  0  0  0  0  0
   -2.6879   -0.7577    0.1793 C   0  0  0  0  0  0  0  0  0  0  0  0
   -4.7874   -0.0934   -0.0697 H   0  0  0  0  0  0  0  0  0  0  0  0
   -4.0983    1.3267   -1.1212 H   0  0  0  0  0  0  0  0  0  0  0  0
   -4.3344    0.9470    0.7255 H   0  0  0  0  0  0  0  0  0  0  0  0
   -1.3194    0.1832    0.1224 C   0  0  0  0  0  0  0  0  0  0  0  0
   -2.9384   -1.1542   -0.4820 H   0  0  0  0  0  0  0  0  0  0  0  0
   -2.7298   -1.4136    1.1452 H   0  0  0  0  0  0  0  0  0  0  0  0
   -0.1446   -0.6677   -0.0642 C   0  0  0  0  0  1  0  0  0  0  0  0
   -1.3202    0.5842    0.9167 H   0  0  0  0  0  0  0  0  0  0  0  0
   -1.2973    0.9242   -0.7964 H   0  0  0  0  0  0  0  0  0  0  0  0
   -0.4138   -0.5984    0.4390 H   0  0  0  0  0  0  0  0  0  0  0  0
    0.7621   -0.0815    0.2760 H   0  0  0  0  0  0  0  0  0  0  0  0
   -0.1984   -1.7998   -1.3658 H   0  0  0  0  0  0  0  0  0  0  0  0
  1  3  1  0  0  0  0
  1  2  1  0  0  0  0
  1  5  1  0  0  0  0
  2  8  1  0  0  0  0
  4  1  1  0  0  0  0
  6 12  1  0  0  0  0
  6 10  1  0  0  0  0
  7  2  1  0  0  0  0
  9 13  1  0  0  0  0
 11  6  1  0  0  0  0
M  RAD  3   2   2   6   2  14   2
M  END
$$$$
