butane_opt
 OpenBabel08242015393D

 14 13  0  0  0  0  0  0  0  0999 V2000
   -3.9643    0.2797    0.0357 C   0  0  0  0  0  0  0  0  0  0  0  0
   -2.7012   -0.6311    0.0282 C   0  0  0  0  0  0  0  0  0  0  0  0
   -4.8955   -0.3315   -0.1129 H   0  0  0  0  0  0  0  0  0  0  0  0
   -3.9697    0.8030   -0.7972 H   0  0  0  0  0  0  0  0  0  0  0  0
   -4.0236    1.0775    0.9760 H   0  0  0  0  0  0  0  0  0  0  0  0
   -1.3801    0.1717   -0.0044 C   0  0  0  0  0  0  0  0  0  0  0  0
   -2.7059   -1.3220   -0.8157 H   0  0  0  0  0  0  0  0  0  0  0  0
   -2.7087   -1.2394    0.9001 H   0  0  0  0  0  0  0  0  0  0  0  0
   -0.1593   -0.6878    0.0466 C   0  0  0  0  0  0  0  0  0  0  0  0
   -1.3543    0.7839    0.7887 H   0  0  0  0  0  0  0  0  0  0  0  0
   -1.3818    0.8654   -0.9470 H   0  0  0  0  0  0  0  0  0  0  0  0
   -0.1144   -1.3386    0.9792 H   0  0  0  0  0  0  0  0  0  0  0  0
    0.7521   -0.0576   -0.0246 H   0  0  0  0  0  0  0  0  0  0  0  0
   -0.1628   -1.3039   -0.7621 H   0  0  0  0  0  0  0  0  0  0  0  0
  1  5  1  0  0  0  0
  2  1  1  0  0  0  0
  2  8  1  0  0  0  0
  3  1  1  0  0  0  0
  4  1  1  0  0  0  0
  6  2  1  0  0  0  0
  6  9  1  0  0  0  0
  6 10  1  0  0  0  0
  7  2  1  0  0  0  0
  9 12  1  0  0  0  0
 11  6  1  0  0  0  0
 13  9  1  0  0  0  0
 14  9  1  0  0  0  0
M  END
$$$$
