14
butane_opt
C  -3.944861   0.228241   0.161227
C  -2.679370  -0.599227  -0.225342
H  -4.665065  -0.326164   0.866603
H  -4.643437   1.109541  -0.729633
H  -3.605368   0.709124   1.047306
C  -1.451512   0.218094  -0.108531
H  -2.804606  -1.439789  -1.184981
H  -2.692617  -1.175796   0.639427
C  -0.154086  -0.705386   0.167165
H  -1.577716   1.002041   0.832318
H  -1.113504   0.798254  -1.129311
H  -0.085014  -1.677634   1.389440
H   0.845834  -0.031518   0.244405
H   0.064548  -1.094165  -0.453632
