14
butane_opt
C  -3.921029   0.247720  -0.151753
C  -2.826125  -0.581760   0.300136
H  -4.911423  -0.415453  -0.706738
H  -3.585230   0.720655  -1.051224
H  -4.545555   0.985857   0.596817
C  -1.399447   0.223594   0.170391
H  -2.716976  -1.050393  -0.486871
H  -2.810810  -1.227128   1.203139
C  -0.072188  -0.720941  -0.142284
H  -1.111755   0.891519   1.068883
H  -1.604809   0.733377  -0.530227
H   0.455425  -1.412678   0.595275
H   0.877418  -0.120582  -0.225163
H  -0.430077  -1.623607  -1.111768
