butane_opt
 OpenBabel08242015393D

 14 10  0  0  0  0  0  0  0  0999 V2000
   -3.9967    0.1839    0.1627 C   0  0  0  0  0  0  0  0  0  0  0  0
   -2.7197   -0.5176   -0.0650 C   0  0  0  0  0  0  0  0  0  0  0  0
   -4.8843   -0.3960   -0.5000 H   0  0  0  0  0  0  0  0  0  0  0  0
   -3.6712    0.4576   -0.4469 H   0  0  0  0  0  0  0  0  0  0  0  0
   -4.4274    1.3479    1.4147 H   0  0  0  0  0  0  0  0  0  0  0  0
   -1.4324    0.2337   -0.1331 C   0  0  0  0  0  0  0  0  0  0  0  0
   -3.0162   -1.4744   -1.1424 H   0  0  0  0  0  0  0  0  0  0  0  0
   -2.5944   -1.1713    0.6844 H   0  0  0  0  0  0  0  0  0  0  0  0
   -0.0404   -0.7579    0.1738 C   0  0  0  0  0  0  0  0  0  0  0  0
   -1.3312    0.6800    0.5420 H   0  0  0  0  0  0  0  0  0  0  0  0
   -1.3529    1.1484   -1.2171 H   0  0  0  0  0  0  0  0  0  0  0  0
   -0.0370   -1.5357    1.3159 H   0  0  0  0  0  0  0  0  0  0  0  0
    0.7397   -0.2661   -0.2686 H   0  0  0  0  0  0  0  0  0  0  0  0
   -0.1150   -0.9971   -0.5180 H   0  0  0  0  0  0  0  0  0  0  0  0
  2  8  1  0  0  0  0
  3  1  1  0  0  0  0
  4  1  1  0  0  0  0
  6  9  1  0  0  0  0
  6 10  1  0  0  0  0
  7  2  1  0  0  0  0
  9 12  1  0  0  0  0
 11  6  1  0  0  0  0
 13  9  1  0  0  0  0
 14  9  1  0  0  0  0
M  RAD  4   1   3   2   3   5   2   6   2
M  END
$$$$
