butane_opt
 OpenBabel08242015393D

 14  9  0  0  0  0  0  0  0  0999 V2000
   -3.9312    0.2461    0.1103 C   0  0  0  0  0  1  0  0  0  0  0  0
   -2.7327   -0.5990   -0.0604 C   0  0  0  0  0  0  0  0  0  0  0  0
   -4.9388   -0.4467   -0.2616 H   0  0  0  0  0  0  0  0  0  0  0  0
   -3.8789    0.2373   -0.4228 H   0  0  0  0  0  0  0  0  0  0  0  0
   -4.0580    1.5631    1.3438 H   0  0  0  0  0  0  0  0  0  0  0  0
   -1.4208    0.2616   -0.0997 C   0  0  0  0  0  0  0  0  0  0  0  0
   -3.1912   -1.4420   -1.1744 H   0  0  0  0  0  0  0  0  0  0  0  0
   -2.6804   -1.2671    0.7625 H   0  0  0  0  0  0  0  0  0  0  0  0
   -0.1365   -0.7156    0.1830 C   0  0  0  0  0  0  0  0  0  0  0  0
   -1.4984    0.7156    0.4346 H   0  0  0  0  0  0  0  0  0  0  0  0
   -1.1138    1.1412   -1.1456 H   0  0  0  0  0  0  0  0  0  0  0  0
    0.4087   -1.7814    1.3308 H   0  0  0  0  0  0  0  0  0  0  0  0
    0.7417   -0.3662   -0.3779 H   0  0  0  0  0  0  0  0  0  0  0  0
   -0.1545   -1.1558   -0.5461 H   0  0  0  0  0  0  0  0  0  0  0  0
  2  8  1  0  0  0  0
  3  1  1  0  0  0  0
  4  2  1  0  0  0  0
  6  9  1  0  0  0  0
  6 10  1  0  0  0  0
  7  2  1  0  0  0  0
 11  6  1  0  0  0  0
 13  9  1  0  0  0  0
 14  9  1  0  0  0  0
M  RAD  5   2   2   5   2   6   2   9   2  12   2
M  END
$$$$
