14
butane_opt
C  -3.869292   0.226205   0.196243
C  -2.726419  -0.548562  -0.196078
H  -4.873291  -0.472270   0.890948
H  -3.985838   1.237171  -1.005568
H  -3.633451   0.191108   0.742302
C  -1.461674   0.219277  -0.098312
H  -2.755315  -1.416678  -1.156235
H  -2.381693  -0.747909   0.511573
C  -0.143455  -0.756854   0.172576
H  -1.685108   0.909880   0.772382
H  -1.316044   0.897466  -1.052109
H  -0.444552  -1.328249   1.131271
H   0.698139  -0.158957   0.254525
H  -0.183984  -1.295765  -0.592942
