butane_opt
 OpenBabel08242015393D

 14  7  0  0  0  0  0  0  0  0999 V2000
   -3.9503    0.3574    0.1221 C   0  0  0  0  0  0  0  0  0  0  0  0
   -2.6195   -0.6621   -0.1232 C   0  0  0  0  0  0  0  0  0  0  0  0
   -4.8898   -0.2349   -0.0429 H   0  0  0  0  0  0  0  0  0  0  0  0
   -4.0388    0.4298   -0.4859 H   0  0  0  0  0  0  0  0  0  0  0  0
   -3.9179    1.3492    1.1295 H   0  0  0  0  0  0  0  0  0  0  0  0
   -1.3656    0.0878   -0.0217 C   0  0  0  0  0  0  0  0  0  0  0  0
   -2.6833   -1.6827   -1.2320 H   0  0  0  0  0  0  0  0  0  0  0  0
   -2.6414   -1.0338    0.5562 H   0  0  0  0  0  0  0  0  0  0  0  0
   -0.2613   -0.6583    0.1882 C   0  0  0  0  0 15  0  0  0  0  0  0
   -1.3800    0.4869    0.4269 H   0  0  0  0  0  0  0  0  0  0  0  0
   -1.2594    0.8170   -0.9935 H   0  0  0  0  0  0  0  0  0  0  0  0
    0.0302   -1.7253    1.3228 H   0  0  0  0  0  0  0  0  0  0  0  0
    0.7472    0.2527   -0.9719 H   0  0  0  0  0  0  0  0  0  0  0  0
   -0.6526   -0.5815   -0.1385 H   0  0  0  0  0  0  0  0  0  0  0  0
  1  5  1  0  0  0  0
  2  1  1  0  0  0  0
  2  8  1  0  0  0  0
  3  1  1  0  0  0  0
  7  2  1  0  0  0  0
 11  6  1  0  0  0  0
 14  6  1  0  0  0  0
M  RAD  7   1   2   2   2   4   2   6   3  10   2  12   2  13   2
M  END
$$$$
