butane_opt
 OpenBabel08242015393D

 14 10  0  0  0  0  0  0  0  0999 V2000
   -3.9005    0.1761   -0.1130 C   0  0  0  0  0  0  0  0  0  0  0  0
   -2.6644   -0.5716    0.1761 C   0  0  0  0  0  0  0  0  0  0  0  0
   -4.7355   -0.2659    0.1081 H   0  0  0  0  0  0  0  0  0  0  0  0
   -3.7199    1.1701   -1.1732 H   0  0  0  0  0  0  0  0  0  0  0  0
   -3.9146    0.6887    0.5782 H   0  0  0  0  0  0  0  0  0  0  0  0
   -1.4764    0.2584    0.0997 C   0  0  0  0  0  0  0  0  0  0  0  0
   -2.7985   -0.7786   -0.4292 H   0  0  0  0  0  0  0  0  0  0  0  0
   -2.8712   -1.8150    1.4889 H   0  0  0  0  0  0  0  0  0  0  0  0
   -0.1560   -0.7688   -0.0670 C   0  0  0  0  0  1  0  0  0  0  0  0
   -1.4026    1.1264    1.0135 H   0  0  0  0  0  0  0  0  0  0  0  0
   -1.5731    0.9514   -0.6705 H   0  0  0  0  0  0  0  0  0  0  0  0
   -0.3009   -0.3999    0.1344 H   0  0  0  0  0  0  0  0  0  0  0  0
    0.7045   -0.2114    0.5432 H   0  0  0  0  0  0  0  0  0  0  0  0
   -0.0064   -2.1076   -1.4256 H   0  0  0  0  0  0  0  0  0  0  0  0
  1  3  1  0  0  0  0
  1  2  1  0  0  0  0
  1  5  1  0  0  0  0
  4  1  1  0  0  0  0
  6 12  1  0  0  0  0
  6  2  1  0  0  0  0
  6 10  1  0  0  0  0
  7  2  1  0  0  0  0
  9 13  1  0  0  0  0
 11  6  1  0  0  0  0
M  RAD  3   2   2   8   2  14   2
M  END
$$$$
