butane_opt
 OpenBabel08242015393D

 14 13  0  0  0  0  0  0  0  0999 V2000
   -3.9563    0.2022    0.2371 C   0  0  0  0  0  0  0  0  0  0  0  0
   -2.7145   -0.5846   -0.2138 C   0  0  0  0  0  0  0  0  0  0  0  0
   -4.8446   -0.2540    0.4742 H   0  0  0  0  0  0  0  0  0  0  0  0
   -4.2718    0.9847   -0.6520 H   0  0  0  0  0  0  0  0  0  0  0  0
   -3.8126    0.6783    0.9871 H   0  0  0  0  0  0  0  0  0  0  0  0
   -1.3986    0.2807   -0.2045 C   0  0  0  0  0  0  0  0  0  0  0  0
   -2.8688   -1.4788   -1.1278 H   0  0  0  0  0  0  0  0  0  0  0  0
   -2.4071   -1.0916    0.6355 H   0  0  0  0  0  0  0  0  0  0  0  0
   -0.1616   -0.7303    0.2406 C   0  0  0  0  0  0  0  0  0  0  0  0
   -1.5034    0.7712    0.5934 H   0  0  0  0  0  0  0  0  0  0  0  0
   -1.3784    0.8325   -1.1363 H   0  0  0  0  0  0  0  0  0  0  0  0
   -0.2628   -1.2962    1.0569 H   0  0  0  0  0  0  0  0  0  0  0  0
    0.6166   -0.2335    0.2703 H   0  0  0  0  0  0  0  0  0  0  0  0
    0.4921   -1.3842   -0.4220 H   0  0  0  0  0  0  0  0  0  0  0  0
  1  3  1  0  0  0  0
  1  5  1  0  0  0  0
  2  6  1  0  0  0  0
  2  1  1  0  0  0  0
  2  8  1  0  0  0  0
  4  1  1  0  0  0  0
  6  9  1  0  0  0  0
  6 10  1  0  0  0  0
  7  2  1  0  0  0  0
  9 13  1  0  0  0  0
  9 12  1  0  0  0  0
 11  6  1  0  0  0  0
 14  9  1  0  0  0  0
M  END
$$$$
