butane_opt
 OpenBabel08242015393D

 14 12  0  0  0  0  0  0  0  0999 V2000
   -3.9552    0.3206    0.1258 C   0  0  0  0  0  0  0  0  0  0  0  0
   -2.6328   -0.7019   -0.1030 C   0  0  0  0  0  0  0  0  0  0  0  0
   -4.8895   -0.2452    0.3438 H   0  0  0  0  0  0  0  0  0  0  0  0
   -4.1659    1.2489   -1.1189 H   0  0  0  0  0  0  0  0  0  0  0  0
   -3.8358    0.7202    0.8224 H   0  0  0  0  0  0  0  0  0  0  0  0
   -1.4047    0.1206   -0.0241 C   0  0  0  0  0  0  0  0  0  0  0  0
   -2.6417   -1.1962   -0.9296 H   0  0  0  0  0  0  0  0  0  0  0  0
   -2.6417   -1.2317    0.6185 H   0  0  0  0  0  0  0  0  0  0  0  0
   -0.1675   -0.6440    0.0895 C   0  0  0  0  0  0  0  0  0  0  0  0
   -1.5589    1.0620    1.0759 H   0  0  0  0  0  0  0  0  0  0  0  0
   -1.3048    0.4487   -0.8494 H   0  0  0  0  0  0  0  0  0  0  0  0
   -0.3693   -1.5282    1.2682 H   0  0  0  0  0  0  0  0  0  0  0  0
    0.7930    0.1385   -0.1940 H   0  0  0  0  0  0  0  0  0  0  0  0
   -0.5005   -1.0115   -0.6615 H   0  0  0  0  0  0  0  0  0  0  0  0
  1  3  1  0  0  0  0
  1  5  1  0  0  0  0
  2  6  1  0  0  0  0
  2  1  1  0  0  0  0
  2  8  1  0  0  0  0
  6  9  1  0  0  0  0
  6 10  1  0  0  0  0
  7  2  1  0  0  0  0
  9 12  1  0  0  0  0
 11  6  1  0  0  0  0
 13  9  1  0  0  0  0
 14  9  1  0  0  0  0
M  RAD  2   1   2   4   2
M  END
$$$$
