14
butane_opt
C  -3.849191   0.256582   0.117225
C  -2.698925  -0.574320   0.037548
H  -4.951627  -0.490816  -0.769029
H  -3.367275   0.355924  -0.489872
H  -4.207521   1.346198   1.264526
C  -1.405135   0.227065  -0.083175
H  -2.705036  -1.481065  -1.024744
H  -2.806958  -1.131807   0.808315
C  -0.266369  -0.710816   0.103506
H  -1.487980   0.706171   0.625777
H  -1.448068   0.906407  -1.174227
H  -0.034956  -1.760355   1.263623
H   0.537444  -0.140746  -0.399403
H   0.057051  -1.175834  -0.679971
