butane_opt
 OpenBabel08242015393D

 14 10  0  0  0  0  0  0  0  0999 V2000
   -3.8983    0.2323    0.1066 C   0  0  0  0  0  0  0  0  0  0  0  0
   -2.7011   -0.5425   -0.0997 C   0  0  0  0  0  0  0  0  0  0  0  0
   -5.0613   -0.6007    0.2509 H   0  0  0  0  0  0  0  0  0  0  0  0
   -3.9146    0.3888   -0.4765 H   0  0  0  0  0  0  0  0  0  0  0  0
   -3.5442    1.2259    1.2407 H   0  0  0  0  0  0  0  0  0  0  0  0
   -1.3835    0.2047   -0.1224 C   0  0  0  0  0  0  0  0  0  0  0  0
   -2.6758   -1.1930   -1.0620 H   0  0  0  0  0  0  0  0  0  0  0  0
   -2.7367   -0.9968    0.7190 H   0  0  0  0  0  0  0  0  0  0  0  0
   -0.1946   -0.7388    0.1494 C   0  0  0  0  0  0  0  0  0  0  0  0
   -1.6581    1.0427    0.8448 H   0  0  0  0  0  0  0  0  0  0  0  0
   -1.2957    0.9665   -1.0994 H   0  0  0  0  0  0  0  0  0  0  0  0
   -0.4383   -1.9064    1.3662 H   0  0  0  0  0  0  0  0  0  0  0  0
    0.6633   -0.3619   -0.1571 H   0  0  0  0  0  0  0  0  0  0  0  0
   -0.1752   -0.9779   -0.5022 H   0  0  0  0  0  0  0  0  0  0  0  0
  1  3  1  0  0  0  0
  2  1  1  0  0  0  0
  2  8  1  0  0  0  0
  6  2  1  0  0  0  0
  6  9  1  0  0  0  0
  6 10  1  0  0  0  0
  7  2  1  0  0  0  0
 11  6  1  0  0  0  0
 13  9  1  0  0  0  0
 14  9  1  0  0  0  0
M  RAD  5   1   3   4   2   5   2   9   2  12   2
M  END
$$$$
