14
butane_opt
C  -3.840669   0.207419  -0.022738
C  -2.642851  -0.557625   0.022198
H  -5.041256  -0.591235   0.896856
H  -4.130788   1.455295  -1.335388
H  -3.796413   0.286414   0.417535
C  -1.462556   0.232632   0.058001
H  -2.747966  -0.994249  -0.846353
H  -2.679946  -1.230608   0.953462
C  -0.222186  -0.709894   0.012430
H  -1.329636   1.136270   1.098924
H  -1.584404   0.482549  -0.584144
H  -0.034201  -1.090074   0.674785
H   0.512059  -0.283533   0.263947
H  -0.105251  -1.759760  -0.999237
