14
butane_opt
C  -3.995370   0.298974  -0.137835
C  -2.723233  -0.625188   0.291221
H  -4.839326  -0.205089  -0.813998
H  -3.625473   0.898539  -1.095245
H  -4.293836   1.149492   0.779016
C  -1.364324   0.078517   0.141345
H  -2.935424  -1.051400  -0.446732
H  -2.762677  -1.619964   1.366580
C  -0.122744  -0.670226  -0.160571
H  -1.144578   1.052101   1.129774
H  -1.456036   0.655662  -0.609310
H  -0.085030  -0.976405   0.492279
H   0.700602   0.016863   0.018093
H  -0.135375  -1.381763  -1.036834
