14
butane_opt
C  -3.910585   0.221973  -0.079598
C  -2.739373  -0.580575   0.047731
H  -4.943615  -0.429728  -0.021961
H  -3.756479   0.806332  -0.990291
H  -3.814879   0.703620   0.847351
C  -1.438916   0.248003   0.169282
H  -2.406094  -1.089866  -0.684265
H  -2.674281  -1.170726   0.970780
C  -0.138474  -0.748004  -0.078940
H  -1.139079   1.156503   1.248010
H  -1.763313   0.730518  -0.496246
H   0.222162  -1.846338   1.138980
H   0.496767  -0.297256  -0.591809
H  -0.469719  -0.780022  -0.602331
