14
butane_opt
C  -3.900695   0.344796   0.190826
C  -2.690607  -0.685546  -0.166502
H  -4.751346  -0.152749   0.125063
H  -4.127078   0.926628  -0.724043
H  -4.090859   1.108417   1.088465
C  -1.363844   0.095007  -0.075190
H  -3.026716  -1.687426  -1.319598
H  -2.427570  -1.120711   0.395219
C  -0.216532  -0.601421   0.181401
H  -1.542929   0.615753   0.625139
H  -1.319619   0.609670  -0.918610
H  -0.235299  -1.852291   1.523875
H   0.823185  -0.011224  -0.626811
H  -0.306297  -0.658123  -0.247857
