14
butane_opt
C  -3.896437   0.212830   0.207762
C  -2.667766  -0.512929  -0.108603
H  -4.886408  -0.513919   0.274518
H  -4.142007   0.522773  -0.598065
H  -3.712199   0.993176   1.240552
C  -1.438644   0.202031  -0.268327
H  -3.079840  -1.182826  -0.920493
H  -2.504750  -0.991698   0.589076
C  -0.193884  -0.741286   0.193243
H  -1.624432   0.598025   0.382548
H  -1.475777   1.052062  -1.232418
H  -0.676919  -1.228985   1.116521
H   0.887199   0.012926   1.080842
H   0.548849  -1.674344  -0.787295
