butane_opt
 OpenBabel08242015393D

 14 12  0  0  0  0  0  0  0  0999 V2000
   -3.8634    0.2108    0.1005 C   0  0  0  0  0  0  0  0  0  0  0  0
   -2.6905   -0.5497   -0.1316 C   0  0  0  0  0  0  0  0  0  0  0  0
   -4.7708   -0.3664    0.7129 H   0  0  0  0  0  0  0  0  0  0  0  0
   -4.3709    1.2951   -0.9587 H   0  0  0  0  0  0  0  0  0  0  0  0
   -3.2748    0.4727    0.8420 H   0  0  0  0  0  0  0  0  0  0  0  0
   -1.4807    0.1750   -0.0381 C   0  0  0  0  0  0  0  0  0  0  0  0
   -2.7173   -1.2746   -1.0804 H   0  0  0  0  0  0  0  0  0  0  0  0
   -2.7913   -1.0897    0.7814 H   0  0  0  0  0  0  0  0  0  0  0  0
   -0.1661   -0.6872    0.1015 C   0  0  0  0  0  0  0  0  0  0  0  0
   -1.8212    0.9004    0.9429 H   0  0  0  0  0  0  0  0  0  0  0  0
   -1.4010    0.7665   -0.8465 H   0  0  0  0  0  0  0  0  0  0  0  0
   -0.2363   -1.5669    1.1519 H   0  0  0  0  0  0  0  0  0  0  0  0
    0.7132    0.0263    0.1627 H   0  0  0  0  0  0  0  0  0  0  0  0
    0.0243   -1.4033   -0.7240 H   0  0  0  0  0  0  0  0  0  0  0  0
  1  3  1  0  0  0  0
  1  5  1  0  0  0  0
  2  6  1  0  0  0  0
  2  1  1  0  0  0  0
  2  8  1  0  0  0  0
  6  9  1  0  0  0  0
  6 10  1  0  0  0  0
  7  2  1  0  0  0  0
  9 13  1  0  0  0  0
  9 12  1  0  0  0  0
 11  6  1  0  0  0  0
 14  9  1  0  0  0  0
M  RAD  2   1   2   4   2
M  END
$$$$
