butane_opt
 OpenBabel08242015393D

 14 10  0  0  0  0  0  0  0  0999 V2000
   -4.0096    0.3399   -0.0810 C   0  0  0  0  0  0  0  0  0  0  0  0
   -2.6657   -0.7308    0.1110 C   0  0  0  0  0  0  0  0  0  0  0  0
   -4.9063   -0.1386    0.6506 H   0  0  0  0  0  0  0  0  0  0  0  0
   -4.2634    1.5270   -1.3613 H   0  0  0  0  0  0  0  0  0  0  0  0
   -3.8598    0.4842    0.3204 H   0  0  0  0  0  0  0  0  0  0  0  0
   -1.4188    0.1449    0.1443 C   0  0  0  0  0  0  0  0  0  0  0  0
   -2.5804   -1.5122   -0.7094 H   0  0  0  0  0  0  0  0  0  0  0  0
   -2.5680   -1.4456    0.9720 H   0  0  0  0  0  0  0  0  0  0  0  0
   -0.1929   -0.6185   -0.0471 C   0  0  0  0  0  0  0  0  0  0  0  0
   -1.3086    0.8294    1.0989 H   0  0  0  0  0  0  0  0  0  0  0  0
   -0.9628    0.7952   -0.7265 H   0  0  0  0  0  0  0  0  0  0  0  0
    0.1993   -0.9067    0.5213 H   0  0  0  0  0  0  0  0  0  0  0  0
    0.8626    0.1236    0.2563 H   0  0  0  0  0  0  0  0  0  0  0  0
   -0.2628   -1.7981   -1.2166 H   0  0  0  0  0  0  0  0  0  0  0  0
  1  2  1  0  0  0  0
  1  3  1  0  0  0  0
  2  6  1  0  0  0  0
  2  8  1  0  0  0  0
  6 10  1  0  0  0  0
  7  2  1  0  0  0  0
  9  6  1  0  0  0  0
  9 13  1  0  0  0  0
  9 12  1  0  0  0  0
 11  6  1  0  0  0  0
M  RAD  5   1   3   4   2   5   2   9   2  14   2
M  END
$$$$
