butane_opt
 OpenBabel08242015393D

 14 10  0  0  0  0  0  0  0  0999 V2000
   -3.8796    0.2187    0.0422 C   0  0  0  0  0  0  0  0  0  0  0  0
   -2.7543   -0.6018    0.0582 C   0  0  0  0  0  0  0  0  0  0  0  0
   -5.0095   -0.4375   -0.3511 H   0  0  0  0  0  0  0  0  0  0  0  0
   -3.9077    0.8979   -0.8961 H   0  0  0  0  0  0  0  0  0  0  0  0
   -4.0385    0.9500    0.9128 H   0  0  0  0  0  0  0  0  0  0  0  0
   -1.4504    0.3290    0.0527 C   0  0  0  0  0  0  0  0  0  0  0  0
   -3.0576   -1.6798   -1.1875 H   0  0  0  0  0  0  0  0  0  0  0  0
   -3.0016   -1.0135    0.7235 H   0  0  0  0  0  0  0  0  0  0  0  0
   -0.0734   -0.7644    0.0088 C   0  0  0  0  0  0  0  0  0  0  0  0
   -1.5441    0.9595    0.9785 H   0  0  0  0  0  0  0  0  0  0  0  0
   -1.3786    0.8863   -0.8474 H   0  0  0  0  0  0  0  0  0  0  0  0
    0.2975   -1.9555    1.3247 H   0  0  0  0  0  0  0  0  0  0  0  0
    0.7331   -0.2699   -0.6758 H   0  0  0  0  0  0  0  0  0  0  0  0
   -0.2058   -0.9830   -0.4576 H   0  0  0  0  0  0  0  0  0  0  0  0
  1  2  1  0  0  0  0
  1  5  1  0  0  0  0
  2  8  1  0  0  0  0
  3  1  1  0  0  0  0
  4  1  1  0  0  0  0
  6  2  1  0  0  0  0
  6 10  1  0  0  0  0
  9  6  1  0  0  0  0
 11  6  1  0  0  0  0
 13  9  1  0  0  0  0
M  RAD  5   2   2   7   2   9   3  12   2  14   2
M  END
$$$$
