14
butane_opt
C  -3.941252   0.325625  -0.116621
C  -2.731910  -0.682204   0.101970
H  -4.821247  -0.222434   0.792661
H  -4.426622   1.790747  -1.487488
H  -3.983815   0.116171   0.211245
C  -1.347621   0.174729   0.178314
H  -2.566105  -1.413773  -0.679482
H  -2.671964  -1.595724   1.169446
C  -0.178157  -0.667579  -0.099112
H  -0.908669   1.217601   1.359451
H  -1.584976   0.505107  -0.328467
H  -0.336703  -0.937825   0.437090
H   0.755948  -0.085570   0.126978
H  -0.067302  -1.613558  -1.058847
