14
butane_opt
C  -3.996698   0.183916   0.162676
C  -2.719686  -0.517553  -0.065039
H  -4.884253  -0.395990  -0.499958
H  -3.671177   0.457580  -0.446853
H  -4.427361   1.347860   1.414722
C  -1.432384   0.233716  -0.133068
H  -3.016173  -1.474382  -1.142428
H  -2.594367  -1.171323   0.684366
C  -0.040388  -0.757948   0.173809
H  -1.331157   0.679992   0.541980
H  -1.352892   1.148352  -1.217146
H  -0.037012  -1.535672   1.315918
H   0.739672  -0.266058  -0.268591
H  -0.114974  -0.997066  -0.518040
