butane_opt
 OpenBabel08242015393D

 14 10  0  0  0  0  0  0  0  0999 V2000
   -3.9745    0.2410    0.1677 C   0  0  0  0  0  0  0  0  0  0  0  0
   -2.7232   -0.5468   -0.1554 C   0  0  0  0  0  0  0  0  0  0  0  0
   -5.0413   -0.5772    0.1579 H   0  0  0  0  0  0  0  0  0  0  0  0
   -3.8330    0.6756   -0.6378 H   0  0  0  0  0  0  0  0  0  0  0  0
   -3.8649    0.9527    0.9773 H   0  0  0  0  0  0  0  0  0  0  0  0
   -1.3372    0.2537   -0.0436 C   0  0  0  0  0  0  0  0  0  0  0  0
   -3.0996   -1.6164   -1.3092 H   0  0  0  0  0  0  0  0  0  0  0  0
   -2.4232   -0.9969    0.5597 H   0  0  0  0  0  0  0  0  0  0  0  0
   -0.1765   -0.7800    0.1464 C   0  0  0  0  0  0  0  0  0  0  0  0
   -1.5728    0.9166    0.5893 H   0  0  0  0  0  0  0  0  0  0  0  0
   -1.3672    0.9980   -1.0047 H   0  0  0  0  0  0  0  0  0  0  0  0
    0.1203   -1.9199    1.4573 H   0  0  0  0  0  0  0  0  0  0  0  0
    0.6724   -0.1812   -0.4641 H   0  0  0  0  0  0  0  0  0  0  0  0
   -0.0544   -0.7501   -0.2031 H   0  0  0  0  0  0  0  0  0  0  0  0
  1  5  1  0  0  0  0
  2  6  1  0  0  0  0
  2  1  1  0  0  0  0
  2  8  1  0  0  0  0
  3  1  1  0  0  0  0
  4  1  1  0  0  0  0
  6  9  1  0  0  0  0
  6 10  1  0  0  0  0
 11  6  1  0  0  0  0
 13  9  1  0  0  0  0
M  RAD  5   2   2   7   2   9   3  12   2  14   2
M  END
$$$$
