butane_opt
 OpenBabel08242015393D

 14  9  0  0  0  0  0  0  0  0999 V2000
   -3.9272    0.1814    0.1393 C   0  0  0  0  0  1  0  0  0  0  0  0
   -2.7050   -0.5470   -0.0556 C   0  0  0  0  0  0  0  0  0  0  0  0
   -4.9187   -0.5508   -0.4866 H   0  0  0  0  0  0  0  0  0  0  0  0
   -3.6469    0.1347   -0.3448 H   0  0  0  0  0  0  0  0  0  0  0  0
   -3.9511    1.5791    1.4548 H   0  0  0  0  0  0  0  0  0  0  0  0
   -1.4470    0.3249   -0.1456 C   0  0  0  0  0  0  0  0  0  0  0  0
   -2.6546   -1.2576   -0.9542 H   0  0  0  0  0  0  0  0  0  0  0  0
   -2.4929   -1.2085    0.7905 H   0  0  0  0  0  0  0  0  0  0  0  0
   -0.1597   -0.7463    0.1420 C   0  0  0  0  0  0  0  0  0  0  0  0
   -1.7453    0.6237    0.4688 H   0  0  0  0  0  0  0  0  0  0  0  0
   -1.1191    1.0251   -1.1295 H   0  0  0  0  0  0  0  0  0  0  0  0
   -0.0413   -1.7913    1.3785 H   0  0  0  0  0  0  0  0  0  0  0  0
    0.6586   -0.4261   -0.0995 H   0  0  0  0  0  0  0  0  0  0  0  0
   -0.1895   -1.1876   -0.5063 H   0  0  0  0  0  0  0  0  0  0  0  0
  2  8  1  0  0  0  0
  3  1  1  0  0  0  0
  4  2  1  0  0  0  0
  6  9  1  0  0  0  0
  6 10  1  0  0  0  0
  7  2  1  0  0  0  0
 11  6  1  0  0  0  0
 13  9  1  0  0  0  0
 14  9  1  0  0  0  0
M  RAD  5   2   2   5   2   6   2   9   2  12   2
M  END
$$$$
