butane_opt
 OpenBabel08242015393D

 14 11  0  0  0  0  0  0  0  0999 V2000
   -3.9092    0.3145    0.0585 C   0  0  0  0  0  0  0  0  0  0  0  0
   -2.6098   -0.6644   -0.0693 C   0  0  0  0  0  0  0  0  0  0  0  0
   -4.8534   -0.1800   -0.0069 H   0  0  0  0  0  0  0  0  0  0  0  0
   -4.2855    0.8064   -0.6459 H   0  0  0  0  0  0  0  0  0  0  0  0
   -3.7875    1.0863    0.9256 H   0  0  0  0  0  0  0  0  0  0  0  0
   -1.3865    0.0911   -0.0223 C   0  0  0  0  0  0  0  0  0  0  0  0
   -2.7472   -1.4556   -0.9093 H   0  0  0  0  0  0  0  0  0  0  0  0
   -2.7430   -1.2007    0.8486 H   0  0  0  0  0  0  0  0  0  0  0  0
   -0.3024   -0.6334    0.0844 C   0  0  0  0  0  0  0  0  0  0  0  0
   -1.0457    1.0255    1.0709 H   0  0  0  0  0  0  0  0  0  0  0  0
   -1.4860    0.7308   -0.8670 H   0  0  0  0  0  0  0  0  0  0  0  0
   -0.0463   -1.7082    1.3971 H   0  0  0  0  0  0  0  0  0  0  0  0
    0.7095   -0.0295   -0.4728 H   0  0  0  0  0  0  0  0  0  0  0  0
   -0.2833   -0.8331   -0.4673 H   0  0  0  0  0  0  0  0  0  0  0  0
  1  5  1  0  0  0  0
  2  6  1  0  0  0  0
  2  1  1  0  0  0  0
  2  8  1  0  0  0  0
  3  1  1  0  0  0  0
  4  1  1  0  0  0  0
  6  9  1  0  0  0  0
  6 10  1  0  0  0  0
  7  2  1  0  0  0  0
 11  6  1  0  0  0  0
 13  9  1  0  0  0  0
M  RAD  3   9   3  12   2  14   2
M  END
$$$$
