butane_opt
 OpenBabel08242015393D

 14  9  0  0  0  0  0  0  0  0999 V2000
   -3.9215    0.2941    0.1650 C   0  0  0  0  0  0  0  0  0  0  0  0
   -2.6363   -0.6843   -0.2084 C   0  0  0  0  0  0  0  0  0  0  0  0
   -4.7864   -0.3444   -0.0171 H   0  0  0  0  0  0  0  0  0  0  0  0
   -4.1107    0.7075   -0.7417 H   0  0  0  0  0  0  0  0  0  0  0  0
   -3.8005    1.4202    1.3447 H   0  0  0  0  0  0  0  0  0  0  0  0
   -1.4572    0.1563   -0.0530 C   0  0  0  0  0  0  0  0  0  0  0  0
   -2.8432   -1.4038   -1.1191 H   0  0  0  0  0  0  0  0  0  0  0  0
   -2.4857   -1.3754    0.7020 H   0  0  0  0  0  0  0  0  0  0  0  0
   -0.2174   -0.6800    0.2056 C   0  0  0  0  0 15  0  0  0  0  0  0
   -1.4811    0.9488    0.6866 H   0  0  0  0  0  0  0  0  0  0  0  0
   -1.2480    0.8919   -1.0131 H   0  0  0  0  0  0  0  0  0  0  0  0
    0.0684   -1.7434    1.4591 H   0  0  0  0  0  0  0  0  0  0  0  0
    0.8764    0.0462   -0.8569 H   0  0  0  0  0  0  0  0  0  0  0  0
   -0.4339   -0.6107   -0.2497 H   0  0  0  0  0  0  0  0  0  0  0  0
  2  6  1  0  0  0  0
  2  1  1  0  0  0  0
  2  8  1  0  0  0  0
  3  1  1  0  0  0  0
  4  1  1  0  0  0  0
  6 10  1  0  0  0  0
  7  2  1  0  0  0  0
 11  6  1  0  0  0  0
 14  6  1  0  0  0  0
M  RAD  4   1   2   5   2  12   2  13   2
M  END
$$$$
