14
butane_opt
C  -3.970096   0.320091  -0.150280
C  -2.716163  -0.738951   0.238800
H  -4.894211  -0.189281  -0.649665
H  -3.891887   0.944037  -0.906748
H  -4.553963   1.262960   0.836001
C  -1.335523   0.133643   0.178204
H  -2.671114  -0.979871  -0.260647
H  -2.734590  -1.604653   1.309420
C  -0.152890  -0.615094  -0.141242
H  -1.336729   0.818475   0.868982
H  -1.299207   0.746956  -0.678273
H   0.214069  -1.016600   0.490495
H   0.581922  -0.154900   0.049708
H  -0.335198  -1.532737  -1.145184
