14
butane_opt
C  -3.911596   0.313183   0.136108
C  -2.654639  -0.670350  -0.042642
H  -4.775486  -0.210618   0.402564
H  -4.064832   0.829774  -0.697196
H  -3.907890   1.058404   1.075055
C  -1.406050   0.090574  -0.163711
H  -2.906953  -1.622522  -1.105786
H  -2.762007  -0.890963   0.573693
C  -0.228241  -0.667037   0.152246
H  -1.380767   0.795592   0.535625
H  -1.331916   1.096549  -1.278965
H  -0.461587  -1.053923   1.170785
H   0.755658   0.064673   0.474183
H   0.177037  -1.352346  -0.667756
