butane_opt
 OpenBabel08242015393D

 14 12  0  0  0  0  0  0  0  0999 V2000
   -3.9867    0.3177    0.1625 C   0  0  0  0  0  0  0  0  0  0  0  0
   -2.7503   -0.7123   -0.0265 C   0  0  0  0  0  0  0  0  0  0  0  0
   -4.7329   -0.1448   -0.4397 H   0  0  0  0  0  0  0  0  0  0  0  0
   -3.7907    0.5152   -0.4852 H   0  0  0  0  0  0  0  0  0  0  0  0
   -4.1046    1.2649    1.3916 H   0  0  0  0  0  0  0  0  0  0  0  0
   -1.3703    0.1988   -0.1773 C   0  0  0  0  0  0  0  0  0  0  0  0
   -2.8990   -1.6566   -0.9883 H   0  0  0  0  0  0  0  0  0  0  0  0
   -2.4148   -0.9188    0.4893 H   0  0  0  0  0  0  0  0  0  0  0  0
   -0.1528   -0.6728    0.1659 C   0  0  0  0  0  0  0  0  0  0  0  0
   -1.4506    0.7054    0.5740 H   0  0  0  0  0  0  0  0  0  0  0  0
   -1.0250    0.9722   -1.3170 H   0  0  0  0  0  0  0  0  0  0  0  0
   -0.2009   -1.5299    1.2721 H   0  0  0  0  0  0  0  0  0  0  0  0
    0.6501   -0.1884   -0.0500 H   0  0  0  0  0  0  0  0  0  0  0  0
    0.0245   -1.0488   -0.4720 H   0  0  0  0  0  0  0  0  0  0  0  0
  2  1  1  0  0  0  0
  2  8  1  0  0  0  0
  3  1  1  0  0  0  0
  4  1  1  0  0  0  0
  6  2  1  0  0  0  0
  6  9  1  0  0  0  0
  6 10  1  0  0  0  0
  7  2  1  0  0  0  0
  9 12  1  0  0  0  0
 11  6  1  0  0  0  0
 13  9  1  0  0  0  0
 14  9  1  0  0  0  0
M  RAD  2   1   2   5   2
M  END
$$$$
