14
butane_opt
C  -3.861556   0.222333   0.172756
C  -2.751688  -0.527241  -0.043376
H  -4.976682  -0.596228  -0.263805
H  -3.687912   0.168886  -0.396802
H  -3.989513   1.427201   1.501075
C  -1.481938   0.264589  -0.208766
H  -2.807142  -1.416123  -1.013472
H  -2.825336  -1.081692   0.585634
C  -0.106406  -0.792842   0.165665
H  -1.539361   0.564750   0.391206
H  -1.303450   1.186672  -1.332292
H  -0.441348  -1.326276   1.153275
H   0.719447  -0.234752   0.285913
H   0.292281  -1.192617  -0.415946
