butane_opt
 OpenBabel08242015393D

 14 11  0  0  0  0  0  0  0  0999 V2000
   -3.8912    0.2305    0.1487 C   0  0  0  0  0  0  0  0  0  0  0  0
   -2.7363   -0.5780   -0.1198 C   0  0  0  0  0  0  0  0  0  0  0  0
   -4.9265   -0.4537    0.1856 H   0  0  0  0  0  0  0  0  0  0  0  0
   -4.1068    0.3793   -0.3974 H   0  0  0  0  0  0  0  0  0  0  0  0
   -3.5797    1.2694    1.2185 H   0  0  0  0  0  0  0  0  0  0  0  0
   -1.4530    0.2645   -0.2090 C   0  0  0  0  0  0  0  0  0  0  0  0
   -2.8399   -1.3130   -0.8752 H   0  0  0  0  0  0  0  0  0  0  0  0
   -2.3725   -1.3371    0.8056 H   0  0  0  0  0  0  0  0  0  0  0  0
   -0.1767   -0.7420    0.1967 C   0  0  0  0  0  0  0  0  0  0  0  0
   -1.6162    0.7161    0.4370 H   0  0  0  0  0  0  0  0  0  0  0  0
   -1.3274    0.9997   -1.1794 H   0  0  0  0  0  0  0  0  0  0  0  0
   -0.0946   -1.1889    1.0631 H   0  0  0  0  0  0  0  0  0  0  0  0
    0.7423   -0.3246    0.5763 H   0  0  0  0  0  0  0  0  0  0  0  0
    0.1888   -1.3279   -0.5585 H   0  0  0  0  0  0  0  0  0  0  0  0
  1  3  1  0  0  0  0
  2  1  1  0  0  0  0
  2  8  1  0  0  0  0
  6  2  1  0  0  0  0
  6  9  1  0  0  0  0
  6 10  1  0  0  0  0
  7  2  1  0  0  0  0
  9 13  1  0  0  0  0
  9 12  1  0  0  0  0
 11  6  1  0  0  0  0
 14  9  1  0  0  0  0
M  RAD  3   1   3   4   2   5   2
M  END
$$$$
