14
butane_opt
C  -3.932738   0.332232   0.196730
C  -2.658074  -0.689550  -0.253704
H  -4.744321  -0.102503   0.636052
H  -4.644810   0.905920  -0.614281
H  -3.332763   0.697507   0.977074
C  -1.381497   0.172181  -0.146643
H  -2.752590  -1.478676  -1.119093
H  -2.580286  -1.081496   0.570015
C  -0.279922  -0.675916   0.254310
H  -1.277082   0.768333   0.589004
H  -1.161055   0.770951  -1.010105
H  -0.213167  -1.566140   1.186681
H   0.853241   0.073727  -0.010270
H  -0.185560  -1.069463  -0.372372
