14
butane_opt
C  -3.850491   0.238343  -0.122856
C  -2.692372  -0.574215   0.234694
H  -4.964558  -0.633473  -0.715777
H  -3.150147   0.505624  -0.692512
H  -4.196101   1.232654   0.913165
C  -1.439204   0.275013   0.075449
H  -2.944620  -1.017080  -0.394446
H  -2.776198  -1.449243   1.228002
C  -0.235005  -0.777679  -0.094762
H  -1.362495   1.066037   1.022527
H  -1.614974   0.671712  -0.581683
H   0.131624  -1.270423   0.727010
H   0.522494  -0.241323  -0.251944
H  -0.065374  -1.312693  -0.907196
