14
butane_opt
C  -3.898286   0.232323   0.106632
C  -2.701119  -0.542520  -0.099676
H  -5.061275  -0.600651   0.250929
H  -3.914634   0.388800  -0.476459
H  -3.544202   1.225935   1.240652
C  -1.383523   0.204728  -0.122401
H  -2.675839  -1.192977  -1.062028
H  -2.736732  -0.996766   0.718963
C  -0.194572  -0.738762   0.149378
H  -1.658095   1.042706   0.844813
H  -1.295679   0.966477  -1.099351
H  -0.438339  -1.906406   1.366216
H   0.663302  -0.361932  -0.157144
H  -0.175188  -0.977922  -0.502184
