14
butane_opt
C  -3.926413   0.179724  -0.107437
C  -2.659791  -0.495898   0.180369
H  -4.914762  -0.516763   0.702377
H  -3.915432   1.683556  -1.524984
H  -3.652590   0.069604   0.179429
C  -1.446576   0.214837   0.168838
H  -2.710541  -1.264939  -0.845988
H  -2.756942  -1.021527   0.977705
C  -0.159733  -0.727506  -0.132955
H  -1.528016   0.976649   1.056498
H  -1.551058   0.523719  -0.360221
H  -0.134539  -0.992652   0.653442
H   0.623873  -0.174100   0.354066
H  -0.138251  -1.827790  -1.182426
