butane_opt
 OpenBabel08242015393D

 14  9  0  0  0  0  0  0  0  0999 V2000
   -3.9221    0.2649   -0.0828 C   0  0  0  0  0  1  0  0  0  0  0  0
   -2.7623   -0.5810    0.0985 C   0  0  0  0  0  0  0  0  0  0  0  0
   -4.8726   -0.2948    0.5599 H   0  0  0  0  0  0  0  0  0  0  0  0
   -4.0414    1.4579   -1.4890 H   0  0  0  0  0  0  0  0  0  0  0  0
   -3.6549    0.0671    0.2563 H   0  0  0  0  0  0  0  0  0  0  0  0
   -1.4415    0.2041    0.2056 C   0  0  0  0  0  0  0  0  0  0  0  0
   -2.7825   -1.1650   -0.6396 H   0  0  0  0  0  0  0  0  0  0  0  0
   -2.8448   -1.2248    1.1033 H   0  0  0  0  0  0  0  0  0  0  0  0
   -0.0731   -0.7387   -0.0853 C   0  0  0  0  0  0  0  0  0  0  0  0
   -1.4726    0.9054    1.0566 H   0  0  0  0  0  0  0  0  0  0  0  0
   -1.3106    0.7143   -0.5544 H   0  0  0  0  0  0  0  0  0  0  0  0
   -0.1067   -0.9401    0.5419 H   0  0  0  0  0  0  0  0  0  0  0  0
    0.7824   -0.0511    0.1498 H   0  0  0  0  0  0  0  0  0  0  0  0
   -0.3303   -1.7350   -1.3149 H   0  0  0  0  0  0  0  0  0  0  0  0
  1  3  1  0  0  0  0
  2  5  1  0  0  0  0
  2  8  1  0  0  0  0
  6 10  1  0  0  0  0
  7  2  1  0  0  0  0
  9 13  1  0  0  0  0
  9  6  1  0  0  0  0
  9 12  1  0  0  0  0
 11  6  1  0  0  0  0
M  RAD  5   2   2   4   2   6   2   9   2  14   2
M  END
$$$$
