butane_opt
 OpenBabel08242015393D

 14 13  0  0  0  0  0  0  0  0999 V2000
   -3.9371    0.2675   -0.0137 C   0  0  0  0  0  0  0  0  0  0  0  0
   -2.7005   -0.6128    0.0557 C   0  0  0  0  0  0  0  0  0  0  0  0
   -4.8385   -0.3007    0.0378 H   0  0  0  0  0  0  0  0  0  0  0  0
   -3.9579    0.9263   -0.9123 H   0  0  0  0  0  0  0  0  0  0  0  0
   -3.9525    0.9104    0.8253 H   0  0  0  0  0  0  0  0  0  0  0  0
   -1.3970    0.1798    0.0525 C   0  0  0  0  0  0  0  0  0  0  0  0
   -2.6851   -1.2926   -0.7737 H   0  0  0  0  0  0  0  0  0  0  0  0
   -2.7135   -1.3092    0.9851 H   0  0  0  0  0  0  0  0  0  0  0  0
   -0.1751   -0.6973   -0.0024 C   0  0  0  0  0  0  0  0  0  0  0  0
   -1.3705    0.8777    0.9363 H   0  0  0  0  0  0  0  0  0  0  0  0
   -1.4245    0.7687   -0.7964 H   0  0  0  0  0  0  0  0  0  0  0  0
   -0.1115   -1.3392    0.8992 H   0  0  0  0  0  0  0  0  0  0  0  0
    0.7730   -0.0485   -0.0453 H   0  0  0  0  0  0  0  0  0  0  0  0
   -0.2294   -1.2971   -0.8199 H   0  0  0  0  0  0  0  0  0  0  0  0
  1  3  1  0  0  0  0
  1  2  1  0  0  0  0
  1  5  1  0  0  0  0
  2  8  1  0  0  0  0
  4  1  1  0  0  0  0
  6  2  1  0  0  0  0
  6 10  1  0  0  0  0
  7  2  1  0  0  0  0
  9  6  1  0  0  0  0
  9 12  1  0  0  0  0
 11  6  1  0  0  0  0
 13  9  1  0  0  0  0
 14  9  1  0  0  0  0
M  END
$$$$
