butane_opt
 OpenBabel08242015393D

 14 11  0  0  0  0  0  0  0  0999 V2000
   -3.9081    0.2110    0.1227 C   0  0  0  0  0  0  0  0  0  0  0  0
   -2.7580   -0.5598   -0.1158 C   0  0  0  0  0  0  0  0  0  0  0  0
   -4.9352   -0.3903    0.0441 H   0  0  0  0  0  0  0  0  0  0  0  0
   -4.1726    0.6961   -0.6592 H   0  0  0  0  0  0  0  0  0  0  0  0
   -3.8875    0.7972    0.7731 H   0  0  0  0  0  0  0  0  0  0  0  0
   -1.4330    0.2635   -0.0170 C   0  0  0  0  0  0  0  0  0  0  0  0
   -3.1125   -1.3250   -0.9934 H   0  0  0  0  0  0  0  0  0  0  0  0
   -2.5306   -1.2384    0.6724 H   0  0  0  0  0  0  0  0  0  0  0  0
   -0.0750   -0.7206    0.0880 C   0  0  0  0  0  0  0  0  0  0  0  0
   -1.6168    1.1720    0.9345 H   0  0  0  0  0  0  0  0  0  0  0  0
   -1.4425    0.7789   -0.9146 H   0  0  0  0  0  0  0  0  0  0  0  0
    0.2012   -2.0316    1.3998 H   0  0  0  0  0  0  0  0  0  0  0  0
    0.5695   -0.3269   -0.3449 H   0  0  0  0  0  0  0  0  0  0  0  0
   -0.0018   -0.9558   -0.3812 H   0  0  0  0  0  0  0  0  0  0  0  0
  1  5  1  0  0  0  0
  2  6  1  0  0  0  0
  2  1  1  0  0  0  0
  2  8  1  0  0  0  0
  3  1  1  0  0  0  0
  4  1  1  0  0  0  0
  6  9  1  0  0  0  0
  6 10  1  0  0  0  0
  7  2  1  0  0  0  0
 11  6  1  0  0  0  0
 13  9  1  0  0  0  0
M  RAD  3   9   3  12   2  14   2
M  END
$$$$
