butane_opt
 OpenBabel08242015393D

 14 13  0  0  0  0  0  0  0  0999 V2000
   -3.9709    0.3136   -0.1664 C   0  0  0  0  0  0  0  0  0  0  0  0
   -2.7226   -0.7045    0.2054 C   0  0  0  0  0  0  0  0  0  0  0  0
   -4.6995   -0.2773   -0.3582 H   0  0  0  0  0  0  0  0  0  0  0  0
   -3.8579    1.0503   -1.1466 H   0  0  0  0  0  0  0  0  0  0  0  0
   -4.5277    0.9039    0.5241 H   0  0  0  0  0  0  0  0  0  0  0  0
   -1.3871    0.1593    0.2772 C   0  0  0  0  0  0  0  0  0  0  0  0
   -2.5004   -1.1722   -0.5804 H   0  0  0  0  0  0  0  0  0  0  0  0
   -2.4667   -1.5132    1.2984 H   0  0  0  0  0  0  0  0  0  0  0  0
   -0.1568   -0.6217   -0.1762 C   0  0  0  0  0  0  0  0  0  0  0  0
   -1.0694    1.1005    1.2211 H   0  0  0  0  0  0  0  0  0  0  0  0
   -1.5033    0.3176   -0.3776 H   0  0  0  0  0  0  0  0  0  0  0  0
    0.1946   -1.4645    0.7743 H   0  0  0  0  0  0  0  0  0  0  0  0
    0.5933   -0.1989   -0.7546 H   0  0  0  0  0  0  0  0  0  0  0  0
   -0.3242   -0.9621   -0.8361 H   0  0  0  0  0  0  0  0  0  0  0  0
  1  2  1  0  0  0  0
  1  5  1  0  0  0  0
  2  6  1  0  0  0  0
  2  8  1  0  0  0  0
  3  1  1  0  0  0  0
  4  1  1  0  0  0  0
  6 10  1  0  0  0  0
  7  2  1  0  0  0  0
  9  6  1  0  0  0  0
  9 12  1  0  0  0  0
 11  6  1  0  0  0  0
 13  9  1  0  0  0  0
 14  9  1  0  0  0  0
M  END
$$$$
