14
butane_opt
C  -3.916406   0.305431   0.194147
C  -2.656416  -0.614640  -0.152480
H  -4.792034  -0.272168   0.334751
H  -4.139279   0.806975  -0.593805
H  -3.727324   1.068539   1.348775
C  -1.472704   0.084918  -0.241232
H  -2.941178  -1.297725  -0.924324
H  -2.349170  -1.497053   0.806410
C  -0.193742  -0.668454   0.229166
H  -1.727123   0.663085   0.456912
H  -1.050317   0.895959  -1.322596
H  -0.724899  -0.752248   0.836809
H   1.026212   0.182520   0.761209
H   0.233546  -1.499095  -0.688403
