14
butane_opt
C  -3.970900   0.313623  -0.166437
C  -2.722586  -0.704533   0.205426
H  -4.699486  -0.277324  -0.358198
H  -3.857879   1.050339  -1.146584
H  -4.527713   0.903913   0.524124
C  -1.387114   0.159275   0.277154
H  -2.500350  -1.172222  -0.580384
H  -2.466729  -1.513243   1.298391
C  -0.156766  -0.621675  -0.176241
H  -1.069397   1.100492   1.221073
H  -1.503339   0.317598  -0.377586
H   0.194584  -1.464472   0.774264
H   0.593305  -0.198944  -0.754649
H  -0.324186  -0.962083  -0.836135
