butane_opt
 OpenBabel08242015393D

 14 11  0  0  0  0  0  0  0  0999 V2000
   -3.9389    0.3073    0.1027 C   0  0  0  0  0  1  0  0  0  0  0  0
   -2.6170   -0.6747   -0.0056 C   0  0  0  0  0  0  0  0  0  0  0  0
   -4.7767   -0.4261   -0.5768 H   0  0  0  0  0  0  0  0  0  0  0  0
   -3.7313    0.1759   -0.3075 H   0  0  0  0  0  0  0  0  0  0  0  0
   -4.5058    1.6474    1.3156 H   0  0  0  0  0  0  0  0  0  0  0  0
   -1.3797    0.1589   -0.1251 C   0  0  0  0  0  0  0  0  0  0  0  0
   -2.8140   -1.1470   -0.7572 H   0  0  0  0  0  0  0  0  0  0  0  0
   -2.2909   -1.3650    0.9005 H   0  0  0  0  0  0  0  0  0  0  0  0
   -0.2597   -0.6310    0.1081 C   0  0  0  0  0  0  0  0  0  0  0  0
   -1.4148    0.6866    0.5904 H   0  0  0  0  0  0  0  0  0  0  0  0
   -1.3880    0.8051   -1.2287 H   0  0  0  0  0  0  0  0  0  0  0  0
   -0.3346   -1.5224    1.2566 H   0  0  0  0  0  0  0  0  0  0  0  0
    0.6366   -0.0562    0.0515 H   0  0  0  0  0  0  0  0  0  0  0  0
   -0.0623   -1.2127   -0.6729 H   0  0  0  0  0  0  0  0  0  0  0  0
  2  8  1  0  0  0  0
  3  1  1  0  0  0  0
  4  2  1  0  0  0  0
  6  2  1  0  0  0  0
  6  9  1  0  0  0  0
  6 10  1  0  0  0  0
  7  2  1  0  0  0  0
  9 12  1  0  0  0  0
 11  6  1  0  0  0  0
 13  9  1  0  0  0  0
 14  9  1  0  0  0  0
M  RAD  1   5   2
M  END
$$$$
