14
butane_opt
C  -3.843953   0.255690  -0.047771
C  -2.729508  -0.587666   0.054687
H  -4.818782  -0.399982   0.740063
H  -4.024594   1.519897  -1.371892
H  -3.490977   0.015278   0.219862
C  -1.417387   0.258547   0.177883
H  -2.916696  -1.310619  -0.954310
H  -2.623331  -1.242353   0.890176
C  -0.237984  -0.747235  -0.040972
H  -1.594484   0.955977   0.983197
H  -1.563438   0.745514  -0.509009
H  -0.045540  -1.074566   0.615270
H   0.787904  -0.247294   0.011176
H  -0.011875  -1.550163  -1.043326
