14
butane_opt
C  -3.990466   0.279740   0.144462
C  -2.675229  -0.683244  -0.016926
H  -4.768986  -0.062629  -0.695801
H  -3.849988   0.034256  -0.125476
H  -4.366053   1.701514   1.425760
C  -1.394238   0.214736  -0.192558
H  -2.718091  -1.688949  -1.064240
H  -2.499726  -1.010583   0.747847
C  -0.154477  -0.672067   0.187735
H  -1.035132   0.492030   0.488228
H  -1.398984   1.165263  -1.396514
H  -0.406581  -1.528155   1.469944
H   0.719328  -0.197139  -0.245116
H  -0.112457  -1.077518  -0.520714
