butane_opt
 OpenBabel08242015393D

 14 12  0  0  0  0  0  0  0  0999 V2000
   -3.8749    0.2377   -0.1786 C   0  0  0  0  0  0  0  0  0  0  0  0
   -2.6949   -0.6083    0.2789 C   0  0  0  0  0  0  0  0  0  0  0  0
   -4.6889   -0.3097   -0.2945 H   0  0  0  0  0  0  0  0  0  0  0  0
   -3.4364    1.0302   -1.2788 H   0  0  0  0  0  0  0  0  0  0  0  0
   -4.1711    0.7646    0.4540 H   0  0  0  0  0  0  0  0  0  0  0  0
   -1.3967    0.1981    0.2727 C   0  0  0  0  0  0  0  0  0  0  0  0
   -2.7598   -1.3123   -0.6922 H   0  0  0  0  0  0  0  0  0  0  0  0
   -2.9028   -0.9893    1.0991 H   0  0  0  0  0  0  0  0  0  0  0  0
   -0.2114   -0.7452   -0.1700 C   0  0  0  0  0  0  0  0  0  0  0  0
   -1.5047    1.3174    1.3509 H   0  0  0  0  0  0  0  0  0  0  0  0
   -1.5869    0.7392   -0.6263 H   0  0  0  0  0  0  0  0  0  0  0  0
    0.0755   -1.4615    0.8501 H   0  0  0  0  0  0  0  0  0  0  0  0
    0.6872   -0.0328   -0.9171 H   0  0  0  0  0  0  0  0  0  0  0  0
   -0.6053   -1.2234   -0.9652 H   0  0  0  0  0  0  0  0  0  0  0  0
  1  2  1  0  0  0  0
  1  5  1  0  0  0  0
  2  8  1  0  0  0  0
  3  1  1  0  0  0  0
  4  1  1  0  0  0  0
  6  2  1  0  0  0  0
  7  2  1  0  0  0  0
  9  6  1  0  0  0  0
  9 12  1  0  0  0  0
 11  6  1  0  0  0  0
 13  9  1  0  0  0  0
 14  9  1  0  0  0  0
M  RAD  2   6   2  10   2
M  END
$$$$
