14
butane_opt
C  -3.938945   0.307271   0.102731
C  -2.616962  -0.674740  -0.005607
H  -4.776681  -0.426125  -0.576827
H  -3.731271   0.175852  -0.307535
H  -4.505839   1.647418   1.315603
C  -1.379720   0.158860  -0.125122
H  -2.814017  -1.146978  -0.757152
H  -2.290881  -1.364950   0.900505
C  -0.259732  -0.631045   0.108150
H  -1.414830   0.686564   0.590411
H  -1.388042   0.805105  -1.228721
H  -0.334608  -1.522413   1.256571
H   0.636606  -0.056172   0.051481
H  -0.062312  -1.212675  -0.672940
