butane_opt
 OpenBabel08242015393D

 14 11  0  0  0  0  0  0  0  0999 V2000
   -3.8861    0.3008    0.1905 C   0  0  0  0  0  0  0  0  0  0  0  0
   -2.6781   -0.6070   -0.1589 C   0  0  0  0  0  0  0  0  0  0  0  0
   -4.7398   -0.3305    0.7745 H   0  0  0  0  0  0  0  0  0  0  0  0
   -4.3523    1.3358   -0.9232 H   0  0  0  0  0  0  0  0  0  0  0  0
   -3.8370    0.4647    0.7197 H   0  0  0  0  0  0  0  0  0  0  0  0
   -1.4388    0.0957   -0.1079 C   0  0  0  0  0  0  0  0  0  0  0  0
   -2.5589   -1.5513   -1.2379 H   0  0  0  0  0  0  0  0  0  0  0  0
   -2.4711   -1.0332    0.4981 H   0  0  0  0  0  0  0  0  0  0  0  0
   -0.2052   -0.6352    0.1624 C   0  0  0  0  0  0  0  0  0  0  0  0
   -1.5573    0.6064    0.7162 H   0  0  0  0  0  0  0  0  0  0  0  0
   -1.2701    0.6353   -0.9567 H   0  0  0  0  0  0  0  0  0  0  0  0
   -0.6187   -1.1954    1.1068 H   0  0  0  0  0  0  0  0  0  0  0  0
    0.8230    0.1412    0.1696 H   0  0  0  0  0  0  0  0  0  0  0  0
    0.0493   -1.3427   -0.5234 H   0  0  0  0  0  0  0  0  0  0  0  0
  1  3  1  0  0  0  0
  2  6  1  0  0  0  0
  2  1  1  0  0  0  0
  2  8  1  0  0  0  0
  6  9  1  0  0  0  0
  6 10  1  0  0  0  0
  7  2  1  0  0  0  0
  9 13  1  0  0  0  0
  9 12  1  0  0  0  0
 11  6  1  0  0  0  0
 14  9  1  0  0  0  0
M  RAD  3   1   3   4   2   5   2
M  END
$$$$
