butane_opt
 OpenBabel08242015393D

 14 11  0  0  0  0  0  0  0  0999 V2000
   -3.9540    0.2223   -0.2001 C   0  0  0  0  0  0  0  0  0  0  0  0
   -2.7129   -0.6154    0.2152 C   0  0  0  0  0  0  0  0  0  0  0  0
   -4.8983   -0.4704   -0.0817 H   0  0  0  0  0  0  0  0  0  0  0  0
   -3.8954    0.9853   -1.2876 H   0  0  0  0  0  0  0  0  0  0  0  0
   -4.2202    0.7315    0.5884 H   0  0  0  0  0  0  0  0  0  0  0  0
   -1.4025    0.3062    0.2671 C   0  0  0  0  0  0  0  0  0  0  0  0
   -2.8698   -0.9669   -0.5274 H   0  0  0  0  0  0  0  0  0  0  0  0
   -2.7897   -1.3004    1.0269 H   0  0  0  0  0  0  0  0  0  0  0  0
   -0.1016   -0.7520   -0.1551 C   0  0  0  0  0  0  0  0  0  0  0  0
   -1.3281    1.3115    1.4535 H   0  0  0  0  0  0  0  0  0  0  0  0
   -1.5529    0.4412   -0.3894 H   0  0  0  0  0  0  0  0  0  0  0  0
    0.5574   -1.7855    0.8586 H   0  0  0  0  0  0  0  0  0  0  0  0
    0.7078   -0.2218   -0.7494 H   0  0  0  0  0  0  0  0  0  0  0  0
   -0.6484   -1.1283   -0.9513 H   0  0  0  0  0  0  0  0  0  0  0  0
  1  3  1  0  0  0  0
  1  2  1  0  0  0  0
  1  5  1  0  0  0  0
  2  6  1  0  0  0  0
  2  8  1  0  0  0  0
  4  1  1  0  0  0  0
  7  2  1  0  0  0  0
  9  6  1  0  0  0  0
 11  6  1  0  0  0  0
 13  9  1  0  0  0  0
 14  9  1  0  0  0  0
M  RAD  4   6   2   9   2  10   2  12   2
M  END
$$$$
