butane_opt
 OpenBabel08242015393D

 14  9  0  0  0  0  0  0  0  0999 V2000
   -3.9692    0.3353   -0.0214 C   0  0  0  0  0  0  0  0  0  0  0  0
   -2.7509   -0.6537    0.1495 C   0  0  0  0  0  0  0  0  0  0  0  0
   -4.9899   -0.4464    0.2808 H   0  0  0  0  0  0  0  0  0  0  0  0
   -3.9067    1.2720   -1.0961 H   0  0  0  0  0  0  0  0  0  0  0  0
   -4.1686    0.3932    0.4897 H   0  0  0  0  0  0  0  0  0  0  0  0
   -1.3796    0.1943    0.0353 C   0  0  0  0  0  0  0  0  0  0  0  0
   -2.7104   -1.3503   -0.7840 H   0  0  0  0  0  0  0  0  0  0  0  0
   -2.6665   -1.3587    1.1083 H   0  0  0  0  0  0  0  0  0  0  0  0
   -0.1196   -0.6912   -0.0671 C   0  0  0  0  0  1  0  0  0  0  0  0
   -1.3220    0.8084    0.8350 H   0  0  0  0  0  0  0  0  0  0  0  0
   -1.2376    0.7034   -0.8268 H   0  0  0  0  0  0  0  0  0  0  0  0
   -0.3680   -0.7405    0.5123 H   0  0  0  0  0  0  0  0  0  0  0  0
    0.8185   -0.1293    0.9031 H   0  0  0  0  0  0  0  0  0  0  0  0
    0.1639   -1.8478   -1.2219 H   0  0  0  0  0  0  0  0  0  0  0  0
  1  2  1  0  0  0  0
  1  3  1  0  0  0  0
  2  8  1  0  0  0  0
  4  1  1  0  0  0  0
  6 12  1  0  0  0  0
  6 10  1  0  0  0  0
  7  2  1  0  0  0  0
  9 13  1  0  0  0  0
 11  6  1  0  0  0  0
M  RAD  5   1   2   2   2   5   2   6   2  14   2
M  END
$$$$
