butane_opt
 OpenBabel08242015393D

 14  8  0  0  0  0  0  0  0  0999 V2000
   -3.9905    0.2797    0.1445 C   0  0  0  0  0  1  0  0  0  0  0  0
   -2.6752   -0.6832   -0.0169 C   0  0  0  0  0  0  0  0  0  0  0  0
   -4.7690   -0.0626   -0.6958 H   0  0  0  0  0  0  0  0  0  0  0  0
   -3.8500    0.0343   -0.1255 H   0  0  0  0  0  0  0  0  0  0  0  0
   -4.3661    1.7015    1.4258 H   0  0  0  0  0  0  0  0  0  0  0  0
   -1.3942    0.2147   -0.1926 C   0  0  0  0  0  0  0  0  0  0  0  0
   -2.7181   -1.6889   -1.0642 H   0  0  0  0  0  0  0  0  0  0  0  0
   -2.4997   -1.0106    0.7478 H   0  0  0  0  0  0  0  0  0  0  0  0
   -0.1545   -0.6721    0.1877 C   0  0  0  0  0  0  0  0  0  0  0  0
   -1.0351    0.4920    0.4882 H   0  0  0  0  0  0  0  0  0  0  0  0
   -1.3990    1.1653   -1.3965 H   0  0  0  0  0  0  0  0  0  0  0  0
   -0.4066   -1.5282    1.4699 H   0  0  0  0  0  0  0  0  0  0  0  0
    0.7193   -0.1971   -0.2451 H   0  0  0  0  0  0  0  0  0  0  0  0
   -0.1125   -1.0775   -0.5207 H   0  0  0  0  0  0  0  0  0  0  0  0
  2  8  1  0  0  0  0
  3  1  1  0  0  0  0
  4  2  1  0  0  0  0
  6  2  1  0  0  0  0
  6 10  1  0  0  0  0
  7  2  1  0  0  0  0
 13  9  1  0  0  0  0
 14  9  1  0  0  0  0
M  RAD  5   5   2   6   3   9   3  11   2  12   2
M  END
$$$$
