14
butane_opt
C  -3.933067   0.239801  -0.156153
C  -2.781218  -0.617101   0.276628
H  -4.918777  -0.469406  -0.698092
H  -3.515321   0.690750  -0.973240
H  -4.392873   1.090904   0.818526
C  -1.422929   0.242304   0.128511
H  -2.700599  -0.914902  -0.367592
H  -2.788448  -1.258258   1.250171
C  -0.062500  -0.747837  -0.142667
H  -1.088457   1.111336   1.177957
H  -1.763148   0.751426  -0.481143
H   0.121180  -1.400382   0.787619
H   0.803498  -0.169594  -0.127311
H  -0.347529  -1.381767  -1.183812
