14
butane_opt
C  -3.969568   0.222962   0.153931
C  -2.753518  -0.612569  -0.059314
H  -4.839034  -0.251735  -0.567212
H  -3.800494   0.312152  -0.335023
H  -4.204220   1.573659   1.392793
C  -1.357867   0.257194  -0.178712
H  -2.836739  -1.275347  -0.866988
H  -2.536975  -1.189506   0.757853
C  -0.165778  -0.737902   0.119610
H  -1.518452   0.798538   0.731990
H  -1.049998   0.836939  -1.034707
H   0.115863  -1.790356   1.277602
H   0.542038  -0.225043  -0.032098
H   0.078628  -0.831231  -0.218837
