butane_opt
 OpenBabel08242015393D

 14 12  0  0  0  0  0  0  0  0999 V2000
   -3.9038    0.1862   -0.1050 C   0  0  0  0  0  0  0  0  0  0  0  0
   -2.6923   -0.5124    0.0993 C   0  0  0  0  0  0  0  0  0  0  0  0
   -4.8866   -0.6113    0.0593 H   0  0  0  0  0  0  0  0  0  0  0  0
   -3.9466    0.7899   -0.9485 H   0  0  0  0  0  0  0  0  0  0  0  0
   -3.8050    0.9744    0.7518 H   0  0  0  0  0  0  0  0  0  0  0  0
   -1.4475    0.2098    0.1724 C   0  0  0  0  0  0  0  0  0  0  0  0
   -2.3033   -1.1020   -0.6325 H   0  0  0  0  0  0  0  0  0  0  0  0
   -2.7575   -1.0516    0.9669 H   0  0  0  0  0  0  0  0  0  0  0  0
   -0.1804   -0.7365   -0.0806 C   0  0  0  0  0  0  0  0  0  0  0  0
   -1.3988    0.9928    1.2247 H   0  0  0  0  0  0  0  0  0  0  0  0
   -1.4129    0.7095   -0.6851 H   0  0  0  0  0  0  0  0  0  0  0  0
    0.1864   -1.8490    1.0273 H   0  0  0  0  0  0  0  0  0  0  0  0
    0.5955   -0.1653   -0.4718 H   0  0  0  0  0  0  0  0  0  0  0  0
   -0.5499   -0.9625   -0.8114 H   0  0  0  0  0  0  0  0  0  0  0  0
  1  3  1  0  0  0  0
  1  2  1  0  0  0  0
  1  5  1  0  0  0  0
  2  6  1  0  0  0  0
  2  8  1  0  0  0  0
  4  1  1  0  0  0  0
  6 10  1  0  0  0  0
  7  2  1  0  0  0  0
  9  6  1  0  0  0  0
 11  6  1  0  0  0  0
 13  9  1  0  0  0  0
 14  9  1  0  0  0  0
M  RAD  2   9   2  12   2
M  END
$$$$
