butane_opt
 OpenBabel08242015393D

 14 13  0  0  0  0  0  0  0  0999 V2000
   -3.9460    0.2366    0.1355 C   0  0  0  0  0  0  0  0  0  0  0  0
   -2.7415   -0.5460   -0.0073 C   0  0  0  0  0  0  0  0  0  0  0  0
   -4.9925   -0.6076   -0.0637 H   0  0  0  0  0  0  0  0  0  0  0  0
   -3.8654    0.7110   -0.6886 H   0  0  0  0  0  0  0  0  0  0  0  0
   -3.7720    0.8405    1.0890 H   0  0  0  0  0  0  0  0  0  0  0  0
   -1.4227    0.2708   -0.1519 C   0  0  0  0  0  0  0  0  0  0  0  0
   -2.7301   -1.5854   -1.0071 H   0  0  0  0  0  0  0  0  0  0  0  0
   -2.8353   -1.0036    0.6565 H   0  0  0  0  0  0  0  0  0  0  0  0
   -0.1219   -0.7577    0.1357 C   0  0  0  0  0  0  0  0  0  0  0  0
   -1.5810    0.6099    0.5178 H   0  0  0  0  0  0  0  0  0  0  0  0
   -1.5819    1.0273   -1.0442 H   0  0  0  0  0  0  0  0  0  0  0  0
   -0.0141   -1.2324    0.9831 H   0  0  0  0  0  0  0  0  0  0  0  0
    0.7763   -0.2360    0.3921 H   0  0  0  0  0  0  0  0  0  0  0  0
    0.3377   -1.4230   -0.7252 H   0  0  0  0  0  0  0  0  0  0  0  0
  1  5  1  0  0  0  0
  2  1  1  0  0  0  0
  2  8  1  0  0  0  0
  3  1  1  0  0  0  0
  4  1  1  0  0  0  0
  6  2  1  0  0  0  0
  6  9  1  0  0  0  0
  6 10  1  0  0  0  0
  7  2  1  0  0  0  0
  9 13  1  0  0  0  0
  9 12  1  0  0  0  0
 11  6  1  0  0  0  0
 14  9  1  0  0  0  0
M  END
$$$$
