14
butane_opt
C  -3.886145   0.300818   0.190520
C  -2.678115  -0.606963  -0.158873
H  -4.739840  -0.330529   0.774507
H  -4.352271   1.335822  -0.923190
H  -3.837012   0.464679   0.719688
C  -1.438828   0.095681  -0.107855
H  -2.558865  -1.551313  -1.237922
H  -2.471147  -1.033194   0.498122
C  -0.205160  -0.635177   0.162400
H  -1.557290   0.606442   0.716180
H  -1.270125   0.635350  -0.956654
H  -0.618674  -1.195383   1.106837
H   0.822959   0.141246   0.169641
H   0.049258  -1.342670  -0.523362
