14
butane_opt
C  -3.931552   0.230779   0.138677
C  -2.777846  -0.585721  -0.024152
H  -4.878839  -0.413719  -0.395567
H  -3.841449   0.411436  -0.515556
H  -4.076250   1.152928   1.145059
C  -1.386236   0.232879  -0.128020
H  -3.136147  -1.383953  -1.049133
H  -2.537237  -0.970685   0.737354
C  -0.076589  -0.725643   0.159863
H  -1.519546   0.904196   0.628789
H  -1.394935   1.170413  -1.366712
H   0.120555  -1.596639   1.124490
H   0.412386  -0.342002   0.035857
H  -0.078096  -1.308612  -0.612829
