butane_opt
 OpenBabel08242015393D

 14  9  0  0  0  0  0  0  0  0999 V2000
   -3.8577    0.2461   -0.0935 C   0  0  0  0  0  1  0  0  0  0  0  0
   -2.7034   -0.5767    0.1313 C   0  0  0  0  0  0  0  0  0  0  0  0
   -4.9452   -0.3762    0.6569 H   0  0  0  0  0  0  0  0  0  0  0  0
   -3.9409    1.4973   -1.4641 H   0  0  0  0  0  0  0  0  0  0  0  0
   -3.6670    0.1341    0.1915 H   0  0  0  0  0  0  0  0  0  0  0  0
   -1.4550    0.2255    0.1784 C   0  0  0  0  0  0  0  0  0  0  0  0
   -2.4695   -1.3206   -0.7582 H   0  0  0  0  0  0  0  0  0  0  0  0
   -2.5976   -1.4509    1.0249 H   0  0  0  0  0  0  0  0  0  0  0  0
   -0.2042   -0.6943   -0.1380 C   0  0  0  0  0  0  0  0  0  0  0  0
   -1.4713    1.2520    1.2656 H   0  0  0  0  0  0  0  0  0  0  0  0
   -1.4345    0.3464   -0.3727 H   0  0  0  0  0  0  0  0  0  0  0  0
   -0.0951   -1.2414    0.6984 H   0  0  0  0  0  0  0  0  0  0  0  0
    0.5017   -0.3198    0.2105 H   0  0  0  0  0  0  0  0  0  0  0  0
   -0.2380   -1.3961   -1.0194 H   0  0  0  0  0  0  0  0  0  0  0  0
  1  3  1  0  0  0  0
  2  5  1  0  0  0  0
  2  8  1  0  0  0  0
  6 10  1  0  0  0  0
  7  2  1  0  0  0  0
  9  6  1  0  0  0  0
  9 13  1  0  0  0  0
  9 12  1  0  0  0  0
 14  9  1  0  0  0  0
M  RAD  4   2   2   4   2   6   3  11   2
M  END
$$$$
