14
butane_opt
C  -3.962041   0.218059  -0.063259
C  -2.743794  -0.555065   0.067653
H  -4.879966  -0.380919  -0.231262
H  -3.685864   0.912184  -1.031640
H  -4.144687   0.614263   0.733143
C  -1.424787   0.233085   0.177320
H  -2.749456  -1.209865  -0.711820
H  -2.697190  -1.316879   0.956789
C  -0.130446  -0.733279  -0.044267
H  -1.219373   1.194686   1.332464
H  -1.577062   0.753428  -0.585531
H   0.536605  -1.709228   1.043909
H   0.627629  -0.250564  -0.990950
H  -0.126262  -1.022580  -0.729867
