butane_opt
 OpenBabel08242015393D

 14 13  0  0  0  0  0  0  0  0999 V2000
   -3.9373    0.2544    0.0286 C   0  0  0  0  0  0  0  0  0  0  0  0
   -2.7035   -0.6031    0.0328 C   0  0  0  0  0  0  0  0  0  0  0  0
   -4.8813   -0.3756   -0.0545 H   0  0  0  0  0  0  0  0  0  0  0  0
   -3.9262    0.7857   -0.8001 H   0  0  0  0  0  0  0  0  0  0  0  0
   -4.0045    1.0145    0.9574 H   0  0  0  0  0  0  0  0  0  0  0  0
   -1.4132    0.1980   -0.0159 C   0  0  0  0  0  0  0  0  0  0  0  0
   -2.7385   -1.3120   -0.8219 H   0  0  0  0  0  0  0  0  0  0  0  0
   -2.7549   -1.2412    0.9339 H   0  0  0  0  0  0  0  0  0  0  0  0
   -0.1418   -0.7067    0.0461 C   0  0  0  0  0  0  0  0  0  0  0  0
   -1.4238    0.9118    0.8770 H   0  0  0  0  0  0  0  0  0  0  0  0
   -1.4340    0.8194   -0.8898 H   0  0  0  0  0  0  0  0  0  0  0  0
   -0.1410   -1.3817    0.9796 H   0  0  0  0  0  0  0  0  0  0  0  0
    0.7444   -0.1207   -0.0662 H   0  0  0  0  0  0  0  0  0  0  0  0
   -0.1069   -1.2886   -0.7617 H   0  0  0  0  0  0  0  0  0  0  0  0
  1  2  1  0  0  0  0
  1  5  1  0  0  0  0
  2  8  1  0  0  0  0
  3  1  1  0  0  0  0
  4  1  1  0  0  0  0
  6  2  1  0  0  0  0
  6  9  1  0  0  0  0
  6 10  1  0  0  0  0
  7  2  1  0  0  0  0
  9 12  1  0  0  0  0
 11  6  1  0  0  0  0
 13  9  1  0  0  0  0
 14  9  1  0  0  0  0
M  END
$$$$
