14
butane_opt
C  -3.907396   0.220670  -0.129741
C  -2.643333  -0.542255   0.164298
H  -4.981362  -0.515597  -0.420277
H  -3.615644   0.907187  -1.090000
H  -3.913276   0.886062   0.760957
C  -1.479661   0.171409   0.248740
H  -2.512475  -1.274706  -0.580240
H  -3.019047  -1.043149   1.118714
C  -0.163749  -0.683988  -0.122482
H  -1.240797   0.702845   0.933916
H  -1.751187   0.802495  -0.518629
H   0.340083  -1.555256   1.009281
H   0.592957  -0.238679  -0.675791
H  -0.581454  -1.160314  -0.992449
