14
butane_opt
C  -3.969342   0.299400   0.072753
C  -2.604913  -0.672108  -0.083900
H  -4.681998  -0.293167   0.693828
H  -4.430387   1.329332  -1.010150
H  -3.469725   0.534522   0.723056
C  -1.432440   0.202688  -0.029745
H  -2.667269  -1.443024  -0.979648
H  -2.454950  -1.418690   0.744771
C  -0.239972  -0.672801   0.088536
H  -1.556535   0.937773   0.836693
H  -1.030839   0.495539  -0.715711
H  -0.280907  -1.131433   0.986884
H   0.705655  -0.021633   0.125409
H  -0.207022  -1.276899  -0.626376
