butane_opt
 OpenBabel08242015393D

 14 11  0  0  0  0  0  0  0  0999 V2000
   -3.9543    0.2677    0.0234 C   0  0  0  0  0  0  0  0  0  0  0  0
   -2.7762   -0.6624    0.0084 C   0  0  0  0  0  0  0  0  0  0  0  0
   -4.6468   -0.1839    0.5648 H   0  0  0  0  0  0  0  0  0  0  0  0
   -4.0198    1.5244   -1.2976 H   0  0  0  0  0  0  0  0  0  0  0  0
   -3.9557    0.2278    0.4797 H   0  0  0  0  0  0  0  0  0  0  0  0
   -1.3976    0.2414    0.0882 C   0  0  0  0  0  0  0  0  0  0  0  0
   -2.9715   -1.4858   -0.8947 H   0  0  0  0  0  0  0  0  0  0  0  0
   -2.5353   -1.0467    0.7978 H   0  0  0  0  0  0  0  0  0  0  0  0
   -0.1172   -0.7016   -0.0095 C   0  0  0  0  0  0  0  0  0  0  0  0
   -1.4030    0.9221    0.8776 H   0  0  0  0  0  0  0  0  0  0  0  0
   -1.3453    0.8429   -0.6389 H   0  0  0  0  0  0  0  0  0  0  0  0
    0.0231   -1.2975    0.9506 H   0  0  0  0  0  0  0  0  0  0  0  0
    0.7993   -0.1493    0.2362 H   0  0  0  0  0  0  0  0  0  0  0  0
   -0.0563   -1.5445   -1.0516 H   0  0  0  0  0  0  0  0  0  0  0  0
  1  3  1  0  0  0  0
  2  1  1  0  0  0  0
  2  6  1  0  0  0  0
  2  8  1  0  0  0  0
  6 10  1  0  0  0  0
  7  2  1  0  0  0  0
  9  6  1  0  0  0  0
  9 13  1  0  0  0  0
  9 12  1  0  0  0  0
 11  6  1  0  0  0  0
 14  9  1  0  0  0  0
M  RAD  3   1   3   4   2   5   2
M  END
$$$$
