14
butane_opt
C  -4.013439   0.315679   0.149834
C  -2.702868  -0.677562  -0.035806
H  -4.684653  -0.038878   0.039580
H  -4.084001   0.668122  -0.506294
H  -3.993585   1.255974   1.223859
C  -1.357111   0.130822  -0.240873
H  -2.803411  -1.424945  -0.954097
H  -2.579877  -1.431461   0.719245
C  -0.181037  -0.616814   0.192464
H  -1.000757   0.762942   0.597371
H  -1.249031   0.840480  -1.217430
H  -0.664849  -1.189942   0.953720
H   0.706281  -0.123171   0.617188
H   0.338699  -1.585641  -0.791739
