14
butane_opt
C  -3.867412   0.219223   0.188567
C  -2.709756  -0.557393  -0.154446
H  -4.666896  -0.330811   0.393110
H  -3.982962   0.640413  -0.395649
H  -3.380605   0.908638   1.109019
C  -1.455200   0.271305  -0.257966
H  -3.061988  -1.075510  -1.040837
H  -2.626533  -1.292124   0.721888
C  -0.179721  -0.779909   0.267437
H  -1.630820   0.761605   0.502194
H  -1.397905   0.824388  -1.175847
H  -0.531173  -1.075636   0.999845
H   0.705913  -0.080056   0.547657
H   0.079332  -1.593078  -0.767082
