14
butane_opt
C  -4.004459   0.199640   0.160767
C  -2.717238  -0.536805  -0.177262
H  -4.828656  -0.346511  -0.004706
H  -4.093520   0.575291  -0.646377
H  -3.721985   1.077341   1.151062
C  -1.395652   0.255784  -0.065931
H  -3.167879  -1.362914  -1.104122
H  -2.524743  -1.163448   0.614135
C  -0.065589  -0.725021   0.165891
H  -1.742192   0.912993   0.665940
H  -1.475471   0.632064  -0.870108
H   0.124612  -2.076279   1.480533
H   0.773592  -0.268096  -0.614739
H  -0.176338  -0.719427  -0.179803
