butane_opt
 OpenBabel08242015393D

 14  9  0  0  0  0  0  0  0  0999 V2000
   -3.8905    0.1965   -0.0348 C   0  0  0  0  0  0  0  0  0  0  0  0
   -2.6625   -0.5129    0.0986 C   0  0  0  0  0  0  0  0  0  0  0  0
   -5.0835   -0.5883    0.2772 H   0  0  0  0  0  0  0  0  0  0  0  0
   -3.6696    1.1789   -1.1762 H   0  0  0  0  0  0  0  0  0  0  0  0
   -3.8081    0.5899    0.6310 H   0  0  0  0  0  0  0  0  0  0  0  0
   -1.4529    0.2078    0.0313 C   0  0  0  0  0  0  0  0  0  0  0  0
   -2.6357   -0.9477   -0.5573 H   0  0  0  0  0  0  0  0  0  0  0  0
   -2.8003   -1.4992    1.3987 H   0  0  0  0  0  0  0  0  0  0  0  0
   -0.2227   -0.7187   -0.0365 C   0  0  0  0  0  0  0  0  0  0  0  0
   -1.5443    1.0112    1.0171 H   0  0  0  0  0  0  0  0  0  0  0  0
   -1.5668    0.7681   -0.8379 H   0  0  0  0  0  0  0  0  0  0  0  0
   -0.0919   -0.7413    0.5732 H   0  0  0  0  0  0  0  0  0  0  0  0
    0.7203   -0.1992    0.6940 H   0  0  0  0  0  0  0  0  0  0  0  0
    0.1941   -2.1546   -1.3767 H   0  0  0  0  0  0  0  0  0  0  0  0
  1  2  1  0  0  0  0
  1  3  1  0  0  0  0
  1  5  1  0  0  0  0
  6  2  1  0  0  0  0
  6 10  1  0  0  0  0
  7  2  1  0  0  0  0
  9  6  1  0  0  0  0
  9 13  1  0  0  0  0
 11  6  1  0  0  0  0
M  RAD  7   1   2   2   2   4   2   8   2   9   3  12   2  14   2
M  END
$$$$
