14
butane_opt
C  -3.991922   0.280441   0.214451
C  -2.690275  -0.638238  -0.149376
H  -4.893553  -0.371375  -0.293462
H  -4.102155   0.495624  -0.427748
H  -4.109139   1.485381   1.347752
C  -1.334825   0.157386  -0.185058
H  -2.822322  -1.177552  -1.018114
H  -2.509538  -1.376982   0.700835
C  -0.157918  -0.634855   0.235982
H  -1.477324   0.492344   0.302907
H  -1.321841   0.981484  -1.126850
H  -0.261812  -1.422678   1.188206
H   0.614258  -0.270936   0.013893
H  -0.009023  -1.308118  -0.591165
