butane_opt
 OpenBabel08242015393D

 14 13  0  0  0  0  0  0  0  0999 V2000
   -3.8373    0.2169    0.2029 C   0  0  0  0  0  0  0  0  0  0  0  0
   -2.7110   -0.5884   -0.1308 C   0  0  0  0  0  0  0  0  0  0  0  0
   -4.9268   -0.5964    0.1378 H   0  0  0  0  0  0  0  0  0  0  0  0
   -3.9996    0.7520   -0.6171 H   0  0  0  0  0  0  0  0  0  0  0  0
   -3.7297    1.0767    1.0983 H   0  0  0  0  0  0  0  0  0  0  0  0
   -1.4678    0.2544   -0.1811 C   0  0  0  0  0  0  0  0  0  0  0  0
   -2.6947   -1.2343   -1.0535 H   0  0  0  0  0  0  0  0  0  0  0  0
   -2.4520   -1.1944    0.6264 H   0  0  0  0  0  0  0  0  0  0  0  0
   -0.2194   -0.7462    0.1889 C   0  0  0  0  0  0  0  0  0  0  0  0
   -1.3368    0.9813    0.5614 H   0  0  0  0  0  0  0  0  0  0  0  0
   -1.4175    1.1280   -1.1555 H   0  0  0  0  0  0  0  0  0  0  0  0
   -0.5463   -1.4635    1.2002 H   0  0  0  0  0  0  0  0  0  0  0  0
    0.6315   -0.1717    0.3139 H   0  0  0  0  0  0  0  0  0  0  0  0
    0.3296   -1.4681   -0.6145 H   0  0  0  0  0  0  0  0  0  0  0  0
  1  5  1  0  0  0  0
  2  1  1  0  0  0  0
  2  8  1  0  0  0  0
  3  1  1  0  0  0  0
  4  1  1  0  0  0  0
  6  2  1  0  0  0  0
  6  9  1  0  0  0  0
  6 10  1  0  0  0  0
  7  2  1  0  0  0  0
  9 13  1  0  0  0  0
  9 12  1  0  0  0  0
 11  6  1  0  0  0  0
 14  9  1  0  0  0  0
M  END
$$$$
