14
butane_opt
C  -4.054475   0.319903  -0.147700
C  -2.706134  -0.661195   0.229877
H  -4.913411  -0.354447   0.279376
H  -3.919313   1.227236  -1.198980
H  -4.214314   0.731752   0.595414
C  -1.325343   0.147949   0.090409
H  -2.645206  -1.153344  -0.321464
H  -2.480105  -1.424735   1.270347
C  -0.118517  -0.667459  -0.066050
H  -1.206456   0.635408   0.938931
H  -1.236000   0.714435  -0.825655
H  -0.417426  -0.287128   0.078433
H   0.712400  -0.099217   0.685093
H  -0.215798  -2.134951  -1.467594
