butane_opt
 OpenBabel08242015393D

 14 13  0  0  0  0  0  0  0  0999 V2000
   -3.9351    0.2636   -0.0111 C   0  0  0  0  0  0  0  0  0  0  0  0
   -2.6900   -0.6173    0.0678 C   0  0  0  0  0  0  0  0  0  0  0  0
   -4.7967   -0.2892    0.0620 H   0  0  0  0  0  0  0  0  0  0  0  0
   -3.9557    0.9625   -0.9367 H   0  0  0  0  0  0  0  0  0  0  0  0
   -4.0211    0.8953    0.8164 H   0  0  0  0  0  0  0  0  0  0  0  0
   -1.4047    0.1765    0.0391 C   0  0  0  0  0  0  0  0  0  0  0  0
   -2.6611   -1.2862   -0.7657 H   0  0  0  0  0  0  0  0  0  0  0  0
   -2.7478   -1.3269    1.0120 H   0  0  0  0  0  0  0  0  0  0  0  0
   -0.1727   -0.6834    0.0059 C   0  0  0  0  0  0  0  0  0  0  0  0
   -1.3879    0.8799    0.8996 H   0  0  0  0  0  0  0  0  0  0  0  0
   -1.4063    0.7858   -0.8457 H   0  0  0  0  0  0  0  0  0  0  0  0
   -0.1568   -1.2121    0.8314 H   0  0  0  0  0  0  0  0  0  0  0  0
    0.7555   -0.0988    0.0556 H   0  0  0  0  0  0  0  0  0  0  0  0
   -0.2130   -1.4466   -0.9179 H   0  0  0  0  0  0  0  0  0  0  0  0
  1  3  1  0  0  0  0
  1  2  1  0  0  0  0
  1  5  1  0  0  0  0
  2  8  1  0  0  0  0
  4  1  1  0  0  0  0
  6  2  1  0  0  0  0
  6 10  1  0  0  0  0
  7  2  1  0  0  0  0
  9  6  1  0  0  0  0
  9 13  1  0  0  0  0
  9 12  1  0  0  0  0
 11  6  1  0  0  0  0
 14  9  1  0  0  0  0
M  END
$$$$
