14
butane_opt
C  -3.990047   0.327676   0.084808
C  -2.710812  -0.663412  -0.015549
H  -4.790224  -0.108093  -0.025520
H  -4.237875   0.832406  -0.672829
H  -3.931773   1.022152   0.926304
C  -1.424683   0.094547   0.005556
H  -2.691569  -1.840214  -1.284097
H  -2.664825  -0.918696   0.536212
C  -0.093342  -0.639680   0.075925
H  -1.326072   0.731862   0.831037
H  -1.175574   0.764618  -1.118878
H  -0.190102  -1.852460   1.329353
H   0.938232   0.160192  -0.470346
H  -0.368677  -0.636081  -0.349779
