butane_opt
 OpenBabel08242015393D

 14 12  0  0  0  0  0  0  0  0999 V2000
   -3.8943    0.2109    0.1098 C   0  0  0  0  0  0  0  0  0  0  0  0
   -2.8106   -0.5707   -0.0796 C   0  0  0  0  0  0  0  0  0  0  0  0
   -4.6912   -0.3106    0.3783 H   0  0  0  0  0  0  0  0  0  0  0  0
   -4.1603    1.0022   -1.0071 H   0  0  0  0  0  0  0  0  0  0  0  0
   -3.6308    0.6070    0.7958 H   0  0  0  0  0  0  0  0  0  0  0  0
   -1.4304    0.2660   -0.0039 C   0  0  0  0  0  0  0  0  0  0  0  0
   -2.8552   -1.3800   -1.0101 H   0  0  0  0  0  0  0  0  0  0  0  0
   -2.7584   -1.0815    0.7198 H   0  0  0  0  0  0  0  0  0  0  0  0
   -0.0886   -0.7660    0.1128 C   0  0  0  0  0  0  0  0  0  0  0  0
   -1.3079    0.8979    0.6923 H   0  0  0  0  0  0  0  0  0  0  0  0
   -1.4659    1.2452   -1.1669 H   0  0  0  0  0  0  0  0  0  0  0  0
   -0.1353   -1.2824    0.9915 H   0  0  0  0  0  0  0  0  0  0  0  0
    0.7359   -0.3298    0.1966 H   0  0  0  0  0  0  0  0  0  0  0  0
   -0.0441   -1.5417   -0.8362 H   0  0  0  0  0  0  0  0  0  0  0  0
  1  3  1  0  0  0  0
  1  5  1  0  0  0  0
  2  6  1  0  0  0  0
  2  1  1  0  0  0  0
  2  8  1  0  0  0  0
  4  1  1  0  0  0  0
  6  9  1  0  0  0  0
  6 10  1  0  0  0  0
  7  2  1  0  0  0  0
  9 13  1  0  0  0  0
  9 12  1  0  0  0  0
 14  9  1  0  0  0  0
M  RAD  2   6   2  11   2
M  END
$$$$
