butane_opt
 OpenBabel08242015393D

 14 12  0  0  0  0  0  0  0  0999 V2000
   -3.9215    0.2172    0.1837 C   0  0  0  0  0  0  0  0  0  0  0  0
   -2.7828   -0.5750   -0.1833 C   0  0  0  0  0  0  0  0  0  0  0  0
   -5.0042   -0.5283    0.4949 H   0  0  0  0  0  0  0  0  0  0  0  0
   -4.3573    0.8676   -0.6956 H   0  0  0  0  0  0  0  0  0  0  0  0
   -3.6476    0.9459    1.0683 H   0  0  0  0  0  0  0  0  0  0  0  0
   -1.4398    0.2823   -0.1296 C   0  0  0  0  0  0  0  0  0  0  0  0
   -3.0510   -1.3783   -1.0723 H   0  0  0  0  0  0  0  0  0  0  0  0
   -2.6106   -1.1157    0.5468 H   0  0  0  0  0  0  0  0  0  0  0  0
   -0.1038   -0.7392    0.1798 C   0  0  0  0  0  0  0  0  0  0  0  0
   -1.2507    0.9708    0.7025 H   0  0  0  0  0  0  0  0  0  0  0  0
   -1.0310    1.0008   -1.2437 H   0  0  0  0  0  0  0  0  0  0  0  0
   -0.2102   -1.7006    1.3566 H   0  0  0  0  0  0  0  0  0  0  0  0
    0.6152   -0.3793    0.1266 H   0  0  0  0  0  0  0  0  0  0  0  0
    0.5269   -1.4129   -0.4634 H   0  0  0  0  0  0  0  0  0  0  0  0
  1  3  1  0  0  0  0
  1  5  1  0  0  0  0
  2  6  1  0  0  0  0
  2  1  1  0  0  0  0
  2  8  1  0  0  0  0
  4  1  1  0  0  0  0
  6  9  1  0  0  0  0
  6 10  1  0  0  0  0
  7  2  1  0  0  0  0
 11  6  1  0  0  0  0
 13  9  1  0  0  0  0
 14  9  1  0  0  0  0
M  RAD  2   9   2  12   2
M  END
$$$$
