14
butane_opt
C  -3.961101   0.200949  -0.149957
C  -2.699777  -0.573353   0.188896
H  -4.839549  -0.465652  -0.214613
H  -3.798983   1.228364  -1.321862
H  -3.909584   0.847632   0.617577
C  -1.467552   0.212310   0.235288
H  -2.588287  -1.254636  -0.515228
H  -2.790795  -1.351181   1.169883
C  -0.136840  -0.689768  -0.144857
H  -1.325639   1.351058   1.349592
H  -1.276832   0.503545  -0.437361
H   0.445317  -1.672195   0.859779
H   0.595594  -0.308264  -0.686963
H  -0.347138  -1.146088  -0.962042
