butane_opt
 OpenBabel08242015393D

 14  9  0  0  0  0  0  0  0  0999 V2000
   -4.0321    0.2973   -0.0969 C   0  0  0  0  0  0  0  0  0  0  0  0
   -2.6891   -0.6725    0.2129 C   0  0  0  0  0  0  0  0  0  0  0  0
   -4.8979   -0.1717   -0.0177 H   0  0  0  0  0  0  0  0  0  0  0  0
   -4.1081    1.2250   -1.2356 H   0  0  0  0  0  0  0  0  0  0  0  0
   -4.2506    0.8712    0.7654 H   0  0  0  0  0  0  0  0  0  0  0  0
   -1.3596    0.1308    0.0470 C   0  0  0  0  0  0  0  0  0  0  0  0
   -2.6099   -1.1628   -0.4955 H   0  0  0  0  0  0  0  0  0  0  0  0
   -2.6622   -1.6344    1.2614 H   0  0  0  0  0  0  0  0  0  0  0  0
   -0.1296   -0.6774   -0.0394 C   0  0  0  0  0 15  0  0  0  0  0  0
   -1.2981    0.8714    0.9354 H   0  0  0  0  0  0  0  0  0  0  0  0
   -1.3188    0.8500   -0.7867 H   0  0  0  0  0  0  0  0  0  0  0  0
   -0.1114   -0.4996    0.2803 H   0  0  0  0  0  0  0  0  0  0  0  0
    0.9550    0.2391    0.6507 H   0  0  0  0  0  0  0  0  0  0  0  0
   -0.1999   -1.9938   -1.4920 H   0  0  0  0  0  0  0  0  0  0  0  0
  1  3  1  0  0  0  0
  1  2  1  0  0  0  0
  1  5  1  0  0  0  0
  2  8  1  0  0  0  0
  4  1  1  0  0  0  0
  6 12  1  0  0  0  0
  6 10  1  0  0  0  0
  7  2  1  0  0  0  0
 11  6  1  0  0  0  0
M  RAD  4   2   2   6   2  13   2  14   2
M  END
$$$$
