14
butane_opt
C  -4.020463   0.355762   0.116230
C  -2.667247  -0.742337  -0.054921
H  -4.820302   0.011876   0.270626
H  -4.377434   0.581732  -0.487528
H  -3.723778   1.067223   1.184069
C  -1.298189   0.163981  -0.189876
H  -2.808443  -1.417893  -0.980200
H  -2.496362  -1.288594   0.702844
C  -0.221499  -0.644505   0.167047
H  -1.361311   0.536029   0.391318
H  -1.215351   1.029158  -1.133872
H  -0.423923  -1.050006   1.012800
H   0.618217  -0.012786   0.805628
H   0.039371  -1.527826  -0.776322
