butane_opt
 OpenBabel08242015393D

 14 10  0  0  0  0  0  0  0  0999 V2000
   -3.8908    0.2213   -0.0504 C   0  0  0  0  0  0  0  0  0  0  0  0
   -2.6750   -0.5778    0.0085 C   0  0  0  0  0  0  0  0  0  0  0  0
   -4.9721   -0.4020    0.8837 H   0  0  0  0  0  0  0  0  0  0  0  0
   -3.9887    1.4711   -1.2534 H   0  0  0  0  0  0  0  0  0  0  0  0
   -3.7089    0.3940    0.5456 H   0  0  0  0  0  0  0  0  0  0  0  0
   -1.4102    0.2659    0.0825 C   0  0  0  0  0  0  0  0  0  0  0  0
   -2.5849   -1.2561   -0.8144 H   0  0  0  0  0  0  0  0  0  0  0  0
   -2.8895   -1.4480    1.1418 H   0  0  0  0  0  0  0  0  0  0  0  0
   -0.2601   -0.7500    0.0038 C   0  0  0  0  0  0  0  0  0  0  0  0
   -1.3627    1.1488    1.0978 H   0  0  0  0  0  0  0  0  0  0  0  0
   -1.3446    0.6922   -0.4361 H   0  0  0  0  0  0  0  0  0  0  0  0
    0.0698   -1.1556    0.7429 H   0  0  0  0  0  0  0  0  0  0  0  0
    0.7400   -0.1721    0.0525 H   0  0  0  0  0  0  0  0  0  0  0  0
   -0.1282   -1.6608   -1.1158 H   0  0  0  0  0  0  0  0  0  0  0  0
  1  2  1  0  0  0  0
  1  5  1  0  0  0  0
  2  8  1  0  0  0  0
  6 10  1  0  0  0  0
  7  2  1  0  0  0  0
  9 13  1  0  0  0  0
  9  6  1  0  0  0  0
  9 12  1  0  0  0  0
 11  6  1  0  0  0  0
 14  9  1  0  0  0  0
M  RAD  5   1   3   2   2   3   2   4   2   6   2
M  END
$$$$
