14
butane_opt
C  -3.947424   0.284129  -0.031416
C  -2.659246  -0.668139   0.027397
H  -4.805715  -0.272365   0.492205
H  -4.599967   1.582039  -1.315549
H  -3.918098   0.576226   0.656416
C  -1.378478   0.144409   0.069778
H  -2.822242  -1.371439  -0.795180
H  -2.898868  -1.284543   0.938420
C  -0.162861  -0.657229  -0.022115
H  -1.031231   1.207647   1.281238
H  -1.593843   0.566723  -0.488744
H  -0.193497  -1.399512   0.848607
H   0.805909  -0.023591  -0.014573
H  -0.165090  -1.257661  -0.734654
