butane_opt
 OpenBabel08242015393D

 14 11  0  0  0  0  0  0  0  0999 V2000
   -3.9221    0.3574   -0.0701 C   0  0  0  0  0  0  0  0  0  0  0  0
   -2.6421   -0.6878    0.1885 C   0  0  0  0  0  0  0  0  0  0  0  0
   -4.8834   -0.2387   -0.3497 H   0  0  0  0  0  0  0  0  0  0  0  0
   -3.7926    1.0125   -0.9438 H   0  0  0  0  0  0  0  0  0  0  0  0
   -4.3148    0.6789    0.3690 H   0  0  0  0  0  0  0  0  0  0  0  0
   -1.3601    0.1094    0.1085 C   0  0  0  0  0  0  0  0  0  0  0  0
   -2.7353   -1.0470   -0.4366 H   0  0  0  0  0  0  0  0  0  0  0  0
   -2.5613   -1.5149    1.2657 H   0  0  0  0  0  0  0  0  0  0  0  0
   -0.2572   -0.6528   -0.0909 C   0  0  0  0  0  0  0  0  0  0  0  0
   -1.0650    0.9712    0.9212 H   0  0  0  0  0  0  0  0  0  0  0  0
   -1.5002    0.5728   -0.6039 H   0  0  0  0  0  0  0  0  0  0  0  0
   -0.5038   -0.8870    0.4967 H   0  0  0  0  0  0  0  0  0  0  0  0
    0.7901    0.0727    0.2668 H   0  0  0  0  0  0  0  0  0  0  0  0
   -0.2781   -1.6411   -1.2495 H   0  0  0  0  0  0  0  0  0  0  0  0
  1  2  1  0  0  0  0
  1  5  1  0  0  0  0
  2  8  1  0  0  0  0
  3  1  1  0  0  0  0
  4  1  1  0  0  0  0
  6 10  1  0  0  0  0
  7  2  1  0  0  0  0
  9  6  1  0  0  0  0
  9 13  1  0  0  0  0
  9 12  1  0  0  0  0
 11  6  1  0  0  0  0
M  RAD  4   2   2   6   2   9   2  14   2
M  END
$$$$
