14
butane_opt
C  -3.966383   0.234674   0.004956
C  -2.701275  -0.535256  -0.035442
H  -5.119015  -0.424920   0.308564
H  -4.033277   0.650601  -0.789634
H  -3.938466   0.763318   0.822155
C  -1.379858   0.205788   0.087708
H  -2.969221  -1.261465  -0.977549
H  -2.640906  -0.921646   0.610184
C  -0.129749  -0.743635   0.063227
H  -1.385999   0.777966   0.910716
H  -1.248461   0.948706  -0.871233
H   0.327297  -1.688787   1.182194
H   0.632432  -0.284567  -0.650183
H  -0.474034  -1.011251  -0.509995
