butane_opt
 OpenBabel08242015393D

 14 13  0  0  0  0  0  0  0  0999 V2000
   -3.9497    0.2675    0.0353 C   0  0  0  0  0  0  0  0  0  0  0  0
   -2.7038   -0.6314    0.0090 C   0  0  0  0  0  0  0  0  0  0  0  0
   -4.8089   -0.2801    0.0420 H   0  0  0  0  0  0  0  0  0  0  0  0
   -4.0316    0.8381   -0.7969 H   0  0  0  0  0  0  0  0  0  0  0  0
   -4.0036    1.0375    0.9540 H   0  0  0  0  0  0  0  0  0  0  0  0
   -1.4032    0.1795    0.0014 C   0  0  0  0  0  0  0  0  0  0  0  0
   -2.7042   -1.3756   -0.9025 H   0  0  0  0  0  0  0  0  0  0  0  0
   -2.6948   -1.2054    0.8413 H   0  0  0  0  0  0  0  0  0  0  0  0
   -0.1561   -0.6845    0.0560 C   0  0  0  0  0  0  0  0  0  0  0  0
   -1.4136    0.8116    0.8030 H   0  0  0  0  0  0  0  0  0  0  0  0
   -1.3591    0.8462   -0.9013 H   0  0  0  0  0  0  0  0  0  0  0  0
   -0.0589   -1.4245    1.0500 H   0  0  0  0  0  0  0  0  0  0  0  0
    0.7692   -0.0644   -0.1409 H   0  0  0  0  0  0  0  0  0  0  0  0
   -0.1705   -1.2184   -0.7074 H   0  0  0  0  0  0  0  0  0  0  0  0
  1  3  1  0  0  0  0
  1  5  1  0  0  0  0
  2  1  1  0  0  0  0
  2  8  1  0  0  0  0
  4  1  1  0  0  0  0
  6  2  1  0  0  0  0
  6  9  1  0  0  0  0
  6 10  1  0  0  0  0
  7  2  1  0  0  0  0
  9 12  1  0  0  0  0
 11  6  1  0  0  0  0
 13  9  1  0  0  0  0
 14  9  1  0  0  0  0
M  END
$$$$
