14
butane_opt
C  -3.831405   0.237455   0.099867
C  -2.753863  -0.598278  -0.109341
H  -4.696491  -0.349758   0.146288
H  -3.949763   0.686677  -0.694938
H  -3.695291   0.962015   0.863276
C  -1.465173   0.260372  -0.036080
H  -2.566829  -1.278382  -0.931463
H  -2.683949  -1.098421   0.754725
C  -0.169761  -0.721083   0.148206
H  -1.631557   0.999474   0.884191
H  -1.337137   0.608788  -0.796657
H  -0.029075  -1.894188   1.308588
H   0.809167  -0.169177  -0.733563
H  -0.593959  -1.062892  -0.548953
