14
butane_opt
C  -3.878255   0.319566   0.199176
C  -2.635396  -0.699513  -0.173011
H  -4.581129  -0.085573   0.520368
H  -4.391064   1.160818  -0.745790
H  -4.007787   0.551529   0.827714
C  -1.402757   0.116993  -0.110224
H  -2.826508  -1.684574  -1.232322
H  -2.382086  -0.856607   0.413662
C  -0.249372  -0.618027   0.166252
H  -1.773265   0.683482   0.722401
H  -1.240291   0.843490  -1.002247
H  -0.353028  -1.606576   1.234488
H   0.788526   0.120884   0.105776
H  -0.295429  -0.975258  -0.406980
