butane_opt
 OpenBabel08242015393D

 14  8  0  0  0  0  0  0  0  0999 V2000
   -3.9696    0.2230    0.1539 C   0  0  0  0  0  1  0  0  0  0  0  0
   -2.7535   -0.6126   -0.0593 C   0  0  0  0  0  0  0  0  0  0  0  0
   -4.8390   -0.2517   -0.5672 H   0  0  0  0  0  0  0  0  0  0  0  0
   -3.8005    0.3122   -0.3350 H   0  0  0  0  0  0  0  0  0  0  0  0
   -4.2042    1.5737    1.3928 H   0  0  0  0  0  0  0  0  0  0  0  0
   -1.3579    0.2572   -0.1787 C   0  0  0  0  0  0  0  0  0  0  0  0
   -2.8367   -1.2753   -0.8670 H   0  0  0  0  0  0  0  0  0  0  0  0
   -2.5370   -1.1895    0.7579 H   0  0  0  0  0  0  0  0  0  0  0  0
   -0.1658   -0.7379    0.1196 C   0  0  0  0  0  0  0  0  0  0  0  0
   -1.5185    0.7985    0.7320 H   0  0  0  0  0  0  0  0  0  0  0  0
   -1.0500    0.8369   -1.0347 H   0  0  0  0  0  0  0  0  0  0  0  0
    0.1159   -1.7904    1.2776 H   0  0  0  0  0  0  0  0  0  0  0  0
    0.5420   -0.2250   -0.0321 H   0  0  0  0  0  0  0  0  0  0  0  0
    0.0786   -0.8312   -0.2188 H   0  0  0  0  0  0  0  0  0  0  0  0
  2  8  1  0  0  0  0
  3  1  1  0  0  0  0
  4  2  1  0  0  0  0
  6  9  1  0  0  0  0
  6 10  1  0  0  0  0
  7  2  1  0  0  0  0
 11  6  1  0  0  0  0
 13  9  1  0  0  0  0
M  RAD  6   2   2   5   2   6   2   9   3  12   2  14   2
M  END
$$$$
