butane_opt
 OpenBabel08242015393D

 14 13  0  0  0  0  0  0  0  0999 V2000
   -3.9342    0.3101   -0.1834 C   0  0  0  0  0  0  0  0  0  0  0  0
   -2.6623   -0.6189    0.1638 C   0  0  0  0  0  0  0  0  0  0  0  0
   -4.9174   -0.2162    0.1795 H   0  0  0  0  0  0  0  0  0  0  0  0
   -4.0991    1.1009   -1.3087 H   0  0  0  0  0  0  0  0  0  0  0  0
   -3.9408    0.7100    0.3998 H   0  0  0  0  0  0  0  0  0  0  0  0
   -1.3319    0.0935    0.3406 C   0  0  0  0  0  0  0  0  0  0  0  0
   -2.5165   -1.4033   -0.6745 H   0  0  0  0  0  0  0  0  0  0  0  0
   -2.7891   -1.2512    1.1510 H   0  0  0  0  0  0  0  0  0  0  0  0
   -0.2769   -0.6479   -0.1519 C   0  0  0  0  0  0  0  0  0  0  0  0
   -1.1882    0.8041    1.1179 H   0  0  0  0  0  0  0  0  0  0  0  0
   -1.5458    0.8328   -0.5382 H   0  0  0  0  0  0  0  0  0  0  0  0
    0.1386   -1.4859    0.8094 H   0  0  0  0  0  0  0  0  0  0  0  0
    0.8346    0.1119   -0.6749 H   0  0  0  0  0  0  0  0  0  0  0  0
   -0.5645   -1.2898   -1.0639 H   0  0  0  0  0  0  0  0  0  0  0  0
  1  2  1  0  0  0  0
  1  3  1  0  0  0  0
  1  5  1  0  0  0  0
  2  6  1  0  0  0  0
  2  8  1  0  0  0  0
  4  1  1  0  0  0  0
  6 10  1  0  0  0  0
  7  2  1  0  0  0  0
  9  6  1  0  0  0  0
  9 12  1  0  0  0  0
 11  6  1  0  0  0  0
 13  9  1  0  0  0  0
 14  9  1  0  0  0  0
M  END
$$$$
