14
butane_opt
C  -4.043190   0.344074  -0.139798
C  -2.667651  -0.746633   0.147944
H  -4.930522  -0.170151   0.593344
H  -4.182377   1.292378  -1.304480
H  -4.170784   0.494505   0.530393
C  -1.313153   0.153294   0.150059
H  -2.700566  -1.348325  -0.657707
H  -2.583832  -1.403767   1.074085
C  -0.179695  -0.657133  -0.099431
H  -1.106379   1.349932   1.277922
H  -1.597834   0.675099  -0.610730
H  -0.029096  -1.044807   0.722781
H   0.744602   0.033753   0.076465
H  -0.049362  -1.470872  -1.009136
