14
butane_opt
C  -3.900555   0.265575   0.098064
C  -2.672918  -0.601087  -0.105092
H  -5.006972  -0.585561  -0.100458
H  -3.857869   0.457409  -0.731959
H  -3.729695   1.201058   1.188716
C  -1.434152   0.242937  -0.023036
H  -2.621290  -1.350355  -0.913735
H  -2.651337  -1.235203   0.778976
C  -0.218571  -0.700727   0.148505
H  -1.771371   0.859018   0.707667
H  -1.440922   0.695542  -0.844317
H   0.249055  -1.884773   1.337158
H   0.706181  -0.106080  -0.883431
H  -0.212993  -0.966048  -0.464276
