butane_opt
 OpenBabel08242015393D

 14 11  0  0  0  0  0  0  0  0999 V2000
   -3.9538    0.2474    0.1835 C   0  0  0  0  0  0  0  0  0  0  0  0
   -2.6829   -0.5820   -0.1980 C   0  0  0  0  0  0  0  0  0  0  0  0
   -5.0170   -0.4919    0.4624 H   0  0  0  0  0  0  0  0  0  0  0  0
   -4.2755    0.7497   -0.6193 H   0  0  0  0  0  0  0  0  0  0  0  0
   -3.4894    0.8786    1.0190 H   0  0  0  0  0  0  0  0  0  0  0  0
   -1.3832    0.2832   -0.1235 C   0  0  0  0  0  0  0  0  0  0  0  0
   -2.9419   -1.5549   -1.2496 H   0  0  0  0  0  0  0  0  0  0  0  0
   -2.7249   -0.9432    0.5790 H   0  0  0  0  0  0  0  0  0  0  0  0
   -0.1538   -0.7357    0.2098 C   0  0  0  0  0  0  0  0  0  0  0  0
   -1.5385    0.8130    0.6744 H   0  0  0  0  0  0  0  0  0  0  0  0
   -1.2437    0.6939   -1.0008 H   0  0  0  0  0  0  0  0  0  0  0  0
   -0.3045   -1.8560    1.4576 H   0  0  0  0  0  0  0  0  0  0  0  0
    0.6637   -0.4520   -0.3207 H   0  0  0  0  0  0  0  0  0  0  0  0
   -0.0262   -0.8611   -0.3949 H   0  0  0  0  0  0  0  0  0  0  0  0
  1  3  1  0  0  0  0
  1  5  1  0  0  0  0
  2  6  1  0  0  0  0
  2  1  1  0  0  0  0
  2  8  1  0  0  0  0
  4  1  1  0  0  0  0
  6  9  1  0  0  0  0
  6 10  1  0  0  0  0
  7  2  1  0  0  0  0
 11  6  1  0  0  0  0
 13  9  1  0  0  0  0
M  RAD  3   9   3  12   2  14   2
M  END
$$$$
