14
butane_opt
C  -3.951670   0.234737  -0.154977
C  -2.760800  -0.571823   0.150853
H  -5.020921  -0.566090  -0.065769
H  -3.956997   0.978997  -1.042115
H  -4.143283   0.903938   0.718360
C  -1.361169   0.274539   0.214668
H  -2.937788  -1.325779  -0.661417
H  -2.867305  -1.235794   1.149718
C  -0.078115  -0.764175  -0.070638
H  -1.516735   0.913805   1.163999
H  -1.455659   0.767560  -0.621111
H   0.470315  -1.547189   0.825115
H   0.764835  -0.079738  -0.782402
H  -0.509319  -1.357122  -0.952019
