14
butane_opt
C  -3.973234   0.313347   0.074293
C  -2.683127  -0.684622  -0.090900
H  -4.803461  -0.225404   0.662331
H  -4.187011   1.382802  -1.019565
H  -3.676561   0.894773   0.938017
C  -1.413950   0.074860  -0.033178
H  -2.630982  -1.679049  -1.020484
H  -2.484699  -1.066378   0.704427
C  -0.172422  -0.631853   0.089923
H  -1.494547   1.037234   0.937814
H  -1.365653   0.612914  -0.785865
H  -0.472536  -1.454540   1.157885
H   1.074729   0.150098  -0.187811
H  -0.113953  -0.910675  -0.449413
