butane_opt
 OpenBabel08242015393D

 14  9  0  0  0  0  0  0  0  0999 V2000
   -3.9172    0.2355   -0.0897 C   0  0  0  0  0  0  0  0  0  0  0  0
   -2.6903   -0.5998    0.2126 C   0  0  0  0  0  0  0  0  0  0  0  0
   -4.9327   -0.4506    0.2549 H   0  0  0  0  0  0  0  0  0  0  0  0
   -3.7817    1.2354   -1.1556 H   0  0  0  0  0  0  0  0  0  0  0  0
   -4.0001    0.3825    0.3633 H   0  0  0  0  0  0  0  0  0  0  0  0
   -1.4431    0.2885    0.0347 C   0  0  0  0  0  0  0  0  0  0  0  0
   -2.5891   -1.0691   -0.5352 H   0  0  0  0  0  0  0  0  0  0  0  0
   -2.8423   -1.5246    1.2730 H   0  0  0  0  0  0  0  0  0  0  0  0
   -0.1349   -0.7169   -0.0846 C   0  0  0  0  0  0  0  0  0  0  0  0
   -1.3689    1.1739    1.1098 H   0  0  0  0  0  0  0  0  0  0  0  0
   -1.5919    0.3809   -0.5560 H   0  0  0  0  0  0  0  0  0  0  0  0
   -0.2957   -0.7372    0.3538 H   0  0  0  0  0  0  0  0  0  0  0  0
    0.5728   -0.4092    0.7131 H   0  0  0  0  0  0  0  0  0  0  0  0
    0.0661   -1.9680   -1.3391 H   0  0  0  0  0  0  0  0  0  0  0  0
  1  2  1  0  0  0  0
  1  3  1  0  0  0  0
  2  8  1  0  0  0  0
  4  1  1  0  0  0  0
  6  2  1  0  0  0  0
  6 10  1  0  0  0  0
  7  2  1  0  0  0  0
  9  6  1  0  0  0  0
  9 13  1  0  0  0  0
M  RAD  7   1   2   5   2   6   2   9   3  11   2  12   2  14   2
M  END
$$$$
