14
butane_opt
C  -3.894672   0.255634   0.093886
C  -2.745823  -0.542168  -0.016123
H  -4.993728  -0.748862  -0.422311
H  -3.575948   0.206802  -0.326509
H  -3.902249   1.611707   1.430854
C  -1.408112   0.223746  -0.115806
H  -2.763529  -1.517967  -1.172909
H  -2.757576  -1.102825   0.907621
C  -0.187115  -0.738861   0.155930
H  -1.330167   0.566641   0.447702
H  -1.646293   1.157827  -1.280811
H   0.116604  -1.641569   1.276802
H   0.765520  -0.137306  -0.215475
H  -0.108162  -1.256566  -0.479413
