butane_opt
 OpenBabel08242015393D

 14 12  0  0  0  0  0  0  0  0999 V2000
   -3.9316    0.2308    0.1387 C   0  0  0  0  0  0  0  0  0  0  0  0
   -2.7778   -0.5857   -0.0242 C   0  0  0  0  0  0  0  0  0  0  0  0
   -4.8788   -0.4137   -0.3956 H   0  0  0  0  0  0  0  0  0  0  0  0
   -3.8414    0.4114   -0.5156 H   0  0  0  0  0  0  0  0  0  0  0  0
   -4.0762    1.1529    1.1451 H   0  0  0  0  0  0  0  0  0  0  0  0
   -1.3862    0.2329   -0.1280 C   0  0  0  0  0  0  0  0  0  0  0  0
   -3.1361   -1.3840   -1.0491 H   0  0  0  0  0  0  0  0  0  0  0  0
   -2.5372   -0.9707    0.7374 H   0  0  0  0  0  0  0  0  0  0  0  0
   -0.0766   -0.7256    0.1599 C   0  0  0  0  0  0  0  0  0  0  0  0
   -1.5195    0.9042    0.6288 H   0  0  0  0  0  0  0  0  0  0  0  0
   -1.3949    1.1704   -1.3667 H   0  0  0  0  0  0  0  0  0  0  0  0
    0.1206   -1.5966    1.1245 H   0  0  0  0  0  0  0  0  0  0  0  0
    0.4124   -0.3420    0.0359 H   0  0  0  0  0  0  0  0  0  0  0  0
   -0.0781   -1.3086   -0.6128 H   0  0  0  0  0  0  0  0  0  0  0  0
  1  5  1  0  0  0  0
  2  1  1  0  0  0  0
  2  8  1  0  0  0  0
  3  1  1  0  0  0  0
  4  1  1  0  0  0  0
  6  2  1  0  0  0  0
  6  9  1  0  0  0  0
  6 10  1  0  0  0  0
  7  2  1  0  0  0  0
  9 12  1  0  0  0  0
 13  9  1  0  0  0  0
 14  9  1  0  0  0  0
M  RAD  2   6   2  11   2
M  END
$$$$
