14
butane_opt
C  -3.921525   0.217244   0.183727
C  -2.782839  -0.575036  -0.183271
H  -5.004238  -0.528279   0.494939
H  -4.357285   0.867565  -0.695649
H  -3.647625   0.945915   1.068267
C  -1.439764   0.282290  -0.129558
H  -3.050961  -1.378342  -1.072306
H  -2.610552  -1.115678   0.546758
C  -0.103776  -0.739179   0.179832
H  -1.250670   0.970827   0.702495
H  -1.031036   1.000806  -1.243748
H  -0.210249  -1.700617   1.356613
H   0.615167  -0.379275   0.126639
H   0.526935  -1.412916  -0.463372
