butane_opt
 OpenBabel08242015393D

 14 11  0  0  0  0  0  0  0  0999 V2000
   -3.9732    0.3133    0.0743 C   0  0  0  0  0  0  0  0  0  0  0  0
   -2.6831   -0.6846   -0.0909 C   0  0  0  0  0  0  0  0  0  0  0  0
   -4.8035   -0.2254    0.6623 H   0  0  0  0  0  0  0  0  0  0  0  0
   -4.1870    1.3828   -1.0196 H   0  0  0  0  0  0  0  0  0  0  0  0
   -3.6766    0.8948    0.9380 H   0  0  0  0  0  0  0  0  0  0  0  0
   -1.4140    0.0749   -0.0332 C   0  0  0  0  0  0  0  0  0  0  0  0
   -2.6310   -1.6790   -1.0205 H   0  0  0  0  0  0  0  0  0  0  0  0
   -2.4847   -1.0664    0.7044 H   0  0  0  0  0  0  0  0  0  0  0  0
   -0.1724   -0.6319    0.0899 C   0  0  0  0  0  0  0  0  0  0  0  0
   -1.4945    1.0372    0.9378 H   0  0  0  0  0  0  0  0  0  0  0  0
   -1.3657    0.6129   -0.7859 H   0  0  0  0  0  0  0  0  0  0  0  0
   -0.4725   -1.4545    1.1579 H   0  0  0  0  0  0  0  0  0  0  0  0
    1.0747    0.1501   -0.1878 H   0  0  0  0  0  0  0  0  0  0  0  0
   -0.1140   -0.9107   -0.4494 H   0  0  0  0  0  0  0  0  0  0  0  0
  1  3  1  0  0  0  0
  1  5  1  0  0  0  0
  2  6  1  0  0  0  0
  2  1  1  0  0  0  0
  2  8  1  0  0  0  0
  6  9  1  0  0  0  0
  6 10  1  0  0  0  0
  7  2  1  0  0  0  0
  9 12  1  0  0  0  0
 11  6  1  0  0  0  0
 13  9  1  0  0  0  0
M  RAD  4   1   2   4   2   9   2  14   2
M  END
$$$$
