14
butane_opt
C  -3.965604   0.324891  -0.113853
C  -2.573911  -0.606035   0.178044
H  -4.847421  -0.344670   0.151053
H  -4.119976   1.268229  -1.178918
H  -3.935758   0.488896   0.591989
C  -1.397878   0.051005   0.113680
H  -2.607781  -1.052794  -0.546431
H  -2.713089  -1.799643   1.435244
C  -0.215904  -0.608838  -0.092627
H  -1.366083   0.811730   0.942657
H  -1.441734   0.718527  -0.700952
H  -0.537835  -0.494530   0.281688
H   0.733305   0.050042   0.769558
H  -0.334475  -2.042662  -1.454232
