14
butane_opt
C  -4.020855   0.279137   0.184146
C  -2.698429  -0.658317  -0.159998
H  -4.713782  -0.006119   0.675464
H  -4.225046   1.137258  -0.765375
H  -3.704277   0.662786   0.909098
C  -1.363493   0.161890  -0.148489
H  -2.858546  -1.451274  -1.276603
H  -2.441273  -1.195275   0.646103
C  -0.191368  -0.664204   0.219533
H  -1.376771   0.728411   0.641043
H  -0.963799   1.005704  -1.261474
H  -0.219038  -1.082242   1.061972
H   0.736604  -0.168662   0.436709
H  -0.001091  -1.511947  -0.810807
