14
butane_opt
C  -3.957638   0.183163  -0.180042
C  -2.704057  -0.591799   0.153391
H  -4.898875  -0.412458   0.903868
H  -4.149415   1.447875  -1.446506
H  -3.710441   0.301166   0.432616
C  -1.454118   0.310672   0.233179
H  -2.709795  -1.387307  -0.553372
H  -3.067599  -1.082039   1.008586
C  -0.068192  -0.767778  -0.104366
H  -1.429066   1.193595   1.221931
H  -1.443928   1.057982  -0.732006
H   0.102614  -1.079980   0.633543
H   0.657752  -0.328837   0.028878
H  -0.138297  -1.828330  -1.369256
