butane_opt
 OpenBabel08242015393D

 14 11  0  0  0  0  0  0  0  0999 V2000
   -4.0531    0.3588    0.0640 C   0  0  0  0  0  1  0  0  0  0  0  0
   -2.7101   -0.6853    0.0797 C   0  0  0  0  0  0  0  0  0  0  0  0
   -4.8150   -0.2536   -0.7498 H   0  0  0  0  0  0  0  0  0  0  0  0
   -3.8350    0.1582   -0.3930 H   0  0  0  0  0  0  0  0  0  0  0  0
   -4.3463    1.5163    1.1614 H   0  0  0  0  0  0  0  0  0  0  0  0
   -1.2914    0.1157   -0.0923 C   0  0  0  0  0  0  0  0  0  0  0  0
   -2.6715   -1.3315   -0.8056 H   0  0  0  0  0  0  0  0  0  0  0  0
   -2.6478   -1.1868    0.8755 H   0  0  0  0  0  0  0  0  0  0  0  0
   -0.1765   -0.6543    0.1025 C   0  0  0  0  0  0  0  0  0  0  0  0
   -1.6030    0.5625    0.5847 H   0  0  0  0  0  0  0  0  0  0  0  0
   -1.1114    0.9544   -0.9942 H   0  0  0  0  0  0  0  0  0  0  0  0
   -0.0480   -1.4031    1.0261 H   0  0  0  0  0  0  0  0  0  0  0  0
    0.9550    0.1533   -0.3371 H   0  0  0  0  0  0  0  0  0  0  0  0
   -0.1846   -1.2417   -0.7351 H   0  0  0  0  0  0  0  0  0  0  0  0
  2  8  1  0  0  0  0
  3  1  1  0  0  0  0
  4  2  1  0  0  0  0
  6  2  1  0  0  0  0
  6  9  1  0  0  0  0
  6 10  1  0  0  0  0
  7  2  1  0  0  0  0
  9 12  1  0  0  0  0
 11  6  1  0  0  0  0
 13  9  1  0  0  0  0
 14  9  1  0  0  0  0
M  RAD  1   5   2
M  END
$$$$
