butane_opt
 OpenBabel08242015393D

 14 13  0  0  0  0  0  0  0  0999 V2000
   -3.9622    0.2831    0.0387 C   0  0  0  0  0  0  0  0  0  0  0  0
   -2.6959   -0.6362    0.0020 C   0  0  0  0  0  0  0  0  0  0  0  0
   -4.8919   -0.3141    0.1628 H   0  0  0  0  0  0  0  0  0  0  0  0
   -4.0717    0.8618   -0.8067 H   0  0  0  0  0  0  0  0  0  0  0  0
   -3.9341    0.9750    0.9136 H   0  0  0  0  0  0  0  0  0  0  0  0
   -1.3909    0.1770   -0.0128 C   0  0  0  0  0  0  0  0  0  0  0  0
   -2.7328   -1.3943   -0.9045 H   0  0  0  0  0  0  0  0  0  0  0  0
   -2.6674   -1.2473    0.8699 H   0  0  0  0  0  0  0  0  0  0  0  0
   -0.1542   -0.6792    0.0640 C   0  0  0  0  0  0  0  0  0  0  0  0
   -1.3951    0.8029    0.7950 H   0  0  0  0  0  0  0  0  0  0  0  0
   -1.3653    0.8432   -0.9545 H   0  0  0  0  0  0  0  0  0  0  0  0
   -0.1481   -1.3188    0.9892 H   0  0  0  0  0  0  0  0  0  0  0  0
    0.7410   -0.0899    0.0313 H   0  0  0  0  0  0  0  0  0  0  0  0
   -0.1246   -1.3219   -0.7502 H   0  0  0  0  0  0  0  0  0  0  0  0
  1  3  1  0  0  0  0
  1  5  1  0  0  0  0
  2  1  1  0  0  0  0
  2  8  1  0  0  0  0
  4  1  1  0  0  0  0
  6  2  1  0  0  0  0
  6  9  1  0  0  0  0
  6 10  1  0  0  0  0
  7  2  1  0  0  0  0
  9 12  1  0  0  0  0
 11  6  1  0  0  0  0
 13  9  1  0  0  0  0
 14  9  1  0  0  0  0
M  END
$$$$
