butane_opt
 OpenBabel08242015393D

 14 12  0  0  0  0  0  0  0  0999 V2000
   -3.9002    0.2884    0.0234 C   0  0  0  0  0  0  0  0  0  0  0  0
   -2.6663   -0.5827   -0.0253 C   0  0  0  0  0  0  0  0  0  0  0  0
   -4.8650   -0.2791    0.4650 H   0  0  0  0  0  0  0  0  0  0  0  0
   -4.2809    1.2398   -1.1351 H   0  0  0  0  0  0  0  0  0  0  0  0
   -3.9009    0.6756    0.7189 H   0  0  0  0  0  0  0  0  0  0  0  0
   -1.3961    0.1137    0.0399 C   0  0  0  0  0  0  0  0  0  0  0  0
   -2.6465   -1.2420   -0.9178 H   0  0  0  0  0  0  0  0  0  0  0  0
   -2.6393   -1.4620    1.0671 H   0  0  0  0  0  0  0  0  0  0  0  0
   -0.2212   -0.6653    0.0283 C   0  0  0  0  0  0  0  0  0  0  0  0
   -1.1314    0.7855    1.0505 H   0  0  0  0  0  0  0  0  0  0  0  0
   -1.4203    0.5293   -0.6845 H   0  0  0  0  0  0  0  0  0  0  0  0
   -0.6307   -1.2308    0.8397 H   0  0  0  0  0  0  0  0  0  0  0  0
    0.8974    0.0820    0.0558 H   0  0  0  0  0  0  0  0  0  0  0  0
   -0.1667   -1.3753   -0.8632 H   0  0  0  0  0  0  0  0  0  0  0  0
  1  3  1  0  0  0  0
  1  5  1  0  0  0  0
  2  1  1  0  0  0  0
  2  6  1  0  0  0  0
  2  8  1  0  0  0  0
  6 10  1  0  0  0  0
  7  2  1  0  0  0  0
  9  6  1  0  0  0  0
  9 13  1  0  0  0  0
  9 12  1  0  0  0  0
 11  6  1  0  0  0  0
 14  9  1  0  0  0  0
M  RAD  2   1   2   4   2
M  END
$$$$
