14
butane_opt
C  -3.949408   0.246727  -0.001287
C  -2.705620  -0.598716   0.056151
H  -4.860208  -0.350746  -0.055650
H  -3.884044   0.811154  -0.864229
H  -4.002229   1.012498   0.942580
C  -1.410132   0.199939   0.031422
H  -2.742461  -1.275631  -0.798231
H  -2.749891  -1.241827   0.968643
C  -0.143314  -0.710373   0.018045
H  -1.386676   0.840061   0.859931
H  -1.418154   0.907497  -0.884306
H  -0.088165  -1.353158   0.918314
H   0.788315  -0.123489  -0.053707
H  -0.170792  -1.351662  -0.833337
