butane_opt
 OpenBabel08242015393D

 14 12  0  0  0  0  0  0  0  0999 V2000
   -3.9219    0.2843    0.0876 C   0  0  0  0  0  0  0  0  0  0  0  0
   -2.6837   -0.6654   -0.0820 C   0  0  0  0  0  0  0  0  0  0  0  0
   -4.7287   -0.1264    0.7602 H   0  0  0  0  0  0  0  0  0  0  0  0
   -4.2840    1.3249   -0.9677 H   0  0  0  0  0  0  0  0  0  0  0  0
   -3.8052    0.8942    0.8181 H   0  0  0  0  0  0  0  0  0  0  0  0
   -1.3852    0.1383   -0.0531 C   0  0  0  0  0  0  0  0  0  0  0  0
   -2.8785   -1.5987   -1.1210 H   0  0  0  0  0  0  0  0  0  0  0  0
   -2.3639   -1.3017    0.6772 H   0  0  0  0  0  0  0  0  0  0  0  0
   -0.2258   -0.6890    0.1710 C   0  0  0  0  0  0  0  0  0  0  0  0
   -1.5490    0.6906    0.7544 H   0  0  0  0  0  0  0  0  0  0  0  0
   -1.1675    1.0324   -1.1167 H   0  0  0  0  0  0  0  0  0  0  0  0
   -0.3096   -0.8800    0.7710 H   0  0  0  0  0  0  0  0  0  0  0  0
    0.9355    0.0897    0.1853 H   0  0  0  0  0  0  0  0  0  0  0  0
   -0.2823   -1.3681   -0.8630 H   0  0  0  0  0  0  0  0  0  0  0  0
  1  3  1  0  0  0  0
  1  5  1  0  0  0  0
  2  6  1  0  0  0  0
  2  1  1  0  0  0  0
  2  8  1  0  0  0  0
  6  9  1  0  0  0  0
  6 10  1  0  0  0  0
  7  2  1  0  0  0  0
  9 13  1  0  0  0  0
  9 12  1  0  0  0  0
 11  6  1  0  0  0  0
 14  9  1  0  0  0  0
M  RAD  2   1   2   4   2
M  END
$$$$
