butane_opt
 OpenBabel08242015393D

 14 10  0  0  0  0  0  0  0  0999 V2000
   -4.0334    0.3106   -0.0573 C   0  0  0  0  0  0  0  0  0  0  0  0
   -2.7286   -0.7050    0.1299 C   0  0  0  0  0  0  0  0  0  0  0  0
   -4.8864   -0.2372    0.6035 H   0  0  0  0  0  0  0  0  0  0  0  0
   -4.2029    1.7073   -1.5128 H   0  0  0  0  0  0  0  0  0  0  0  0
   -4.0413    0.3824    0.1686 H   0  0  0  0  0  0  0  0  0  0  0  0
   -1.3673    0.1384    0.1167 C   0  0  0  0  0  0  0  0  0  0  0  0
   -2.5393   -1.4116   -0.5787 H   0  0  0  0  0  0  0  0  0  0  0  0
   -2.6170   -1.1802    0.9181 H   0  0  0  0  0  0  0  0  0  0  0  0
   -0.0792   -0.6311   -0.0616 C   0  0  0  0  0  0  0  0  0  0  0  0
   -1.3382    1.0912    1.1990 H   0  0  0  0  0  0  0  0  0  0  0  0
   -1.4288    0.5408   -0.6538 H   0  0  0  0  0  0  0  0  0  0  0  0
   -0.0439   -0.9691    0.5871 H   0  0  0  0  0  0  0  0  0  0  0  0
    0.9420    0.0413    0.3550 H   0  0  0  0  0  0  0  0  0  0  0  0
   -0.3948   -1.7663   -1.2666 H   0  0  0  0  0  0  0  0  0  0  0  0
  1  2  1  0  0  0  0
  1  3  1  0  0  0  0
  2  8  1  0  0  0  0
  6  2  1  0  0  0  0
  6 10  1  0  0  0  0
  7  2  1  0  0  0  0
  9  6  1  0  0  0  0
  9 13  1  0  0  0  0
  9 12  1  0  0  0  0
 11  6  1  0  0  0  0
M  RAD  5   1   3   4   2   5   2   9   2  14   2
M  END
$$$$
