14
butane_opt
C  -3.970241   0.260614   0.073835
C  -2.718598  -0.653645  -0.088692
H  -4.858578  -0.322419   0.743836
H  -4.425362   1.053130  -1.032837
H  -3.618843   0.427933   0.725894
C  -1.447786   0.268652  -0.034072
H  -2.736729  -1.344337  -0.914667
H  -2.592481  -1.081166   0.693671
C  -0.091891  -0.716757   0.095954
H  -1.141980   1.045885   0.925705
H  -1.460120   0.791747  -0.828449
H  -0.288607  -1.249827   1.057765
H   0.630204  -0.330660   0.087592
H   0.236451  -1.382087  -0.630297
