14
butane_opt
C  -3.888035   0.234422   0.210373
C  -2.683004  -0.561279  -0.130858
H  -4.932946  -0.540298   0.136210
H  -3.841935   0.733406  -0.623459
H  -3.712939   1.247522   1.293156
C  -1.443178   0.174383  -0.220508
H  -2.939213  -1.384401  -1.053263
H  -2.566141  -1.258198   0.709826
C  -0.166107  -0.718086   0.257713
H  -1.772724   0.520918   0.343478
H  -1.591410   1.304212  -1.371140
H  -0.490458  -1.031809   0.896382
H   0.825497   0.074320   0.541656
H   0.151028  -1.695368  -0.840628
