butane_opt
 OpenBabel08242015393D

 14  8  0  0  0  0  0  0  0  0999 V2000
   -4.0214    0.3390   -0.1292 C   0  0  0  0  0  0  0  0  0  0  0  0
   -2.6397   -0.7037    0.2063 C   0  0  0  0  0  0  0  0  0  0  0  0
   -4.8547   -0.2157    0.3788 H   0  0  0  0  0  0  0  0  0  0  0  0
   -4.0608    1.1164   -1.1607 H   0  0  0  0  0  0  0  0  0  0  0  0
   -4.1094    0.6413    0.3954 H   0  0  0  0  0  0  0  0  0  0  0  0
   -1.3831    0.1503    0.1228 C   0  0  0  0  0  0  0  0  0  0  0  0
   -2.4518   -1.0745   -0.4717 H   0  0  0  0  0  0  0  0  0  0  0  0
   -3.0131   -1.8187    1.3927 H   0  0  0  0  0  0  0  0  0  0  0  0
   -0.1456   -0.6122   -0.1150 C   0  0  0  0  0  1  0  0  0  0  0  0
   -1.1993    0.8296    1.0899 H   0  0  0  0  0  0  0  0  0  0  0  0
   -1.3584    0.7594   -0.8167 H   0  0  0  0  0  0  0  0  0  0  0  0
   -0.4170   -0.5060    0.3792 H   0  0  0  0  0  0  0  0  0  0  0  0
    0.5917   -0.1099    0.7709 H   0  0  0  0  0  0  0  0  0  0  0  0
    0.0923   -2.1847   -1.6147 H   0  0  0  0  0  0  0  0  0  0  0  0
  1  2  1  0  0  0  0
  1  3  1  0  0  0  0
  4  1  1  0  0  0  0
  6 12  1  0  0  0  0
  6 10  1  0  0  0  0
  7  2  1  0  0  0  0
  9 13  1  0  0  0  0
 11  6  1  0  0  0  0
M  RAD  6   1   2   2   3   5   2   6   2   8   2  14   2
M  END
$$$$
