butane_opt
 OpenBabel08242015393D

 14 13  0  0  0  0  0  0  0  0999 V2000
   -3.9517    0.2347   -0.1550 C   0  0  0  0  0  0  0  0  0  0  0  0
   -2.7608   -0.5718    0.1509 C   0  0  0  0  0  0  0  0  0  0  0  0
   -5.0209   -0.5661   -0.0658 H   0  0  0  0  0  0  0  0  0  0  0  0
   -3.9570    0.9790   -1.0421 H   0  0  0  0  0  0  0  0  0  0  0  0
   -4.1433    0.9039    0.7184 H   0  0  0  0  0  0  0  0  0  0  0  0
   -1.3612    0.2745    0.2147 C   0  0  0  0  0  0  0  0  0  0  0  0
   -2.9378   -1.3258   -0.6614 H   0  0  0  0  0  0  0  0  0  0  0  0
   -2.8673   -1.2358    1.1497 H   0  0  0  0  0  0  0  0  0  0  0  0
   -0.0781   -0.7642   -0.0706 C   0  0  0  0  0  0  0  0  0  0  0  0
   -1.5167    0.9138    1.1640 H   0  0  0  0  0  0  0  0  0  0  0  0
   -1.4557    0.7676   -0.6211 H   0  0  0  0  0  0  0  0  0  0  0  0
    0.4703   -1.5472    0.8251 H   0  0  0  0  0  0  0  0  0  0  0  0
    0.7648   -0.0797   -0.7824 H   0  0  0  0  0  0  0  0  0  0  0  0
   -0.5093   -1.3571   -0.9520 H   0  0  0  0  0  0  0  0  0  0  0  0
  1  3  1  0  0  0  0
  1  2  1  0  0  0  0
  1  5  1  0  0  0  0
  2  6  1  0  0  0  0
  2  8  1  0  0  0  0
  4  1  1  0  0  0  0
  6 10  1  0  0  0  0
  7  2  1  0  0  0  0
  9  6  1  0  0  0  0
  9 12  1  0  0  0  0
 11  6  1  0  0  0  0
 13  9  1  0  0  0  0
 14  9  1  0  0  0  0
M  END
$$$$
