14
butane_opt
C  -3.908121   0.210988   0.122709
C  -2.758042  -0.559770  -0.115757
H  -4.935219  -0.390315   0.044142
H  -4.172583   0.696149  -0.659190
H  -3.887461   0.797152   0.773081
C  -1.433022   0.263535  -0.017048
H  -3.112473  -1.325005  -0.993357
H  -2.530636  -1.238403   0.672420
C  -0.075024  -0.720626   0.088037
H  -1.616776   1.171983   0.934509
H  -1.442450   0.778880  -0.914628
H   0.201176  -2.031603   1.399825
H   0.569526  -0.326854  -0.344855
H  -0.001845  -0.955775  -0.381238
