butane_opt
 OpenBabel08242015393D

 14 12  0  0  0  0  0  0  0  0999 V2000
   -4.0282    0.2990   -0.0003 C   0  0  0  0  0  0  0  0  0  0  0  0
   -2.7367   -0.7264    0.1138 C   0  0  0  0  0  0  0  0  0  0  0  0
   -4.7405   -0.0046   -0.1742 H   0  0  0  0  0  0  0  0  0  0  0  0
   -3.9743    1.1366   -1.1601 H   0  0  0  0  0  0  0  0  0  0  0  0
   -4.1622    0.8570    0.8532 H   0  0  0  0  0  0  0  0  0  0  0  0
   -1.3114    0.2151   -0.0009 C   0  0  0  0  0  0  0  0  0  0  0  0
   -2.7786   -1.0475   -0.5257 H   0  0  0  0  0  0  0  0  0  0  0  0
   -2.4421   -1.5055    1.2013 H   0  0  0  0  0  0  0  0  0  0  0  0
   -0.1710   -0.6686   -0.0358 C   0  0  0  0  0  0  0  0  0  0  0  0
   -1.2627    0.8423    0.8652 H   0  0  0  0  0  0  0  0  0  0  0  0
   -1.2462    0.6651   -0.7726 H   0  0  0  0  0  0  0  0  0  0  0  0
   -0.3971   -0.8954    0.6551 H   0  0  0  0  0  0  0  0  0  0  0  0
    0.8505   -0.0095    0.6549 H   0  0  0  0  0  0  0  0  0  0  0  0
    0.0776   -1.9170   -1.1828 H   0  0  0  0  0  0  0  0  0  0  0  0
  1  2  1  0  0  0  0
  1  5  1  0  0  0  0
  2  8  1  0  0  0  0
  3  1  1  0  0  0  0
  4  1  1  0  0  0  0
  6  2  1  0  0  0  0
  6 10  1  0  0  0  0
  7  2  1  0  0  0  0
  9  6  1  0  0  0  0
  9 13  1  0  0  0  0
  9 12  1  0  0  0  0
 11  6  1  0  0  0  0
M  RAD  2   9   2  14   2
M  END
$$$$
