14
butane_opt
C  -3.959027   0.271262   0.039908
C  -2.701729  -0.635422   0.003395
H  -4.797209  -0.253586   0.083022
H  -3.981069   0.900963  -0.850929
H  -4.006417   0.951326   0.912981
C  -1.395903   0.175473  -0.006928
H  -2.743347  -1.298518  -0.840253
H  -2.711047  -1.228469   0.884592
C  -0.153925  -0.686528   0.049603
H  -1.363835   0.887770   0.892322
H  -1.357607   0.788686  -0.875395
H  -0.148198  -1.391032   1.000856
H   0.747587  -0.061185  -0.042871
H  -0.144083  -1.257718  -0.746126
