14
butane_opt
C  -4.012721   0.245718   0.091551
C  -2.716993  -0.665474  -0.163213
H  -4.601758  -0.127138   0.959426
H  -4.688064   1.386115  -1.046470
H  -3.612413   0.654194   0.980062
C  -1.392988   0.175004  -0.043486
H  -2.530013  -1.410053  -1.035772
H  -2.705303  -1.137119   0.811278
C  -0.122129  -0.661557   0.133584
H  -1.356200   1.004340   0.919935
H  -1.275167   0.842870  -1.007731
H  -0.125635  -1.386717   1.187373
H   0.838857  -0.072537   0.225483
H  -0.039156  -1.318073  -0.789776
