14
butane_opt
C  -3.949441   0.247289   0.002288
C  -2.709838  -0.599857   0.051897
H  -4.871977  -0.327335   0.189051
H  -4.035246   0.995064  -0.990499
H  -3.916572   0.772387   0.765411
C  -1.413879   0.198376   0.035299
H  -2.716096  -1.310917  -0.845704
H  -2.740295  -1.183270   0.929685
C  -0.133131  -0.706965   0.010339
H  -1.366100   0.942177   0.928249
H  -1.390227   0.806255  -0.855844
H  -0.125375  -1.299133   0.903050
H   0.754022  -0.140738   0.072815
H  -0.127551  -1.401233  -0.866504
