butane_opt
 OpenBabel08242015393D

 14  9  0  0  0  0  0  0  0  0999 V2000
   -3.9149    0.2853    0.1332 C   0  0  0  0  0  0  0  0  0  0  0  0
   -2.6997   -0.6004   -0.0026 C   0  0  0  0  0  0  0  0  0  0  0  0
   -4.7099   -0.2894   -0.5448 H   0  0  0  0  0  0  0  0  0  0  0  0
   -3.6052    0.1508   -0.4645 H   0  0  0  0  0  0  0  0  0  0  0  0
   -4.4047    1.6101    1.3837 H   0  0  0  0  0  0  0  0  0  0  0  0
   -1.4365    0.0734   -0.1242 C   0  0  0  0  0  0  0  0  0  0  0  0
   -2.5248   -1.5249   -0.9259 H   0  0  0  0  0  0  0  0  0  0  0  0
   -2.6613   -0.9977    0.7250 H   0  0  0  0  0  0  0  0  0  0  0  0
   -0.1763   -0.6546    0.1225 C   0  0  0  0  0  0  0  0  0  0  0  0
   -1.5026    0.6174    0.6427 H   0  0  0  0  0  0  0  0  0  0  0  0
   -1.5226    1.0306   -1.3768 H   0  0  0  0  0  0  0  0  0  0  0  0
   -0.2040   -1.5342    1.1723 H   0  0  0  0  0  0  0  0  0  0  0  0
    0.8839    0.1007   -0.1649 H   0  0  0  0  0  0  0  0  0  0  0  0
   -0.0880   -0.8428   -0.4007 H   0  0  0  0  0  0  0  0  0  0  0  0
  2  8  1  0  0  0  0
  3  1  1  0  0  0  0
  4  1  1  0  0  0  0
  6  2  1  0  0  0  0
  6  9  1  0  0  0  0
  6 10  1  0  0  0  0
  7  2  1  0  0  0  0
  9 12  1  0  0  0  0
 13  9  1  0  0  0  0
M  RAD  7   1   3   2   2   5   2   6   2   9   2  11   2  14   2
M  END
$$$$
