14
butane_opt
C  -3.835489   0.215475   0.146579
C  -2.741912  -0.499549  -0.053355
H  -4.773715  -0.347776   0.125918
H  -4.036364   0.464484  -0.623123
H  -3.703655   1.081281   1.162102
C  -1.473550   0.188512  -0.201229
H  -3.017897  -1.306090  -0.949759
H  -2.574879  -1.170126   0.726571
C  -0.141942  -0.731859   0.142546
H  -1.323059   0.875924   0.601567
H  -1.501252   0.818929  -1.213213
H  -0.631633  -1.426092   1.272871
H   0.720714  -0.106460   0.706706
H   0.145034  -1.445028  -0.735997
