butane_opt
 OpenBabel08242015393D

 14  9  0  0  0  0  0  0  0  0999 V2000
   -3.9900    0.3277    0.0848 C   0  0  0  0  0  0  0  0  0  0  0  0
   -2.7108   -0.6634   -0.0155 C   0  0  0  0  0  0  0  0  0  0  0  0
   -4.7902   -0.1081   -0.0255 H   0  0  0  0  0  0  0  0  0  0  0  0
   -4.2379    0.8324   -0.6728 H   0  0  0  0  0  0  0  0  0  0  0  0
   -3.9318    1.0222    0.9263 H   0  0  0  0  0  0  0  0  0  0  0  0
   -1.4247    0.0945    0.0056 C   0  0  0  0  0  0  0  0  0  0  0  0
   -2.6916   -1.8402   -1.2841 H   0  0  0  0  0  0  0  0  0  0  0  0
   -2.6648   -0.9187    0.5362 H   0  0  0  0  0  0  0  0  0  0  0  0
   -0.0933   -0.6397    0.0759 C   0  0  0  0  0  1  0  0  0  0  0  0
   -1.3261    0.7319    0.8310 H   0  0  0  0  0  0  0  0  0  0  0  0
   -1.1756    0.7646   -1.1189 H   0  0  0  0  0  0  0  0  0  0  0  0
   -0.1901   -1.8525    1.3294 H   0  0  0  0  0  0  0  0  0  0  0  0
    0.9382    0.1602   -0.4703 H   0  0  0  0  0  0  0  0  0  0  0  0
   -0.3687   -0.6361   -0.3498 H   0  0  0  0  0  0  0  0  0  0  0  0
  1  5  1  0  0  0  0
  2  6  1  0  0  0  0
  2  1  1  0  0  0  0
  3  1  1  0  0  0  0
  4  1  1  0  0  0  0
  6 10  1  0  0  0  0
 11  6  1  0  0  0  0
 13  9  1  0  0  0  0
 14  6  1  0  0  0  0
M  RAD  4   2   3   7   2   8   2  12   2
M  END
$$$$
