butane_opt
 OpenBabel08242015393D

 14 11  0  0  0  0  0  0  0  0999 V2000
   -3.8694    0.1778    0.1169 C   0  0  0  0  0  0  0  0  0  0  0  0
   -2.6895   -0.5098   -0.1604 C   0  0  0  0  0  0  0  0  0  0  0  0
   -4.9620   -0.4466    0.2586 H   0  0  0  0  0  0  0  0  0  0  0  0
   -4.0726    0.5991   -0.6781 H   0  0  0  0  0  0  0  0  0  0  0  0
   -3.5464    1.1299    1.0710 H   0  0  0  0  0  0  0  0  0  0  0  0
   -1.4453    0.2451    0.0088 C   0  0  0  0  0  0  0  0  0  0  0  0
   -2.8713   -1.4179   -1.0206 H   0  0  0  0  0  0  0  0  0  0  0  0
   -2.7842   -0.9795    0.5743 H   0  0  0  0  0  0  0  0  0  0  0  0
   -0.1892   -0.7397    0.1321 C   0  0  0  0  0  0  0  0  0  0  0  0
   -1.4336    0.7916    0.7679 H   0  0  0  0  0  0  0  0  0  0  0  0
   -1.2308    1.1587   -1.1123 H   0  0  0  0  0  0  0  0  0  0  0  0
   -0.0935   -2.0748    1.4796 H   0  0  0  0  0  0  0  0  0  0  0  0
    0.4761   -0.3227   -0.6012 H   0  0  0  0  0  0  0  0  0  0  0  0
   -0.1455   -1.0289   -0.4105 H   0  0  0  0  0  0  0  0  0  0  0  0
  1  3  1  0  0  0  0
  1  5  1  0  0  0  0
  2  6  1  0  0  0  0
  2  1  1  0  0  0  0
  2  8  1  0  0  0  0
  4  1  1  0  0  0  0
  6  9  1  0  0  0  0
  6 10  1  0  0  0  0
  7  2  1  0  0  0  0
 11  6  1  0  0  0  0
 13  9  1  0  0  0  0
M  RAD  3   9   3  12   2  14   2
M  END
$$$$
