14
butane_opt
C  -3.843696   0.196121   0.096717
C  -2.696510  -0.559116  -0.035037
H  -4.711661  -0.397464  -0.455631
H  -3.706256   0.321639  -0.333593
H  -4.027671   1.478134   1.391984
C  -1.520783   0.233681  -0.142509
H  -2.679204  -1.058528  -0.854111
H  -2.792758  -1.374848   0.991921
C  -0.162084  -0.705942   0.163777
H  -1.566939   0.861463   0.717505
H  -1.157969   0.858717  -1.072330
H  -0.116465  -1.621290   1.252849
H   0.594326  -0.168575  -0.337998
H  -0.165048  -1.390684  -0.806187
