butane_opt
 OpenBabel08242015393D

 14 10  0  0  0  0  0  0  0  0999 V2000
   -3.9421    0.3053   -0.0035 C   0  0  0  0  0  0  0  0  0  0  0  0
   -2.6932   -0.6524    0.1446 C   0  0  0  0  0  0  0  0  0  0  0  0
   -4.7121   -0.1059    0.0030 H   0  0  0  0  0  0  0  0  0  0  0  0
   -3.8420    1.1949   -1.0591 H   0  0  0  0  0  0  0  0  0  0  0  0
   -4.1626    0.8630    0.7827 H   0  0  0  0  0  0  0  0  0  0  0  0
   -1.3306    0.0680   -0.0097 C   0  0  0  0  0  0  0  0  0  0  0  0
   -2.7298   -1.1442   -0.6731 H   0  0  0  0  0  0  0  0  0  0  0  0
   -2.7006   -1.2959    0.9935 H   0  0  0  0  0  0  0  0  0  0  0  0
   -0.2122   -0.6530   -0.0092 C   0  0  0  0  0  0  0  0  0  0  0  0
   -1.3144    0.5486    0.8130 H   0  0  0  0  0  0  0  0  0  0  0  0
   -1.6481    0.7802   -0.9761 H   0  0  0  0  0  0  0  0  0  0  0  0
   -0.6952   -0.3611    0.5173 H   0  0  0  0  0  0  0  0  0  0  0  0
    0.7732    0.0203    0.6592 H   0  0  0  0  0  0  0  0  0  0  0  0
    0.1171   -1.7725   -1.1711 H   0  0  0  0  0  0  0  0  0  0  0  0
  1  3  1  0  0  0  0
  1  2  1  0  0  0  0
  1  5  1  0  0  0  0
  2  8  1  0  0  0  0
  4  1  1  0  0  0  0
  6 10  1  0  0  0  0
  7  2  1  0  0  0  0
  9 12  1  0  0  0  0
  9 13  1  0  0  0  0
 11  6  1  0  0  0  0
M  RAD  4   2   2   6   3   9   3  14   2
M  END
$$$$
