butane_opt
 OpenBabel08242015393D

 14 11  0  0  0  0  0  0  0  0999 V2000
   -3.9653    0.2544    0.0278 C   0  0  0  0  0  0  0  0  0  0  0  0
   -2.6951   -0.5961    0.1135 C   0  0  0  0  0  0  0  0  0  0  0  0
   -5.0047   -0.5026    0.0114 H   0  0  0  0  0  0  0  0  0  0  0  0
   -3.6639    0.9686   -1.0871 H   0  0  0  0  0  0  0  0  0  0  0  0
   -3.9762    0.4933    0.5528 H   0  0  0  0  0  0  0  0  0  0  0  0
   -1.4362    0.2271   -0.0014 C   0  0  0  0  0  0  0  0  0  0  0  0
   -2.7748   -0.9579   -0.7448 H   0  0  0  0  0  0  0  0  0  0  0  0
   -2.7583   -1.2184    0.9995 H   0  0  0  0  0  0  0  0  0  0  0  0
   -0.1158   -0.7184   -0.0173 C   0  0  0  0  0  0  0  0  0  0  0  0
   -1.2980    0.9127    0.8768 H   0  0  0  0  0  0  0  0  0  0  0  0
   -1.5129    0.8169   -0.8498 H   0  0  0  0  0  0  0  0  0  0  0  0
   -0.1439   -0.9186    0.6930 H   0  0  0  0  0  0  0  0  0  0  0  0
    0.6193   -0.3127    0.6865 H   0  0  0  0  0  0  0  0  0  0  0  0
    0.0513   -1.8266   -1.2064 H   0  0  0  0  0  0  0  0  0  0  0  0
  1  2  1  0  0  0  0
  2  8  1  0  0  0  0
  3  1  1  0  0  0  0
  4  1  1  0  0  0  0
  6  2  1  0  0  0  0
  6 10  1  0  0  0  0
  7  2  1  0  0  0  0
  9  6  1  0  0  0  0
  9 13  1  0  0  0  0
  9 12  1  0  0  0  0
 11  6  1  0  0  0  0
M  RAD  4   1   2   5   2   9   2  14   2
M  END
$$$$
