14
butane_opt
C  -3.877355   0.236593   0.170444
C  -2.715131  -0.531899  -0.015229
H  -4.850443  -0.394856  -0.655413
H  -3.756951   0.215309  -0.268173
H  -4.006313   1.509915   1.428627
C  -1.411338   0.152433  -0.195364
H  -2.817946  -1.427999  -1.088093
H  -2.744297  -1.043267   0.694541
C  -0.210096  -0.716468   0.136321
H  -1.647361   0.645634   0.472767
H  -1.380788   1.199110  -1.281166
H  -0.361591  -1.697404   1.332775
H   0.933790   0.101298   0.138114
H   0.148712  -1.271298  -0.412345
