butane_opt
 OpenBabel08242015393D

 14 13  0  0  0  0  0  0  0  0999 V2000
   -3.9528    0.2740    0.0515 C   0  0  0  0  0  0  0  0  0  0  0  0
   -2.7080   -0.6244   -0.0033 C   0  0  0  0  0  0  0  0  0  0  0  0
   -4.8999   -0.3421    0.1476 H   0  0  0  0  0  0  0  0  0  0  0  0
   -4.0342    0.9019   -0.8283 H   0  0  0  0  0  0  0  0  0  0  0  0
   -3.9589    0.9487    0.9035 H   0  0  0  0  0  0  0  0  0  0  0  0
   -1.3885    0.1725   -0.0264 C   0  0  0  0  0  0  0  0  0  0  0  0
   -2.7361   -1.2983   -0.8584 H   0  0  0  0  0  0  0  0  0  0  0  0
   -2.6837   -1.1989    0.8655 H   0  0  0  0  0  0  0  0  0  0  0  0
   -0.1558   -0.6861    0.0573 C   0  0  0  0  0  0  0  0  0  0  0  0
   -1.4108    0.8499    0.8378 H   0  0  0  0  0  0  0  0  0  0  0  0
   -1.3372    0.8023   -0.9105 H   0  0  0  0  0  0  0  0  0  0  0  0
   -0.1981   -1.3555    1.0011 H   0  0  0  0  0  0  0  0  0  0  0  0
    0.7490   -0.0860    0.0891 H   0  0  0  0  0  0  0  0  0  0  0  0
   -0.0534   -1.3323   -0.7553 H   0  0  0  0  0  0  0  0  0  0  0  0
  1  3  1  0  0  0  0
  1  5  1  0  0  0  0
  2  1  1  0  0  0  0
  2  8  1  0  0  0  0
  4  1  1  0  0  0  0
  6  2  1  0  0  0  0
  6  9  1  0  0  0  0
  6 10  1  0  0  0  0
  7  2  1  0  0  0  0
  9 13  1  0  0  0  0
  9 12  1  0  0  0  0
 11  6  1  0  0  0  0
 14  9  1  0  0  0  0
M  END
$$$$
