14
butane_opt
C  -3.925361   0.255464   0.041332
C  -2.699303  -0.609418   0.013099
H  -4.855162  -0.382582  -0.065115
H  -3.952742   0.779139  -0.787052
H  -3.922926   1.022228   0.994359
C  -1.416964   0.203797  -0.013983
H  -2.751394  -1.276010  -0.820476
H  -2.698818  -1.247590   0.895702
C  -0.160237  -0.702588   0.056972
H  -1.454932   0.831712   0.784814
H  -1.405831   0.874472  -0.934748
H  -0.134940  -1.370913   1.006722
H   0.727849  -0.149932  -0.011433
H  -0.145402  -1.325381  -0.783023
