butane_opt
 OpenBabel08242015393D

 14 13  0  0  0  0  0  0  0  0999 V2000
   -3.9455    0.2755   -0.0080 C   0  0  0  0  0  0  0  0  0  0  0  0
   -2.6987   -0.6190    0.0736 C   0  0  0  0  0  0  0  0  0  0  0  0
   -4.8373   -0.3213   -0.0972 H   0  0  0  0  0  0  0  0  0  0  0  0
   -3.9207    0.8569   -0.8848 H   0  0  0  0  0  0  0  0  0  0  0  0
   -4.0836    0.9636    0.8760 H   0  0  0  0  0  0  0  0  0  0  0  0
   -1.3888    0.1680    0.0321 C   0  0  0  0  0  0  0  0  0  0  0  0
   -2.6960   -1.2310   -0.7408 H   0  0  0  0  0  0  0  0  0  0  0  0
   -2.7521   -1.2990    1.0304 H   0  0  0  0  0  0  0  0  0  0  0  0
   -0.1645   -0.6891    0.0054 C   0  0  0  0  0  0  0  0  0  0  0  0
   -1.3797    0.8801    0.8872 H   0  0  0  0  0  0  0  0  0  0  0  0
   -1.4178    0.7417   -0.8301 H   0  0  0  0  0  0  0  0  0  0  0  0
   -0.1624   -1.2444    0.8801 H   0  0  0  0  0  0  0  0  0  0  0  0
    0.7753   -0.0740   -0.0440 H   0  0  0  0  0  0  0  0  0  0  0  0
   -0.1771   -1.3670   -0.8797 H   0  0  0  0  0  0  0  0  0  0  0  0
  1  2  1  0  0  0  0
  1  5  1  0  0  0  0
  2  8  1  0  0  0  0
  3  1  1  0  0  0  0
  4  1  1  0  0  0  0
  6  2  1  0  0  0  0
  6 10  1  0  0  0  0
  7  2  1  0  0  0  0
  9  6  1  0  0  0  0
  9 12  1  0  0  0  0
 11  6  1  0  0  0  0
 13  9  1  0  0  0  0
 14  9  1  0  0  0  0
M  END
$$$$
