14
butane_opt
C  -3.928202   0.207572   0.154522
C  -2.782339  -0.558149  -0.190524
H  -4.972330  -0.623561   0.762460
H  -4.355113   0.668579  -0.492054
H  -3.549610   1.086621   1.115627
C  -1.457440   0.261465  -0.193586
H  -2.891041  -1.245224  -1.067583
H  -2.488218  -1.096920   0.638541
C  -0.041785  -0.768727   0.224578
H  -1.715185   0.836243   0.699517
H  -1.397023   1.049705  -1.174637
H  -0.238229  -1.459770   1.304619
H   0.867520  -0.047714   0.323936
H   0.250899  -1.383707  -0.592882
