14
butane_opt
C  -3.961595   0.275999  -0.009455
C  -2.700458  -0.635282   0.070710
H  -4.851056  -0.280300   0.084013
H  -3.958311   0.972732  -0.939889
H  -4.016760   0.899474   0.833573
C  -1.385591   0.177280   0.028129
H  -2.714234  -1.278597  -0.761143
H  -2.747014  -1.316854   1.003683
C  -0.158689  -0.686318   0.013808
H  -1.366556   0.853279   0.860257
H  -1.402678   0.849377  -0.870043
H  -0.163993  -1.145807   0.808281
H   0.802037  -0.064526   0.143407
H  -0.137100  -1.537540  -0.978651
