14
butane_opt
C  -3.938503   0.262403  -0.003704
C  -2.643348  -0.601407  -0.036408
H  -4.930198  -0.448740   0.503010
H  -4.006802   1.074054  -1.016603
H  -3.680670   0.791087   0.785663
C  -1.451362   0.186477   0.066970
H  -2.493634  -1.124324  -0.742151
H  -2.679191  -1.321621   0.909900
C  -0.198386  -0.721427   0.031048
H  -1.218833   0.826031   0.995361
H  -1.444803   0.559538  -0.756785
H  -0.133719  -1.174437   0.880140
H   0.679001   0.061040  -0.171494
H  -0.320368  -1.206587  -0.635777
