14
butane_opt
C  -3.926274   0.347220  -0.167151
C  -2.777473  -0.738579   0.172676
H  -4.698106  -0.129703  -0.027811
H  -3.988052   0.884144  -1.137838
H  -4.404879   0.987818   0.585830
C  -1.370152   0.187524   0.297770
H  -2.303963  -1.335699  -0.619253
H  -2.990159  -1.328749   1.086773
C  -0.147027  -0.665327  -0.138353
H  -1.101176   0.779185   1.112525
H  -1.525008   0.680499  -0.649250
H   0.335359  -1.481092   0.891990
H   0.946562   0.085824  -0.776466
H  -0.679911  -1.125679  -0.922955
