14
butane_opt
C  -3.889572   0.261963   0.065439
C  -2.672883  -0.625141  -0.059862
H  -4.764391  -0.302660   0.516261
H  -4.210404   1.312489  -1.047382
H  -3.708531   0.804687   0.897404
C  -1.384527   0.160594   0.015564
H  -2.702135  -1.423707  -1.094769
H  -2.499575  -1.197443   0.735895
C  -0.243638  -0.675535   0.078996
H  -1.464648   0.687157   0.789730
H  -1.147808   0.925425  -0.992308
H  -0.246551  -1.314476   1.043166
H   0.522248  -0.005388   0.139552
H  -0.474893  -1.425993  -0.780084
