butane_opt
 OpenBabel08242015393D

 14 11  0  0  0  0  0  0  0  0999 V2000
   -3.9475    0.3221   -0.1855 C   0  0  0  0  0  0  0  0  0  0  0  0
   -2.6480   -0.6625    0.2437 C   0  0  0  0  0  0  0  0  0  0  0  0
   -4.8540   -0.1802   -0.3988 H   0  0  0  0  0  0  0  0  0  0  0  0
   -3.5201    0.6651   -0.9756 H   0  0  0  0  0  0  0  0  0  0  0  0
   -4.4599    1.0043    0.7021 H   0  0  0  0  0  0  0  0  0  0  0  0
   -1.3910    0.1034    0.2256 C   0  0  0  0  0  0  0  0  0  0  0  0
   -2.5597   -1.1123   -0.4313 H   0  0  0  0  0  0  0  0  0  0  0  0
   -2.6045   -1.5928    1.4927 H   0  0  0  0  0  0  0  0  0  0  0  0
   -0.1924   -0.6317   -0.1383 C   0  0  0  0  0  0  0  0  0  0  0  0
   -1.4749    0.7947    1.1168 H   0  0  0  0  0  0  0  0  0  0  0  0
   -1.6134    0.9283   -0.8396 H   0  0  0  0  0  0  0  0  0  0  0  0
   -0.0691   -0.9894    0.5036 H   0  0  0  0  0  0  0  0  0  0  0  0
    0.9480    0.0686   -0.1742 H   0  0  0  0  0  0  0  0  0  0  0  0
   -0.6993   -1.6229   -1.3100 H   0  0  0  0  0  0  0  0  0  0  0  0
  1  2  1  0  0  0  0
  1  5  1  0  0  0  0
  3  1  1  0  0  0  0
  4  1  1  0  0  0  0
  6  2  1  0  0  0  0
  6 10  1  0  0  0  0
  7  2  1  0  0  0  0
  9  6  1  0  0  0  0
  9 12  1  0  0  0  0
 11  6  1  0  0  0  0
 13  9  1  0  0  0  0
M  RAD  4   2   2   8   2   9   2  14   2
M  END
$$$$
