14
butane_opt
C  -4.019598   0.302734   0.233634
C  -2.686976  -0.711191  -0.219067
H  -4.868915  -0.113881   0.660698
H  -4.386664   1.156436  -0.697442
H  -3.847329   0.985811   1.025780
C  -1.398735   0.169053  -0.219231
H  -2.785280  -1.560275  -1.175584
H  -2.426982  -1.167880   0.617675
C  -0.123292  -0.605982   0.214625
H  -1.148850   0.539627   0.579188
H  -1.221778   0.603207  -1.035734
H  -0.583419  -1.295496   1.398989
H   0.674256  -0.185951   0.497862
H   0.303939  -1.268996  -0.552317
