butane_opt
 OpenBabel08242015393D

 14 11  0  0  0  0  0  0  0  0999 V2000
   -4.0415    0.3196   -0.0324 C   0  0  0  0  0  1  0  0  0  0  0  0
   -2.6871   -0.6933    0.0173 C   0  0  0  0  0  0  0  0  0  0  0  0
   -4.7473   -0.1232    0.7337 H   0  0  0  0  0  0  0  0  0  0  0  0
   -4.6201    1.5783   -1.2661 H   0  0  0  0  0  0  0  0  0  0  0  0
   -3.6262    0.4371    0.3625 H   0  0  0  0  0  0  0  0  0  0  0  0
   -1.3454    0.0400    0.1090 C   0  0  0  0  0  0  0  0  0  0  0  0
   -2.7741   -1.1799   -0.8808 H   0  0  0  0  0  0  0  0  0  0  0  0
   -2.5397   -1.3552    0.9190 H   0  0  0  0  0  0  0  0  0  0  0  0
   -0.1215   -0.6034    0.0085 C   0  0  0  0  0  0  0  0  0  0  0  0
   -1.5167    1.1006    1.1838 H   0  0  0  0  0  0  0  0  0  0  0  0
   -1.3277    0.6803   -0.7763 H   0  0  0  0  0  0  0  0  0  0  0  0
   -0.0384   -0.9433    0.7750 H   0  0  0  0  0  0  0  0  0  0  0  0
    0.7527    0.0813    0.0715 H   0  0  0  0  0  0  0  0  0  0  0  0
   -0.2872   -1.4953   -1.0334 H   0  0  0  0  0  0  0  0  0  0  0  0
  1  3  1  0  0  0  0
  2  6  1  0  0  0  0
  2  5  1  0  0  0  0
  2  8  1  0  0  0  0
  6 10  1  0  0  0  0
  7  2  1  0  0  0  0
  9 13  1  0  0  0  0
  9  6  1  0  0  0  0
  9 12  1  0  0  0  0
 11  6  1  0  0  0  0
 14  9  1  0  0  0  0
M  RAD  1   4   2
M  END
$$$$
