butane_opt
 OpenBabel08242015393D

 14 12  0  0  0  0  0  0  0  0999 V2000
   -3.9252    0.2231    0.0898 C   0  0  0  0  0  0  0  0  0  0  0  0
   -2.7054   -0.6291   -0.0683 C   0  0  0  0  0  0  0  0  0  0  0  0
   -4.7341   -0.3140    0.1735 H   0  0  0  0  0  0  0  0  0  0  0  0
   -4.0986    0.9259   -0.8642 H   0  0  0  0  0  0  0  0  0  0  0  0
   -3.9389    0.8669    0.9625 H   0  0  0  0  0  0  0  0  0  0  0  0
   -1.4681    0.2882   -0.0191 C   0  0  0  0  0  0  0  0  0  0  0  0
   -2.8352   -1.3579   -1.1093 H   0  0  0  0  0  0  0  0  0  0  0  0
   -2.6801   -1.2672    0.8385 H   0  0  0  0  0  0  0  0  0  0  0  0
   -0.1422   -0.7491    0.0544 C   0  0  0  0  0  0  0  0  0  0  0  0
   -1.6380    1.1450    0.9674 H   0  0  0  0  0  0  0  0  0  0  0  0
   -1.1881    0.7936   -0.8190 H   0  0  0  0  0  0  0  0  0  0  0  0
    0.1114   -1.8402    1.3680 H   0  0  0  0  0  0  0  0  0  0  0  0
    0.9321    0.0505   -0.1906 H   0  0  0  0  0  0  0  0  0  0  0  0
   -0.0760   -1.0447   -0.5466 H   0  0  0  0  0  0  0  0  0  0  0  0
  1  3  1  0  0  0  0
  1  5  1  0  0  0  0
  2  6  1  0  0  0  0
  2  1  1  0  0  0  0
  2  8  1  0  0  0  0
  4  1  1  0  0  0  0
  6  9  1  0  0  0  0
  6 10  1  0  0  0  0
  7  2  1  0  0  0  0
 11  6  1  0  0  0  0
 13  9  1  0  0  0  0
 14  9  1  0  0  0  0
M  RAD  2   9   2  12   2
M  END
$$$$
