14
butane_opt
C  -3.884239   0.172611  -0.161022
C  -2.650706  -0.572717   0.287554
H  -4.820492  -0.320509  -0.736610
H  -3.330840   0.734633  -0.975682
H  -4.452006   1.098073   0.801555
C  -1.449658   0.249289   0.146001
H  -2.822338  -0.814106  -0.209541
H  -2.788646  -1.346802   1.417091
C  -0.196352  -0.730043  -0.188086
H  -1.355935   1.004134   1.154519
H  -1.842377   0.688754  -0.628989
H  -0.006841  -1.192977   0.660232
H   0.718569  -0.204991   0.194202
H  -0.144713  -1.588009  -1.247217
