butane_opt
 OpenBabel08242015393D

 14 13  0  0  0  0  0  0  0  0999 V2000
   -3.8257    0.2278    0.1167 C   0  0  0  0  0  0  0  0  0  0  0  0
   -2.7555   -0.5746    0.0001 C   0  0  0  0  0  0  0  0  0  0  0  0
   -4.9039   -0.5540   -0.0300 H   0  0  0  0  0  0  0  0  0  0  0  0
   -3.5872    0.6311   -0.6706 H   0  0  0  0  0  0  0  0  0  0  0  0
   -4.0942    1.1020    1.0578 H   0  0  0  0  0  0  0  0  0  0  0  0
   -1.4433    0.2811   -0.1298 C   0  0  0  0  0  0  0  0  0  0  0  0
   -3.0304   -1.4025   -0.8879 H   0  0  0  0  0  0  0  0  0  0  0  0
   -2.5597   -1.1984    0.8159 H   0  0  0  0  0  0  0  0  0  0  0  0
   -0.1679   -0.7515    0.1153 C   0  0  0  0  0  0  0  0  0  0  0  0
   -1.5529    0.6713    0.5778 H   0  0  0  0  0  0  0  0  0  0  0  0
   -1.5012    1.2036   -1.1994 H   0  0  0  0  0  0  0  0  0  0  0  0
   -0.3356   -1.1716    0.7623 H   0  0  0  0  0  0  0  0  0  0  0  0
    0.6287   -0.3474    0.5666 H   0  0  0  0  0  0  0  0  0  0  0  0
    0.2498   -1.6244   -0.7676 H   0  0  0  0  0  0  0  0  0  0  0  0
  1  5  1  0  0  0  0
  2  1  1  0  0  0  0
  2  8  1  0  0  0  0
  3  1  1  0  0  0  0
  4  1  1  0  0  0  0
  6  2  1  0  0  0  0
  6  9  1  0  0  0  0
  6 10  1  0  0  0  0
  7  2  1  0  0  0  0
  9 13  1  0  0  0  0
  9 12  1  0  0  0  0
 11  6  1  0  0  0  0
 14  9  1  0  0  0  0
M  END
$$$$
