butane_opt
 OpenBabel08242015393D

 14 13  0  0  0  0  0  0  0  0999 V2000
   -3.9961    0.2181    0.1216 C   0  0  0  0  0  0  0  0  0  0  0  0
   -2.7016   -0.5710    0.0195 C   0  0  0  0  0  0  0  0  0  0  0  0
   -5.0429   -0.6986   -0.1105 H   0  0  0  0  0  0  0  0  0  0  0  0
   -3.8225    0.6534   -0.6602 H   0  0  0  0  0  0  0  0  0  0  0  0
   -3.9643    1.1461    1.1693 H   0  0  0  0  0  0  0  0  0  0  0  0
   -1.3844    0.2460   -0.1778 C   0  0  0  0  0  0  0  0  0  0  0  0
   -2.8325   -1.2288   -0.9084 H   0  0  0  0  0  0  0  0  0  0  0  0
   -2.4098   -0.9937    0.8375 H   0  0  0  0  0  0  0  0  0  0  0  0
   -0.1082   -0.7446    0.1404 C   0  0  0  0  0  0  0  0  0  0  0  0
   -1.7021    0.8477    0.4669 H   0  0  0  0  0  0  0  0  0  0  0  0
   -1.3483    0.9096   -1.1835 H   0  0  0  0  0  0  0  0  0  0  0  0
   -0.5165   -1.0629    0.9002 H   0  0  0  0  0  0  0  0  0  0  0  0
    0.6404   -0.2647    0.4501 H   0  0  0  0  0  0  0  0  0  0  0  0
    0.3303   -1.6370   -0.8025 H   0  0  0  0  0  0  0  0  0  0  0  0
  1  5  1  0  0  0  0
  2  1  1  0  0  0  0
  2  8  1  0  0  0  0
  3  1  1  0  0  0  0
  4  1  1  0  0  0  0
  6  2  1  0  0  0  0
  6  9  1  0  0  0  0
  6 10  1  0  0  0  0
  7  2  1  0  0  0  0
  9 13  1  0  0  0  0
  9 12  1  0  0  0  0
 11  6  1  0  0  0  0
 14  9  1  0  0  0  0
M  END
$$$$
