butane_opt
 OpenBabel08242015393D

 14 13  0  0  0  0  0  0  0  0999 V2000
   -3.9263    0.3472   -0.1672 C   0  0  0  0  0  0  0  0  0  0  0  0
   -2.7775   -0.7386    0.1727 C   0  0  0  0  0  0  0  0  0  0  0  0
   -4.6981   -0.1297   -0.0278 H   0  0  0  0  0  0  0  0  0  0  0  0
   -3.9881    0.8841   -1.1378 H   0  0  0  0  0  0  0  0  0  0  0  0
   -4.4049    0.9878    0.5858 H   0  0  0  0  0  0  0  0  0  0  0  0
   -1.3702    0.1875    0.2978 C   0  0  0  0  0  0  0  0  0  0  0  0
   -2.3040   -1.3357   -0.6193 H   0  0  0  0  0  0  0  0  0  0  0  0
   -2.9902   -1.3287    1.0868 H   0  0  0  0  0  0  0  0  0  0  0  0
   -0.1470   -0.6653   -0.1384 C   0  0  0  0  0  0  0  0  0  0  0  0
   -1.1012    0.7792    1.1125 H   0  0  0  0  0  0  0  0  0  0  0  0
   -1.5250    0.6805   -0.6492 H   0  0  0  0  0  0  0  0  0  0  0  0
    0.3354   -1.4811    0.8920 H   0  0  0  0  0  0  0  0  0  0  0  0
    0.9466    0.0858   -0.7765 H   0  0  0  0  0  0  0  0  0  0  0  0
   -0.6799   -1.1257   -0.9230 H   0  0  0  0  0  0  0  0  0  0  0  0
  1  3  1  0  0  0  0
  1  2  1  0  0  0  0
  1  5  1  0  0  0  0
  2  6  1  0  0  0  0
  2  8  1  0  0  0  0
  4  1  1  0  0  0  0
  6 10  1  0  0  0  0
  7  2  1  0  0  0  0
  9  6  1  0  0  0  0
  9 12  1  0  0  0  0
 11  6  1  0  0  0  0
 13  9  1  0  0  0  0
 14  9  1  0  0  0  0
M  END
$$$$
