14
butane_opt
C  -3.924457   0.209327   0.154397
C  -2.664429  -0.504166  -0.132990
H  -5.040437  -0.498590  -0.176177
H  -3.783401   0.338103  -0.571501
H  -3.839003   1.006943   1.083231
C  -1.463739   0.231651  -0.075031
H  -2.856727  -1.217970  -1.074309
H  -2.419690  -1.176061   0.768928
C  -0.187671  -0.762305   0.162761
H  -1.362818   1.026064   0.699495
H  -1.341671   0.855845  -0.997272
H  -0.033602  -1.831833   1.458712
H   0.704232  -0.117730  -0.599182
H  -0.131885  -0.995287  -0.410075
