butane_opt
 OpenBabel08242015393D

 14 13  0  0  0  0  0  0  0  0999 V2000
   -3.9247    0.3034    0.1262 C   0  0  0  0  0  0  0  0  0  0  0  0
   -2.6881   -0.6643   -0.1225 C   0  0  0  0  0  0  0  0  0  0  0  0
   -4.8800   -0.3796    0.7490 H   0  0  0  0  0  0  0  0  0  0  0  0
   -4.1567    1.1599   -0.8401 H   0  0  0  0  0  0  0  0  0  0  0  0
   -3.6425    0.7685    0.9602 H   0  0  0  0  0  0  0  0  0  0  0  0
   -1.4513    0.1182   -0.1027 C   0  0  0  0  0  0  0  0  0  0  0  0
   -2.4618   -1.3584   -0.9935 H   0  0  0  0  0  0  0  0  0  0  0  0
   -2.6791   -0.8828    0.5536 H   0  0  0  0  0  0  0  0  0  0  0  0
   -0.1396   -0.6429    0.1857 C   0  0  0  0  0  0  0  0  0  0  0  0
   -1.5706    0.5723    0.6994 H   0  0  0  0  0  0  0  0  0  0  0  0
   -1.2301    0.9664   -1.0996 H   0  0  0  0  0  0  0  0  0  0  0  0
   -0.4840   -1.2065    0.9065 H   0  0  0  0  0  0  0  0  0  0  0  0
    0.8776    0.0323    0.2254 H   0  0  0  0  0  0  0  0  0  0  0  0
   -0.3511   -1.5141   -0.7732 H   0  0  0  0  0  0  0  0  0  0  0  0
  1  3  1  0  0  0  0
  1  5  1  0  0  0  0
  2  6  1  0  0  0  0
  2  1  1  0  0  0  0
  2  8  1  0  0  0  0
  4  1  1  0  0  0  0
  6  9  1  0  0  0  0
  6 10  1  0  0  0  0
  7  2  1  0  0  0  0
  9 13  1  0  0  0  0
  9 12  1  0  0  0  0
 11  6  1  0  0  0  0
 14  9  1  0  0  0  0
M  END
$$$$
