14
butane_opt
C  -3.933334   0.265060   0.145753
C  -2.697513  -0.650055  -0.213829
H  -4.699581  -0.104647   0.389317
H  -4.290466   0.863725  -0.668045
H  -3.837555   1.337025   1.201242
C  -1.359498   0.122625  -0.039646
H  -2.680174  -1.540540  -1.153711
H  -2.649116  -1.004759   0.592773
C  -0.235864  -0.672565   0.173867
H  -1.270822   0.700855   0.834668
H  -1.368721   1.056336  -1.214522
H  -0.011270  -1.902148   1.497707
H   0.883510   0.183073  -0.501240
H  -0.414386  -0.794285  -0.221961
