butane_opt
 OpenBabel08242015393D

 14 10  0  0  0  0  0  0  0  0999 V2000
   -3.9178    0.2326    0.1183 C   0  0  0  0  0  0  0  0  0  0  0  0
   -2.7496   -0.6058   -0.0716 C   0  0  0  0  0  0  0  0  0  0  0  0
   -4.6989   -0.3616   -0.0199 H   0  0  0  0  0  0  0  0  0  0  0  0
   -4.0613    0.3757   -0.4050 H   0  0  0  0  0  0  0  0  0  0  0  0
   -3.8467    1.2434    1.3834 H   0  0  0  0  0  0  0  0  0  0  0  0
   -1.4353    0.2656   -0.1892 C   0  0  0  0  0  0  0  0  0  0  0  0
   -3.0354   -1.0738   -0.7882 H   0  0  0  0  0  0  0  0  0  0  0  0
   -2.7863   -1.2483    0.8500 H   0  0  0  0  0  0  0  0  0  0  0  0
   -0.0867   -0.7186    0.1901 C   0  0  0  0  0  0  0  0  0  0  0  0
   -1.4954    0.7758    0.3571 H   0  0  0  0  0  0  0  0  0  0  0  0
   -1.4541    1.0033   -1.1291 H   0  0  0  0  0  0  0  0  0  0  0  0
   -0.4060   -1.2895    1.1849 H   0  0  0  0  0  0  0  0  0  0  0  0
    0.7519   -0.2921    0.3512 H   0  0  0  0  0  0  0  0  0  0  0  0
    0.2825   -1.7220   -0.9033 H   0  0  0  0  0  0  0  0  0  0  0  0
  2  1  1  0  0  0  0
  2  8  1  0  0  0  0
  3  1  1  0  0  0  0
  6  2  1  0  0  0  0
  6  9  1  0  0  0  0
  6 10  1  0  0  0  0
  7  2  1  0  0  0  0
  9 13  1  0  0  0  0
  9 12  1  0  0  0  0
 11  6  1  0  0  0  0
M  RAD  5   1   3   4   2   5   2   9   2  14   2
M  END
$$$$
