butane_opt
 OpenBabel08242015393D

 14 10  0  0  0  0  0  0  0  0999 V2000
   -3.8899    0.3071    0.1206 C   0  0  0  0  0  0  0  0  0  0  0  0
   -2.6824   -0.6565   -0.0436 C   0  0  0  0  0  0  0  0  0  0  0  0
   -4.8436   -0.1707   -0.2283 H   0  0  0  0  0  0  0  0  0  0  0  0
   -3.8311    0.5522   -0.6447 H   0  0  0  0  0  0  0  0  0  0  0  0
   -3.9739    1.2623    1.1000 H   0  0  0  0  0  0  0  0  0  0  0  0
   -1.3759    0.1082   -0.0534 C   0  0  0  0  0  0  0  0  0  0  0  0
   -2.6346   -1.6504   -1.0571 H   0  0  0  0  0  0  0  0  0  0  0  0
   -2.6909   -0.7243    0.4894 H   0  0  0  0  0  0  0  0  0  0  0  0
   -0.2771   -0.6325    0.1282 C   0  0  0  0  0  0  0  0  0  0  0  0
   -1.3289    0.6293    0.7379 H   0  0  0  0  0  0  0  0  0  0  0  0
   -1.5355    0.8257   -1.0662 H   0  0  0  0  0  0  0  0  0  0  0  0
   -0.0652   -1.8907    1.4276 H   0  0  0  0  0  0  0  0  0  0  0  0
    0.6742    0.0025   -0.6837 H   0  0  0  0  0  0  0  0  0  0  0  0
   -0.1581   -0.7938   -0.3570 H   0  0  0  0  0  0  0  0  0  0  0  0
  1  5  1  0  0  0  0
  2  1  1  0  0  0  0
  3  1  1  0  0  0  0
  4  1  1  0  0  0  0
  6  2  1  0  0  0  0
  6  9  1  0  0  0  0
  6 10  1  0  0  0  0
  7  2  1  0  0  0  0
 11  6  1  0  0  0  0
 13  9  1  0  0  0  0
M  RAD  5   2   2   8   2   9   3  12   2  14   2
M  END
$$$$
