14
butane_opt
C  -4.050025   0.345620  -0.078957
C  -2.681350  -0.726388   0.053138
H  -4.962124  -0.241137   0.323872
H  -4.368675   1.439350  -1.351725
H  -3.881263   0.529018   0.590340
C  -1.298696   0.129326   0.192222
H  -2.666311  -1.068666  -0.533965
H  -2.611943  -1.654841   0.968649
C  -0.177770  -0.629214  -0.063672
H  -1.374033   1.204004   1.322956
H  -1.254522   0.645744  -0.669548
H   0.069125  -1.295186   0.773443
H   0.788646  -0.011513  -0.197573
H  -0.309704  -1.417733  -1.108716
