butane_opt
 OpenBabel08242015393D

 14 13  0  0  0  0  0  0  0  0999 V2000
   -3.9458    0.2769    0.0333 C   0  0  0  0  0  0  0  0  0  0  0  0
   -2.6822   -0.6319    0.0361 C   0  0  0  0  0  0  0  0  0  0  0  0
   -4.8501   -0.3448   -0.0346 H   0  0  0  0  0  0  0  0  0  0  0  0
   -3.9614    0.7837   -0.8084 H   0  0  0  0  0  0  0  0  0  0  0  0
   -4.0170    1.0305    0.9330 H   0  0  0  0  0  0  0  0  0  0  0  0
   -1.4058    0.1791   -0.0171 C   0  0  0  0  0  0  0  0  0  0  0  0
   -2.7230   -1.3247   -0.8238 H   0  0  0  0  0  0  0  0  0  0  0  0
   -2.6478   -1.2042    0.8980 H   0  0  0  0  0  0  0  0  0  0  0  0
   -0.1784   -0.6858    0.0477 C   0  0  0  0  0  0  0  0  0  0  0  0
   -1.3383    0.8187    0.7924 H   0  0  0  0  0  0  0  0  0  0  0  0
   -1.3779    0.8535   -0.9282 H   0  0  0  0  0  0  0  0  0  0  0  0
   -0.1809   -1.3365    0.9680 H   0  0  0  0  0  0  0  0  0  0  0  0
    0.7598   -0.0682    0.0677 H   0  0  0  0  0  0  0  0  0  0  0  0
   -0.1387   -1.3435   -0.8092 H   0  0  0  0  0  0  0  0  0  0  0  0
  1  2  1  0  0  0  0
  1  5  1  0  0  0  0
  2  8  1  0  0  0  0
  3  1  1  0  0  0  0
  4  1  1  0  0  0  0
  6  2  1  0  0  0  0
  6  9  1  0  0  0  0
  6 10  1  0  0  0  0
  7  2  1  0  0  0  0
  9 13  1  0  0  0  0
  9 12  1  0  0  0  0
 11  6  1  0  0  0  0
 14  9  1  0  0  0  0
M  END
$$$$
