butane_opt
 OpenBabel08242015393D

 14 11  0  0  0  0  0  0  0  0999 V2000
   -3.9512    0.1886    0.1432 C   0  0  0  0  0  0  0  0  0  0  0  0
   -2.7086   -0.5231   -0.0831 C   0  0  0  0  0  0  0  0  0  0  0  0
   -5.1653   -0.7016    0.2372 H   0  0  0  0  0  0  0  0  0  0  0  0
   -4.0703    0.6534   -0.6678 H   0  0  0  0  0  0  0  0  0  0  0  0
   -4.0151    1.1571    1.1786 H   0  0  0  0  0  0  0  0  0  0  0  0
   -1.4034    0.2354   -0.1483 C   0  0  0  0  0  0  0  0  0  0  0  0
   -3.0013   -1.0597   -0.9709 H   0  0  0  0  0  0  0  0  0  0  0  0
   -2.4433   -1.1916    0.8754 H   0  0  0  0  0  0  0  0  0  0  0  0
   -0.1034   -0.7541    0.1782 C   0  0  0  0  0  0  0  0  0  0  0  0
   -1.6645    0.6899    0.4254 H   0  0  0  0  0  0  0  0  0  0  0  0
   -1.1891    1.1980   -1.3808 H   0  0  0  0  0  0  0  0  0  0  0  0
   -0.1979   -1.0628    0.8465 H   0  0  0  0  0  0  0  0  0  0  0  0
    0.5531   -0.1941    0.6410 H   0  0  0  0  0  0  0  0  0  0  0  0
    0.2639   -1.8265   -0.8427 H   0  0  0  0  0  0  0  0  0  0  0  0
  1  3  1  0  0  0  0
  1  5  1  0  0  0  0
  2  1  1  0  0  0  0
  2  8  1  0  0  0  0
  4  1  1  0  0  0  0
  6  2  1  0  0  0  0
  6  9  1  0  0  0  0
  6 10  1  0  0  0  0
  7  2  1  0  0  0  0
  9 13  1  0  0  0  0
  9 12  1  0  0  0  0
M  RAD  4   6   2   9   2  11   2  14   2
M  END
$$$$
