butane_opt
 OpenBabel08242015393D

 14 13  0  0  0  0  0  0  0  0999 V2000
   -4.0196    0.3027    0.2336 C   0  0  0  0  0  0  0  0  0  0  0  0
   -2.6870   -0.7112   -0.2191 C   0  0  0  0  0  0  0  0  0  0  0  0
   -4.8689   -0.1139    0.6607 H   0  0  0  0  0  0  0  0  0  0  0  0
   -4.3867    1.1564   -0.6974 H   0  0  0  0  0  0  0  0  0  0  0  0
   -3.8473    0.9858    1.0258 H   0  0  0  0  0  0  0  0  0  0  0  0
   -1.3987    0.1691   -0.2192 C   0  0  0  0  0  0  0  0  0  0  0  0
   -2.7853   -1.5603   -1.1756 H   0  0  0  0  0  0  0  0  0  0  0  0
   -2.4270   -1.1679    0.6177 H   0  0  0  0  0  0  0  0  0  0  0  0
   -0.1233   -0.6060    0.2146 C   0  0  0  0  0  0  0  0  0  0  0  0
   -1.1488    0.5396    0.5792 H   0  0  0  0  0  0  0  0  0  0  0  0
   -1.2218    0.6032   -1.0357 H   0  0  0  0  0  0  0  0  0  0  0  0
   -0.5834   -1.2955    1.3990 H   0  0  0  0  0  0  0  0  0  0  0  0
    0.6743   -0.1860    0.4979 H   0  0  0  0  0  0  0  0  0  0  0  0
    0.3039   -1.2690   -0.5523 H   0  0  0  0  0  0  0  0  0  0  0  0
  1  3  1  0  0  0  0
  1  5  1  0  0  0  0
  2  1  1  0  0  0  0
  2  8  1  0  0  0  0
  4  1  1  0  0  0  0
  6  2  1  0  0  0  0
  6  9  1  0  0  0  0
  6 10  1  0  0  0  0
  7  2  1  0  0  0  0
  9 13  1  0  0  0  0
  9 12  1  0  0  0  0
 11  6  1  0  0  0  0
 14  9  1  0  0  0  0
M  END
$$$$
