butane_opt
 OpenBabel08242015393D

 14 13  0  0  0  0  0  0  0  0999 V2000
   -3.9278    0.2581    0.0354 C   0  0  0  0  0  0  0  0  0  0  0  0
   -2.6944   -0.6158    0.0248 C   0  0  0  0  0  0  0  0  0  0  0  0
   -4.8715   -0.3480   -0.0491 H   0  0  0  0  0  0  0  0  0  0  0  0
   -3.8857    0.7884   -0.8234 H   0  0  0  0  0  0  0  0  0  0  0  0
   -3.9853    1.0317    0.9776 H   0  0  0  0  0  0  0  0  0  0  0  0
   -1.4181    0.1966   -0.0053 C   0  0  0  0  0  0  0  0  0  0  0  0
   -2.7167   -1.2860   -0.8152 H   0  0  0  0  0  0  0  0  0  0  0  0
   -2.7355   -1.2398    0.8930 H   0  0  0  0  0  0  0  0  0  0  0  0
   -0.1615   -0.6967    0.0538 C   0  0  0  0  0  0  0  0  0  0  0  0
   -1.4444    0.8317    0.7999 H   0  0  0  0  0  0  0  0  0  0  0  0
   -1.4010    0.8683   -0.9470 H   0  0  0  0  0  0  0  0  0  0  0  0
   -0.1120   -1.3611    0.9577 H   0  0  0  0  0  0  0  0  0  0  0  0
    0.7425   -0.1325   -0.0337 H   0  0  0  0  0  0  0  0  0  0  0  0
   -0.1887   -1.3340   -0.8050 H   0  0  0  0  0  0  0  0  0  0  0  0
  1  5  1  0  0  0  0
  2  1  1  0  0  0  0
  2  8  1  0  0  0  0
  3  1  1  0  0  0  0
  4  1  1  0  0  0  0
  6  2  1  0  0  0  0
  6  9  1  0  0  0  0
  6 10  1  0  0  0  0
  7  2  1  0  0  0  0
  9 12  1  0  0  0  0
 11  6  1  0  0  0  0
 13  9  1  0  0  0  0
 14  9  1  0  0  0  0
M  END
$$$$
