14
butane_opt
C  -3.971925   0.327131  -0.157688
C  -2.744903  -0.721413   0.162497
H  -4.756653  -0.110573   0.012187
H  -3.912613   1.395945  -1.295980
H  -4.220762   0.737546   0.462917
C  -1.339110   0.180639   0.309854
H  -2.645485  -1.450526  -0.634751
H  -2.945079  -1.366711   1.030098
C  -0.166289  -0.653641  -0.160566
H  -1.022292   0.907551   1.167087
H  -1.792939   0.505018  -0.413776
H   0.226459  -1.441578   0.941105
H   0.970801   0.011363  -0.798953
H  -0.336182  -1.158181  -0.880408
