14
butane_opt
C  -3.926116   0.222693   0.066444
C  -2.742199  -0.556183  -0.007754
H  -4.918949  -0.283946  -0.247590
H  -3.661297   0.007701  -0.355393
H  -3.808361   1.452309   1.288775
C  -1.414377   0.247708  -0.077252
H  -2.990512  -1.254433  -0.922511
H  -2.799569  -0.982799   0.713745
C  -0.145229  -0.715577   0.138263
H  -1.406203   0.551891   0.471442
H  -1.409817   1.015021  -1.275487
H   0.182544  -1.739491   1.267471
H   0.543151  -0.375487  -0.177974
H  -0.056517  -1.269486  -0.629867
