14
butane_opt
C  -3.924633   0.352101  -0.070877
C  -2.656755  -0.718182   0.213525
H  -4.776472  -0.199911  -0.133204
H  -3.669947   1.099969  -1.252714
H  -4.261638   0.636905   0.512235
C  -1.422821   0.131379   0.103852
H  -2.484324  -1.173979  -0.561902
H  -2.415736  -1.474091   1.027454
C  -0.273755  -0.621676  -0.076785
H  -1.116541   0.726477   1.011132
H  -1.599049   0.628989  -0.761863
H  -0.200540  -0.732614   0.525126
H   0.819598   0.202633   0.286699
H  -0.067244  -1.862526  -1.314873
