butane_opt
 OpenBabel08242015393D

 14 11  0  0  0  0  0  0  0  0999 V2000
   -3.9506    0.2240    0.1416 C   0  0  0  0  0  0  0  0  0  0  0  0
   -2.7425   -0.5451   -0.1846 C   0  0  0  0  0  0  0  0  0  0  0  0
   -5.0031   -0.6273    0.0967 H   0  0  0  0  0  0  0  0  0  0  0  0
   -4.1909    0.5658   -0.5975 H   0  0  0  0  0  0  0  0  0  0  0  0
   -3.8561    1.0729    1.2224 H   0  0  0  0  0  0  0  0  0  0  0  0
   -1.4648    0.2355   -0.0257 C   0  0  0  0  0  0  0  0  0  0  0  0
   -2.9868   -1.4306   -1.1344 H   0  0  0  0  0  0  0  0  0  0  0  0
   -2.5795   -1.0056    0.4404 H   0  0  0  0  0  0  0  0  0  0  0  0
   -0.0458   -0.7517    0.1582 C   0  0  0  0  0  0  0  0  0  0  0  0
   -1.5535    0.7680    0.8074 H   0  0  0  0  0  0  0  0  0  0  0  0
   -1.3001    1.1918   -1.0907 H   0  0  0  0  0  0  0  0  0  0  0  0
    0.3657   -2.0950    1.5369 H   0  0  0  0  0  0  0  0  0  0  0  0
    0.8654   -0.1075   -0.6437 H   0  0  0  0  0  0  0  0  0  0  0  0
   -0.3181   -0.7537   -0.1864 H   0  0  0  0  0  0  0  0  0  0  0  0
  1  5  1  0  0  0  0
  2  6  1  0  0  0  0
  2  1  1  0  0  0  0
  2  8  1  0  0  0  0
  3  1  1  0  0  0  0
  4  1  1  0  0  0  0
  6  9  1  0  0  0  0
  6 10  1  0  0  0  0
  7  2  1  0  0  0  0
 11  6  1  0  0  0  0
 13  9  1  0  0  0  0
M  RAD  3   9   3  12   2  14   2
M  END
$$$$
