butane_opt
 OpenBabel08242015393D

 14 13  0  0  0  0  0  0  0  0999 V2000
   -3.9397    0.2703   -0.0087 C   0  0  0  0  0  0  0  0  0  0  0  0
   -2.6803   -0.6279    0.0816 C   0  0  0  0  0  0  0  0  0  0  0  0
   -4.8636   -0.3140   -0.0394 H   0  0  0  0  0  0  0  0  0  0  0  0
   -3.8952    0.8994   -0.9242 H   0  0  0  0  0  0  0  0  0  0  0  0
   -4.0549    0.9597    0.8369 H   0  0  0  0  0  0  0  0  0  0  0  0
   -1.4046    0.1706    0.0342 C   0  0  0  0  0  0  0  0  0  0  0  0
   -2.6653   -1.2500   -0.7463 H   0  0  0  0  0  0  0  0  0  0  0  0
   -2.7577   -1.2550    0.9923 H   0  0  0  0  0  0  0  0  0  0  0  0
   -0.1747   -0.6804   -0.0003 C   0  0  0  0  0  0  0  0  0  0  0  0
   -1.3375    0.8376    0.8962 H   0  0  0  0  0  0  0  0  0  0  0  0
   -1.4357    0.7943   -0.8380 H   0  0  0  0  0  0  0  0  0  0  0  0
   -0.1855   -1.2435    0.8372 H   0  0  0  0  0  0  0  0  0  0  0  0
    0.7252   -0.0890    0.0471 H   0  0  0  0  0  0  0  0  0  0  0  0
   -0.1593   -1.4089   -0.9021 H   0  0  0  0  0  0  0  0  0  0  0  0
  1  2  1  0  0  0  0
  1  5  1  0  0  0  0
  2  8  1  0  0  0  0
  3  1  1  0  0  0  0
  4  1  1  0  0  0  0
  6  2  1  0  0  0  0
  6 10  1  0  0  0  0
  7  2  1  0  0  0  0
  9  6  1  0  0  0  0
  9 13  1  0  0  0  0
  9 12  1  0  0  0  0
 11  6  1  0  0  0  0
 14  9  1  0  0  0  0
M  END
$$$$
