butane_opt
 OpenBabel08242015393D

 14  9  0  0  0  0  0  0  0  0999 V2000
   -3.9814    0.2958   -0.1260 C   0  0  0  0  0  0  0  0  0  0  0  0
   -2.6730   -0.7333    0.2503 C   0  0  0  0  0  0  0  0  0  0  0  0
   -4.8345   -0.0898    0.0495 H   0  0  0  0  0  0  0  0  0  0  0  0
   -4.2661    1.1456   -1.2728 H   0  0  0  0  0  0  0  0  0  0  0  0
   -4.2540    0.8936    0.6894 H   0  0  0  0  0  0  0  0  0  0  0  0
   -1.4121    0.1894    0.0824 C   0  0  0  0  0  0  0  0  0  0  0  0
   -2.6392   -1.1612   -0.4199 H   0  0  0  0  0  0  0  0  0  0  0  0
   -2.7605   -1.5266    1.2710 H   0  0  0  0  0  0  0  0  0  0  0  0
   -0.1390   -0.6684   -0.1228 C   0  0  0  0  0  1  0  0  0  0  0  0
   -1.0768    1.1686    1.0747 H   0  0  0  0  0  0  0  0  0  0  0  0
   -1.3567    0.7036   -0.8140 H   0  0  0  0  0  0  0  0  0  0  0  0
   -0.6301   -0.7158    0.4292 H   0  0  0  0  0  0  0  0  0  0  0  0
    0.9987    0.0530    0.6162 H   0  0  0  0  0  0  0  0  0  0  0  0
    0.2690   -1.9438   -1.2842 H   0  0  0  0  0  0  0  0  0  0  0  0
  1  3  1  0  0  0  0
  1  2  1  0  0  0  0
  1  5  1  0  0  0  0
  2  8  1  0  0  0  0
  4  1  1  0  0  0  0
  6 10  1  0  0  0  0
  7  2  1  0  0  0  0
  9 12  1  0  0  0  0
 11  6  1  0  0  0  0
M  RAD  4   2   2   6   3  13   2  14   2
M  END
$$$$
