butane_opt
 OpenBabel08242015393D

 14 11  0  0  0  0  0  0  0  0999 V2000
   -3.9313    0.3735    0.1506 C   0  0  0  0  0  0  0  0  0  0  0  0
   -2.6791   -0.7615   -0.0389 C   0  0  0  0  0  0  0  0  0  0  0  0
   -4.7724   -0.2189   -0.6985 H   0  0  0  0  0  0  0  0  0  0  0  0
   -3.8890    0.3568   -0.3289 H   0  0  0  0  0  0  0  0  0  0  0  0
   -4.4894    1.5218    1.3458 H   0  0  0  0  0  0  0  0  0  0  0  0
   -1.3806    0.1513   -0.1532 C   0  0  0  0  0  0  0  0  0  0  0  0
   -2.9608   -1.2891   -0.8621 H   0  0  0  0  0  0  0  0  0  0  0  0
   -2.6131   -1.3168    0.7483 H   0  0  0  0  0  0  0  0  0  0  0  0
   -0.1872   -0.6255    0.1551 C   0  0  0  0  0  0  0  0  0  0  0  0
   -1.2871    0.6127    0.6255 H   0  0  0  0  0  0  0  0  0  0  0  0
   -1.4219    0.8084   -1.1737 H   0  0  0  0  0  0  0  0  0  0  0  0
   -0.3561   -1.5694    1.2989 H   0  0  0  0  0  0  0  0  0  0  0  0
    0.9246    0.0526   -0.1451 H   0  0  0  0  0  0  0  0  0  0  0  0
   -0.0720   -1.0575   -0.6542 H   0  0  0  0  0  0  0  0  0  0  0  0
  2  1  1  0  0  0  0
  2  8  1  0  0  0  0
  3  1  1  0  0  0  0
  6  2  1  0  0  0  0
  6  9  1  0  0  0  0
  6 10  1  0  0  0  0
  7  2  1  0  0  0  0
  9 12  1  0  0  0  0
 11  6  1  0  0  0  0
 13  9  1  0  0  0  0
 14  9  1  0  0  0  0
M  RAD  3   1   3   4   2   5   2
M  END
$$$$
