butane_opt
 OpenBabel08242015393D

 14 12  0  0  0  0  0  0  0  0999 V2000
   -3.8895    0.2216    0.1856 C   0  0  0  0  0  0  0  0  0  0  0  0
   -2.7126   -0.5376   -0.1143 C   0  0  0  0  0  0  0  0  0  0  0  0
   -5.1315   -0.5137    0.4017 H   0  0  0  0  0  0  0  0  0  0  0  0
   -3.9136    0.4881   -0.5650 H   0  0  0  0  0  0  0  0  0  0  0  0
   -3.6594    0.9029    1.0850 H   0  0  0  0  0  0  0  0  0  0  0  0
   -1.4289    0.2815   -0.2271 C   0  0  0  0  0  0  0  0  0  0  0  0
   -2.7442   -0.9082   -0.9408 H   0  0  0  0  0  0  0  0  0  0  0  0
   -2.6785   -1.2429    0.8183 H   0  0  0  0  0  0  0  0  0  0  0  0
   -0.1836   -0.7804    0.1904 C   0  0  0  0  0  0  0  0  0  0  0  0
   -1.6238    0.7377    0.4694 H   0  0  0  0  0  0  0  0  0  0  0  0
   -1.1488    0.9350   -1.1981 H   0  0  0  0  0  0  0  0  0  0  0  0
   -0.5957   -1.1507    1.0019 H   0  0  0  0  0  0  0  0  0  0  0  0
    0.7592   -0.1259    0.8537 H   0  0  0  0  0  0  0  0  0  0  0  0
    0.3280   -1.8894   -0.9044 H   0  0  0  0  0  0  0  0  0  0  0  0
  1  3  1  0  0  0  0
  1  5  1  0  0  0  0
  2  1  1  0  0  0  0
  2  8  1  0  0  0  0
  4  1  1  0  0  0  0
  6  2  1  0  0  0  0
  6  9  1  0  0  0  0
  6 10  1  0  0  0  0
  7  2  1  0  0  0  0
  9 13  1  0  0  0  0
  9 12  1  0  0  0  0
 11  6  1  0  0  0  0
M  RAD  2   9   2  14   2
M  END
$$$$
