14
butane_opt
C  -3.965632   0.266310   0.122123
C  -2.756606  -0.603321  -0.117015
H  -4.798522  -0.314621   0.036867
H  -3.918689   0.785908  -0.608334
H  -3.761127   1.113888   1.133038
C  -1.411640   0.183568  -0.061147
H  -2.740560  -1.488137  -1.082008
H  -2.839265  -1.055416   0.619487
C  -0.116052  -0.711268   0.113602
H  -1.344918   1.044057   0.963539
H  -1.319820   0.752111  -0.836505
H  -0.264098  -2.131457   1.574905
H   1.031666  -0.005678  -0.683943
H  -0.109371  -0.750427  -0.298994
