14
butane_opt
C  -3.941464   0.279359   0.043532
C  -2.703176  -0.622202   0.000285
H  -4.863751  -0.327036   0.184874
H  -4.004276   0.921044  -0.872332
H  -3.890923   0.898303   0.878207
C  -1.401007   0.160094  -0.017533
H  -2.696434  -1.313741  -0.873082
H  -2.632247  -1.236213   0.884232
C  -0.167737  -0.684431   0.054558
H  -1.342085   0.870152   0.882485
H  -1.385158   0.821636  -0.911775
H  -0.252655  -1.304794   0.972779
H   0.731032  -0.062387   0.096452
H  -0.126347  -1.336316  -0.771781
