14
butane_opt
C  -3.925183   0.223085   0.089758
C  -2.705445  -0.629096  -0.068334
H  -4.734064  -0.314040   0.173549
H  -4.098563   0.925917  -0.864175
H  -3.938895   0.866906   0.962507
C  -1.468116   0.288212  -0.019118
H  -2.835238  -1.357913  -1.109302
H  -2.680116  -1.267170   0.838498
C  -0.142179  -0.749128   0.054387
H  -1.638003   1.144966   0.967393
H  -1.188054   0.793580  -0.818988
H   0.111438  -1.840202   1.368011
H   0.932120   0.050521  -0.190599
H  -0.076004  -1.044686  -0.546577
