14
butane_opt
C  -4.029146   0.306293  -0.126229
C  -2.742186  -0.690350   0.106362
H  -4.902339  -0.241310  -0.083048
H  -3.918031   0.946990  -1.193282
H  -3.883334   0.971016   0.666467
C  -1.319922   0.203504   0.229698
H  -2.588757  -1.181823  -0.594869
H  -2.818672  -1.409979   1.054020
C  -0.133270  -0.683964  -0.065402
H  -1.211078   0.951881   1.322513
H  -1.575845   0.609700  -0.517108
H   0.408747  -1.540091   0.896477
H   0.614723  -0.100150  -1.021412
H  -0.498022  -1.065969  -0.816425
