butane_opt
 OpenBabel08242015393D

 14  7  0  0  0  0  0  0  0  0999 V2000
   -3.8824    0.3373    0.0921 C   0  0  0  0  0  0  0  0  0  0  0  0
   -2.7201   -0.7198   -0.1001 C   0  0  0  0  0  0  0  0  0  0  0  0
   -4.5821   -0.1354    0.0030 H   0  0  0  0  0  0  0  0  0  0  0  0
   -4.0772    0.4198   -0.4609 H   0  0  0  0  0  0  0  0  0  0  0  0
   -3.7989    1.3429    1.2766 H   0  0  0  0  0  0  0  0  0  0  0  0
   -1.4047    0.1501   -0.0840 C   0  0  0  0  0  0  0  0  0  0  0  0
   -2.3647   -1.2987   -0.9495 H   0  0  0  0  0  0  0  0  0  0  0  0
   -2.7876   -1.1772    0.6824 H   0  0  0  0  0  0  0  0  0  0  0  0
   -0.2519   -0.6673    0.1493 C   0  0  0  0  0 15  0  0  0  0  0  0
   -1.3962    0.9068    0.8148 H   0  0  0  0  0  0  0  0  0  0  0  0
   -1.2967    0.7103   -0.9474 H   0  0  0  0  0  0  0  0  0  0  0  0
   -0.1215   -1.7376    1.3181 H   0  0  0  0  0  0  0  0  0  0  0  0
    0.7926    0.1159   -0.6858 H   0  0  0  0  0  0  0  0  0  0  0  0
   -0.3338   -0.7714   -0.1908 H   0  0  0  0  0  0  0  0  0  0  0  0
  2  1  1  0  0  0  0
  2  8  1  0  0  0  0
  3  1  1  0  0  0  0
  6 10  1  0  0  0  0
  7  2  1  0  0  0  0
 11  6  1  0  0  0  0
 14  6  1  0  0  0  0
M  RAD  7   1   3   2   2   4   2   5   2   6   2  12   2  13   2
M  END
$$$$
