14
butane_opt
C  -3.952566   0.335211   0.195188
C  -2.648982  -0.740670  -0.193101
H  -4.599897  -0.063261   0.813297
H  -4.528206   1.246548  -0.706531
H  -3.615234   0.658821   0.841847
C  -1.378613   0.121253  -0.196966
H  -3.002970  -1.488268  -1.142689
H  -2.462335  -0.973313   0.552764
C  -0.226897  -0.654886   0.216006
H  -1.627048   1.033524   0.819113
H  -1.031914   0.599771  -1.001021
H  -0.623179  -1.280455   1.190656
H   0.748457   0.155133   0.230422
H   0.153563  -1.065629  -0.492749
