butane_opt
 OpenBabel08242015393D

 14 12  0  0  0  0  0  0  0  0999 V2000
   -3.8856    0.2522   -0.1079 C   0  0  0  0  0  0  0  0  0  0  0  0
   -2.6897   -0.6291    0.1317 C   0  0  0  0  0  0  0  0  0  0  0  0
   -4.8646   -0.4947   -0.2053 H   0  0  0  0  0  0  0  0  0  0  0  0
   -3.7267    1.0430   -1.2234 H   0  0  0  0  0  0  0  0  0  0  0  0
   -4.2043    0.4542    0.4465 H   0  0  0  0  0  0  0  0  0  0  0  0
   -1.4780    0.2547    0.2451 C   0  0  0  0  0  0  0  0  0  0  0  0
   -2.8143   -0.9757   -0.5206 H   0  0  0  0  0  0  0  0  0  0  0  0
   -2.8872   -1.2030    1.0464 H   0  0  0  0  0  0  0  0  0  0  0  0
   -0.1116   -0.7435   -0.1361 C   0  0  0  0  0  0  0  0  0  0  0  0
   -1.3116    1.3406    1.3692 H   0  0  0  0  0  0  0  0  0  0  0  0
   -1.7898    0.5457   -0.4432 H   0  0  0  0  0  0  0  0  0  0  0  0
    0.2064   -1.4791    0.9213 H   0  0  0  0  0  0  0  0  0  0  0  0
    0.7651   -0.2145   -0.8556 H   0  0  0  0  0  0  0  0  0  0  0  0
   -0.4021   -1.1139   -0.7185 H   0  0  0  0  0  0  0  0  0  0  0  0
  1  2  1  0  0  0  0
  1  5  1  0  0  0  0
  2  6  1  0  0  0  0
  2  8  1  0  0  0  0
  3  1  1  0  0  0  0
  4  1  1  0  0  0  0
  7  2  1  0  0  0  0
  9  6  1  0  0  0  0
  9 12  1  0  0  0  0
 11  6  1  0  0  0  0
 13  9  1  0  0  0  0
 14  9  1  0  0  0  0
M  RAD  2   6   2  10   2
M  END
$$$$
