14
butane_opt
C  -3.839846   0.182151   0.076892
C  -2.700932  -0.530446  -0.085260
H  -4.817296  -0.407832  -0.143885
H  -4.147384   0.474751  -0.525792
H  -3.530443   1.258126   1.103474
C  -1.451353   0.231651  -0.014872
H  -2.935511  -1.109953  -1.043839
H  -2.802642  -1.049101   0.690206
C  -0.189646  -0.779819   0.122245
H  -1.559599   0.905317   0.734161
H  -1.492883   0.900968  -0.848509
H   0.140749  -1.828197   1.261342
H   0.674033  -0.224449  -0.672332
H  -0.329119  -0.663697  -0.228188
