butane_opt
 OpenBabel08242015393D

 14 12  0  0  0  0  0  0  0  0999 V2000
   -3.8707    0.2064    0.1668 C   0  0  0  0  0  0  0  0  0  0  0  0
   -2.6939   -0.5525   -0.0995 C   0  0  0  0  0  0  0  0  0  0  0  0
   -4.7080   -0.3814    0.1931 H   0  0  0  0  0  0  0  0  0  0  0  0
   -3.8001    0.4900   -0.5336 H   0  0  0  0  0  0  0  0  0  0  0  0
   -3.7199    1.2307    1.3260 H   0  0  0  0  0  0  0  0  0  0  0  0
   -1.4301    0.2680   -0.2634 C   0  0  0  0  0  0  0  0  0  0  0  0
   -2.9770   -1.1391   -0.8563 H   0  0  0  0  0  0  0  0  0  0  0  0
   -2.8588   -1.3286    0.8878 H   0  0  0  0  0  0  0  0  0  0  0  0
   -0.1759   -0.7670    0.2366 C   0  0  0  0  0  0  0  0  0  0  0  0
   -1.7400    0.7373    0.5330 H   0  0  0  0  0  0  0  0  0  0  0  0
   -1.3932    0.9430   -1.2139 H   0  0  0  0  0  0  0  0  0  0  0  0
   -0.4652   -1.0410    0.7749 H   0  0  0  0  0  0  0  0  0  0  0  0
    0.6452   -0.2086    0.6342 H   0  0  0  0  0  0  0  0  0  0  0  0
    0.0540   -1.6253   -0.7697 H   0  0  0  0  0  0  0  0  0  0  0  0
  1  3  1  0  0  0  0
  2  1  1  0  0  0  0
  2  8  1  0  0  0  0
  4  1  1  0  0  0  0
  6  2  1  0  0  0  0
  6  9  1  0  0  0  0
  6 10  1  0  0  0  0
  7  2  1  0  0  0  0
  9 13  1  0  0  0  0
  9 12  1  0  0  0  0
 11  6  1  0  0  0  0
 14  9  1  0  0  0  0
M  RAD  2   1   2   5   2
M  END
$$$$
