butane_opt
 OpenBabel08242015393D

 14 13  0  0  0  0  0  0  0  0999 V2000
   -3.9282    0.2076    0.1545 C   0  0  0  0  0  0  0  0  0  0  0  0
   -2.7823   -0.5581   -0.1905 C   0  0  0  0  0  0  0  0  0  0  0  0
   -4.9723   -0.6236    0.7625 H   0  0  0  0  0  0  0  0  0  0  0  0
   -4.3551    0.6686   -0.4921 H   0  0  0  0  0  0  0  0  0  0  0  0
   -3.5496    1.0866    1.1156 H   0  0  0  0  0  0  0  0  0  0  0  0
   -1.4574    0.2615   -0.1936 C   0  0  0  0  0  0  0  0  0  0  0  0
   -2.8910   -1.2452   -1.0676 H   0  0  0  0  0  0  0  0  0  0  0  0
   -2.4882   -1.0969    0.6385 H   0  0  0  0  0  0  0  0  0  0  0  0
   -0.0418   -0.7687    0.2246 C   0  0  0  0  0  0  0  0  0  0  0  0
   -1.7152    0.8362    0.6995 H   0  0  0  0  0  0  0  0  0  0  0  0
   -1.3970    1.0497   -1.1746 H   0  0  0  0  0  0  0  0  0  0  0  0
   -0.2382   -1.4598    1.3046 H   0  0  0  0  0  0  0  0  0  0  0  0
    0.8675   -0.0477    0.3239 H   0  0  0  0  0  0  0  0  0  0  0  0
    0.2509   -1.3837   -0.5929 H   0  0  0  0  0  0  0  0  0  0  0  0
  1  3  1  0  0  0  0
  1  5  1  0  0  0  0
  2  1  1  0  0  0  0
  2  8  1  0  0  0  0
  4  1  1  0  0  0  0
  6  2  1  0  0  0  0
  6  9  1  0  0  0  0
  6 10  1  0  0  0  0
  7  2  1  0  0  0  0
  9 13  1  0  0  0  0
  9 12  1  0  0  0  0
 11  6  1  0  0  0  0
 14  9  1  0  0  0  0
M  END
$$$$
