14
butane_opt
C  -3.951472   0.332569  -0.172538
C  -2.675170  -0.643846   0.279125
H  -4.942631  -0.189780  -0.241232
H  -3.420500   0.868226  -0.967576
H  -4.150156   0.974311   0.691827
C  -1.403750   0.107459   0.133876
H  -2.672150  -1.374616  -0.586249
H  -2.711402  -1.487742   1.383293
C  -0.206356  -0.655080  -0.140604
H  -1.041047   0.816448   1.048876
H  -1.499123   0.706001  -0.586854
H  -0.372651  -0.934623   0.572458
H   0.808469   0.012674   0.110306
H  -0.218179  -1.550453  -1.206551
