14
butane_opt
C  -3.961754   0.307151   0.093498
C  -2.617263  -0.632985   0.029316
H  -4.955524  -0.358618   0.052203
H  -4.190167   0.877978  -0.821991
H  -3.885640   0.824907   0.848609
C  -1.405365   0.090212  -0.105300
H  -2.531402  -1.203684  -0.892718
H  -2.695447  -1.286488   0.904841
C  -0.216392  -0.654329   0.059225
H  -1.296830   0.940701   0.830376
H  -1.313718   0.853127  -1.047779
H  -0.649227  -0.999057   0.969245
H   0.714841   0.042024   0.618664
H   0.194766  -1.537650  -0.973939
