butane_opt
 OpenBabel08242015393D

 14 12  0  0  0  0  0  0  0  0999 V2000
   -3.9031    0.2120    0.2024 C   0  0  0  0  0  0  0  0  0  0  0  0
   -2.6528   -0.5891   -0.1037 C   0  0  0  0  0  0  0  0  0  0  0  0
   -4.9468   -0.5155    0.2216 H   0  0  0  0  0  0  0  0  0  0  0  0
   -3.9468    0.7744   -0.6428 H   0  0  0  0  0  0  0  0  0  0  0  0
   -3.5228    1.1883    1.2851 H   0  0  0  0  0  0  0  0  0  0  0  0
   -1.4802    0.2278   -0.2764 C   0  0  0  0  0  0  0  0  0  0  0  0
   -3.0166   -1.2486   -1.1503 H   0  0  0  0  0  0  0  0  0  0  0  0
   -2.4349   -1.2470    0.7806 H   0  0  0  0  0  0  0  0  0  0  0  0
   -0.1862   -0.7200    0.2490 C   0  0  0  0  0  0  0  0  0  0  0  0
   -1.5283    0.8148    0.4350 H   0  0  0  0  0  0  0  0  0  0  0  0
   -1.4395    1.0363   -1.2894 H   0  0  0  0  0  0  0  0  0  0  0  0
   -0.5996   -0.9901    1.0262 H   0  0  0  0  0  0  0  0  0  0  0  0
    0.6091   -0.1543    0.6949 H   0  0  0  0  0  0  0  0  0  0  0  0
    0.4855   -1.7515   -0.8151 H   0  0  0  0  0  0  0  0  0  0  0  0
  1  3  1  0  0  0  0
  1  5  1  0  0  0  0
  2  1  1  0  0  0  0
  2  8  1  0  0  0  0
  4  1  1  0  0  0  0
  6  2  1  0  0  0  0
  6  9  1  0  0  0  0
  6 10  1  0  0  0  0
  7  2  1  0  0  0  0
  9 13  1  0  0  0  0
  9 12  1  0  0  0  0
 11  6  1  0  0  0  0
M  RAD  2   9   2  14   2
M  END
$$$$
