butane_opt
 OpenBabel08242015393D

 14 10  0  0  0  0  0  0  0  0999 V2000
   -3.8807    0.2502    0.1578 C   0  0  0  0  0  0  0  0  0  0  0  0
   -2.7804   -0.5971   -0.0956 C   0  0  0  0  0  0  0  0  0  0  0  0
   -4.9175   -0.5941   -0.1912 H   0  0  0  0  0  0  0  0  0  0  0  0
   -3.8959    0.6829   -0.7249 H   0  0  0  0  0  0  0  0  0  0  0  0
   -4.0022    1.1499    1.0400 H   0  0  0  0  0  0  0  0  0  0  0  0
   -1.4128    0.2478   -0.0468 C   0  0  0  0  0  0  0  0  0  0  0  0
   -2.8882   -1.6028   -1.1249 H   0  0  0  0  0  0  0  0  0  0  0  0
   -2.8082   -0.8769    0.3691 H   0  0  0  0  0  0  0  0  0  0  0  0
   -0.1073   -0.7372    0.1452 C   0  0  0  0  0  1  0  0  0  0  0  0
   -1.6361    0.9579    0.8409 H   0  0  0  0  0  0  0  0  0  0  0  0
   -1.3049    1.0493   -1.0402 H   0  0  0  0  0  0  0  0  0  0  0  0
    0.3891   -2.2024    1.4899 H   0  0  0  0  0  0  0  0  0  0  0  0
    0.7398   -0.2081   -0.7378 H   0  0  0  0  0  0  0  0  0  0  0  0
   -0.5168   -0.7940   -0.3014 H   0  0  0  0  0  0  0  0  0  0  0  0
  1  5  1  0  0  0  0
  2  6  1  0  0  0  0
  2  1  1  0  0  0  0
  3  1  1  0  0  0  0
  4  1  1  0  0  0  0
  6 10  1  0  0  0  0
  7  2  1  0  0  0  0
 11  6  1  0  0  0  0
 13  9  1  0  0  0  0
 14  6  1  0  0  0  0
M  RAD  3   2   2   8   2  12   2
M  END
$$$$
