butane_opt
 OpenBabel08242015393D

 14 13  0  0  0  0  0  0  0  0999 V2000
   -3.9946    0.2721   -0.0915 C   0  0  0  0  0  0  0  0  0  0  0  0
   -2.7330   -0.6618    0.1954 C   0  0  0  0  0  0  0  0  0  0  0  0
   -4.9388   -0.3872   -0.4920 H   0  0  0  0  0  0  0  0  0  0  0  0
   -3.8146    0.9163   -0.9589 H   0  0  0  0  0  0  0  0  0  0  0  0
   -4.0889    1.1196    0.8194 H   0  0  0  0  0  0  0  0  0  0  0  0
   -1.4085    0.1611    0.0731 C   0  0  0  0  0  0  0  0  0  0  0  0
   -2.7197   -1.0179   -0.4044 H   0  0  0  0  0  0  0  0  0  0  0  0
   -2.4128   -1.5312    1.2253 H   0  0  0  0  0  0  0  0  0  0  0  0
   -0.1021   -0.6482   -0.0723 C   0  0  0  0  0  0  0  0  0  0  0  0
   -1.3249    1.2994    1.0564 H   0  0  0  0  0  0  0  0  0  0  0  0
   -1.3857    0.7024   -0.7613 H   0  0  0  0  0  0  0  0  0  0  0  0
   -0.0921   -1.2830    0.7388 H   0  0  0  0  0  0  0  0  0  0  0  0
    0.8113   -0.2052    0.0919 H   0  0  0  0  0  0  0  0  0  0  0  0
   -0.1973   -1.6093   -1.1766 H   0  0  0  0  0  0  0  0  0  0  0  0
  1  2  1  0  0  0  0
  1  5  1  0  0  0  0
  2  8  1  0  0  0  0
  3  1  1  0  0  0  0
  4  1  1  0  0  0  0
  6  2  1  0  0  0  0
  6 10  1  0  0  0  0
  7  2  1  0  0  0  0
  9  6  1  0  0  0  0
  9 13  1  0  0  0  0
  9 12  1  0  0  0  0
 11  6  1  0  0  0  0
 14  9  1  0  0  0  0
M  END
$$$$
