butane_opt
 OpenBabel08242015393D

 14 12  0  0  0  0  0  0  0  0999 V2000
   -3.9718    0.3173    0.0669 C   0  0  0  0  0  0  0  0  0  0  0  0
   -2.6617   -0.7160   -0.0729 C   0  0  0  0  0  0  0  0  0  0  0  0
   -4.8340   -0.1484   -0.0898 H   0  0  0  0  0  0  0  0  0  0  0  0
   -3.8906    0.5512   -0.5456 H   0  0  0  0  0  0  0  0  0  0  0  0
   -4.2348    1.1991    1.2111 H   0  0  0  0  0  0  0  0  0  0  0  0
   -1.4304    0.1975   -0.0222 C   0  0  0  0  0  0  0  0  0  0  0  0
   -2.5947   -1.2305   -0.7953 H   0  0  0  0  0  0  0  0  0  0  0  0
   -2.8438   -1.3977    0.7297 H   0  0  0  0  0  0  0  0  0  0  0  0
   -0.1257   -0.6440    0.0996 C   0  0  0  0  0  0  0  0  0  0  0  0
   -1.4962    0.8460    0.8311 H   0  0  0  0  0  0  0  0  0  0  0  0
   -1.1958    0.6414   -0.8299 H   0  0  0  0  0  0  0  0  0  0  0  0
    0.0230   -1.8399    1.4206 H   0  0  0  0  0  0  0  0  0  0  0  0
    0.7517    0.0333   -0.6208 H   0  0  0  0  0  0  0  0  0  0  0  0
   -0.4705   -0.9608   -0.6340 H   0  0  0  0  0  0  0  0  0  0  0  0
  1  5  1  0  0  0  0
  2  6  1  0  0  0  0
  2  1  1  0  0  0  0
  2  8  1  0  0  0  0
  3  1  1  0  0  0  0
  4  1  1  0  0  0  0
  6  9  1  0  0  0  0
  6 10  1  0  0  0  0
  7  2  1  0  0  0  0
 11  6  1  0  0  0  0
 13  9  1  0  0  0  0
 14  9  1  0  0  0  0
M  RAD  2   9   2  12   2
M  END
$$$$
