butane_opt
 OpenBabel08242015393D

 14 12  0  0  0  0  0  0  0  0999 V2000
   -3.9392    0.2334   -0.1208 C   0  0  0  0  0  0  0  0  0  0  0  0
   -2.6808   -0.5677    0.1575 C   0  0  0  0  0  0  0  0  0  0  0  0
   -4.9976   -0.4905   -0.0743 H   0  0  0  0  0  0  0  0  0  0  0  0
   -3.4945    0.8828   -1.1926 H   0  0  0  0  0  0  0  0  0  0  0  0
   -4.0392    0.8759    0.8071 H   0  0  0  0  0  0  0  0  0  0  0  0
   -1.3725    0.2499    0.2410 C   0  0  0  0  0  0  0  0  0  0  0  0
   -2.5381   -1.4804   -0.8950 H   0  0  0  0  0  0  0  0  0  0  0  0
   -2.9616   -1.1740    1.0166 H   0  0  0  0  0  0  0  0  0  0  0  0
   -0.2032   -0.7401   -0.1483 C   0  0  0  0  0  0  0  0  0  0  0  0
   -1.3946    1.0391    1.0959 H   0  0  0  0  0  0  0  0  0  0  0  0
   -1.6364    0.8479   -0.5339 H   0  0  0  0  0  0  0  0  0  0  0  0
    0.2007   -1.8366    1.1340 H   0  0  0  0  0  0  0  0  0  0  0  0
    0.6563   -0.2118   -0.7339 H   0  0  0  0  0  0  0  0  0  0  0  0
   -0.4479   -1.0239   -0.6608 H   0  0  0  0  0  0  0  0  0  0  0  0
  1  3  1  0  0  0  0
  1  2  1  0  0  0  0
  1  5  1  0  0  0  0
  2  6  1  0  0  0  0
  2  8  1  0  0  0  0
  4  1  1  0  0  0  0
  6 10  1  0  0  0  0
  7  2  1  0  0  0  0
  9  6  1  0  0  0  0
 11  6  1  0  0  0  0
 13  9  1  0  0  0  0
 14  9  1  0  0  0  0
M  RAD  2   9   2  12   2
M  END
$$$$
