butane_opt
 OpenBabel08242015393D

 14 11  0  0  0  0  0  0  0  0999 V2000
   -3.9615    0.2463   -0.1666 C   0  0  0  0  0  0  0  0  0  0  0  0
   -2.7188   -0.6079    0.1775 C   0  0  0  0  0  0  0  0  0  0  0  0
   -4.7572   -0.2863    0.2858 H   0  0  0  0  0  0  0  0  0  0  0  0
   -3.9890    1.1437   -1.4413 H   0  0  0  0  0  0  0  0  0  0  0  0
   -4.1537    0.5179    0.4278 H   0  0  0  0  0  0  0  0  0  0  0  0
   -1.4112    0.2750    0.2286 C   0  0  0  0  0  0  0  0  0  0  0  0
   -2.6490   -1.4335   -0.6702 H   0  0  0  0  0  0  0  0  0  0  0  0
   -2.8583   -1.3836    1.2352 H   0  0  0  0  0  0  0  0  0  0  0  0
   -0.0825   -0.7304   -0.1363 C   0  0  0  0  0  0  0  0  0  0  0  0
   -1.0240    1.2120    1.4164 H   0  0  0  0  0  0  0  0  0  0  0  0
   -1.7635    0.4431   -0.4104 H   0  0  0  0  0  0  0  0  0  0  0  0
    0.1247   -1.3673    0.7967 H   0  0  0  0  0  0  0  0  0  0  0  0
    0.6950   -0.2387   -0.4676 H   0  0  0  0  0  0  0  0  0  0  0  0
   -0.5214   -1.2340   -0.9647 H   0  0  0  0  0  0  0  0  0  0  0  0
  1  2  1  0  0  0  0
  1  3  1  0  0  0  0
  1  5  1  0  0  0  0
  2  6  1  0  0  0  0
  2  8  1  0  0  0  0
  7  2  1  0  0  0  0
  9  6  1  0  0  0  0
  9 12  1  0  0  0  0
 11  6  1  0  0  0  0
 13  9  1  0  0  0  0
 14  9  1  0  0  0  0
M  RAD  4   1   2   4   2   6   2  10   2
M  END
$$$$
