butane_opt
 OpenBabel08242015393D

 14 12  0  0  0  0  0  0  0  0999 V2000
   -3.9566    0.2647    0.0974 C   0  0  0  0  0  0  0  0  0  0  0  0
   -2.7774   -0.5574   -0.1431 C   0  0  0  0  0  0  0  0  0  0  0  0
   -4.8374   -0.4065    0.1025 H   0  0  0  0  0  0  0  0  0  0  0  0
   -4.1418    0.7217   -0.7081 H   0  0  0  0  0  0  0  0  0  0  0  0
   -3.9707    0.8372    0.8812 H   0  0  0  0  0  0  0  0  0  0  0  0
   -1.4333    0.1848    0.0231 C   0  0  0  0  0  0  0  0  0  0  0  0
   -2.9012   -1.3104   -1.0120 H   0  0  0  0  0  0  0  0  0  0  0  0
   -2.7319   -1.3198    0.8596 H   0  0  0  0  0  0  0  0  0  0  0  0
   -0.0642   -0.7158    0.1310 C   0  0  0  0  0  0  0  0  0  0  0  0
   -1.2733    1.0143    0.9149 H   0  0  0  0  0  0  0  0  0  0  0  0
   -1.1856    0.8376   -0.7999 H   0  0  0  0  0  0  0  0  0  0  0  0
    0.2119   -1.9097    1.2310 H   0  0  0  0  0  0  0  0  0  0  0  0
    0.8229   -0.1330   -0.7724 H   0  0  0  0  0  0  0  0  0  0  0  0
   -0.2314   -0.9106   -0.5262 H   0  0  0  0  0  0  0  0  0  0  0  0
  1  3  1  0  0  0  0
  1  5  1  0  0  0  0
  2  6  1  0  0  0  0
  2  1  1  0  0  0  0
  2  8  1  0  0  0  0
  4  1  1  0  0  0  0
  6  9  1  0  0  0  0
  6 10  1  0  0  0  0
  7  2  1  0  0  0  0
 11  6  1  0  0  0  0
 13  9  1  0  0  0  0
 14  9  1  0  0  0  0
M  RAD  2   9   2  12   2
M  END
$$$$
