14
butane_opt
C  -3.947488   0.322113  -0.185514
C  -2.647975  -0.662455   0.243703
H  -4.853968  -0.180218  -0.398798
H  -3.520136   0.665064  -0.975587
H  -4.459867   1.004316   0.702106
C  -1.391037   0.103385   0.225579
H  -2.559673  -1.112276  -0.431268
H  -2.604518  -1.592762   1.492727
C  -0.192367  -0.631711  -0.138257
H  -1.474865   0.794736   1.116815
H  -1.613449   0.928327  -0.839620
H  -0.069083  -0.989437   0.503636
H   0.947962   0.068612  -0.174180
H  -0.699335  -1.622909  -1.310028
