butane_opt
 OpenBabel08242015393D

 14 13  0  0  0  0  0  0  0  0999 V2000
   -4.0452    0.3218   -0.1409 C   0  0  0  0  0  0  0  0  0  0  0  0
   -2.7572   -0.6697    0.2762 C   0  0  0  0  0  0  0  0  0  0  0  0
   -4.8689   -0.3086   -0.7391 H   0  0  0  0  0  0  0  0  0  0  0  0
   -3.5125    0.6876   -0.9625 H   0  0  0  0  0  0  0  0  0  0  0  0
   -4.2466    1.2813    0.9384 H   0  0  0  0  0  0  0  0  0  0  0  0
   -1.3512    0.1229    0.1656 C   0  0  0  0  0  0  0  0  0  0  0  0
   -2.4255   -1.2061   -0.3559 H   0  0  0  0  0  0  0  0  0  0  0  0
   -2.7390   -1.3049    1.2219 H   0  0  0  0  0  0  0  0  0  0  0  0
   -0.1295   -0.6492   -0.1408 C   0  0  0  0  0  0  0  0  0  0  0  0
   -1.2527    0.6744    0.8384 H   0  0  0  0  0  0  0  0  0  0  0  0
   -1.2005    0.9905   -0.8347 H   0  0  0  0  0  0  0  0  0  0  0  0
    0.0078   -1.1250    0.6556 H   0  0  0  0  0  0  0  0  0  0  0  0
    0.8340   -0.0161   -0.0650 H   0  0  0  0  0  0  0  0  0  0  0  0
   -0.2625   -1.6584   -1.1896 H   0  0  0  0  0  0  0  0  0  0  0  0
  1  2  1  0  0  0  0
  1  5  1  0  0  0  0
  2  8  1  0  0  0  0
  3  1  1  0  0  0  0
  4  1  1  0  0  0  0
  6  2  1  0  0  0  0
  6 10  1  0  0  0  0
  7  2  1  0  0  0  0
  9 13  1  0  0  0  0
  9  6  1  0  0  0  0
  9 12  1  0  0  0  0
 11  6  1  0  0  0  0
 14  9  1  0  0  0  0
M  END
$$$$
