14
butane_opt
C  -3.923148   0.216304  -0.098155
C  -2.738823  -0.545670   0.222189
H  -4.730537  -0.331006  -0.161956
H  -3.548793   0.914638  -0.987502
H  -3.934933   0.610723   0.579400
C  -1.439400   0.262888   0.048269
H  -2.729884  -0.965484  -0.430779
H  -2.791369  -1.428116   1.316588
C  -0.158125  -0.771014  -0.055781
H  -1.181328   1.067977   0.905441
H  -1.561559   0.664734  -0.676169
H  -0.361910  -0.720862   0.318222
H   0.840374  -0.147298   0.373501
H   0.088972  -2.093552  -1.291795
