butane_opt
 OpenBabel08242015393D

 14 13  0  0  0  0  0  0  0  0999 V2000
   -3.9565    0.2744    0.0403 C   0  0  0  0  0  0  0  0  0  0  0  0
   -2.7002   -0.6246    0.0026 C   0  0  0  0  0  0  0  0  0  0  0  0
   -4.8432   -0.2931    0.0861 H   0  0  0  0  0  0  0  0  0  0  0  0
   -4.0315    0.8611   -0.8301 H   0  0  0  0  0  0  0  0  0  0  0  0
   -3.9625    0.9493    0.8964 H   0  0  0  0  0  0  0  0  0  0  0  0
   -1.3943    0.1683   -0.0076 C   0  0  0  0  0  0  0  0  0  0  0  0
   -2.7275   -1.2958   -0.8484 H   0  0  0  0  0  0  0  0  0  0  0  0
   -2.6948   -1.2529    0.8757 H   0  0  0  0  0  0  0  0  0  0  0  0
   -0.1584   -0.6842    0.0595 C   0  0  0  0  0  0  0  0  0  0  0  0
   -1.4242    0.8538    0.8337 H   0  0  0  0  0  0  0  0  0  0  0  0
   -1.3900    0.7870   -0.8981 H   0  0  0  0  0  0  0  0  0  0  0  0
   -0.0624   -1.3397    0.9954 H   0  0  0  0  0  0  0  0  0  0  0  0
    0.7734   -0.0539   -0.0281 H   0  0  0  0  0  0  0  0  0  0  0  0
   -0.1629   -1.2849   -0.7688 H   0  0  0  0  0  0  0  0  0  0  0  0
  1  3  1  0  0  0  0
  1  5  1  0  0  0  0
  2  1  1  0  0  0  0
  2  8  1  0  0  0  0
  4  1  1  0  0  0  0
  6  2  1  0  0  0  0
  6  9  1  0  0  0  0
  6 10  1  0  0  0  0
  7  2  1  0  0  0  0
  9 12  1  0  0  0  0
 11  6  1  0  0  0  0
 13  9  1  0  0  0  0
 14  9  1  0  0  0  0
M  END
$$$$
