14
butane_opt
C  -3.929650   0.240279  -0.074241
C  -2.774880  -0.558479   0.043205
H  -4.995201  -0.390006   0.712132
H  -4.206955   1.377848  -1.213498
H  -3.864840  -0.058724   0.273691
C  -1.395573   0.263239   0.167021
H  -3.063727  -1.022718  -0.735884
H  -2.725640  -1.342069   0.955717
C  -0.097210  -0.742720  -0.069614
H  -1.295945   1.290769   1.235117
H  -1.332327   0.568726  -0.403559
H  -0.005507  -1.338838   0.780324
H   0.641273  -0.396770  -0.119088
H   0.216478  -1.617522  -0.976221
