butane_opt
 OpenBabel08242015393D

 14 11  0  0  0  0  0  0  0  0999 V2000
   -4.0146    0.3017   -0.1082 C   0  0  0  0  0  0  0  0  0  0  0  0
   -2.7577   -0.6506    0.0706 C   0  0  0  0  0  0  0  0  0  0  0  0
   -4.8918   -0.2668    0.6931 H   0  0  0  0  0  0  0  0  0  0  0  0
   -4.2769    1.5881   -1.3014 H   0  0  0  0  0  0  0  0  0  0  0  0
   -3.8737    0.6070    0.4806 H   0  0  0  0  0  0  0  0  0  0  0  0
   -1.3570    0.0727    0.1615 C   0  0  0  0  0  0  0  0  0  0  0  0
   -2.4480   -1.1701   -0.5508 H   0  0  0  0  0  0  0  0  0  0  0  0
   -2.6334   -1.4389    1.0316 H   0  0  0  0  0  0  0  0  0  0  0  0
   -0.1070   -0.6159   -0.0671 C   0  0  0  0  0  0  0  0  0  0  0  0
   -1.3482    1.2065    1.3819 H   0  0  0  0  0  0  0  0  0  0  0  0
   -1.0439    0.5178   -0.5327 H   0  0  0  0  0  0  0  0  0  0  0  0
   -0.1742   -1.2241    0.8064 H   0  0  0  0  0  0  0  0  0  0  0  0
    0.7904   -0.0658   -0.2263 H   0  0  0  0  0  0  0  0  0  0  0  0
   -0.2930   -1.5187   -1.1268 H   0  0  0  0  0  0  0  0  0  0  0  0
  1  2  1  0  0  0  0
  1  5  1  0  0  0  0
  1  3  1  0  0  0  0
  2  6  1  0  0  0  0
  2  8  1  0  0  0  0
  7  2  1  0  0  0  0
  9  6  1  0  0  0  0
  9 12  1  0  0  0  0
 11  6  1  0  0  0  0
 13  9  1  0  0  0  0
 14  9  1  0  0  0  0
M  RAD  4   1   2   4   2   6   2  10   2
M  END
$$$$
