butane_opt
 OpenBabel08242015393D

 14 13  0  0  0  0  0  0  0  0999 V2000
   -3.9326    0.2680    0.0235 C   0  0  0  0  0  0  0  0  0  0  0  0
   -2.6919   -0.6240    0.0246 C   0  0  0  0  0  0  0  0  0  0  0  0
   -4.8452   -0.3137    0.0569 H   0  0  0  0  0  0  0  0  0  0  0  0
   -3.9872    0.8701   -0.8574 H   0  0  0  0  0  0  0  0  0  0  0  0
   -3.9974    0.9686    0.9056 H   0  0  0  0  0  0  0  0  0  0  0  0
   -1.4080    0.1833    0.0116 C   0  0  0  0  0  0  0  0  0  0  0  0
   -2.7125   -1.3408   -0.8545 H   0  0  0  0  0  0  0  0  0  0  0  0
   -2.7164   -1.1757    0.8592 H   0  0  0  0  0  0  0  0  0  0  0  0
   -0.1704   -0.6927    0.0435 C   0  0  0  0  0  0  0  0  0  0  0  0
   -1.3457    0.8631    0.8669 H   0  0  0  0  0  0  0  0  0  0  0  0
   -1.4207    0.7716   -0.8888 H   0  0  0  0  0  0  0  0  0  0  0  0
   -0.1382   -1.4165    1.0013 H   0  0  0  0  0  0  0  0  0  0  0  0
    0.7818   -0.0714   -0.1250 H   0  0  0  0  0  0  0  0  0  0  0  0
   -0.2065   -1.2345   -0.7420 H   0  0  0  0  0  0  0  0  0  0  0  0
  1  2  1  0  0  0  0
  1  3  1  0  0  0  0
  1  5  1  0  0  0  0
  2  8  1  0  0  0  0
  4  1  1  0  0  0  0
  6  2  1  0  0  0  0
  6  9  1  0  0  0  0
  6 10  1  0  0  0  0
  7  2  1  0  0  0  0
  9 12  1  0  0  0  0
 11  6  1  0  0  0  0
 13  9  1  0  0  0  0
 14  9  1  0  0  0  0
M  END
$$$$
