butane_opt
 OpenBabel08242015393D

 14 12  0  0  0  0  0  0  0  0999 V2000
   -3.9589    0.3357   -0.0742 C   0  0  0  0  0  0  0  0  0  0  0  0
   -2.6776   -0.7039    0.2125 C   0  0  0  0  0  0  0  0  0  0  0  0
   -4.7070   -0.3207   -0.5283 H   0  0  0  0  0  0  0  0  0  0  0  0
   -3.6550    0.8880   -0.8672 H   0  0  0  0  0  0  0  0  0  0  0  0
   -4.3462    1.1476    0.8974 H   0  0  0  0  0  0  0  0  0  0  0  0
   -1.3984    0.0639    0.0563 C   0  0  0  0  0  0  0  0  0  0  0  0
   -2.3736   -1.0355   -0.4872 H   0  0  0  0  0  0  0  0  0  0  0  0
   -2.7527   -1.2983    1.1420 H   0  0  0  0  0  0  0  0  0  0  0  0
   -0.2019   -0.6356   -0.0934 C   0  0  0  0  0  0  0  0  0  0  0  0
   -1.3301    0.9179    1.0589 H   0  0  0  0  0  0  0  0  0  0  0  0
   -1.6628    0.6851   -0.7558 H   0  0  0  0  0  0  0  0  0  0  0  0
   -0.4736   -1.0473    0.6954 H   0  0  0  0  0  0  0  0  0  0  0  0
    1.0455    0.3328    0.0375 H   0  0  0  0  0  0  0  0  0  0  0  0
    0.0087   -1.4408   -0.9778 H   0  0  0  0  0  0  0  0  0  0  0  0
  1  2  1  0  0  0  0
  1  5  1  0  0  0  0
  2  8  1  0  0  0  0
  3  1  1  0  0  0  0
  4  1  1  0  0  0  0
  6  2  1  0  0  0  0
  6 10  1  0  0  0  0
  7  2  1  0  0  0  0
  9  6  1  0  0  0  0
  9 12  1  0  0  0  0
 11  6  1  0  0  0  0
 14  9  1  0  0  0  0
M  RAD  2   9   2  13   2
M  END
$$$$
