butane_opt
 OpenBabel08242015393D

 14 11  0  0  0  0  0  0  0  0999 V2000
   -3.8398    0.1822    0.0769 C   0  0  0  0  0  0  0  0  0  0  0  0
   -2.7009   -0.5304   -0.0853 C   0  0  0  0  0  0  0  0  0  0  0  0
   -4.8173   -0.4078   -0.1439 H   0  0  0  0  0  0  0  0  0  0  0  0
   -4.1474    0.4748   -0.5258 H   0  0  0  0  0  0  0  0  0  0  0  0
   -3.5304    1.2581    1.1035 H   0  0  0  0  0  0  0  0  0  0  0  0
   -1.4514    0.2317   -0.0149 C   0  0  0  0  0  0  0  0  0  0  0  0
   -2.9355   -1.1100   -1.0438 H   0  0  0  0  0  0  0  0  0  0  0  0
   -2.8026   -1.0491    0.6902 H   0  0  0  0  0  0  0  0  0  0  0  0
   -0.1896   -0.7798    0.1222 C   0  0  0  0  0  1  0  0  0  0  0  0
   -1.5596    0.9053    0.7342 H   0  0  0  0  0  0  0  0  0  0  0  0
   -1.4929    0.9010   -0.8485 H   0  0  0  0  0  0  0  0  0  0  0  0
    0.1407   -1.8282    1.2613 H   0  0  0  0  0  0  0  0  0  0  0  0
    0.6740   -0.2244   -0.6723 H   0  0  0  0  0  0  0  0  0  0  0  0
   -0.3291   -0.6637   -0.2282 H   0  0  0  0  0  0  0  0  0  0  0  0
  1  5  1  0  0  0  0
  2  6  1  0  0  0  0
  2  1  1  0  0  0  0
  2  8  1  0  0  0  0
  3  1  1  0  0  0  0
  4  1  1  0  0  0  0
  6 10  1  0  0  0  0
  7  2  1  0  0  0  0
 11  6  1  0  0  0  0
 13  9  1  0  0  0  0
 14  6  1  0  0  0  0
M  RAD  1  12   2
M  END
$$$$
