14
butane_opt
C  -3.960472   0.258559   0.050609
C  -2.708920  -0.605908   0.023562
H  -4.857909  -0.328128   0.068151
H  -3.973811   0.829052  -0.829341
H  -3.915779   0.942934   0.932563
C  -1.410189   0.188490  -0.042845
H  -2.752984  -1.315863  -0.877174
H  -2.675075  -1.218188   0.884600
C  -0.141458  -0.696517   0.061410
H  -1.409536   0.843067   0.771216
H  -1.343803   0.853538  -0.949498
H  -0.190253  -1.277898   0.957720
H   0.754110  -0.113239   0.204530
H  -0.009888  -1.427563  -0.836656
