butane_opt
 OpenBabel08242015393D

 14 13  0  0  0  0  0  0  0  0999 V2000
   -3.9518    0.3063    0.2121 C   0  0  0  0  0  0  0  0  0  0  0  0
   -2.6440   -0.6658   -0.1457 C   0  0  0  0  0  0  0  0  0  0  0  0
   -4.7779   -0.1386    0.3821 H   0  0  0  0  0  0  0  0  0  0  0  0
   -4.5451    1.0420   -0.8049 H   0  0  0  0  0  0  0  0  0  0  0  0
   -3.8133    0.8427    1.0161 H   0  0  0  0  0  0  0  0  0  0  0  0
   -1.3823    0.0805   -0.2027 C   0  0  0  0  0  0  0  0  0  0  0  0
   -3.0043   -1.3779   -1.2606 H   0  0  0  0  0  0  0  0  0  0  0  0
   -2.1980   -1.1199    0.5119 H   0  0  0  0  0  0  0  0  0  0  0  0
   -0.2038   -0.6007    0.2170 C   0  0  0  0  0  0  0  0  0  0  0  0
   -1.6290    0.8039    0.6454 H   0  0  0  0  0  0  0  0  0  0  0  0
   -1.2870    0.6805   -1.0742 H   0  0  0  0  0  0  0  0  0  0  0  0
   -0.5188   -1.4312    1.2536 H   0  0  0  0  0  0  0  0  0  0  0  0
    0.9458    0.1558    0.3690 H   0  0  0  0  0  0  0  0  0  0  0  0
   -0.0398   -1.3394   -0.6107 H   0  0  0  0  0  0  0  0  0  0  0  0
  1  3  1  0  0  0  0
  1  5  1  0  0  0  0
  2  1  1  0  0  0  0
  2  8  1  0  0  0  0
  4  1  1  0  0  0  0
  6  2  1  0  0  0  0
  6  9  1  0  0  0  0
  6 10  1  0  0  0  0
  7  2  1  0  0  0  0
  9 13  1  0  0  0  0
  9 12  1  0  0  0  0
 11  6  1  0  0  0  0
 14  9  1  0  0  0  0
M  END
$$$$
