14
butane_opt
C  -3.880650   0.250196   0.157822
C  -2.780365  -0.597103  -0.095567
H  -4.917482  -0.594073  -0.191224
H  -3.895933   0.682857  -0.724894
H  -4.002227   1.149874   1.039952
C  -1.412752   0.247794  -0.046825
H  -2.888167  -1.602787  -1.124904
H  -2.808237  -0.876881   0.369125
C  -0.107296  -0.737152   0.145214
H  -1.636137   0.957945   0.840853
H  -1.304921   1.049282  -1.040248
H   0.389070  -2.202399   1.489851
H   0.739820  -0.208096  -0.737816
H  -0.516828  -0.793961  -0.301400
