14
butane_opt
C  -3.945243   0.264481  -0.020782
C  -2.694417  -0.610591   0.068709
H  -4.839019  -0.287579  -0.004897
H  -4.001272   0.861281  -0.915952
H  -3.959319   0.914429   0.820532
C  -1.402551   0.174187   0.058074
H  -2.640847  -1.266167  -0.747807
H  -2.739100  -1.271700   0.965793
C  -0.169049  -0.692727  -0.005687
H  -1.398372   0.910838   0.942876
H  -1.416737   0.736547  -0.794420
H  -0.066456  -1.350138   0.925476
H   0.786301  -0.053858  -0.132535
H  -0.221161  -1.278262  -0.819918
