14
butane_opt
C  -3.939073   0.206662   0.150291
C  -2.667951  -0.576693  -0.074422
H  -5.066831  -0.451962  -0.596224
H  -3.831491  -0.065291  -0.223881
H  -4.330520   1.732953   1.519536
C  -1.405485   0.256316  -0.174333
H  -3.040879  -1.100630  -0.950123
H  -2.599642  -1.377878   0.968642
C  -0.136670  -0.730575   0.179559
H  -1.589058   0.827335   0.530617
H  -1.228435   1.113442  -1.348482
H   0.024690  -1.597081   1.210665
H   0.470311  -0.448461  -0.059143
H   0.037440  -1.063893  -0.472280
