butane_opt
 OpenBabel08242015393D

 14 11  0  0  0  0  0  0  0  0999 V2000
   -4.0323    0.3247    0.0596 C   0  0  0  0  0  0  0  0  0  0  0  0
   -2.7338   -0.6218   -0.0087 C   0  0  0  0  0  0  0  0  0  0  0  0
   -4.8381   -0.3186    0.2723 H   0  0  0  0  0  0  0  0  0  0  0  0
   -4.3064    0.9897   -0.8318 H   0  0  0  0  0  0  0  0  0  0  0  0
   -3.7458    0.7884    0.8691 H   0  0  0  0  0  0  0  0  0  0  0  0
   -1.3571    0.1154   -0.1045 C   0  0  0  0  0  0  0  0  0  0  0  0
   -2.7362   -1.2519   -0.8293 H   0  0  0  0  0  0  0  0  0  0  0  0
   -2.4896   -1.6025    1.1740 H   0  0  0  0  0  0  0  0  0  0  0  0
   -0.1072   -0.6416    0.1000 C   0  0  0  0  0  0  0  0  0  0  0  0
   -1.3945    0.8444    0.7764 H   0  0  0  0  0  0  0  0  0  0  0  0
   -1.0443    0.6822   -1.0219 H   0  0  0  0  0  0  0  0  0  0  0  0
   -0.3728   -0.7684    0.7087 H   0  0  0  0  0  0  0  0  0  0  0  0
    0.7087   -0.0860    0.6409 H   0  0  0  0  0  0  0  0  0  0  0  0
   -0.0391   -1.8584   -0.9747 H   0  0  0  0  0  0  0  0  0  0  0  0
  1  3  1  0  0  0  0
  1  5  1  0  0  0  0
  2  1  1  0  0  0  0
  4  1  1  0  0  0  0
  6  2  1  0  0  0  0
  6  9  1  0  0  0  0
  6 10  1  0  0  0  0
  7  2  1  0  0  0  0
  9 13  1  0  0  0  0
  9 12  1  0  0  0  0
 11  6  1  0  0  0  0
M  RAD  4   2   2   8   2   9   2  14   2
M  END
$$$$
