butane_opt
 OpenBabel08242015393D

 14 13  0  0  0  0  0  0  0  0999 V2000
   -3.9618    0.3072    0.0935 C   0  0  0  0  0  0  0  0  0  0  0  0
   -2.6173   -0.6330    0.0293 C   0  0  0  0  0  0  0  0  0  0  0  0
   -4.9555   -0.3586    0.0522 H   0  0  0  0  0  0  0  0  0  0  0  0
   -4.1902    0.8780   -0.8220 H   0  0  0  0  0  0  0  0  0  0  0  0
   -3.8856    0.8249    0.8486 H   0  0  0  0  0  0  0  0  0  0  0  0
   -1.4054    0.0902   -0.1053 C   0  0  0  0  0  0  0  0  0  0  0  0
   -2.5314   -1.2037   -0.8927 H   0  0  0  0  0  0  0  0  0  0  0  0
   -2.6954   -1.2865    0.9048 H   0  0  0  0  0  0  0  0  0  0  0  0
   -0.2164   -0.6543    0.0592 C   0  0  0  0  0  0  0  0  0  0  0  0
   -1.2968    0.9407    0.8304 H   0  0  0  0  0  0  0  0  0  0  0  0
   -1.3137    0.8531   -1.0478 H   0  0  0  0  0  0  0  0  0  0  0  0
   -0.6492   -0.9991    0.9692 H   0  0  0  0  0  0  0  0  0  0  0  0
    0.7148    0.0420    0.6187 H   0  0  0  0  0  0  0  0  0  0  0  0
    0.1948   -1.5376   -0.9739 H   0  0  0  0  0  0  0  0  0  0  0  0
  1  5  1  0  0  0  0
  2  1  1  0  0  0  0
  2  8  1  0  0  0  0
  3  1  1  0  0  0  0
  4  1  1  0  0  0  0
  6  2  1  0  0  0  0
  6  9  1  0  0  0  0
  6 10  1  0  0  0  0
  7  2  1  0  0  0  0
  9 13  1  0  0  0  0
  9 12  1  0  0  0  0
 11  6  1  0  0  0  0
 14  9  1  0  0  0  0
M  END
$$$$
