butane_opt
 OpenBabel08242015393D

 14 13  0  0  0  0  0  0  0  0999 V2000
   -4.0291    0.3063   -0.1262 C   0  0  0  0  0  0  0  0  0  0  0  0
   -2.7422   -0.6904    0.1064 C   0  0  0  0  0  0  0  0  0  0  0  0
   -4.9023   -0.2413   -0.0830 H   0  0  0  0  0  0  0  0  0  0  0  0
   -3.9180    0.9470   -1.1933 H   0  0  0  0  0  0  0  0  0  0  0  0
   -3.8833    0.9710    0.6665 H   0  0  0  0  0  0  0  0  0  0  0  0
   -1.3199    0.2035    0.2297 C   0  0  0  0  0  0  0  0  0  0  0  0
   -2.5888   -1.1818   -0.5949 H   0  0  0  0  0  0  0  0  0  0  0  0
   -2.8187   -1.4100    1.0540 H   0  0  0  0  0  0  0  0  0  0  0  0
   -0.1333   -0.6840   -0.0654 C   0  0  0  0  0  0  0  0  0  0  0  0
   -1.2111    0.9519    1.3225 H   0  0  0  0  0  0  0  0  0  0  0  0
   -1.5758    0.6097   -0.5171 H   0  0  0  0  0  0  0  0  0  0  0  0
    0.4087   -1.5401    0.8965 H   0  0  0  0  0  0  0  0  0  0  0  0
    0.6147   -0.1002   -1.0214 H   0  0  0  0  0  0  0  0  0  0  0  0
   -0.4980   -1.0660   -0.8164 H   0  0  0  0  0  0  0  0  0  0  0  0
  1  3  1  0  0  0  0
  1  2  1  0  0  0  0
  1  5  1  0  0  0  0
  2  6  1  0  0  0  0
  2  8  1  0  0  0  0
  4  1  1  0  0  0  0
  6 10  1  0  0  0  0
  7  2  1  0  0  0  0
  9  6  1  0  0  0  0
  9 12  1  0  0  0  0
 11  6  1  0  0  0  0
 13  9  1  0  0  0  0
 14  9  1  0  0  0  0
M  END
$$$$
