14
butane_opt
C  -3.876442   0.197426   0.025234
C  -2.715505  -0.577126   0.053940
H  -4.901210  -0.490233  -0.252597
H  -3.800103   0.320225  -0.476784
H  -3.868382   1.547037   1.390096
C  -1.397785   0.281348  -0.102540
H  -2.812984  -1.006144  -0.718788
H  -2.898102  -1.217294   0.892667
C  -0.158929  -0.750023   0.096833
H  -1.690509   0.826408   0.523103
H  -1.388530   1.008392  -1.008650
H  -0.305523  -1.500444   0.897257
H   0.592501  -0.343944   0.148441
H  -0.101971  -1.497977  -0.769078
