butane_opt
 OpenBabel08242015393D

 14 10  0  0  0  0  0  0  0  0999 V2000
   -3.9245    0.2093    0.1544 C   0  0  0  0  0  0  0  0  0  0  0  0
   -2.6644   -0.5042   -0.1330 C   0  0  0  0  0  0  0  0  0  0  0  0
   -5.0404   -0.4986   -0.1762 H   0  0  0  0  0  0  0  0  0  0  0  0
   -3.7834    0.3381   -0.5715 H   0  0  0  0  0  0  0  0  0  0  0  0
   -3.8390    1.0069    1.0832 H   0  0  0  0  0  0  0  0  0  0  0  0
   -1.4637    0.2317   -0.0750 C   0  0  0  0  0  0  0  0  0  0  0  0
   -2.8567   -1.2180   -1.0743 H   0  0  0  0  0  0  0  0  0  0  0  0
   -2.4197   -1.1761    0.7689 H   0  0  0  0  0  0  0  0  0  0  0  0
   -0.1877   -0.7623    0.1628 C   0  0  0  0  0  0  0  0  0  0  0  0
   -1.3628    1.0261    0.6995 H   0  0  0  0  0  0  0  0  0  0  0  0
   -1.3417    0.8558   -0.9973 H   0  0  0  0  0  0  0  0  0  0  0  0
   -0.0336   -1.8318    1.4587 H   0  0  0  0  0  0  0  0  0  0  0  0
    0.7042   -0.1177   -0.5992 H   0  0  0  0  0  0  0  0  0  0  0  0
   -0.1319   -0.9953   -0.4101 H   0  0  0  0  0  0  0  0  0  0  0  0
  1  5  1  0  0  0  0
  2  6  1  0  0  0  0
  2  8  1  0  0  0  0
  3  1  1  0  0  0  0
  4  1  1  0  0  0  0
  6  9  1  0  0  0  0
  6 10  1  0  0  0  0
  7  2  1  0  0  0  0
 11  6  1  0  0  0  0
 13  9  1  0  0  0  0
M  RAD  5   1   2   2   2   9   3  12   2  14   2
M  END
$$$$
