14
butane_opt
C  -3.928333   0.233357   0.104019
C  -2.701899  -0.527430  -0.016451
H  -5.054879  -0.718683   0.106627
H  -3.753394   0.819897  -0.829768
H  -3.760831   1.070703   0.982065
C  -1.376627   0.211393  -0.139330
H  -3.029866  -1.142250  -0.737037
H  -2.454472  -1.352798   0.964553
C  -0.197097  -0.748850   0.090536
H  -1.569566   0.951437   0.771352
H  -1.396514   0.838231  -1.037714
H  -0.404382  -1.219073   0.864947
H   0.719768  -0.151440   0.774357
H   0.150636  -1.617872  -0.904512
