14
butane_opt
C  -4.022837   0.319491   0.143565
C  -2.690668  -0.706546  -0.096473
H  -4.891507  -0.101267   0.275836
H  -4.500879   0.497350  -0.356395
H  -4.022448   1.302183   1.233144
C  -1.322119   0.129299  -0.227151
H  -2.743374  -1.374379  -0.941658
H  -2.646508  -1.242337   0.768773
C  -0.117103  -0.657456   0.188785
H  -1.765549   0.715286   0.699162
H  -1.183668   1.084349  -1.363475
H  -0.454110  -1.082480   1.120520
H   0.917552   0.038576   0.566341
H   0.079698  -1.336979  -0.648766
