butane_opt
 OpenBabel08242015393D

 14 13  0  0  0  0  0  0  0  0999 V2000
   -4.0049    0.3166   -0.1273 C   0  0  0  0  0  0  0  0  0  0  0  0
   -2.7079   -0.6734    0.1972 C   0  0  0  0  0  0  0  0  0  0  0  0
   -4.5668   -0.0482   -0.2112 H   0  0  0  0  0  0  0  0  0  0  0  0
   -3.7833    1.1410   -1.2564 H   0  0  0  0  0  0  0  0  0  0  0  0
   -4.5631    0.7639    0.4513 H   0  0  0  0  0  0  0  0  0  0  0  0
   -1.3396    0.1488    0.2631 C   0  0  0  0  0  0  0  0  0  0  0  0
   -2.6850   -1.4534   -0.7575 H   0  0  0  0  0  0  0  0  0  0  0  0
   -3.0801   -1.4093    1.1824 H   0  0  0  0  0  0  0  0  0  0  0  0
   -0.1153   -0.6532   -0.1353 C   0  0  0  0  0  0  0  0  0  0  0  0
   -1.1583    0.9444    1.1653 H   0  0  0  0  0  0  0  0  0  0  0  0
   -1.4031    0.5591   -0.6004 H   0  0  0  0  0  0  0  0  0  0  0  0
    0.2407   -1.3119    0.8221 H   0  0  0  0  0  0  0  0  0  0  0  0
    0.7812   -0.1085   -0.6769 H   0  0  0  0  0  0  0  0  0  0  0  0
   -0.8086   -1.1532   -1.0232 H   0  0  0  0  0  0  0  0  0  0  0  0
  1  2  1  0  0  0  0
  1  5  1  0  0  0  0
  2  6  1  0  0  0  0
  2  8  1  0  0  0  0
  3  1  1  0  0  0  0
  4  1  1  0  0  0  0
  6 10  1  0  0  0  0
  7  2  1  0  0  0  0
  9  6  1  0  0  0  0
  9 12  1  0  0  0  0
 11  6  1  0  0  0  0
 13  9  1  0  0  0  0
 14  9  1  0  0  0  0
M  END
$$$$
