butane_opt
 OpenBabel08242015393D

 14 11  0  0  0  0  0  0  0  0999 V2000
   -3.9178    0.3317   -0.1690 C   0  0  0  0  0  0  0  0  0  0  0  0
   -2.6809   -0.6972    0.1899 C   0  0  0  0  0  0  0  0  0  0  0  0
   -4.5975   -0.0987    0.0933 H   0  0  0  0  0  0  0  0  0  0  0  0
   -4.1518    1.2053   -1.1534 H   0  0  0  0  0  0  0  0  0  0  0  0
   -4.1531    0.6081    0.3440 H   0  0  0  0  0  0  0  0  0  0  0  0
   -1.3806    0.1467    0.2239 C   0  0  0  0  0  0  0  0  0  0  0  0
   -2.4720   -1.1961   -0.6583 H   0  0  0  0  0  0  0  0  0  0  0  0
   -2.8888   -1.5591    1.2632 H   0  0  0  0  0  0  0  0  0  0  0  0
   -0.2121   -0.6747   -0.1387 C   0  0  0  0  0  0  0  0  0  0  0  0
   -1.1781    1.2115    1.4059 H   0  0  0  0  0  0  0  0  0  0  0  0
   -1.2718    0.4578   -0.4537 H   0  0  0  0  0  0  0  0  0  0  0  0
    0.1100   -1.2156    0.7775 H   0  0  0  0  0  0  0  0  0  0  0  0
    0.7742    0.1497   -0.4239 H   0  0  0  0  0  0  0  0  0  0  0  0
   -0.8990   -1.2927   -1.0522 H   0  0  0  0  0  0  0  0  0  0  0  0
  1  3  1  0  0  0  0
  1  2  1  0  0  0  0
  2  6  1  0  0  0  0
  2  8  1  0  0  0  0
  4  1  1  0  0  0  0
  7  2  1  0  0  0  0
  9  6  1  0  0  0  0
  9 12  1  0  0  0  0
 11  6  1  0  0  0  0
 13  9  1  0  0  0  0
 14  9  1  0  0  0  0
M  RAD  4   1   2   5   2   6   2  10   2
M  END
$$$$
