14
butane_opt
C  -3.932639   0.281942   0.220277
C  -2.681436  -0.612041  -0.194542
H  -4.702457  -0.178932   0.418780
H  -4.539398   0.809707  -0.697237
H  -3.699883   0.924992   1.135839
C  -1.393778   0.109632  -0.218282
H  -2.716004  -1.218323  -1.099104
H  -2.382532  -1.247558   0.678615
C  -0.170579  -0.642949   0.237658
H  -1.504329   0.539115   0.481039
H  -1.415771   0.819883  -1.093744
H  -0.644605  -1.163121   1.153749
H   0.855875   0.054046   0.585661
H  -0.116626  -1.431514  -0.674551
