14
butane_opt
C  -4.002637   0.280179  -0.118695
C  -2.706469  -0.678777   0.311982
H  -4.643650   0.094512  -0.918911
H  -3.623433   0.602179  -0.978208
H  -4.669233   1.436160   0.974016
C  -1.303247   0.159921   0.068214
H  -2.659696  -1.247421  -0.600588
H  -3.009112  -1.597381   1.423603
C  -0.163269  -0.649621  -0.108832
H  -1.228618   1.052115   1.094297
H  -1.564948   0.564232  -0.726089
H  -0.144405  -1.117216   0.661913
H   0.775633  -0.129491  -0.247936
H  -0.170004  -1.434540  -1.047473
