14
butane_opt
C  -3.963896   0.166517   0.154551
C  -2.743870  -0.516692  -0.168445
H  -5.063797  -0.443478   0.002789
H  -4.144610   0.585870  -0.705438
H  -3.908057   1.386656   1.387294
C  -1.391377   0.220100  -0.000833
H  -2.824097  -1.553779  -1.333528
H  -2.960253  -0.871952   0.491878
C  -0.035938  -0.734762   0.165138
H  -1.806023   0.689188   0.641554
H  -1.332702   1.274473  -1.134033
H   0.190802  -2.209957   1.586975
H   0.762209  -0.328735  -0.976255
H  -0.252995  -0.642393  -0.213938
