butane_opt
 OpenBabel08242015393D

 14 12  0  0  0  0  0  0  0  0999 V2000
   -3.9182    0.2816   -0.0727 C   0  0  0  0  0  0  0  0  0  0  0  0
   -2.6948   -0.5709    0.1114 C   0  0  0  0  0  0  0  0  0  0  0  0
   -5.0085   -0.3859    0.0182 H   0  0  0  0  0  0  0  0  0  0  0  0
   -3.9346    0.8341   -1.0820 H   0  0  0  0  0  0  0  0  0  0  0  0
   -4.1141    0.8714    0.6683 H   0  0  0  0  0  0  0  0  0  0  0  0
   -1.3987    0.1482    0.1478 C   0  0  0  0  0  0  0  0  0  0  0  0
   -2.5511   -1.4064   -0.7758 H   0  0  0  0  0  0  0  0  0  0  0  0
   -2.7386   -1.1001    0.8319 H   0  0  0  0  0  0  0  0  0  0  0  0
   -0.1987   -0.6980   -0.0766 C   0  0  0  0  0  0  0  0  0  0  0  0
   -1.1967    0.9778    1.2455 H   0  0  0  0  0  0  0  0  0  0  0  0
   -1.2226    0.4487   -0.4886 H   0  0  0  0  0  0  0  0  0  0  0  0
    0.0265   -1.7322    1.0101 H   0  0  0  0  0  0  0  0  0  0  0  0
    0.7379   -0.1823   -0.7518 H   0  0  0  0  0  0  0  0  0  0  0  0
   -0.4580   -0.7048   -0.5084 H   0  0  0  0  0  0  0  0  0  0  0  0
  1  3  1  0  0  0  0
  1  2  1  0  0  0  0
  1  5  1  0  0  0  0
  2  6  1  0  0  0  0
  2  8  1  0  0  0  0
  4  1  1  0  0  0  0
  6 10  1  0  0  0  0
  7  2  1  0  0  0  0
  9 12  1  0  0  0  0
 11  6  1  0  0  0  0
 13  9  1  0  0  0  0
 14  6  1  0  0  0  0
M  RAD  1   9   3
M  END
$$$$
