butane_opt
 OpenBabel08242015393D

 14 11  0  0  0  0  0  0  0  0999 V2000
   -3.9231    0.2163   -0.0982 C   0  0  0  0  0  0  0  0  0  0  0  0
   -2.7388   -0.5457    0.2222 C   0  0  0  0  0  0  0  0  0  0  0  0
   -4.7305   -0.3310   -0.1620 H   0  0  0  0  0  0  0  0  0  0  0  0
   -3.5488    0.9146   -0.9875 H   0  0  0  0  0  0  0  0  0  0  0  0
   -3.9349    0.6107    0.5794 H   0  0  0  0  0  0  0  0  0  0  0  0
   -1.4394    0.2629    0.0483 C   0  0  0  0  0  0  0  0  0  0  0  0
   -2.7299   -0.9655   -0.4308 H   0  0  0  0  0  0  0  0  0  0  0  0
   -2.7914   -1.4281    1.3166 H   0  0  0  0  0  0  0  0  0  0  0  0
   -0.1581   -0.7710   -0.0558 C   0  0  0  0  0  1  0  0  0  0  0  0
   -1.1813    1.0680    0.9054 H   0  0  0  0  0  0  0  0  0  0  0  0
   -1.5616    0.6647   -0.6762 H   0  0  0  0  0  0  0  0  0  0  0  0
   -0.3619   -0.7209    0.3182 H   0  0  0  0  0  0  0  0  0  0  0  0
    0.8404   -0.1473    0.3735 H   0  0  0  0  0  0  0  0  0  0  0  0
    0.0890   -2.0936   -1.2918 H   0  0  0  0  0  0  0  0  0  0  0  0
  1  2  1  0  0  0  0
  1  5  1  0  0  0  0
  2  8  1  0  0  0  0
  3  1  1  0  0  0  0
  4  1  1  0  0  0  0
  6  2  1  0  0  0  0
  6 12  1  0  0  0  0
  6 10  1  0  0  0  0
  7  2  1  0  0  0  0
  9 13  1  0  0  0  0
 11  6  1  0  0  0  0
M  RAD  1  14   2
M  END
$$$$
