14
butane_opt
C  -3.969999   0.334148  -0.173409
C  -2.694379  -0.766965   0.167260
H  -4.741069  -0.049949   0.001388
H  -3.929341   1.070238  -1.173243
H  -4.535658   0.784907   0.554347
C  -1.427131   0.159958   0.270059
H  -2.565514  -1.423714  -0.534782
H  -2.726296  -1.164316   1.001489
C  -0.126252  -0.656175  -0.103923
H  -1.116218   1.010803   1.316657
H  -1.436824   0.686694  -0.575611
H   0.558333  -1.358851   0.834448
H   0.829108   0.094735  -0.961052
H  -0.783409  -0.945324  -0.916873
