butane_opt
 OpenBabel08242015393D

 14 13  0  0  0  0  0  0  0  0999 V2000
   -3.9566    0.2638    0.0387 C   0  0  0  0  0  0  0  0  0  0  0  0
   -2.6983   -0.6083    0.0252 C   0  0  0  0  0  0  0  0  0  0  0  0
   -4.8710   -0.3495    0.0644 H   0  0  0  0  0  0  0  0  0  0  0  0
   -3.9922    0.7931   -0.8191 H   0  0  0  0  0  0  0  0  0  0  0  0
   -3.9616    0.9342    0.9311 H   0  0  0  0  0  0  0  0  0  0  0  0
   -1.4003    0.1914   -0.0207 C   0  0  0  0  0  0  0  0  0  0  0  0
   -2.7214   -1.2901   -0.8469 H   0  0  0  0  0  0  0  0  0  0  0  0
   -2.7161   -1.2170    0.9099 H   0  0  0  0  0  0  0  0  0  0  0  0
   -0.1530   -0.6981    0.0562 C   0  0  0  0  0  0  0  0  0  0  0  0
   -1.4187    0.8054    0.7767 H   0  0  0  0  0  0  0  0  0  0  0  0
   -1.3449    0.8781   -0.9807 H   0  0  0  0  0  0  0  0  0  0  0  0
   -0.1767   -1.2653    0.9157 H   0  0  0  0  0  0  0  0  0  0  0  0
    0.7408   -0.1227    0.1481 H   0  0  0  0  0  0  0  0  0  0  0  0
   -0.0586   -1.4310   -0.8496 H   0  0  0  0  0  0  0  0  0  0  0  0
  1  3  1  0  0  0  0
  1  5  1  0  0  0  0
  2  1  1  0  0  0  0
  2  8  1  0  0  0  0
  4  1  1  0  0  0  0
  6  2  1  0  0  0  0
  6  9  1  0  0  0  0
  6 10  1  0  0  0  0
  7  2  1  0  0  0  0
  9 13  1  0  0  0  0
  9 12  1  0  0  0  0
 11  6  1  0  0  0  0
 14  9  1  0  0  0  0
M  END
$$$$
