14
butane_opt
C  -3.989669   0.318343  -0.090541
C  -2.751679  -0.696265   0.256144
H  -4.762268  -0.120878  -0.258779
H  -4.053459   1.416993  -1.318913
H  -4.380351   0.752681   0.577450
C  -1.349145   0.112681   0.114850
H  -2.631333  -1.211418  -0.518626
H  -2.689676  -1.463694   1.215870
C  -0.130895  -0.653408  -0.146492
H  -1.386361   0.762732   0.886181
H  -1.229080   0.709199  -0.580857
H  -0.271988  -0.593497   0.510687
H   0.964950   0.205445   0.570415
H   0.048476  -1.894013  -1.389738
