14
butane_opt
C  -3.978790   0.249364   0.137381
C  -2.728601  -0.581772   0.012919
H  -4.813235  -0.321899  -0.050487
H  -4.086414   0.677791  -0.694113
H  -4.059345   0.869998   1.016994
C  -1.432606   0.187020  -0.194242
H  -3.141494  -1.384078  -1.013486
H  -2.647976  -1.188786   0.866053
C  -0.033303  -0.691153   0.175528
H  -1.376799   0.848391   0.468583
H  -1.474779   1.038540  -1.246019
H  -0.422032  -0.928376   0.849888
H   0.739856  -0.229275   0.665055
H   0.347171  -1.854645  -1.045718
