butane_opt
 OpenBabel08242015393D

 14 13  0  0  0  0  0  0  0  0999 V2000
   -3.9391    0.2721    0.1776 C   0  0  0  0  0  0  0  0  0  0  0  0
   -2.6200   -0.6456   -0.0236 C   0  0  0  0  0  0  0  0  0  0  0  0
   -4.8364   -0.2844    0.0463 H   0  0  0  0  0  0  0  0  0  0  0  0
   -4.0148    0.8397   -0.7217 H   0  0  0  0  0  0  0  0  0  0  0  0
   -4.1439    1.1265    1.1601 H   0  0  0  0  0  0  0  0  0  0  0  0
   -1.4126    0.1448   -0.2094 C   0  0  0  0  0  0  0  0  0  0  0  0
   -2.6875   -1.5495   -1.0125 H   0  0  0  0  0  0  0  0  0  0  0  0
   -2.7602   -0.9829    0.6507 H   0  0  0  0  0  0  0  0  0  0  0  0
   -0.1966   -0.6267    0.1521 C   0  0  0  0  0  0  0  0  0  0  0  0
   -1.4168    0.5009    0.4483 H   0  0  0  0  0  0  0  0  0  0  0  0
   -1.3616    1.0376   -1.1909 H   0  0  0  0  0  0  0  0  0  0  0  0
   -0.5948   -1.1887    0.9672 H   0  0  0  0  0  0  0  0  0  0  0  0
    0.7149   -0.1802    0.8260 H   0  0  0  0  0  0  0  0  0  0  0  0
    0.1123   -1.5365   -0.8532 H   0  0  0  0  0  0  0  0  0  0  0  0
  1  5  1  0  0  0  0
  2  1  1  0  0  0  0
  2  8  1  0  0  0  0
  3  1  1  0  0  0  0
  4  1  1  0  0  0  0
  6  2  1  0  0  0  0
  6  9  1  0  0  0  0
  6 10  1  0  0  0  0
  7  2  1  0  0  0  0
  9 13  1  0  0  0  0
  9 12  1  0  0  0  0
 11  6  1  0  0  0  0
 14  9  1  0  0  0  0
M  END
$$$$
