butane_opt
 OpenBabel08242015393D

 14 13  0  0  0  0  0  0  0  0999 V2000
   -3.9728    0.2254   -0.1018 C   0  0  0  0  0  0  0  0  0  0  0  0
   -2.7803   -0.5414    0.0934 C   0  0  0  0  0  0  0  0  0  0  0  0
   -4.8921   -0.4336   -0.0192 H   0  0  0  0  0  0  0  0  0  0  0  0
   -3.8994    0.7336   -0.9714 H   0  0  0  0  0  0  0  0  0  0  0  0
   -3.9561    1.1236    0.8254 H   0  0  0  0  0  0  0  0  0  0  0  0
   -1.3632    0.1733    0.1674 C   0  0  0  0  0  0  0  0  0  0  0  0
   -2.6992   -1.1512   -0.8216 H   0  0  0  0  0  0  0  0  0  0  0  0
   -3.0673   -1.3112    1.0150 H   0  0  0  0  0  0  0  0  0  0  0  0
   -0.0719   -0.7316   -0.0380 C   0  0  0  0  0  0  0  0  0  0  0  0
   -1.2550    1.1072    1.0987 H   0  0  0  0  0  0  0  0  0  0  0  0
   -1.7658    0.8107   -0.6240 H   0  0  0  0  0  0  0  0  0  0  0  0
    0.4975   -1.6087    0.9518 H   0  0  0  0  0  0  0  0  0  0  0  0
    0.7935   -0.3026   -0.7726 H   0  0  0  0  0  0  0  0  0  0  0  0
   -0.5036   -0.9449   -0.5908 H   0  0  0  0  0  0  0  0  0  0  0  0
  1  3  1  0  0  0  0
  1  2  1  0  0  0  0
  1  5  1  0  0  0  0
  2  6  1  0  0  0  0
  2  8  1  0  0  0  0
  4  1  1  0  0  0  0
  6 10  1  0  0  0  0
  7  2  1  0  0  0  0
  9  6  1  0  0  0  0
  9 12  1  0  0  0  0
 11  6  1  0  0  0  0
 13  9  1  0  0  0  0
 14  9  1  0  0  0  0
M  END
$$$$
