14
butane_opt
C  -3.955641   0.306972  -0.140610
C  -2.621035  -0.661985   0.253804
H  -4.846554  -0.086310  -0.439972
H  -3.642611   0.746292  -0.956226
H  -4.251394   1.165129   0.847066
C  -1.407657   0.090044   0.140197
H  -2.432275  -1.175151  -0.505829
H  -2.855674  -1.443282   1.365091
C  -0.200712  -0.631349  -0.152025
H  -1.459520   0.627107   1.037872
H  -1.526639   0.892267  -0.811815
H  -0.353973  -1.094430   0.690242
H   1.030342   0.327764   0.268238
H  -0.515578  -1.654228  -1.262380
