butane_opt
 OpenBabel08242015393D

 14 13  0  0  0  0  0  0  0  0999 V2000
   -3.9305    0.2519    0.0446 C   0  0  0  0  0  0  0  0  0  0  0  0
   -2.7135   -0.6013    0.0040 C   0  0  0  0  0  0  0  0  0  0  0  0
   -4.8102   -0.3269    0.0438 H   0  0  0  0  0  0  0  0  0  0  0  0
   -3.9666    0.8725   -0.8645 H   0  0  0  0  0  0  0  0  0  0  0  0
   -3.8803    0.9083    0.8664 H   0  0  0  0  0  0  0  0  0  0  0  0
   -1.4136    0.1965   -0.0058 C   0  0  0  0  0  0  0  0  0  0  0  0
   -2.7564   -1.2966   -0.8477 H   0  0  0  0  0  0  0  0  0  0  0  0
   -2.6757   -1.2155    0.8803 H   0  0  0  0  0  0  0  0  0  0  0  0
   -0.1599   -0.7055    0.0546 C   0  0  0  0  0  0  0  0  0  0  0  0
   -1.3966    0.9108    0.8741 H   0  0  0  0  0  0  0  0  0  0  0  0
   -1.4043    0.7853   -0.8714 H   0  0  0  0  0  0  0  0  0  0  0  0
   -0.0993   -1.4031    1.0194 H   0  0  0  0  0  0  0  0  0  0  0  0
    0.7229   -0.1213   -0.0709 H   0  0  0  0  0  0  0  0  0  0  0  0
   -0.1503   -1.2815   -0.7577 H   0  0  0  0  0  0  0  0  0  0  0  0
  1  5  1  0  0  0  0
  2  1  1  0  0  0  0
  2  8  1  0  0  0  0
  3  1  1  0  0  0  0
  4  1  1  0  0  0  0
  6  2  1  0  0  0  0
  6  9  1  0  0  0  0
  6 10  1  0  0  0  0
  7  2  1  0  0  0  0
  9 12  1  0  0  0  0
 11  6  1  0  0  0  0
 13  9  1  0  0  0  0
 14  9  1  0  0  0  0
M  END
$$$$
