butane_opt
 OpenBabel08242015393D

 14 13  0  0  0  0  0  0  0  0999 V2000
   -3.8125    0.2084   -0.0184 C   0  0  0  0  0  0  0  0  0  0  0  0
   -2.7853   -0.5526    0.0759 C   0  0  0  0  0  0  0  0  0  0  0  0
   -4.6763   -0.2723    0.0531 H   0  0  0  0  0  0  0  0  0  0  0  0
   -3.4975    0.8992   -0.9269 H   0  0  0  0  0  0  0  0  0  0  0  0
   -4.1485    0.6882    0.5388 H   0  0  0  0  0  0  0  0  0  0  0  0
   -1.4539    0.2401    0.1053 C   0  0  0  0  0  0  0  0  0  0  0  0
   -2.6380   -1.3064   -0.8179 H   0  0  0  0  0  0  0  0  0  0  0  0
   -2.8188   -0.9418    1.0304 H   0  0  0  0  0  0  0  0  0  0  0  0
   -0.1970   -0.7510   -0.0337 C   0  0  0  0  0  0  0  0  0  0  0  0
   -1.4980    0.8895    0.9305 H   0  0  0  0  0  0  0  0  0  0  0  0
   -1.4793    0.7477   -0.6821 H   0  0  0  0  0  0  0  0  0  0  0  0
    0.1851   -1.4848    0.8935 H   0  0  0  0  0  0  0  0  0  0  0  0
    0.7414   -0.1027   -0.3526 H   0  0  0  0  0  0  0  0  0  0  0  0
   -0.2256   -1.3283   -0.7618 H   0  0  0  0  0  0  0  0  0  0  0  0
  1  3  1  0  0  0  0
  1  2  1  0  0  0  0
  1  5  1  0  0  0  0
  2  6  1  0  0  0  0
  2  8  1  0  0  0  0
  4  1  1  0  0  0  0
  6 10  1  0  0  0  0
  7  2  1  0  0  0  0
  9  6  1  0  0  0  0
  9 12  1  0  0  0  0
 11  6  1  0  0  0  0
 13  9  1  0  0  0  0
 14  9  1  0  0  0  0
M  END
$$$$
