butane_opt
 OpenBabel08242015393D

 14 13  0  0  0  0  0  0  0  0999 V2000
   -3.9731    0.3027    0.1621 C   0  0  0  0  0  0  0  0  0  0  0  0
   -2.7181   -0.7123   -0.1127 C   0  0  0  0  0  0  0  0  0  0  0  0
   -4.5943   -0.0483    0.0867 H   0  0  0  0  0  0  0  0  0  0  0  0
   -4.2705    0.9960   -0.5982 H   0  0  0  0  0  0  0  0  0  0  0  0
   -3.9084    0.9361    1.0698 H   0  0  0  0  0  0  0  0  0  0  0  0
   -1.4110    0.1534   -0.1262 C   0  0  0  0  0  0  0  0  0  0  0  0
   -2.8405   -1.2542   -0.9921 H   0  0  0  0  0  0  0  0  0  0  0  0
   -2.5853   -1.2481    0.7649 H   0  0  0  0  0  0  0  0  0  0  0  0
   -0.1240   -0.6393    0.1840 C   0  0  0  0  0  0  0  0  0  0  0  0
   -1.2568    0.4827    0.4715 H   0  0  0  0  0  0  0  0  0  0  0  0
   -1.1589    1.0711   -1.2410 H   0  0  0  0  0  0  0  0  0  0  0  0
   -0.3455   -1.0255    1.0046 H   0  0  0  0  0  0  0  0  0  0  0  0
    0.6596   -0.0358    0.4716 H   0  0  0  0  0  0  0  0  0  0  0  0
   -0.0314   -1.6144   -0.9214 H   0  0  0  0  0  0  0  0  0  0  0  0
  1  5  1  0  0  0  0
  2  1  1  0  0  0  0
  2  8  1  0  0  0  0
  3  1  1  0  0  0  0
  4  1  1  0  0  0  0
  6  2  1  0  0  0  0
  6  9  1  0  0  0  0
  6 10  1  0  0  0  0
  7  2  1  0  0  0  0
  9 13  1  0  0  0  0
  9 12  1  0  0  0  0
 11  6  1  0  0  0  0
 14  9  1  0  0  0  0
M  END
$$$$
