butane_opt
 OpenBabel08242015393D

 14 12  0  0  0  0  0  0  0  0999 V2000
   -3.8872    0.3341   -0.0600 C   0  0  0  0  0  0  0  0  0  0  0  0
   -2.6888   -0.7141    0.0872 C   0  0  0  0  0  0  0  0  0  0  0  0
   -4.6712   -0.2533   -0.1117 H   0  0  0  0  0  0  0  0  0  0  0  0
   -3.8812    0.7445   -0.8216 H   0  0  0  0  0  0  0  0  0  0  0  0
   -4.3205    1.0864    0.8205 H   0  0  0  0  0  0  0  0  0  0  0  0
   -1.4456    0.1391    0.1207 C   0  0  0  0  0  0  0  0  0  0  0  0
   -2.4825   -1.3311   -0.5942 H   0  0  0  0  0  0  0  0  0  0  0  0
   -2.5970   -1.3764    0.8655 H   0  0  0  0  0  0  0  0  0  0  0  0
   -0.1856   -0.6463   -0.0739 C   0  0  0  0  0  0  0  0  0  0  0  0
   -1.3692    1.0232    1.1940 H   0  0  0  0  0  0  0  0  0  0  0  0
   -1.4851    0.6590   -0.6601 H   0  0  0  0  0  0  0  0  0  0  0  0
   -0.2501   -1.7003    0.9989 H   0  0  0  0  0  0  0  0  0  0  0  0
    0.8039    0.1257   -0.4716 H   0  0  0  0  0  0  0  0  0  0  0  0
   -0.3145   -0.7611   -0.6038 H   0  0  0  0  0  0  0  0  0  0  0  0
  1  2  1  0  0  0  0
  1  5  1  0  0  0  0
  2  6  1  0  0  0  0
  2  8  1  0  0  0  0
  3  1  1  0  0  0  0
  4  1  1  0  0  0  0
  6 10  1  0  0  0  0
  7  2  1  0  0  0  0
  9  6  1  0  0  0  0
  9 12  1  0  0  0  0
 11  6  1  0  0  0  0
 13  9  1  0  0  0  0
M  RAD  2   9   2  14   2
M  END
$$$$
