14
butane_opt
C  -3.978202   0.235566   0.164604
C  -2.714744  -0.586853  -0.093198
H  -4.856827  -0.445123   0.348570
H  -4.081272   0.842113  -0.825897
H  -3.915232   0.745732   0.892452
C  -1.437052   0.238152  -0.162964
H  -2.755751  -1.000490  -0.783190
H  -2.720399  -1.286542   0.817299
C  -0.061092  -0.753976   0.160565
H  -1.613362   0.845818   0.781136
H  -1.194055   0.894218  -1.138242
H  -0.548434  -0.857774   0.709864
H   0.771537  -0.130295   0.564727
H   0.221957  -1.695851  -0.818658
