butane_opt
 OpenBabel08242015393D

 14 13  0  0  0  0  0  0  0  0999 V2000
   -3.8975    0.3035    0.0898 C   0  0  0  0  0  0  0  0  0  0  0  0
   -2.6914   -0.5646   -0.1395 C   0  0  0  0  0  0  0  0  0  0  0  0
   -5.0694   -0.4696    0.5106 H   0  0  0  0  0  0  0  0  0  0  0  0
   -4.2065    1.0450   -0.7160 H   0  0  0  0  0  0  0  0  0  0  0  0
   -3.6430    0.7469    0.7804 H   0  0  0  0  0  0  0  0  0  0  0  0
   -1.3741    0.1058   -0.0246 C   0  0  0  0  0  0  0  0  0  0  0  0
   -2.6669   -1.3497   -1.0064 H   0  0  0  0  0  0  0  0  0  0  0  0
   -2.6794   -1.4742    0.8976 H   0  0  0  0  0  0  0  0  0  0  0  0
   -0.2169   -0.6756    0.1119 C   0  0  0  0  0  0  0  0  0  0  0  0
   -1.5267    0.8606    0.8985 H   0  0  0  0  0  0  0  0  0  0  0  0
   -1.2248    0.7626   -0.7948 H   0  0  0  0  0  0  0  0  0  0  0  0
   -0.1220   -1.3854    1.1210 H   0  0  0  0  0  0  0  0  0  0  0  0
    0.6726   -0.1102   -0.0896 H   0  0  0  0  0  0  0  0  0  0  0  0
   -0.3797   -1.1377   -0.6234 H   0  0  0  0  0  0  0  0  0  0  0  0
  1  3  1  0  0  0  0
  1  5  1  0  0  0  0
  2  6  1  0  0  0  0
  2  1  1  0  0  0  0
  2  8  1  0  0  0  0
  4  1  1  0  0  0  0
  6  9  1  0  0  0  0
  6 10  1  0  0  0  0
  7  2  1  0  0  0  0
  9 12  1  0  0  0  0
 11  6  1  0  0  0  0
 13  9  1  0  0  0  0
 14  9  1  0  0  0  0
M  END
$$$$
