butane_opt
 OpenBabel08242015393D

 14 13  0  0  0  0  0  0  0  0999 V2000
   -3.9572    0.3328    0.1777 C   0  0  0  0  0  0  0  0  0  0  0  0
   -2.6626   -0.6533   -0.2083 C   0  0  0  0  0  0  0  0  0  0  0  0
   -4.7240    0.0454    0.8864 H   0  0  0  0  0  0  0  0  0  0  0  0
   -4.4619    1.1444   -0.7581 H   0  0  0  0  0  0  0  0  0  0  0  0
   -3.4242    0.5379    0.8434 H   0  0  0  0  0  0  0  0  0  0  0  0
   -1.3700    0.0642   -0.0755 C   0  0  0  0  0  0  0  0  0  0  0  0
   -2.9426   -1.4901   -1.3372 H   0  0  0  0  0  0  0  0  0  0  0  0
   -2.5377   -0.9476    0.3912 H   0  0  0  0  0  0  0  0  0  0  0  0
   -0.2096   -0.6377    0.2131 C   0  0  0  0  0  0  0  0  0  0  0  0
   -1.5080    0.4558    0.5625 H   0  0  0  0  0  0  0  0  0  0  0  0
   -1.1827    0.8776   -1.1481 H   0  0  0  0  0  0  0  0  0  0  0  0
   -0.5903   -1.3521    1.1326 H   0  0  0  0  0  0  0  0  0  0  0  0
    0.9142    0.1659    0.1412 H   0  0  0  0  0  0  0  0  0  0  0  0
   -0.2325   -1.1213   -0.5868 H   0  0  0  0  0  0  0  0  0  0  0  0
  1  5  1  0  0  0  0
  1  3  1  0  0  0  0
  2  6  1  0  0  0  0
  2  1  1  0  0  0  0
  2  8  1  0  0  0  0
  4  1  1  0  0  0  0
  6  9  1  0  0  0  0
  6 10  1  0  0  0  0
  7  2  1  0  0  0  0
  9 12  1  0  0  0  0
 11  6  1  0  0  0  0
 13  9  1  0  0  0  0
 14  9  1  0  0  0  0
M  END
$$$$
