14
butane_opt
C  -3.939074   0.200991   0.202535
C  -2.726695  -0.506213  -0.049215
H  -4.985122  -0.574297  -0.202688
H  -3.765984   0.573868  -0.752858
H  -3.686724   0.958979   1.173658
C  -1.449362   0.230770  -0.195496
H  -2.761026  -1.267619  -1.016463
H  -2.433557  -1.023304   0.652298
C  -0.133308  -0.749866   0.180691
H  -1.410270   0.421028   0.492940
H  -1.555516   1.164518  -1.361073
H  -0.391952  -0.960028   0.858719
H   0.571635  -0.343266   0.660555
H   0.402602  -1.559375  -0.738446
