butane_opt
 OpenBabel08242015393D

 14 13  0  0  0  0  0  0  0  0999 V2000
   -3.9509    0.2993   -0.0500 C   0  0  0  0  0  0  0  0  0  0  0  0
   -2.6617   -0.6575    0.2373 C   0  0  0  0  0  0  0  0  0  0  0  0
   -4.7719   -0.0783   -0.7314 H   0  0  0  0  0  0  0  0  0  0  0  0
   -3.6281    0.5901   -0.7899 H   0  0  0  0  0  0  0  0  0  0  0  0
   -4.0660    1.1064    0.8966 H   0  0  0  0  0  0  0  0  0  0  0  0
   -1.4247    0.1304    0.0099 C   0  0  0  0  0  0  0  0  0  0  0  0
   -2.5732   -1.5777   -0.6459 H   0  0  0  0  0  0  0  0  0  0  0  0
   -2.8387   -1.2354    1.1675 H   0  0  0  0  0  0  0  0  0  0  0  0
   -0.1702   -0.6490   -0.0425 C   0  0  0  0  0  0  0  0  0  0  0  0
   -1.3855    0.7880    0.7971 H   0  0  0  0  0  0  0  0  0  0  0  0
   -1.7424    0.9980   -0.9510 H   0  0  0  0  0  0  0  0  0  0  0  0
   -0.2660   -1.0283    0.7154 H   0  0  0  0  0  0  0  0  0  0  0  0
    0.8394    0.0832    0.1752 H   0  0  0  0  0  0  0  0  0  0  0  0
   -0.1721   -1.5788   -1.0547 H   0  0  0  0  0  0  0  0  0  0  0  0
  1  2  1  0  0  0  0
  1  5  1  0  0  0  0
  2  8  1  0  0  0  0
  3  1  1  0  0  0  0
  4  1  1  0  0  0  0
  6  2  1  0  0  0  0
  6 10  1  0  0  0  0
  7  2  1  0  0  0  0
  9  6  1  0  0  0  0
  9 13  1  0  0  0  0
  9 12  1  0  0  0  0
 11  6  1  0  0  0  0
 14  9  1  0  0  0  0
M  END
$$$$
