14
butane_opt
C  -3.919910   0.182567  -0.118151
C  -2.758567  -0.584727   0.220950
H  -4.894417  -0.366997   0.070251
H  -3.757491   0.842588  -1.135174
H  -4.093581   0.900194   0.586748
C  -1.439074   0.272722   0.086899
H  -2.803654  -0.943027  -0.374014
H  -2.784225  -1.251093   1.222132
C  -0.079288  -0.720740  -0.054385
H  -1.529990   0.824616   0.951842
H  -1.656946   0.985739  -0.931214
H   0.074453  -0.727640   0.454942
H   0.669480  -0.369430   0.469364
H   0.110498  -2.223159  -1.564994
