butane_opt
 OpenBabel08242015393D

 14 13  0  0  0  0  0  0  0  0999 V2000
   -3.9513    0.2774    0.0247 C   0  0  0  0  0  0  0  0  0  0  0  0
   -2.7019   -0.6309    0.0210 C   0  0  0  0  0  0  0  0  0  0  0  0
   -4.8653   -0.3154    0.1571 H   0  0  0  0  0  0  0  0  0  0  0  0
   -4.1142    0.9591   -0.8894 H   0  0  0  0  0  0  0  0  0  0  0  0
   -3.8960    0.8859    0.8806 H   0  0  0  0  0  0  0  0  0  0  0  0
   -1.3967    0.1745   -0.0018 C   0  0  0  0  0  0  0  0  0  0  0  0
   -2.7223   -1.3009   -0.8488 H   0  0  0  0  0  0  0  0  0  0  0  0
   -2.7521   -1.2345    0.9119 H   0  0  0  0  0  0  0  0  0  0  0  0
   -0.1530   -0.6851    0.0444 C   0  0  0  0  0  0  0  0  0  0  0  0
   -1.3913    0.8501    0.8489 H   0  0  0  0  0  0  0  0  0  0  0  0
   -1.3485    0.7751   -0.8798 H   0  0  0  0  0  0  0  0  0  0  0  0
   -0.1514   -1.2682    0.9335 H   0  0  0  0  0  0  0  0  0  0  0  0
    0.7482   -0.0834    0.0813 H   0  0  0  0  0  0  0  0  0  0  0  0
   -0.0981   -1.3688   -0.8257 H   0  0  0  0  0  0  0  0  0  0  0  0
  1  3  1  0  0  0  0
  1  5  1  0  0  0  0
  2  1  1  0  0  0  0
  2  8  1  0  0  0  0
  4  1  1  0  0  0  0
  6  2  1  0  0  0  0
  6  9  1  0  0  0  0
  6 10  1  0  0  0  0
  7  2  1  0  0  0  0
  9 13  1  0  0  0  0
  9 12  1  0  0  0  0
 11  6  1  0  0  0  0
 14  9  1  0  0  0  0
M  END
$$$$
