butane_opt
 OpenBabel08242015393D

 14 13  0  0  0  0  0  0  0  0999 V2000
   -4.0233    0.3576    0.1779 C   0  0  0  0  0  0  0  0  0  0  0  0
   -2.7235   -0.6669   -0.1860 C   0  0  0  0  0  0  0  0  0  0  0  0
   -4.9155   -0.2922    0.6168 H   0  0  0  0  0  0  0  0  0  0  0  0
   -4.5751    1.1106   -0.7867 H   0  0  0  0  0  0  0  0  0  0  0  0
   -3.4720    0.6551    1.0037 H   0  0  0  0  0  0  0  0  0  0  0  0
   -1.3641    0.1239   -0.1261 C   0  0  0  0  0  0  0  0  0  0  0  0
   -2.4943   -1.7851   -1.1335 H   0  0  0  0  0  0  0  0  0  0  0  0
   -2.6026   -1.1273    0.5585 H   0  0  0  0  0  0  0  0  0  0  0  0
   -0.1303   -0.6354    0.2165 C   0  0  0  0  0  0  0  0  0  0  0  0
   -1.3654    0.7482    0.6813 H   0  0  0  0  0  0  0  0  0  0  0  0
   -0.9885    0.8502   -1.1751 H   0  0  0  0  0  0  0  0  0  0  0  0
   -0.3618   -1.4840    1.3212 H   0  0  0  0  0  0  0  0  0  0  0  0
    0.8651    0.0202    0.0882 H   0  0  0  0  0  0  0  0  0  0  0  0
   -0.2471   -1.2743   -0.7455 H   0  0  0  0  0  0  0  0  0  0  0  0
  1  3  1  0  0  0  0
  1  5  1  0  0  0  0
  2  6  1  0  0  0  0
  2  1  1  0  0  0  0
  2  8  1  0  0  0  0
  4  1  1  0  0  0  0
  6  9  1  0  0  0  0
  6 10  1  0  0  0  0
  7  2  1  0  0  0  0
  9 12  1  0  0  0  0
 11  6  1  0  0  0  0
 13  9  1  0  0  0  0
 14  9  1  0  0  0  0
M  END
$$$$
