14
butane_opt
C  -4.013347   0.204251   0.203736
C  -2.727957  -0.522393  -0.173689
H  -5.007503  -0.598295   0.074414
H  -3.975899   0.564842  -0.656936
H  -3.801088   0.939901   1.096548
C  -1.422404   0.268483  -0.102748
H  -2.709965  -1.411421  -1.181470
H  -2.671044  -0.955325   0.561830
C  -0.053931  -0.771400   0.141546
H  -1.342370   1.122608   0.893197
H  -1.200898   0.885655  -1.193228
H  -0.078806  -2.149057   1.526358
H   0.637816  -0.336823  -0.232109
H  -0.191206  -0.716041  -0.155645
