butane_opt
 OpenBabel08242015393D

 14  9  0  0  0  0  0  0  0  0999 V2000
   -3.8533    0.2249    0.1097 C   0  0  0  0  0 15  0  0  0  0  0  0
   -2.6828   -0.5629    0.0135 C   0  0  0  0  0  0  0  0  0  0  0  0
   -4.9814   -0.5595   -0.5551 H   0  0  0  0  0  0  0  0  0  0  0  0
   -3.5487    0.1334   -0.4008 H   0  0  0  0  0  0  0  0  0  0  0  0
   -3.9631    1.4074    1.1959 H   0  0  0  0  0  0  0  0  0  0  0  0
   -1.4366    0.2496   -0.1803 C   0  0  0  0  0  0  0  0  0  0  0  0
   -3.0983   -1.0808   -0.6440 H   0  0  0  0  0  0  0  0  0  0  0  0
   -2.4661   -1.1907    0.8256 H   0  0  0  0  0  0  0  0  0  0  0  0
   -0.2017   -0.7527    0.1128 C   0  0  0  0  0  0  0  0  0  0  0  0
   -1.4847    1.0982    0.7295 H   0  0  0  0  0  0  0  0  0  0  0  0
   -1.4550    0.8960   -1.1239 H   0  0  0  0  0  0  0  0  0  0  0  0
   -0.2218   -1.6216    1.1759 H   0  0  0  0  0  0  0  0  0  0  0  0
    0.4422   -0.2801    0.2759 H   0  0  0  0  0  0  0  0  0  0  0  0
   -0.1189   -1.2727   -0.6332 H   0  0  0  0  0  0  0  0  0  0  0  0
  2  8  1  0  0  0  0
  4  2  1  0  0  0  0
  6  9  1  0  0  0  0
  6 10  1  0  0  0  0
  7  2  1  0  0  0  0
  9 13  1  0  0  0  0
  9 12  1  0  0  0  0
 11  6  1  0  0  0  0
 14  9  1  0  0  0  0
M  RAD  4   2   2   3   2   5   2   6   2
M  END
$$$$
