butane_opt
 OpenBabel08242015393D

 14 13  0  0  0  0  0  0  0  0999 V2000
   -3.9391    0.2010    0.2025 C   0  0  0  0  0  0  0  0  0  0  0  0
   -2.7267   -0.5062   -0.0492 C   0  0  0  0  0  0  0  0  0  0  0  0
   -4.9851   -0.5743   -0.2027 H   0  0  0  0  0  0  0  0  0  0  0  0
   -3.7660    0.5739   -0.7529 H   0  0  0  0  0  0  0  0  0  0  0  0
   -3.6867    0.9590    1.1737 H   0  0  0  0  0  0  0  0  0  0  0  0
   -1.4494    0.2308   -0.1955 C   0  0  0  0  0  0  0  0  0  0  0  0
   -2.7610   -1.2676   -1.0165 H   0  0  0  0  0  0  0  0  0  0  0  0
   -2.4336   -1.0233    0.6523 H   0  0  0  0  0  0  0  0  0  0  0  0
   -0.1333   -0.7499    0.1807 C   0  0  0  0  0  0  0  0  0  0  0  0
   -1.4103    0.4210    0.4929 H   0  0  0  0  0  0  0  0  0  0  0  0
   -1.5555    1.1645   -1.3611 H   0  0  0  0  0  0  0  0  0  0  0  0
   -0.3920   -0.9600    0.8587 H   0  0  0  0  0  0  0  0  0  0  0  0
    0.5716   -0.3433    0.6606 H   0  0  0  0  0  0  0  0  0  0  0  0
    0.4026   -1.5594   -0.7384 H   0  0  0  0  0  0  0  0  0  0  0  0
  1  5  1  0  0  0  0
  2  1  1  0  0  0  0
  2  8  1  0  0  0  0
  3  1  1  0  0  0  0
  4  1  1  0  0  0  0
  6  2  1  0  0  0  0
  6  9  1  0  0  0  0
  6 10  1  0  0  0  0
  7  2  1  0  0  0  0
  9 13  1  0  0  0  0
  9 12  1  0  0  0  0
 11  6  1  0  0  0  0
 14  9  1  0  0  0  0
M  END
$$$$
