butane_opt
 OpenBabel08242015393D

 14 10  0  0  0  0  0  0  0  0999 V2000
   -3.9513    0.1701    0.1713 C   0  0  0  0  0  0  0  0  0  0  0  0
   -2.7134   -0.5516   -0.2243 C   0  0  0  0  0  0  0  0  0  0  0  0
   -4.8297   -0.5520    0.3145 H   0  0  0  0  0  0  0  0  0  0  0  0
   -4.4298    0.7294   -0.6375 H   0  0  0  0  0  0  0  0  0  0  0  0
   -3.7481    1.2545    1.3233 H   0  0  0  0  0  0  0  0  0  0  0  0
   -1.4310    0.2733   -0.1016 C   0  0  0  0  0  0  0  0  0  0  0  0
   -2.8884   -1.3301   -1.0597 H   0  0  0  0  0  0  0  0  0  0  0  0
   -2.8089   -1.0725    0.6794 H   0  0  0  0  0  0  0  0  0  0  0  0
   -0.0878   -0.7581    0.1733 C   0  0  0  0  0  0  0  0  0  0  0  0
   -1.5822    0.9526    0.6528 H   0  0  0  0  0  0  0  0  0  0  0  0
   -1.2434    1.0228   -0.9508 H   0  0  0  0  0  0  0  0  0  0  0  0
   -0.1223   -1.9008    1.5026 H   0  0  0  0  0  0  0  0  0  0  0  0
    0.7069   -0.2709   -0.3870 H   0  0  0  0  0  0  0  0  0  0  0  0
    0.1982   -0.9290   -0.1842 H   0  0  0  0  0  0  0  0  0  0  0  0
  1  3  1  0  0  0  0
  2  6  1  0  0  0  0
  2  1  1  0  0  0  0
  2  8  1  0  0  0  0
  4  1  1  0  0  0  0
  6  9  1  0  0  0  0
  6 10  1  0  0  0  0
  7  2  1  0  0  0  0
 11  6  1  0  0  0  0
 13  9  1  0  0  0  0
M  RAD  5   1   2   5   2   9   3  12   2  14   2
M  END
$$$$
