butane_opt
 OpenBabel08242015393D

 14  9  0  0  0  0  0  0  0  0999 V2000
   -3.8580    0.2172    0.0950 C   0  0  0  0  0 15  0  0  0  0  0  0
   -2.7358   -0.5217    0.0065 C   0  0  0  0  0  0  0  0  0  0  0  0
   -5.0210   -0.6060   -0.6930 H   0  0  0  0  0  0  0  0  0  0  0  0
   -3.5357    0.1658   -0.3222 H   0  0  0  0  0  0  0  0  0  0  0  0
   -4.2638    1.3807    1.2652 H   0  0  0  0  0  0  0  0  0  0  0  0
   -1.4644    0.2491   -0.0757 C   0  0  0  0  0  0  0  0  0  0  0  0
   -2.8227   -1.1774   -0.9172 H   0  0  0  0  0  0  0  0  0  0  0  0
   -2.7615   -1.2839    0.8852 H   0  0  0  0  0  0  0  0  0  0  0  0
   -0.0927   -0.7570    0.1095 C   0  0  0  0  0  0  0  0  0  0  0  0
   -1.7699    0.5100    0.5615 H   0  0  0  0  0  0  0  0  0  0  0  0
   -1.5949    1.1172   -1.2033 H   0  0  0  0  0  0  0  0  0  0  0  0
    0.1875   -1.4225    0.9648 H   0  0  0  0  0  0  0  0  0  0  0  0
    0.7711   -0.2015   -0.1433 H   0  0  0  0  0  0  0  0  0  0  0  0
   -0.3661   -1.2245   -0.4829 H   0  0  0  0  0  0  0  0  0  0  0  0
  2  8  1  0  0  0  0
  4  2  1  0  0  0  0
  6  9  1  0  0  0  0
  6 10  1  0  0  0  0
  7  2  1  0  0  0  0
  9 12  1  0  0  0  0
 11  6  1  0  0  0  0
 13  9  1  0  0  0  0
 14  9  1  0  0  0  0
M  RAD  4   2   2   3   2   5   2   6   2
M  END
$$$$
