14
butane_opt
C  -3.853344   0.224949   0.109677
C  -2.682758  -0.562890   0.013497
H  -4.981421  -0.559482  -0.555070
H  -3.548710   0.133443  -0.400802
H  -3.963083   1.407423   1.195890
C  -1.436640   0.249625  -0.180305
H  -3.098348  -1.080830  -0.644045
H  -2.466070  -1.190744   0.825588
C  -0.201706  -0.752725   0.112781
H  -1.484658   1.098159   0.729496
H  -1.455015   0.895992  -1.123909
H  -0.221757  -1.621626   1.175904
H   0.442226  -0.280058   0.275896
H  -0.118926  -1.272691  -0.633223
