14
butane_opt
C  -4.005049   0.308006  -0.153226
C  -2.692198  -0.720044   0.151761
H  -4.847196  -0.084056  -0.142883
H  -3.990704   1.185363  -1.226657
H  -4.492375   1.128626   0.712297
C  -1.300956   0.112816   0.280615
H  -2.597571  -1.216557  -0.592653
H  -2.976095  -1.532377   1.191557
C  -0.182254  -0.640734  -0.158359
H  -1.475827   1.092369   1.251149
H  -1.263183   0.694571  -0.477270
H   0.520953  -1.472474   0.920197
H   0.879437   0.012160  -0.782978
H  -0.638444  -0.968985  -0.837137
