14
butane_opt
C  -3.865217   0.186953  -0.131328
C  -2.688423  -0.560216   0.194187
H  -4.888754  -0.413352  -0.488381
H  -3.586025   0.625384  -0.944244
H  -4.009647   1.022462   0.807430
C  -1.521037   0.294373   0.218836
H  -2.463045  -1.291395  -0.656082
H  -3.008156  -1.215291   1.312528
C  -0.179185  -0.746543  -0.137821
H  -1.346217   0.921317   1.043959
H  -1.436576   0.992856  -0.788008
H   0.390906  -1.761031   0.813406
H   0.712971  -0.141944  -0.412345
H  -0.337376  -1.320087  -0.915669
