butane_opt
 OpenBabel08242015393D

 14 13  0  0  0  0  0  0  0  0999 V2000
   -3.9686    0.3337    0.2107 C   0  0  0  0  0  0  0  0  0  0  0  0
   -2.6361   -0.6981   -0.1744 C   0  0  0  0  0  0  0  0  0  0  0  0
   -4.6973   -0.1230    0.1751 H   0  0  0  0  0  0  0  0  0  0  0  0
   -4.4371    0.9201   -0.6213 H   0  0  0  0  0  0  0  0  0  0  0  0
   -3.8281    0.9692    1.1375 H   0  0  0  0  0  0  0  0  0  0  0  0
   -1.3363    0.1246   -0.1978 C   0  0  0  0  0  0  0  0  0  0  0  0
   -2.9760   -1.1736   -0.9003 H   0  0  0  0  0  0  0  0  0  0  0  0
   -2.4935   -1.4078    0.7930 H   0  0  0  0  0  0  0  0  0  0  0  0
   -0.2799   -0.6455    0.2176 C   0  0  0  0  0  0  0  0  0  0  0  0
   -1.3701    0.5724    0.4716 H   0  0  0  0  0  0  0  0  0  0  0  0
   -1.0487    0.8070   -1.2864 H   0  0  0  0  0  0  0  0  0  0  0  0
   -0.3931   -0.8189    0.9816 H   0  0  0  0  0  0  0  0  0  0  0  0
    0.7397   -0.0473    0.6567 H   0  0  0  0  0  0  0  0  0  0  0  0
    0.1011   -1.5121   -0.7024 H   0  0  0  0  0  0  0  0  0  0  0  0
  1  5  1  0  0  0  0
  2  1  1  0  0  0  0
  2  8  1  0  0  0  0
  3  1  1  0  0  0  0
  4  1  1  0  0  0  0
  6  2  1  0  0  0  0
  6  9  1  0  0  0  0
  6 10  1  0  0  0  0
  7  2  1  0  0  0  0
  9 13  1  0  0  0  0
  9 12  1  0  0  0  0
 11  6  1  0  0  0  0
 14  9  1  0  0  0  0
M  END
$$$$
