14
butane_opt
C  -3.946325   0.260793  -0.010957
C  -2.707218  -0.619503   0.070553
H  -4.877009  -0.361877  -0.081907
H  -3.884094   0.813041  -0.879836
H  -4.067550   0.991062   0.868425
C  -1.411769   0.206784   0.042378
H  -2.688745  -1.254563  -0.732257
H  -2.742498  -1.287786   1.011304
C  -0.146330  -0.704269   0.008668
H  -1.333283   0.857516   0.861131
H  -1.398067   0.833955  -0.842831
H  -0.038290  -1.285142   0.864932
H   0.714200  -0.150526  -0.059154
H  -0.157529  -1.365154  -0.888311
