14
butane_opt
C  -3.915136   0.212501  -0.050567
C  -2.748406  -0.538506   0.005487
H  -4.935174  -0.420388   0.751645
H  -3.950333   1.204157  -1.208831
H  -3.543937   0.531391   0.768919
C  -1.401062   0.206888   0.087114
H  -2.450636  -1.145834  -0.699048
H  -2.968002  -1.133610   1.040114
C  -0.140324  -0.746735   0.003999
H  -1.482673   0.984527   0.974151
H  -1.545750   0.688153  -0.596649
H  -0.009601  -1.144713   0.763055
H   0.563774  -0.242558  -0.003721
H  -0.208548  -1.424737  -0.919887
