14
butane_opt
C  -3.958527   0.267969   0.047983
C  -2.705059  -0.631514   0.002711
H  -4.842704  -0.294405  -0.052517
H  -3.999382   0.851522  -0.811212
H  -3.986699   1.039679   0.992079
C  -1.404399   0.175478  -0.011811
H  -2.700079  -1.309508  -0.843382
H  -2.705563  -1.229110   0.878493
C  -0.142622  -0.686622   0.059005
H  -1.427005   0.829180   0.814313
H  -1.340156   0.833274  -0.894275
H  -0.097150  -1.400706   1.023420
H   0.774780  -0.069508  -0.090855
H  -0.174469  -1.222934  -0.738076
