butane_opt
 OpenBabel08242015393D

 14 13  0  0  0  0  0  0  0  0999 V2000
   -3.9370    0.2654    0.0136 C   0  0  0  0  0  0  0  0  0  0  0  0
   -2.6858   -0.6206    0.0347 C   0  0  0  0  0  0  0  0  0  0  0  0
   -4.8266   -0.3150    0.0807 H   0  0  0  0  0  0  0  0  0  0  0  0
   -4.0295    0.9453   -0.9081 H   0  0  0  0  0  0  0  0  0  0  0  0
   -3.9169    0.8817    0.8276 H   0  0  0  0  0  0  0  0  0  0  0  0
   -1.4103    0.1827    0.0262 C   0  0  0  0  0  0  0  0  0  0  0  0
   -2.7202   -1.2914   -0.8127 H   0  0  0  0  0  0  0  0  0  0  0  0
   -2.6753   -1.2536    0.9356 H   0  0  0  0  0  0  0  0  0  0  0  0
   -0.1823   -0.6911    0.0218 C   0  0  0  0  0  0  0  0  0  0  0  0
   -1.3577    0.8571    0.8907 H   0  0  0  0  0  0  0  0  0  0  0  0
   -1.3858    0.8039   -0.8817 H   0  0  0  0  0  0  0  0  0  0  0  0
   -0.1487   -1.2983    0.9420 H   0  0  0  0  0  0  0  0  0  0  0  0
    0.7474   -0.0591    0.0405 H   0  0  0  0  0  0  0  0  0  0  0  0
   -0.1316   -1.3747   -0.8429 H   0  0  0  0  0  0  0  0  0  0  0  0
  1  2  1  0  0  0  0
  1  3  1  0  0  0  0
  1  5  1  0  0  0  0
  2  8  1  0  0  0  0
  4  1  1  0  0  0  0
  6  2  1  0  0  0  0
  6 10  1  0  0  0  0
  7  2  1  0  0  0  0
  9  6  1  0  0  0  0
  9 13  1  0  0  0  0
  9 12  1  0  0  0  0
 11  6  1  0  0  0  0
 14  9  1  0  0  0  0
M  END
$$$$
