14
butane_opt
C  -4.023316   0.357607   0.177947
C  -2.723478  -0.666921  -0.186022
H  -4.915525  -0.292218   0.616808
H  -4.575097   1.110615  -0.786665
H  -3.472042   0.655052   1.003693
C  -1.364066   0.123887  -0.126053
H  -2.494265  -1.785138  -1.133474
H  -2.602576  -1.127334   0.558522
C  -0.130341  -0.635423   0.216499
H  -1.365422   0.748220   0.681301
H  -0.988472   0.850186  -1.175079
H  -0.361830  -1.483992   1.321249
H   0.865142   0.020166   0.088168
H  -0.247110  -1.274338  -0.745483
