butane_opt
 OpenBabel08242015393D

 14 10  0  0  0  0  0  0  0  0999 V2000
   -3.8381    0.3107    0.1073 C   0  0  0  0  0  0  0  0  0  0  0  0
   -2.6982   -0.6424   -0.1066 C   0  0  0  0  0  0  0  0  0  0  0  0
   -4.7430   -0.1809    0.0016 H   0  0  0  0  0  0  0  0  0  0  0  0
   -4.0675    0.8934   -0.8359 H   0  0  0  0  0  0  0  0  0  0  0  0
   -4.0858    1.1487    1.0867 H   0  0  0  0  0  0  0  0  0  0  0  0
   -1.4010    0.0978    0.0350 C   0  0  0  0  0  0  0  0  0  0  0  0
   -2.8234   -1.6219   -1.1917 H   0  0  0  0  0  0  0  0  0  0  0  0
   -2.6628   -1.2396    0.7027 H   0  0  0  0  0  0  0  0  0  0  0  0
   -0.2464   -0.6272    0.1125 C   0  0  0  0  0  0  0  0  0  0  0  0
   -1.4137    0.6197    0.6773 H   0  0  0  0  0  0  0  0  0  0  0  0
   -1.4154    0.9536   -0.9924 H   0  0  0  0  0  0  0  0  0  0  0  0
    0.0260   -1.7623    1.3795 H   0  0  0  0  0  0  0  0  0  0  0  0
    0.8632    0.0904   -0.6443 H   0  0  0  0  0  0  0  0  0  0  0  0
   -0.5271   -0.9789   -0.4602 H   0  0  0  0  0  0  0  0  0  0  0  0
  1  5  1  0  0  0  0
  2  1  1  0  0  0  0
  2  8  1  0  0  0  0
  3  1  1  0  0  0  0
  4  1  1  0  0  0  0
  6  9  1  0  0  0  0
  6 10  1  0  0  0  0
  7  2  1  0  0  0  0
 11  6  1  0  0  0  0
 14  9  1  0  0  0  0
M  RAD  5   2   2   6   2   9   3  12   2  13   2
M  END
$$$$
