14
butane_opt
C  -3.978548   0.184652  -0.128998
C  -2.753191  -0.536201   0.117000
H  -4.847720  -0.348088   0.378169
H  -4.356327   1.481417  -1.453374
H  -3.676997   0.492118   0.612703
C  -1.406298   0.234207   0.229769
H  -2.625318  -1.338177  -0.701204
H  -2.968303  -1.270899   1.022584
C  -0.075409  -0.757916  -0.081817
H  -1.162105   1.018531   1.113318
H  -1.658454   0.829358  -0.684358
H   0.290480  -1.143823   0.759625
H   0.837393  -0.083107  -0.248029
H  -0.275567  -1.576727  -1.053349
