butane_opt
 OpenBabel08242015393D

 14 13  0  0  0  0  0  0  0  0999 V2000
   -3.8652    0.1870   -0.1313 C   0  0  0  0  0  0  0  0  0  0  0  0
   -2.6884   -0.5602    0.1942 C   0  0  0  0  0  0  0  0  0  0  0  0
   -4.8888   -0.4134   -0.4884 H   0  0  0  0  0  0  0  0  0  0  0  0
   -3.5860    0.6254   -0.9442 H   0  0  0  0  0  0  0  0  0  0  0  0
   -4.0096    1.0225    0.8074 H   0  0  0  0  0  0  0  0  0  0  0  0
   -1.5210    0.2944    0.2188 C   0  0  0  0  0  0  0  0  0  0  0  0
   -2.4630   -1.2914   -0.6561 H   0  0  0  0  0  0  0  0  0  0  0  0
   -3.0082   -1.2153    1.3125 H   0  0  0  0  0  0  0  0  0  0  0  0
   -0.1792   -0.7465   -0.1378 C   0  0  0  0  0  0  0  0  0  0  0  0
   -1.3462    0.9213    1.0440 H   0  0  0  0  0  0  0  0  0  0  0  0
   -1.4366    0.9929   -0.7880 H   0  0  0  0  0  0  0  0  0  0  0  0
    0.3909   -1.7610    0.8134 H   0  0  0  0  0  0  0  0  0  0  0  0
    0.7130   -0.1419   -0.4123 H   0  0  0  0  0  0  0  0  0  0  0  0
   -0.3374   -1.3201   -0.9157 H   0  0  0  0  0  0  0  0  0  0  0  0
  1  2  1  0  0  0  0
  1  5  1  0  0  0  0
  2  6  1  0  0  0  0
  2  8  1  0  0  0  0
  3  1  1  0  0  0  0
  4  1  1  0  0  0  0
  6 10  1  0  0  0  0
  7  2  1  0  0  0  0
  9  6  1  0  0  0  0
  9 12  1  0  0  0  0
 11  6  1  0  0  0  0
 13  9  1  0  0  0  0
 14  9  1  0  0  0  0
M  END
$$$$
