14
butane_opt
C  -3.897542   0.303498   0.089788
C  -2.691413  -0.564626  -0.139468
H  -5.069378  -0.469592   0.510556
H  -4.206548   1.045039  -0.715990
H  -3.642962   0.746895   0.780397
C  -1.374118   0.105841  -0.024589
H  -2.666877  -1.349709  -1.006408
H  -2.679383  -1.474197   0.897623
C  -0.216867  -0.675575   0.111911
H  -1.526728   0.860600   0.898533
H  -1.224838   0.762618  -0.794764
H  -0.122020  -1.385423   1.121003
H   0.672648  -0.110232  -0.089587
H  -0.379724  -1.137678  -0.623369
