14
butane_opt
C  -3.871148   0.250209  -0.062984
C  -2.764132  -0.590201   0.208165
H  -4.741917  -0.242794  -0.015733
H  -3.800938   1.003657  -1.195166
H  -4.330690   0.532195   0.481784
C  -1.460075   0.230561   0.105065
H  -2.813375  -1.287512  -0.686523
H  -2.918871  -1.312650   1.160651
C  -0.117441  -0.706605  -0.092315
H  -1.274960   0.994106   0.907230
H  -1.263371   0.803838  -0.785349
H  -0.263813  -0.963421   0.537964
H   0.765478  -0.272829   0.280013
H   0.183811  -1.943362  -1.220386
