14
butane_opt
C  -3.957325   0.277808   0.000724
C  -2.700330  -0.637646   0.044431
H  -4.864233  -0.313438   0.192752
H  -4.020669   1.029652  -0.978768
H  -3.957855   0.858844   0.807021
C  -1.396205   0.175872   0.027346
H  -2.696224  -1.304860  -0.794993
H  -2.766627  -1.229465   0.939672
C  -0.147055  -0.681343   0.014857
H  -1.356921   0.907791   0.935927
H  -1.419154   0.711701  -0.797112
H  -0.175925  -1.289539   0.892104
H   0.778315  -0.082065   0.020303
H  -0.137258  -1.366213  -0.833571
