butane_opt
 OpenBabel08242015393D

 14 13  0  0  0  0  0  0  0  0999 V2000
   -3.9450    0.2585    0.0403 C   0  0  0  0  0  0  0  0  0  0  0  0
   -2.6924   -0.6028    0.0173 C   0  0  0  0  0  0  0  0  0  0  0  0
   -4.8772   -0.3758   -0.0218 H   0  0  0  0  0  0  0  0  0  0  0  0
   -3.9245    0.7465   -0.7593 H   0  0  0  0  0  0  0  0  0  0  0  0
   -3.9649    1.0725    0.9879 H   0  0  0  0  0  0  0  0  0  0  0  0
   -1.4030    0.1911   -0.0323 C   0  0  0  0  0  0  0  0  0  0  0  0
   -2.7499   -1.3215   -0.8433 H   0  0  0  0  0  0  0  0  0  0  0  0
   -2.6868   -1.2610    0.9227 H   0  0  0  0  0  0  0  0  0  0  0  0
   -0.1606   -0.6980    0.0640 C   0  0  0  0  0  0  0  0  0  0  0  0
   -1.3953    0.8584    0.7933 H   0  0  0  0  0  0  0  0  0  0  0  0
   -1.4316    0.8359   -0.9318 H   0  0  0  0  0  0  0  0  0  0  0  0
   -0.1795   -1.3805    1.0051 H   0  0  0  0  0  0  0  0  0  0  0  0
    0.7254   -0.1147    0.0176 H   0  0  0  0  0  0  0  0  0  0  0  0
   -0.1220   -1.3225   -0.7794 H   0  0  0  0  0  0  0  0  0  0  0  0
  1  5  1  0  0  0  0
  2  1  1  0  0  0  0
  2  8  1  0  0  0  0
  3  1  1  0  0  0  0
  4  1  1  0  0  0  0
  6  2  1  0  0  0  0
  6  9  1  0  0  0  0
  6 10  1  0  0  0  0
  7  2  1  0  0  0  0
  9 12  1  0  0  0  0
 11  6  1  0  0  0  0
 13  9  1  0  0  0  0
 14  9  1  0  0  0  0
M  END
$$$$
