14
butane_opt
C  -3.950943   0.299339  -0.049965
C  -2.661731  -0.657466   0.237278
H  -4.771869  -0.078324  -0.731352
H  -3.628144   0.590145  -0.789881
H  -4.066005   1.106399   0.896560
C  -1.424731   0.130359   0.009929
H  -2.573160  -1.577737  -0.645910
H  -2.838663  -1.235371   1.167508
C  -0.170171  -0.649013  -0.042490
H  -1.385459   0.787975   0.797055
H  -1.742353   0.998019  -0.950956
H  -0.266010  -1.028263   0.715371
H   0.839397   0.083177   0.175211
H  -0.172055  -1.578769  -1.054653
