butane_opt
 OpenBabel08242015393D

 14 13  0  0  0  0  0  0  0  0999 V2000
   -4.0023    0.3180   -0.1446 C   0  0  0  0  0  0  0  0  0  0  0  0
   -2.6572   -0.7161    0.2711 C   0  0  0  0  0  0  0  0  0  0  0  0
   -4.8184   -0.2464   -0.5430 H   0  0  0  0  0  0  0  0  0  0  0  0
   -3.8721    0.6013   -0.9210 H   0  0  0  0  0  0  0  0  0  0  0  0
   -4.5017    1.2211    0.7805 H   0  0  0  0  0  0  0  0  0  0  0  0
   -1.4009    0.1561    0.1408 C   0  0  0  0  0  0  0  0  0  0  0  0
   -2.4825   -0.9769   -0.3528 H   0  0  0  0  0  0  0  0  0  0  0  0
   -2.7313   -1.3944    1.2732 H   0  0  0  0  0  0  0  0  0  0  0  0
   -0.1389   -0.6694   -0.1605 C   0  0  0  0  0  0  0  0  0  0  0  0
   -1.0839    1.0450    1.0876 H   0  0  0  0  0  0  0  0  0  0  0  0
   -1.4014    0.6333   -0.7803 H   0  0  0  0  0  0  0  0  0  0  0  0
   -0.5091   -1.1400    0.6009 H   0  0  0  0  0  0  0  0  0  0  0  0
    0.8658    0.1213   -0.0231 H   0  0  0  0  0  0  0  0  0  0  0  0
   -0.0779   -1.4217   -0.9562 H   0  0  0  0  0  0  0  0  0  0  0  0
  1  2  1  0  0  0  0
  1  5  1  0  0  0  0
  2  8  1  0  0  0  0
  3  1  1  0  0  0  0
  4  1  1  0  0  0  0
  6  2  1  0  0  0  0
  6 10  1  0  0  0  0
  7  2  1  0  0  0  0
  9 13  1  0  0  0  0
  9  6  1  0  0  0  0
  9 12  1  0  0  0  0
 11  6  1  0  0  0  0
 14  9  1  0  0  0  0
M  END
$$$$
