14
butane_opt
C  -4.002907   0.323761   0.122060
C  -2.648277  -0.664642  -0.102268
H  -4.687721   0.013984   0.199891
H  -4.175382   0.737222  -0.688301
H  -3.975839   0.948089   0.996165
C  -1.361306   0.099736  -0.080968
H  -2.711899  -1.565811  -1.027484
H  -2.831780  -1.013005   0.504417
C  -0.174015  -0.638860   0.098930
H  -1.312322   0.826041   0.935118
H  -1.344625   0.570803  -0.751193
H  -0.167172  -1.854094   1.542794
H   0.782526   0.081350  -0.321294
H  -0.414971  -0.594321  -0.303459
