butane_opt
 OpenBabel08242015393D

 14  6  0  0  0  0  0  0  0  0999 V2000
   -3.9473    0.2113   -0.1323 C   0  0  0  0  0 15  0  0  0  0  0  0
   -2.7510   -0.5342    0.0912 C   0  0  0  0  0  0  0  0  0  0  0  0
   -4.9671   -0.5582    0.7846 H   0  0  0  0  0  0  0  0  0  0  0  0
   -4.2299    1.5819   -1.3871 H   0  0  0  0  0  0  0  0  0  0  0  0
   -3.8168    0.2112    0.2649 H   0  0  0  0  0  0  0  0  0  0  0  0
   -1.4082    0.2322    0.1960 C   0  0  0  0  0  0  0  0  0  0  0  0
   -2.7525   -0.9742   -0.4943 H   0  0  0  0  0  0  0  0  0  0  0  0
   -3.2111   -1.4361    1.2225 H   0  0  0  0  0  0  0  0  0  0  0  0
   -0.0636   -0.7728   -0.0760 C   0  0  0  0  0  0  0  0  0  0  0  0
   -1.4179    1.4273    1.3012 H   0  0  0  0  0  0  0  0  0  0  0  0
   -1.4237    0.5604   -0.5060 H   0  0  0  0  0  0  0  0  0  0  0  0
    0.1715   -0.8750    0.4600 H   0  0  0  0  0  0  0  0  0  0  0  0
    0.8619   -0.2766   -0.1193 H   0  0  0  0  0  0  0  0  0  0  0  0
   -0.1566   -1.7829   -1.1496 H   0  0  0  0  0  0  0  0  0  0  0  0
  2  5  1  0  0  0  0
  7  2  1  0  0  0  0
  9  6  1  0  0  0  0
 11  6  1  0  0  0  0
 13  9  1  0  0  0  0
 14  9  1  0  0  0  0
M  RAD  8   2   3   3   2   4   2   6   3   8   2   9   2  10   2  12   2
M  END
$$$$
