butane_opt
 OpenBabel08242015393D

 14 10  0  0  0  0  0  0  0  0999 V2000
   -3.9169    0.2823    0.0899 C   0  0  0  0  0  0  0  0  0  0  0  0
   -2.7144   -0.6725   -0.1154 C   0  0  0  0  0  0  0  0  0  0  0  0
   -4.7205   -0.0354    0.1401 H   0  0  0  0  0  0  0  0  0  0  0  0
   -4.1854    0.6211   -0.5438 H   0  0  0  0  0  0  0  0  0  0  0  0
   -3.8643    1.1806    1.0840 H   0  0  0  0  0  0  0  0  0  0  0  0
   -1.3954    0.1481    0.0006 C   0  0  0  0  0  0  0  0  0  0  0  0
   -2.7561   -1.4508   -1.0097 H   0  0  0  0  0  0  0  0  0  0  0  0
   -3.0746   -0.9194    0.5637 H   0  0  0  0  0  0  0  0  0  0  0  0
   -0.1325   -0.6572    0.1270 C   0  0  0  0  0  1  0  0  0  0  0  0
   -1.4028    0.8110    0.6951 H   0  0  0  0  0  0  0  0  0  0  0  0
   -1.3017    1.0019   -0.9985 H   0  0  0  0  0  0  0  0  0  0  0  0
   -0.0252   -1.8700    1.4108 H   0  0  0  0  0  0  0  0  0  0  0  0
    0.6100   -0.1627   -0.7570 H   0  0  0  0  0  0  0  0  0  0  0  0
   -0.4067   -0.8668   -0.2788 H   0  0  0  0  0  0  0  0  0  0  0  0
  1  3  1  0  0  0  0
  1  5  1  0  0  0  0
  2  1  1  0  0  0  0
  2  8  1  0  0  0  0
  4  1  1  0  0  0  0
  6 10  1  0  0  0  0
  7  2  1  0  0  0  0
 11  6  1  0  0  0  0
 13  9  1  0  0  0  0
 14  6  1  0  0  0  0
M  RAD  3   2   2   6   2  12   2
M  END
$$$$
