14
butane_opt
C  -3.903171   0.238411   0.125423
C  -2.715801  -0.542110  -0.055166
H  -4.843805  -0.328573  -0.414965
H  -3.933542   0.160910  -0.401640
H  -3.952239   1.463137   1.420524
C  -1.416826   0.140333  -0.136680
H  -2.726763  -1.028357  -0.875809
H  -3.031041  -1.322089   0.854465
C  -0.127854  -0.734121   0.126061
H  -1.394243   0.913880   0.681704
H  -1.366693   1.098217  -1.194637
H  -0.291230  -1.561380   1.233879
H   0.691324  -0.095939   0.058328
H  -0.177132  -1.059093  -0.515278
