14
butane_opt
C  -3.930085   0.288515  -0.076400
C  -2.728311  -0.594084   0.099738
H  -4.659643  -0.281991  -0.028212
H  -3.829108   1.078613  -1.044506
H  -3.841870   0.884875   0.859360
C  -1.386310   0.082610   0.107848
H  -2.373452  -1.300840  -0.826455
H  -2.801827  -1.134919   1.009321
C  -0.204702  -0.672207  -0.062293
H  -1.189761   1.044637   1.246349
H  -1.549441   0.309059  -0.374466
H  -0.145372  -1.571485   1.061555
H   0.775209  -0.015650  -0.697119
H  -0.427464  -0.691894  -0.560869
