14
butane_opt
C  -3.999866   0.319230   0.050319
C  -2.714711  -0.652237   0.033605
H  -4.810604  -0.241339  -0.171872
H  -4.002319   0.529320  -0.674266
H  -4.154192   1.171596   0.965904
C  -1.390847   0.097784  -0.045740
H  -2.747851  -1.272851  -0.708807
H  -2.352330  -1.293480   0.915906
C  -0.116315  -0.606390   0.094198
H  -1.451837   0.513555   0.534177
H  -1.296320   1.000280  -1.061215
H  -0.280099  -1.100084   0.809702
H   0.785130  -0.031246   0.194886
H  -0.078398  -1.650173  -0.973318
