14
butane_opt
C  -3.928576   0.207552   0.124263
C  -2.792391  -0.582151  -0.067245
H  -4.908855  -0.341684  -0.325136
H  -4.122271   0.109404  -0.186729
H  -3.948339   1.609975   1.468977
C  -1.396293   0.320253  -0.194320
H  -2.839859  -1.224126  -1.011504
H  -2.747553  -1.308362   0.899688
C  -0.061688  -0.785923   0.212225
H  -1.352713   0.702174   0.435206
H  -1.475866   0.993445  -1.196246
H  -0.295378  -1.510704   1.083555
H   0.709868  -0.233048  -0.063152
H   0.171278  -1.226130  -0.475188
