14
butane_opt
C  -4.025368   0.321821   0.202172
C  -2.667845  -0.650549  -0.162280
H  -4.992569  -0.442726   0.241501
H  -4.160881   0.778630  -0.518400
H  -3.827307   1.226753   1.233646
C  -1.330324   0.145300  -0.194084
H  -3.014545  -1.257722  -1.079086
H  -2.526269  -1.288645   0.733333
C  -0.143523  -0.653850   0.222362
H  -1.479008   0.363375   0.326698
H  -1.075822   1.044038  -1.255194
H  -0.706722  -1.086056   1.103901
H   0.768271  -0.106809   0.497166
H   0.023158  -1.671673  -0.693561
