14
butane_opt
C  -3.869372   0.257660   0.065673
C  -2.740045  -0.602545   0.029220
H  -4.863068  -0.523093  -0.445579
H  -3.779842   0.133780  -0.488030
H  -3.930812   1.547272   1.322059
C  -1.418815   0.265232  -0.123823
H  -2.845012  -1.192286  -0.700160
H  -2.698796  -1.367436   0.912316
C  -0.161378  -0.741198   0.130194
H  -1.373857   0.775323   0.483853
H  -1.556365   0.944816  -1.092851
H  -0.244967  -1.256941   0.931337
H   0.519280  -0.310656  -0.003486
H   0.058112  -1.401849  -0.630752
