14
butane_opt
C  -3.959894   0.273764   0.034555
C  -2.705077  -0.624857   0.032787
H  -4.879739  -0.335839  -0.044864
H  -3.916479   0.796813  -0.800727
H  -4.025580   1.027872   0.935217
C  -1.400193   0.185658  -0.007055
H  -2.734204  -1.318062  -0.861133
H  -2.681638  -1.239010   0.923350
C  -0.156442  -0.693978   0.043290
H  -1.369686   0.820453   0.801017
H  -1.314982   0.847671  -0.938516
H  -0.130360  -1.356616   0.978642
H   0.774604  -0.065923   0.012428
H  -0.090910  -1.338842  -0.796032
