butane_opt
 OpenBabel08242015393D

 14 13  0  0  0  0  0  0  0  0999 V2000
   -3.9461    0.2570   -0.0031 C   0  0  0  0  0  0  0  0  0  0  0  0
   -2.7143   -0.6020    0.0677 C   0  0  0  0  0  0  0  0  0  0  0  0
   -4.8973   -0.3543    0.0598 H   0  0  0  0  0  0  0  0  0  0  0  0
   -3.9456    0.8797   -0.9161 H   0  0  0  0  0  0  0  0  0  0  0  0
   -3.9886    0.8734    0.7966 H   0  0  0  0  0  0  0  0  0  0  0  0
   -1.4017    0.1991    0.0310 C   0  0  0  0  0  0  0  0  0  0  0  0
   -2.6432   -1.2563   -0.7523 H   0  0  0  0  0  0  0  0  0  0  0  0
   -2.7756   -1.2649    0.9802 H   0  0  0  0  0  0  0  0  0  0  0  0
   -0.1515   -0.7046    0.0096 C   0  0  0  0  0  0  0  0  0  0  0  0
   -1.3692    0.8387    0.8645 H   0  0  0  0  0  0  0  0  0  0  0  0
   -1.3996    0.8495   -0.8616 H   0  0  0  0  0  0  0  0  0  0  0  0
   -0.0988   -1.2086    0.8294 H   0  0  0  0  0  0  0  0  0  0  0  0
    0.7422   -0.1459    0.1072 H   0  0  0  0  0  0  0  0  0  0  0  0
   -0.0807   -1.4864   -0.9353 H   0  0  0  0  0  0  0  0  0  0  0  0
  1  3  1  0  0  0  0
  1  2  1  0  0  0  0
  1  5  1  0  0  0  0
  2  8  1  0  0  0  0
  4  1  1  0  0  0  0
  6  2  1  0  0  0  0
  6 10  1  0  0  0  0
  7  2  1  0  0  0  0
  9  6  1  0  0  0  0
  9 13  1  0  0  0  0
  9 12  1  0  0  0  0
 11  6  1  0  0  0  0
 14  9  1  0  0  0  0
M  END
$$$$
