butane_opt
 OpenBabel08242015393D

 14 13  0  0  0  0  0  0  0  0999 V2000
   -3.8648    0.2079    0.0568 C   0  0  0  0  0  0  0  0  0  0  0  0
   -2.7567   -0.5649    0.0312 C   0  0  0  0  0  0  0  0  0  0  0  0
   -4.8806   -0.3805    0.1450 H   0  0  0  0  0  0  0  0  0  0  0  0
   -3.5871    1.0316   -1.0078 H   0  0  0  0  0  0  0  0  0  0  0  0
   -4.0707    0.8172    0.8020 H   0  0  0  0  0  0  0  0  0  0  0  0
   -1.4430    0.2137   -0.0620 C   0  0  0  0  0  0  0  0  0  0  0  0
   -2.6717   -0.9954   -0.5414 H   0  0  0  0  0  0  0  0  0  0  0  0
   -2.6687   -1.2479    1.0258 H   0  0  0  0  0  0  0  0  0  0  0  0
   -0.1224   -0.7363    0.0166 C   0  0  0  0  0  0  0  0  0  0  0  0
   -1.5606    1.1092    0.8562 H   0  0  0  0  0  0  0  0  0  0  0  0
   -1.4504    0.6765   -0.7183 H   0  0  0  0  0  0  0  0  0  0  0  0
   -0.5761   -1.1118    0.7824 H   0  0  0  0  0  0  0  0  0  0  0  0
    0.7397   -0.1040    0.4462 H   0  0  0  0  0  0  0  0  0  0  0  0
   -0.0078   -1.7620   -0.9069 H   0  0  0  0  0  0  0  0  0  0  0  0
  1  3  1  0  0  0  0
  1  5  1  0  0  0  0
  2  1  1  0  0  0  0
  2  8  1  0  0  0  0
  4  1  1  0  0  0  0
  6  9  1  0  0  0  0
  6  2  1  0  0  0  0
  6 10  1  0  0  0  0
  7  2  1  0  0  0  0
  9 13  1  0  0  0  0
  9 12  1  0  0  0  0
 11  6  1  0  0  0  0
 14  9  1  0  0  0  0
M  END
$$$$
