14
butane_opt
C  -3.971984   0.255606  -0.137817
C  -2.743307  -0.615964   0.276055
H  -4.791209  -0.168578   0.097920
H  -4.054296   1.248445  -1.286746
H  -4.136303   0.801083   0.600614
C  -1.353792   0.119447   0.099102
H  -2.545987  -0.929358  -0.339248
H  -2.866139  -1.304849   1.089256
C  -0.109453  -0.689010  -0.106654
H  -1.373383   0.808695   0.882968
H  -1.271820   0.812803  -0.765950
H  -0.331960  -0.541231   0.235481
H   0.827596   0.117974   0.797772
H  -0.312389  -2.193168  -1.527543
