butane_opt
 OpenBabel08242015393D

 14 11  0  0  0  0  0  0  0  0999 V2000
   -3.9199    0.1826   -0.1182 C   0  0  0  0  0  0  0  0  0  0  0  0
   -2.7586   -0.5847    0.2210 C   0  0  0  0  0  0  0  0  0  0  0  0
   -4.8944   -0.3670    0.0703 H   0  0  0  0  0  0  0  0  0  0  0  0
   -3.7575    0.8426   -1.1352 H   0  0  0  0  0  0  0  0  0  0  0  0
   -4.0936    0.9002    0.5867 H   0  0  0  0  0  0  0  0  0  0  0  0
   -1.4391    0.2727    0.0869 C   0  0  0  0  0  0  0  0  0  0  0  0
   -2.8037   -0.9430   -0.3740 H   0  0  0  0  0  0  0  0  0  0  0  0
   -2.7842   -1.2511    1.2221 H   0  0  0  0  0  0  0  0  0  0  0  0
   -0.0793   -0.7207   -0.0544 C   0  0  0  0  0  0  0  0  0  0  0  0
   -1.5300    0.8246    0.9518 H   0  0  0  0  0  0  0  0  0  0  0  0
   -1.6569    0.9857   -0.9312 H   0  0  0  0  0  0  0  0  0  0  0  0
    0.0745   -0.7276    0.4549 H   0  0  0  0  0  0  0  0  0  0  0  0
    0.6695   -0.3694    0.4694 H   0  0  0  0  0  0  0  0  0  0  0  0
    0.1105   -2.2232   -1.5650 H   0  0  0  0  0  0  0  0  0  0  0  0
  1  3  1  0  0  0  0
  1  2  1  0  0  0  0
  1  5  1  0  0  0  0
  2  8  1  0  0  0  0
  4  1  1  0  0  0  0
  6  2  1  0  0  0  0
  6 10  1  0  0  0  0
  7  2  1  0  0  0  0
  9  6  1  0  0  0  0
  9 13  1  0  0  0  0
 11  6  1  0  0  0  0
M  RAD  3   9   3  12   2  14   2
M  END
$$$$
