butane_opt
 OpenBabel08242015393D

 14 11  0  0  0  0  0  0  0  0999 V2000
   -3.9785    0.1847   -0.1290 C   0  0  0  0  0  0  0  0  0  0  0  0
   -2.7532   -0.5362    0.1170 C   0  0  0  0  0  0  0  0  0  0  0  0
   -4.8477   -0.3481    0.3782 H   0  0  0  0  0  0  0  0  0  0  0  0
   -4.3563    1.4814   -1.4534 H   0  0  0  0  0  0  0  0  0  0  0  0
   -3.6770    0.4921    0.6127 H   0  0  0  0  0  0  0  0  0  0  0  0
   -1.4063    0.2342    0.2298 C   0  0  0  0  0  0  0  0  0  0  0  0
   -2.6253   -1.3382   -0.7012 H   0  0  0  0  0  0  0  0  0  0  0  0
   -2.9683   -1.2709    1.0226 H   0  0  0  0  0  0  0  0  0  0  0  0
   -0.0754   -0.7579   -0.0818 C   0  0  0  0  0  0  0  0  0  0  0  0
   -1.1621    1.0185    1.1133 H   0  0  0  0  0  0  0  0  0  0  0  0
   -1.6585    0.8294   -0.6844 H   0  0  0  0  0  0  0  0  0  0  0  0
    0.2905   -1.1438    0.7596 H   0  0  0  0  0  0  0  0  0  0  0  0
    0.8374   -0.0831   -0.2480 H   0  0  0  0  0  0  0  0  0  0  0  0
   -0.2756   -1.5767   -1.0533 H   0  0  0  0  0  0  0  0  0  0  0  0
  1  2  1  0  0  0  0
  1  3  1  0  0  0  0
  1  5  1  0  0  0  0
  2  8  1  0  0  0  0
  6 10  1  0  0  0  0
  7  2  1  0  0  0  0
  9  6  1  0  0  0  0
  9 12  1  0  0  0  0
 11  6  1  0  0  0  0
 13  9  1  0  0  0  0
 14  9  1  0  0  0  0
M  RAD  4   1   2   2   2   4   2   6   2
M  END
$$$$
