butane_opt
 OpenBabel08242015393D

 14 13  0  0  0  0  0  0  0  0999 V2000
   -3.9383    0.2135    0.2266 C   0  0  0  0  0  0  0  0  0  0  0  0
   -2.7837   -0.5877   -0.1734 C   0  0  0  0  0  0  0  0  0  0  0  0
   -4.7923   -0.3179    0.0942 H   0  0  0  0  0  0  0  0  0  0  0  0
   -4.1697    0.6537   -0.6537 H   0  0  0  0  0  0  0  0  0  0  0  0
   -3.5615    1.1610    1.2244 H   0  0  0  0  0  0  0  0  0  0  0  0
   -1.3921    0.2810   -0.2174 C   0  0  0  0  0  0  0  0  0  0  0  0
   -3.0542   -1.2006   -1.0194 H   0  0  0  0  0  0  0  0  0  0  0  0
   -2.4157   -1.3385    0.9235 H   0  0  0  0  0  0  0  0  0  0  0  0
   -0.1504   -0.7202    0.2145 C   0  0  0  0  0  0  0  0  0  0  0  0
   -1.6133    0.6924    0.4349 H   0  0  0  0  0  0  0  0  0  0  0  0
   -1.1158    1.0357   -1.2509 H   0  0  0  0  0  0  0  0  0  0  0  0
   -0.2951   -1.3948    1.0934 H   0  0  0  0  0  0  0  0  0  0  0  0
    0.6865   -0.2866    0.6594 H   0  0  0  0  0  0  0  0  0  0  0  0
    0.4732   -1.7167   -0.7139 H   0  0  0  0  0  0  0  0  0  0  0  0
  1  5  1  0  0  0  0
  2  1  1  0  0  0  0
  2  8  1  0  0  0  0
  3  1  1  0  0  0  0
  4  1  1  0  0  0  0
  6  2  1  0  0  0  0
  6  9  1  0  0  0  0
  6 10  1  0  0  0  0
  7  2  1  0  0  0  0
  9 13  1  0  0  0  0
  9 12  1  0  0  0  0
 11  6  1  0  0  0  0
 14  9  1  0  0  0  0
M  END
$$$$
