14
butane_opt
C  -3.902801   0.239779   0.000146
C  -2.658038  -0.607887   0.022390
H  -4.891116  -0.286181   0.750478
H  -4.116892   1.640244  -1.353141
H  -3.931403   0.449963   0.470191
C  -1.385026   0.131964   0.124314
H  -2.688237  -1.339624  -0.863498
H  -2.634476  -0.976875   0.760604
C  -0.183444  -0.654666  -0.035251
H  -1.776029   0.821475   0.952540
H  -1.383056   0.628189  -0.833841
H  -0.303834  -1.158191   0.844280
H   0.682972  -0.006820   0.174650
H  -0.404751  -1.550981  -0.878656
