butane_opt
 OpenBabel08242015393D

 14 10  0  0  0  0  0  0  0  0999 V2000
   -3.8919    0.1776   -0.0804 C   0  0  0  0  0  1  0  0  0  0  0  0
   -2.7215   -0.5099    0.0439 C   0  0  0  0  0  0  0  0  0  0  0  0
   -4.9559   -0.4339    0.8039 H   0  0  0  0  0  0  0  0  0  0  0  0
   -4.1813    1.6202   -1.4574 H   0  0  0  0  0  0  0  0  0  0  0  0
   -3.4958    0.2218    0.3964 H   0  0  0  0  0  0  0  0  0  0  0  0
   -1.4387    0.2134    0.2155 C   0  0  0  0  0  0  0  0  0  0  0  0
   -2.4566   -1.2320   -0.8720 H   0  0  0  0  0  0  0  0  0  0  0  0
   -2.7900   -1.2540    0.9879 H   0  0  0  0  0  0  0  0  0  0  0  0
   -0.1338   -0.7774   -0.0737 C   0  0  0  0  0  0  0  0  0  0  0  0
   -1.3480    1.0137    1.0875 H   0  0  0  0  0  0  0  0  0  0  0  0
   -1.7313    0.9765   -0.6221 H   0  0  0  0  0  0  0  0  0  0  0  0
   -0.0971   -0.9693    0.6883 H   0  0  0  0  0  0  0  0  0  0  0  0
    0.8099   -0.1634    0.0747 H   0  0  0  0  0  0  0  0  0  0  0  0
   -0.4680   -1.5222   -0.9775 H   0  0  0  0  0  0  0  0  0  0  0  0
  1  3  1  0  0  0  0
  2  5  1  0  0  0  0
  2  8  1  0  0  0  0
  6 10  1  0  0  0  0
  7  2  1  0  0  0  0
  9 13  1  0  0  0  0
  9  6  1  0  0  0  0
  9 12  1  0  0  0  0
 11  6  1  0  0  0  0
 14  9  1  0  0  0  0
M  RAD  3   2   2   4   2   6   2
M  END
$$$$
