14
butane_opt
C  -3.879063   0.213263   0.100788
C  -2.707253  -0.562361   0.033134
H  -4.685727  -0.361477  -0.730706
H  -3.722398   0.196904  -0.437547
H  -3.943686   1.267906   1.277984
C  -1.421014   0.258394  -0.082115
H  -2.759084  -1.222840  -0.846174
H  -3.073592  -0.967258   0.969449
C  -0.189270  -0.751143   0.095390
H  -1.527633   0.634522   0.451679
H  -1.415528   1.221879  -1.255193
H  -0.168072  -1.498066   1.043225
H   0.627078  -0.311955   0.065444
H   0.014863  -1.373295  -0.802892
