butane_opt
 OpenBabel08242015393D

 14 10  0  0  0  0  0  0  0  0999 V2000
   -3.9757    0.2401    0.0193 C   0  0  0  0  0  0  0  0  0  0  0  0
   -2.7094   -0.6504    0.1402 C   0  0  0  0  0  0  0  0  0  0  0  0
   -4.7425   -0.4037   -0.0083 H   0  0  0  0  0  0  0  0  0  0  0  0
   -3.8401    1.1497   -1.1925 H   0  0  0  0  0  0  0  0  0  0  0  0
   -4.2477    0.7723    0.6778 H   0  0  0  0  0  0  0  0  0  0  0  0
   -1.3801    0.2954    0.0032 C   0  0  0  0  0  0  0  0  0  0  0  0
   -3.0896   -1.2096   -0.7752 H   0  0  0  0  0  0  0  0  0  0  0  0
   -2.6643   -1.3404    1.1326 H   0  0  0  0  0  0  0  0  0  0  0  0
   -0.0876   -0.7135   -0.0077 C   0  0  0  0  0  0  0  0  0  0  0  0
   -1.5239    0.7882    0.6200 H   0  0  0  0  0  0  0  0  0  0  0  0
   -1.4839    0.8695   -0.9323 H   0  0  0  0  0  0  0  0  0  0  0  0
   -0.5077   -0.7543    0.5518 H   0  0  0  0  0  0  0  0  0  0  0  0
    0.6776   -0.2497    0.6971 H   0  0  0  0  0  0  0  0  0  0  0  0
    0.2665   -2.1717   -1.3051 H   0  0  0  0  0  0  0  0  0  0  0  0
  1  2  1  0  0  0  0
  1  5  1  0  0  0  0
  2  8  1  0  0  0  0
  3  1  1  0  0  0  0
  6  2  1  0  0  0  0
  6 10  1  0  0  0  0
  7  2  1  0  0  0  0
  9 12  1  0  0  0  0
  9 13  1  0  0  0  0
 11  6  1  0  0  0  0
M  RAD  5   1   2   4   2   6   2   9   3  14   2
M  END
$$$$
