14
butane_opt
C  -3.887186   0.334078  -0.059984
C  -2.688831  -0.714091   0.087245
H  -4.671216  -0.253326  -0.111665
H  -3.881198   0.744502  -0.821634
H  -4.320541   1.086426   0.820488
C  -1.445641   0.139092   0.120699
H  -2.482450  -1.331132  -0.594161
H  -2.596976  -1.376388   0.865457
C  -0.185604  -0.646309  -0.073865
H  -1.369175   1.023198   1.193997
H  -1.485148   0.659036  -0.660086
H  -0.250063  -1.700314   0.998879
H   0.803904   0.125739  -0.471579
H  -0.314467  -0.761134  -0.603789
