butane_opt
 OpenBabel08242015393D

 14 11  0  0  0  0  0  0  0  0999 V2000
   -4.0133    0.2043    0.2037 C   0  0  0  0  0  0  0  0  0  0  0  0
   -2.7280   -0.5224   -0.1737 C   0  0  0  0  0  0  0  0  0  0  0  0
   -5.0075   -0.5983    0.0744 H   0  0  0  0  0  0  0  0  0  0  0  0
   -3.9759    0.5648   -0.6569 H   0  0  0  0  0  0  0  0  0  0  0  0
   -3.8011    0.9399    1.0965 H   0  0  0  0  0  0  0  0  0  0  0  0
   -1.4224    0.2685   -0.1027 C   0  0  0  0  0  0  0  0  0  0  0  0
   -2.7100   -1.4114   -1.1815 H   0  0  0  0  0  0  0  0  0  0  0  0
   -2.6710   -0.9553    0.5618 H   0  0  0  0  0  0  0  0  0  0  0  0
   -0.0539   -0.7714    0.1415 C   0  0  0  0  0  0  0  0  0  0  0  0
   -1.3424    1.1226    0.8932 H   0  0  0  0  0  0  0  0  0  0  0  0
   -1.2009    0.8857   -1.1932 H   0  0  0  0  0  0  0  0  0  0  0  0
   -0.0788   -2.1491    1.5264 H   0  0  0  0  0  0  0  0  0  0  0  0
    0.6378   -0.3368   -0.2321 H   0  0  0  0  0  0  0  0  0  0  0  0
   -0.1912   -0.7160   -0.1556 H   0  0  0  0  0  0  0  0  0  0  0  0
  1  5  1  0  0  0  0
  2  6  1  0  0  0  0
  2  1  1  0  0  0  0
  2  8  1  0  0  0  0
  3  1  1  0  0  0  0
  4  1  1  0  0  0  0
  6  9  1  0  0  0  0
  6 10  1  0  0  0  0
  7  2  1  0  0  0  0
 11  6  1  0  0  0  0
 13  9  1  0  0  0  0
M  RAD  3   9   3  12   2  14   2
M  END
$$$$
