butane_opt
 OpenBabel08242015393D

 14 12  0  0  0  0  0  0  0  0999 V2000
   -3.9025    0.2377    0.1605 C   0  0  0  0  0  0  0  0  0  0  0  0
   -2.7610   -0.6014   -0.1798 C   0  0  0  0  0  0  0  0  0  0  0  0
   -4.9781   -0.3995    0.5290 H   0  0  0  0  0  0  0  0  0  0  0  0
   -3.9855    0.7004   -0.5860 H   0  0  0  0  0  0  0  0  0  0  0  0
   -3.7413    0.8503    1.0804 H   0  0  0  0  0  0  0  0  0  0  0  0
   -1.4213    0.2933   -0.1225 C   0  0  0  0  0  0  0  0  0  0  0  0
   -2.9670   -1.4124   -1.1554 H   0  0  0  0  0  0  0  0  0  0  0  0
   -2.4914   -1.1836    0.5944 H   0  0  0  0  0  0  0  0  0  0  0  0
   -0.1514   -0.7469    0.1556 C   0  0  0  0  0  0  0  0  0  0  0  0
   -1.4643    0.9647    0.8626 H   0  0  0  0  0  0  0  0  0  0  0  0
   -1.4779    1.0056   -1.1199 H   0  0  0  0  0  0  0  0  0  0  0  0
   -0.1397   -1.8432    1.4081 H   0  0  0  0  0  0  0  0  0  0  0  0
    0.7084   -0.2052    0.1063 H   0  0  0  0  0  0  0  0  0  0  0  0
    0.3234   -1.1408   -0.3908 H   0  0  0  0  0  0  0  0  0  0  0  0
  1  3  1  0  0  0  0
  1  5  1  0  0  0  0
  2  6  1  0  0  0  0
  2  1  1  0  0  0  0
  2  8  1  0  0  0  0
  4  1  1  0  0  0  0
  6  9  1  0  0  0  0
  6 10  1  0  0  0  0
  7  2  1  0  0  0  0
 11  6  1  0  0  0  0
 13  9  1  0  0  0  0
 14  9  1  0  0  0  0
M  RAD  2   9   2  12   2
M  END
$$$$
