butane_opt
 OpenBabel08242015393D

 14 13  0  0  0  0  0  0  0  0999 V2000
   -3.8400    0.2033    0.0419 C   0  0  0  0  0  0  0  0  0  0  0  0
   -2.7016   -0.5189    0.0151 C   0  0  0  0  0  0  0  0  0  0  0  0
   -4.9167   -0.6303    0.0724 H   0  0  0  0  0  0  0  0  0  0  0  0
   -3.9286    0.6975   -0.7758 H   0  0  0  0  0  0  0  0  0  0  0  0
   -3.7621    0.8487    0.9719 H   0  0  0  0  0  0  0  0  0  0  0  0
   -1.5283    0.2790   -0.0866 C   0  0  0  0  0  0  0  0  0  0  0  0
   -2.7657   -0.9894   -0.6087 H   0  0  0  0  0  0  0  0  0  0  0  0
   -2.6502   -1.3828    1.0263 H   0  0  0  0  0  0  0  0  0  0  0  0
   -0.1326   -0.7553    0.0745 C   0  0  0  0  0  0  0  0  0  0  0  0
   -1.6889    0.8154    0.8004 H   0  0  0  0  0  0  0  0  0  0  0  0
   -1.3078    0.6889   -0.8585 H   0  0  0  0  0  0  0  0  0  0  0  0
   -0.2227   -1.1815    0.7357 H   0  0  0  0  0  0  0  0  0  0  0  0
    0.7481   -0.1510    0.4790 H   0  0  0  0  0  0  0  0  0  0  0  0
   -0.0627   -1.6939   -0.9823 H   0  0  0  0  0  0  0  0  0  0  0  0
  1  3  1  0  0  0  0
  1  5  1  0  0  0  0
  2  1  1  0  0  0  0
  2  8  1  0  0  0  0
  4  1  1  0  0  0  0
  6  2  1  0  0  0  0
  6  9  1  0  0  0  0
  6 10  1  0  0  0  0
  7  2  1  0  0  0  0
  9 13  1  0  0  0  0
  9 12  1  0  0  0  0
 11  6  1  0  0  0  0
 14  9  1  0  0  0  0
M  END
$$$$
