14
butane_opt
C  -3.959534   0.276731   0.002773
C  -2.701585  -0.629809   0.036766
H  -4.853006  -0.266337   0.036013
H  -3.997335   0.883648  -0.886291
H  -4.001406   0.912858   0.839647
C  -1.390437   0.173991   0.045166
H  -2.721401  -1.298867  -0.815970
H  -2.700849  -1.282852   0.948066
C  -0.148610  -0.683528   0.016780
H  -1.404505   0.892559   0.925648
H  -1.392398   0.776796  -0.850696
H  -0.115229  -1.373225   0.981031
H   0.780924  -0.074900  -0.153273
H  -0.223302  -1.282102  -0.802916
