butane_opt
 OpenBabel08242015393D

 14 10  0  0  0  0  0  0  0  0999 V2000
   -4.0029    0.3238    0.1221 C   0  0  0  0  0  0  0  0  0  0  0  0
   -2.6483   -0.6646   -0.1023 C   0  0  0  0  0  0  0  0  0  0  0  0
   -4.6877    0.0140    0.1999 H   0  0  0  0  0  0  0  0  0  0  0  0
   -4.1754    0.7372   -0.6883 H   0  0  0  0  0  0  0  0  0  0  0  0
   -3.9758    0.9481    0.9962 H   0  0  0  0  0  0  0  0  0  0  0  0
   -1.3613    0.0997   -0.0810 C   0  0  0  0  0  0  0  0  0  0  0  0
   -2.7119   -1.5658   -1.0275 H   0  0  0  0  0  0  0  0  0  0  0  0
   -2.8318   -1.0130    0.5044 H   0  0  0  0  0  0  0  0  0  0  0  0
   -0.1740   -0.6389    0.0989 C   0  0  0  0  0  1  0  0  0  0  0  0
   -1.3123    0.8260    0.9351 H   0  0  0  0  0  0  0  0  0  0  0  0
   -1.3446    0.5708   -0.7512 H   0  0  0  0  0  0  0  0  0  0  0  0
   -0.1672   -1.8541    1.5428 H   0  0  0  0  0  0  0  0  0  0  0  0
    0.7825    0.0814   -0.3213 H   0  0  0  0  0  0  0  0  0  0  0  0
   -0.4150   -0.5943   -0.3035 H   0  0  0  0  0  0  0  0  0  0  0  0
  1  3  1  0  0  0  0
  1  5  1  0  0  0  0
  2  1  1  0  0  0  0
  2  8  1  0  0  0  0
  4  1  1  0  0  0  0
  6 10  1  0  0  0  0
  7  2  1  0  0  0  0
 11  6  1  0  0  0  0
 13  9  1  0  0  0  0
 14  6  1  0  0  0  0
M  RAD  3   2   2   6   2  12   2
M  END
$$$$
