14
butane_opt
C  -3.965406   0.246803   0.154407
C  -2.719803  -0.614700  -0.112618
H  -4.897718  -0.304698   0.297276
H  -4.245875   0.527223  -0.406361
H  -3.927129   1.088981   1.233589
C  -1.446063   0.214013  -0.229610
H  -2.582042  -1.213524  -0.806832
H  -2.813042  -1.494646   0.932116
C  -0.095695  -0.686286   0.177772
H  -1.415443   0.816555   0.611601
H  -1.055693   1.185979  -1.233741
H  -0.312086  -1.113811   0.905900
H   0.471879  -0.267355   0.887528
H   0.496769  -1.680104  -0.841019
