butane_opt
 OpenBabel08242015393D

 14 11  0  0  0  0  0  0  0  0999 V2000
   -3.9647    0.2707   -0.1309 C   0  0  0  0  0  0  0  0  0  0  0  0
   -2.7882   -0.5883    0.2263 C   0  0  0  0  0  0  0  0  0  0  0  0
   -4.7772   -0.3818    0.0862 H   0  0  0  0  0  0  0  0  0  0  0  0
   -3.8283    0.7995   -0.8788 H   0  0  0  0  0  0  0  0  0  0  0  0
   -4.0510    0.7809    0.5619 H   0  0  0  0  0  0  0  0  0  0  0  0
   -1.3739    0.2167    0.0351 C   0  0  0  0  0  0  0  0  0  0  0  0
   -2.5609   -0.9577   -0.4028 H   0  0  0  0  0  0  0  0  0  0  0  0
   -2.8048   -1.5395    1.3039 H   0  0  0  0  0  0  0  0  0  0  0  0
   -0.1435   -0.7170   -0.0832 C   0  0  0  0  0  0  0  0  0  0  0  0
   -1.0910    0.9328    1.0474 H   0  0  0  0  0  0  0  0  0  0  0  0
   -1.6084    0.6078   -0.6840 H   0  0  0  0  0  0  0  0  0  0  0  0
   -0.1332   -0.7109    0.4848 H   0  0  0  0  0  0  0  0  0  0  0  0
    0.7477   -0.1258    0.6022 H   0  0  0  0  0  0  0  0  0  0  0  0
    0.2877   -2.0642   -1.2928 H   0  0  0  0  0  0  0  0  0  0  0  0
  1  3  1  0  0  0  0
  1  2  1  0  0  0  0
  1  5  1  0  0  0  0
  2  8  1  0  0  0  0
  4  1  1  0  0  0  0
  6  2  1  0  0  0  0
  6 10  1  0  0  0  0
  7  2  1  0  0  0  0
  9  6  1  0  0  0  0
  9 13  1  0  0  0  0
 11  6  1  0  0  0  0
M  RAD  3   9   3  12   2  14   2
M  END
$$$$
