butane_opt
 OpenBabel08242015393D

 14 13  0  0  0  0  0  0  0  0999 V2000
   -3.9566    0.1707    0.1582 C   0  0  0  0  0  0  0  0  0  0  0  0
   -2.7073   -0.5526   -0.2011 C   0  0  0  0  0  0  0  0  0  0  0  0
   -4.8059   -0.2737    0.6342 H   0  0  0  0  0  0  0  0  0  0  0  0
   -4.2157    0.8604   -0.8107 H   0  0  0  0  0  0  0  0  0  0  0  0
   -3.5687    0.6717    1.0873 H   0  0  0  0  0  0  0  0  0  0  0  0
   -1.4188    0.2740   -0.0993 C   0  0  0  0  0  0  0  0  0  0  0  0
   -2.8581   -1.4048   -1.1638 H   0  0  0  0  0  0  0  0  0  0  0  0
   -2.3698   -0.8390    0.6106 H   0  0  0  0  0  0  0  0  0  0  0  0
   -0.1699   -0.7183    0.2315 C   0  0  0  0  0  0  0  0  0  0  0  0
   -1.6198    0.8138    0.6605 H   0  0  0  0  0  0  0  0  0  0  0  0
   -1.2078    1.0526   -1.1652 H   0  0  0  0  0  0  0  0  0  0  0  0
    0.2293   -1.6970    1.2058 H   0  0  0  0  0  0  0  0  0  0  0  0
    0.6192   -0.3861   -0.0999 H   0  0  0  0  0  0  0  0  0  0  0  0
   -0.1751   -1.3601   -0.5900 H   0  0  0  0  0  0  0  0  0  0  0  0
  1  3  1  0  0  0  0
  1  5  1  0  0  0  0
  2  6  1  0  0  0  0
  2  1  1  0  0  0  0
  2  8  1  0  0  0  0
  4  1  1  0  0  0  0
  6  9  1  0  0  0  0
  6 10  1  0  0  0  0
  7  2  1  0  0  0  0
  9 12  1  0  0  0  0
 11  6  1  0  0  0  0
 13  9  1  0  0  0  0
 14  9  1  0  0  0  0
M  END
$$$$
