butane_opt
 OpenBabel08242015393D

 14 12  0  0  0  0  0  0  0  0999 V2000
   -4.0050    0.3080   -0.1532 C   0  0  0  0  0  0  0  0  0  0  0  0
   -2.6922   -0.7200    0.1518 C   0  0  0  0  0  0  0  0  0  0  0  0
   -4.8472   -0.0841   -0.1429 H   0  0  0  0  0  0  0  0  0  0  0  0
   -3.9907    1.1854   -1.2267 H   0  0  0  0  0  0  0  0  0  0  0  0
   -4.4924    1.1286    0.7123 H   0  0  0  0  0  0  0  0  0  0  0  0
   -1.3010    0.1128    0.2806 C   0  0  0  0  0  0  0  0  0  0  0  0
   -2.5976   -1.2166   -0.5927 H   0  0  0  0  0  0  0  0  0  0  0  0
   -2.9761   -1.5324    1.1916 H   0  0  0  0  0  0  0  0  0  0  0  0
   -0.1823   -0.6407   -0.1584 C   0  0  0  0  0  0  0  0  0  0  0  0
   -1.4758    1.0924    1.2511 H   0  0  0  0  0  0  0  0  0  0  0  0
   -1.2632    0.6946   -0.4773 H   0  0  0  0  0  0  0  0  0  0  0  0
    0.5210   -1.4725    0.9202 H   0  0  0  0  0  0  0  0  0  0  0  0
    0.8794    0.0122   -0.7830 H   0  0  0  0  0  0  0  0  0  0  0  0
   -0.6384   -0.9690   -0.8371 H   0  0  0  0  0  0  0  0  0  0  0  0
  1  3  1  0  0  0  0
  1  2  1  0  0  0  0
  1  5  1  0  0  0  0
  2  6  1  0  0  0  0
  2  8  1  0  0  0  0
  4  1  1  0  0  0  0
  6 10  1  0  0  0  0
  7  2  1  0  0  0  0
  9  6  1  0  0  0  0
 11  6  1  0  0  0  0
 13  9  1  0  0  0  0
 14  9  1  0  0  0  0
M  RAD  2   9   2  12   2
M  END
$$$$
