butane_opt
 OpenBabel08242015393D

 14 12  0  0  0  0  0  0  0  0999 V2000
   -3.9654    0.2468    0.1544 C   0  0  0  0  0  0  0  0  0  0  0  0
   -2.7198   -0.6147   -0.1126 C   0  0  0  0  0  0  0  0  0  0  0  0
   -4.8977   -0.3047    0.2973 H   0  0  0  0  0  0  0  0  0  0  0  0
   -4.2459    0.5272   -0.4064 H   0  0  0  0  0  0  0  0  0  0  0  0
   -3.9271    1.0890    1.2336 H   0  0  0  0  0  0  0  0  0  0  0  0
   -1.4461    0.2140   -0.2296 C   0  0  0  0  0  0  0  0  0  0  0  0
   -2.5820   -1.2135   -0.8068 H   0  0  0  0  0  0  0  0  0  0  0  0
   -2.8130   -1.4946    0.9321 H   0  0  0  0  0  0  0  0  0  0  0  0
   -0.0957   -0.6863    0.1778 C   0  0  0  0  0  0  0  0  0  0  0  0
   -1.4154    0.8166    0.6116 H   0  0  0  0  0  0  0  0  0  0  0  0
   -1.0557    1.1860   -1.2337 H   0  0  0  0  0  0  0  0  0  0  0  0
   -0.3121   -1.1138    0.9059 H   0  0  0  0  0  0  0  0  0  0  0  0
    0.4719   -0.2674    0.8875 H   0  0  0  0  0  0  0  0  0  0  0  0
    0.4968   -1.6801   -0.8410 H   0  0  0  0  0  0  0  0  0  0  0  0
  1  3  1  0  0  0  0
  1  5  1  0  0  0  0
  2  1  1  0  0  0  0
  2  8  1  0  0  0  0
  4  1  1  0  0  0  0
  6  2  1  0  0  0  0
  6  9  1  0  0  0  0
  6 10  1  0  0  0  0
  7  2  1  0  0  0  0
  9 13  1  0  0  0  0
  9 12  1  0  0  0  0
 11  6  1  0  0  0  0
M  RAD  2   9   2  14   2
M  END
$$$$
