butane_opt
 OpenBabel08242015393D

 14 13  0  0  0  0  0  0  0  0999 V2000
   -3.8591    0.2511    0.2493 C   0  0  0  0  0  0  0  0  0  0  0  0
   -2.7238   -0.5976   -0.1776 C   0  0  0  0  0  0  0  0  0  0  0  0
   -4.8546   -0.4322    0.3783 H   0  0  0  0  0  0  0  0  0  0  0  0
   -4.2622    1.0392   -0.7787 H   0  0  0  0  0  0  0  0  0  0  0  0
   -3.6402    0.6891    0.9408 H   0  0  0  0  0  0  0  0  0  0  0  0
   -1.4468    0.2251   -0.2282 C   0  0  0  0  0  0  0  0  0  0  0  0
   -3.0193   -1.4186   -1.2221 H   0  0  0  0  0  0  0  0  0  0  0  0
   -2.4604   -1.0512    0.6277 H   0  0  0  0  0  0  0  0  0  0  0  0
   -0.1934   -0.7147    0.2469 C   0  0  0  0  0  0  0  0  0  0  0  0
   -1.4006    0.9629    0.5850 H   0  0  0  0  0  0  0  0  0  0  0  0
   -1.2011    0.8276   -1.1800 H   0  0  0  0  0  0  0  0  0  0  0  0
   -0.3139   -1.4555    1.1988 H   0  0  0  0  0  0  0  0  0  0  0  0
    0.6459   -0.0716    0.4675 H   0  0  0  0  0  0  0  0  0  0  0  0
    0.1727   -1.5582   -0.7014 H   0  0  0  0  0  0  0  0  0  0  0  0
  1  3  1  0  0  0  0
  1  5  1  0  0  0  0
  2  1  1  0  0  0  0
  2  8  1  0  0  0  0
  4  1  1  0  0  0  0
  6  2  1  0  0  0  0
  6  9  1  0  0  0  0
  6 10  1  0  0  0  0
  7  2  1  0  0  0  0
  9 13  1  0  0  0  0
  9 12  1  0  0  0  0
 11  6  1  0  0  0  0
 14  9  1  0  0  0  0
M  END
$$$$
