14
butane_opt
C  -3.998607   0.321767   0.111022
C  -2.671331  -0.711425  -0.133050
H  -4.831028  -0.103149   0.542459
H  -4.315281   1.330854  -0.969053
H  -3.884928   0.782195   0.795759
C  -1.315670   0.123505  -0.027487
H  -2.964684  -1.344345  -1.023469
H  -2.410138  -1.308265   0.691459
C  -0.179597  -0.625753   0.084633
H  -1.304283   0.900568   1.012608
H  -1.282025   0.538260  -0.779682
H  -0.317127  -1.542407   1.135399
H   0.558356  -0.118135   0.102534
H  -0.284215  -0.883205  -0.492302
