14
butane_opt
C  -3.958233   0.332037  -0.066025
C  -2.688059  -0.721412   0.040391
H  -4.756979   0.033753   0.118162
H  -4.098625   1.166926  -1.090409
H  -4.108052   0.748885   0.688442
C  -1.419165   0.129167   0.149530
H  -2.469665  -1.293256  -0.691654
H  -2.876732  -1.644618   1.195293
C  -0.120316  -0.619079  -0.030333
H  -1.366745   1.024794   1.240354
H  -1.245418   0.565022  -0.473364
H  -0.081287  -1.292504   0.855950
H   0.826638  -0.032766  -0.685916
H  -0.631959  -1.151976  -0.882853
