butane_opt
 OpenBabel08242015393D

 14 10  0  0  0  0  0  0  0  0999 V2000
   -3.9340    0.2990   -0.0902 C   0  0  0  0  0  1  0  0  0  0  0  0
   -2.6618   -0.6261    0.0956 C   0  0  0  0  0  0  0  0  0  0  0  0
   -4.7431   -0.2509    0.5858 H   0  0  0  0  0  0  0  0  0  0  0  0
   -3.9208    1.7710   -1.5445 H   0  0  0  0  0  0  0  0  0  0  0  0
   -3.8000    0.2180    0.2469 H   0  0  0  0  0  0  0  0  0  0  0  0
   -1.4423    0.0794    0.2608 C   0  0  0  0  0  0  0  0  0  0  0  0
   -2.4315   -1.3288   -0.8256 H   0  0  0  0  0  0  0  0  0  0  0  0
   -2.8779   -1.2374    1.1203 H   0  0  0  0  0  0  0  0  0  0  0  0
   -0.2117   -0.6279   -0.0941 C   0  0  0  0  0  0  0  0  0  0  0  0
   -1.2862    0.9291    1.1612 H   0  0  0  0  0  0  0  0  0  0  0  0
   -1.2674    0.6403   -0.6656 H   0  0  0  0  0  0  0  0  0  0  0  0
   -0.1473   -0.9732    0.7192 H   0  0  0  0  0  0  0  0  0  0  0  0
    0.9208    0.0862   -0.3477 H   0  0  0  0  0  0  0  0  0  0  0  0
   -0.5140   -1.7741   -1.1986 H   0  0  0  0  0  0  0  0  0  0  0  0
  1  3  1  0  0  0  0
  2  5  1  0  0  0  0
  2  6  1  0  0  0  0
  2  8  1  0  0  0  0
  6 10  1  0  0  0  0
  7  2  1  0  0  0  0
  9  6  1  0  0  0  0
  9 12  1  0  0  0  0
 11  6  1  0  0  0  0
 13  9  1  0  0  0  0
M  RAD  3   4   2   9   2  14   2
M  END
$$$$
