butane_opt
 OpenBabel08242015393D

 14 13  0  0  0  0  0  0  0  0999 V2000
   -3.9393    0.3065    0.0246 C   0  0  0  0  0  0  0  0  0  0  0  0
   -2.7016   -0.6410    0.0242 C   0  0  0  0  0  0  0  0  0  0  0  0
   -4.8560   -0.3065    0.3718 H   0  0  0  0  0  0  0  0  0  0  0  0
   -4.0600    1.2423   -1.1671 H   0  0  0  0  0  0  0  0  0  0  0  0
   -4.0341    0.7397    0.8114 H   0  0  0  0  0  0  0  0  0  0  0  0
   -1.4097    0.0787    0.0045 C   0  0  0  0  0  0  0  0  0  0  0  0
   -2.8612   -1.3780   -0.9431 H   0  0  0  0  0  0  0  0  0  0  0  0
   -2.2769   -1.2250    0.8923 H   0  0  0  0  0  0  0  0  0  0  0  0
   -0.1558   -0.6195    0.0629 C   0  0  0  0  0  0  0  0  0  0  0  0
   -1.4315    0.8299    1.0043 H   0  0  0  0  0  0  0  0  0  0  0  0
   -1.3391    0.7919   -0.8804 H   0  0  0  0  0  0  0  0  0  0  0  0
   -0.4047   -1.2033    0.7975 H   0  0  0  0  0  0  0  0  0  0  0  0
    0.8566    0.0905    0.1031 H   0  0  0  0  0  0  0  0  0  0  0  0
   -0.1490   -1.5305   -1.0225 H   0  0  0  0  0  0  0  0  0  0  0  0
  1  3  1  0  0  0  0
  1  5  1  0  0  0  0
  2  1  1  0  0  0  0
  2  8  1  0  0  0  0
  4  1  1  0  0  0  0
  6  2  1  0  0  0  0
  6  9  1  0  0  0  0
  6 10  1  0  0  0  0
  7  2  1  0  0  0  0
  9 13  1  0  0  0  0
  9 12  1  0  0  0  0
 11  6  1  0  0  0  0
 14  9  1  0  0  0  0
M  END
$$$$
