14
butane_opt
C  -3.937962   0.260350  -0.125820
C  -2.667228  -0.646459   0.108926
H  -4.744452  -0.217239   0.656111
H  -4.198225   1.532919  -1.428136
H  -3.680306   0.244257   0.305575
C  -1.407495   0.186102   0.203952
H  -2.441190  -1.095265  -0.475783
H  -2.470616  -1.569987   1.185375
C  -0.219340  -0.682099  -0.102236
H  -1.394275   1.242275   1.261808
H  -1.331393   0.687712  -0.668233
H  -0.275868  -0.766928   0.550577
H   0.567626  -0.065562   0.149482
H  -0.260773  -1.890921  -1.274245
