14
butane_opt
C  -3.893948   0.190892   0.126102
C  -2.744721  -0.543525  -0.168875
H  -4.805245  -0.370492   0.590282
H  -4.503885   0.946163  -0.676143
H  -3.549589   0.970000   1.190712
C  -1.410036   0.277631  -0.115799
H  -3.140535  -1.500005  -1.128231
H  -2.676262  -1.184472   0.642319
C  -0.111441  -0.750986   0.207768
H  -1.479583   0.836868   0.630456
H  -1.227966   0.914272  -1.080610
H  -0.237270  -1.573875   1.280419
H   0.526834  -0.264988  -0.060877
H   0.046483  -1.339079  -0.562877
