14
butane_opt
C  -4.034293   0.311138  -0.061274
C  -2.645568  -0.728295   0.148942
H  -4.894393  -0.180717   0.200813
H  -4.132936   1.568122  -1.483614
H  -4.307383   0.601806   0.580771
C  -1.328109   0.148387   0.143206
H  -2.530134  -1.394371  -0.792235
H  -2.854429  -1.377007   1.078467
C  -0.190386  -0.635156  -0.082221
H  -1.383853   0.873612   1.106279
H  -1.290711   0.785621  -0.726386
H   0.261388  -0.878962   0.626903
H   0.711158   0.058374   0.169127
H  -0.243654  -1.656923  -1.172062
