14
butane_opt
C  -3.869719   0.190497  -0.146000
C  -2.667607  -0.577696   0.226817
H  -4.736238  -0.520719  -0.129459
H  -3.850070   0.849648  -1.071374
H  -3.939962   0.986597   0.775764
C  -1.462340   0.257784   0.128809
H  -2.520692  -0.831679  -0.324795
H  -2.985295  -1.539849   1.425371
C  -0.160978  -0.740065  -0.119447
H  -1.548663   1.180198   1.114809
H  -1.686014   0.899200  -0.926358
H  -0.511659  -0.932990   0.496482
H   0.753570  -0.187721   0.354270
H  -0.030441  -1.984645  -1.409672
