butane_opt
 OpenBabel08242015393D

 14 11  0  0  0  0  0  0  0  0999 V2000
   -3.9651    0.2954    0.1760 C   0  0  0  0  0  0  0  0  0  0  0  0
   -2.6889   -0.6273   -0.1203 C   0  0  0  0  0  0  0  0  0  0  0  0
   -5.0052   -0.4684    0.7710 H   0  0  0  0  0  0  0  0  0  0  0  0
   -4.3529    1.3688   -0.9378 H   0  0  0  0  0  0  0  0  0  0  0  0
   -4.0049    0.6209    0.8640 H   0  0  0  0  0  0  0  0  0  0  0  0
   -1.3220    0.1128   -0.1416 C   0  0  0  0  0  0  0  0  0  0  0  0
   -2.8728   -1.4596   -1.3189 H   0  0  0  0  0  0  0  0  0  0  0  0
   -2.5968   -0.7976    0.4505 H   0  0  0  0  0  0  0  0  0  0  0  0
   -0.1830   -0.6638    0.1974 C   0  0  0  0  0  0  0  0  0  0  0  0
   -1.5472    0.7883    0.6882 H   0  0  0  0  0  0  0  0  0  0  0  0
   -1.1760    0.7901   -1.0931 H   0  0  0  0  0  0  0  0  0  0  0  0
   -0.3373   -1.2387    1.0820 H   0  0  0  0  0  0  0  0  0  0  0  0
    0.8534   -0.1208    0.2619 H   0  0  0  0  0  0  0  0  0  0  0  0
   -0.0362   -1.3783   -0.6965 H   0  0  0  0  0  0  0  0  0  0  0  0
  1  3  1  0  0  0  0
  1  5  1  0  0  0  0
  2  1  1  0  0  0  0
  6  2  1  0  0  0  0
  6  9  1  0  0  0  0
  6 10  1  0  0  0  0
  7  2  1  0  0  0  0
  9 13  1  0  0  0  0
  9 12  1  0  0  0  0
 11  6  1  0  0  0  0
 14  9  1  0  0  0  0
M  RAD  4   1   2   2   2   4   2   8   2
M  END
$$$$
