butane_opt
 OpenBabel08242015393D

 14  7  0  0  0  0  0  0  0  0999 V2000
   -3.9225    0.2410    0.1362 C   0  0  0  0  0  0  0  0  0  0  0  0
   -2.7519   -0.5191   -0.1011 C   0  0  0  0  0 15  0  0  0  0  0  0
   -4.9562   -0.5964   -0.0254 H   0  0  0  0  0  0  0  0  0  0  0  0
   -3.6785    0.3993   -0.5778 H   0  0  0  0  0  0  0  0  0  0  0  0
   -3.9289    1.0417    1.0948 H   0  0  0  0  0  0  0  0  0  0  0  0
   -1.4015    0.2394   -0.0132 C   0  0  0  0  0  0  0  0  0  0  0  0
   -2.5864   -1.4874   -1.1640 H   0  0  0  0  0  0  0  0  0  0  0  0
   -2.7842   -0.8189    0.3601 H   0  0  0  0  0  0  0  0  0  0  0  0
   -0.1665   -0.7775    0.1207 C   0  0  0  0  0  1  0  0  0  0  0  0
   -1.2980    0.6994    0.6312 H   0  0  0  0  0  0  0  0  0  0  0  0
   -1.5042    1.0171   -1.0279 H   0  0  0  0  0  0  0  0  0  0  0  0
    0.0668   -2.0688    1.5478 H   0  0  0  0  0  0  0  0  0  0  0  0
    0.8293   -0.1844   -0.6656 H   0  0  0  0  0  0  0  0  0  0  0  0
   -0.2611   -0.6760   -0.2792 H   0  0  0  0  0  0  0  0  0  0  0  0
  1  5  1  0  0  0  0
  3  1  1  0  0  0  0
  4  1  1  0  0  0  0
  6 10  1  0  0  0  0
 11  6  1  0  0  0  0
 13  9  1  0  0  0  0
 14  6  1  0  0  0  0
M  RAD  5   1   2   6   2   7   2   8   2  12   2
M  END
$$$$
