butane_opt
 OpenBabel08242015393D

 14 13  0  0  0  0  0  0  0  0999 V2000
   -3.9608    0.2467   -0.0807 C   0  0  0  0  0  0  0  0  0  0  0  0
   -2.7287   -0.6069    0.1771 C   0  0  0  0  0  0  0  0  0  0  0  0
   -5.0048   -0.4450   -0.5497 H   0  0  0  0  0  0  0  0  0  0  0  0
   -3.7311    0.6498   -0.8059 H   0  0  0  0  0  0  0  0  0  0  0  0
   -4.3573    1.0907    0.6385 H   0  0  0  0  0  0  0  0  0  0  0  0
   -1.4449    0.2175    0.1493 C   0  0  0  0  0  0  0  0  0  0  0  0
   -2.7082   -1.1968   -0.5678 H   0  0  0  0  0  0  0  0  0  0  0  0
   -2.9472   -1.1930    0.9421 H   0  0  0  0  0  0  0  0  0  0  0  0
   -0.0424   -0.7324   -0.0800 C   0  0  0  0  0  0  0  0  0  0  0  0
   -1.1453    0.8911    1.0833 H   0  0  0  0  0  0  0  0  0  0  0  0
   -1.8125    0.9329   -0.6701 H   0  0  0  0  0  0  0  0  0  0  0  0
    0.0071   -1.4853    0.8608 H   0  0  0  0  0  0  0  0  0  0  0  0
    0.9102   -0.0986   -0.6003 H   0  0  0  0  0  0  0  0  0  0  0  0
   -0.1078   -1.1483   -0.8385 H   0  0  0  0  0  0  0  0  0  0  0  0
  1  2  1  0  0  0  0
  1  5  1  0  0  0  0
  2  8  1  0  0  0  0
  3  1  1  0  0  0  0
  4  1  1  0  0  0  0
  6  2  1  0  0  0  0
  6 10  1  0  0  0  0
  7  2  1  0  0  0  0
  9  6  1  0  0  0  0
  9 12  1  0  0  0  0
 11  6  1  0  0  0  0
 13  9  1  0  0  0  0
 14  9  1  0  0  0  0
M  END
$$$$
