butane_opt
 OpenBabel08242015393D

 14  9  0  0  0  0  0  0  0  0999 V2000
   -3.9045    0.1932   -0.0984 C   0  0  0  0  0  0  0  0  0  0  0  0
   -2.7022   -0.5717    0.1930 C   0  0  0  0  0  0  0  0  0  0  0  0
   -4.8527   -0.5522    0.2864 H   0  0  0  0  0  0  0  0  0  0  0  0
   -3.7359    1.3672   -1.5069 H   0  0  0  0  0  0  0  0  0  0  0  0
   -3.9128    0.3959    0.3389 H   0  0  0  0  0  0  0  0  0  0  0  0
   -1.4491    0.3077    0.1721 C   0  0  0  0  0  0  0  0  0  0  0  0
   -2.8023   -1.1003   -0.5221 H   0  0  0  0  0  0  0  0  0  0  0  0
   -2.7664   -1.2340    1.1447 H   0  0  0  0  0  0  0  0  0  0  0  0
   -0.1966   -0.7958   -0.0927 C   0  0  0  0  0  0  0  0  0  0  0  0
   -1.1523    1.0417    1.1050 H   0  0  0  0  0  0  0  0  0  0  0  0
   -1.5056    1.0778   -0.8728 H   0  0  0  0  0  0  0  0  0  0  0  0
   -0.1269   -0.7353    0.3903 H   0  0  0  0  0  0  0  0  0  0  0  0
    0.7334   -0.1753    0.3884 H   0  0  0  0  0  0  0  0  0  0  0  0
    0.1457   -2.1981   -1.5269 H   0  0  0  0  0  0  0  0  0  0  0  0
  1  2  1  0  0  0  0
  1  3  1  0  0  0  0
  2  8  1  0  0  0  0
  6  2  1  0  0  0  0
  6 10  1  0  0  0  0
  7  2  1  0  0  0  0
  9  6  1  0  0  0  0
  9 13  1  0  0  0  0
 11  6  1  0  0  0  0
M  RAD  6   1   3   4   2   5   2   9   3  12   2  14   2
M  END
$$$$
