butane_opt
 OpenBabel08242015393D

 14 11  0  0  0  0  0  0  0  0999 V2000
   -4.0158    0.2654   -0.1403 C   0  0  0  0  0  0  0  0  0  0  0  0
   -2.7063   -0.6085    0.1919 C   0  0  0  0  0  0  0  0  0  0  0  0
   -4.8550   -0.3555   -0.2509 H   0  0  0  0  0  0  0  0  0  0  0  0
   -3.8703    1.1514   -1.3544 H   0  0  0  0  0  0  0  0  0  0  0  0
   -4.4477    0.6723    0.4643 H   0  0  0  0  0  0  0  0  0  0  0  0
   -1.3471    0.1485    0.2560 C   0  0  0  0  0  0  0  0  0  0  0  0
   -2.5718   -1.1215   -0.4878 H   0  0  0  0  0  0  0  0  0  0  0  0
   -2.9155   -1.3121    1.1302 H   0  0  0  0  0  0  0  0  0  0  0  0
   -0.1114   -0.6733   -0.1823 C   0  0  0  0  0  0  0  0  0  0  0  0
   -1.2666    1.3220    1.5023 H   0  0  0  0  0  0  0  0  0  0  0  0
   -1.7409    0.3956   -0.4604 H   0  0  0  0  0  0  0  0  0  0  0  0
    0.4452   -1.6819    0.9121 H   0  0  0  0  0  0  0  0  0  0  0  0
    0.8825    0.0380   -0.6237 H   0  0  0  0  0  0  0  0  0  0  0  0
   -0.5411   -1.1259   -0.8647 H   0  0  0  0  0  0  0  0  0  0  0  0
  1  2  1  0  0  0  0
  1  5  1  0  0  0  0
  2  6  1  0  0  0  0
  2  8  1  0  0  0  0
  3  1  1  0  0  0  0
  4  1  1  0  0  0  0
  7  2  1  0  0  0  0
  9  6  1  0  0  0  0
 11  6  1  0  0  0  0
 13  9  1  0  0  0  0
 14  9  1  0  0  0  0
M  RAD  4   6   2   9   2  10   2  12   2
M  END
$$$$
