14
butane_opt
C  -4.030181   0.291171   0.113360
C  -2.694792  -0.666463  -0.049708
H  -4.840888  -0.178288  -0.245837
H  -3.880206   0.654559  -0.627648
H  -4.494396   1.434053   1.223308
C  -1.374005   0.148260  -0.060184
H  -2.939129  -1.583384  -1.010810
H  -2.466076  -1.239433   0.729844
C  -0.079725  -0.678299   0.103852
H  -1.396300   0.915780   0.765187
H  -1.107047   0.828370  -1.079629
H  -0.280464  -1.731281   1.173054
H   0.897572   0.017867  -0.394485
H  -0.339984  -0.699232  -0.298037
