butane_opt
 OpenBabel08242015393D

 14 13  0  0  0  0  0  0  0  0999 V2000
   -3.9380    0.2688    0.0484 C   0  0  0  0  0  0  0  0  0  0  0  0
   -2.6958   -0.6265    0.0156 C   0  0  0  0  0  0  0  0  0  0  0  0
   -4.8173   -0.2741    0.0764 H   0  0  0  0  0  0  0  0  0  0  0  0
   -3.9625    0.8274   -0.8089 H   0  0  0  0  0  0  0  0  0  0  0  0
   -3.9215    0.9951    0.9232 H   0  0  0  0  0  0  0  0  0  0  0  0
   -1.4142    0.1795   -0.0410 C   0  0  0  0  0  0  0  0  0  0  0  0
   -2.6994   -1.3435   -0.8560 H   0  0  0  0  0  0  0  0  0  0  0  0
   -2.6856   -1.2520    0.9103 H   0  0  0  0  0  0  0  0  0  0  0  0
   -0.1695   -0.6860    0.0624 C   0  0  0  0  0  0  0  0  0  0  0  0
   -1.3952    0.8642    0.8320 H   0  0  0  0  0  0  0  0  0  0  0  0
   -1.4044    0.8200   -0.9550 H   0  0  0  0  0  0  0  0  0  0  0  0
   -0.2534   -1.2910    0.9822 H   0  0  0  0  0  0  0  0  0  0  0  0
    0.7786   -0.0691    0.1251 H   0  0  0  0  0  0  0  0  0  0  0  0
   -0.0685   -1.3706   -0.8065 H   0  0  0  0  0  0  0  0  0  0  0  0
  1  3  1  0  0  0  0
  1  5  1  0  0  0  0
  2  1  1  0  0  0  0
  2  8  1  0  0  0  0
  4  1  1  0  0  0  0
  6  2  1  0  0  0  0
  6  9  1  0  0  0  0
  6 10  1  0  0  0  0
  7  2  1  0  0  0  0
  9 13  1  0  0  0  0
  9 12  1  0  0  0  0
 11  6  1  0  0  0  0
 14  9  1  0  0  0  0
M  END
$$$$
