14
butane_opt
C  -4.046082   0.322294  -0.117124
C  -2.703898  -0.678979   0.106756
H  -4.749468  -0.027065   0.786250
H  -4.194268   1.589411  -1.453945
H  -3.973022   0.376871   0.323875
C  -1.343290   0.041963   0.231204
H  -2.405475  -1.474885  -0.674357
H  -2.986485  -1.233507   1.011471
C  -0.105466  -0.606007  -0.092977
H  -1.422198   0.921323   1.232538
H  -1.540792   0.753711  -0.710451
H   0.003078  -0.925714   0.592119
H   0.875933   0.027480  -0.032741
H  -0.320679  -1.373224  -1.216092
