14
butane_opt
C  -3.850425   0.193292   0.049301
C  -2.751589  -0.529135   0.003552
H  -4.822520  -0.550247  -0.193356
H  -3.723384   0.291098  -0.356194
H  -4.101102   1.258753   1.148524
C  -1.464160   0.264353  -0.047823
H  -2.680630  -1.159626  -0.760483
H  -2.567391  -1.096551   0.895182
C  -0.183348  -0.726817   0.083074
H  -1.412394   0.588998   0.417683
H  -1.486828   1.145931  -1.127111
H  -0.055673  -1.527622   1.057584
H   0.688691  -0.309098   0.157603
H   0.155722  -1.584206  -0.784350
