butane_opt
 OpenBabel08242015393D

 14 13  0  0  0  0  0  0  0  0999 V2000
   -3.9837    0.2619    0.2063 C   0  0  0  0  0  0  0  0  0  0  0  0
   -2.7540   -0.5762   -0.2063 C   0  0  0  0  0  0  0  0  0  0  0  0
   -5.0128   -0.5819    0.6764 H   0  0  0  0  0  0  0  0  0  0  0  0
   -4.3505    0.8233   -0.5970 H   0  0  0  0  0  0  0  0  0  0  0  0
   -3.7807    0.8813    1.1379 H   0  0  0  0  0  0  0  0  0  0  0  0
   -1.3284    0.2037   -0.2151 C   0  0  0  0  0  0  0  0  0  0  0  0
   -2.7174   -1.1740   -1.0110 H   0  0  0  0  0  0  0  0  0  0  0  0
   -2.7820   -1.1919    0.7218 H   0  0  0  0  0  0  0  0  0  0  0  0
   -0.1051   -0.7359    0.2118 C   0  0  0  0  0  0  0  0  0  0  0  0
   -1.6233    0.7271    0.6167 H   0  0  0  0  0  0  0  0  0  0  0  0
   -1.2137    0.9940   -1.1449 H   0  0  0  0  0  0  0  0  0  0  0  0
   -0.4125   -1.2126    0.9613 H   0  0  0  0  0  0  0  0  0  0  0  0
    0.6202   -0.2350    0.6952 H   0  0  0  0  0  0  0  0  0  0  0  0
    0.3590   -1.3836   -0.5653 H   0  0  0  0  0  0  0  0  0  0  0  0
  1  3  1  0  0  0  0
  1  5  1  0  0  0  0
  2  1  1  0  0  0  0
  2  8  1  0  0  0  0
  4  1  1  0  0  0  0
  6  2  1  0  0  0  0
  6  9  1  0  0  0  0
  6 10  1  0  0  0  0
  7  2  1  0  0  0  0
  9 13  1  0  0  0  0
  9 12  1  0  0  0  0
 11  6  1  0  0  0  0
 14  9  1  0  0  0  0
M  END
$$$$
