butane_opt
 OpenBabel08242015393D

 14 10  0  0  0  0  0  0  0  0999 V2000
   -3.9755    0.2353    0.0678 C   0  0  0  0  0  0  0  0  0  0  0  0
   -2.7329   -0.6121   -0.1208 C   0  0  0  0  0  0  0  0  0  0  0  0
   -4.9993   -0.4766   -0.0354 H   0  0  0  0  0  0  0  0  0  0  0  0
   -4.2572    0.4764   -0.5708 H   0  0  0  0  0  0  0  0  0  0  0  0
   -3.7377    1.3181    1.2936 H   0  0  0  0  0  0  0  0  0  0  0  0
   -1.3900    0.2720   -0.0313 C   0  0  0  0  0  0  0  0  0  0  0  0
   -2.7195   -1.4582   -1.0830 H   0  0  0  0  0  0  0  0  0  0  0  0
   -2.8330   -1.2311    0.9554 H   0  0  0  0  0  0  0  0  0  0  0  0
   -0.1135   -0.7187    0.1201 C   0  0  0  0  0  0  0  0  0  0  0  0
   -1.4439    1.0188    0.8418 H   0  0  0  0  0  0  0  0  0  0  0  0
   -1.6315    0.8696   -0.8323 H   0  0  0  0  0  0  0  0  0  0  0  0
    0.5536   -2.1196    1.4896 H   0  0  0  0  0  0  0  0  0  0  0  0
    0.7616   -0.3187   -0.6314 H   0  0  0  0  0  0  0  0  0  0  0  0
   -0.1684   -0.6594   -0.2842 H   0  0  0  0  0  0  0  0  0  0  0  0
  2  6  1  0  0  0  0
  2  1  1  0  0  0  0
  2  8  1  0  0  0  0
  3  1  1  0  0  0  0
  4  1  1  0  0  0  0
  6  9  1  0  0  0  0
  6 10  1  0  0  0  0
  7  2  1  0  0  0  0
 11  6  1  0  0  0  0
 13  9  1  0  0  0  0
M  RAD  5   1   2   5   2   9   3  12   2  14   2
M  END
$$$$
