butane_opt
 OpenBabel08242015393D

 14 12  0  0  0  0  0  0  0  0999 V2000
   -4.0343    0.3111   -0.0613 C   0  0  0  0  0  0  0  0  0  0  0  0
   -2.6456   -0.7283    0.1489 C   0  0  0  0  0  0  0  0  0  0  0  0
   -4.8944   -0.1807    0.2008 H   0  0  0  0  0  0  0  0  0  0  0  0
   -4.1329    1.5681   -1.4836 H   0  0  0  0  0  0  0  0  0  0  0  0
   -4.3074    0.6018    0.5808 H   0  0  0  0  0  0  0  0  0  0  0  0
   -1.3281    0.1484    0.1432 C   0  0  0  0  0  0  0  0  0  0  0  0
   -2.5301   -1.3944   -0.7922 H   0  0  0  0  0  0  0  0  0  0  0  0
   -2.8544   -1.3770    1.0785 H   0  0  0  0  0  0  0  0  0  0  0  0
   -0.1904   -0.6352   -0.0822 C   0  0  0  0  0  0  0  0  0  0  0  0
   -1.3839    0.8736    1.1063 H   0  0  0  0  0  0  0  0  0  0  0  0
   -1.2907    0.7856   -0.7264 H   0  0  0  0  0  0  0  0  0  0  0  0
    0.2614   -0.8790    0.6269 H   0  0  0  0  0  0  0  0  0  0  0  0
    0.7112    0.0584    0.1691 H   0  0  0  0  0  0  0  0  0  0  0  0
   -0.2437   -1.6569   -1.1721 H   0  0  0  0  0  0  0  0  0  0  0  0
  1  2  1  0  0  0  0
  1  3  1  0  0  0  0
  1  5  1  0  0  0  0
  2  8  1  0  0  0  0
  6  2  1  0  0  0  0
  6 10  1  0  0  0  0
  7  2  1  0  0  0  0
  9  6  1  0  0  0  0
  9 13  1  0  0  0  0
  9 12  1  0  0  0  0
 11  6  1  0  0  0  0
 14  9  1  0  0  0  0
M  RAD  2   1   2   4   2
M  END
$$$$
