butane_opt
 OpenBabel08242015393D

 14 13  0  0  0  0  0  0  0  0999 V2000
   -3.8762    0.2517    0.1769 C   0  0  0  0  0  0  0  0  0  0  0  0
   -2.6814   -0.5875   -0.1157 C   0  0  0  0  0  0  0  0  0  0  0  0
   -4.8199   -0.3366    0.3853 H   0  0  0  0  0  0  0  0  0  0  0  0
   -3.9503    0.7604   -0.6684 H   0  0  0  0  0  0  0  0  0  0  0  0
   -3.8187    0.9430    1.0031 H   0  0  0  0  0  0  0  0  0  0  0  0
   -1.4048    0.2522   -0.2391 C   0  0  0  0  0  0  0  0  0  0  0  0
   -3.1705   -1.2986   -0.8979 H   0  0  0  0  0  0  0  0  0  0  0  0
   -2.6128   -1.2927    0.8138 H   0  0  0  0  0  0  0  0  0  0  0  0
   -0.2147   -0.7400    0.2135 C   0  0  0  0  0  0  0  0  0  0  0  0
   -1.5090    0.8905    0.5778 H   0  0  0  0  0  0  0  0  0  0  0  0
   -1.4443    0.6000   -1.0179 H   0  0  0  0  0  0  0  0  0  0  0  0
   -0.4966   -1.1558    0.8638 H   0  0  0  0  0  0  0  0  0  0  0  0
    0.7605   -0.1020    0.5813 H   0  0  0  0  0  0  0  0  0  0  0  0
    0.1601   -1.5632   -0.6392 H   0  0  0  0  0  0  0  0  0  0  0  0
  1  3  1  0  0  0  0
  1  5  1  0  0  0  0
  2  1  1  0  0  0  0
  2  8  1  0  0  0  0
  4  1  1  0  0  0  0
  6  2  1  0  0  0  0
  6  9  1  0  0  0  0
  6 10  1  0  0  0  0
  7  2  1  0  0  0  0
  9 13  1  0  0  0  0
  9 12  1  0  0  0  0
 11  6  1  0  0  0  0
 14  9  1  0  0  0  0
M  END
$$$$
