butane_opt
 OpenBabel08242015393D

 14 11  0  0  0  0  0  0  0  0999 V2000
   -3.8735    0.2185   -0.0571 C   0  0  0  0  0  0  0  0  0  0  0  0
   -2.7698   -0.6056    0.1707 C   0  0  0  0  0  0  0  0  0  0  0  0
   -4.7137   -0.4198    0.1034 H   0  0  0  0  0  0  0  0  0  0  0  0
   -3.9844    1.1005   -1.1933 H   0  0  0  0  0  0  0  0  0  0  0  0
   -3.7434    0.7614    0.7963 H   0  0  0  0  0  0  0  0  0  0  0  0
   -1.4257    0.2541   -0.0038 C   0  0  0  0  0  0  0  0  0  0  0  0
   -3.0892   -0.8826   -0.4931 H   0  0  0  0  0  0  0  0  0  0  0  0
   -2.7438   -1.3649    1.0525 H   0  0  0  0  0  0  0  0  0  0  0  0
   -0.1526   -0.7502   -0.0408 C   0  0  0  0  0  0  0  0  0  0  0  0
   -1.4151    1.1531    0.9182 H   0  0  0  0  0  0  0  0  0  0  0  0
   -1.6374    0.7981   -0.7294 H   0  0  0  0  0  0  0  0  0  0  0  0
   -0.3417   -0.7954    0.5888 H   0  0  0  0  0  0  0  0  0  0  0  0
    0.7698   -0.2365    0.7393 H   0  0  0  0  0  0  0  0  0  0  0  0
    0.5143   -2.0090   -1.2849 H   0  0  0  0  0  0  0  0  0  0  0  0
  1  3  1  0  0  0  0
  1  2  1  0  0  0  0
  1  5  1  0  0  0  0
  2  8  1  0  0  0  0
  6  2  1  0  0  0  0
  6 10  1  0  0  0  0
  7  2  1  0  0  0  0
  9  6  1  0  0  0  0
  9 12  1  0  0  0  0
  9 13  1  0  0  0  0
 11  6  1  0  0  0  0
M  RAD  4   1   2   4   2   9   2  14   2
M  END
$$$$
