butane_opt
 OpenBabel08242015393D

 14 10  0  0  0  0  0  0  0  0999 V2000
   -3.8967    0.3240   -0.0160 C   0  0  0  0  0  0  0  0  0  0  0  0
   -2.7023   -0.6503    0.1271 C   0  0  0  0  0  0  0  0  0  0  0  0
   -4.7681   -0.2608    0.1784 H   0  0  0  0  0  0  0  0  0  0  0  0
   -3.8231    1.1054   -1.0526 H   0  0  0  0  0  0  0  0  0  0  0  0
   -3.9059    0.7147    0.6791 H   0  0  0  0  0  0  0  0  0  0  0  0
   -1.3889    0.1179   -0.0456 C   0  0  0  0  0  0  0  0  0  0  0  0
   -2.8102   -1.1693   -0.5213 H   0  0  0  0  0  0  0  0  0  0  0  0
   -2.6901   -1.5230    1.1713 H   0  0  0  0  0  0  0  0  0  0  0  0
   -0.2340   -0.6728   -0.0436 C   0  0  0  0  0  0  0  0  0  0  0  0
   -1.5581    1.0376    1.0064 H   0  0  0  0  0  0  0  0  0  0  0  0
   -1.4462    0.7136   -0.7658 H   0  0  0  0  0  0  0  0  0  0  0  0
   -0.4455   -0.7751    0.7142 H   0  0  0  0  0  0  0  0  0  0  0  0
    0.9419    0.1828    0.9683 H   0  0  0  0  0  0  0  0  0  0  0  0
    0.0616   -1.8999   -1.2839 H   0  0  0  0  0  0  0  0  0  0  0  0
  1  2  1  0  0  0  0
  1  3  1  0  0  0  0
  1  5  1  0  0  0  0
  2  8  1  0  0  0  0
  4  1  1  0  0  0  0
  6  9  1  0  0  0  0
  6 10  1  0  0  0  0
  7  2  1  0  0  0  0
  9 12  1  0  0  0  0
 11  6  1  0  0  0  0
M  RAD  5   2   2   6   2   9   3  13   2  14   2
M  END
$$$$
