14
butane_opt
C  -3.945716   0.191546   0.085572
C  -2.771859  -0.553499  -0.047480
H  -4.912598  -0.362484   0.414500
H  -4.133196   1.172703  -0.907716
H  -3.478715   0.640779   0.902696
C  -1.366978   0.274441  -0.095385
H  -2.798423  -1.229454  -0.686297
H  -2.944849  -1.238912   0.910626
C  -0.110935  -0.758128   0.077501
H  -1.494744   1.029513   0.798109
H  -1.510877   0.790064  -0.930954
H  -0.347065  -1.074236   0.755514
H   0.472901  -0.424281   0.654966
H   0.485051  -1.647546  -0.783028
