14
butane_opt
C  -4.037132   0.312018   0.116755
C  -2.649557  -0.694551  -0.065500
H  -4.905647  -0.118629   0.290607
H  -4.463111   0.959756  -0.679046
H  -3.795180   1.038787   1.014198
C  -1.320784   0.154438  -0.139127
H  -2.840005  -1.555476  -1.114957
H  -2.699145  -1.182346   0.723979
C  -0.223104  -0.635707   0.108699
H  -1.297011   0.986422   0.917096
H  -1.140464   0.598877  -0.992602
H  -0.291314  -1.646839   1.462285
H   0.833261   0.003638   0.169061
H   0.280361  -1.157482  -0.594671
