butane_opt
 OpenBabel08242015393D

 14 13  0  0  0  0  0  0  0  0999 V2000
   -4.0923    0.3516   -0.1793 C   0  0  0  0  0  0  0  0  0  0  0  0
   -2.6937   -0.7084    0.2418 C   0  0  0  0  0  0  0  0  0  0  0  0
   -4.9108   -0.1709   -0.2464 H   0  0  0  0  0  0  0  0  0  0  0  0
   -3.7306    0.9926   -1.2833 H   0  0  0  0  0  0  0  0  0  0  0  0
   -4.2050    0.7808    0.3969 H   0  0  0  0  0  0  0  0  0  0  0  0
   -1.3425    0.1246    0.2843 C   0  0  0  0  0  0  0  0  0  0  0  0
   -2.4488   -1.5209   -0.6884 H   0  0  0  0  0  0  0  0  0  0  0  0
   -2.7096   -1.3444    1.0777 H   0  0  0  0  0  0  0  0  0  0  0  0
   -0.1232   -0.6139   -0.1696 C   0  0  0  0  0  0  0  0  0  0  0  0
   -1.0187    0.9710    1.4883 H   0  0  0  0  0  0  0  0  0  0  0  0
   -1.7259    0.6497   -0.5245 H   0  0  0  0  0  0  0  0  0  0  0  0
    0.4491   -1.5703    0.7622 H   0  0  0  0  0  0  0  0  0  0  0  0
    0.8461   -0.0161   -0.7702 H   0  0  0  0  0  0  0  0  0  0  0  0
   -0.6329   -1.0126   -0.8511 H   0  0  0  0  0  0  0  0  0  0  0  0
  1  2  1  0  0  0  0
  1  5  1  0  0  0  0
  2  6  1  0  0  0  0
  2  8  1  0  0  0  0
  3  1  1  0  0  0  0
  4  1  1  0  0  0  0
  6 10  1  0  0  0  0
  7  2  1  0  0  0  0
  9  6  1  0  0  0  0
  9 12  1  0  0  0  0
 11  6  1  0  0  0  0
 13  9  1  0  0  0  0
 14  9  1  0  0  0  0
M  END
$$$$
