butane_opt
 OpenBabel08242015393D

 14 11  0  0  0  0  0  0  0  0999 V2000
   -3.9995    0.1917   -0.1914 C   0  0  0  0  0  0  0  0  0  0  0  0
   -2.7847   -0.5247    0.1970 C   0  0  0  0  0  0  0  0  0  0  0  0
   -4.7589   -0.3224   -0.1660 H   0  0  0  0  0  0  0  0  0  0  0  0
   -3.8868    0.8973   -1.3756 H   0  0  0  0  0  0  0  0  0  0  0  0
   -4.0330    0.7309    0.5967 H   0  0  0  0  0  0  0  0  0  0  0  0
   -1.3794    0.2277    0.2796 C   0  0  0  0  0  0  0  0  0  0  0  0
   -2.7159   -0.9930   -0.5998 H   0  0  0  0  0  0  0  0  0  0  0  0
   -2.8604   -1.3506    1.2305 H   0  0  0  0  0  0  0  0  0  0  0  0
   -0.0654   -0.7702   -0.1509 C   0  0  0  0  0  0  0  0  0  0  0  0
   -1.2987    1.3591    1.5147 H   0  0  0  0  0  0  0  0  0  0  0  0
   -1.4606    0.7050   -0.4054 H   0  0  0  0  0  0  0  0  0  0  0  0
    0.6759   -1.6673    0.8292 H   0  0  0  0  0  0  0  0  0  0  0  0
    0.8189   -0.1801   -0.8726 H   0  0  0  0  0  0  0  0  0  0  0  0
   -0.7302   -1.1369   -0.9136 H   0  0  0  0  0  0  0  0  0  0  0  0
  1  3  1  0  0  0  0
  1  2  1  0  0  0  0
  1  5  1  0  0  0  0
  2  6  1  0  0  0  0
  2  8  1  0  0  0  0
  4  1  1  0  0  0  0
  7  2  1  0  0  0  0
  9  6  1  0  0  0  0
 11  6  1  0  0  0  0
 13  9  1  0  0  0  0
 14  9  1  0  0  0  0
M  RAD  4   6   2   9   2  10   2  12   2
M  END
$$$$
