14
butane_opt
C  -4.013744   0.310388  -0.073295
C  -2.646827  -0.723516   0.180713
H  -4.857685  -0.073262   0.194691
H  -4.097488   1.205690  -1.148108
H  -4.024863   0.952544   0.835349
C  -1.344841   0.123711   0.019544
H  -2.470447  -1.310401  -0.495685
H  -2.820442  -1.405674   1.049310
C  -0.201700  -0.586968  -0.035930
H  -1.294722   0.534516   0.819224
H  -1.441934   0.846254  -0.851013
H  -0.205122  -0.621681   0.471366
H   0.563519  -0.113892   0.856486
H   0.062184  -1.957350  -1.432694
