14
butane_opt
C  -3.904425   0.304285   0.181544
C  -2.702001  -0.641207  -0.203044
H  -4.875990  -0.302551   0.856011
H  -4.558802   1.332621  -0.892207
H  -3.300944   0.699713   1.015526
C  -1.432427   0.153650  -0.141701
H  -2.925281  -1.630086  -1.294280
H  -2.638794  -1.176909   0.587539
C  -0.143800  -0.683744   0.178897
H  -1.552055   0.798895   0.843828
H  -1.170139   0.719544  -1.017131
H  -0.697332  -1.461005   1.312820
H   0.836406   0.061890   0.315272
H   0.040100  -1.063434  -0.527289
