butane_opt
 OpenBabel08242015393D

 14 11  0  0  0  0  0  0  0  0999 V2000
   -3.9831    0.2520    0.1130 C   0  0  0  0  0  0  0  0  0  0  0  0
   -2.7288   -0.5889   -0.1250 C   0  0  0  0  0  0  0  0  0  0  0  0
   -5.1505   -0.5209    0.0168 H   0  0  0  0  0  0  0  0  0  0  0  0
   -3.7986    0.5628   -0.5858 H   0  0  0  0  0  0  0  0  0  0  0  0
   -4.0857    1.1552    1.0606 H   0  0  0  0  0  0  0  0  0  0  0  0
   -1.4018    0.2334   -0.0349 C   0  0  0  0  0  0  0  0  0  0  0  0
   -2.7011   -1.4842   -1.1175 H   0  0  0  0  0  0  0  0  0  0  0  0
   -2.6899   -1.2259    0.8880 H   0  0  0  0  0  0  0  0  0  0  0  0
   -0.0897   -0.7103    0.1083 C   0  0  0  0  0  0  0  0  0  0  0  0
   -1.5709    1.0338    0.9169 H   0  0  0  0  0  0  0  0  0  0  0  0
   -1.3898    0.7182   -0.9122 H   0  0  0  0  0  0  0  0  0  0  0  0
    0.3020   -1.9364    1.5849 H   0  0  0  0  0  0  0  0  0  0  0  0
    0.6899   -0.3102   -0.7320 H   0  0  0  0  0  0  0  0  0  0  0  0
   -0.1747   -0.7185   -0.3159 H   0  0  0  0  0  0  0  0  0  0  0  0
  1  5  1  0  0  0  0
  2  6  1  0  0  0  0
  2  1  1  0  0  0  0
  2  8  1  0  0  0  0
  3  1  1  0  0  0  0
  4  1  1  0  0  0  0
  6  9  1  0  0  0  0
  6 10  1  0  0  0  0
  7  2  1  0  0  0  0
 11  6  1  0  0  0  0
 13  9  1  0  0  0  0
M  RAD  3   9   3  12   2  14   2
M  END
$$$$
