14
butane_opt
C  -3.960381   0.319326  -0.015911
C  -2.642415  -0.635193   0.160030
H  -5.012464  -0.588479  -0.559950
H  -3.470013   0.838674  -0.786236
H  -4.266677   1.125538   0.947597
C  -1.379509   0.120339   0.027635
H  -2.523358  -1.485142  -0.723498
H  -2.654425  -1.255063   0.987576
C  -0.236297  -0.657636  -0.006897
H  -1.468605   0.887190   0.833377
H  -1.523310   0.814956  -0.948856
H  -0.088076  -1.244191   0.817006
H   0.813824   0.064748  -0.207108
H  -0.238209  -1.382169  -0.886590
