butane_opt
 OpenBabel08242015393D

 14 10  0  0  0  0  0  0  0  0999 V2000
   -3.8862    0.1971   -0.0999 C   0  0  0  0  0  0  0  0  0  0  0  0
   -2.7197   -0.5968    0.1487 C   0  0  0  0  0  0  0  0  0  0  0  0
   -4.8698   -0.4940    0.5083 H   0  0  0  0  0  0  0  0  0  0  0  0
   -4.1391    1.2666   -1.4257 H   0  0  0  0  0  0  0  0  0  0  0  0
   -4.0328    0.6051    0.5668 H   0  0  0  0  0  0  0  0  0  0  0  0
   -1.4398    0.2999    0.1282 C   0  0  0  0  0  0  0  0  0  0  0  0
   -2.7290   -1.0561   -0.6070 H   0  0  0  0  0  0  0  0  0  0  0  0
   -2.6881   -1.5307    1.2317 H   0  0  0  0  0  0  0  0  0  0  0  0
   -0.1338   -0.7782   -0.0653 C   0  0  0  0  0  0  0  0  0  0  0  0
   -1.5375    1.0303    0.9905 H   0  0  0  0  0  0  0  0  0  0  0  0
   -1.3884    1.1154   -0.7602 H   0  0  0  0  0  0  0  0  0  0  0  0
   -0.1613   -0.6499    0.3575 H   0  0  0  0  0  0  0  0  0  0  0  0
    0.7810   -0.2072    0.5592 H   0  0  0  0  0  0  0  0  0  0  0  0
   -0.0215   -2.0639   -1.4340 H   0  0  0  0  0  0  0  0  0  0  0  0
  1  2  1  0  0  0  0
  1  3  1  0  0  0  0
  1  5  1  0  0  0  0
  2  8  1  0  0  0  0
  6  2  1  0  0  0  0
  6 10  1  0  0  0  0
  7  2  1  0  0  0  0
  9  6  1  0  0  0  0
  9 13  1  0  0  0  0
 11  6  1  0  0  0  0
M  RAD  5   1   2   4   2   9   3  12   2  14   2
M  END
$$$$
