butane_opt
 OpenBabel08242015393D

 14 10  0  0  0  0  0  0  0  0999 V2000
   -4.0302    0.2912    0.1134 C   0  0  0  0  0  0  0  0  0  0  0  0
   -2.6948   -0.6665   -0.0497 C   0  0  0  0  0  0  0  0  0  0  0  0
   -4.8409   -0.1783   -0.2458 H   0  0  0  0  0  0  0  0  0  0  0  0
   -3.8802    0.6546   -0.6276 H   0  0  0  0  0  0  0  0  0  0  0  0
   -4.4944    1.4341    1.2233 H   0  0  0  0  0  0  0  0  0  0  0  0
   -1.3740    0.1483   -0.0602 C   0  0  0  0  0  0  0  0  0  0  0  0
   -2.9391   -1.5834   -1.0108 H   0  0  0  0  0  0  0  0  0  0  0  0
   -2.4661   -1.2394    0.7298 H   0  0  0  0  0  0  0  0  0  0  0  0
   -0.0797   -0.6783    0.1039 C   0  0  0  0  0  0  0  0  0  0  0  0
   -1.3963    0.9158    0.7652 H   0  0  0  0  0  0  0  0  0  0  0  0
   -1.1070    0.8284   -1.0796 H   0  0  0  0  0  0  0  0  0  0  0  0
   -0.2805   -1.7313    1.1731 H   0  0  0  0  0  0  0  0  0  0  0  0
    0.8976    0.0179   -0.3945 H   0  0  0  0  0  0  0  0  0  0  0  0
   -0.3400   -0.6992   -0.2980 H   0  0  0  0  0  0  0  0  0  0  0  0
  2  1  1  0  0  0  0
  2  8  1  0  0  0  0
  3  1  1  0  0  0  0
  4  1  1  0  0  0  0
  6 10  1  0  0  0  0
  7  2  1  0  0  0  0
  9 12  1  0  0  0  0
 11  6  1  0  0  0  0
 13  9  1  0  0  0  0
 14  6  1  0  0  0  0
M  RAD  5   1   2   2   2   5   2   6   2   9   3
M  END
$$$$
