14
butane_opt
C  -3.837239   0.356678   0.171995
C  -2.660617  -0.711262  -0.098405
H  -4.786071  -0.247216   0.207036
H  -4.046004   0.771628  -0.611192
H  -4.049931   1.081505   1.134058
C  -1.417500   0.135457  -0.201671
H  -2.986013  -1.483348  -0.963034
H  -2.658299  -1.222294   0.656461
C  -0.234103  -0.653051   0.220920
H  -1.473699   0.700030   0.510271
H  -1.320761   0.803128  -1.221130
H  -0.504842  -0.999829   0.900041
H   0.773054  -0.049495   0.332066
H  -0.190167  -1.329593  -0.604009
