14
butane_opt
C  -3.866208   0.231431  -0.197048
C  -2.734029  -0.597588   0.192686
H  -4.786120  -0.390554  -0.113134
H  -3.871821   0.847169  -1.025921
H  -4.284318   0.870807   0.693540
C  -1.442369   0.271057   0.242433
H  -2.723999  -0.962789  -0.551514
H  -3.134415  -1.401436   1.187156
C  -0.134380  -0.739896  -0.130067
H  -1.073367   1.048618   1.243955
H  -1.742278   0.564506  -0.396932
H   0.434514  -1.587290   0.955475
H   0.755920  -0.161286  -0.705568
H  -0.462425  -1.285018  -1.086220
