14
butane_opt
C  -3.972056   0.314089  -0.145430
C  -2.680275  -0.650167   0.182780
H  -4.819111  -0.058493  -0.224321
H  -3.633066   1.077111  -1.206262
H  -4.022616   0.564709   0.450211
C  -1.439002   0.119732   0.242823
H  -2.525792  -1.036555  -0.460895
H  -2.599999  -1.577395   1.128342
C  -0.168942  -0.657395  -0.144801
H  -1.180104   1.033310   1.252670
H  -1.594860   0.400652  -0.346476
H   0.137941  -1.323894   0.708493
H   0.993349   0.148814  -0.408411
H  -0.727693  -1.155958  -1.087241
