butane_opt
 OpenBabel08242015393D

 14 13  0  0  0  0  0  0  0  0999 V2000
   -3.8806    0.2181   -0.1433 C   0  0  0  0  0  0  0  0  0  0  0  0
   -2.6952   -0.5408    0.1744 C   0  0  0  0  0  0  0  0  0  0  0  0
   -4.9236   -0.5264    0.0562 H   0  0  0  0  0  0  0  0  0  0  0  0
   -4.1045    1.0936   -1.1280 H   0  0  0  0  0  0  0  0  0  0  0  0
   -3.8298    0.5120    0.4843 H   0  0  0  0  0  0  0  0  0  0  0  0
   -1.4603    0.2385    0.1918 C   0  0  0  0  0  0  0  0  0  0  0  0
   -2.5021   -1.1684   -0.6008 H   0  0  0  0  0  0  0  0  0  0  0  0
   -2.6574   -1.2282    0.9709 H   0  0  0  0  0  0  0  0  0  0  0  0
   -0.1514   -0.7513   -0.1327 C   0  0  0  0  0  0  0  0  0  0  0  0
   -1.2628    1.1329    1.2814 H   0  0  0  0  0  0  0  0  0  0  0  0
   -1.8108    0.5235   -0.3990 H   0  0  0  0  0  0  0  0  0  0  0  0
   -0.1003   -1.6016    0.9450 H   0  0  0  0  0  0  0  0  0  0  0  0
    0.8411    0.1368   -0.3153 H   0  0  0  0  0  0  0  0  0  0  0  0
   -0.3932   -1.3259   -0.9616 H   0  0  0  0  0  0  0  0  0  0  0  0
  1  3  1  0  0  0  0
  1  2  1  0  0  0  0
  1  5  1  0  0  0  0
  2  6  1  0  0  0  0
  2  8  1  0  0  0  0
  4  1  1  0  0  0  0
  6 10  1  0  0  0  0
  7  2  1  0  0  0  0
  9  6  1  0  0  0  0
  9 12  1  0  0  0  0
 11  6  1  0  0  0  0
 13  9  1  0  0  0  0
 14  9  1  0  0  0  0
M  END
$$$$
