14
butane_opt
C  -3.935536   0.238701  -0.134002
C  -2.727220  -0.632384   0.193936
H  -4.916864  -0.412888  -0.053342
H  -3.791606   0.786408  -1.006835
H  -4.318211   0.702597   0.644768
C  -1.449329   0.306978   0.144506
H  -2.769306  -0.891548  -0.466449
H  -3.004017  -1.535823   1.324954
C  -0.062383  -0.744738  -0.110567
H  -1.566837   1.134144   1.023744
H  -1.389523   0.812985  -0.590343
H   0.192950  -1.106890   0.660374
H   0.706186  -0.243606   0.072209
H  -0.053628  -1.798727  -1.334076
