butane_opt
 OpenBabel08242015393D

 14 13  0  0  0  0  0  0  0  0999 V2000
   -3.9662    0.3399    0.2031 C   0  0  0  0  0  0  0  0  0  0  0  0
   -2.6390   -0.6625   -0.1399 C   0  0  0  0  0  0  0  0  0  0  0  0
   -4.7702   -0.1739    0.3868 H   0  0  0  0  0  0  0  0  0  0  0  0
   -3.8323    0.8088   -0.6889 H   0  0  0  0  0  0  0  0  0  0  0  0
   -3.8973    0.8865    1.0955 H   0  0  0  0  0  0  0  0  0  0  0  0
   -1.4413    0.1020   -0.2498 C   0  0  0  0  0  0  0  0  0  0  0  0
   -3.0089   -1.2582   -0.9289 H   0  0  0  0  0  0  0  0  0  0  0  0
   -2.4260   -1.4799    0.8052 H   0  0  0  0  0  0  0  0  0  0  0  0
   -0.1521   -0.6294    0.2125 C   0  0  0  0  0  0  0  0  0  0  0  0
   -1.5310    0.5974    0.6437 H   0  0  0  0  0  0  0  0  0  0  0  0
   -1.4752    0.7093   -1.1177 H   0  0  0  0  0  0  0  0  0  0  0  0
   -0.7934   -0.8878    0.9002 H   0  0  0  0  0  0  0  0  0  0  0  0
    0.9342    0.1309    0.8483 H   0  0  0  0  0  0  0  0  0  0  0  0
    0.0858   -1.5362   -0.8363 H   0  0  0  0  0  0  0  0  0  0  0  0
  1  3  1  0  0  0  0
  1  5  1  0  0  0  0
  2  1  1  0  0  0  0
  2  8  1  0  0  0  0
  4  1  1  0  0  0  0
  6  2  1  0  0  0  0
  6  9  1  0  0  0  0
  6 10  1  0  0  0  0
  7  2  1  0  0  0  0
  9 13  1  0  0  0  0
  9 12  1  0  0  0  0
 11  6  1  0  0  0  0
 14  9  1  0  0  0  0
M  END
$$$$
