butane_opt
 OpenBabel08242015393D

 14 10  0  0  0  0  0  0  0  0999 V2000
   -3.9827    0.2441   -0.0561 C   0  0  0  0  0  0  0  0  0  0  0  0
   -2.7288   -0.5997    0.1590 C   0  0  0  0  0  0  0  0  0  0  0  0
   -4.9291   -0.2382    0.1834 H   0  0  0  0  0  0  0  0  0  0  0  0
   -3.9672    1.0508   -1.0178 H   0  0  0  0  0  0  0  0  0  0  0  0
   -3.8031    0.6456    0.6170 H   0  0  0  0  0  0  0  0  0  0  0  0
   -1.3495    0.2004    0.0338 C   0  0  0  0  0  0  0  0  0  0  0  0
   -2.9383   -1.0551   -0.5572 H   0  0  0  0  0  0  0  0  0  0  0  0
   -2.6887   -1.3355    0.9872 H   0  0  0  0  0  0  0  0  0  0  0  0
   -0.1243   -0.7505    0.0079 C   0  0  0  0  0  1  0  0  0  0  0  0
   -1.6294    0.8669    0.8346 H   0  0  0  0  0  0  0  0  0  0  0  0
   -1.3756    1.1475   -1.0541 H   0  0  0  0  0  0  0  0  0  0  0  0
   -0.2372   -0.5613    0.2201 H   0  0  0  0  0  0  0  0  0  0  0  0
    0.8393   -0.0469    0.6965 H   0  0  0  0  0  0  0  0  0  0  0  0
   -0.0783   -2.1067   -1.3239 H   0  0  0  0  0  0  0  0  0  0  0  0
  1  2  1  0  0  0  0
  1  3  1  0  0  0  0
  1  5  1  0  0  0  0
  2  8  1  0  0  0  0
  4  1  1  0  0  0  0
  6 12  1  0  0  0  0
  6 10  1  0  0  0  0
  7  2  1  0  0  0  0
  9 13  1  0  0  0  0
 11  6  1  0  0  0  0
M  RAD  3   2   2   6   2  14   2
M  END
$$$$
