14
butane_opt
C  -3.975516   0.235315   0.067848
C  -2.732917  -0.612113  -0.120826
H  -4.999325  -0.476637  -0.035378
H  -4.257165   0.476418  -0.570793
H  -3.737665   1.318124   1.293583
C  -1.390044   0.272022  -0.031287
H  -2.719452  -1.458169  -1.083025
H  -2.833011  -1.231098   0.955416
C  -0.113537  -0.718650   0.120144
H  -1.443855   1.018812   0.841767
H  -1.631519   0.869631  -0.832294
H   0.553627  -2.119621   1.489630
H   0.761641  -0.318693  -0.631386
H  -0.168385  -0.659438  -0.284228
