14
butane_opt
C  -4.029764   0.296206  -0.066440
C  -2.701940  -0.643664   0.155087
H  -4.866790  -0.095294   0.175021
H  -4.078217   1.296940  -1.212510
H  -3.909186   0.607025   0.541597
C  -1.359980   0.146486   0.023009
H  -2.772410  -1.109790  -0.481786
H  -2.677703  -1.468881   1.291351
C  -0.150715  -0.662346  -0.053674
H  -1.012913   0.843620   1.042174
H  -1.426040   0.349953  -0.655585
H  -0.287277  -0.562628   0.494109
H   0.807483  -0.076593   0.714866
H   0.072461  -1.864978  -1.276003
