butane_opt
 OpenBabel08242015393D

 14 11  0  0  0  0  0  0  0  0999 V2000
   -3.9237    0.2421   -0.0917 C   0  0  0  0  0  0  0  0  0  0  0  0
   -2.8214   -0.6036    0.1919 C   0  0  0  0  0  0  0  0  0  0  0  0
   -4.7668   -0.4470    0.2797 H   0  0  0  0  0  0  0  0  0  0  0  0
   -3.9164    1.1440   -1.2425 H   0  0  0  0  0  0  0  0  0  0  0  0
   -3.9871    0.6542    0.6014 H   0  0  0  0  0  0  0  0  0  0  0  0
   -1.3981    0.2877    0.0584 C   0  0  0  0  0  0  0  0  0  0  0  0
   -2.7347   -1.3000   -0.5743 H   0  0  0  0  0  0  0  0  0  0  0  0
   -2.8988   -1.3819    1.3422 H   0  0  0  0  0  0  0  0  0  0  0  0
   -0.0836   -0.7808   -0.0407 C   0  0  0  0  0  0  0  0  0  0  0  0
   -1.5832    0.9463    0.9522 H   0  0  0  0  0  0  0  0  0  0  0  0
   -1.2747    0.9826   -0.9134 H   0  0  0  0  0  0  0  0  0  0  0  0
   -0.0489   -0.4511    0.1748 H   0  0  0  0  0  0  0  0  0  0  0  0
    0.7649   -0.1792    0.5319 H   0  0  0  0  0  0  0  0  0  0  0  0
    0.1595   -2.1799   -1.2600 H   0  0  0  0  0  0  0  0  0  0  0  0
  1  2  1  0  0  0  0
  1  3  1  0  0  0  0
  1  5  1  0  0  0  0
  2  8  1  0  0  0  0
  4  1  1  0  0  0  0
  6  2  1  0  0  0  0
  6 10  1  0  0  0  0
  7  2  1  0  0  0  0
  9  6  1  0  0  0  0
  9 13  1  0  0  0  0
 11  6  1  0  0  0  0
M  RAD  3   9   3  12   2  14   2
M  END
$$$$
