14
butane_opt
C  -3.934351   0.319277  -0.122111
C  -2.681816  -0.690733   0.131559
H  -4.647208   0.021568   0.150328
H  -4.030228   0.972289  -1.033076
H  -4.159847   0.863568   0.476294
C  -1.362768   0.159919   0.242570
H  -2.438227  -1.503759  -0.655587
H  -2.863868  -1.197355   0.969116
C  -0.251438  -0.680102  -0.100009
H  -1.308735   0.691377   0.991951
H  -1.213532   0.724474  -0.615452
H   0.041912  -1.345381   0.848072
H   0.940502   0.108832  -0.612375
H  -0.618411  -1.042836  -0.888235
