butane_opt
 OpenBabel08242015393D

 14 13  0  0  0  0  0  0  0  0999 V2000
   -3.9326    0.2500    0.0412 C   0  0  0  0  0  0  0  0  0  0  0  0
   -2.7095   -0.6054   -0.0045 C   0  0  0  0  0  0  0  0  0  0  0  0
   -4.8467   -0.3303    0.1562 H   0  0  0  0  0  0  0  0  0  0  0  0
   -4.0519    0.9116   -0.8550 H   0  0  0  0  0  0  0  0  0  0  0  0
   -3.8494    0.8624    0.8836 H   0  0  0  0  0  0  0  0  0  0  0  0
   -1.4157    0.2068   -0.0018 C   0  0  0  0  0  0  0  0  0  0  0  0
   -2.7551   -1.3105   -0.8603 H   0  0  0  0  0  0  0  0  0  0  0  0
   -2.6871   -1.1915    0.8716 H   0  0  0  0  0  0  0  0  0  0  0  0
   -0.1494   -0.7045    0.0555 C   0  0  0  0  0  0  0  0  0  0  0  0
   -1.4342    0.8334    0.8344 H   0  0  0  0  0  0  0  0  0  0  0  0
   -1.3981    0.8544   -0.9221 H   0  0  0  0  0  0  0  0  0  0  0  0
   -0.1630   -1.3772    0.9795 H   0  0  0  0  0  0  0  0  0  0  0  0
    0.7517   -0.1141    0.0465 H   0  0  0  0  0  0  0  0  0  0  0  0
   -0.1022   -1.3712   -0.7876 H   0  0  0  0  0  0  0  0  0  0  0  0
  1  3  1  0  0  0  0
  1  5  1  0  0  0  0
  2  6  1  0  0  0  0
  2  1  1  0  0  0  0
  2  8  1  0  0  0  0
  4  1  1  0  0  0  0
  6  9  1  0  0  0  0
  6 10  1  0  0  0  0
  7  2  1  0  0  0  0
  9 12  1  0  0  0  0
 11  6  1  0  0  0  0
 13  9  1  0  0  0  0
 14  9  1  0  0  0  0
M  END
$$$$
