butane_opt
 OpenBabel08242015393D

 14 12  0  0  0  0  0  0  0  0999 V2000
   -3.9907    0.1764    0.0977 C   0  0  0  0  0  0  0  0  0  0  0  0
   -2.7193   -0.5549    0.0423 C   0  0  0  0  0  0  0  0  0  0  0  0
   -4.7381   -0.2421   -0.1754 H   0  0  0  0  0  0  0  0  0  0  0  0
   -3.8754    0.5461   -0.6151 H   0  0  0  0  0  0  0  0  0  0  0  0
   -4.0931    1.1231    1.1947 H   0  0  0  0  0  0  0  0  0  0  0  0
   -1.3858    0.2521   -0.1327 C   0  0  0  0  0  0  0  0  0  0  0  0
   -2.8530   -1.3703   -1.0154 H   0  0  0  0  0  0  0  0  0  0  0  0
   -2.8445   -1.0526    0.9646 H   0  0  0  0  0  0  0  0  0  0  0  0
   -0.0968   -0.7335    0.0843 C   0  0  0  0  0  0  0  0  0  0  0  0
   -1.6976    0.6912    0.5935 H   0  0  0  0  0  0  0  0  0  0  0  0
   -1.4564    1.2363   -1.2070 H   0  0  0  0  0  0  0  0  0  0  0  0
   -0.4219   -1.2540    1.0907 H   0  0  0  0  0  0  0  0  0  0  0  0
    0.7048   -0.1917    0.5016 H   0  0  0  0  0  0  0  0  0  0  0  0
    0.5592   -1.6786   -1.0009 H   0  0  0  0  0  0  0  0  0  0  0  0
  1  5  1  0  0  0  0
  2  1  1  0  0  0  0
  2  8  1  0  0  0  0
  3  1  1  0  0  0  0
  4  1  1  0  0  0  0
  6  2  1  0  0  0  0
  6  9  1  0  0  0  0
  6 10  1  0  0  0  0
  7  2  1  0  0  0  0
  9 13  1  0  0  0  0
  9 12  1  0  0  0  0
 11  6  1  0  0  0  0
M  RAD  2   9   2  14   2
M  END
$$$$
