butane_opt
 OpenBabel08242015393D

 14 13  0  0  0  0  0  0  0  0999 V2000
   -3.8869    0.2693    0.2010 C   0  0  0  0  0  0  0  0  0  0  0  0
   -2.6122   -0.6456   -0.1739 C   0  0  0  0  0  0  0  0  0  0  0  0
   -4.8197   -0.3797    0.2524 H   0  0  0  0  0  0  0  0  0  0  0  0
   -4.3260    0.7629   -0.6026 H   0  0  0  0  0  0  0  0  0  0  0  0
   -3.8400    1.2813    1.2200 H   0  0  0  0  0  0  0  0  0  0  0  0
   -1.4252    0.1606   -0.1895 C   0  0  0  0  0  0  0  0  0  0  0  0
   -3.1373   -1.1111   -1.0515 H   0  0  0  0  0  0  0  0  0  0  0  0
   -2.5171   -1.4556    0.7757 H   0  0  0  0  0  0  0  0  0  0  0  0
   -0.2278   -0.6637    0.2336 C   0  0  0  0  0  0  0  0  0  0  0  0
   -1.6991    0.7215    0.4866 H   0  0  0  0  0  0  0  0  0  0  0  0
   -1.1529    1.0335   -1.2783 H   0  0  0  0  0  0  0  0  0  0  0  0
   -0.5470   -1.1657    0.9986 H   0  0  0  0  0  0  0  0  0  0  0  0
    0.7692   -0.0360    0.3760 H   0  0  0  0  0  0  0  0  0  0  0  0
    0.0907   -1.5753   -0.6288 H   0  0  0  0  0  0  0  0  0  0  0  0
  1  3  1  0  0  0  0
  1  5  1  0  0  0  0
  2  1  1  0  0  0  0
  2  8  1  0  0  0  0
  4  1  1  0  0  0  0
  6  2  1  0  0  0  0
  6  9  1  0  0  0  0
  6 10  1  0  0  0  0
  7  2  1  0  0  0  0
  9 13  1  0  0  0  0
  9 12  1  0  0  0  0
 11  6  1  0  0  0  0
 14  9  1  0  0  0  0
M  END
$$$$
