butane_opt
 OpenBabel08242015393D

 14 11  0  0  0  0  0  0  0  0999 V2000
   -3.9511    0.3074   -0.0681 C   0  0  0  0  0  0  0  0  0  0  0  0
   -2.7141   -0.7313    0.0111 C   0  0  0  0  0  0  0  0  0  0  0  0
   -4.5941   -0.0803    0.9668 H   0  0  0  0  0  0  0  0  0  0  0  0
   -4.4529    1.5217   -1.3482 H   0  0  0  0  0  0  0  0  0  0  0  0
   -3.3761    0.5203    0.4668 H   0  0  0  0  0  0  0  0  0  0  0  0
   -1.4189    0.1909    0.1406 C   0  0  0  0  0  0  0  0  0  0  0  0
   -2.6780   -1.1615   -0.7628 H   0  0  0  0  0  0  0  0  0  0  0  0
   -2.7824   -1.3665    0.9423 H   0  0  0  0  0  0  0  0  0  0  0  0
   -0.1741   -0.6732   -0.0069 C   0  0  0  0  0  0  0  0  0  0  0  0
   -1.1892    1.0442    1.0502 H   0  0  0  0  0  0  0  0  0  0  0  0
   -1.3549    0.5597   -0.6423 H   0  0  0  0  0  0  0  0  0  0  0  0
   -0.2324   -1.0955    0.8681 H   0  0  0  0  0  0  0  0  0  0  0  0
    0.8517    0.1127    0.0235 H   0  0  0  0  0  0  0  0  0  0  0  0
   -0.1804   -1.6039   -1.1274 H   0  0  0  0  0  0  0  0  0  0  0  0
  1  5  1  0  0  0  0
  1  3  1  0  0  0  0
  2  6  1  0  0  0  0
  2  8  1  0  0  0  0
  6 10  1  0  0  0  0
  7  2  1  0  0  0  0
  9 13  1  0  0  0  0
  9  6  1  0  0  0  0
  9 12  1  0  0  0  0
 11  6  1  0  0  0  0
 14  9  1  0  0  0  0
M  RAD  3   1   3   2   2   4   2
M  END
$$$$
