14
butane_opt
C  -3.883457   0.248864  -0.162633
C  -2.669572  -0.611367   0.195415
H  -4.973233  -0.359855  -0.200860
H  -3.717949   0.805915  -1.194748
H  -3.916514   0.798711   0.558427
C  -1.441287   0.232293   0.278603
H  -2.651336  -1.333166  -0.718400
H  -2.700787  -1.289527   1.148008
C  -0.236838  -0.691760  -0.126582
H  -1.427887   1.011830   1.139286
H  -1.627467   0.894236  -0.713713
H   0.687858  -1.648745   0.881967
H   0.674574  -0.103826  -0.640576
H  -0.636873  -1.378830  -1.009429
