14
butane_opt
C  -3.964527   0.282018   0.199011
C  -2.748742  -0.626929  -0.235679
H  -5.102499  -0.419916   0.876732
H  -4.385605   1.033080  -0.714828
H  -3.393389   0.687151   0.880213
C  -1.395946   0.224037  -0.136148
H  -3.075772  -1.475445  -1.290633
H  -2.459563  -0.893486   0.334848
C  -0.106925  -0.702656   0.277559
H  -1.501825   0.677548   0.501398
H  -1.038201   0.972216  -1.016990
H  -0.127978  -1.609436   1.376712
H   0.762589  -0.255748  -0.100769
H  -0.099713  -1.340379  -0.695295
