14
butane_opt
C  -3.963119   0.276699   0.034909
C  -2.693727  -0.626172   0.028921
H  -4.875803  -0.307788   0.042759
H  -4.014190   0.867446  -0.825434
H  -3.991957   0.978501   0.913357
C  -1.385899   0.168169  -0.028519
H  -2.730501  -1.288045  -0.826828
H  -2.726955  -1.280626   0.956508
C  -0.160236  -0.684237   0.053537
H  -1.378455   0.839191   0.830642
H  -1.329542   0.824116  -0.920670
H  -0.168294  -1.219982   0.884586
H   0.746277  -0.104985   0.158262
H  -0.115664  -1.397861  -0.840387
