butane_opt
 OpenBabel08242015393D

 14 12  0  0  0  0  0  0  0  0999 V2000
   -3.8269    0.1878    0.1820 C   0  0  0  0  0  0  0  0  0  0  0  0
   -2.7543   -0.5189   -0.0689 C   0  0  0  0  0  0  0  0  0  0  0  0
   -4.7854   -0.2577    0.1534 H   0  0  0  0  0  0  0  0  0  0  0  0
   -3.9833    0.6840   -0.6566 H   0  0  0  0  0  0  0  0  0  0  0  0
   -3.5842    0.8321    1.1190 H   0  0  0  0  0  0  0  0  0  0  0  0
   -1.4389    0.2722   -0.2066 C   0  0  0  0  0  0  0  0  0  0  0  0
   -2.8729   -1.3317   -1.0427 H   0  0  0  0  0  0  0  0  0  0  0  0
   -2.6176   -1.1240    0.7413 H   0  0  0  0  0  0  0  0  0  0  0  0
   -0.1678   -0.7776    0.1834 C   0  0  0  0  0  0  0  0  0  0  0  0
   -1.4592    0.5418    0.3446 H   0  0  0  0  0  0  0  0  0  0  0  0
   -1.5222    1.2249   -1.1975 H   0  0  0  0  0  0  0  0  0  0  0  0
   -0.7811   -1.0524    0.7963 H   0  0  0  0  0  0  0  0  0  0  0  0
    0.6431   -0.2806    0.9739 H   0  0  0  0  0  0  0  0  0  0  0  0
    0.2499   -1.7110   -0.8886 H   0  0  0  0  0  0  0  0  0  0  0  0
  1  5  1  0  0  0  0
  2  1  1  0  0  0  0
  2  8  1  0  0  0  0
  3  1  1  0  0  0  0
  4  1  1  0  0  0  0
  6  2  1  0  0  0  0
  6  9  1  0  0  0  0
  7  2  1  0  0  0  0
  9 12  1  0  0  0  0
  9 13  1  0  0  0  0
 11  6  1  0  0  0  0
 14  9  1  0  0  0  0
M  RAD  2   6   2  10   2
M  END
$$$$
