butane_opt
 OpenBabel08242015393D

 14 12  0  0  0  0  0  0  0  0999 V2000
   -3.9722    0.2636    0.1134 C   0  0  0  0  0  0  0  0  0  0  0  0
   -2.7103   -0.6237   -0.0333 C   0  0  0  0  0  0  0  0  0  0  0  0
   -4.9405   -0.2929   -0.3781 H   0  0  0  0  0  0  0  0  0  0  0  0
   -4.0742    0.4058   -0.4299 H   0  0  0  0  0  0  0  0  0  0  0  0
   -4.1329    1.1672    1.0325 H   0  0  0  0  0  0  0  0  0  0  0  0
   -1.3802    0.2248   -0.0727 C   0  0  0  0  0  0  0  0  0  0  0  0
   -2.9915   -1.2924   -0.8933 H   0  0  0  0  0  0  0  0  0  0  0  0
   -2.5018   -1.1428    0.8359 H   0  0  0  0  0  0  0  0  0  0  0  0
   -0.1029   -0.7202    0.1167 C   0  0  0  0  0  0  0  0  0  0  0  0
   -1.5878    0.5564    0.4653 H   0  0  0  0  0  0  0  0  0  0  0  0
   -1.3987    1.1111   -1.1152 H   0  0  0  0  0  0  0  0  0  0  0  0
   -0.1670   -1.4110    1.0527 H   0  0  0  0  0  0  0  0  0  0  0  0
    0.8899   -0.1518    0.1449 H   0  0  0  0  0  0  0  0  0  0  0  0
   -0.1108   -1.1900   -0.7397 H   0  0  0  0  0  0  0  0  0  0  0  0
  1  5  1  0  0  0  0
  2  1  1  0  0  0  0
  2  8  1  0  0  0  0
  3  1  1  0  0  0  0
  6  2  1  0  0  0  0
  6  9  1  0  0  0  0
  6 10  1  0  0  0  0
  7  2  1  0  0  0  0
  9 13  1  0  0  0  0
  9 12  1  0  0  0  0
 11  6  1  0  0  0  0
 14  9  1  0  0  0  0
M  RAD  2   1   2   4   2
M  END
$$$$
