14
butane_opt
C  -4.006946   0.249190  -0.076265
C  -2.749191  -0.569367   0.198953
H  -5.029023  -0.609205  -0.779970
H  -3.431061   0.327486  -0.645901
H  -4.167034   1.263384   0.983136
C  -1.366437   0.275157   0.102353
H  -2.821511  -1.146601  -0.696700
H  -2.885510  -1.166312   1.168495
C  -0.077677  -0.758885  -0.068651
H  -1.229836   0.629868   0.783591
H  -1.523707   1.049157  -0.793304
H  -0.146743  -1.532549   0.818721
H   0.672610  -0.376541  -0.282681
H  -0.016853  -1.320988  -0.949754
