butane_opt
 OpenBabel08242015393D

 14 11  0  0  0  0  0  0  0  0999 V2000
   -4.0345    0.2931   -0.1516 C   0  0  0  0  0  0  0  0  0  0  0  0
   -2.7190   -0.6259    0.1927 C   0  0  0  0  0  0  0  0  0  0  0  0
   -5.0170   -0.3200   -0.2322 H   0  0  0  0  0  0  0  0  0  0  0  0
   -3.8341    1.1344   -1.3136 H   0  0  0  0  0  0  0  0  0  0  0  0
   -4.3180    0.7656    0.5429 H   0  0  0  0  0  0  0  0  0  0  0  0
   -1.2975    0.1261    0.2405 C   0  0  0  0  0  0  0  0  0  0  0  0
   -2.4540   -1.1792   -0.5976 H   0  0  0  0  0  0  0  0  0  0  0  0
   -2.8622   -1.2911    1.1258 H   0  0  0  0  0  0  0  0  0  0  0  0
   -0.1225   -0.6648   -0.1398 C   0  0  0  0  0  0  0  0  0  0  0  0
   -1.1687    1.1949    1.4409 H   0  0  0  0  0  0  0  0  0  0  0  0
   -1.4705    0.4393   -0.2546 H   0  0  0  0  0  0  0  0  0  0  0  0
    0.1734   -1.4371    0.8631 H   0  0  0  0  0  0  0  0  0  0  0  0
    0.7239   -0.3254   -1.0605 H   0  0  0  0  0  0  0  0  0  0  0  0
   -0.6637   -1.0042   -0.7919 H   0  0  0  0  0  0  0  0  0  0  0  0
  1  2  1  0  0  0  0
  1  5  1  0  0  0  0
  2  6  1  0  0  0  0
  2  8  1  0  0  0  0
  3  1  1  0  0  0  0
  4  1  1  0  0  0  0
  7  2  1  0  0  0  0
  9  6  1  0  0  0  0
  9 12  1  0  0  0  0
 13  9  1  0  0  0  0
 14  9  1  0  0  0  0
M  RAD  3   6   3  10   2  11   2
M  END
$$$$
