butane_opt
 OpenBabel08242015393D

 14 13  0  0  0  0  0  0  0  0999 V2000
   -3.9721    0.3141   -0.1454 C   0  0  0  0  0  0  0  0  0  0  0  0
   -2.6803   -0.6502    0.1828 C   0  0  0  0  0  0  0  0  0  0  0  0
   -4.8191   -0.0585   -0.2243 H   0  0  0  0  0  0  0  0  0  0  0  0
   -3.6331    1.0771   -1.2063 H   0  0  0  0  0  0  0  0  0  0  0  0
   -4.0226    0.5647    0.4502 H   0  0  0  0  0  0  0  0  0  0  0  0
   -1.4390    0.1197    0.2428 C   0  0  0  0  0  0  0  0  0  0  0  0
   -2.5258   -1.0366   -0.4609 H   0  0  0  0  0  0  0  0  0  0  0  0
   -2.6000   -1.5774    1.1283 H   0  0  0  0  0  0  0  0  0  0  0  0
   -0.1689   -0.6574   -0.1448 C   0  0  0  0  0  0  0  0  0  0  0  0
   -1.1801    1.0333    1.2527 H   0  0  0  0  0  0  0  0  0  0  0  0
   -1.5949    0.4007   -0.3465 H   0  0  0  0  0  0  0  0  0  0  0  0
    0.1379   -1.3239    0.7085 H   0  0  0  0  0  0  0  0  0  0  0  0
    0.9933    0.1488   -0.4084 H   0  0  0  0  0  0  0  0  0  0  0  0
   -0.7277   -1.1560   -1.0872 H   0  0  0  0  0  0  0  0  0  0  0  0
  1  2  1  0  0  0  0
  1  5  1  0  0  0  0
  2  6  1  0  0  0  0
  2  8  1  0  0  0  0
  3  1  1  0  0  0  0
  4  1  1  0  0  0  0
  6 10  1  0  0  0  0
  7  2  1  0  0  0  0
  9  6  1  0  0  0  0
  9 12  1  0  0  0  0
 11  6  1  0  0  0  0
 13  9  1  0  0  0  0
 14  9  1  0  0  0  0
M  END
$$$$
