14
butane_opt
C  -3.921487   0.202512   0.207207
C  -2.738187  -0.498626  -0.102864
H  -5.002755  -0.473786   0.159380
H  -3.617210   0.573445  -0.546632
H  -3.735885   1.127886   1.339702
C  -1.453866   0.192896  -0.292254
H  -3.049604  -1.147810  -1.007138
H  -2.454128  -1.123186   0.698011
C  -0.169323  -0.736423   0.200602
H  -1.557516   0.915250   0.705358
H  -0.992877   0.885620  -1.329705
H  -0.445429  -1.343979   1.191114
H   0.768473  -0.213878   0.692398
H   0.443656  -1.621771  -0.619045
