butane_opt
 OpenBabel08242015393D

 14 12  0  0  0  0  0  0  0  0999 V2000
   -3.9386    0.2473   -0.1643 C   0  0  0  0  0  0  0  0  0  0  0  0
   -2.7316   -0.6359    0.3278 C   0  0  0  0  0  0  0  0  0  0  0  0
   -4.9413   -0.5824   -0.5414 H   0  0  0  0  0  0  0  0  0  0  0  0
   -3.6001    0.6821   -1.1049 H   0  0  0  0  0  0  0  0  0  0  0  0
   -4.3972    0.9782    0.6256 H   0  0  0  0  0  0  0  0  0  0  0  0
   -1.4278    0.2747    0.1723 C   0  0  0  0  0  0  0  0  0  0  0  0
   -2.6983   -1.0592   -0.3543 H   0  0  0  0  0  0  0  0  0  0  0  0
   -2.8051   -1.3062    1.1737 H   0  0  0  0  0  0  0  0  0  0  0  0
   -0.1102   -0.7130   -0.1872 C   0  0  0  0  0  0  0  0  0  0  0  0
   -1.1994    0.8937    1.0535 H   0  0  0  0  0  0  0  0  0  0  0  0
   -1.6839    1.0717   -0.7097 H   0  0  0  0  0  0  0  0  0  0  0  0
    0.0938   -1.0990    0.6013 H   0  0  0  0  0  0  0  0  0  0  0  0
    0.5920   -0.4094    0.2813 H   0  0  0  0  0  0  0  0  0  0  0  0
    0.1307   -1.7889   -1.3729 H   0  0  0  0  0  0  0  0  0  0  0  0
  1  2  1  0  0  0  0
  1  5  1  0  0  0  0
  2  8  1  0  0  0  0
  3  1  1  0  0  0  0
  4  1  1  0  0  0  0
  6  2  1  0  0  0  0
  6 10  1  0  0  0  0
  7  2  1  0  0  0  0
  9  6  1  0  0  0  0
  9 13  1  0  0  0  0
  9 12  1  0  0  0  0
 11  6  1  0  0  0  0
M  RAD  2   9   2  14   2
M  END
$$$$
