butane_opt
 OpenBabel08242015393D

 14 12  0  0  0  0  0  0  0  0999 V2000
   -3.9644    0.2271   -0.1902 C   0  0  0  0  0  0  0  0  0  0  0  0
   -2.6971   -0.6060    0.2233 C   0  0  0  0  0  0  0  0  0  0  0  0
   -4.8557   -0.3075   -0.0550 H   0  0  0  0  0  0  0  0  0  0  0  0
   -3.8370    1.0724   -1.2898 H   0  0  0  0  0  0  0  0  0  0  0  0
   -4.3704    0.8068    0.4890 H   0  0  0  0  0  0  0  0  0  0  0  0
   -1.4146    0.2292    0.2480 C   0  0  0  0  0  0  0  0  0  0  0  0
   -2.6213   -1.3291   -0.5707 H   0  0  0  0  0  0  0  0  0  0  0  0
   -2.8323   -1.2606    1.1983 H   0  0  0  0  0  0  0  0  0  0  0  0
   -0.1219   -0.7088   -0.1840 C   0  0  0  0  0  0  0  0  0  0  0  0
   -1.1475    1.3191    1.5599 H   0  0  0  0  0  0  0  0  0  0  0  0
   -1.3446    0.4144   -0.3720 H   0  0  0  0  0  0  0  0  0  0  0  0
    0.3469   -1.5198    0.8792 H   0  0  0  0  0  0  0  0  0  0  0  0
    0.6339   -0.4220   -0.8104 H   0  0  0  0  0  0  0  0  0  0  0  0
   -0.5617   -0.9405   -0.7426 H   0  0  0  0  0  0  0  0  0  0  0  0
  1  3  1  0  0  0  0
  1  2  1  0  0  0  0
  1  5  1  0  0  0  0
  2  6  1  0  0  0  0
  2  8  1  0  0  0  0
  4  1  1  0  0  0  0
  7  2  1  0  0  0  0
  9  6  1  0  0  0  0
  9 12  1  0  0  0  0
 11  6  1  0  0  0  0
 13  9  1  0  0  0  0
 14  9  1  0  0  0  0
M  RAD  2   6   2  10   2
M  END
$$$$
