butane_opt
 OpenBabel08242015393D

 14  9  0  0  0  0  0  0  0  0999 V2000
   -4.0166    0.3036    0.0002 C   0  0  0  0  0  0  0  0  0  0  0  0
   -2.7703   -0.6485    0.0967 C   0  0  0  0  0  0  0  0  0  0  0  0
   -4.8239   -0.4025   -0.4837 H   0  0  0  0  0  0  0  0  0  0  0  0
   -3.7974    0.4989   -0.6531 H   0  0  0  0  0  0  0  0  0  0  0  0
   -4.1356    1.5796    1.1982 H   0  0  0  0  0  0  0  0  0  0  0  0
   -1.3358    0.1326   -0.0336 C   0  0  0  0  0  0  0  0  0  0  0  0
   -2.5709   -1.3651   -0.8520 H   0  0  0  0  0  0  0  0  0  0  0  0
   -2.6353   -1.1103    0.9691 H   0  0  0  0  0  0  0  0  0  0  0  0
   -0.1154   -0.6616    0.0029 C   0  0  0  0  0  0  0  0  0  0  0  0
   -1.2226    0.8073    0.9131 H   0  0  0  0  0  0  0  0  0  0  0  0
   -1.3214    0.7108   -0.8039 H   0  0  0  0  0  0  0  0  0  0  0  0
   -0.0492   -1.6699    1.1891 H   0  0  0  0  0  0  0  0  0  0  0  0
    0.6932   -0.1771   -0.2526 H   0  0  0  0  0  0  0  0  0  0  0  0
   -0.2889   -0.8648   -0.4751 H   0  0  0  0  0  0  0  0  0  0  0  0
  1  2  1  0  0  0  0
  2  8  1  0  0  0  0
  3  1  1  0  0  0  0
  4  1  1  0  0  0  0
  6  9  1  0  0  0  0
  6 10  1  0  0  0  0
  7  2  1  0  0  0  0
 11  6  1  0  0  0  0
 13  9  1  0  0  0  0
M  RAD  7   1   2   2   2   5   2   6   2   9   3  12   2  14   2
M  END
$$$$
