butane_opt
 OpenBabel08242015393D

 14 12  0  0  0  0  0  0  0  0999 V2000
   -3.8649    0.1567    0.1779 C   0  0  0  0  0  0  0  0  0  0  0  0
   -2.7285   -0.4531   -0.1581 C   0  0  0  0  0  0  0  0  0  0  0  0
   -4.8290   -0.5479    0.4461 H   0  0  0  0  0  0  0  0  0  0  0  0
   -4.2524    1.0275   -0.8483 H   0  0  0  0  0  0  0  0  0  0  0  0
   -3.4925    0.5939    0.8174 H   0  0  0  0  0  0  0  0  0  0  0  0
   -1.4643    0.1841   -0.0483 C   0  0  0  0  0  0  0  0  0  0  0  0
   -2.7196   -1.4083   -1.3320 H   0  0  0  0  0  0  0  0  0  0  0  0
   -2.4853   -0.7992    0.3929 H   0  0  0  0  0  0  0  0  0  0  0  0
   -0.1379   -0.7671    0.1687 C   0  0  0  0  0  0  0  0  0  0  0  0
   -1.4560    0.8497    0.6995 H   0  0  0  0  0  0  0  0  0  0  0  0
   -1.5746    1.1962   -1.1061 H   0  0  0  0  0  0  0  0  0  0  0  0
   -0.2585   -1.6249    1.2912 H   0  0  0  0  0  0  0  0  0  0  0  0
    0.6691   -0.1547   -0.1302 H   0  0  0  0  0  0  0  0  0  0  0  0
   -0.2005   -1.1077   -0.4620 H   0  0  0  0  0  0  0  0  0  0  0  0
  1  3  1  0  0  0  0
  1  5  1  0  0  0  0
  2  6  1  0  0  0  0
  2  1  1  0  0  0  0
  2  8  1  0  0  0  0
  4  1  1  0  0  0  0
  6 10  1  0  0  0  0
  7  2  1  0  0  0  0
  9 12  1  0  0  0  0
 11  6  1  0  0  0  0
 13  9  1  0  0  0  0
 14  9  1  0  0  0  0
M  RAD  2   6   2   9   2
M  END
$$$$
