14
butane_opt
C  -3.946591   0.348380  -0.085807
C  -2.708264  -0.677334   0.089789
H  -4.692957  -0.169122  -0.081603
H  -3.719080   1.099156  -1.122376
H  -4.050565   0.815359   0.783203
C  -1.399275   0.052622   0.208939
H  -2.656152  -1.389743  -0.736392
H  -2.521670  -1.286017   0.918544
C  -0.200554  -0.645261  -0.052652
H  -1.338828   0.867113   1.158811
H  -1.278788   0.883477  -0.683274
H  -0.021305  -1.328921   0.896720
H   0.933628   0.116818  -0.831221
H  -0.674270  -0.965959  -0.821219
