butane_opt
 OpenBabel08242015393D

 14 13  0  0  0  0  0  0  0  0999 V2000
   -3.9722    0.2496   -0.0839 C   0  0  0  0  0  0  0  0  0  0  0  0
   -2.7738   -0.6154    0.1947 C   0  0  0  0  0  0  0  0  0  0  0  0
   -4.9048   -0.4464   -0.4370 H   0  0  0  0  0  0  0  0  0  0  0  0
   -3.5371    0.8994   -1.1059 H   0  0  0  0  0  0  0  0  0  0  0  0
   -4.3536    1.0357    0.6688 H   0  0  0  0  0  0  0  0  0  0  0  0
   -1.3949    0.2217    0.1303 C   0  0  0  0  0  0  0  0  0  0  0  0
   -2.9265   -0.9589   -0.6084 H   0  0  0  0  0  0  0  0  0  0  0  0
   -2.8452   -1.3184    1.1339 H   0  0  0  0  0  0  0  0  0  0  0  0
   -0.0204   -0.7382   -0.0865 C   0  0  0  0  0  0  0  0  0  0  0  0
   -1.1938    1.0598    1.0592 H   0  0  0  0  0  0  0  0  0  0  0  0
   -1.6748    0.6442   -0.5352 H   0  0  0  0  0  0  0  0  0  0  0  0
   -0.0734   -1.2864    0.8004 H   0  0  0  0  0  0  0  0  0  0  0  0
    0.7469   -0.1523   -0.3708 H   0  0  0  0  0  0  0  0  0  0  0  0
   -0.2875   -1.4093   -1.0220 H   0  0  0  0  0  0  0  0  0  0  0  0
  1  2  1  0  0  0  0
  1  5  1  0  0  0  0
  2  8  1  0  0  0  0
  3  1  1  0  0  0  0
  4  1  1  0  0  0  0
  6  2  1  0  0  0  0
  6 10  1  0  0  0  0
  7  2  1  0  0  0  0
  9  6  1  0  0  0  0
  9 12  1  0  0  0  0
 11  6  1  0  0  0  0
 13  9  1  0  0  0  0
 14  9  1  0  0  0  0
M  END
$$$$
