butane_opt
 OpenBabel08242015393D

 14 10  0  0  0  0  0  0  0  0999 V2000
   -3.8741    0.2138   -0.0467 C   0  0  0  0  0  0  0  0  0  0  0  0
   -2.6641   -0.5382    0.1138 C   0  0  0  0  0  0  0  0  0  0  0  0
   -4.9304   -0.5951    0.1998 H   0  0  0  0  0  0  0  0  0  0  0  0
   -3.7508    1.1441   -1.1131 H   0  0  0  0  0  0  0  0  0  0  0  0
   -3.8035    0.6154    0.6136 H   0  0  0  0  0  0  0  0  0  0  0  0
   -1.4721    0.1924    0.0824 C   0  0  0  0  0  0  0  0  0  0  0  0
   -2.6483   -1.0297   -0.6966 H   0  0  0  0  0  0  0  0  0  0  0  0
   -2.8298   -1.4299    1.2408 H   0  0  0  0  0  0  0  0  0  0  0  0
   -0.2279   -0.7257   -0.0438 C   0  0  0  0  0  1  0  0  0  0  0  0
   -1.4384    0.8512    0.9161 H   0  0  0  0  0  0  0  0  0  0  0  0
   -1.4347    1.0545   -0.9213 H   0  0  0  0  0  0  0  0  0  0  0  0
    0.1584   -0.6677    0.4752 H   0  0  0  0  0  0  0  0  0  0  0  0
    0.5230   -0.2425    0.6045 H   0  0  0  0  0  0  0  0  0  0  0  0
    0.0015   -1.9323   -1.2127 H   0  0  0  0  0  0  0  0  0  0  0  0
  1  2  1  0  0  0  0
  1  3  1  0  0  0  0
  1  5  1  0  0  0  0
  2  8  1  0  0  0  0
  4  1  1  0  0  0  0
  6  2  1  0  0  0  0
  6 10  1  0  0  0  0
  7  2  1  0  0  0  0
  9 12  1  0  0  0  0
 11  6  1  0  0  0  0
M  RAD  3   6   2  13   2  14   2
M  END
$$$$
