14
butane_opt
C  -3.839853   0.222070  -0.148349
C  -2.730608  -0.530377   0.148061
H  -5.131401  -0.642516   0.714352
H  -4.278419   1.403276  -1.412269
H  -3.331278   0.262368   0.249317
C  -1.453743   0.219196   0.177126
H  -2.741366  -1.026697  -0.618443
H  -2.844709  -1.343648   1.102203
C  -0.141531  -0.756945  -0.110810
H  -1.358416   1.353743   1.339015
H  -1.713659   0.757359  -0.455886
H  -0.224182  -1.171420   0.587187
H   0.732936  -0.089551   0.205902
H  -0.104544  -1.881367  -1.179602
