14
butane_opt
C  -3.896073   0.300941   0.202568
C  -2.685497  -0.680104  -0.127663
H  -4.614107  -0.099210   0.297753
H  -4.259773   0.901122  -0.467728
H  -3.750344   0.964614   1.019488
C  -1.418622   0.150799  -0.225107
H  -2.687771  -1.377899  -1.039686
H  -2.384163  -1.290354   0.627492
C  -0.238333  -0.659627   0.193249
H  -1.348511   0.530700   0.490501
H  -1.530986   0.867955  -1.226665
H  -0.701868  -1.055748   0.975564
H   0.812869   0.144707   0.953311
H   0.251746  -1.366012  -0.693408
