butane_opt
 OpenBabel08242015393D

 14 11  0  0  0  0  0  0  0  0999 V2000
   -4.0069    0.2492   -0.0763 C   0  0  0  0  0  0  0  0  0  0  0  0
   -2.7492   -0.5694    0.1990 C   0  0  0  0  0  0  0  0  0  0  0  0
   -5.0290   -0.6092   -0.7800 H   0  0  0  0  0  0  0  0  0  0  0  0
   -3.4311    0.3275   -0.6459 H   0  0  0  0  0  0  0  0  0  0  0  0
   -4.1670    1.2634    0.9831 H   0  0  0  0  0  0  0  0  0  0  0  0
   -1.3664    0.2752    0.1024 C   0  0  0  0  0  0  0  0  0  0  0  0
   -2.8215   -1.1466   -0.6967 H   0  0  0  0  0  0  0  0  0  0  0  0
   -2.8855   -1.1663    1.1685 H   0  0  0  0  0  0  0  0  0  0  0  0
   -0.0777   -0.7589   -0.0687 C   0  0  0  0  0  0  0  0  0  0  0  0
   -1.2298    0.6299    0.7836 H   0  0  0  0  0  0  0  0  0  0  0  0
   -1.5237    1.0492   -0.7933 H   0  0  0  0  0  0  0  0  0  0  0  0
   -0.1467   -1.5325    0.8187 H   0  0  0  0  0  0  0  0  0  0  0  0
    0.6726   -0.3765   -0.2827 H   0  0  0  0  0  0  0  0  0  0  0  0
   -0.0169   -1.3210   -0.9498 H   0  0  0  0  0  0  0  0  0  0  0  0
  1  5  1  0  0  0  0
  2  8  1  0  0  0  0
  3  1  1  0  0  0  0
  4  1  1  0  0  0  0
  6 10  1  0  0  0  0
  7  2  1  0  0  0  0
  9  6  1  0  0  0  0
  9 12  1  0  0  0  0
 11  6  1  0  0  0  0
 13  9  1  0  0  0  0
 14  9  1  0  0  0  0
M  RAD  3   1   2   2   3   6   2
M  END
$$$$
