butane_opt
 OpenBabel08242015393D

 14 12  0  0  0  0  0  0  0  0999 V2000
   -3.8961    0.3009    0.2026 C   0  0  0  0  0  0  0  0  0  0  0  0
   -2.6855   -0.6801   -0.1277 C   0  0  0  0  0  0  0  0  0  0  0  0
   -4.6141   -0.0992    0.2978 H   0  0  0  0  0  0  0  0  0  0  0  0
   -4.2598    0.9011   -0.4677 H   0  0  0  0  0  0  0  0  0  0  0  0
   -3.7503    0.9646    1.0195 H   0  0  0  0  0  0  0  0  0  0  0  0
   -1.4186    0.1508   -0.2251 C   0  0  0  0  0  0  0  0  0  0  0  0
   -2.6878   -1.3779   -1.0397 H   0  0  0  0  0  0  0  0  0  0  0  0
   -2.3842   -1.2904    0.6275 H   0  0  0  0  0  0  0  0  0  0  0  0
   -0.2383   -0.6596    0.1932 C   0  0  0  0  0  0  0  0  0  0  0  0
   -1.3485    0.5307    0.4905 H   0  0  0  0  0  0  0  0  0  0  0  0
   -1.5310    0.8680   -1.2267 H   0  0  0  0  0  0  0  0  0  0  0  0
   -0.7019   -1.0557    0.9756 H   0  0  0  0  0  0  0  0  0  0  0  0
    0.8129    0.1447    0.9533 H   0  0  0  0  0  0  0  0  0  0  0  0
    0.2517   -1.3660   -0.6934 H   0  0  0  0  0  0  0  0  0  0  0  0
  1  3  1  0  0  0  0
  1  5  1  0  0  0  0
  2  1  1  0  0  0  0
  2  8  1  0  0  0  0
  4  1  1  0  0  0  0
  6  2  1  0  0  0  0
  6  9  1  0  0  0  0
  6 10  1  0  0  0  0
  7  2  1  0  0  0  0
  9 12  1  0  0  0  0
 11  6  1  0  0  0  0
 14  9  1  0  0  0  0
M  RAD  2   9   2  13   2
M  END
$$$$
