14
butane_opt
C  -3.866306   0.223297   0.185216
C  -2.722341  -0.569235  -0.123453
H  -5.018139  -0.652655   0.175723
H  -3.883593   0.595908  -0.692402
H  -3.935653   1.249595   1.304779
C  -1.498310   0.259919  -0.211310
H  -3.082850  -1.133243  -0.933561
H  -2.406920  -1.235530   0.712149
C  -0.106886  -0.753532   0.192967
H  -1.614099   0.668730   0.636463
H  -1.286680   0.941239  -1.179173
H  -0.470667  -1.271133   1.068441
H   0.816343  -0.207014   0.488371
H   0.234034  -1.374094  -0.652624
