butane_opt
 OpenBabel08242015393D

 14 13  0  0  0  0  0  0  0  0999 V2000
   -3.9168    0.3361    0.1761 C   0  0  0  0  0  0  0  0  0  0  0  0
   -2.6594   -0.6762   -0.1011 C   0  0  0  0  0  0  0  0  0  0  0  0
   -4.9040   -0.4526   -0.0350 H   0  0  0  0  0  0  0  0  0  0  0  0
   -4.0651    0.9360   -0.6560 H   0  0  0  0  0  0  0  0  0  0  0  0
   -4.0828    1.2126    1.1501 H   0  0  0  0  0  0  0  0  0  0  0  0
   -1.4191    0.0911   -0.1364 C   0  0  0  0  0  0  0  0  0  0  0  0
   -2.5191   -1.3439   -0.8218 H   0  0  0  0  0  0  0  0  0  0  0  0
   -2.5308   -1.3399    0.7326 H   0  0  0  0  0  0  0  0  0  0  0  0
   -0.1972   -0.6389    0.1645 C   0  0  0  0  0  0  0  0  0  0  0  0
   -1.6902    0.4960    0.4183 H   0  0  0  0  0  0  0  0  0  0  0  0
   -1.2227    0.8723   -1.2297 H   0  0  0  0  0  0  0  0  0  0  0  0
   -0.3990   -0.9521    0.9484 H   0  0  0  0  0  0  0  0  0  0  0  0
    1.0085    0.1839    0.4112 H   0  0  0  0  0  0  0  0  0  0  0  0
   -0.3146   -1.3975   -0.7118 H   0  0  0  0  0  0  0  0  0  0  0  0
  1  5  1  0  0  0  0
  2  1  1  0  0  0  0
  2  8  1  0  0  0  0
  3  1  1  0  0  0  0
  4  1  1  0  0  0  0
  6  2  1  0  0  0  0
  6  9  1  0  0  0  0
  6 10  1  0  0  0  0
  7  2  1  0  0  0  0
  9 13  1  0  0  0  0
  9 12  1  0  0  0  0
 11  6  1  0  0  0  0
 14  9  1  0  0  0  0
M  END
$$$$
