14
butane_opt
C  -3.928603   0.256884   0.045143
C  -2.704235  -0.604856   0.005628
H  -4.838347  -0.365258   0.015008
H  -3.935149   0.837457  -0.836750
H  -3.950699   0.956825   0.902248
C  -1.416159   0.198704  -0.005351
H  -2.716359  -1.317439  -0.883512
H  -2.711386  -1.223048   0.890252
C  -0.164213  -0.699383   0.048347
H  -1.377490   0.906119   0.889931
H  -1.368061   0.793851  -0.872691
H  -0.096379  -1.506774   1.063101
H   0.722094  -0.133535  -0.089670
H  -0.188099  -1.237610  -0.739981
