14
butane_opt
C  -3.990711   0.176416   0.097719
C  -2.719334  -0.554892   0.042264
H  -4.738054  -0.242051  -0.175432
H  -3.875369   0.546050  -0.615083
H  -4.093081   1.123122   1.194678
C  -1.385806   0.252080  -0.132742
H  -2.853026  -1.370343  -1.015363
H  -2.844550  -1.052615   0.964626
C  -0.096780  -0.733527   0.084314
H  -1.697551   0.691206   0.593501
H  -1.456434   1.236307  -1.207039
H  -0.421862  -1.254039   1.090675
H   0.704769  -0.191744   0.501628
H   0.559151  -1.678635  -1.000944
