14
butane_opt
C  -3.949607   0.248434   0.010360
C  -2.706969  -0.608963   0.049166
H  -4.833976  -0.323570   0.088924
H  -3.961050   0.946697  -0.949399
H  -3.949916   0.869406   0.835203
C  -1.416463   0.201348   0.023437
H  -2.741400  -1.252733  -0.811907
H  -2.740616  -1.254683   0.944345
C  -0.142796  -0.703567   0.023331
H  -1.383971   0.865960   0.873536
H  -1.394675   0.860853  -0.895594
H  -0.083267  -1.229434   0.866094
H   0.768608  -0.139904   0.104470
H  -0.113449  -1.461860  -0.901540
