14
butane_opt
C  -3.867710   0.234325   0.070828
C  -2.722976  -0.592763  -0.031937
H  -4.852668  -0.451689   0.235882
H  -4.365436   0.927671  -0.727264
H  -3.536835   0.950464   0.951159
C  -1.448217   0.220522  -0.080579
H  -2.838777  -1.115737  -0.837239
H  -2.686526  -1.492332   1.045054
C  -0.150088  -0.751799   0.092828
H  -1.376264   0.818683   0.690076
H  -1.319847   1.196030  -1.083177
H  -0.564136  -0.887238   0.636083
H   0.596980  -0.200325   0.801153
H   0.252138  -1.609329  -0.948960
