14
butane_opt
C  -3.951757   0.269864   0.036490
C  -2.696899  -0.636839   0.027167
H  -4.841262  -0.265169   0.051430
H  -4.054976   0.853844  -0.829479
H  -4.005116   0.984311   0.939719
C  -1.395168   0.179769  -0.026332
H  -2.698630  -1.284107  -0.822462
H  -2.688517  -1.257355   0.901913
C  -0.161550  -0.684171   0.045070
H  -1.384128   0.857328   0.829843
H  -1.368725   0.828801  -0.926723
H  -0.214264  -1.274891   0.957692
H   0.757606  -0.077930   0.156344
H  -0.060849  -1.383323  -0.803805
