14
butane_opt
C  -4.016565   0.303638   0.000195
C  -2.770263  -0.648529   0.096737
H  -4.823911  -0.402529  -0.483684
H  -3.797433   0.498873  -0.653069
H  -4.135554   1.579627   1.198212
C  -1.335762   0.132588  -0.033595
H  -2.570888  -1.365088  -0.852032
H  -2.635310  -1.110337   0.969143
C  -0.115441  -0.661562   0.002862
H  -1.222649   0.807321   0.913078
H  -1.321350   0.710753  -0.803946
H  -0.049178  -1.669913   1.189144
H   0.693152  -0.177063  -0.252582
H  -0.288943  -0.864811  -0.475136
