butane_opt
 OpenBabel08242015393D

 14 13  0  0  0  0  0  0  0  0999 V2000
   -3.9345    0.2737   -0.0085 C   0  0  0  0  0  0  0  0  0  0  0  0
   -2.6864   -0.6239    0.0802 C   0  0  0  0  0  0  0  0  0  0  0  0
   -4.8721   -0.3403   -0.0015 H   0  0  0  0  0  0  0  0  0  0  0  0
   -3.9300    0.9065   -0.9155 H   0  0  0  0  0  0  0  0  0  0  0  0
   -4.0020    0.9117    0.8026 H   0  0  0  0  0  0  0  0  0  0  0  0
   -1.4112    0.1819    0.0254 C   0  0  0  0  0  0  0  0  0  0  0  0
   -2.7010   -1.3194   -0.7594 H   0  0  0  0  0  0  0  0  0  0  0  0
   -2.7257   -1.2953    1.0148 H   0  0  0  0  0  0  0  0  0  0  0  0
   -0.1718   -0.6873    0.0064 C   0  0  0  0  0  0  0  0  0  0  0  0
   -1.3191    0.8657    0.8867 H   0  0  0  0  0  0  0  0  0  0  0  0
   -1.4640    0.8057   -0.8577 H   0  0  0  0  0  0  0  0  0  0  0  0
   -0.1540   -1.2006    0.8243 H   0  0  0  0  0  0  0  0  0  0  0  0
    0.7329   -0.0998    0.1267 H   0  0  0  0  0  0  0  0  0  0  0  0
   -0.1428   -1.4417   -0.9282 H   0  0  0  0  0  0  0  0  0  0  0  0
  1  3  1  0  0  0  0
  1  2  1  0  0  0  0
  1  5  1  0  0  0  0
  2  8  1  0  0  0  0
  4  1  1  0  0  0  0
  6  2  1  0  0  0  0
  6 10  1  0  0  0  0
  7  2  1  0  0  0  0
  9  6  1  0  0  0  0
  9 13  1  0  0  0  0
  9 12  1  0  0  0  0
 11  6  1  0  0  0  0
 14  9  1  0  0  0  0
M  END
$$$$
