butane_opt
 OpenBabel08242015393D

 14 13  0  0  0  0  0  0  0  0999 V2000
   -3.8372    0.3567    0.1720 C   0  0  0  0  0  0  0  0  0  0  0  0
   -2.6606   -0.7113   -0.0984 C   0  0  0  0  0  0  0  0  0  0  0  0
   -4.7861   -0.2472    0.2070 H   0  0  0  0  0  0  0  0  0  0  0  0
   -4.0460    0.7716   -0.6112 H   0  0  0  0  0  0  0  0  0  0  0  0
   -4.0499    1.0815    1.1341 H   0  0  0  0  0  0  0  0  0  0  0  0
   -1.4175    0.1355   -0.2017 C   0  0  0  0  0  0  0  0  0  0  0  0
   -2.9860   -1.4833   -0.9630 H   0  0  0  0  0  0  0  0  0  0  0  0
   -2.6583   -1.2223    0.6565 H   0  0  0  0  0  0  0  0  0  0  0  0
   -0.2341   -0.6531    0.2209 C   0  0  0  0  0  0  0  0  0  0  0  0
   -1.4737    0.7000    0.5103 H   0  0  0  0  0  0  0  0  0  0  0  0
   -1.3208    0.8031   -1.2211 H   0  0  0  0  0  0  0  0  0  0  0  0
   -0.5048   -0.9998    0.9000 H   0  0  0  0  0  0  0  0  0  0  0  0
    0.7731   -0.0495    0.3321 H   0  0  0  0  0  0  0  0  0  0  0  0
   -0.1902   -1.3296   -0.6040 H   0  0  0  0  0  0  0  0  0  0  0  0
  1  3  1  0  0  0  0
  1  5  1  0  0  0  0
  2  1  1  0  0  0  0
  2  8  1  0  0  0  0
  4  1  1  0  0  0  0
  6  2  1  0  0  0  0
  6  9  1  0  0  0  0
  6 10  1  0  0  0  0
  7  2  1  0  0  0  0
  9 13  1  0  0  0  0
  9 12  1  0  0  0  0
 11  6  1  0  0  0  0
 14  9  1  0  0  0  0
M  END
$$$$
