butane_opt
 OpenBabel08242015393D

 14 13  0  0  0  0  0  0  0  0999 V2000
   -3.9460    0.3037   -0.1016 C   0  0  0  0  0  0  0  0  0  0  0  0
   -2.6557   -0.6428    0.1568 C   0  0  0  0  0  0  0  0  0  0  0  0
   -4.7295   -0.2427   -0.2991 H   0  0  0  0  0  0  0  0  0  0  0  0
   -3.7637    0.7626   -0.8893 H   0  0  0  0  0  0  0  0  0  0  0  0
   -4.3279    1.1578    0.9417 H   0  0  0  0  0  0  0  0  0  0  0  0
   -1.3639    0.1494    0.1821 C   0  0  0  0  0  0  0  0  0  0  0  0
   -2.8515   -1.3004   -0.8011 H   0  0  0  0  0  0  0  0  0  0  0  0
   -2.9130   -1.1749    0.9137 H   0  0  0  0  0  0  0  0  0  0  0  0
   -0.2133   -0.6777   -0.0963 C   0  0  0  0  0  0  0  0  0  0  0  0
   -1.2028    0.5630    0.9657 H   0  0  0  0  0  0  0  0  0  0  0  0
   -1.5533    0.7054   -0.7397 H   0  0  0  0  0  0  0  0  0  0  0  0
   -0.0991   -1.6286    0.9893 H   0  0  0  0  0  0  0  0  0  0  0  0
    0.8450    0.1555   -0.5262 H   0  0  0  0  0  0  0  0  0  0  0  0
   -0.3192   -0.9967   -0.7415 H   0  0  0  0  0  0  0  0  0  0  0  0
  1  2  1  0  0  0  0
  1  5  1  0  0  0  0
  2  6  1  0  0  0  0
  2  8  1  0  0  0  0
  3  1  1  0  0  0  0
  4  1  1  0  0  0  0
  6 10  1  0  0  0  0
  7  2  1  0  0  0  0
  9  6  1  0  0  0  0
  9 12  1  0  0  0  0
 11  6  1  0  0  0  0
 13  9  1  0  0  0  0
 14  9  1  0  0  0  0
M  END
$$$$
