butane_opt
 OpenBabel08242015393D

 14  8  0  0  0  0  0  0  0  0999 V2000
   -3.8853    0.1970    0.1402 C   0  0  0  0  0  1  0  0  0  0  0  0
   -2.6887   -0.5303   -0.0011 C   0  0  0  0  0  0  0  0  0  0  0  0
   -4.9003   -0.3929   -0.7959 H   0  0  0  0  0  0  0  0  0  0  0  0
   -3.7490    0.0601   -0.4094 H   0  0  0  0  0  0  0  0  0  0  0  0
   -4.0755    1.5758    1.4486 H   0  0  0  0  0  0  0  0  0  0  0  0
   -1.4391    0.2499   -0.1316 C   0  0  0  0  0  0  0  0  0  0  0  0
   -2.6331   -1.4506   -0.8489 H   0  0  0  0  0  0  0  0  0  0  0  0
   -2.5780   -1.2489    0.8922 H   0  0  0  0  0  0  0  0  0  0  0  0
   -0.2088   -0.7033    0.1118 C   0  0  0  0  0  0  0  0  0  0  0  0
   -1.5770    0.6667    0.4946 H   0  0  0  0  0  0  0  0  0  0  0  0
   -1.1845    1.1795   -1.3487 H   0  0  0  0  0  0  0  0  0  0  0  0
   -0.2946   -1.7949    1.2696 H   0  0  0  0  0  0  0  0  0  0  0  0
    0.6212   -0.3259    0.0649 H   0  0  0  0  0  0  0  0  0  0  0  0
    0.0446   -1.3282   -0.6822 H   0  0  0  0  0  0  0  0  0  0  0  0
  2  8  1  0  0  0  0
  3  1  1  0  0  0  0
  4  2  1  0  0  0  0
  6  9  1  0  0  0  0
  6 10  1  0  0  0  0
  7  2  1  0  0  0  0
 13  9  1  0  0  0  0
 14  9  1  0  0  0  0
M  RAD  6   2   2   5   2   6   3   9   2  11   2  12   2
M  END
$$$$
