14
butane_opt
C  -3.931920   0.279770   0.156735
C  -2.609157  -0.613484  -0.033619
H  -5.040512  -0.401611   0.014603
H  -4.027015   0.826172  -0.573103
H  -4.149256   1.175143   1.150333
C  -1.431481   0.096792  -0.205560
H  -2.882038  -1.309206  -0.961440
H  -2.251632  -1.137665   0.647060
C  -0.213023  -0.657935   0.170703
H  -1.396135   0.456443   0.383347
H  -1.173805   0.978606  -1.223827
H  -0.482310  -0.861095   0.826359
H   0.752967   0.073285   0.807427
H  -0.098091  -1.575667  -0.698850
