14
butane_opt
C  -4.015788   0.265405  -0.140273
C  -2.706325  -0.608463   0.191936
H  -4.854987  -0.355531  -0.250890
H  -3.870299   1.151384  -1.354370
H  -4.447704   0.672253   0.464326
C  -1.347087   0.148513   0.256015
H  -2.571757  -1.121465  -0.487799
H  -2.915516  -1.312140   1.130223
C  -0.111416  -0.673268  -0.182346
H  -1.266555   1.322008   1.502307
H  -1.740886   0.395590  -0.460404
H   0.445230  -1.681910   0.912112
H   0.882541   0.037997  -0.623708
H  -0.541079  -1.125899  -0.864736
