butane_opt
 OpenBabel08242015393D

 14 13  0  0  0  0  0  0  0  0999 V2000
   -3.9582    0.3320   -0.0660 C   0  0  0  0  0  0  0  0  0  0  0  0
   -2.6881   -0.7214    0.0404 C   0  0  0  0  0  0  0  0  0  0  0  0
   -4.7570    0.0338    0.1182 H   0  0  0  0  0  0  0  0  0  0  0  0
   -4.0986    1.1669   -1.0904 H   0  0  0  0  0  0  0  0  0  0  0  0
   -4.1081    0.7489    0.6884 H   0  0  0  0  0  0  0  0  0  0  0  0
   -1.4192    0.1292    0.1495 C   0  0  0  0  0  0  0  0  0  0  0  0
   -2.4697   -1.2933   -0.6917 H   0  0  0  0  0  0  0  0  0  0  0  0
   -2.8767   -1.6446    1.1953 H   0  0  0  0  0  0  0  0  0  0  0  0
   -0.1203   -0.6191   -0.0303 C   0  0  0  0  0  0  0  0  0  0  0  0
   -1.3667    1.0248    1.2404 H   0  0  0  0  0  0  0  0  0  0  0  0
   -1.2454    0.5650   -0.4734 H   0  0  0  0  0  0  0  0  0  0  0  0
   -0.0813   -1.2925    0.8559 H   0  0  0  0  0  0  0  0  0  0  0  0
    0.8266   -0.0328   -0.6859 H   0  0  0  0  0  0  0  0  0  0  0  0
   -0.6320   -1.1520   -0.8829 H   0  0  0  0  0  0  0  0  0  0  0  0
  1  2  1  0  0  0  0
  1  3  1  0  0  0  0
  1  5  1  0  0  0  0
  2  6  1  0  0  0  0
  2  8  1  0  0  0  0
  4  1  1  0  0  0  0
  6 10  1  0  0  0  0
  7  2  1  0  0  0  0
  9  6  1  0  0  0  0
  9 12  1  0  0  0  0
 11  6  1  0  0  0  0
 13  9  1  0  0  0  0
 14  9  1  0  0  0  0
M  END
$$$$
