butane_opt
 OpenBabel08242015393D

 14 13  0  0  0  0  0  0  0  0999 V2000
   -3.8842    0.2023    0.1841 C   0  0  0  0  0  0  0  0  0  0  0  0
   -2.7039   -0.5442   -0.1702 C   0  0  0  0  0  0  0  0  0  0  0  0
   -4.9438   -0.6818    0.4294 H   0  0  0  0  0  0  0  0  0  0  0  0
   -4.1141    0.8345   -0.8385 H   0  0  0  0  0  0  0  0  0  0  0  0
   -3.4906    1.0620    1.1388 H   0  0  0  0  0  0  0  0  0  0  0  0
   -1.4687    0.2553   -0.1796 C   0  0  0  0  0  0  0  0  0  0  0  0
   -2.8156   -1.4429   -1.1061 H   0  0  0  0  0  0  0  0  0  0  0  0
   -2.4192   -1.1628    0.6058 H   0  0  0  0  0  0  0  0  0  0  0  0
   -0.1946   -0.7597    0.2162 C   0  0  0  0  0  0  0  0  0  0  0  0
   -1.3885    1.0638    0.8019 H   0  0  0  0  0  0  0  0  0  0  0  0
   -1.5128    0.9159   -1.0040 H   0  0  0  0  0  0  0  0  0  0  0  0
   -0.2287   -1.5569    1.3245 H   0  0  0  0  0  0  0  0  0  0  0  0
    0.7279   -0.2406   -0.0234 H   0  0  0  0  0  0  0  0  0  0  0  0
    0.2118   -1.1145   -0.4725 H   0  0  0  0  0  0  0  0  0  0  0  0
  1  3  1  0  0  0  0
  1  5  1  0  0  0  0
  2  1  1  0  0  0  0
  2  8  1  0  0  0  0
  4  1  1  0  0  0  0
  6  2  1  0  0  0  0
  6  9  1  0  0  0  0
  6 10  1  0  0  0  0
  7  2  1  0  0  0  0
  9 12  1  0  0  0  0
 11  6  1  0  0  0  0
 13  9  1  0  0  0  0
 14  9  1  0  0  0  0
M  END
$$$$
