14
butane_opt
C  -3.905077   0.192032  -0.142036
C  -2.722132  -0.514378   0.174978
H  -4.776935  -0.524655   0.216976
H  -3.834467   1.228542  -1.286064
H  -3.635502   0.598624   0.527362
C  -1.472376   0.196211   0.166843
H  -2.744274  -0.734280  -0.229351
H  -2.888096  -1.345290   1.317071
C  -0.148450  -0.748855  -0.119615
H  -1.243716   1.028190   1.088418
H  -1.528705   0.727409  -0.621764
H  -0.360347  -0.871366   0.375087
H   0.792679  -0.092876   0.409265
H   0.170981  -2.010741  -1.440128
