14
butane_opt
C  -3.936966   0.349013  -0.136904
C  -2.630505  -0.655532   0.227687
H  -4.776817  -0.176211  -0.415002
H  -3.658356   0.904301  -1.051721
H  -4.313999   0.902756   0.608566
C  -1.423886   0.076000   0.203299
H  -2.447142  -1.297884  -0.583677
H  -2.987614  -1.545104   1.173914
C  -0.223004  -0.635114  -0.153023
H  -1.368632   0.780559   1.103948
H  -1.463482   0.498715  -0.489569
H   0.183722  -1.127370   0.704695
H   1.054069   0.151081  -0.361853
H  -0.741304  -1.083135  -0.908316
