butane_opt
 OpenBabel08242015393D

 14 13  0  0  0  0  0  0  0  0999 V2000
   -3.9307    0.2100    0.2303 C   0  0  0  0  0  0  0  0  0  0  0  0
   -2.6758   -0.5545   -0.1518 C   0  0  0  0  0  0  0  0  0  0  0  0
   -5.0082   -0.6148    0.3082 H   0  0  0  0  0  0  0  0  0  0  0  0
   -4.2412    0.7623   -0.6214 H   0  0  0  0  0  0  0  0  0  0  0  0
   -3.8685    0.9818    1.0290 H   0  0  0  0  0  0  0  0  0  0  0  0
   -1.4152    0.2890   -0.2505 C   0  0  0  0  0  0  0  0  0  0  0  0
   -3.1612   -1.2354   -1.1175 H   0  0  0  0  0  0  0  0  0  0  0  0
   -2.5677   -1.3566    0.7924 H   0  0  0  0  0  0  0  0  0  0  0  0
   -0.1441   -0.7210    0.2046 C   0  0  0  0  0  0  0  0  0  0  0  0
   -1.6366    0.9048    0.5515 H   0  0  0  0  0  0  0  0  0  0  0  0
   -1.2408    0.7750   -1.1865 H   0  0  0  0  0  0  0  0  0  0  0  0
   -0.2847   -1.3937    1.1747 H   0  0  0  0  0  0  0  0  0  0  0  0
    0.6268   -0.3856    0.8054 H   0  0  0  0  0  0  0  0  0  0  0  0
    0.3938   -1.6224   -0.6917 H   0  0  0  0  0  0  0  0  0  0  0  0
  1  3  1  0  0  0  0
  1  5  1  0  0  0  0
  2  1  1  0  0  0  0
  2  8  1  0  0  0  0
  4  1  1  0  0  0  0
  6  2  1  0  0  0  0
  6  9  1  0  0  0  0
  6 10  1  0  0  0  0
  7  2  1  0  0  0  0
  9 13  1  0  0  0  0
  9 12  1  0  0  0  0
 11  6  1  0  0  0  0
 14  9  1  0  0  0  0
M  END
$$$$
