butane_opt
 OpenBabel08242015393D

 14 13  0  0  0  0  0  0  0  0999 V2000
   -3.9716    0.2432    0.2104 C   0  0  0  0  0  0  0  0  0  0  0  0
   -2.7710   -0.6101   -0.0708 C   0  0  0  0  0  0  0  0  0  0  0  0
   -4.8930   -0.3817    0.0581 H   0  0  0  0  0  0  0  0  0  0  0  0
   -4.0347    0.7482   -0.5820 H   0  0  0  0  0  0  0  0  0  0  0  0
   -3.9722    1.0278    1.1496 H   0  0  0  0  0  0  0  0  0  0  0  0
   -1.4394    0.2343   -0.2553 C   0  0  0  0  0  0  0  0  0  0  0  0
   -3.0789   -1.4141   -1.0266 H   0  0  0  0  0  0  0  0  0  0  0  0
   -2.2084   -1.1035    0.4450 H   0  0  0  0  0  0  0  0  0  0  0  0
   -0.0311   -0.6986    0.2346 C   0  0  0  0  0  0  0  0  0  0  0  0
   -1.5802    0.6632    0.3745 H   0  0  0  0  0  0  0  0  0  0  0  0
   -1.3535    1.0229   -1.3032 H   0  0  0  0  0  0  0  0  0  0  0  0
   -0.5629   -1.1949    0.9980 H   0  0  0  0  0  0  0  0  0  0  0  0
    0.9033   -0.1218    0.6577 H   0  0  0  0  0  0  0  0  0  0  0  0
    0.3160   -1.7489   -0.7961 H   0  0  0  0  0  0  0  0  0  0  0  0
  1  5  1  0  0  0  0
  2  1  1  0  0  0  0
  2  8  1  0  0  0  0
  3  1  1  0  0  0  0
  4  1  1  0  0  0  0
  6  2  1  0  0  0  0
  6  9  1  0  0  0  0
  6 10  1  0  0  0  0
  7  2  1  0  0  0  0
  9 13  1  0  0  0  0
  9 12  1  0  0  0  0
 11  6  1  0  0  0  0
 14  9  1  0  0  0  0
M  END
$$$$
