14
butane_opt
C  -3.947639   0.204122  -0.101495
C  -2.735654  -0.580590   0.088712
H  -4.794186  -0.226451   0.872472
H  -4.059145   1.531853  -1.554193
H  -3.833372   0.290699   0.482600
C  -1.472624   0.255620   0.207100
H  -2.544031  -1.305492  -0.749610
H  -3.146487  -1.360654   1.113624
C  -0.081878  -0.708168  -0.081292
H  -1.257461   1.073730   0.988019
H  -1.401370   0.688216  -0.600191
H   0.089558  -1.095268   0.555381
H   0.797387  -0.308751   0.108797
H  -0.016995  -1.771463  -1.178186
