14
butane_opt
C  -3.932292   0.302632   0.042481
C  -2.619145  -0.691393  -0.103137
H  -4.809369  -0.283901   0.176292
H  -3.857440   0.713938  -0.649083
H  -3.825536   1.171457   0.939925
C  -1.431421   0.182682   0.060602
H  -2.735790  -1.278254  -0.919405
H  -2.511796  -1.319640   0.731395
C  -0.254812  -0.622221   0.070362
H  -1.482916   0.830435   0.891106
H  -1.413947   0.589269  -0.796699
H   0.202330  -1.982849   1.487631
H   0.728911  -0.065448  -0.741702
H  -0.535821  -0.854006  -0.432560
