butane_opt
 OpenBabel08242015393D

 14 10  0  0  0  0  0  0  0  0999 V2000
   -3.9989    0.3144    0.1068 C   0  0  0  0  0  0  0  0  0  0  0  0
   -2.7586   -0.6512   -0.0076 C   0  0  0  0  0  0  0  0  0  0  0  0
   -4.8311   -0.2141   -0.3862 H   0  0  0  0  0  0  0  0  0  0  0  0
   -3.7799    0.4248   -0.4602 H   0  0  0  0  0  0  0  0  0  0  0  0
   -4.3726    1.6241    1.4085 H   0  0  0  0  0  0  0  0  0  0  0  0
   -1.3554    0.1333   -0.1089 C   0  0  0  0  0  0  0  0  0  0  0  0
   -2.9215   -1.6246   -1.0752 H   0  0  0  0  0  0  0  0  0  0  0  0
   -2.4679   -1.2538    0.8608 H   0  0  0  0  0  0  0  0  0  0  0  0
   -0.1417   -0.6788    0.1223 C   0  0  0  0  0  0  0  0  0  0  0  0
   -1.2586    0.5820    0.3917 H   0  0  0  0  0  0  0  0  0  0  0  0
   -1.3328    1.0842   -1.2158 H   0  0  0  0  0  0  0  0  0  0  0  0
   -0.2282   -1.5301    1.1919 H   0  0  0  0  0  0  0  0  0  0  0  0
    1.1583    0.1389    0.1017 H   0  0  0  0  0  0  0  0  0  0  0  0
    0.0277   -1.0747   -0.6223 H   0  0  0  0  0  0  0  0  0  0  0  0
  2  1  1  0  0  0  0
  2  8  1  0  0  0  0
  3  1  1  0  0  0  0
  6  2  1  0  0  0  0
  6  9  1  0  0  0  0
  6 10  1  0  0  0  0
  7  2  1  0  0  0  0
  9 12  1  0  0  0  0
 11  6  1  0  0  0  0
 14  9  1  0  0  0  0
M  RAD  5   1   3   4   2   5   2   9   2  13   2
M  END
$$$$
