butane_opt
 OpenBabel08242015393D

 14 12  0  0  0  0  0  0  0  0999 V2000
   -3.8962    0.1875    0.0059 C   0  0  0  0  0  0  0  0  0  0  0  0
   -2.6905   -0.5201    0.1054 C   0  0  0  0  0  0  0  0  0  0  0  0
   -4.8933   -0.5032   -0.9076 H   0  0  0  0  0  0  0  0  0  0  0  0
   -3.5263    0.4210   -0.6961 H   0  0  0  0  0  0  0  0  0  0  0  0
   -4.1893    1.4603    1.2887 H   0  0  0  0  0  0  0  0  0  0  0  0
   -1.4357    0.2080    0.0287 C   0  0  0  0  0  0  0  0  0  0  0  0
   -2.9658   -0.9676   -0.5375 H   0  0  0  0  0  0  0  0  0  0  0  0
   -2.8120   -1.1492    1.0887 H   0  0  0  0  0  0  0  0  0  0  0  0
   -0.1433   -0.7641    0.0263 C   0  0  0  0  0  0  0  0  0  0  0  0
   -1.5478    0.5963    0.5199 H   0  0  0  0  0  0  0  0  0  0  0  0
   -1.3534    1.0925   -0.9700 H   0  0  0  0  0  0  0  0  0  0  0  0
   -0.0417   -1.2793    0.8642 H   0  0  0  0  0  0  0  0  0  0  0  0
    0.7027   -0.1978   -0.1840 H   0  0  0  0  0  0  0  0  0  0  0  0
   -0.3441   -1.3489   -1.0070 H   0  0  0  0  0  0  0  0  0  0  0  0
  1  2  1  0  0  0  0
  2  8  1  0  0  0  0
  3  1  1  0  0  0  0
  4  1  1  0  0  0  0
  6  2  1  0  0  0  0
  6 10  1  0  0  0  0
  7  2  1  0  0  0  0
  9  6  1  0  0  0  0
  9 12  1  0  0  0  0
 11  6  1  0  0  0  0
 13  9  1  0  0  0  0
 14  9  1  0  0  0  0
M  RAD  2   1   2   5   2
M  END
$$$$
