14
butane_opt
C  -3.890070   0.261986   0.050769
C  -2.690160  -0.629232  -0.054755
H  -4.750460  -0.247370   0.779017
H  -4.496497   1.351007  -0.991284
H  -3.570320   0.593544   0.791780
C  -1.449651   0.123184   0.007500
H  -2.498578  -1.470608  -1.017900
H  -2.615981  -0.907350   0.455127
C  -0.211147  -0.660213   0.098732
H  -1.684350   0.726445   0.806410
H  -1.254600   0.849249  -0.973170
H  -0.012006  -1.270638   1.005470
H   0.980290   0.069739   0.077256
H  -0.267294  -1.265258  -0.749111
