butane_opt
 OpenBabel08242015393D

 14  9  0  0  0  0  0  0  0  0999 V2000
   -3.8507    0.1746   -0.0157 C   0  0  0  0  0  0  0  0  0  0  0  0
   -2.7052   -0.5245    0.0575 C   0  0  0  0  0  0  0  0  0  0  0  0
   -4.6658   -0.3049    0.4736 H   0  0  0  0  0  0  0  0  0  0  0  0
   -3.9789    1.2849   -1.1512 H   0  0  0  0  0  0  0  0  0  0  0  0
   -3.7620    0.2169    0.4500 H   0  0  0  0  0  0  0  0  0  0  0  0
   -1.4752    0.2846    0.0780 C   0  0  0  0  0  0  0  0  0  0  0  0
   -2.8104   -1.5330   -0.9131 H   0  0  0  0  0  0  0  0  0  0  0  0
   -2.5734   -1.1044    0.8362 H   0  0  0  0  0  0  0  0  0  0  0  0
   -0.1981   -0.7653    0.0019 C   0  0  0  0  0  0  0  0  0  0  0  0
   -1.4075    1.1473    1.0226 H   0  0  0  0  0  0  0  0  0  0  0  0
   -1.7411    0.8421   -0.8385 H   0  0  0  0  0  0  0  0  0  0  0  0
    0.0928   -1.2919    0.7919 H   0  0  0  0  0  0  0  0  0  0  0  0
    0.8024   -0.1013    0.1165 H   0  0  0  0  0  0  0  0  0  0  0  0
   -0.2383   -1.6211   -0.8590 H   0  0  0  0  0  0  0  0  0  0  0  0
  1  2  1  0  0  0  0
  1  3  1  0  0  0  0
  2  8  1  0  0  0  0
  6 10  1  0  0  0  0
  9  6  1  0  0  0  0
  9 13  1  0  0  0  0
  9 12  1  0  0  0  0
 11  6  1  0  0  0  0
 14  9  1  0  0  0  0
M  RAD  6   1   3   2   3   4   2   5   2   6   2   7   2
M  END
$$$$
