14
butane_opt
C  -3.980967   0.282845   0.107649
C  -2.685361  -0.634066  -0.115315
H  -4.933697  -0.357574   0.022868
H  -4.303648   0.806898  -0.635308
H  -4.194087   1.111704   1.169219
C  -1.378659   0.181144   0.012345
H  -2.553437  -1.529984  -1.108493
H  -2.672790  -1.161972   0.537018
C  -0.138302  -0.658400   0.141429
H  -1.310428   0.415913   0.532763
H  -1.376062   0.923454  -0.950693
H   0.056843  -1.754388   1.313777
H   0.741639   0.022233  -0.642773
H  -0.255275  -0.978800  -0.480186
