14
butane_opt
C  -3.941228   0.289698   0.216061
C  -2.701137  -0.592390  -0.135863
H  -4.914117  -0.456296   0.320295
H  -4.057001   0.873602  -0.645252
H  -3.737777   1.030665   1.007970
C  -1.366034   0.106208  -0.228989
H  -2.619619  -1.270429  -1.044955
H  -2.301593  -1.296102   0.847957
C  -0.219653  -0.675242   0.175884
H  -1.307050   0.795324   0.581106
H  -1.291737   0.922647  -1.260223
H  -0.846781  -1.031656   0.946432
H   0.761221  -0.147170   0.985003
H   0.077357  -1.467809  -0.615157
