14
butane_opt
C  -3.896908   0.204370   0.135589
C  -2.706258  -0.511165  -0.093961
H  -4.867216  -0.483154  -0.080313
H  -3.622344   0.465995  -0.603911
H  -3.686736   1.079417   1.081822
C  -1.436339   0.248452  -0.037758
H  -2.860607  -1.629390  -1.428798
H  -2.841223  -0.775934   0.599155
C  -0.145981  -0.792515   0.127620
H  -1.417612   0.843927   0.656920
H  -1.798987   0.971855  -0.966884
H   0.101822  -2.084478   1.592174
H   0.705992  -0.159863  -0.631145
H  -0.488437  -0.501719  -0.186786
