14
butane_opt
C  -3.893041   0.188077  -0.078796
C  -2.664840  -0.579686   0.173641
H  -4.831707  -0.366639   0.316446
H  -3.800769   1.121156  -1.199710
H  -3.945656   0.807734   0.545784
C  -1.483218   0.272115   0.019814
H  -2.930663  -1.053691  -0.530508
H  -2.488375  -1.401226   1.258668
C  -0.166248  -0.753780  -0.035360
H  -1.408445   1.011684   0.844920
H  -1.471549   0.666185  -0.621132
H  -0.405268  -0.663922   0.384313
H   0.795612  -0.086756   0.669605
H  -0.000707  -2.057129  -1.285337
