14
butane_opt
C  -3.935191   0.233302   0.093238
C  -2.727409  -0.592078  -0.123525
H  -4.996658  -0.392435   0.098753
H  -3.993454   0.599629  -0.740391
H  -3.994169   1.222047   1.186410
C  -1.432113   0.189468   0.036703
H  -2.865569  -1.403931  -1.141971
H  -2.932376  -0.895103   0.633320
C  -0.076417  -0.695158   0.123651
H  -1.249989   0.775213   0.804464
H  -1.484533   1.174125  -1.088115
H   0.184424  -2.118490   1.451496
H   0.738141  -0.294714  -0.757125
H  -0.347457  -0.797292  -0.428663
