14
butane_opt
C  -3.978948   0.322968  -0.205916
C  -2.687693  -0.649450   0.175915
H  -4.817008  -0.247904   0.100440
H  -3.994681   0.955275  -1.131161
H  -3.812658   0.790336   0.444489
C  -1.407289   0.093518   0.310582
H  -2.253044  -1.007500  -0.572822
H  -2.613902  -1.548607   1.182457
C  -0.175680  -0.638548  -0.168305
H  -1.083220   0.993729   1.319771
H  -1.484330   0.464479  -0.392769
H  -0.088597  -1.395596   0.866260
H   0.677188   0.059827  -0.745894
H  -0.573738  -1.073674  -0.979677
