14
butane_opt
C  -3.991039   0.318940   0.161233
C  -2.667116  -0.705679  -0.089906
H  -4.857631  -0.135299  -0.141283
H  -4.222770   0.489585  -0.384655
H  -3.967851   1.511306   1.412816
C  -1.423111   0.134882  -0.223037
H  -2.834472  -1.458785  -1.027485
H  -2.467275  -1.329013   0.631962
C  -0.137441  -0.598907   0.194248
H  -1.150337   0.740474   0.609119
H  -1.224621   0.721845  -1.167723
H  -0.318857  -1.744653   1.392903
H   0.641209  -0.006645   0.269126
H  -0.027256  -1.045069  -0.560920
