butane_opt
 OpenBabel08242015393D

 14 13  0  0  0  0  0  0  0  0999 V2000
   -3.9760    0.3380    0.1629 C   0  0  0  0  0  0  0  0  0  0  0  0
   -2.6572   -0.6640   -0.0181 C   0  0  0  0  0  0  0  0  0  0  0  0
   -4.9011   -0.1804    0.2072 H   0  0  0  0  0  0  0  0  0  0  0  0
   -4.0683    0.8377   -0.6435 H   0  0  0  0  0  0  0  0  0  0  0  0
   -3.9090    0.9708    1.1861 H   0  0  0  0  0  0  0  0  0  0  0  0
   -1.3687    0.1253   -0.2575 C   0  0  0  0  0  0  0  0  0  0  0  0
   -2.5925   -1.6933   -1.0492 H   0  0  0  0  0  0  0  0  0  0  0  0
   -2.5890   -1.0632    0.7930 H   0  0  0  0  0  0  0  0  0  0  0  0
   -0.2071   -0.6466    0.1766 C   0  0  0  0  0  0  0  0  0  0  0  0
   -1.2232    0.4524    0.3349 H   0  0  0  0  0  0  0  0  0  0  0  0
   -1.1122    0.9371   -1.2031 H   0  0  0  0  0  0  0  0  0  0  0  0
   -0.8389   -0.8515    0.7988 H   0  0  0  0  0  0  0  0  0  0  0  0
    0.7915   -0.0578    1.1116 H   0  0  0  0  0  0  0  0  0  0  0  0
   -0.0445   -1.6556   -0.8603 H   0  0  0  0  0  0  0  0  0  0  0  0
  1  3  1  0  0  0  0
  1  5  1  0  0  0  0
  2  1  1  0  0  0  0
  2  8  1  0  0  0  0
  4  1  1  0  0  0  0
  6  2  1  0  0  0  0
  6  9  1  0  0  0  0
  6 10  1  0  0  0  0
  7  2  1  0  0  0  0
  9 12  1  0  0  0  0
  9 13  1  0  0  0  0
 11  6  1  0  0  0  0
 14  9  1  0  0  0  0
M  END
$$$$
