butane_opt
 OpenBabel08242015393D

 14 11  0  0  0  0  0  0  0  0999 V2000
   -3.9585    0.1962   -0.0698 C   0  0  0  0  0  1  0  0  0  0  0  0
   -2.6925   -0.5066    0.1560 C   0  0  0  0  0  0  0  0  0  0  0  0
   -4.9432   -0.5271    0.3376 H   0  0  0  0  0  0  0  0  0  0  0  0
   -3.8595    1.5973   -1.4627 H   0  0  0  0  0  0  0  0  0  0  0  0
   -3.6343    0.1667    0.3226 H   0  0  0  0  0  0  0  0  0  0  0  0
   -1.4280    0.1999    0.1719 C   0  0  0  0  0  0  0  0  0  0  0  0
   -2.4408   -1.1726   -0.6966 H   0  0  0  0  0  0  0  0  0  0  0  0
   -2.9420   -0.9691    0.8572 H   0  0  0  0  0  0  0  0  0  0  0  0
   -0.1782   -0.7301   -0.1275 C   0  0  0  0  0  0  0  0  0  0  0  0
   -1.1283    1.0091    1.1311 H   0  0  0  0  0  0  0  0  0  0  0  0
   -1.4622    0.7070   -0.5078 H   0  0  0  0  0  0  0  0  0  0  0  0
   -0.1912   -1.1901    0.7122 H   0  0  0  0  0  0  0  0  0  0  0  0
    0.7807   -0.2427    0.1489 H   0  0  0  0  0  0  0  0  0  0  0  0
   -0.0910   -1.7761   -1.0607 H   0  0  0  0  0  0  0  0  0  0  0  0
  1  3  1  0  0  0  0
  2  6  1  0  0  0  0
  2  5  1  0  0  0  0
  2  8  1  0  0  0  0
  6 10  1  0  0  0  0
  7  2  1  0  0  0  0
  9 13  1  0  0  0  0
  9  6  1  0  0  0  0
  9 12  1  0  0  0  0
 11  6  1  0  0  0  0
 14  9  1  0  0  0  0
M  RAD  1   4   2
M  END
$$$$
