14
butane_opt
C  -4.002553   0.316439   0.026620
C  -2.616647  -0.675262   0.071075
H  -4.911081  -0.350929   0.358544
H  -4.026535   1.184280  -0.981909
H  -4.048396   0.839430   0.735562
C  -1.355618   0.108190  -0.083225
H  -2.765197  -1.171037  -0.589442
H  -2.459721  -1.397312   0.911224
C  -0.239177  -0.645342   0.048069
H  -1.537850   0.901494   0.872386
H  -1.322468   0.650619  -0.817119
H  -0.594059  -0.742324   0.492761
H   0.897688   0.098757   0.729483
H   0.276499  -1.710990  -1.114974
