butane_opt
 OpenBabel08242015393D

 14 12  0  0  0  0  0  0  0  0999 V2000
   -4.0669    0.2675    0.0551 C   0  0  0  0  0  0  0  0  0  0  0  0
   -2.6817   -0.6644    0.0839 C   0  0  0  0  0  0  0  0  0  0  0  0
   -4.7557   -0.2689   -0.5033 H   0  0  0  0  0  0  0  0  0  0  0  0
   -3.9209    0.8282   -0.7688 H   0  0  0  0  0  0  0  0  0  0  0  0
   -4.2237    1.3782    1.1890 H   0  0  0  0  0  0  0  0  0  0  0  0
   -1.3497    0.1370   -0.0256 C   0  0  0  0  0  0  0  0  0  0  0  0
   -2.7959   -1.4431   -0.9412 H   0  0  0  0  0  0  0  0  0  0  0  0
   -2.5790   -1.0568    0.8988 H   0  0  0  0  0  0  0  0  0  0  0  0
   -0.1275   -0.6490    0.0110 C   0  0  0  0  0  0  0  0  0  0  0  0
   -1.2828    0.6317    0.6175 H   0  0  0  0  0  0  0  0  0  0  0  0
   -1.4013    1.0099   -1.1403 H   0  0  0  0  0  0  0  0  0  0  0  0
   -0.2274   -1.3385    1.0813 H   0  0  0  0  0  0  0  0  0  0  0  0
    0.7615   -0.0074    0.2221 H   0  0  0  0  0  0  0  0  0  0  0  0
    0.1006   -1.2974   -0.6816 H   0  0  0  0  0  0  0  0  0  0  0  0
  1  2  1  0  0  0  0
  2  8  1  0  0  0  0
  3  1  1  0  0  0  0
  4  1  1  0  0  0  0
  6  9  1  0  0  0  0
  6  2  1  0  0  0  0
  6 10  1  0  0  0  0
  7  2  1  0  0  0  0
  9 13  1  0  0  0  0
  9 12  1  0  0  0  0
 11  6  1  0  0  0  0
 14  9  1  0  0  0  0
M  RAD  2   1   2   5   2
M  END
$$$$
