butane_opt
 OpenBabel08242015393D

 14 12  0  0  0  0  0  0  0  0999 V2000
   -4.0414    0.2755    0.0114 C   0  0  0  0  0  0  0  0  0  0  0  0
   -2.7208   -0.5840    0.0827 C   0  0  0  0  0  0  0  0  0  0  0  0
   -4.9328   -0.2611   -0.0531 H   0  0  0  0  0  0  0  0  0  0  0  0
   -3.8995    0.8866   -0.9102 H   0  0  0  0  0  0  0  0  0  0  0  0
   -3.8270    0.6395    0.8002 H   0  0  0  0  0  0  0  0  0  0  0  0
   -1.3743    0.2030   -0.0237 C   0  0  0  0  0  0  0  0  0  0  0  0
   -2.7491   -1.2266   -0.6459 H   0  0  0  0  0  0  0  0  0  0  0  0
   -2.6581   -1.5341    1.1225 H   0  0  0  0  0  0  0  0  0  0  0  0
   -0.1136   -0.7294    0.0071 C   0  0  0  0  0  0  0  0  0  0  0  0
   -1.0197    1.0313    0.8713 H   0  0  0  0  0  0  0  0  0  0  0  0
   -1.4483    0.8079   -0.9390 H   0  0  0  0  0  0  0  0  0  0  0  0
   -0.4809   -0.9733    0.7328 H   0  0  0  0  0  0  0  0  0  0  0  0
    0.7681   -0.0177    0.5688 H   0  0  0  0  0  0  0  0  0  0  0  0
    0.2097   -1.8110   -1.1000 H   0  0  0  0  0  0  0  0  0  0  0  0
  1  2  1  0  0  0  0
  1  5  1  0  0  0  0
  2  8  1  0  0  0  0
  3  1  1  0  0  0  0
  4  1  1  0  0  0  0
  6  9  1  0  0  0  0
  6  2  1  0  0  0  0
  6 10  1  0  0  0  0
  7  2  1  0  0  0  0
  9 13  1  0  0  0  0
  9 12  1  0  0  0  0
 11  6  1  0  0  0  0
M  RAD  2   9   2  14   2
M  END
$$$$
