butane_opt
 OpenBabel08242015393D

 14 12  0  0  0  0  0  0  0  0999 V2000
   -3.9043    0.2680    0.1722 C   0  0  0  0  0  0  0  0  0  0  0  0
   -2.6770   -0.6213   -0.1663 C   0  0  0  0  0  0  0  0  0  0  0  0
   -4.8837   -0.2749    0.8501 H   0  0  0  0  0  0  0  0  0  0  0  0
   -4.2812    1.0331   -0.7415 H   0  0  0  0  0  0  0  0  0  0  0  0
   -3.4587    0.4291    0.7378 H   0  0  0  0  0  0  0  0  0  0  0  0
   -1.4061    0.2368   -0.1030 C   0  0  0  0  0  0  0  0  0  0  0  0
   -3.0508   -1.5820   -1.2243 H   0  0  0  0  0  0  0  0  0  0  0  0
   -2.4740   -0.8103    0.3885 H   0  0  0  0  0  0  0  0  0  0  0  0
   -0.2270   -0.7322    0.1704 C   0  0  0  0  0  0  0  0  0  0  0  0
   -1.3791    0.7945    0.5013 H   0  0  0  0  0  0  0  0  0  0  0  0
   -1.3452    1.0062   -1.0765 H   0  0  0  0  0  0  0  0  0  0  0  0
   -0.5014   -1.3743    1.1669 H   0  0  0  0  0  0  0  0  0  0  0  0
    0.6593   -0.1181    0.2943 H   0  0  0  0  0  0  0  0  0  0  0  0
    0.2606   -1.3994   -0.3814 H   0  0  0  0  0  0  0  0  0  0  0  0
  1  5  1  0  0  0  0
  1  3  1  0  0  0  0
  2  6  1  0  0  0  0
  2  1  1  0  0  0  0
  4  1  1  0  0  0  0
  6  9  1  0  0  0  0
  6 10  1  0  0  0  0
  7  2  1  0  0  0  0
  9 13  1  0  0  0  0
  9 12  1  0  0  0  0
 11  6  1  0  0  0  0
 14  9  1  0  0  0  0
M  RAD  2   2   2   8   2
M  END
$$$$
