14
butane_opt
C  -3.966549   0.245763   0.016356
C  -2.728010  -0.627750  -0.029579
H  -4.847936  -0.316554  -0.234922
H  -4.203731   0.729424  -0.822484
H  -3.989413   1.050433   1.157473
C  -1.397353   0.259648   0.086757
H  -2.932507  -1.468642  -1.024675
H  -2.644998  -1.139667   0.810253
C  -0.121440  -0.694605   0.076786
H  -1.600424   0.745385   0.764352
H  -1.404000   0.760731  -0.830967
H   0.705440  -1.914501   1.258366
H   0.774757  -0.162748  -0.926255
H  -0.344630  -0.889805  -0.479473
