14
butane_opt
C  -3.930980   0.251381   0.051244
C  -2.696141  -0.608550   0.008468
H  -4.873667  -0.336281   0.055553
H  -3.948163   0.892568  -0.865308
H  -3.953492   0.929664   0.921616
C  -1.412871   0.197570  -0.014839
H  -2.699206  -1.351097  -0.897764
H  -2.664726  -1.162057   0.827868
C  -0.176715  -0.699452   0.062430
H  -1.418712   0.860454   0.828709
H  -1.372212   0.803593  -0.921747
H  -0.063770  -1.415079   1.001911
H   0.724065  -0.110522  -0.035463
H  -0.150691  -1.273352  -0.747938
