14
butane_opt
C  -4.066931   0.267464   0.055124
C  -2.681725  -0.664437   0.083856
H  -4.755671  -0.268887  -0.503262
H  -3.920861   0.828187  -0.768840
H  -4.223672   1.378233   1.189037
C  -1.349730   0.136973  -0.025648
H  -2.795943  -1.443058  -0.941234
H  -2.578991  -1.056802   0.898835
C  -0.127461  -0.649001   0.011014
H  -1.282841   0.631672   0.617521
H  -1.401338   1.009924  -1.140320
H  -0.227411  -1.338525   1.081260
H   0.761527  -0.007415   0.222087
H   0.100643  -1.297398  -0.681606
