butane_opt
 OpenBabel08242015393D

 14 11  0  0  0  0  0  0  0  0999 V2000
   -3.9810    0.2828    0.1076 C   0  0  0  0  0  0  0  0  0  0  0  0
   -2.6854   -0.6341   -0.1153 C   0  0  0  0  0  0  0  0  0  0  0  0
   -4.9337   -0.3576    0.0229 H   0  0  0  0  0  0  0  0  0  0  0  0
   -4.3036    0.8069   -0.6353 H   0  0  0  0  0  0  0  0  0  0  0  0
   -4.1941    1.1117    1.1692 H   0  0  0  0  0  0  0  0  0  0  0  0
   -1.3787    0.1811    0.0123 C   0  0  0  0  0  0  0  0  0  0  0  0
   -2.5534   -1.5300   -1.1085 H   0  0  0  0  0  0  0  0  0  0  0  0
   -2.6728   -1.1620    0.5370 H   0  0  0  0  0  0  0  0  0  0  0  0
   -0.1383   -0.6584    0.1414 C   0  0  0  0  0  0  0  0  0  0  0  0
   -1.3104    0.4159    0.5328 H   0  0  0  0  0  0  0  0  0  0  0  0
   -1.3761    0.9235   -0.9507 H   0  0  0  0  0  0  0  0  0  0  0  0
    0.0568   -1.7544    1.3138 H   0  0  0  0  0  0  0  0  0  0  0  0
    0.7416    0.0222   -0.6428 H   0  0  0  0  0  0  0  0  0  0  0  0
   -0.2553   -0.9788   -0.4802 H   0  0  0  0  0  0  0  0  0  0  0  0
  1  5  1  0  0  0  0
  2  6  1  0  0  0  0
  2  1  1  0  0  0  0
  2  8  1  0  0  0  0
  3  1  1  0  0  0  0
  4  1  1  0  0  0  0
  6  9  1  0  0  0  0
  7  2  1  0  0  0  0
 11  6  1  0  0  0  0
 13  9  1  0  0  0  0
 14  9  1  0  0  0  0
M  RAD  4   6   2   9   2  10   2  12   2
M  END
$$$$
