butane_opt
 OpenBabel08242015393D

 14 12  0  0  0  0  0  0  0  0999 V2000
   -3.8996    0.2007    0.2387 C   0  0  0  0  0  0  0  0  0  0  0  0
   -2.7130   -0.5802   -0.1797 C   0  0  0  0  0  0  0  0  0  0  0  0
   -4.6894   -0.2210    0.6526 H   0  0  0  0  0  0  0  0  0  0  0  0
   -4.1260    1.0543   -0.7591 H   0  0  0  0  0  0  0  0  0  0  0  0
   -3.5224    0.6983    1.0217 H   0  0  0  0  0  0  0  0  0  0  0  0
   -1.4377    0.2801   -0.1972 C   0  0  0  0  0  0  0  0  0  0  0  0
   -2.8267   -1.5538   -1.2650 H   0  0  0  0  0  0  0  0  0  0  0  0
   -2.7360   -0.8190    0.3108 H   0  0  0  0  0  0  0  0  0  0  0  0
   -0.1913   -0.7566    0.2553 C   0  0  0  0  0  0  0  0  0  0  0  0
   -1.5331    0.7193    0.3773 H   0  0  0  0  0  0  0  0  0  0  0  0
   -1.3011    0.9566   -1.1539 H   0  0  0  0  0  0  0  0  0  0  0  0
   -0.5088   -1.4561    1.2848 H   0  0  0  0  0  0  0  0  0  0  0  0
    0.8913   -0.1093    0.2830 H   0  0  0  0  0  0  0  0  0  0  0  0
    0.2133   -1.4460   -0.7207 H   0  0  0  0  0  0  0  0  0  0  0  0
  1  3  1  0  0  0  0
  1  5  1  0  0  0  0
  2  1  1  0  0  0  0
  4  1  1  0  0  0  0
  6  2  1  0  0  0  0
  6  9  1  0  0  0  0
  6 10  1  0  0  0  0
  7  2  1  0  0  0  0
  9 13  1  0  0  0  0
  9 12  1  0  0  0  0
 11  6  1  0  0  0  0
 14  9  1  0  0  0  0
M  RAD  2   2   2   8   2
M  END
$$$$
