butane_opt
 OpenBabel08242015393D

 14 10  0  0  0  0  0  0  0  0999 V2000
   -3.8319    0.2454    0.1117 C   0  0  0  0  0  0  0  0  0  0  0  0
   -2.6899   -0.6020   -0.1092 C   0  0  0  0  0  0  0  0  0  0  0  0
   -4.7584   -0.3290   -0.1679 H   0  0  0  0  0  0  0  0  0  0  0  0
   -4.0226    0.6248   -0.5161 H   0  0  0  0  0  0  0  0  0  0  0  0
   -3.8135    1.0428    1.0478 H   0  0  0  0  0  0  0  0  0  0  0  0
   -1.5035    0.2307   -0.0185 C   0  0  0  0  0  0  0  0  0  0  0  0
   -2.8413   -1.5468   -1.1349 H   0  0  0  0  0  0  0  0  0  0  0  0
   -2.6091   -1.1621    0.5386 H   0  0  0  0  0  0  0  0  0  0  0  0
   -0.1839   -0.7266    0.1659 C   0  0  0  0  0  1  0  0  0  0  0  0
   -1.4227    0.8925    0.8350 H   0  0  0  0  0  0  0  0  0  0  0  0
   -1.3756    1.0505   -1.0281 H   0  0  0  0  0  0  0  0  0  0  0  0
    0.2210   -2.0082    1.3792 H   0  0  0  0  0  0  0  0  0  0  0  0
    0.7395   -0.0116   -0.8202 H   0  0  0  0  0  0  0  0  0  0  0  0
   -0.6351   -0.7823   -0.4134 H   0  0  0  0  0  0  0  0  0  0  0  0
  1  5  1  0  0  0  0
  2  6  1  0  0  0  0
  2  1  1  0  0  0  0
  2  8  1  0  0  0  0
  3  1  1  0  0  0  0
  4  1  1  0  0  0  0
  6 10  1  0  0  0  0
  7  2  1  0  0  0  0
 11  6  1  0  0  0  0
 14  9  1  0  0  0  0
M  RAD  3   6   2  12   2  13   2
M  END
$$$$
