butane_opt
 OpenBabel08242015393D

 14 13  0  0  0  0  0  0  0  0999 V2000
   -4.0090    0.1922    0.1094 C   0  0  0  0  0  0  0  0  0  0  0  0
   -2.7191   -0.5390   -0.0050 C   0  0  0  0  0  0  0  0  0  0  0  0
   -4.7519   -0.1794   -0.2748 H   0  0  0  0  0  0  0  0  0  0  0  0
   -4.0171    0.6421   -0.5852 H   0  0  0  0  0  0  0  0  0  0  0  0
   -3.8876    1.0749    1.1657 H   0  0  0  0  0  0  0  0  0  0  0  0
   -1.4214    0.2246   -0.1240 C   0  0  0  0  0  0  0  0  0  0  0  0
   -2.6578   -1.1656   -0.8332 H   0  0  0  0  0  0  0  0  0  0  0  0
   -2.9070   -1.3382    0.9004 H   0  0  0  0  0  0  0  0  0  0  0  0
   -0.0658   -0.7377    0.0739 C   0  0  0  0  0  0  0  0  0  0  0  0
   -1.4066    0.7478    0.6308 H   0  0  0  0  0  0  0  0  0  0  0  0
   -1.4254    0.8225   -0.9508 H   0  0  0  0  0  0  0  0  0  0  0  0
   -0.4600   -1.2564    0.9337 H   0  0  0  0  0  0  0  0  0  0  0  0
    0.8163   -0.1127    0.4019 H   0  0  0  0  0  0  0  0  0  0  0  0
    0.2682   -1.3713   -0.5880 H   0  0  0  0  0  0  0  0  0  0  0  0
  1  5  1  0  0  0  0
  2  1  1  0  0  0  0
  2  8  1  0  0  0  0
  3  1  1  0  0  0  0
  4  1  1  0  0  0  0
  6  2  1  0  0  0  0
  6  9  1  0  0  0  0
  6 10  1  0  0  0  0
  7  2  1  0  0  0  0
  9 13  1  0  0  0  0
  9 12  1  0  0  0  0
 11  6  1  0  0  0  0
 14  9  1  0  0  0  0
M  END
$$$$
