14
butane_opt
C  -3.862927   0.232174   0.207454
C  -2.696157  -0.530579  -0.084225
H  -5.023960  -0.511565   0.262590
H  -3.698826   0.647903  -0.673023
H  -3.940234   0.621762   0.933515
C  -1.498471   0.220933  -0.236351
H  -2.983526  -1.241015  -0.971135
H  -2.627640  -1.051217   0.738123
C  -0.115656  -0.760992   0.179983
H  -1.722448   0.735507   0.482156
H  -1.445990   1.120877  -1.114402
H  -0.547524  -0.900068   0.932886
H   0.777107  -0.095066   0.865348
H   0.288883  -1.802868  -0.860442
