butane_opt
 OpenBabel08242015393D

 14 10  0  0  0  0  0  0  0  0999 V2000
   -4.0050    0.2903    0.1078 C   0  0  0  0  0  0  0  0  0  0  0  0
   -2.7492   -0.6347   -0.1345 C   0  0  0  0  0  0  0  0  0  0  0  0
   -4.9993   -0.3885   -0.1622 H   0  0  0  0  0  0  0  0  0  0  0  0
   -4.2595    0.4902   -0.5243 H   0  0  0  0  0  0  0  0  0  0  0  0
   -3.7466    1.2360    1.3827 H   0  0  0  0  0  0  0  0  0  0  0  0
   -1.3736    0.1948   -0.0496 C   0  0  0  0  0  0  0  0  0  0  0  0
   -2.8880   -1.2422   -0.9889 H   0  0  0  0  0  0  0  0  0  0  0  0
   -2.5868   -1.0511    0.6894 H   0  0  0  0  0  0  0  0  0  0  0  0
   -0.1251   -0.6956    0.1365 C   0  0  0  0  0  0  0  0  0  0  0  0
   -1.2827    0.6701    0.7048 H   0  0  0  0  0  0  0  0  0  0  0  0
   -1.1740    0.8666   -0.9537 H   0  0  0  0  0  0  0  0  0  0  0  0
    0.1622   -1.9921    1.4524 H   0  0  0  0  0  0  0  0  0  0  0  0
    0.7631   -0.1026   -0.5199 H   0  0  0  0  0  0  0  0  0  0  0  0
    0.0097   -0.8114   -0.3058 H   0  0  0  0  0  0  0  0  0  0  0  0
  2  6  1  0  0  0  0
  2  1  1  0  0  0  0
  2  8  1  0  0  0  0
  3  1  1  0  0  0  0
  4  1  1  0  0  0  0
  6  9  1  0  0  0  0
  6 10  1  0  0  0  0
  7  2  1  0  0  0  0
 11  6  1  0  0  0  0
 13  9  1  0  0  0  0
M  RAD  5   1   2   5   2   9   3  12   2  14   2
M  END
$$$$
