14
butane_opt
C  -4.003114   0.321727  -0.060253
C  -2.661524  -0.734222   0.144017
H  -4.665727   0.042288   0.271012
H  -4.062589   1.301930  -1.261532
H  -4.298841   0.695873   0.636278
C  -1.401082   0.111835   0.084882
H  -2.709516  -1.276057  -0.671320
H  -2.907973  -1.590862   1.327451
C  -0.108008  -0.588430  -0.030524
H  -1.358215   0.728276   0.861441
H  -1.324077   0.886542  -1.029611
H  -0.215521  -0.291695   0.313257
H   0.714852  -0.165473   0.571253
H  -0.139858  -2.106011  -1.338405
