butane_opt
 OpenBabel08242015393D

 14  9  0  0  0  0  0  0  0  0999 V2000
   -3.8969    0.2044    0.1356 C   0  0  0  0  0  0  0  0  0  0  0  0
   -2.7063   -0.5112   -0.0940 C   0  0  0  0  0  0  0  0  0  0  0  0
   -4.8672   -0.4832   -0.0803 H   0  0  0  0  0  0  0  0  0  0  0  0
   -3.6223    0.4660   -0.6039 H   0  0  0  0  0  0  0  0  0  0  0  0
   -3.6867    1.0794    1.0818 H   0  0  0  0  0  0  0  0  0  0  0  0
   -1.4363    0.2485   -0.0378 C   0  0  0  0  0  0  0  0  0  0  0  0
   -2.8606   -1.6294   -1.4288 H   0  0  0  0  0  0  0  0  0  0  0  0
   -2.8412   -0.7759    0.5992 H   0  0  0  0  0  0  0  0  0  0  0  0
   -0.1460   -0.7925    0.1276 C   0  0  0  0  0  1  0  0  0  0  0  0
   -1.4176    0.8439    0.6569 H   0  0  0  0  0  0  0  0  0  0  0  0
   -1.7990    0.9719   -0.9669 H   0  0  0  0  0  0  0  0  0  0  0  0
    0.1018   -2.0845    1.5922 H   0  0  0  0  0  0  0  0  0  0  0  0
    0.7060   -0.1599   -0.6311 H   0  0  0  0  0  0  0  0  0  0  0  0
   -0.4884   -0.5017   -0.1868 H   0  0  0  0  0  0  0  0  0  0  0  0
  1  5  1  0  0  0  0
  2  1  1  0  0  0  0
  2  8  1  0  0  0  0
  3  1  1  0  0  0  0
  4  1  1  0  0  0  0
  6 10  1  0  0  0  0
 11  6  1  0  0  0  0
 13  9  1  0  0  0  0
 14  6  1  0  0  0  0
M  RAD  4   2   3   6   2   7   2  12   2
M  END
$$$$
