14
butane_opt
C  -3.931199   0.236566   0.053905
C  -2.685815  -0.558615   0.017194
H  -5.045170  -0.536908  -0.713033
H  -3.478137   0.330807  -0.610336
H  -3.766542   1.291753   1.313488
C  -1.382383   0.197820  -0.040825
H  -2.855748  -0.815305  -0.548493
H  -2.526118  -1.178085   1.018932
C  -0.220575  -0.751039   0.057068
H  -1.560308   0.837551   0.761930
H  -1.446333   0.968430  -1.008890
H  -0.188813  -1.531761   1.096360
H   0.664866  -0.073795  -0.105043
H  -0.177241  -1.326892  -0.804211
