butane_opt
 OpenBabel08242015393D

 14 11  0  0  0  0  0  0  0  0999 V2000
   -3.9691    0.2976   -0.0410 C   0  0  0  0  0  0  0  0  0  0  0  0
   -2.7097   -0.6721    0.0162 C   0  0  0  0  0  0  0  0  0  0  0  0
   -4.7898   -0.2537    0.6570 H   0  0  0  0  0  0  0  0  0  0  0  0
   -4.6868    1.6126   -1.2124 H   0  0  0  0  0  0  0  0  0  0  0  0
   -3.6751    0.4724    0.4859 H   0  0  0  0  0  0  0  0  0  0  0  0
   -1.3241    0.1761    0.1237 C   0  0  0  0  0  0  0  0  0  0  0  0
   -2.3974   -1.3302   -0.7097 H   0  0  0  0  0  0  0  0  0  0  0  0
   -2.7858   -1.4657    1.1315 H   0  0  0  0  0  0  0  0  0  0  0  0
   -0.2198   -0.6733   -0.0503 C   0  0  0  0  0  0  0  0  0  0  0  0
   -1.2550    0.8906    1.1512 H   0  0  0  0  0  0  0  0  0  0  0  0
   -1.1229    0.7350   -0.7749 H   0  0  0  0  0  0  0  0  0  0  0  0
   -0.2831   -0.9516    0.6441 H   0  0  0  0  0  0  0  0  0  0  0  0
    0.7004   -0.1098    0.3460 H   0  0  0  0  0  0  0  0  0  0  0  0
   -0.0345   -1.5856   -0.9796 H   0  0  0  0  0  0  0  0  0  0  0  0
  1  2  1  0  0  0  0
  1  3  1  0  0  0  0
  2  6  1  0  0  0  0
  2  8  1  0  0  0  0
  6 10  1  0  0  0  0
  7  2  1  0  0  0  0
  9  6  1  0  0  0  0
  9 13  1  0  0  0  0
  9 12  1  0  0  0  0
 11  6  1  0  0  0  0
 14  9  1  0  0  0  0
M  RAD  3   1   3   4   2   5   2
M  END
$$$$
