14
butane_opt
C  -3.963603   0.190235  -0.176137
C  -2.768150  -0.553711   0.247118
H  -4.740665  -0.321558  -0.349018
H  -3.452885   0.785207  -1.122325
H  -4.342671   0.835736   0.616978
C  -1.356666   0.253366   0.204317
H  -2.802622  -0.992346  -0.421102
H  -2.940174  -1.166319   1.147349
C  -0.113354  -0.768903  -0.155812
H  -1.167604   1.369103   1.250773
H  -1.852017   0.630922  -0.434637
H   0.435883  -1.467956   0.909940
H   0.651353  -0.325395  -0.576689
H  -0.381160  -1.307130  -0.970949
