butane_opt
 OpenBabel08242015393D

 14 13  0  0  0  0  0  0  0  0999 V2000
   -4.0015    0.3063   -0.1130 C   0  0  0  0  0  0  0  0  0  0  0  0
   -2.6987   -0.6753    0.2779 C   0  0  0  0  0  0  0  0  0  0  0  0
   -4.8397   -0.2823   -0.6564 H   0  0  0  0  0  0  0  0  0  0  0  0
   -3.7584    0.5225   -0.8192 H   0  0  0  0  0  0  0  0  0  0  0  0
   -4.2655    1.3434    0.8925 H   0  0  0  0  0  0  0  0  0  0  0  0
   -1.3611    0.1772    0.0510 C   0  0  0  0  0  0  0  0  0  0  0  0
   -2.8050   -1.1292   -0.4539 H   0  0  0  0  0  0  0  0  0  0  0  0
   -2.9926   -1.3218    1.1497 H   0  0  0  0  0  0  0  0  0  0  0  0
   -0.1322   -0.7182   -0.1186 C   0  0  0  0  0  0  0  0  0  0  0  0
   -1.3009    1.0044    0.9247 H   0  0  0  0  0  0  0  0  0  0  0  0
   -1.4919    0.7107   -0.6824 H   0  0  0  0  0  0  0  0  0  0  0  0
   -0.1608   -1.0879    0.5917 H   0  0  0  0  0  0  0  0  0  0  0  0
    0.9767   -0.0384    0.1550 H   0  0  0  0  0  0  0  0  0  0  0  0
   -0.0798   -1.2614   -0.7970 H   0  0  0  0  0  0  0  0  0  0  0  0
  1  2  1  0  0  0  0
  1  5  1  0  0  0  0
  2  8  1  0  0  0  0
  3  1  1  0  0  0  0
  4  1  1  0  0  0  0
  6  2  1  0  0  0  0
  6 10  1  0  0  0  0
  7  2  1  0  0  0  0
  9  6  1  0  0  0  0
  9 13  1  0  0  0  0
  9 12  1  0  0  0  0
 11  6  1  0  0  0  0
 14  9  1  0  0  0  0
M  END
$$$$
