butane_opt
 OpenBabel08242015393D

 14 10  0  0  0  0  0  0  0  0999 V2000
   -4.0328    0.3206   -0.0640 C   0  0  0  0  0  0  0  0  0  0  0  0
   -2.7000   -0.6373    0.1914 C   0  0  0  0  0  0  0  0  0  0  0  0
   -4.9317   -0.2536   -0.0374 H   0  0  0  0  0  0  0  0  0  0  0  0
   -3.8398    1.0383   -1.0805 H   0  0  0  0  0  0  0  0  0  0  0  0
   -4.3366    0.8731    0.6710 H   0  0  0  0  0  0  0  0  0  0  0  0
   -1.3212    0.1166    0.0701 C   0  0  0  0  0  0  0  0  0  0  0  0
   -2.7557   -1.3887   -0.7286 H   0  0  0  0  0  0  0  0  0  0  0  0
   -3.0235   -1.3259    1.3116 H   0  0  0  0  0  0  0  0  0  0  0  0
   -0.1531   -0.6576   -0.0651 C   0  0  0  0  0  0  0  0  0  0  0  0
   -0.9991    0.7124    0.8199 H   0  0  0  0  0  0  0  0  0  0  0  0
   -1.6086    0.8661   -0.8809 H   0  0  0  0  0  0  0  0  0  0  0  0
   -0.2704   -0.8857    0.4973 H   0  0  0  0  0  0  0  0  0  0  0  0
    1.0312   -0.0090    0.5938 H   0  0  0  0  0  0  0  0  0  0  0  0
    0.1566   -1.7835   -1.3162 H   0  0  0  0  0  0  0  0  0  0  0  0
  1  3  1  0  0  0  0
  1  2  1  0  0  0  0
  1  5  1  0  0  0  0
  2  8  1  0  0  0  0
  4  1  1  0  0  0  0
  6 10  1  0  0  0  0
  7  2  1  0  0  0  0
  9  6  1  0  0  0  0
  9 13  1  0  0  0  0
 11  6  1  0  0  0  0
M  RAD  5   2   2   6   2   9   3  12   2  14   2
M  END
$$$$
