14
butane_opt
C  -4.053450   0.284167   0.191616
C  -2.685223  -0.666051  -0.212463
H  -4.581324   0.053898   0.837419
H  -4.664533   1.133086  -0.806905
H  -3.683911   0.737107   0.836534
C  -1.377721   0.119973  -0.071612
H  -2.674453  -1.555907  -1.322438
H  -2.709248  -1.054028   0.607269
C  -0.106822  -0.655197   0.177979
H  -1.454824   0.677640   0.560278
H  -0.971587   0.977904  -1.241976
H  -0.343545  -1.389880   1.226732
H   0.863592   0.136361   0.283069
H  -0.144029  -1.149147  -0.554781
