butane_opt
 OpenBabel08242015393D

 14 10  0  0  0  0  0  0  0  0999 V2000
   -3.8834    0.3368   -0.1732 C   0  0  0  0  0  0  0  0  0  0  0  0
   -2.6142   -0.7051    0.1296 C   0  0  0  0  0  0  0  0  0  0  0  0
   -4.9769   -0.3014    0.2752 H   0  0  0  0  0  0  0  0  0  0  0  0
   -4.1803    1.4177   -1.3698 H   0  0  0  0  0  0  0  0  0  0  0  0
   -4.0306    0.7430    0.4876 H   0  0  0  0  0  0  0  0  0  0  0  0
   -1.3682    0.1157    0.2373 C   0  0  0  0  0  0  0  0  0  0  0  0
   -2.6236   -1.1430   -0.5394 H   0  0  0  0  0  0  0  0  0  0  0  0
   -2.9159   -1.5606    1.3747 H   0  0  0  0  0  0  0  0  0  0  0  0
   -0.2671   -0.6564   -0.1016 C   0  0  0  0  0  0  0  0  0  0  0  0
   -1.1920    1.2167    1.4385 H   0  0  0  0  0  0  0  0  0  0  0  0
   -1.4440    0.4493   -0.3902 H   0  0  0  0  0  0  0  0  0  0  0  0
    0.0241   -1.0952    0.6886 H   0  0  0  0  0  0  0  0  0  0  0  0
    0.7736    0.0596   -0.6703 H   0  0  0  0  0  0  0  0  0  0  0  0
   -0.8329   -1.3476   -1.0276 H   0  0  0  0  0  0  0  0  0  0  0  0
  1  2  1  0  0  0  0
  1  3  1  0  0  0  0
  1  5  1  0  0  0  0
  2  6  1  0  0  0  0
  7  2  1  0  0  0  0
  9  6  1  0  0  0  0
  9 12  1  0  0  0  0
 11  6  1  0  0  0  0
 13  9  1  0  0  0  0
 14  9  1  0  0  0  0
M  RAD  6   1   2   2   2   4   2   6   2   8   2  10   2
M  END
$$$$
