14
butane_opt
C  -3.942666   0.289458   0.066265
C  -2.659969  -0.548359  -0.099133
H  -4.972479  -0.505558   0.625444
H  -4.126013   0.706921  -0.870364
H  -3.649989   0.637008   0.776702
C  -1.452840   0.149745   0.012872
H  -2.762959  -1.403787  -0.925843
H  -2.593252  -1.252710   0.834870
C  -0.170795  -0.678636   0.076896
H  -1.345014   0.751660   0.831807
H  -1.449090   0.906707  -1.024746
H  -0.188286  -1.463608   1.077722
H   0.752782  -0.067840   0.173802
H  -0.002168  -1.300461  -0.717690
