14
butane_opt
C  -3.942316   0.199136   0.199902
C  -2.681877  -0.592409  -0.091437
H  -4.804873  -0.304053   0.153641
H  -4.118375   0.746558  -0.644921
H  -3.902134   1.110317   1.173194
C  -1.421174   0.215990  -0.248705
H  -2.897321  -1.091536  -0.866920
H  -2.825870  -1.154904   0.812845
C  -0.149968  -0.730181   0.179235
H  -1.530977   0.967751   0.642532
H  -1.527572   0.944628  -1.345359
H  -0.714122  -1.032010   1.046692
H   0.886736  -0.103987   0.775132
H   0.741267  -1.688774  -0.795480
