14
butane_opt
C  -3.841325   0.195391  -0.064792
C  -2.715534  -0.516031   0.115714
H  -4.988136  -0.500955   0.023642
H  -3.729813   1.004708  -1.128643
H  -3.795105   0.730915   0.741321
C  -1.494994   0.272615   0.180020
H  -2.682201  -1.409176  -0.988150
H  -2.818725  -1.150721   0.874487
C  -0.173155  -0.737894  -0.059717
H  -1.175002   0.796133   1.031731
H  -1.461592   0.788470  -0.758557
H  -0.050349  -1.698898   1.013692
H   0.593749  -0.368118  -0.509994
H  -0.177554  -1.238820  -0.901579
