butane_opt
 OpenBabel08242015393D

 14 11  0  0  0  0  0  0  0  0999 V2000
   -3.8901    0.2620    0.0508 C   0  0  0  0  0  0  0  0  0  0  0  0
   -2.6902   -0.6292   -0.0548 C   0  0  0  0  0  0  0  0  0  0  0  0
   -4.7505   -0.2474    0.7790 H   0  0  0  0  0  0  0  0  0  0  0  0
   -4.4965    1.3510   -0.9913 H   0  0  0  0  0  0  0  0  0  0  0  0
   -3.5703    0.5935    0.7918 H   0  0  0  0  0  0  0  0  0  0  0  0
   -1.4497    0.1232    0.0075 C   0  0  0  0  0  0  0  0  0  0  0  0
   -2.4986   -1.4706   -1.0179 H   0  0  0  0  0  0  0  0  0  0  0  0
   -2.6160   -0.9073    0.4551 H   0  0  0  0  0  0  0  0  0  0  0  0
   -0.2111   -0.6602    0.0987 C   0  0  0  0  0  0  0  0  0  0  0  0
   -1.6844    0.7264    0.8064 H   0  0  0  0  0  0  0  0  0  0  0  0
   -1.2546    0.8492   -0.9732 H   0  0  0  0  0  0  0  0  0  0  0  0
   -0.0120   -1.2706    1.0055 H   0  0  0  0  0  0  0  0  0  0  0  0
    0.9803    0.0697    0.0773 H   0  0  0  0  0  0  0  0  0  0  0  0
   -0.2673   -1.2653   -0.7491 H   0  0  0  0  0  0  0  0  0  0  0  0
  1  3  1  0  0  0  0
  1  5  1  0  0  0  0
  2  6  1  0  0  0  0
  2  1  1  0  0  0  0
  6  9  1  0  0  0  0
  6 10  1  0  0  0  0
  7  2  1  0  0  0  0
  9 12  1  0  0  0  0
 11  6  1  0  0  0  0
 13  9  1  0  0  0  0
 14  9  1  0  0  0  0
M  RAD  4   1   2   2   2   4   2   8   2
M  END
$$$$
