14
butane_opt
C  -4.018461   0.296635  -0.086787
C  -2.698009  -0.696684   0.068175
H  -4.445256   0.031052   0.811836
H  -4.312732   1.624754  -1.459933
H  -4.001637   0.436337   0.395263
C  -1.367469   0.127290   0.150449
H  -2.752047  -1.104475  -0.532647
H  -2.837466  -1.588938   1.107164
C  -0.147541  -0.652827  -0.071769
H  -1.325472   1.141824   1.260361
H  -1.008568   0.631228  -0.555785
H  -0.230284  -0.740639   0.547087
H   0.836599  -0.043851   0.200882
H  -0.200032  -1.693242  -1.188393
