14
butane_opt
C  -3.971574   0.243221   0.210426
C  -2.770988  -0.610108  -0.070835
H  -4.892974  -0.381749   0.058085
H  -4.034741   0.748196  -0.581974
H  -3.972234   1.027831   1.149567
C  -1.439426   0.234315  -0.255269
H  -3.078943  -1.414128  -1.026554
H  -2.208354  -1.103542   0.445046
C  -0.031102  -0.698640   0.234554
H  -1.580220   0.663209   0.374531
H  -1.353544   1.022928  -1.303174
H  -0.562917  -1.194881   0.998043
H   0.903321  -0.121774   0.657723
H   0.316010  -1.748903  -0.796133
