butane_opt
 OpenBabel08242015393D

 14 13  0  0  0  0  0  0  0  0999 V2000
   -3.9368    0.3188   -0.0564 C   0  0  0  0  0  0  0  0  0  0  0  0
   -2.6719   -0.6270    0.1255 C   0  0  0  0  0  0  0  0  0  0  0  0
   -4.7901   -0.1588   -0.3403 H   0  0  0  0  0  0  0  0  0  0  0  0
   -3.7463    0.7617   -0.8284 H   0  0  0  0  0  0  0  0  0  0  0  0
   -4.1896    0.9108    0.8347 H   0  0  0  0  0  0  0  0  0  0  0  0
   -1.3827    0.0967    0.0802 C   0  0  0  0  0  0  0  0  0  0  0  0
   -2.3999   -0.9162   -0.5332 H   0  0  0  0  0  0  0  0  0  0  0  0
   -2.7301   -1.5721    1.2376 H   0  0  0  0  0  0  0  0  0  0  0  0
   -0.2646   -0.6680   -0.0315 C   0  0  0  0  0  0  0  0  0  0  0  0
   -1.2835    0.7471    0.9326 H   0  0  0  0  0  0  0  0  0  0  0  0
   -1.2704    0.6069   -0.7143 H   0  0  0  0  0  0  0  0  0  0  0  0
   -0.2378   -0.9804    0.5942 H   0  0  0  0  0  0  0  0  0  0  0  0
    0.8783    0.2328   -0.1281 H   0  0  0  0  0  0  0  0  0  0  0  0
   -0.2215   -1.5246   -1.0634 H   0  0  0  0  0  0  0  0  0  0  0  0
  1  2  1  0  0  0  0
  1  5  1  0  0  0  0
  2  8  1  0  0  0  0
  3  1  1  0  0  0  0
  4  1  1  0  0  0  0
  6  2  1  0  0  0  0
  6 10  1  0  0  0  0
  7  2  1  0  0  0  0
  9  6  1  0  0  0  0
  9 12  1  0  0  0  0
 11  6  1  0  0  0  0
 13  9  1  0  0  0  0
 14  9  1  0  0  0  0
M  END
$$$$
