14
butane_opt
C  -3.946172   0.212011   0.125096
C  -2.736283  -0.562311  -0.067774
H  -4.852524  -0.546383  -0.264753
H  -4.048271   0.554393  -0.637603
H  -4.105965   1.064611   1.077919
C  -1.400105   0.301650   0.000988
H  -2.848526  -1.552997  -1.275311
H  -2.744046  -0.891049   0.497738
C  -0.119834  -0.772241   0.099594
H  -1.213685   0.808111   0.678120
H  -1.350091   1.054722  -0.951173
H   0.192624  -2.070635   1.429234
H   0.568940  -0.400266  -0.737699
H  -0.114143  -0.666323  -0.165094
