14
butane_opt
C  -3.955477   0.323490   0.106083
C  -2.684377  -0.744507  -0.104269
H  -4.824399  -0.081916   0.013884
H  -4.266893   0.753175  -0.600875
H  -3.974639   1.385675   1.232801
C  -1.385829   0.163246   0.000945
H  -2.678207  -1.794473  -1.257512
H  -2.694217  -1.243493   0.661700
C  -0.129227  -0.608803   0.100588
H  -1.623024   0.587269   0.566058
H  -1.290103   1.063418  -1.081561
H  -0.049716  -1.880443   1.522164
H   0.726556  -0.030183  -0.426390
H  -0.504234  -0.800526  -0.332191
