butane_opt
 OpenBabel08242015393D

 14 12  0  0  0  0  0  0  0  0999 V2000
   -3.9990    0.3143    0.1191 C   0  0  0  0  0  0  0  0  0  0  0  0
   -2.7147   -0.7004   -0.0819 C   0  0  0  0  0  0  0  0  0  0  0  0
   -4.9070   -0.2333    0.5050 H   0  0  0  0  0  0  0  0  0  0  0  0
   -4.6910    0.7928   -0.6627 H   0  0  0  0  0  0  0  0  0  0  0  0
   -3.8851    1.1807    1.1313 H   0  0  0  0  0  0  0  0  0  0  0  0
   -1.3567    0.1273   -0.1759 C   0  0  0  0  0  0  0  0  0  0  0  0
   -2.7212   -1.1106   -0.8512 H   0  0  0  0  0  0  0  0  0  0  0  0
   -2.5436   -1.2820    0.7179 H   0  0  0  0  0  0  0  0  0  0  0  0
   -0.1019   -0.6865    0.1523 C   0  0  0  0  0  0  0  0  0  0  0  0
   -1.4948    0.7244    0.5330 H   0  0  0  0  0  0  0  0  0  0  0  0
   -1.1983    0.9922   -1.1418 H   0  0  0  0  0  0  0  0  0  0  0  0
   -0.5815   -0.9496    0.9907 H   0  0  0  0  0  0  0  0  0  0  0  0
    1.0104    0.2269    0.8997 H   0  0  0  0  0  0  0  0  0  0  0  0
    0.0796   -1.5063   -0.8450 H   0  0  0  0  0  0  0  0  0  0  0  0
  1  3  1  0  0  0  0
  1  5  1  0  0  0  0
  2  1  1  0  0  0  0
  2  8  1  0  0  0  0
  4  1  1  0  0  0  0
  6  2  1  0  0  0  0
  6  9  1  0  0  0  0
  6 10  1  0  0  0  0
  7  2  1  0  0  0  0
  9 12  1  0  0  0  0
 11  6  1  0  0  0  0
 14  9  1  0  0  0  0
M  RAD  2   9   2  13   2
M  END
$$$$
