butane_opt
 OpenBabel08242015393D

 14 11  0  0  0  0  0  0  0  0999 V2000
   -4.0076    0.2651   -0.0976 C   0  0  0  0  0  0  0  0  0  0  0  0
   -2.6952   -0.6920    0.2560 C   0  0  0  0  0  0  0  0  0  0  0  0
   -4.9342   -0.3974    0.0372 H   0  0  0  0  0  0  0  0  0  0  0  0
   -3.7939    1.0725   -1.1639 H   0  0  0  0  0  0  0  0  0  0  0  0
   -4.3090    1.0243    0.7034 H   0  0  0  0  0  0  0  0  0  0  0  0
   -1.4332    0.2401    0.0382 C   0  0  0  0  0  0  0  0  0  0  0  0
   -2.4613   -1.2767   -0.6170 H   0  0  0  0  0  0  0  0  0  0  0  0
   -2.8489   -1.3285    1.0830 H   0  0  0  0  0  0  0  0  0  0  0  0
   -0.0866   -0.6758   -0.0728 C   0  0  0  0  0  0  0  0  0  0  0  0
   -1.0059    0.9533    0.8814 H   0  0  0  0  0  0  0  0  0  0  0  0
   -1.4569    0.7756   -0.6689 H   0  0  0  0  0  0  0  0  0  0  0  0
   -0.3134   -0.8238    0.4312 H   0  0  0  0  0  0  0  0  0  0  0  0
    0.7138   -0.3368    0.4733 H   0  0  0  0  0  0  0  0  0  0  0  0
    0.1080   -1.8215   -1.2073 H   0  0  0  0  0  0  0  0  0  0  0  0
  1  3  1  0  0  0  0
  1  2  1  0  0  0  0
  1  5  1  0  0  0  0
  2  8  1  0  0  0  0
  4  1  1  0  0  0  0
  6  2  1  0  0  0  0
  6 10  1  0  0  0  0
  7  2  1  0  0  0  0
  9  6  1  0  0  0  0
  9 13  1  0  0  0  0
 11  6  1  0  0  0  0
M  RAD  3   9   3  12   2  14   2
M  END
$$$$
