14
butane_opt
C  -3.930701   0.209969   0.230322
C  -2.675774  -0.554506  -0.151841
H  -5.008199  -0.614827   0.308240
H  -4.241222   0.762329  -0.621415
H  -3.868526   0.981800   1.028964
C  -1.415214   0.289029  -0.250489
H  -3.161249  -1.235423  -1.117467
H  -2.567705  -1.356640   0.792395
C  -0.144104  -0.720986   0.204596
H  -1.636566   0.904815   0.551533
H  -1.240836   0.774964  -1.186485
H  -0.284697  -1.393653   1.174687
H   0.626830  -0.385608   0.805360
H   0.393834  -1.622377  -0.691676
