14
butane_opt
C  -3.941264   0.262232   0.030291
C  -2.697037  -0.615996   0.035377
H  -4.851866  -0.314939  -0.039057
H  -3.921910   0.794903  -0.811909
H  -4.008525   0.975390   0.891463
C  -1.408848   0.190255   0.000628
H  -2.725616  -1.348530  -0.856533
H  -2.662834  -1.186823   0.886304
C  -0.157726  -0.694352   0.040898
H  -1.436672   0.860069   0.820310
H  -1.367907   0.833609  -0.897892
H  -0.105858  -1.407817   1.003559
H   0.742725  -0.100232  -0.059088
H  -0.222560  -1.288871  -0.768636
