14
butane_opt
C  -3.956663   0.196119   0.110760
C  -2.773120  -0.555615  -0.091382
H  -4.974340  -0.438607  -0.045065
H  -3.805543   0.302040  -0.439950
H  -3.963979   1.363437   1.222772
C  -1.434118   0.252073  -0.059972
H  -2.960130  -1.366475  -1.233064
H  -2.489592  -1.034991   0.587666
C  -0.070372  -0.772845   0.181514
H  -1.729252   0.842709   0.736172
H  -1.389997   1.238070  -1.311969
H   0.401341  -1.798497   1.362683
H   0.890879  -0.191572  -0.614391
H  -0.196870  -0.847031  -0.406043
