butane_opt
 OpenBabel08242015393D

 14 12  0  0  0  0  0  0  0  0999 V2000
   -3.8629    0.2322    0.2075 C   0  0  0  0  0  0  0  0  0  0  0  0
   -2.6962   -0.5306   -0.0842 C   0  0  0  0  0  0  0  0  0  0  0  0
   -5.0240   -0.5116    0.2626 H   0  0  0  0  0  0  0  0  0  0  0  0
   -3.6988    0.6479   -0.6730 H   0  0  0  0  0  0  0  0  0  0  0  0
   -3.9402    0.6218    0.9335 H   0  0  0  0  0  0  0  0  0  0  0  0
   -1.4985    0.2209   -0.2364 C   0  0  0  0  0  0  0  0  0  0  0  0
   -2.9835   -1.2410   -0.9711 H   0  0  0  0  0  0  0  0  0  0  0  0
   -2.6276   -1.0512    0.7381 H   0  0  0  0  0  0  0  0  0  0  0  0
   -0.1157   -0.7610    0.1800 C   0  0  0  0  0  0  0  0  0  0  0  0
   -1.7224    0.7355    0.4822 H   0  0  0  0  0  0  0  0  0  0  0  0
   -1.4460    1.1209   -1.1144 H   0  0  0  0  0  0  0  0  0  0  0  0
   -0.5475   -0.9001    0.9329 H   0  0  0  0  0  0  0  0  0  0  0  0
    0.7771   -0.0951    0.8653 H   0  0  0  0  0  0  0  0  0  0  0  0
    0.2889   -1.8029   -0.8604 H   0  0  0  0  0  0  0  0  0  0  0  0
  1  3  1  0  0  0  0
  1  5  1  0  0  0  0
  2  1  1  0  0  0  0
  2  8  1  0  0  0  0
  4  1  1  0  0  0  0
  6  2  1  0  0  0  0
  6  9  1  0  0  0  0
  6 10  1  0  0  0  0
  7  2  1  0  0  0  0
  9 13  1  0  0  0  0
  9 12  1  0  0  0  0
 11  6  1  0  0  0  0
M  RAD  2   9   2  14   2
M  END
$$$$
