butane_opt
 OpenBabel08242015393D

 14  9  0  0  0  0  0  0  0  0999 V2000
   -3.9312    0.2366    0.0539 C   0  0  0  0  0  1  0  0  0  0  0  0
   -2.6858   -0.5586    0.0172 C   0  0  0  0  0  0  0  0  0  0  0  0
   -5.0452   -0.5369   -0.7130 H   0  0  0  0  0  0  0  0  0  0  0  0
   -3.4781    0.3308   -0.6103 H   0  0  0  0  0  0  0  0  0  0  0  0
   -3.7665    1.2918    1.3135 H   0  0  0  0  0  0  0  0  0  0  0  0
   -1.3824    0.1978   -0.0408 C   0  0  0  0  0  0  0  0  0  0  0  0
   -2.8557   -0.8153   -0.5485 H   0  0  0  0  0  0  0  0  0  0  0  0
   -2.5261   -1.1781    1.0189 H   0  0  0  0  0  0  0  0  0  0  0  0
   -0.2206   -0.7510    0.0571 C   0  0  0  0  0  0  0  0  0  0  0  0
   -1.5603    0.8376    0.7619 H   0  0  0  0  0  0  0  0  0  0  0  0
   -1.4463    0.9684   -1.0089 H   0  0  0  0  0  0  0  0  0  0  0  0
   -0.1888   -1.5318    1.0964 H   0  0  0  0  0  0  0  0  0  0  0  0
    0.6649   -0.0738   -0.1050 H   0  0  0  0  0  0  0  0  0  0  0  0
   -0.1772   -1.3269   -0.8042 H   0  0  0  0  0  0  0  0  0  0  0  0
  2  8  1  0  0  0  0
  4  1  1  0  0  0  0
  6  9  1  0  0  0  0
  6 10  1  0  0  0  0
  7  2  1  0  0  0  0
  9 12  1  0  0  0  0
 11  6  1  0  0  0  0
 13  9  1  0  0  0  0
 14  9  1  0  0  0  0
M  RAD  4   2   3   3   2   5   2   6   2
M  END
$$$$
