14
butane_opt
C  -4.002707   0.241071   0.136813
C  -2.761553  -0.574521  -0.127477
H  -4.989620  -0.576269  -0.138129
H  -3.595058   0.628354  -0.594967
H  -3.848666   1.055306   1.036287
C  -1.383318   0.256527  -0.021612
H  -3.028507  -1.403956  -1.050483
H  -2.592705  -0.871933   0.657707
C  -0.106833  -0.755371   0.119083
H  -1.467887   0.883150   0.817785
H  -1.268987   0.977345  -1.023893
H   0.311475  -2.095773   1.419004
H   0.747143  -0.310436  -0.592190
H  -0.247892  -0.779051  -0.294002
