14
butane_opt
C  -3.990234   0.317293   0.106648
C  -2.688163  -0.734185  -0.078337
H  -4.738461  -0.182660   0.814125
H  -4.434128   1.512308  -1.277363
H  -3.896681   0.572534   0.624613
C  -1.302443   0.145526   0.007413
H  -2.537426  -1.524062  -1.062441
H  -2.780150  -0.861735   0.581186
C  -0.191103  -0.615515   0.069874
H  -1.326759   0.817679   0.825941
H  -1.332526   0.726940  -0.884804
H  -0.296794  -1.383412   1.134671
H   0.622340  -0.226745   0.243795
H  -0.227228  -1.277002  -0.822779
