14
butane_opt
C  -3.905431   0.320922  -0.063156
C  -2.694265  -0.636964   0.198222
H  -4.672345  -0.088616  -0.520047
H  -3.905911   0.702131  -0.872625
H  -4.113596   0.954715   0.769941
C  -1.376553   0.087223   0.072612
H  -2.511697  -1.220448  -0.561636
H  -2.929154  -1.275068   1.109182
C  -0.249104  -0.645230  -0.035849
H  -1.449467   0.763853   0.878501
H  -1.426126   0.648482  -0.948893
H   0.006712  -0.984557   0.618763
H   0.956298   0.102621  -0.072212
H  -0.353479  -1.526309  -1.038665
