14
butane_opt
C  -3.942578   0.209483  -0.134237
C  -2.746708  -0.538454   0.161634
H  -4.893734  -0.578209  -0.284270
H  -4.051638   1.073711  -1.217114
H  -4.073626   0.912817   0.601956
C  -1.361841   0.204689   0.216458
H  -2.706994  -0.972625  -0.522076
H  -3.105683  -1.266181   1.137166
C  -0.107105  -0.756069  -0.107757
H  -1.410009   1.220649   1.332883
H  -1.519664   0.596334  -0.342844
H   0.459371  -1.653486   0.849553
H   0.810619  -0.118942  -0.820983
H  -0.586531  -1.139193  -0.932188
