14
butane_opt
C  -3.943510   0.222361   0.197133
C  -2.817145  -0.540548  -0.239186
H  -4.848885  -0.570158   0.876365
H  -4.577769   0.828519  -0.687152
H  -3.306858   0.761699   1.028304
C  -1.373703   0.227226  -0.197956
H  -2.972074  -1.181223  -1.121534
H  -2.791624  -0.968118   0.645894
C  -0.047983  -0.758343   0.245829
H  -1.531664   1.017051   0.652470
H  -1.487987   1.002007  -1.200698
H  -0.151457  -1.508198   1.240279
H   0.730314  -0.287586   0.527377
H   0.131209  -1.415148  -0.562807
