14
butane_opt
C  -3.896266   0.249092  -0.099763
C  -2.674841  -0.581426   0.099666
H  -4.886011  -0.490606   0.599163
H  -3.978905   1.307402  -1.368868
H  -3.707856   0.658330   0.538714
C  -1.419000   0.124869   0.154304
H  -2.461532  -0.982167  -0.470773
H  -2.860017  -1.396848   1.244219
C  -0.201218  -0.651727  -0.111660
H  -1.562728   1.076252   1.201056
H  -1.418835   0.629335  -0.705729
H  -0.291679  -1.046628   0.709974
H   0.592958  -0.209528   0.365743
H  -0.146595  -1.730872  -1.245522
