butane_opt
 OpenBabel08242015393D

 14 11  0  0  0  0  0  0  0  0999 V2000
   -3.9924    0.2794    0.0721 C   0  0  0  0  0  0  0  0  0  0  0  0
   -2.7031   -0.6559    0.0226 C   0  0  0  0  0  0  0  0  0  0  0  0
   -4.6906   -0.2250    0.2431 H   0  0  0  0  0  0  0  0  0  0  0  0
   -3.8730    1.0874   -1.0703 H   0  0  0  0  0  0  0  0  0  0  0  0
   -4.2024    0.9555    0.8542 H   0  0  0  0  0  0  0  0  0  0  0  0
   -1.3361    0.1847   -0.1029 C   0  0  0  0  0  0  0  0  0  0  0  0
   -2.7618   -1.0854   -0.6205 H   0  0  0  0  0  0  0  0  0  0  0  0
   -2.4604   -1.4846    1.1063 H   0  0  0  0  0  0  0  0  0  0  0  0
   -0.2104   -0.6547    0.0642 C   0  0  0  0  0  0  0  0  0  0  0  0
   -1.1506    0.7563    0.6580 H   0  0  0  0  0  0  0  0  0  0  0  0
   -1.3252    0.5957   -0.8241 H   0  0  0  0  0  0  0  0  0  0  0  0
   -0.5336   -0.7608    0.7315 H   0  0  0  0  0  0  0  0  0  0  0  0
    0.6922   -0.1734    0.8370 H   0  0  0  0  0  0  0  0  0  0  0  0
    0.1923   -1.9721   -1.2006 H   0  0  0  0  0  0  0  0  0  0  0  0
  1  3  1  0  0  0  0
  1  5  1  0  0  0  0
  2  1  1  0  0  0  0
  2  8  1  0  0  0  0
  4  1  1  0  0  0  0
  6  9  1  0  0  0  0
  6 10  1  0  0  0  0
  7  2  1  0  0  0  0
  9 12  1  0  0  0  0
  9 13  1  0  0  0  0
 11  6  1  0  0  0  0
M  RAD  4   2   2   6   2   9   2  14   2
M  END
$$$$
