butane_opt
 OpenBabel08242015393D

 14 13  0  0  0  0  0  0  0  0999 V2000
   -4.0130    0.3626   -0.1635 C   0  0  0  0  0  0  0  0  0  0  0  0
   -2.6610   -0.7603    0.3347 C   0  0  0  0  0  0  0  0  0  0  0  0
   -4.9347   -0.1790   -0.5092 H   0  0  0  0  0  0  0  0  0  0  0  0
   -3.4960    0.9193   -1.1427 H   0  0  0  0  0  0  0  0  0  0  0  0
   -4.5266    1.1638    0.7505 H   0  0  0  0  0  0  0  0  0  0  0  0
   -1.3420    0.1433    0.1240 C   0  0  0  0  0  0  0  0  0  0  0  0
   -2.5680   -1.3951   -0.3864 H   0  0  0  0  0  0  0  0  0  0  0  0
   -2.9714   -1.3006    1.3079 H   0  0  0  0  0  0  0  0  0  0  0  0
   -0.2040   -0.6211   -0.1584 C   0  0  0  0  0  0  0  0  0  0  0  0
   -1.0851    0.7610    1.0881 H   0  0  0  0  0  0  0  0  0  0  0  0
   -1.4373    0.6063   -0.7064 H   0  0  0  0  0  0  0  0  0  0  0  0
   -0.0255   -0.8299    0.4854 H   0  0  0  0  0  0  0  0  0  0  0  0
    0.7188   -0.0887    0.0973 H   0  0  0  0  0  0  0  0  0  0  0  0
   -0.1159   -1.5969   -1.1935 H   0  0  0  0  0  0  0  0  0  0  0  0
  1  2  1  0  0  0  0
  1  5  1  0  0  0  0
  2  8  1  0  0  0  0
  3  1  1  0  0  0  0
  4  1  1  0  0  0  0
  6  2  1  0  0  0  0
  6 10  1  0  0  0  0
  7  2  1  0  0  0  0
  9 13  1  0  0  0  0
  9  6  1  0  0  0  0
  9 12  1  0  0  0  0
 11  6  1  0  0  0  0
 14  9  1  0  0  0  0
M  END
$$$$
