14
butane_opt
C  -3.969144   0.297555  -0.040999
C  -2.709727  -0.672080   0.016198
H  -4.789825  -0.253677   0.657023
H  -4.686779   1.612631  -1.212412
H  -3.675107   0.472449   0.485851
C  -1.324055   0.176121   0.123688
H  -2.397360  -1.330228  -0.709717
H  -2.785755  -1.465662   1.131470
C  -0.219755  -0.673330  -0.050350
H  -1.254983   0.890568   1.151213
H  -1.122852   0.734997  -0.774947
H  -0.283102  -0.951639   0.644055
H   0.700355  -0.109833   0.346015
H  -0.034499  -1.585636  -0.979627
