butane_opt
 OpenBabel08242015393D

 14  9  0  0  0  0  0  0  0  0999 V2000
   -3.9476    0.2041   -0.1015 C   0  0  0  0  0  1  0  0  0  0  0  0
   -2.7357   -0.5806    0.0887 C   0  0  0  0  0  0  0  0  0  0  0  0
   -4.7942   -0.2265    0.8725 H   0  0  0  0  0  0  0  0  0  0  0  0
   -4.0591    1.5319   -1.5542 H   0  0  0  0  0  0  0  0  0  0  0  0
   -3.8334    0.2907    0.4826 H   0  0  0  0  0  0  0  0  0  0  0  0
   -1.4726    0.2556    0.2071 C   0  0  0  0  0  0  0  0  0  0  0  0
   -2.5440   -1.3055   -0.7496 H   0  0  0  0  0  0  0  0  0  0  0  0
   -3.1465   -1.3607    1.1136 H   0  0  0  0  0  0  0  0  0  0  0  0
   -0.0819   -0.7082   -0.0813 C   0  0  0  0  0  0  0  0  0  0  0  0
   -1.2575    1.0737    0.9880 H   0  0  0  0  0  0  0  0  0  0  0  0
   -1.4014    0.6882   -0.6002 H   0  0  0  0  0  0  0  0  0  0  0  0
    0.0896   -1.0953    0.5554 H   0  0  0  0  0  0  0  0  0  0  0  0
    0.7974   -0.3088    0.1088 H   0  0  0  0  0  0  0  0  0  0  0  0
   -0.0170   -1.7715   -1.1782 H   0  0  0  0  0  0  0  0  0  0  0  0
  1  3  1  0  0  0  0
  2  5  1  0  0  0  0
  2  8  1  0  0  0  0
  6 10  1  0  0  0  0
  7  2  1  0  0  0  0
  9 13  1  0  0  0  0
  9  6  1  0  0  0  0
  9 12  1  0  0  0  0
 11  6  1  0  0  0  0
M  RAD  5   2   2   4   2   6   2   9   2  14   2
M  END
$$$$
