butane_opt
 OpenBabel08242015393D

 14 13  0  0  0  0  0  0  0  0999 V2000
   -3.9571    0.2698   -0.0039 C   0  0  0  0  0  0  0  0  0  0  0  0
   -2.7111   -0.6170    0.0528 C   0  0  0  0  0  0  0  0  0  0  0  0
   -4.8513   -0.3127   -0.0378 H   0  0  0  0  0  0  0  0  0  0  0  0
   -3.9405    0.8892   -0.9018 H   0  0  0  0  0  0  0  0  0  0  0  0
   -3.9769    0.8899    0.8260 H   0  0  0  0  0  0  0  0  0  0  0  0
   -1.3932    0.1886    0.0475 C   0  0  0  0  0  0  0  0  0  0  0  0
   -2.7259   -1.3058   -0.7787 H   0  0  0  0  0  0  0  0  0  0  0  0
   -2.7610   -1.2721    0.9581 H   0  0  0  0  0  0  0  0  0  0  0  0
   -0.1468   -0.6957    0.0030 C   0  0  0  0  0  0  0  0  0  0  0  0
   -1.3272    0.9204    0.9620 H   0  0  0  0  0  0  0  0  0  0  0  0
   -1.4729    0.7912   -0.8011 H   0  0  0  0  0  0  0  0  0  0  0  0
   -0.0725   -1.4209    0.9523 H   0  0  0  0  0  0  0  0  0  0  0  0
    0.7767   -0.0933   -0.1316 H   0  0  0  0  0  0  0  0  0  0  0  0
   -0.1836   -1.2944   -0.7953 H   0  0  0  0  0  0  0  0  0  0  0  0
  1  2  1  0  0  0  0
  1  5  1  0  0  0  0
  2  8  1  0  0  0  0
  3  1  1  0  0  0  0
  4  1  1  0  0  0  0
  6  2  1  0  0  0  0
  6 10  1  0  0  0  0
  7  2  1  0  0  0  0
  9  6  1  0  0  0  0
  9 12  1  0  0  0  0
 11  6  1  0  0  0  0
 13  9  1  0  0  0  0
 14  9  1  0  0  0  0
M  END
$$$$
