butane_opt
 OpenBabel08242015393D

 14 12  0  0  0  0  0  0  0  0999 V2000
   -3.9630    0.1741    0.1829 C   0  0  0  0  0  0  0  0  0  0  0  0
   -2.7431   -0.5896   -0.1803 C   0  0  0  0  0  0  0  0  0  0  0  0
   -4.8762   -0.4408    0.4200 H   0  0  0  0  0  0  0  0  0  0  0  0
   -4.3739    1.1047   -0.9219 H   0  0  0  0  0  0  0  0  0  0  0  0
   -3.5382    0.6848    0.9851 H   0  0  0  0  0  0  0  0  0  0  0  0
   -1.4046    0.3174   -0.0850 C   0  0  0  0  0  0  0  0  0  0  0  0
   -2.5528   -1.2362   -1.0407 H   0  0  0  0  0  0  0  0  0  0  0  0
   -2.6769   -0.8977    0.5327 H   0  0  0  0  0  0  0  0  0  0  0  0
   -0.1197   -0.7427    0.1355 C   0  0  0  0  0  0  0  0  0  0  0  0
   -1.4149    1.1185    0.8172 H   0  0  0  0  0  0  0  0  0  0  0  0
   -1.2510    0.7493   -0.9482 H   0  0  0  0  0  0  0  0  0  0  0  0
   -0.1408   -1.8960    1.4265 H   0  0  0  0  0  0  0  0  0  0  0  0
    0.5366   -0.4290   -0.0695 H   0  0  0  0  0  0  0  0  0  0  0  0
    0.0976   -1.1801   -0.3894 H   0  0  0  0  0  0  0  0  0  0  0  0
  1  3  1  0  0  0  0
  1  5  1  0  0  0  0
  2  6  1  0  0  0  0
  2  1  1  0  0  0  0
  2  8  1  0  0  0  0
  4  1  1  0  0  0  0
  6  9  1  0  0  0  0
  6 10  1  0  0  0  0
  7  2  1  0  0  0  0
 11  6  1  0  0  0  0
 13  9  1  0  0  0  0
 14  9  1  0  0  0  0
M  RAD  2   9   2  12   2
M  END
$$$$
