14
butane_opt
C  -3.938856   0.271581   0.019006
C  -2.682378  -0.627541   0.022982
H  -4.845922  -0.323768   0.022415
H  -3.970913   0.849408  -0.823064
H  -3.988939   0.948137   0.892548
C  -1.407775   0.184552   0.020959
H  -2.657337  -1.284953  -0.831058
H  -2.715827  -1.244242   0.900719
C  -0.182230  -0.689284   0.033139
H  -1.372843   0.869464   0.891055
H  -1.378977   0.779587  -0.856195
H  -0.110391  -1.422116   1.016223
H   0.747027  -0.070932  -0.137512
H  -0.197161  -1.241775  -0.771815
