14
butane_opt
C  -3.921176   0.194178  -0.082550
C  -2.719439  -0.515694   0.258514
H  -4.928233  -0.588626  -0.790249
H  -3.255185   0.626299  -1.054932
H  -4.370450   0.967703   0.867988
C  -1.466576   0.231879   0.134330
H  -2.602270  -1.144894  -0.458769
H  -2.604523  -1.105331   1.020998
C  -0.162726  -0.733271  -0.150556
H  -1.487014   0.924915   0.954773
H  -1.398735   0.833753  -0.852328
H   0.309385  -1.407007   0.846923
H   0.696473  -0.218463  -0.036839
H  -0.143067  -1.504481  -0.958144
