14
butane_opt
C  -4.049292   0.297200   0.122466
C  -2.688525  -0.664230  -0.177752
H  -4.877990  -0.156562   0.832908
H  -4.602148   1.031763  -0.768065
H  -3.833277   0.887930   1.122679
C  -1.353603   0.099670  -0.130423
H  -2.877552  -1.467567  -1.208471
H  -2.437696  -1.072691   0.625676
C  -0.126534  -0.639460   0.173633
H  -1.362990   0.995436   0.991235
H  -1.319969   0.776087  -0.951879
H  -0.261200  -1.700705   1.392163
H   1.024571   0.138551   0.010750
H   0.107355  -0.984556  -0.441747
