butane_opt
 OpenBabel08242015393D

 14 13  0  0  0  0  0  0  0  0999 V2000
   -3.9435    0.2224    0.1971 C   0  0  0  0  0  0  0  0  0  0  0  0
   -2.8171   -0.5405   -0.2392 C   0  0  0  0  0  0  0  0  0  0  0  0
   -4.8489   -0.5702    0.8764 H   0  0  0  0  0  0  0  0  0  0  0  0
   -4.5778    0.8285   -0.6872 H   0  0  0  0  0  0  0  0  0  0  0  0
   -3.3069    0.7617    1.0283 H   0  0  0  0  0  0  0  0  0  0  0  0
   -1.3737    0.2272   -0.1980 C   0  0  0  0  0  0  0  0  0  0  0  0
   -2.9721   -1.1812   -1.1215 H   0  0  0  0  0  0  0  0  0  0  0  0
   -2.7916   -0.9681    0.6459 H   0  0  0  0  0  0  0  0  0  0  0  0
   -0.0480   -0.7583    0.2458 C   0  0  0  0  0  0  0  0  0  0  0  0
   -1.5317    1.0171    0.6525 H   0  0  0  0  0  0  0  0  0  0  0  0
   -1.4880    1.0020   -1.2007 H   0  0  0  0  0  0  0  0  0  0  0  0
   -0.1515   -1.5082    1.2403 H   0  0  0  0  0  0  0  0  0  0  0  0
    0.7303   -0.2876    0.5274 H   0  0  0  0  0  0  0  0  0  0  0  0
    0.1312   -1.4151   -0.5628 H   0  0  0  0  0  0  0  0  0  0  0  0
  1  3  1  0  0  0  0
  1  5  1  0  0  0  0
  2  6  1  0  0  0  0
  2  1  1  0  0  0  0
  2  8  1  0  0  0  0
  4  1  1  0  0  0  0
  6  9  1  0  0  0  0
  6 10  1  0  0  0  0
  7  2  1  0  0  0  0
  9 13  1  0  0  0  0
  9 12  1  0  0  0  0
 11  6  1  0  0  0  0
 14  9  1  0  0  0  0
M  END
$$$$
