butane_opt
 OpenBabel08242015393D

 14 10  0  0  0  0  0  0  0  0999 V2000
   -3.9169    0.3315    0.1143 C   0  0  0  0  0  0  0  0  0  0  0  0
   -2.6387   -0.6635   -0.1105 C   0  0  0  0  0  0  0  0  0  0  0  0
   -4.7301   -0.3084    0.1436 H   0  0  0  0  0  0  0  0  0  0  0  0
   -3.8487    0.8226   -0.7504 H   0  0  0  0  0  0  0  0  0  0  0  0
   -4.0488    1.2000    0.9546 H   0  0  0  0  0  0  0  0  0  0  0  0
   -1.3886    0.0896   -0.0182 C   0  0  0  0  0  0  0  0  0  0  0  0
   -2.6844   -1.5896   -0.9935 H   0  0  0  0  0  0  0  0  0  0  0  0
   -2.8121   -1.1484    0.6644 H   0  0  0  0  0  0  0  0  0  0  0  0
   -0.2475   -0.6214    0.0854 C   0  0  0  0  0  1  0  0  0  0  0  0
   -1.3009    0.8709    0.9174 H   0  0  0  0  0  0  0  0  0  0  0  0
   -1.3856    0.5689   -0.7984 H   0  0  0  0  0  0  0  0  0  0  0  0
   -0.1668   -1.8461    1.4172 H   0  0  0  0  0  0  0  0  0  0  0  0
    0.5887   -0.1242   -0.5942 H   0  0  0  0  0  0  0  0  0  0  0  0
   -0.3645   -0.5033   -0.2567 H   0  0  0  0  0  0  0  0  0  0  0  0
  1  3  1  0  0  0  0
  1  5  1  0  0  0  0
  2  1  1  0  0  0  0
  2  8  1  0  0  0  0
  4  1  1  0  0  0  0
  6 10  1  0  0  0  0
  7  2  1  0  0  0  0
 11  6  1  0  0  0  0
 13  9  1  0  0  0  0
 14  6  1  0  0  0  0
M  RAD  3   2   2   6   2  12   2
M  END
$$$$
