butane_opt
 OpenBabel08242015393D

 14 10  0  0  0  0  0  0  0  0999 V2000
   -4.0487    0.3390   -0.0811 C   0  0  0  0  0  0  0  0  0  0  0  0
   -2.6850   -0.6717    0.0827 C   0  0  0  0  0  0  0  0  0  0  0  0
   -4.8807   -0.2488    0.5990 H   0  0  0  0  0  0  0  0  0  0  0  0
   -4.3008    1.6206   -1.4113 H   0  0  0  0  0  0  0  0  0  0  0  0
   -4.0153    0.3289    0.2501 H   0  0  0  0  0  0  0  0  0  0  0  0
   -1.3311    0.0582    0.1836 C   0  0  0  0  0  0  0  0  0  0  0  0
   -2.7549   -1.2503   -0.7004 H   0  0  0  0  0  0  0  0  0  0  0  0
   -2.5340   -1.3395    0.9798 H   0  0  0  0  0  0  0  0  0  0  0  0
   -0.1767   -0.6492   -0.1193 C   0  0  0  0  0  0  0  0  0  0  0  0
   -0.9791    1.2250    1.3818 H   0  0  0  0  0  0  0  0  0  0  0  0
   -1.2453    0.6047   -0.5067 H   0  0  0  0  0  0  0  0  0  0  0  0
   -0.0292   -1.1841    0.7677 H   0  0  0  0  0  0  0  0  0  0  0  0
    0.8115    0.1576    0.1294 H   0  0  0  0  0  0  0  0  0  0  0  0
   -0.2183   -1.2938   -0.9146 H   0  0  0  0  0  0  0  0  0  0  0  0
  1  2  1  0  0  0  0
  1  3  1  0  0  0  0
  2  6  1  0  0  0  0
  2  8  1  0  0  0  0
  7  2  1  0  0  0  0
  9 13  1  0  0  0  0
  9  6  1  0  0  0  0
  9 12  1  0  0  0  0
 11  6  1  0  0  0  0
 14  9  1  0  0  0  0
M  RAD  5   1   3   4   2   5   2   6   2  10   2
M  END
$$$$
