14
butane_opt
C  -3.926849   0.320243  -0.150050
C  -2.747479  -0.739381   0.162462
H  -4.841230  -0.098747  -0.184219
H  -4.223470   1.216827  -1.173047
H  -4.286843   0.908079   0.695524
C  -1.338986   0.143004   0.249572
H  -2.754722  -1.391905  -0.610463
H  -2.741820  -1.049898   0.917621
C  -0.147970  -0.632122  -0.105555
H  -1.286014   0.904446   1.206008
H  -1.431071   0.635337  -0.576597
H   0.456069  -1.606799   0.998406
H   0.743022  -0.058954  -0.850817
H  -0.735331  -1.018362  -0.867735
