14
butane_opt
C  -3.978182   0.328710  -0.062539
C  -2.728573  -0.765278   0.133351
H  -4.698641  -0.070253   0.426326
H  -4.163718   1.337708  -1.267156
H  -3.870072   0.776460   0.718708
C  -1.391564   0.173393   0.027183
H  -2.815681  -1.099402  -0.593420
H  -2.786379  -1.314633   1.065111
C  -0.116605  -0.671538  -0.064017
H  -1.064107   1.076523   1.006510
H  -1.438168   0.476364  -0.702268
H  -0.473880  -0.887780   0.659776
H   0.822571   0.083337   0.759600
H   0.013233  -1.620108  -1.082972
