butane_opt
 OpenBabel08242015393D

 14 11  0  0  0  0  0  0  0  0999 V2000
   -3.9144    0.3258    0.1520 C   0  0  0  0  0  0  0  0  0  0  0  0
   -2.6983   -0.6403   -0.0349 C   0  0  0  0  0  0  0  0  0  0  0  0
   -4.6585   -0.2536   -0.4235 H   0  0  0  0  0  0  0  0  0  0  0  0
   -3.5607    0.2395   -0.3953 H   0  0  0  0  0  0  0  0  0  0  0  0
   -4.2201    1.5506    1.3276 H   0  0  0  0  0  0  0  0  0  0  0  0
   -1.3821    0.0545   -0.1825 C   0  0  0  0  0  0  0  0  0  0  0  0
   -2.9255   -1.1646   -0.8555 H   0  0  0  0  0  0  0  0  0  0  0  0
   -2.4441   -1.1368    0.6673 H   0  0  0  0  0  0  0  0  0  0  0  0
   -0.1923   -0.6342    0.1489 C   0  0  0  0  0  0  0  0  0  0  0  0
   -1.6642    0.6809    0.6887 H   0  0  0  0  0  0  0  0  0  0  0  0
   -1.3972    0.7566   -1.2295 H   0  0  0  0  0  0  0  0  0  0  0  0
   -0.5795   -1.4776    1.2672 H   0  0  0  0  0  0  0  0  0  0  0  0
    0.8166    0.0501    0.0291 H   0  0  0  0  0  0  0  0  0  0  0  0
   -0.1999   -0.9678   -0.5517 H   0  0  0  0  0  0  0  0  0  0  0  0
  2  8  1  0  0  0  0
  3  1  1  0  0  0  0
  4  1  1  0  0  0  0
  6  2  1  0  0  0  0
  6  9  1  0  0  0  0
  6 10  1  0  0  0  0
  7  2  1  0  0  0  0
  9 12  1  0  0  0  0
 11  6  1  0  0  0  0
 13  9  1  0  0  0  0
 14  9  1  0  0  0  0
M  RAD  3   1   3   2   2   5   2
M  END
$$$$
