butane_opt
 OpenBabel08242015393D

 14 10  0  0  0  0  0  0  0  0999 V2000
   -3.9462    0.2120    0.1251 C   0  0  0  0  0  0  0  0  0  0  0  0
   -2.7363   -0.5623   -0.0678 C   0  0  0  0  0  0  0  0  0  0  0  0
   -4.8525   -0.5464   -0.2648 H   0  0  0  0  0  0  0  0  0  0  0  0
   -4.0483    0.5544   -0.6376 H   0  0  0  0  0  0  0  0  0  0  0  0
   -4.1060    1.0646    1.0779 H   0  0  0  0  0  0  0  0  0  0  0  0
   -1.4001    0.3016    0.0010 C   0  0  0  0  0  0  0  0  0  0  0  0
   -2.8485   -1.5530   -1.2753 H   0  0  0  0  0  0  0  0  0  0  0  0
   -2.7440   -0.8910    0.4977 H   0  0  0  0  0  0  0  0  0  0  0  0
   -0.1198   -0.7722    0.0996 C   0  0  0  0  0  0  0  0  0  0  0  0
   -1.2137    0.8081    0.6781 H   0  0  0  0  0  0  0  0  0  0  0  0
   -1.3501    1.0547   -0.9512 H   0  0  0  0  0  0  0  0  0  0  0  0
    0.1926   -2.0706    1.4292 H   0  0  0  0  0  0  0  0  0  0  0  0
    0.5689   -0.4003   -0.7377 H   0  0  0  0  0  0  0  0  0  0  0  0
   -0.1141   -0.6663   -0.1651 H   0  0  0  0  0  0  0  0  0  0  0  0
  1  5  1  0  0  0  0
  2  6  1  0  0  0  0
  2  1  1  0  0  0  0
  2  8  1  0  0  0  0
  3  1  1  0  0  0  0
  4  1  1  0  0  0  0
  6  9  1  0  0  0  0
  6 10  1  0  0  0  0
 11  6  1  0  0  0  0
 13  9  1  0  0  0  0
M  RAD  5   2   2   7   2   9   3  12   2  14   2
M  END
$$$$
