butane_opt
 OpenBabel08242015393D

 14 12  0  0  0  0  0  0  0  0999 V2000
   -3.8961    0.2218   -0.1615 C   0  0  0  0  0  0  0  0  0  0  0  0
   -2.7378   -0.4945    0.1182 C   0  0  0  0  0  0  0  0  0  0  0  0
   -4.8915   -0.6367   -0.1484 H   0  0  0  0  0  0  0  0  0  0  0  0
   -3.8058    0.9757   -1.0824 H   0  0  0  0  0  0  0  0  0  0  0  0
   -3.6320    0.7931    0.6987 H   0  0  0  0  0  0  0  0  0  0  0  0
   -1.4454    0.2144    0.2826 C   0  0  0  0  0  0  0  0  0  0  0  0
   -2.5426   -1.0369   -0.7068 H   0  0  0  0  0  0  0  0  0  0  0  0
   -2.8454   -1.4560    1.2472 H   0  0  0  0  0  0  0  0  0  0  0  0
   -0.2074   -0.7425   -0.1425 C   0  0  0  0  0  0  0  0  0  0  0  0
   -1.0887    1.0013    1.3336 H   0  0  0  0  0  0  0  0  0  0  0  0
   -1.5423    0.5459   -0.4219 H   0  0  0  0  0  0  0  0  0  0  0  0
    0.3956   -1.8307    1.0291 H   0  0  0  0  0  0  0  0  0  0  0  0
    0.7576   -0.1393   -0.8593 H   0  0  0  0  0  0  0  0  0  0  0  0
   -0.3936   -1.0450   -0.7937 H   0  0  0  0  0  0  0  0  0  0  0  0
  1  3  1  0  0  0  0
  1  2  1  0  0  0  0
  1  5  1  0  0  0  0
  2  6  1  0  0  0  0
  2  8  1  0  0  0  0
  4  1  1  0  0  0  0
  6 10  1  0  0  0  0
  7  2  1  0  0  0  0
  9  6  1  0  0  0  0
 11  6  1  0  0  0  0
 13  9  1  0  0  0  0
 14  9  1  0  0  0  0
M  RAD  2   9   2  12   2
M  END
$$$$
