14
butane_opt
C  -3.984030   0.273523   0.170139
C  -2.656291  -0.616399  -0.118929
H  -4.829815  -0.327767  -0.655234
H  -3.859562   0.300443  -0.278564
H  -3.932151   1.660626   1.515551
C  -1.401608   0.094152  -0.172188
H  -2.886309  -0.932943  -0.742221
H  -2.351355  -1.222243   0.924367
C  -0.211941  -0.650671   0.187123
H  -1.430231   0.596807   0.524789
H  -1.054355   0.963472  -1.284774
H  -0.342591  -1.514393   1.188084
H   0.856382   0.006512  -0.011996
H  -0.155917  -1.229254  -0.507773
