butane_opt
 OpenBabel08242015393D

 14 12  0  0  0  0  0  0  0  0999 V2000
   -3.8451    0.3019   -0.1931 C   0  0  0  0  0  0  0  0  0  0  0  0
   -2.6344   -0.6788    0.1774 C   0  0  0  0  0  0  0  0  0  0  0  0
   -4.8511   -0.1812    0.0125 H   0  0  0  0  0  0  0  0  0  0  0  0
   -4.0202    1.2660   -1.2541 H   0  0  0  0  0  0  0  0  0  0  0  0
   -4.1884    0.6887    0.4839 H   0  0  0  0  0  0  0  0  0  0  0  0
   -1.4888    0.1683    0.2957 C   0  0  0  0  0  0  0  0  0  0  0  0
   -2.4858   -1.4701   -0.7410 H   0  0  0  0  0  0  0  0  0  0  0  0
   -2.7837   -1.4836    1.2620 H   0  0  0  0  0  0  0  0  0  0  0  0
   -0.2168   -0.6519   -0.1045 C   0  0  0  0  0  0  0  0  0  0  0  0
   -1.1797    0.8939    1.3557 H   0  0  0  0  0  0  0  0  0  0  0  0
   -1.5278    0.6201   -0.4629 H   0  0  0  0  0  0  0  0  0  0  0  0
    0.2431   -1.2606    0.7619 H   0  0  0  0  0  0  0  0  0  0  0  0
    0.8814    0.1023   -1.0656 H   0  0  0  0  0  0  0  0  0  0  0  0
   -0.8906   -1.2752   -1.0663 H   0  0  0  0  0  0  0  0  0  0  0  0
  1  3  1  0  0  0  0
  1  2  1  0  0  0  0
  1  5  1  0  0  0  0
  2  6  1  0  0  0  0
  2  8  1  0  0  0  0
  4  1  1  0  0  0  0
  6 10  1  0  0  0  0
  7  2  1  0  0  0  0
  9  6  1  0  0  0  0
  9 12  1  0  0  0  0
 11  6  1  0  0  0  0
 14  9  1  0  0  0  0
M  RAD  2   9   2  13   2
M  END
$$$$
