14
butane_opt
C  -3.894381   0.305102  -0.100220
C  -2.660826  -0.666043   0.229013
H  -4.900462  -0.314025   0.182608
H  -3.818266   1.187568  -1.134225
H  -3.948016   0.769492   0.576707
C  -1.450255   0.112651   0.039280
H  -2.635956  -1.133709  -0.471392
H  -2.848503  -1.356434   1.189108
C  -0.177780  -0.654651  -0.059351
H  -1.546735   0.855122   1.006101
H  -1.217990   0.994324  -0.948345
H  -0.373194  -0.484069   0.258737
H   0.826100   0.059166   0.827966
H  -0.375812  -2.247977  -1.456881
