butane_opt
 OpenBabel08242015393D

 14 13  0  0  0  0  0  0  0  0999 V2000
   -3.8737    0.1802    0.1737 C   0  0  0  0  0  0  0  0  0  0  0  0
   -2.7031   -0.5047   -0.0297 C   0  0  0  0  0  0  0  0  0  0  0  0
   -4.8351   -0.5541   -0.4726 H   0  0  0  0  0  0  0  0  0  0  0  0
   -3.6060    0.4951   -0.5967 H   0  0  0  0  0  0  0  0  0  0  0  0
   -4.1938    1.1858    1.2327 H   0  0  0  0  0  0  0  0  0  0  0  0
   -1.4611    0.2057   -0.1775 C   0  0  0  0  0  0  0  0  0  0  0  0
   -2.7808   -1.2542   -0.9751 H   0  0  0  0  0  0  0  0  0  0  0  0
   -2.6435   -1.0510    0.8341 H   0  0  0  0  0  0  0  0  0  0  0  0
   -0.1331   -0.7180    0.1177 C   0  0  0  0  0  0  0  0  0  0  0  0
   -1.6754    0.8238    0.7771 H   0  0  0  0  0  0  0  0  0  0  0  0
   -1.5207    1.0992   -1.2088 H   0  0  0  0  0  0  0  0  0  0  0  0
   -0.2186   -1.6254    1.1922 H   0  0  0  0  0  0  0  0  0  0  0  0
    0.6675   -0.1854    0.3239 H   0  0  0  0  0  0  0  0  0  0  0  0
   -0.1241   -1.4093   -0.6146 H   0  0  0  0  0  0  0  0  0  0  0  0
  1  5  1  0  0  0  0
  2  1  1  0  0  0  0
  2  8  1  0  0  0  0
  3  1  1  0  0  0  0
  4  1  1  0  0  0  0
  6  2  1  0  0  0  0
  6  9  1  0  0  0  0
  6 10  1  0  0  0  0
  7  2  1  0  0  0  0
  9 13  1  0  0  0  0
  9 12  1  0  0  0  0
 11  6  1  0  0  0  0
 14  9  1  0  0  0  0
M  END
$$$$
