butane_opt
 OpenBabel08242015393D

 14 11  0  0  0  0  0  0  0  0999 V2000
   -3.9118    0.3317    0.0597 C   0  0  0  0  0  0  0  0  0  0  0  0
   -2.7257   -0.6649   -0.0015 C   0  0  0  0  0  0  0  0  0  0  0  0
   -4.8580   -0.2898   -0.1136 H   0  0  0  0  0  0  0  0  0  0  0  0
   -4.0649    0.2225   -0.3908 H   0  0  0  0  0  0  0  0  0  0  0  0
   -4.1615    1.5834    1.4191 H   0  0  0  0  0  0  0  0  0  0  0  0
   -1.3803    0.1293   -0.1533 C   0  0  0  0  0  0  0  0  0  0  0  0
   -2.7179   -1.2808   -0.9171 H   0  0  0  0  0  0  0  0  0  0  0  0
   -2.4088   -1.4913    0.9830 H   0  0  0  0  0  0  0  0  0  0  0  0
   -0.2240   -0.6239    0.1395 C   0  0  0  0  0  0  0  0  0  0  0  0
   -1.2976    0.5908    0.5870 H   0  0  0  0  0  0  0  0  0  0  0  0
   -1.1502    0.9935   -1.2380 H   0  0  0  0  0  0  0  0  0  0  0  0
   -0.1904   -1.3141    1.1927 H   0  0  0  0  0  0  0  0  0  0  0  0
    0.6683    0.0268    0.2909 H   0  0  0  0  0  0  0  0  0  0  0  0
    0.0361   -1.5954   -0.8401 H   0  0  0  0  0  0  0  0  0  0  0  0
  2  1  1  0  0  0  0
  2  8  1  0  0  0  0
  3  1  1  0  0  0  0
  6  2  1  0  0  0  0
  6  9  1  0  0  0  0
  6 10  1  0  0  0  0
  7  2  1  0  0  0  0
  9 13  1  0  0  0  0
  9 12  1  0  0  0  0
 11  6  1  0  0  0  0
 14  9  1  0  0  0  0
M  RAD  3   1   3   4   2   5   2
M  END
$$$$
