14
butane_opt
C  -3.945708   0.253934   0.020207
C  -2.704896  -0.610665   0.055381
H  -4.856366  -0.348608  -0.104826
H  -3.884088   0.807459  -0.833638
H  -4.033283   1.031925   0.920149
C  -1.408994   0.196189   0.004323
H  -2.725940  -1.305301  -0.814411
H  -2.682323  -1.259216   0.929095
C  -0.158699  -0.698668   0.030766
H  -1.404383   0.876168   0.847937
H  -1.381314   0.854489  -0.915512
H  -0.108221  -1.346752   0.951708
H   0.738389  -0.111164  -0.038689
H  -0.068580  -1.364847  -0.825309
