butane_opt
 OpenBabel08242015393D

 14 13  0  0  0  0  0  0  0  0999 V2000
   -3.9404    0.2780   -0.0000 C   0  0  0  0  0  0  0  0  0  0  0  0
   -2.6892   -0.6219    0.0514 C   0  0  0  0  0  0  0  0  0  0  0  0
   -4.8064   -0.3022   -0.0197 H   0  0  0  0  0  0  0  0  0  0  0  0
   -3.9402    0.8960   -0.8915 H   0  0  0  0  0  0  0  0  0  0  0  0
   -4.0084    0.8956    0.8305 H   0  0  0  0  0  0  0  0  0  0  0  0
   -1.4111    0.1655    0.0416 C   0  0  0  0  0  0  0  0  0  0  0  0
   -2.6860   -1.2923   -0.7770 H   0  0  0  0  0  0  0  0  0  0  0  0
   -2.7338   -1.2577    0.9393 H   0  0  0  0  0  0  0  0  0  0  0  0
   -0.1727   -0.6848    0.0070 C   0  0  0  0  0  0  0  0  0  0  0  0
   -1.3507    0.8964    0.9304 H   0  0  0  0  0  0  0  0  0  0  0  0
   -1.4255    0.7175   -0.8121 H   0  0  0  0  0  0  0  0  0  0  0  0
   -0.0820   -1.3711    0.9418 H   0  0  0  0  0  0  0  0  0  0  0  0
    0.7899   -0.0253   -0.1104 H   0  0  0  0  0  0  0  0  0  0  0  0
   -0.2350   -1.2504   -0.7810 H   0  0  0  0  0  0  0  0  0  0  0  0
  1  2  1  0  0  0  0
  1  5  1  0  0  0  0
  2  8  1  0  0  0  0
  3  1  1  0  0  0  0
  4  1  1  0  0  0  0
  6  2  1  0  0  0  0
  6 10  1  0  0  0  0
  7  2  1  0  0  0  0
  9  6  1  0  0  0  0
  9 12  1  0  0  0  0
 11  6  1  0  0  0  0
 13  9  1  0  0  0  0
 14  9  1  0  0  0  0
M  END
$$$$
