14
butane_opt
C  -4.003908   0.324033  -0.198294
C  -2.677362  -0.674189   0.271496
H  -4.893137  -0.351757  -0.640222
H  -3.997850   0.614408  -0.939776
H  -4.487033   1.333458   0.943129
C  -1.396977   0.121390   0.167890
H  -2.574780  -0.926663  -0.364419
H  -3.032864  -1.649720   1.448124
C  -0.076831  -0.629410  -0.118487
H  -1.109178   0.806544   0.988782
H  -1.720959   0.516657  -0.508224
H   0.039042  -0.976405   0.687560
H   0.924674   0.032526  -0.472952
H  -0.313060  -1.561302  -1.167012
