butane_opt
 OpenBabel08242015393D

 14 12  0  0  0  0  0  0  0  0999 V2000
   -3.8616    0.2279   -0.2092 C   0  0  0  0  0  0  0  0  0  0  0  0
   -2.6920   -0.5405    0.2287 C   0  0  0  0  0  0  0  0  0  0  0  0
   -4.9233   -0.5261   -0.0627 H   0  0  0  0  0  0  0  0  0  0  0  0
   -3.7404    0.8414   -1.3015 H   0  0  0  0  0  0  0  0  0  0  0  0
   -4.1272    0.5787    0.4967 H   0  0  0  0  0  0  0  0  0  0  0  0
   -1.4196    0.2382    0.3429 C   0  0  0  0  0  0  0  0  0  0  0  0
   -2.7154   -1.2289   -0.6028 H   0  0  0  0  0  0  0  0  0  0  0  0
   -2.9422   -0.9905    1.0464 H   0  0  0  0  0  0  0  0  0  0  0  0
   -0.1994   -0.7546   -0.2104 C   0  0  0  0  0  0  0  0  0  0  0  0
   -1.1300    1.0392    1.2110 H   0  0  0  0  0  0  0  0  0  0  0  0
   -1.6585    0.7563   -0.3961 H   0  0  0  0  0  0  0  0  0  0  0  0
    0.4045   -1.7259    0.8094 H   0  0  0  0  0  0  0  0  0  0  0  0
    0.4633   -0.3502   -0.6978 H   0  0  0  0  0  0  0  0  0  0  0  0
   -0.5218   -0.9542   -0.8328 H   0  0  0  0  0  0  0  0  0  0  0  0
  1  3  1  0  0  0  0
  1  2  1  0  0  0  0
  1  5  1  0  0  0  0
  2  6  1  0  0  0  0
  2  8  1  0  0  0  0
  4  1  1  0  0  0  0
  6 10  1  0  0  0  0
  7  2  1  0  0  0  0
  9  6  1  0  0  0  0
 11  6  1  0  0  0  0
 13  9  1  0  0  0  0
 14  9  1  0  0  0  0
M  RAD  2   9   2  12   2
M  END
$$$$
