butane_opt
 OpenBabel08242015393D

 14 13  0  0  0  0  0  0  0  0999 V2000
   -4.0119    0.3282   -0.1058 C   0  0  0  0  0  0  0  0  0  0  0  0
   -2.6464   -0.6413    0.2535 C   0  0  0  0  0  0  0  0  0  0  0  0
   -4.8180   -0.2124   -0.7239 H   0  0  0  0  0  0  0  0  0  0  0  0
   -3.6572    0.4847   -0.6625 H   0  0  0  0  0  0  0  0  0  0  0  0
   -4.3807    1.2759    0.8565 H   0  0  0  0  0  0  0  0  0  0  0  0
   -1.3769    0.0612    0.1093 C   0  0  0  0  0  0  0  0  0  0  0  0
   -2.3937   -1.4225   -0.6833 H   0  0  0  0  0  0  0  0  0  0  0  0
   -2.6615   -1.1977    1.1416 H   0  0  0  0  0  0  0  0  0  0  0  0
   -0.1938   -0.6082   -0.0680 C   0  0  0  0  0  0  0  0  0  0  0  0
   -1.2116    0.6583    0.7713 H   0  0  0  0  0  0  0  0  0  0  0  0
   -1.3232    0.7438   -0.8913 H   0  0  0  0  0  0  0  0  0  0  0  0
   -0.1903   -1.2567    0.7966 H   0  0  0  0  0  0  0  0  0  0  0  0
    0.7265    0.0711   -0.3784 H   0  0  0  0  0  0  0  0  0  0  0  0
   -0.3874   -1.3046   -1.0202 H   0  0  0  0  0  0  0  0  0  0  0  0
  1  2  1  0  0  0  0
  1  5  1  0  0  0  0
  2  8  1  0  0  0  0
  3  1  1  0  0  0  0
  4  1  1  0  0  0  0
  6  2  1  0  0  0  0
  6 10  1  0  0  0  0
  7  2  1  0  0  0  0
  9  6  1  0  0  0  0
  9 12  1  0  0  0  0
 11  6  1  0  0  0  0
 13  9  1  0  0  0  0
 14  9  1  0  0  0  0
M  END
$$$$
