14
butane_opt
C  -3.889702   0.218942  -0.162368
C  -2.654473  -0.613252   0.179771
H  -4.672185  -0.265169   0.734647
H  -4.133606   1.404050  -1.488238
H  -3.620328   0.316746   0.224330
C  -1.437303   0.228663   0.243263
H  -2.575334  -1.304187  -0.605094
H  -3.030790  -1.049719   0.859717
C  -0.183451  -0.733808  -0.105759
H  -1.496202   1.018649   1.197778
H  -1.671582   0.899987  -0.578431
H  -0.076137  -0.926143   0.491393
H   0.588378  -0.131541  -0.169116
H  -0.354704  -1.639631  -1.170211
