butane_opt
 OpenBabel08242015393D

 14 11  0  0  0  0  0  0  0  0999 V2000
   -3.8897    0.2189   -0.1624 C   0  0  0  0  0  1  0  0  0  0  0  0
   -2.6545   -0.6133    0.1798 C   0  0  0  0  0  0  0  0  0  0  0  0
   -4.6722   -0.2652    0.7346 H   0  0  0  0  0  0  0  0  0  0  0  0
   -4.1336    1.4041   -1.4882 H   0  0  0  0  0  0  0  0  0  0  0  0
   -3.6203    0.3167    0.2243 H   0  0  0  0  0  0  0  0  0  0  0  0
   -1.4373    0.2287    0.2433 C   0  0  0  0  0  0  0  0  0  0  0  0
   -2.5753   -1.3042   -0.6051 H   0  0  0  0  0  0  0  0  0  0  0  0
   -3.0308   -1.0497    0.8597 H   0  0  0  0  0  0  0  0  0  0  0  0
   -0.1835   -0.7338   -0.1058 C   0  0  0  0  0  0  0  0  0  0  0  0
   -1.4962    1.0186    1.1978 H   0  0  0  0  0  0  0  0  0  0  0  0
   -1.6716    0.9000   -0.5784 H   0  0  0  0  0  0  0  0  0  0  0  0
   -0.0761   -0.9261    0.4914 H   0  0  0  0  0  0  0  0  0  0  0  0
    0.5884   -0.1315   -0.1691 H   0  0  0  0  0  0  0  0  0  0  0  0
   -0.3547   -1.6396   -1.1702 H   0  0  0  0  0  0  0  0  0  0  0  0
  1  3  1  0  0  0  0
  2  5  1  0  0  0  0
  2  6  1  0  0  0  0
  2  8  1  0  0  0  0
  6 10  1  0  0  0  0
  7  2  1  0  0  0  0
  9  6  1  0  0  0  0
  9 12  1  0  0  0  0
 11  6  1  0  0  0  0
 13  9  1  0  0  0  0
 14  9  1  0  0  0  0
M  RAD  1   4   2
M  END
$$$$
