butane_opt
 OpenBabel08242015393D

 14  9  0  0  0  0  0  0  0  0999 V2000
   -3.8791    0.3142    0.0087 C   0  0  0  0  0  0  0  0  0  0  0  0
   -2.6449   -0.6753    0.1513 C   0  0  0  0  0  0  0  0  0  0  0  0
   -4.7066   -0.2754   -0.1465 H   0  0  0  0  0  0  0  0  0  0  0  0
   -3.9969    1.2100   -1.2137 H   0  0  0  0  0  0  0  0  0  0  0  0
   -4.2428    0.7149    0.6714 H   0  0  0  0  0  0  0  0  0  0  0  0
   -1.4331    0.0968   -0.0137 C   0  0  0  0  0  0  0  0  0  0  0  0
   -2.7588   -1.2228   -0.5734 H   0  0  0  0  0  0  0  0  0  0  0  0
   -2.5948   -1.4798    1.2095 H   0  0  0  0  0  0  0  0  0  0  0  0
   -0.2178   -0.6137   -0.0308 C   0  0  0  0  0  1  0  0  0  0  0  0
   -1.4960    0.9112    0.9913 H   0  0  0  0  0  0  0  0  0  0  0  0
   -1.4940    0.6471   -0.9574 H   0  0  0  0  0  0  0  0  0  0  0  0
   -0.4778   -0.5972    0.4491 H   0  0  0  0  0  0  0  0  0  0  0  0
    0.7069   -0.0342    0.7923 H   0  0  0  0  0  0  0  0  0  0  0  0
    0.1090   -1.7898   -1.2778 H   0  0  0  0  0  0  0  0  0  0  0  0
  1  2  1  0  0  0  0
  1  5  1  0  0  0  0
  2  8  1  0  0  0  0
  3  1  1  0  0  0  0
  6 12  1  0  0  0  0
  6 10  1  0  0  0  0
  7  2  1  0  0  0  0
  9 13  1  0  0  0  0
 11  6  1  0  0  0  0
M  RAD  5   1   2   2   2   4   2   6   2  14   2
M  END
$$$$
