14
butane_opt
C  -3.845131   0.301905  -0.193129
C  -2.634383  -0.678762   0.177442
H  -4.851127  -0.181165   0.012511
H  -4.020186   1.266041  -1.254131
H  -4.188379   0.688714   0.483919
C  -1.488768   0.168322   0.295749
H  -2.485793  -1.470122  -0.740990
H  -2.783726  -1.483606   1.261989
C  -0.216840  -0.651923  -0.104504
H  -1.179744   0.893872   1.355722
H  -1.527776   0.620093  -0.462913
H   0.243065  -1.260644   0.761879
H   0.881360   0.102326  -1.065590
H  -0.890560  -1.275205  -1.066338
