butane_opt
 OpenBabel08242015393D

 14 12  0  0  0  0  0  0  0  0999 V2000
   -3.9128    0.2052   -0.0962 C   0  0  0  0  0  0  0  0  0  0  0  0
   -2.7001   -0.5364    0.0775 C   0  0  0  0  0  0  0  0  0  0  0  0
   -4.8915   -0.3867    0.0226 H   0  0  0  0  0  0  0  0  0  0  0  0
   -3.9018    1.0316   -1.1155 H   0  0  0  0  0  0  0  0  0  0  0  0
   -3.8354    0.8280    0.5332 H   0  0  0  0  0  0  0  0  0  0  0  0
   -1.4209    0.1915    0.2038 C   0  0  0  0  0  0  0  0  0  0  0  0
   -2.6721   -0.9552   -0.6439 H   0  0  0  0  0  0  0  0  0  0  0  0
   -2.7351   -1.4608    1.3297 H   0  0  0  0  0  0  0  0  0  0  0  0
   -0.1794   -0.7343   -0.0735 C   0  0  0  0  0  0  0  0  0  0  0  0
   -1.3233    1.1348    1.2203 H   0  0  0  0  0  0  0  0  0  0  0  0
   -1.2712    0.6374   -0.5567 H   0  0  0  0  0  0  0  0  0  0  0  0
    0.0491   -1.3555    0.7393 H   0  0  0  0  0  0  0  0  0  0  0  0
    0.6080   -0.2435   -0.6077 H   0  0  0  0  0  0  0  0  0  0  0  0
   -0.4312   -1.2533   -0.8704 H   0  0  0  0  0  0  0  0  0  0  0  0
  1  3  1  0  0  0  0
  1  2  1  0  0  0  0
  1  5  1  0  0  0  0
  2  6  1  0  0  0  0
  4  1  1  0  0  0  0
  6 10  1  0  0  0  0
  7  2  1  0  0  0  0
  9  6  1  0  0  0  0
  9 12  1  0  0  0  0
 11  6  1  0  0  0  0
 13  9  1  0  0  0  0
 14  9  1  0  0  0  0
M  RAD  2   2   2   8   2
M  END
$$$$
