14
butane_opt
C  -3.895487   0.314358  -0.091686
C  -2.612450  -0.682297   0.204873
H  -4.664201  -0.144613   0.068323
H  -3.879676   1.120063  -1.105849
H  -4.067518   0.514792   0.421521
C  -1.446126   0.162969   0.085168
H  -2.516059  -1.061917  -0.394454
H  -2.983374  -1.609863   1.325695
C  -0.184871  -0.653202  -0.097958
H  -1.359341   1.054399   1.064598
H  -1.653880   0.435099  -0.742749
H  -0.845920  -0.631854   0.385369
H   0.643126   0.093632   0.520272
H  -0.054128  -1.936199  -1.403799
