butane_opt
 OpenBabel08242015393D

 14 11  0  0  0  0  0  0  0  0999 V2000
   -3.9695    0.1892    0.1546 C   0  0  0  0  0  0  0  0  0  0  0  0
   -2.7135   -0.5908   -0.1202 C   0  0  0  0  0  0  0  0  0  0  0  0
   -4.6794   -0.2644    0.3122 H   0  0  0  0  0  0  0  0  0  0  0  0
   -4.0977    0.4925   -0.5404 H   0  0  0  0  0  0  0  0  0  0  0  0
   -3.7935    1.3417    1.3439 H   0  0  0  0  0  0  0  0  0  0  0  0
   -1.4125    0.2452   -0.2559 C   0  0  0  0  0  0  0  0  0  0  0  0
   -3.1139   -1.1060   -0.8181 H   0  0  0  0  0  0  0  0  0  0  0  0
   -2.5380   -1.3327    0.9019 H   0  0  0  0  0  0  0  0  0  0  0  0
   -0.1029   -0.7106    0.2276 C   0  0  0  0  0  0  0  0  0  0  0  0
   -1.8235    0.8485    0.5966 H   0  0  0  0  0  0  0  0  0  0  0  0
   -1.3232    1.0525   -1.3359 H   0  0  0  0  0  0  0  0  0  0  0  0
   -0.2210   -1.1508    1.0250 H   0  0  0  0  0  0  0  0  0  0  0  0
    0.6284   -0.1406    0.6950 H   0  0  0  0  0  0  0  0  0  0  0  0
    0.2964   -1.8191   -0.8213 H   0  0  0  0  0  0  0  0  0  0  0  0
  1  3  1  0  0  0  0
  2  1  1  0  0  0  0
  2  8  1  0  0  0  0
  4  1  1  0  0  0  0
  6  2  1  0  0  0  0
  6  9  1  0  0  0  0
  6 10  1  0  0  0  0
  7  2  1  0  0  0  0
  9 13  1  0  0  0  0
  9 12  1  0  0  0  0
 11  6  1  0  0  0  0
M  RAD  4   1   2   5   2   9   2  14   2
M  END
$$$$
