butane_opt
 OpenBabel08242015393D

 14  9  0  0  0  0  0  0  0  0999 V2000
   -3.9113    0.2249    0.1138 C   0  0  0  0  0  1  0  0  0  0  0  0
   -2.7675   -0.5428   -0.0420 C   0  0  0  0  0  0  0  0  0  0  0  0
   -4.8281   -0.4652   -0.5317 H   0  0  0  0  0  0  0  0  0  0  0  0
   -3.7060   -0.2107   -0.2117 H   0  0  0  0  0  0  0  0  0  0  0  0
   -4.0837    1.8632    1.5534 H   0  0  0  0  0  0  0  0  0  0  0  0
   -1.3760    0.2577   -0.1434 C   0  0  0  0  0  0  0  0  0  0  0  0
   -2.8329   -1.3055   -0.9175 H   0  0  0  0  0  0  0  0  0  0  0  0
   -2.9282   -1.3761    1.0149 H   0  0  0  0  0  0  0  0  0  0  0  0
   -0.1634   -0.7381    0.1284 C   0  0  0  0  0  0  0  0  0  0  0  0
   -1.5916    0.6860    0.5685 H   0  0  0  0  0  0  0  0  0  0  0  0
   -1.3683    1.1088   -1.3670 H   0  0  0  0  0  0  0  0  0  0  0  0
    0.0576   -1.7882    1.2070 H   0  0  0  0  0  0  0  0  0  0  0  0
    0.5595   -0.3179   -0.0530 H   0  0  0  0  0  0  0  0  0  0  0  0
    0.3016   -1.0785   -0.3429 H   0  0  0  0  0  0  0  0  0  0  0  0
  2  8  1  0  0  0  0
  3  1  1  0  0  0  0
  4  2  1  0  0  0  0
  6  9  1  0  0  0  0
  6 10  1  0  0  0  0
  7  2  1  0  0  0  0
 11  6  1  0  0  0  0
 13  9  1  0  0  0  0
 14  9  1  0  0  0  0
M  RAD  5   2   2   5   2   6   2   9   2  12   2
M  END
$$$$
