14
butane_opt
C  -3.972360   0.211457   0.018871
C  -2.693258  -0.592992  -0.050699
H  -5.061318  -0.406376   0.727443
H  -4.383433   1.603242  -1.405902
H  -3.525574   0.232338   0.463140
C  -1.420760   0.315846   0.134258
H  -3.011513  -1.406659  -0.890765
H  -2.716172  -1.323286   0.852976
C  -0.082556  -0.722231   0.021655
H  -1.457008   0.849391   0.884017
H  -1.244468   0.876966  -0.728161
H   0.111613  -1.232255   0.866758
H   0.575199  -0.425915   0.062655
H  -0.235862  -1.786397  -1.014261
