14
butane_opt
C  -4.058543   0.343091   0.121126
C  -2.721840  -0.665163   0.001905
H  -4.915577  -0.064429  -0.751641
H  -3.749780   0.328791  -0.264693
H  -4.171844   1.607140   1.406855
C  -1.288535   0.075639  -0.109073
H  -2.776586  -1.605824  -1.018749
H  -2.617514  -1.173815   0.759627
C  -0.147421  -0.598206   0.120382
H  -1.317342   0.301763   0.425302
H  -1.379321   0.919565  -1.305513
H  -0.196461  -1.560232   1.255124
H   0.686694  -0.024163  -0.103615
H  -0.064042  -1.028905  -0.478546
