butane_opt
 OpenBabel08242015393D

 14 11  0  0  0  0  0  0  0  0999 V2000
   -3.9511    0.2879    0.0911 C   0  0  0  0  0  0  0  0  0  0  0  0
   -2.6713   -0.6182   -0.0965 C   0  0  0  0  0  0  0  0  0  0  0  0
   -4.7420   -0.2815    0.0174 H   0  0  0  0  0  0  0  0  0  0  0  0
   -3.9904    0.8615   -0.8232 H   0  0  0  0  0  0  0  0  0  0  0  0
   -3.9175    1.2744    1.0080 H   0  0  0  0  0  0  0  0  0  0  0  0
   -1.4078    0.1281    0.0035 C   0  0  0  0  0  0  0  0  0  0  0  0
   -3.0437   -1.4788   -1.0348 H   0  0  0  0  0  0  0  0  0  0  0  0
   -2.6145   -1.3539    0.8175 H   0  0  0  0  0  0  0  0  0  0  0  0
   -0.1697   -0.6431    0.0896 C   0  0  0  0  0  0  0  0  0  0  0  0
   -1.4464    0.8401    0.9176 H   0  0  0  0  0  0  0  0  0  0  0  0
   -1.3696    0.5712   -0.7629 H   0  0  0  0  0  0  0  0  0  0  0  0
   -0.2334   -1.9143    1.3834 H   0  0  0  0  0  0  0  0  0  0  0  0
    0.9300    0.0398   -0.6832 H   0  0  0  0  0  0  0  0  0  0  0  0
   -0.2435   -0.7986   -0.4196 H   0  0  0  0  0  0  0  0  0  0  0  0
  1  5  1  0  0  0  0
  2  6  1  0  0  0  0
  2  1  1  0  0  0  0
  2  8  1  0  0  0  0
  3  1  1  0  0  0  0
  4  1  1  0  0  0  0
  6  9  1  0  0  0  0
  6 10  1  0  0  0  0
  7  2  1  0  0  0  0
 11  6  1  0  0  0  0
 13  9  1  0  0  0  0
M  RAD  3   9   3  12   2  14   2
M  END
$$$$
