14
butane_opt
C  -3.955534   0.321999  -0.088541
C  -2.627026  -0.701276   0.204176
H  -4.791136  -0.295140   0.129941
H  -4.033360   1.347019  -1.311373
H  -3.753674   0.784032   0.788467
C  -1.444727   0.122739   0.045942
H  -2.472606  -1.165276  -0.512856
H  -2.664912  -1.621811   1.249271
C  -0.221632  -0.634953  -0.111168
H  -1.267735   0.931725   0.953866
H  -1.286655   0.646631  -0.665140
H  -0.701759  -0.516164   0.485324
H   0.790558   0.016731   0.874541
H   0.130736  -1.883302  -1.279347
