14
butane_opt
C  -4.038010   0.208615  -0.094252
C  -2.697851  -0.580331   0.051298
H  -4.990075  -0.465803   0.251229
H  -3.874782   1.292280  -1.227742
H  -3.772292   0.428126   0.595907
C  -1.428131   0.280945   0.215476
H  -2.588008  -0.976093  -0.693673
H  -2.760837  -1.311960   1.108079
C  -0.093568  -0.764020  -0.066146
H  -1.224802   1.071910   1.202332
H  -1.431367   0.578331  -0.442108
H   0.252473  -1.283134   0.758427
H   0.780959  -0.356276  -0.619439
H  -0.282698  -1.191368  -0.826654
