butane_opt
 OpenBabel08242015393D

 14 13  0  0  0  0  0  0  0  0999 V2000
   -3.9544    0.2732    0.0263 C   0  0  0  0  0  0  0  0  0  0  0  0
   -2.7019   -0.6256    0.0280 C   0  0  0  0  0  0  0  0  0  0  0  0
   -4.8208   -0.2828   -0.0180 H   0  0  0  0  0  0  0  0  0  0  0  0
   -4.0025    0.8044   -0.8030 H   0  0  0  0  0  0  0  0  0  0  0  0
   -4.0003    1.0034    0.9239 H   0  0  0  0  0  0  0  0  0  0  0  0
   -1.4058    0.1753   -0.0100 C   0  0  0  0  0  0  0  0  0  0  0  0
   -2.7175   -1.2948   -0.8024 H   0  0  0  0  0  0  0  0  0  0  0  0
   -2.6871   -1.3099    0.9435 H   0  0  0  0  0  0  0  0  0  0  0  0
   -0.1579   -0.6824    0.0475 C   0  0  0  0  0  0  0  0  0  0  0  0
   -1.3734    0.8663    0.8451 H   0  0  0  0  0  0  0  0  0  0  0  0
   -1.3543    0.7944   -0.9134 H   0  0  0  0  0  0  0  0  0  0  0  0
   -0.0719   -1.2998    0.9600 H   0  0  0  0  0  0  0  0  0  0  0  0
    0.7817   -0.0910    0.0113 H   0  0  0  0  0  0  0  0  0  0  0  0
   -0.1502   -1.3375   -0.7990 H   0  0  0  0  0  0  0  0  0  0  0  0
  1  2  1  0  0  0  0
  1  5  1  0  0  0  0
  2  8  1  0  0  0  0
  3  1  1  0  0  0  0
  4  1  1  0  0  0  0
  6  2  1  0  0  0  0
  6  9  1  0  0  0  0
  6 10  1  0  0  0  0
  7  2  1  0  0  0  0
  9 12  1  0  0  0  0
 11  6  1  0  0  0  0
 13  9  1  0  0  0  0
 14  9  1  0  0  0  0
M  END
$$$$
