butane_opt
 OpenBabel08242015393D

 14  6  0  0  0  0  0  0  0  0999 V2000
   -3.8997    0.1751    0.1408 C   0  0  0  0  0  1  0  0  0  0  0  0
   -2.7041   -0.5308   -0.0174 C   0  0  0  0  0  1  0  0  0  0  0  0
   -4.7909   -0.3250   -0.4289 H   0  0  0  0  0  0  0  0  0  0  0  0
   -3.5729    0.2562   -0.3242 H   0  0  0  0  0  0  0  0  0  0  0  0
   -3.8553    1.3708    1.2853 H   0  0  0  0  0  0  0  0  0  0  0  0
   -1.3977    0.2352   -0.1330 C   0  0  0  0  0  0  0  0  0  0  0  0
   -2.8045   -1.4781   -1.1531 H   0  0  0  0  0  0  0  0  0  0  0  0
   -2.7297   -0.7277    0.5184 H   0  0  0  0  0  0  0  0  0  0  0  0
   -0.2142   -0.7480    0.1348 C   0  0  0  0  0  0  0  0  0  0  0  0
   -1.6142    0.8509    0.5176 H   0  0  0  0  0  0  0  0  0  0  0  0
   -1.4345    1.1798   -1.1587 H   0  0  0  0  0  0  0  0  0  0  0  0
   -0.2599   -1.8892    1.4614 H   0  0  0  0  0  0  0  0  0  0  0  0
    0.5401   -0.3182   -0.3956 H   0  0  0  0  0  0  0  0  0  0  0  0
    0.0997   -1.0259   -0.2972 H   0  0  0  0  0  0  0  0  0  0  0  0
  3  1  1  0  0  0  0
  4  2  1  0  0  0  0
  6  9  1  0  0  0  0
  6 10  1  0  0  0  0
 11  6  1  0  0  0  0
 13  9  1  0  0  0  0
M  RAD  7   5   2   6   2   7   2   8   2   9   3  12   2  14   2
M  END
$$$$
