butane_opt
 OpenBabel08242015393D

 14 10  0  0  0  0  0  0  0  0999 V2000
   -4.0304    0.3640   -0.0339 C   0  0  0  0  0  0  0  0  0  0  0  0
   -2.7134   -0.6868    0.1602 C   0  0  0  0  0  0  0  0  0  0  0  0
   -4.8448   -0.1986    0.1064 H   0  0  0  0  0  0  0  0  0  0  0  0
   -4.1921    1.1362   -1.0831 H   0  0  0  0  0  0  0  0  0  0  0  0
   -3.9714    0.7273    0.7528 H   0  0  0  0  0  0  0  0  0  0  0  0
   -1.3094    0.0831   -0.0017 C   0  0  0  0  0  0  0  0  0  0  0  0
   -2.5268   -1.4748   -0.7842 H   0  0  0  0  0  0  0  0  0  0  0  0
   -2.8761   -1.3814    1.1637 H   0  0  0  0  0  0  0  0  0  0  0  0
   -0.1769   -0.6082   -0.0163 C   0  0  0  0  0  0  0  0  0  0  0  0
   -1.1712    0.6717    0.7754 H   0  0  0  0  0  0  0  0  0  0  0  0
   -1.4508    0.7607   -0.9567 H   0  0  0  0  0  0  0  0  0  0  0  0
   -0.1677   -0.5492    0.5100 H   0  0  0  0  0  0  0  0  0  0  0  0
    0.7441   -0.0568    0.7295 H   0  0  0  0  0  0  0  0  0  0  0  0
    0.1383   -1.8905   -1.1335 H   0  0  0  0  0  0  0  0  0  0  0  0
  1  3  1  0  0  0  0
  1  2  1  0  0  0  0
  1  5  1  0  0  0  0
  2  8  1  0  0  0  0
  4  1  1  0  0  0  0
  6 10  1  0  0  0  0
  7  2  1  0  0  0  0
  9  6  1  0  0  0  0
  9 13  1  0  0  0  0
 11  6  1  0  0  0  0
M  RAD  5   2   2   6   2   9   3  12   2  14   2
M  END
$$$$
