butane_opt
 OpenBabel08242015393D

 14 12  0  0  0  0  0  0  0  0999 V2000
   -3.8852    0.2113    0.1133 C   0  0  0  0  0  0  0  0  0  0  0  0
   -2.6596   -0.5706   -0.1388 C   0  0  0  0  0  0  0  0  0  0  0  0
   -4.9091   -0.3686    0.8563 H   0  0  0  0  0  0  0  0  0  0  0  0
   -3.9993    1.1757   -0.9217 H   0  0  0  0  0  0  0  0  0  0  0  0
   -3.6817    0.3751    0.6811 H   0  0  0  0  0  0  0  0  0  0  0  0
   -1.4809    0.2709   -0.0772 C   0  0  0  0  0  0  0  0  0  0  0  0
   -2.9583   -1.3189   -0.9511 H   0  0  0  0  0  0  0  0  0  0  0  0
   -2.3508   -1.1948    0.7979 H   0  0  0  0  0  0  0  0  0  0  0  0
   -0.2145   -0.7591    0.1174 C   0  0  0  0  0  0  0  0  0  0  0  0
   -1.4510    1.1155    0.8333 H   0  0  0  0  0  0  0  0  0  0  0  0
   -1.3265    0.6919   -0.7789 H   0  0  0  0  0  0  0  0  0  0  0  0
   -0.2471   -1.2799    0.8984 H   0  0  0  0  0  0  0  0  0  0  0  0
    0.6612   -0.1441    0.3623 H   0  0  0  0  0  0  0  0  0  0  0  0
    0.1478   -1.3591   -0.5699 H   0  0  0  0  0  0  0  0  0  0  0  0
  1  3  1  0  0  0  0
  2  6  1  0  0  0  0
  2  1  1  0  0  0  0
  2  8  1  0  0  0  0
  4  1  1  0  0  0  0
  6  9  1  0  0  0  0
  6 10  1  0  0  0  0
  7  2  1  0  0  0  0
  9 13  1  0  0  0  0
  9 12  1  0  0  0  0
 11  6  1  0  0  0  0
 14  9  1  0  0  0  0
M  RAD  2   1   2   5   2
M  END
$$$$
