14
butane_opt
C  -3.989155   0.338346  -0.157304
C  -2.733906  -0.711569   0.138581
H  -4.589934  -0.116731  -0.099447
H  -3.958465   0.873654  -1.029240
H  -4.165912   0.935179   0.487800
C  -1.382670   0.178244   0.272475
H  -2.427310  -1.143209  -0.494238
H  -3.036385  -1.668969   1.281049
C  -0.138401  -0.648245  -0.139712
H  -0.905912   1.059009   1.325587
H  -1.381227   0.515428  -0.557131
H   0.149956  -1.513181   0.911521
H   0.715811  -0.094553  -0.762670
H  -0.540670  -1.151283  -0.948236
