14
butane_opt
C  -3.948044   0.239304   0.172985
C  -2.754602  -0.618664  -0.121344
H  -5.143460  -0.511728   0.532114
H  -4.251830   0.911903  -0.692280
H  -3.653628   1.046870   1.120443
C  -1.412604   0.300690  -0.207395
H  -2.886492  -1.585859  -1.143971
H  -2.692536  -1.037015   0.765307
C  -0.106302  -0.751806   0.227882
H  -1.216838   0.581079   0.430335
H  -1.153418   1.244899  -1.371460
H  -0.179461  -1.107845   0.907995
H   0.628610  -0.250472   0.744361
H   0.239750  -1.851048  -0.721429
