butane_opt
 OpenBabel08242015393D

 14 13  0  0  0  0  0  0  0  0999 V2000
   -3.9434    0.2750   -0.0090 C   0  0  0  0  0  0  0  0  0  0  0  0
   -2.6962   -0.6294    0.0467 C   0  0  0  0  0  0  0  0  0  0  0  0
   -4.8186   -0.3072    0.0578 H   0  0  0  0  0  0  0  0  0  0  0  0
   -3.9847    0.9089   -0.9052 H   0  0  0  0  0  0  0  0  0  0  0  0
   -3.9660    0.9588    0.8682 H   0  0  0  0  0  0  0  0  0  0  0  0
   -1.4018    0.1693    0.0485 C   0  0  0  0  0  0  0  0  0  0  0  0
   -2.6521   -1.2547   -0.7694 H   0  0  0  0  0  0  0  0  0  0  0  0
   -2.7507   -1.2662    0.9426 H   0  0  0  0  0  0  0  0  0  0  0  0
   -0.1741   -0.6918    0.0052 C   0  0  0  0  0  0  0  0  0  0  0  0
   -1.3682    0.8933    0.9266 H   0  0  0  0  0  0  0  0  0  0  0  0
   -1.3582    0.7871   -0.8070 H   0  0  0  0  0  0  0  0  0  0  0  0
   -0.1168   -1.3634    0.9512 H   0  0  0  0  0  0  0  0  0  0  0  0
    0.8036   -0.0231   -0.1077 H   0  0  0  0  0  0  0  0  0  0  0  0
   -0.2316   -1.2739   -0.8064 H   0  0  0  0  0  0  0  0  0  0  0  0
  1  2  1  0  0  0  0
  1  3  1  0  0  0  0
  1  5  1  0  0  0  0
  2  6  1  0  0  0  0
  2  8  1  0  0  0  0
  4  1  1  0  0  0  0
  6 10  1  0  0  0  0
  7  2  1  0  0  0  0
  9  6  1  0  0  0  0
  9 12  1  0  0  0  0
 11  6  1  0  0  0  0
 13  9  1  0  0  0  0
 14  9  1  0  0  0  0
M  END
$$$$
