14
butane_opt
C  -3.969553   0.184687   0.128889
C  -2.753192  -0.555728  -0.126752
H  -4.853118  -0.313569   0.203191
H  -3.990541   0.547642  -0.554291
H  -4.018896   0.911556   1.012461
C  -1.415325   0.280789  -0.035799
H  -2.667431  -1.495574  -1.256425
H  -2.500273  -0.889586   0.471854
C  -0.093156  -0.724351   0.126661
H  -1.222243   0.820744   0.705248
H  -1.523915   1.075783  -0.959946
H   0.131261  -2.019368   1.630131
H   0.549108  -0.498721  -0.498130
H  -0.100968  -0.884055  -0.312175
