butane_opt
 OpenBabel08242015393D

 14 11  0  0  0  0  0  0  0  0999 V2000
   -3.9650    0.1706   -0.2008 C   0  0  0  0  0  0  0  0  0  0  0  0
   -2.7737   -0.5385    0.3394 C   0  0  0  0  0  0  0  0  0  0  0  0
   -4.8110   -0.2112   -0.7501 H   0  0  0  0  0  0  0  0  0  0  0  0
   -3.5608    0.6913   -1.0801 H   0  0  0  0  0  0  0  0  0  0  0  0
   -4.3162    1.3515    0.9489 H   0  0  0  0  0  0  0  0  0  0  0  0
   -1.3929    0.2364    0.1799 C   0  0  0  0  0  0  0  0  0  0  0  0
   -2.7124   -1.1370   -0.4589 H   0  0  0  0  0  0  0  0  0  0  0  0
   -3.0189   -1.4196    1.4668 H   0  0  0  0  0  0  0  0  0  0  0  0
   -0.0839   -0.7468   -0.1317 C   0  0  0  0  0  0  0  0  0  0  0  0
   -1.4266    0.8848    0.9429 H   0  0  0  0  0  0  0  0  0  0  0  0
   -1.3685    0.9469   -0.6596 H   0  0  0  0  0  0  0  0  0  0  0  0
    0.1751   -1.1201    0.4887 H   0  0  0  0  0  0  0  0  0  0  0  0
    0.8304   -0.1843   -0.3442 H   0  0  0  0  0  0  0  0  0  0  0  0
   -0.2045   -1.7544   -1.3886 H   0  0  0  0  0  0  0  0  0  0  0  0
  1  2  1  0  0  0  0
  2  8  1  0  0  0  0
  3  1  1  0  0  0  0
  4  1  1  0  0  0  0
  6  2  1  0  0  0  0
  6 10  1  0  0  0  0
  7  2  1  0  0  0  0
  9  6  1  0  0  0  0
  9 12  1  0  0  0  0
 11  6  1  0  0  0  0
 13  9  1  0  0  0  0
M  RAD  4   1   2   5   2   9   2  14   2
M  END
$$$$
