butane_opt
 OpenBabel08242015393D

 14 12  0  0  0  0  0  0  0  0999 V2000
   -3.9163    0.3300   -0.0923 C   0  0  0  0  0  0  0  0  0  0  0  0
   -2.6822   -0.6834    0.2672 C   0  0  0  0  0  0  0  0  0  0  0  0
   -4.7300   -0.1045   -0.8275 H   0  0  0  0  0  0  0  0  0  0  0  0
   -3.7485    0.6777   -0.8948 H   0  0  0  0  0  0  0  0  0  0  0  0
   -4.3330    1.2867    0.7721 H   0  0  0  0  0  0  0  0  0  0  0  0
   -1.3730    0.1021    0.0924 C   0  0  0  0  0  0  0  0  0  0  0  0
   -2.4970   -1.3854   -0.5318 H   0  0  0  0  0  0  0  0  0  0  0  0
   -2.9038   -1.4996    1.2106 H   0  0  0  0  0  0  0  0  0  0  0  0
   -0.2606   -0.6166   -0.0636 C   0  0  0  0  0  0  0  0  0  0  0  0
   -1.3246    0.7242    0.9321 H   0  0  0  0  0  0  0  0  0  0  0  0
   -1.2818    0.9305   -0.8593 H   0  0  0  0  0  0  0  0  0  0  0  0
    0.1250   -1.0891    0.7093 H   0  0  0  0  0  0  0  0  0  0  0  0
    0.7552    0.1240   -0.1842 H   0  0  0  0  0  0  0  0  0  0  0  0
   -0.3752   -1.7055   -1.3461 H   0  0  0  0  0  0  0  0  0  0  0  0
  1  2  1  0  0  0  0
  1  5  1  0  0  0  0
  2  8  1  0  0  0  0
  3  1  1  0  0  0  0
  4  1  1  0  0  0  0
  6  2  1  0  0  0  0
  6 10  1  0  0  0  0
  7  2  1  0  0  0  0
  9  6  1  0  0  0  0
  9 12  1  0  0  0  0
 11  6  1  0  0  0  0
 13  9  1  0  0  0  0
M  RAD  2   9   2  14   2
M  END
$$$$
