14
butane_opt
C  -3.951191   0.271493   0.052492
C  -2.693407  -0.627276   0.005906
H  -4.839203  -0.323460   0.070541
H  -4.020656   0.887336  -0.840669
H  -3.980133   0.979781   0.952355
C  -1.406275   0.171916  -0.032238
H  -2.747881  -1.294051  -0.843129
H  -2.718030  -1.235666   0.890111
C  -0.148274  -0.680226   0.067303
H  -1.440820   0.783861   0.791306
H  -1.340888   0.840825  -0.955209
H  -0.177577  -1.249331   0.950847
H   0.759970  -0.091178   0.128653
H  -0.130094  -1.398318  -0.828300
