butane_opt
 OpenBabel08242015393D

 14 13  0  0  0  0  0  0  0  0999 V2000
   -3.9559    0.2699    0.0390 C   0  0  0  0  0  0  0  0  0  0  0  0
   -2.6870   -0.6303    0.0218 C   0  0  0  0  0  0  0  0  0  0  0  0
   -4.8381   -0.2943    0.0527 H   0  0  0  0  0  0  0  0  0  0  0  0
   -4.0311    0.9004   -0.8328 H   0  0  0  0  0  0  0  0  0  0  0  0
   -3.9737    0.9706    0.9291 H   0  0  0  0  0  0  0  0  0  0  0  0
   -1.4017    0.1729   -0.0200 C   0  0  0  0  0  0  0  0  0  0  0  0
   -2.7088   -1.3329   -0.8288 H   0  0  0  0  0  0  0  0  0  0  0  0
   -2.6743   -1.2273    0.8848 H   0  0  0  0  0  0  0  0  0  0  0  0
   -0.1733   -0.6843    0.0589 C   0  0  0  0  0  0  0  0  0  0  0  0
   -1.3921    0.8287    0.7945 H   0  0  0  0  0  0  0  0  0  0  0  0
   -1.2930    0.8519   -0.9582 H   0  0  0  0  0  0  0  0  0  0  0  0
   -0.1339   -1.2563    0.9279 H   0  0  0  0  0  0  0  0  0  0  0  0
    0.7515   -0.0589    0.0988 H   0  0  0  0  0  0  0  0  0  0  0  0
   -0.1203   -1.3912   -0.8292 H   0  0  0  0  0  0  0  0  0  0  0  0
  1  3  1  0  0  0  0
  1  5  1  0  0  0  0
  2  1  1  0  0  0  0
  2  8  1  0  0  0  0
  4  1  1  0  0  0  0
  6  2  1  0  0  0  0
  6  9  1  0  0  0  0
  6 10  1  0  0  0  0
  7  2  1  0  0  0  0
  9 13  1  0  0  0  0
  9 12  1  0  0  0  0
 11  6  1  0  0  0  0
 14  9  1  0  0  0  0
M  END
$$$$
