butane_opt
 OpenBabel08242015393D

 14 13  0  0  0  0  0  0  0  0999 V2000
   -3.8935    0.2830    0.1573 C   0  0  0  0  0  0  0  0  0  0  0  0
   -2.6809   -0.6381   -0.1555 C   0  0  0  0  0  0  0  0  0  0  0  0
   -4.8499   -0.3222    0.6482 H   0  0  0  0  0  0  0  0  0  0  0  0
   -4.2184    1.1556   -0.7962 H   0  0  0  0  0  0  0  0  0  0  0  0
   -3.6955    0.7917    0.9860 H   0  0  0  0  0  0  0  0  0  0  0  0
   -1.4274    0.1389   -0.0964 C   0  0  0  0  0  0  0  0  0  0  0  0
   -2.7656   -1.5977   -1.1137 H   0  0  0  0  0  0  0  0  0  0  0  0
   -2.2601   -0.9621    0.5933 H   0  0  0  0  0  0  0  0  0  0  0  0
   -0.2256   -0.6115    0.1633 C   0  0  0  0  0  0  0  0  0  0  0  0
   -1.4214    0.4463    0.6126 H   0  0  0  0  0  0  0  0  0  0  0  0
   -1.3402    0.9297   -1.1973 H   0  0  0  0  0  0  0  0  0  0  0  0
   -0.5805   -1.3680    1.2505 H   0  0  0  0  0  0  0  0  0  0  0  0
    0.6579   -0.1664    0.3586 H   0  0  0  0  0  0  0  0  0  0  0  0
    0.1631   -1.4351   -0.7656 H   0  0  0  0  0  0  0  0  0  0  0  0
  1  3  1  0  0  0  0
  1  5  1  0  0  0  0
  2  6  1  0  0  0  0
  2  1  1  0  0  0  0
  2  8  1  0  0  0  0
  4  1  1  0  0  0  0
  6  9  1  0  0  0  0
  6 10  1  0  0  0  0
  7  2  1  0  0  0  0
  9 13  1  0  0  0  0
  9 12  1  0  0  0  0
 11  6  1  0  0  0  0
 14  9  1  0  0  0  0
M  END
$$$$
