butane_opt
 OpenBabel08242015393D

 14 12  0  0  0  0  0  0  0  0999 V2000
   -3.9869    0.3054   -0.1684 C   0  0  0  0  0  0  0  0  0  0  0  0
   -2.7367   -0.6824    0.3607 C   0  0  0  0  0  0  0  0  0  0  0  0
   -4.9668   -0.3297   -0.9681 H   0  0  0  0  0  0  0  0  0  0  0  0
   -3.6524    0.7806   -1.0679 H   0  0  0  0  0  0  0  0  0  0  0  0
   -4.7781    1.2868    0.8050 H   0  0  0  0  0  0  0  0  0  0  0  0
   -1.3867    0.1442    0.1957 C   0  0  0  0  0  0  0  0  0  0  0  0
   -2.3923   -1.3199   -0.5200 H   0  0  0  0  0  0  0  0  0  0  0  0
   -2.9355   -1.3618    1.3747 H   0  0  0  0  0  0  0  0  0  0  0  0
   -0.0726   -0.6497   -0.1865 C   0  0  0  0  0  0  0  0  0  0  0  0
   -1.2208    0.7715    1.1182 H   0  0  0  0  0  0  0  0  0  0  0  0
   -1.6201    0.9031   -0.7341 H   0  0  0  0  0  0  0  0  0  0  0  0
   -0.0993   -1.1906    0.4349 H   0  0  0  0  0  0  0  0  0  0  0  0
    0.9881    0.0471   -0.2649 H   0  0  0  0  0  0  0  0  0  0  0  0
   -0.1449   -1.4691   -1.1448 H   0  0  0  0  0  0  0  0  0  0  0  0
  1  2  1  0  0  0  0
  2  8  1  0  0  0  0
  3  1  1  0  0  0  0
  4  1  1  0  0  0  0
  6  2  1  0  0  0  0
  6 10  1  0  0  0  0
  7  2  1  0  0  0  0
  9  6  1  0  0  0  0
  9 12  1  0  0  0  0
 11  6  1  0  0  0  0
 13  9  1  0  0  0  0
 14  9  1  0  0  0  0
M  RAD  2   1   2   5   2
M  END
$$$$
