butane_opt
 OpenBabel08242015393D

 14 13  0  0  0  0  0  0  0  0999 V2000
   -4.0778    0.2979    0.1834 C   0  0  0  0  0  0  0  0  0  0  0  0
   -2.6816   -0.6576   -0.0674 C   0  0  0  0  0  0  0  0  0  0  0  0
   -4.9960   -0.2433    0.1829 H   0  0  0  0  0  0  0  0  0  0  0  0
   -4.0913    0.6871   -0.5677 H   0  0  0  0  0  0  0  0  0  0  0  0
   -3.8948    1.1274    1.3835 H   0  0  0  0  0  0  0  0  0  0  0  0
   -1.3065    0.1570   -0.2483 C   0  0  0  0  0  0  0  0  0  0  0  0
   -2.6660   -1.4711   -1.1588 H   0  0  0  0  0  0  0  0  0  0  0  0
   -2.5734   -1.0368    0.6140 H   0  0  0  0  0  0  0  0  0  0  0  0
   -0.1406   -0.6568    0.2368 C   0  0  0  0  0  0  0  0  0  0  0  0
   -1.5960    0.4116    0.3225 H   0  0  0  0  0  0  0  0  0  0  0  0
   -1.2786    1.0612   -1.3858 H   0  0  0  0  0  0  0  0  0  0  0  0
   -0.5171   -0.9131    0.8907 H   0  0  0  0  0  0  0  0  0  0  0  0
    0.7944   -0.1392    0.6110 H   0  0  0  0  0  0  0  0  0  0  0  0
    0.2653   -1.6322   -0.7082 H   0  0  0  0  0  0  0  0  0  0  0  0
  1  5  1  0  0  0  0
  2  1  1  0  0  0  0
  2  8  1  0  0  0  0
  3  1  1  0  0  0  0
  4  1  1  0  0  0  0
  6  2  1  0  0  0  0
  6  9  1  0  0  0  0
  6 10  1  0  0  0  0
  7  2  1  0  0  0  0
  9 13  1  0  0  0  0
  9 12  1  0  0  0  0
 11  6  1  0  0  0  0
 14  9  1  0  0  0  0
M  END
$$$$
