14
butane_opt
C  -3.939593   0.217691  -0.070039
C  -2.793651  -0.502222   0.062396
H  -4.863003  -0.412572   0.695181
H  -4.160806   1.430921  -1.444897
H  -3.716696   0.226843   0.387651
C  -1.431687   0.218707   0.171976
H  -2.869530  -1.225606  -0.791879
H  -2.937768  -1.389317   1.139757
C  -0.056610  -0.756595  -0.098073
H  -1.347513   1.239820   1.169396
H  -1.329216   0.455690  -0.456466
H  -0.135359  -1.190728   0.733411
H   0.792895  -0.192436  -0.066060
H   0.219202  -1.511668  -0.833284
