butane_opt
 OpenBabel08242015393D

 14 13  0  0  0  0  0  0  0  0999 V2000
   -4.0206    0.3540   -0.1822 C   0  0  0  0  0  0  0  0  0  0  0  0
   -2.7091   -0.7357    0.3028 C   0  0  0  0  0  0  0  0  0  0  0  0
   -4.6964   -0.0352   -0.7069 H   0  0  0  0  0  0  0  0  0  0  0  0
   -3.8537    0.7229   -0.9490 H   0  0  0  0  0  0  0  0  0  0  0  0
   -4.3301    1.1004    0.7268 H   0  0  0  0  0  0  0  0  0  0  0  0
   -1.3491    0.1534    0.2033 C   0  0  0  0  0  0  0  0  0  0  0  0
   -2.4170   -1.0938   -0.3644 H   0  0  0  0  0  0  0  0  0  0  0  0
   -2.9278   -1.6861    1.3962 H   0  0  0  0  0  0  0  0  0  0  0  0
   -0.1527   -0.6043   -0.1945 C   0  0  0  0  0  0  0  0  0  0  0  0
   -1.1038    0.6960    1.0012 H   0  0  0  0  0  0  0  0  0  0  0  0
   -1.1798    0.6595   -0.6081 H   0  0  0  0  0  0  0  0  0  0  0  0
   -0.0437   -1.0204    0.5398 H   0  0  0  0  0  0  0  0  0  0  0  0
    0.6295   -0.1994   -0.0109 H   0  0  0  0  0  0  0  0  0  0  0  0
   -0.3498   -1.6033   -1.1566 H   0  0  0  0  0  0  0  0  0  0  0  0
  1  2  1  0  0  0  0
  1  5  1  0  0  0  0
  2  8  1  0  0  0  0
  3  1  1  0  0  0  0
  4  1  1  0  0  0  0
  6  2  1  0  0  0  0
  6 10  1  0  0  0  0
  7  2  1  0  0  0  0
  9 13  1  0  0  0  0
  9  6  1  0  0  0  0
  9 12  1  0  0  0  0
 11  6  1  0  0  0  0
 14  9  1  0  0  0  0
M  END
$$$$
