butane_opt
 OpenBabel08242015393D

 14 12  0  0  0  0  0  0  0  0999 V2000
   -3.9481    0.2434    0.2018 C   0  0  0  0  0  0  0  0  0  0  0  0
   -2.7678   -0.5210   -0.1521 C   0  0  0  0  0  0  0  0  0  0  0  0
   -5.0886   -0.4894    0.8060 H   0  0  0  0  0  0  0  0  0  0  0  0
   -3.9398    1.0251   -0.7796 H   0  0  0  0  0  0  0  0  0  0  0  0
   -3.6327    0.6030    0.7765 H   0  0  0  0  0  0  0  0  0  0  0  0
   -1.4164    0.2234   -0.1708 C   0  0  0  0  0  0  0  0  0  0  0  0
   -3.0036   -1.8090   -1.4035 H   0  0  0  0  0  0  0  0  0  0  0  0
   -2.4674   -0.9705    0.4835 H   0  0  0  0  0  0  0  0  0  0  0  0
   -0.0924   -0.7423    0.2242 C   0  0  0  0  0  0  0  0  0  0  0  0
   -1.5089    0.8495    0.6144 H   0  0  0  0  0  0  0  0  0  0  0  0
   -1.0327    0.9288   -1.1081 H   0  0  0  0  0  0  0  0  0  0  0  0
   -0.2550   -1.4483    1.1766 H   0  0  0  0  0  0  0  0  0  0  0  0
    0.6257   -0.3330    0.2430 H   0  0  0  0  0  0  0  0  0  0  0  0
    0.0110   -1.2959   -0.6135 H   0  0  0  0  0  0  0  0  0  0  0  0
  1  5  1  0  0  0  0
  1  3  1  0  0  0  0
  2  1  1  0  0  0  0
  2  8  1  0  0  0  0
  4  1  1  0  0  0  0
  6  2  1  0  0  0  0
  6  9  1  0  0  0  0
  6 10  1  0  0  0  0
  9 13  1  0  0  0  0
  9 12  1  0  0  0  0
 11  6  1  0  0  0  0
 14  9  1  0  0  0  0
M  RAD  2   2   2   7   2
M  END
$$$$
