butane_opt
 OpenBabel08242015393D

 14  8  0  0  0  0  0  0  0  0999 V2000
   -3.9530    0.2968   -0.1309 C   0  0  0  0  0  0  0  0  0  0  0  0
   -2.6664   -0.6451    0.2037 C   0  0  0  0  0  0  0  0  0  0  0  0
   -4.6991   -0.2029    0.2582 H   0  0  0  0  0  0  0  0  0  0  0  0
   -4.1623    1.4272   -1.3707 H   0  0  0  0  0  0  0  0  0  0  0  0
   -4.0938    0.6624    0.7386 H   0  0  0  0  0  0  0  0  0  0  0  0
   -1.3860    0.1030    0.0739 C   0  0  0  0  0  0  0  0  0  0  0  0
   -2.6930   -0.8724   -0.3328 H   0  0  0  0  0  0  0  0  0  0  0  0
   -2.7710   -1.5581    1.3071 H   0  0  0  0  0  0  0  0  0  0  0  0
   -0.1666   -0.6595   -0.0964 C   0  0  0  0  0  1  0  0  0  0  0  0
   -1.3493    0.8935    1.1466 H   0  0  0  0  0  0  0  0  0  0  0  0
   -1.1639    0.3867   -0.6806 H   0  0  0  0  0  0  0  0  0  0  0  0
   -0.4548   -0.4388    0.2762 H   0  0  0  0  0  0  0  0  0  0  0  0
    0.8406    0.0654    0.7725 H   0  0  0  0  0  0  0  0  0  0  0  0
   -0.3895   -1.9453   -1.4042 H   0  0  0  0  0  0  0  0  0  0  0  0
  1  2  1  0  0  0  0
  1  3  1  0  0  0  0
  1  5  1  0  0  0  0
  2  8  1  0  0  0  0
  6 12  1  0  0  0  0
  6 10  1  0  0  0  0
  9 13  1  0  0  0  0
 11  6  1  0  0  0  0
M  RAD  6   1   2   2   3   4   2   6   2   7   2  14   2
M  END
$$$$
