14
butane_opt
C  -3.972089   0.315057  -0.142565
C  -2.700115  -0.731025   0.228679
H  -4.841907  -0.185098   0.233174
H  -4.083588   1.274517  -1.309333
H  -4.320996   0.872167   0.631192
C  -1.420033   0.196731   0.079585
H  -2.630814  -1.251902  -0.385521
H  -2.846185  -1.764834   1.507319
C  -0.118361  -0.666760  -0.090083
H  -1.283224   0.990740   0.966733
H  -1.184599   0.698517  -0.625857
H  -0.134401  -0.386407   0.308757
H   0.823563   0.085239   0.619472
H   0.001631  -2.169983  -1.530681
