butane_opt
 OpenBabel08242015393D

 14 11  0  0  0  0  0  0  0  0999 V2000
   -3.9778    0.3310    0.0566 C   0  0  0  0  0  0  0  0  0  0  0  0
   -2.7336   -0.7367   -0.0256 C   0  0  0  0  0  0  0  0  0  0  0  0
   -4.7758   -0.1188    0.0044 H   0  0  0  0  0  0  0  0  0  0  0  0
   -3.9992    0.8674   -0.8800 H   0  0  0  0  0  0  0  0  0  0  0  0
   -4.2707    1.1372    0.8544 H   0  0  0  0  0  0  0  0  0  0  0  0
   -1.3329    0.1871    0.0667 C   0  0  0  0  0  0  0  0  0  0  0  0
   -2.7694   -1.6586   -1.0466 H   0  0  0  0  0  0  0  0  0  0  0  0
   -2.7528   -1.1462    0.6533 H   0  0  0  0  0  0  0  0  0  0  0  0
   -0.1592   -0.6651    0.0506 C   0  0  0  0  0  0  0  0  0  0  0  0
   -1.2954    0.6464    0.8689 H   0  0  0  0  0  0  0  0  0  0  0  0
   -1.5974    0.9125   -0.8184 H   0  0  0  0  0  0  0  0  0  0  0  0
    0.1684   -1.6310    1.1772 H   0  0  0  0  0  0  0  0  0  0  0  0
    0.9053   -0.1000   -0.6302 H   0  0  0  0  0  0  0  0  0  0  0  0
   -0.2455   -0.7045   -0.4363 H   0  0  0  0  0  0  0  0  0  0  0  0
  1  5  1  0  0  0  0
  2  1  1  0  0  0  0
  2  8  1  0  0  0  0
  3  1  1  0  0  0  0
  4  1  1  0  0  0  0
  6 10  1  0  0  0  0
  7  2  1  0  0  0  0
  9  6  1  0  0  0  0
  9 12  1  0  0  0  0
 11  6  1  0  0  0  0
 13  9  1  0  0  0  0
M  RAD  4   2   2   6   2   9   2  14   2
M  END
$$$$
