butane_opt
 OpenBabel08242015393D

 14 11  0  0  0  0  0  0  0  0999 V2000
   -4.0622    0.3463    0.0388 C   0  0  0  0  0  0  0  0  0  0  0  0
   -2.6794   -0.7073   -0.0363 C   0  0  0  0  0  0  0  0  0  0  0  0
   -4.8759   -0.1380    0.7383 H   0  0  0  0  0  0  0  0  0  0  0  0
   -4.4435    1.3918   -1.0792 H   0  0  0  0  0  0  0  0  0  0  0  0
   -3.7916    0.4542    0.5356 H   0  0  0  0  0  0  0  0  0  0  0  0
   -1.2887    0.1807    0.0310 C   0  0  0  0  0  0  0  0  0  0  0  0
   -2.5936   -1.4977   -0.8769 H   0  0  0  0  0  0  0  0  0  0  0  0
   -2.7139   -1.4345    0.8580 H   0  0  0  0  0  0  0  0  0  0  0  0
   -0.2018   -0.6606   -0.0150 C   0  0  0  0  0  0  0  0  0  0  0  0
   -1.3011    0.9785    0.9203 H   0  0  0  0  0  0  0  0  0  0  0  0
   -1.2229    0.4223   -0.6568 H   0  0  0  0  0  0  0  0  0  0  0  0
   -0.2986   -1.1481    0.9862 H   0  0  0  0  0  0  0  0  0  0  0  0
    0.8780   -0.1096    0.3996 H   0  0  0  0  0  0  0  0  0  0  0  0
    0.0887   -1.2226   -0.6502 H   0  0  0  0  0  0  0  0  0  0  0  0
  1  3  1  0  0  0  0
  2  6  1  0  0  0  0
  2  1  1  0  0  0  0
  2  8  1  0  0  0  0
  6 10  1  0  0  0  0
  7  2  1  0  0  0  0
  9  6  1  0  0  0  0
  9 13  1  0  0  0  0
  9 12  1  0  0  0  0
 11  6  1  0  0  0  0
 14  9  1  0  0  0  0
M  RAD  3   1   3   4   2   5   2
M  END
$$$$
