butane_opt
 OpenBabel08242015393D

 14 12  0  0  0  0  0  0  0  0999 V2000
   -4.0093    0.3307   -0.1780 C   0  0  0  0  0  0  0  0  0  0  0  0
   -2.6811   -0.7038    0.2573 C   0  0  0  0  0  0  0  0  0  0  0  0
   -4.8572   -0.2095   -0.4031 H   0  0  0  0  0  0  0  0  0  0  0  0
   -3.7732    0.6379   -0.8673 H   0  0  0  0  0  0  0  0  0  0  0  0
   -4.5732    1.2003    0.7972 H   0  0  0  0  0  0  0  0  0  0  0  0
   -1.3870    0.1802    0.1305 C   0  0  0  0  0  0  0  0  0  0  0  0
   -2.6309   -1.2065   -0.4517 H   0  0  0  0  0  0  0  0  0  0  0  0
   -2.6938   -1.8366    1.5197 H   0  0  0  0  0  0  0  0  0  0  0  0
   -0.1483   -0.6486   -0.1250 C   0  0  0  0  0  0  0  0  0  0  0  0
   -1.1696    0.9913    1.1220 H   0  0  0  0  0  0  0  0  0  0  0  0
   -1.3062    0.5275   -0.6815 H   0  0  0  0  0  0  0  0  0  0  0  0
    0.1911   -0.9021    0.6622 H   0  0  0  0  0  0  0  0  0  0  0  0
    0.6590   -0.1029   -0.1001 H   0  0  0  0  0  0  0  0  0  0  0  0
   -0.1834   -1.4633   -1.1725 H   0  0  0  0  0  0  0  0  0  0  0  0
  1  2  1  0  0  0  0
  1  5  1  0  0  0  0
  3  1  1  0  0  0  0
  4  1  1  0  0  0  0
  6  2  1  0  0  0  0
  6 10  1  0  0  0  0
  7  2  1  0  0  0  0
  9 13  1  0  0  0  0
  9  6  1  0  0  0  0
  9 12  1  0  0  0  0
 11  6  1  0  0  0  0
 14  9  1  0  0  0  0
M  RAD  2   2   2   8   2
M  END
$$$$
