14
butane_opt
C  -3.947117   0.337603   0.117038
C  -2.675438  -0.707194  -0.112713
H  -4.715640  -0.167716   0.810484
H  -4.535466   1.189254  -0.947245
H  -3.532090   0.631660   0.836443
C  -1.433597   0.096405  -0.028465
H  -2.512379  -1.615155  -1.230337
H  -2.514621  -1.079712   0.483662
C  -0.202543  -0.653541   0.126731
H  -1.525234   0.700232   0.667635
H  -1.209717   1.093558  -1.156837
H  -0.275207  -1.132621   1.026369
H   0.979927   0.191504   0.326678
H  -0.128389  -1.112773  -0.614739
