14
butane_opt
C  -3.912776   0.205247  -0.096242
C  -2.700120  -0.536368   0.077465
H  -4.891507  -0.386688   0.022634
H  -3.901828   1.031603  -1.115534
H  -3.835362   0.827962   0.533183
C  -1.420882   0.191478   0.203828
H  -2.672090  -0.955237  -0.643881
H  -2.735119  -1.460804   1.329663
C  -0.179414  -0.734324  -0.073515
H  -1.323283   1.134843   1.220271
H  -1.271153   0.637384  -0.556697
H   0.049112  -1.355495   0.739267
H   0.607969  -0.243483  -0.607687
H  -0.431236  -1.253312  -0.870444
