butane_opt
 OpenBabel08242015393D

 14 10  0  0  0  0  0  0  0  0999 V2000
   -3.9398    0.1817   -0.0867 C   0  0  0  0  0  0  0  0  0  0  0  0
   -2.7585   -0.5039    0.2245 C   0  0  0  0  0  0  0  0  0  0  0  0
   -4.7494   -0.3548   -0.2003 H   0  0  0  0  0  0  0  0  0  0  0  0
   -3.7880    0.8980   -1.1179 H   0  0  0  0  0  0  0  0  0  0  0  0
   -4.0680    0.5598    0.4198 H   0  0  0  0  0  0  0  0  0  0  0  0
   -1.4884    0.2397    0.1199 C   0  0  0  0  0  0  0  0  0  0  0  0
   -2.5682   -0.9641   -0.5175 H   0  0  0  0  0  0  0  0  0  0  0  0
   -3.0998   -1.4542    1.4941 H   0  0  0  0  0  0  0  0  0  0  0  0
   -0.0664   -0.7489   -0.0959 C   0  0  0  0  0  0  0  0  0  0  0  0
   -1.4092    0.9192    0.9271 H   0  0  0  0  0  0  0  0  0  0  0  0
   -1.3596    1.0181   -0.8990 H   0  0  0  0  0  0  0  0  0  0  0  0
    0.0215   -0.6650    0.2302 H   0  0  0  0  0  0  0  0  0  0  0  0
    0.9056   -0.2369    0.5395 H   0  0  0  0  0  0  0  0  0  0  0  0
    0.1308   -2.2397   -1.4720 H   0  0  0  0  0  0  0  0  0  0  0  0
  1  2  1  0  0  0  0
  1  5  1  0  0  0  0
  3  1  1  0  0  0  0
  4  1  1  0  0  0  0
  6  2  1  0  0  0  0
  6 10  1  0  0  0  0
  7  2  1  0  0  0  0
  9  6  1  0  0  0  0
  9 13  1  0  0  0  0
 11  6  1  0  0  0  0
M  RAD  5   2   2   8   2   9   3  12   2  14   2
M  END
$$$$
