14
butane_opt
C  -3.798944   0.198167  -0.156060
C  -2.723040  -0.537163   0.235735
H  -4.775765  -0.544831  -0.359244
H  -3.657856   0.913818  -1.360680
H  -4.264084   0.762570   0.577228
C  -1.430716   0.244851   0.302222
H  -2.664103  -1.220315  -0.696352
H  -3.015771  -1.013488   1.091793
C  -0.212752  -0.771545  -0.182875
H  -1.145461   1.193395   1.257872
H  -1.890227   0.880680  -0.628383
H   0.112985  -1.687195   0.929963
H   0.686496  -0.187505  -0.826102
H  -0.369785  -1.212485  -0.898944
