butane_opt
 OpenBabel08242015393D

 14 13  0  0  0  0  0  0  0  0999 V2000
   -3.9764    0.2143    0.1680 C   0  0  0  0  0  0  0  0  0  0  0  0
   -2.7312   -0.5363   -0.1065 C   0  0  0  0  0  0  0  0  0  0  0  0
   -5.1723   -0.6011    0.3856 H   0  0  0  0  0  0  0  0  0  0  0  0
   -4.2430    0.6008   -0.6353 H   0  0  0  0  0  0  0  0  0  0  0  0
   -3.6437    1.0403    1.1983 H   0  0  0  0  0  0  0  0  0  0  0  0
   -1.4025    0.2546   -0.1934 C   0  0  0  0  0  0  0  0  0  0  0  0
   -2.6627   -1.2497   -0.9992 H   0  0  0  0  0  0  0  0  0  0  0  0
   -2.5574   -1.3044    0.8386 H   0  0  0  0  0  0  0  0  0  0  0  0
   -0.0951   -0.7644    0.1691 C   0  0  0  0  0  0  0  0  0  0  0  0
   -1.6921    0.7972    0.4907 H   0  0  0  0  0  0  0  0  0  0  0  0
   -1.1726    1.1049   -1.4098 H   0  0  0  0  0  0  0  0  0  0  0  0
   -0.4367   -1.0161    0.8682 H   0  0  0  0  0  0  0  0  0  0  0  0
    0.7656   -0.3772    0.9262 H   0  0  0  0  0  0  0  0  0  0  0  0
    0.3323   -1.5341   -0.6620 H   0  0  0  0  0  0  0  0  0  0  0  0
  1  3  1  0  0  0  0
  1  5  1  0  0  0  0
  2  1  1  0  0  0  0
  2  8  1  0  0  0  0
  4  1  1  0  0  0  0
  6  2  1  0  0  0  0
  6  9  1  0  0  0  0
  6 10  1  0  0  0  0
  7  2  1  0  0  0  0
  9 12  1  0  0  0  0
  9 13  1  0  0  0  0
 11  6  1  0  0  0  0
 14  9  1  0  0  0  0
M  END
$$$$
