butane_opt
 OpenBabel08242015393D

 14 12  0  0  0  0  0  0  0  0999 V2000
   -3.9394    0.2170   -0.1308 C   0  0  0  0  0  0  0  0  0  0  0  0
   -2.6412   -0.5819    0.2102 C   0  0  0  0  0  0  0  0  0  0  0  0
   -4.8813   -0.3856   -0.7569 H   0  0  0  0  0  0  0  0  0  0  0  0
   -3.3838    0.4720   -0.7214 H   0  0  0  0  0  0  0  0  0  0  0  0
   -4.1164    1.2214    1.0383 H   0  0  0  0  0  0  0  0  0  0  0  0
   -1.4719    0.2564    0.1599 C   0  0  0  0  0  0  0  0  0  0  0  0
   -2.6291   -0.9823   -0.4615 H   0  0  0  0  0  0  0  0  0  0  0  0
   -2.6280   -1.4066    1.1612 H   0  0  0  0  0  0  0  0  0  0  0  0
   -0.2085   -0.7376   -0.0931 C   0  0  0  0  0  0  0  0  0  0  0  0
   -1.3015    0.6840    0.7981 H   0  0  0  0  0  0  0  0  0  0  0  0
   -1.4108    0.9760   -0.7938 H   0  0  0  0  0  0  0  0  0  0  0  0
    0.1894   -1.3764    0.8323 H   0  0  0  0  0  0  0  0  0  0  0  0
    0.7909   -0.0569   -0.2545 H   0  0  0  0  0  0  0  0  0  0  0  0
   -0.5213   -1.4851   -1.1220 H   0  0  0  0  0  0  0  0  0  0  0  0
  1  2  1  0  0  0  0
  2  8  1  0  0  0  0
  3  1  1  0  0  0  0
  4  1  1  0  0  0  0
  6  2  1  0  0  0  0
  6 10  1  0  0  0  0
  7  2  1  0  0  0  0
  9  6  1  0  0  0  0
  9 12  1  0  0  0  0
 11  6  1  0  0  0  0
 13  9  1  0  0  0  0
 14  9  1  0  0  0  0
M  RAD  2   1   2   5   2
M  END
$$$$
