14
butane_opt
C  -3.953018   0.296758  -0.130909
C  -2.666404  -0.645076   0.203667
H  -4.699140  -0.202868   0.258213
H  -4.162304   1.427165  -1.370701
H  -4.093769   0.662407   0.738554
C  -1.385978   0.103039   0.073865
H  -2.693014  -0.872381  -0.332829
H  -2.770982  -1.558138   1.307058
C  -0.166621  -0.659548  -0.096405
H  -1.349336   0.893533   1.146568
H  -1.163860   0.386736  -0.680586
H  -0.454810  -0.438825   0.276239
H   0.840607   0.065408   0.772495
H  -0.389527  -1.945286  -1.404224
