14
butane_opt
C  -3.952999   0.257204   0.037415
C  -2.695427  -0.614796   0.020168
H  -4.904474  -0.353660   0.051245
H  -3.996136   0.872370  -0.833851
H  -3.928074   0.965245   0.942389
C  -1.406394   0.195964  -0.017416
H  -2.736982  -1.278059  -0.822490
H  -2.709770  -1.233841   0.911646
C  -0.143746  -0.699774   0.044704
H  -1.420795   0.857607   0.824017
H  -1.386148   0.823752  -0.931659
H  -0.239031  -1.303972   0.964874
H   0.751335  -0.132433   0.121175
H  -0.060428  -1.361528  -0.807645
