14
butane_opt
C  -3.920988   0.310618  -0.130061
C  -2.651268  -0.666408   0.260465
H  -4.658840   0.001930  -0.652050
H  -3.458600   0.828714  -0.931880
H  -4.273951   1.165647   0.873297
C  -1.402869   0.128820   0.078746
H  -2.523326  -1.300539  -0.394999
H  -2.900320  -1.600677   1.426662
C  -0.246960  -0.666822  -0.113001
H  -1.132080   1.021930   1.214535
H  -1.450153   0.453129  -0.628163
H  -0.481340  -1.001678   0.552160
H   0.810650   0.125582  -0.195003
H  -0.332917  -1.381483  -1.003958
