butane_opt
 OpenBabel08242015393D

 14  9  0  0  0  0  0  0  0  0999 V2000
   -4.0183    0.2750   -0.0647 C   0  0  0  0  0  0  0  0  0  0  0  0
   -2.6613   -0.7318    0.1747 C   0  0  0  0  0  0  0  0  0  0  0  0
   -4.7128    0.0165    0.4454 H   0  0  0  0  0  0  0  0  0  0  0  0
   -4.0681    1.5124   -1.3306 H   0  0  0  0  0  0  0  0  0  0  0  0
   -4.2769    0.7824    0.5627 H   0  0  0  0  0  0  0  0  0  0  0  0
   -1.3337    0.1715    0.0438 C   0  0  0  0  0  0  0  0  0  0  0  0
   -2.6410   -1.3389   -0.5727 H   0  0  0  0  0  0  0  0  0  0  0  0
   -2.9257   -1.2209    1.1091 H   0  0  0  0  0  0  0  0  0  0  0  0
   -0.1525   -0.6488   -0.0310 C   0  0  0  0  0  1  0  0  0  0  0  0
   -1.4189    0.8045    0.9258 H   0  0  0  0  0  0  0  0  0  0  0  0
   -1.4700    0.6574   -0.8273 H   0  0  0  0  0  0  0  0  0  0  0  0
   -0.3483   -0.5309    0.3720 H   0  0  0  0  0  0  0  0  0  0  0  0
    0.8334   -0.0495    0.6592 H   0  0  0  0  0  0  0  0  0  0  0  0
   -0.0266   -1.8729   -1.4525 H   0  0  0  0  0  0  0  0  0  0  0  0
  1  2  1  0  0  0  0
  1  3  1  0  0  0  0
  1  5  1  0  0  0  0
  2  8  1  0  0  0  0
  6 12  1  0  0  0  0
  6 10  1  0  0  0  0
  7  2  1  0  0  0  0
  9 13  1  0  0  0  0
 11  6  1  0  0  0  0
M  RAD  5   1   2   2   2   4   2   6   2  14   2
M  END
$$$$
