14
butane_opt
C  -3.938349   0.165710  -0.162025
C  -2.765414  -0.562050   0.198166
H  -4.790557  -0.384217   0.545729
H  -3.947708   1.330624  -1.417944
H  -3.878262   0.641876   0.606263
C  -1.439970   0.291838   0.145320
H  -2.746137  -0.989497  -0.401404
H  -2.944719  -1.439835   1.225758
C  -0.061771  -0.739325  -0.104833
H  -1.588353   1.190643   1.101080
H  -1.500745   0.571205  -0.601518
H   0.002779  -0.936842   0.337945
H   0.730810  -0.324438   0.379445
H   0.117811  -1.990315  -1.338644
