14
butane_opt
C  -3.957428   0.271812   0.007396
C  -2.712436  -0.620397   0.060424
H  -4.859057  -0.315425   0.077584
H  -3.946805   0.913662  -0.942474
H  -4.015816   0.888320   0.842253
C  -1.398602   0.179825   0.001318
H  -2.691493  -1.261156  -0.739961
H  -2.692458  -1.288828   0.987273
C  -0.149349  -0.685358   0.023192
H  -1.362440   0.901273   0.871830
H  -1.367011   0.749162  -0.836066
H  -0.174169  -1.216362   0.848486
H   0.766847  -0.092002   0.150654
H  -0.071653  -1.500047  -0.942324
