14
butane_opt
C  -3.965032   0.170557  -0.200787
C  -2.773716  -0.538522   0.339426
H  -4.811014  -0.211168  -0.750054
H  -3.560791   0.691280  -1.080115
H  -4.316205   1.351502   0.948871
C  -1.392915   0.236409   0.179908
H  -2.712382  -1.136963  -0.458914
H  -3.018890  -1.419615   1.466752
C  -0.083900  -0.746780  -0.131713
H  -1.426576   0.884776   0.942885
H  -1.368463   0.946856  -0.659551
H   0.175060  -1.120072   0.488675
H   0.830448  -0.184344  -0.344170
H  -0.204513  -1.754403  -1.388623
