butane_opt
 OpenBabel08242015393D

 14 13  0  0  0  0  0  0  0  0999 V2000
   -3.9468    0.2578    0.0289 C   0  0  0  0  0  0  0  0  0  0  0  0
   -2.7083   -0.6187    0.0240 C   0  0  0  0  0  0  0  0  0  0  0  0
   -4.8727   -0.3394   -0.0397 H   0  0  0  0  0  0  0  0  0  0  0  0
   -3.9390    0.7786   -0.8108 H   0  0  0  0  0  0  0  0  0  0  0  0
   -4.0043    1.0368    0.9814 H   0  0  0  0  0  0  0  0  0  0  0  0
   -1.3944    0.2062   -0.0037 C   0  0  0  0  0  0  0  0  0  0  0  0
   -2.7638   -1.3307   -0.8312 H   0  0  0  0  0  0  0  0  0  0  0  0
   -2.7090   -1.1993    0.8971 H   0  0  0  0  0  0  0  0  0  0  0  0
   -0.1579   -0.7085    0.0557 C   0  0  0  0  0  0  0  0  0  0  0  0
   -1.4056    0.8515    0.8387 H   0  0  0  0  0  0  0  0  0  0  0  0
   -1.4052    0.9039   -0.9612 H   0  0  0  0  0  0  0  0  0  0  0  0
   -0.0364   -1.3967    0.9960 H   0  0  0  0  0  0  0  0  0  0  0  0
    0.7491   -0.0999   -0.0904 H   0  0  0  0  0  0  0  0  0  0  0  0
   -0.1492   -1.3204   -0.7814 H   0  0  0  0  0  0  0  0  0  0  0  0
  1  5  1  0  0  0  0
  2  1  1  0  0  0  0
  2  8  1  0  0  0  0
  3  1  1  0  0  0  0
  4  1  1  0  0  0  0
  6  2  1  0  0  0  0
  6  9  1  0  0  0  0
  6 10  1  0  0  0  0
  7  2  1  0  0  0  0
  9 12  1  0  0  0  0
 11  6  1  0  0  0  0
 13  9  1  0  0  0  0
 14  9  1  0  0  0  0
M  END
$$$$
