butane_opt
 OpenBabel08242015393D

 14 12  0  0  0  0  0  0  0  0999 V2000
   -3.9144    0.2955    0.1833 C   0  0  0  0  0  0  0  0  0  0  0  0
   -2.7005   -0.6058   -0.0912 C   0  0  0  0  0  0  0  0  0  0  0  0
   -4.7765   -0.2347    0.2597 H   0  0  0  0  0  0  0  0  0  0  0  0
   -4.1264    0.6567   -0.5964 H   0  0  0  0  0  0  0  0  0  0  0  0
   -3.8418    1.0255    1.0624 H   0  0  0  0  0  0  0  0  0  0  0  0
   -1.3569    0.1417   -0.1934 C   0  0  0  0  0  0  0  0  0  0  0  0
   -2.9465   -1.5956   -1.1757 H   0  0  0  0  0  0  0  0  0  0  0  0
   -2.4999   -1.1106    0.6731 H   0  0  0  0  0  0  0  0  0  0  0  0
   -0.1894   -0.6982    0.2194 C   0  0  0  0  0  0  0  0  0  0  0  0
   -1.7529    0.6831    0.4827 H   0  0  0  0  0  0  0  0  0  0  0  0
   -1.1617    1.0600   -1.4669 H   0  0  0  0  0  0  0  0  0  0  0  0
   -0.4924   -1.1338    1.0584 H   0  0  0  0  0  0  0  0  0  0  0  0
    0.7789    0.0463    0.4924 H   0  0  0  0  0  0  0  0  0  0  0  0
   -0.2719   -1.4650   -0.7645 H   0  0  0  0  0  0  0  0  0  0  0  0
  1  3  1  0  0  0  0
  1  5  1  0  0  0  0
  2  1  1  0  0  0  0
  2  8  1  0  0  0  0
  4  1  1  0  0  0  0
  6  2  1  0  0  0  0
  6  9  1  0  0  0  0
  6 10  1  0  0  0  0
  7  2  1  0  0  0  0
  9 13  1  0  0  0  0
  9 12  1  0  0  0  0
 14  9  1  0  0  0  0
M  RAD  2   6   2  11   2
M  END
$$$$
