14
butane_opt
C  -3.982774   0.349948   0.174099
C  -2.644290  -0.670637  -0.190055
H  -4.938159  -0.235339   0.553618
H  -4.218250   0.985758  -0.809700
H  -3.341478   0.888289   1.081759
C  -1.359633   0.093532  -0.090595
H  -2.677562  -1.594291  -1.291823
H  -2.577014  -1.083857   0.432361
C  -0.229637  -0.626742   0.214245
H  -1.386708   0.433015   0.435744
H  -1.445362   0.848920  -0.975078
H  -0.166160  -1.517430   1.310897
H   0.692400   0.140413  -0.035758
H  -0.424609  -1.040911  -0.499850
