14
butane_opt
C  -4.024367   0.329746  -0.138290
C  -2.662123  -0.638806   0.198519
H  -4.816820  -0.197789   0.195597
H  -3.776046   1.065902  -1.110347
H  -3.941834   0.905584   0.558009
C  -1.348194   0.095387   0.082444
H  -2.671347  -1.152916  -0.375291
H  -2.512182  -1.799044   1.468187
C  -0.222852  -0.664242  -0.075061
H  -1.180172   0.967451   1.058266
H  -1.184789   0.550701  -0.680101
H  -0.425131  -0.538353   0.313286
H   0.752370   0.114618   0.523428
H  -0.208860  -1.831114  -1.417192
