14
butane_opt
C  -3.943655   0.242983  -0.157829
C  -2.767900  -0.576043   0.232871
H  -5.009937  -0.600919  -0.488884
H  -3.560512   0.617543  -0.831796
H  -4.037720   1.120155   0.814020
C  -1.407972   0.218234   0.193105
H  -2.409791  -0.927413  -0.472379
H  -2.866291  -1.225906   1.134451
C  -0.157430  -0.736526  -0.152843
H  -1.413250   0.840613   1.066739
H  -1.413917   0.909259  -0.731330
H   0.429858  -1.452414   0.743399
H   0.847484  -0.137955  -0.245370
H  -0.280659  -1.422754  -0.887611
