butane_opt
 OpenBabel08242015393D

 14 13  0  0  0  0  0  0  0  0999 V2000
   -3.9550    0.2396   -0.1411 C   0  0  0  0  0  0  0  0  0  0  0  0
   -2.7777   -0.6107    0.3022 C   0  0  0  0  0  0  0  0  0  0  0  0
   -4.6796   -0.1537   -0.6443 H   0  0  0  0  0  0  0  0  0  0  0  0
   -3.7269    0.4248   -0.8375 H   0  0  0  0  0  0  0  0  0  0  0  0
   -4.4242    1.1820    0.8172 H   0  0  0  0  0  0  0  0  0  0  0  0
   -1.4205    0.2297    0.1040 C   0  0  0  0  0  0  0  0  0  0  0  0
   -2.5494   -1.2700   -0.6888 H   0  0  0  0  0  0  0  0  0  0  0  0
   -2.9359   -1.4279    1.2785 H   0  0  0  0  0  0  0  0  0  0  0  0
   -0.0990   -0.7039   -0.1333 C   0  0  0  0  0  0  0  0  0  0  0  0
   -1.2932    1.1156    1.1302 H   0  0  0  0  0  0  0  0  0  0  0  0
   -1.6026    0.7448   -0.7140 H   0  0  0  0  0  0  0  0  0  0  0  0
    0.0740   -1.4231    0.6985 H   0  0  0  0  0  0  0  0  0  0  0  0
    0.8813   -0.0891   -0.2581 H   0  0  0  0  0  0  0  0  0  0  0  0
    0.2182   -1.4045   -0.8824 H   0  0  0  0  0  0  0  0  0  0  0  0
  1  2  1  0  0  0  0
  1  5  1  0  0  0  0
  2  8  1  0  0  0  0
  3  1  1  0  0  0  0
  4  1  1  0  0  0  0
  6  2  1  0  0  0  0
  6 10  1  0  0  0  0
  7  2  1  0  0  0  0
  9  6  1  0  0  0  0
  9 12  1  0  0  0  0
 11  6  1  0  0  0  0
 13  9  1  0  0  0  0
 14  9  1  0  0  0  0
M  END
$$$$
