14
butane_opt
C  -4.011899   0.328203  -0.105761
C  -2.646398  -0.641267   0.253515
H  -4.817971  -0.212389  -0.723908
H  -3.657187   0.484745  -0.662453
H  -4.380674   1.275935   0.856508
C  -1.376943   0.061229   0.109317
H  -2.393661  -1.422481  -0.683281
H  -2.661472  -1.197674   1.141595
C  -0.193770  -0.608197  -0.068022
H  -1.211619   0.658310   0.771344
H  -1.323209   0.743769  -0.891321
H  -0.190265  -1.256668   0.796594
H   0.726509   0.071078  -0.378353
H  -0.387377  -1.304571  -1.020172
