14
butane_opt
C  -4.004916   0.341481   0.114909
C  -2.721932  -0.710421   0.016959
H  -4.663168  -0.122948   0.016908
H  -4.160143   0.743762  -0.737732
H  -4.097145   1.111013   0.998318
C  -1.382656   0.122340  -0.156430
H  -2.752161  -1.388247  -0.731881
H  -2.594384  -1.346682   0.895852
C  -0.129251  -0.627558   0.057977
H  -1.208985   0.873036   0.704546
H  -0.990498   0.813208  -1.157753
H  -0.687647  -1.068476   1.002287
H   0.736234  -0.189113   0.984338
H   0.241625  -1.412679  -0.930842
