14
butane_opt
C  -3.907542   0.190620  -0.117256
C  -2.683929  -0.513320   0.281686
H  -4.907310  -0.548158  -0.645282
H  -3.374342   0.747627  -1.081370
H  -4.395867   1.020847   0.769505
C  -1.444869   0.252749   0.140706
H  -2.814240  -1.278708  -0.707938
H  -2.533258  -1.280553   1.297642
C  -0.218053  -0.742017  -0.105121
H  -1.294147   0.873744   0.911606
H  -1.464415   0.807562  -0.765632
H   0.059860  -1.175575   0.609107
H   0.782676  -0.245311  -0.231521
H   0.003509  -1.658847  -1.155700
