butane_opt
 OpenBabel08242015393D

 14 13  0  0  0  0  0  0  0  0999 V2000
   -4.0171    0.3501    0.1324 C   0  0  0  0  0  0  0  0  0  0  0  0
   -2.6930   -0.7147   -0.0402 C   0  0  0  0  0  0  0  0  0  0  0  0
   -4.8787   -0.1107    0.2734 H   0  0  0  0  0  0  0  0  0  0  0  0
   -4.1252    0.7185   -0.6772 H   0  0  0  0  0  0  0  0  0  0  0  0
   -4.1619    1.2143    1.1504 H   0  0  0  0  0  0  0  0  0  0  0  0
   -1.3534    0.0909   -0.2165 C   0  0  0  0  0  0  0  0  0  0  0  0
   -3.0603   -1.3377   -0.7574 H   0  0  0  0  0  0  0  0  0  0  0  0
   -2.6054   -1.2305    0.7758 H   0  0  0  0  0  0  0  0  0  0  0  0
   -0.1410   -0.6171    0.1466 C   0  0  0  0  0  0  0  0  0  0  0  0
   -1.4930    0.7603    0.6400 H   0  0  0  0  0  0  0  0  0  0  0  0
   -1.1241    0.7876   -1.2043 H   0  0  0  0  0  0  0  0  0  0  0  0
   -0.5071   -1.0009    0.9818 H   0  0  0  0  0  0  0  0  0  0  0  0
    0.9931    0.0717    0.7717 H   0  0  0  0  0  0  0  0  0  0  0  0
    0.3169   -1.6203   -0.7942 H   0  0  0  0  0  0  0  0  0  0  0  0
  1  3  1  0  0  0  0
  1  5  1  0  0  0  0
  2  1  1  0  0  0  0
  2  8  1  0  0  0  0
  4  1  1  0  0  0  0
  6  2  1  0  0  0  0
  6  9  1  0  0  0  0
  6 10  1  0  0  0  0
  7  2  1  0  0  0  0
  9 13  1  0  0  0  0
  9 12  1  0  0  0  0
 11  6  1  0  0  0  0
 14  9  1  0  0  0  0
M  END
$$$$
