14
butane_opt
C  -4.031635   0.306575   0.100507
C  -2.673429  -0.649990  -0.050508
H  -5.008921  -0.262757  -0.425043
H  -3.936672   0.184283  -0.320183
H  -4.217452   1.726466   1.564780
C  -1.381245   0.148076  -0.092633
H  -2.714076  -1.440567  -0.900323
H  -2.849484  -1.270030   0.731239
C  -0.093580  -0.605193   0.122234
H  -1.446142   0.360463   0.425212
H  -1.145798   0.888466  -1.125067
H  -0.069780  -1.840635   1.403441
H   0.702484  -0.228836  -0.219849
H  -0.192815  -0.961820  -0.504148
