14
butane_opt
C  -3.942667   0.254137  -0.015590
C  -2.714457  -0.601133   0.078977
H  -4.859105  -0.358667  -0.012056
H  -3.950797   0.858988  -0.874609
H  -4.013188   0.916317   0.835117
C  -1.404270   0.199033   0.038207
H  -2.718061  -1.283273  -0.758484
H  -2.776645  -1.257042   0.991000
C  -0.139551  -0.701822   0.008428
H  -1.434890   0.883970   0.872403
H  -1.412395   0.841822  -0.879994
H  -0.088622  -1.270370   0.858952
H   0.770843  -0.134360  -0.011738
H  -0.127204  -1.475248  -0.911272
