14
butane_opt
C  -3.982893   0.260689  -0.129735
C  -2.728897  -0.635152   0.093777
H  -4.869673  -0.424771   0.517808
H  -4.171310   1.232707  -1.236681
H  -3.670467   0.488170   0.496683
C  -1.381385   0.273098   0.212648
H  -2.856832  -1.080459  -0.520683
H  -2.942800  -1.441183   1.095028
C  -0.095344  -0.717175  -0.118220
H  -1.177429   1.109031   1.126445
H  -1.483482   0.680666  -0.591654
H   0.092421  -1.322950   0.662198
H   0.451401  -0.440220   0.178123
H  -0.116370  -1.460776  -1.017304
