butane_opt
 OpenBabel08242015393D

 14 13  0  0  0  0  0  0  0  0999 V2000
   -3.8632    0.2211   -0.1225 C   0  0  0  0  0  0  0  0  0  0  0  0
   -2.7384   -0.5230    0.1599 C   0  0  0  0  0  0  0  0  0  0  0  0
   -4.9721   -0.4344    0.1417 H   0  0  0  0  0  0  0  0  0  0  0  0
   -3.6774    1.1665   -1.2451 H   0  0  0  0  0  0  0  0  0  0  0  0
   -3.8850    0.6312    0.5116 H   0  0  0  0  0  0  0  0  0  0  0  0
   -1.4205    0.1808    0.2603 C   0  0  0  0  0  0  0  0  0  0  0  0
   -2.6714   -1.4571   -0.9643 H   0  0  0  0  0  0  0  0  0  0  0  0
   -2.7855   -1.1163    0.9481 H   0  0  0  0  0  0  0  0  0  0  0  0
   -0.1350   -0.7432   -0.1416 C   0  0  0  0  0  0  0  0  0  0  0  0
   -1.3721    1.0663    1.1232 H   0  0  0  0  0  0  0  0  0  0  0  0
   -1.7360    0.8084   -0.5546 H   0  0  0  0  0  0  0  0  0  0  0  0
   -0.0381   -1.6852    0.8634 H   0  0  0  0  0  0  0  0  0  0  0  0
    0.6847   -0.1602   -0.4653 H   0  0  0  0  0  0  0  0  0  0  0  0
   -0.6286   -0.9415   -0.7491 H   0  0  0  0  0  0  0  0  0  0  0  0
  1  3  1  0  0  0  0
  1  2  1  0  0  0  0
  1  5  1  0  0  0  0
  2  6  1  0  0  0  0
  2  8  1  0  0  0  0
  4  1  1  0  0  0  0
  6 10  1  0  0  0  0
  7  2  1  0  0  0  0
  9  6  1  0  0  0  0
  9 12  1  0  0  0  0
 11  6  1  0  0  0  0
 13  9  1  0  0  0  0
 14  9  1  0  0  0  0
M  END
$$$$
