14
butane_opt
C  -3.976351   0.214348   0.168029
C  -2.731211  -0.536339  -0.106458
H  -5.172337  -0.601125   0.385615
H  -4.243027   0.600816  -0.635314
H  -3.643730   1.040292   1.198342
C  -1.402453   0.254622  -0.193416
H  -2.662709  -1.249691  -0.999186
H  -2.557446  -1.304403   0.838622
C  -0.095148  -0.764437   0.169094
H  -1.692143   0.797222   0.490675
H  -1.172624   1.104877  -1.409840
H  -0.436716  -1.016077   0.868164
H   0.765586  -0.377155   0.926182
H   0.332314  -1.534120  -0.662040
