14
butane_opt
C  -3.911776   0.331705   0.059673
C  -2.725681  -0.664879  -0.001549
H  -4.858034  -0.289776  -0.113631
H  -4.064871   0.222525  -0.390795
H  -4.161474   1.583382   1.419063
C  -1.380307   0.129276  -0.153349
H  -2.717858  -1.280825  -0.917129
H  -2.408841  -1.491277   0.982960
C  -0.224035  -0.623938   0.139464
H  -1.297630   0.590780   0.587046
H  -1.150194   0.993503  -1.237968
H  -0.190380  -1.314105   1.192722
H   0.668283   0.026802   0.290928
H   0.036129  -1.595403  -0.840097
