butane_opt
 OpenBabel08242015393D

 14 13  0  0  0  0  0  0  0  0999 V2000
   -3.9437    0.2430   -0.1578 C   0  0  0  0  0  0  0  0  0  0  0  0
   -2.7679   -0.5760    0.2329 C   0  0  0  0  0  0  0  0  0  0  0  0
   -5.0099   -0.6009   -0.4889 H   0  0  0  0  0  0  0  0  0  0  0  0
   -3.5605    0.6175   -0.8318 H   0  0  0  0  0  0  0  0  0  0  0  0
   -4.0377    1.1202    0.8140 H   0  0  0  0  0  0  0  0  0  0  0  0
   -1.4080    0.2182    0.1931 C   0  0  0  0  0  0  0  0  0  0  0  0
   -2.4098   -0.9274   -0.4724 H   0  0  0  0  0  0  0  0  0  0  0  0
   -2.8663   -1.2259    1.1345 H   0  0  0  0  0  0  0  0  0  0  0  0
   -0.1574   -0.7365   -0.1528 C   0  0  0  0  0  0  0  0  0  0  0  0
   -1.4132    0.8406    1.0667 H   0  0  0  0  0  0  0  0  0  0  0  0
   -1.4139    0.9093   -0.7313 H   0  0  0  0  0  0  0  0  0  0  0  0
    0.4299   -1.4524    0.7434 H   0  0  0  0  0  0  0  0  0  0  0  0
    0.8475   -0.1380   -0.2454 H   0  0  0  0  0  0  0  0  0  0  0  0
   -0.2807   -1.4228   -0.8876 H   0  0  0  0  0  0  0  0  0  0  0  0
  1  2  1  0  0  0  0
  1  5  1  0  0  0  0
  2  8  1  0  0  0  0
  3  1  1  0  0  0  0
  4  1  1  0  0  0  0
  6  2  1  0  0  0  0
  6 10  1  0  0  0  0
  7  2  1  0  0  0  0
  9  6  1  0  0  0  0
  9 12  1  0  0  0  0
 11  6  1  0  0  0  0
 13  9  1  0  0  0  0
 14  9  1  0  0  0  0
M  END
$$$$
