14
butane_opt
C  -3.945119   0.251340   0.012981
C  -2.716972  -0.607026   0.049504
H  -4.830088  -0.338012   0.079811
H  -3.995498   0.943942  -0.943551
H  -3.926016   0.900497   0.869845
C  -1.405215   0.201057   0.014919
H  -2.736962  -1.278219  -0.772253
H  -2.763950  -1.221208   0.941562
C  -0.145162  -0.706111   0.022747
H  -1.412979   0.820820   0.819294
H  -1.365591   0.850718  -0.895022
H  -0.136206  -1.203978   0.869511
H   0.757154  -0.136319   0.152964
H  -0.062142  -1.479923  -0.902286
