14
butane_opt
C  -3.986987   0.349574   0.197085
C  -2.700778  -0.739114  -0.248474
H  -4.921446  -0.220195   0.878415
H  -4.710630   1.114126  -0.592627
H  -3.693438   0.793686   1.015583
C  -1.358595   0.155479  -0.199110
H  -3.054664  -1.490571  -1.172024
H  -2.319914  -1.463623   0.509317
C  -0.136167  -0.621335   0.275526
H  -1.605183   0.977486   0.711763
H  -1.148992   0.830958  -1.119811
H  -0.288309  -1.395413   1.254600
H   0.698203   0.073532   0.190170
H   0.165717  -1.409455  -0.593913
