butane_opt
 OpenBabel08242015393D

 14 13  0  0  0  0  0  0  0  0999 V2000
   -3.9215    0.2955   -0.0442 C   0  0  0  0  0  0  0  0  0  0  0  0
   -2.6903   -0.6335    0.1759 C   0  0  0  0  0  0  0  0  0  0  0  0
   -4.7834   -0.2906   -0.3212 H   0  0  0  0  0  0  0  0  0  0  0  0
   -3.3878    0.5066   -0.7022 H   0  0  0  0  0  0  0  0  0  0  0  0
   -4.1008    1.1352    0.9519 H   0  0  0  0  0  0  0  0  0  0  0  0
   -1.4319    0.1915    0.0250 C   0  0  0  0  0  0  0  0  0  0  0  0
   -2.5880   -1.4348   -0.6790 H   0  0  0  0  0  0  0  0  0  0  0  0
   -2.7333   -1.0817    0.8759 H   0  0  0  0  0  0  0  0  0  0  0  0
   -0.2024   -0.6937   -0.0599 C   0  0  0  0  0  0  0  0  0  0  0  0
   -1.2667    0.6259    0.8471 H   0  0  0  0  0  0  0  0  0  0  0  0
   -1.3399    0.8679   -0.8684 H   0  0  0  0  0  0  0  0  0  0  0  0
   -0.3410   -1.3716    0.9584 H   0  0  0  0  0  0  0  0  0  0  0  0
    0.5871   -0.0691    0.1050 H   0  0  0  0  0  0  0  0  0  0  0  0
   -0.1490   -1.2789   -0.8335 H   0  0  0  0  0  0  0  0  0  0  0  0
  1  2  1  0  0  0  0
  1  5  1  0  0  0  0
  2  8  1  0  0  0  0
  3  1  1  0  0  0  0
  4  1  1  0  0  0  0
  6  2  1  0  0  0  0
  6 10  1  0  0  0  0
  7  2  1  0  0  0  0
  9  6  1  0  0  0  0
  9 13  1  0  0  0  0
  9 12  1  0  0  0  0
 11  6  1  0  0  0  0
 14  9  1  0  0  0  0
M  END
$$$$
