butane_opt
 OpenBabel08242015393D

 14 13  0  0  0  0  0  0  0  0999 V2000
   -3.9591    0.2339   -0.1387 C   0  0  0  0  0  0  0  0  0  0  0  0
   -2.7399   -0.6474    0.1536 C   0  0  0  0  0  0  0  0  0  0  0  0
   -4.6993   -0.1857   -0.2195 H   0  0  0  0  0  0  0  0  0  0  0  0
   -3.9458    0.9925   -1.2893 H   0  0  0  0  0  0  0  0  0  0  0  0
   -3.8870    0.8965    0.6428 H   0  0  0  0  0  0  0  0  0  0  0  0
   -1.4190    0.2674    0.2819 C   0  0  0  0  0  0  0  0  0  0  0  0
   -2.4527   -1.3270   -0.6599 H   0  0  0  0  0  0  0  0  0  0  0  0
   -3.0115   -1.3431    1.2159 H   0  0  0  0  0  0  0  0  0  0  0  0
   -0.1252   -0.7021   -0.1275 C   0  0  0  0  0  0  0  0  0  0  0  0
   -1.2502    0.9937    1.0938 H   0  0  0  0  0  0  0  0  0  0  0  0
   -1.7084    0.8177   -0.5210 H   0  0  0  0  0  0  0  0  0  0  0  0
    0.3378   -1.6496    0.9496 H   0  0  0  0  0  0  0  0  0  0  0  0
    0.9215   -0.1792   -0.7907 H   0  0  0  0  0  0  0  0  0  0  0  0
   -0.4384   -1.2604   -0.9945 H   0  0  0  0  0  0  0  0  0  0  0  0
  1  2  1  0  0  0  0
  1  5  1  0  0  0  0
  2  6  1  0  0  0  0
  2  8  1  0  0  0  0
  3  1  1  0  0  0  0
  4  1  1  0  0  0  0
  6 10  1  0  0  0  0
  7  2  1  0  0  0  0
  9  6  1  0  0  0  0
  9 12  1  0  0  0  0
 11  6  1  0  0  0  0
 13  9  1  0  0  0  0
 14  9  1  0  0  0  0
M  END
$$$$
