14
butane_opt
C  -3.950658   0.294108   0.092305
C  -2.747732  -0.652056  -0.075005
H  -4.714194  -0.075756   0.108509
H  -4.330907   0.657973  -0.620697
H  -4.332828   1.185458   1.201537
C  -1.331421   0.179762  -0.073664
H  -2.678992  -1.804644  -1.330166
H  -2.702821  -1.113686   0.793077
C  -0.146762  -0.688096   0.132653
H  -1.142894   0.753515   0.816259
H  -1.395761   0.842836  -0.907578
H  -0.066511  -1.770625   1.383189
H   0.743332  -0.005357  -0.516324
H  -0.246189  -0.714431  -0.296421
