butane_opt
 OpenBabel08242015393D

 14 13  0  0  0  0  0  0  0  0999 V2000
   -4.0001    0.3423   -0.1368 C   0  0  0  0  0  0  0  0  0  0  0  0
   -2.7218   -0.7122    0.1450 C   0  0  0  0  0  0  0  0  0  0  0  0
   -4.7671   -0.0597    0.1104 H   0  0  0  0  0  0  0  0  0  0  0  0
   -4.0101    1.1711   -1.1442 H   0  0  0  0  0  0  0  0  0  0  0  0
   -4.1963    0.5424    0.4889 H   0  0  0  0  0  0  0  0  0  0  0  0
   -1.3671    0.1436    0.2274 C   0  0  0  0  0  0  0  0  0  0  0  0
   -2.6182   -1.3508   -0.6606 H   0  0  0  0  0  0  0  0  0  0  0  0
   -2.7802   -1.2979    1.0729 H   0  0  0  0  0  0  0  0  0  0  0  0
   -0.1327   -0.6551   -0.1204 C   0  0  0  0  0  0  0  0  0  0  0  0
   -1.5850    0.9241    1.3064 H   0  0  0  0  0  0  0  0  0  0  0  0
   -1.3120    0.5420   -0.4998 H   0  0  0  0  0  0  0  0  0  0  0  0
    0.4106   -1.3999    0.8432 H   0  0  0  0  0  0  0  0  0  0  0  0
    0.9814    0.2025   -0.5097 H   0  0  0  0  0  0  0  0  0  0  0  0
   -0.5753   -1.0934   -0.9813 H   0  0  0  0  0  0  0  0  0  0  0  0
  1  3  1  0  0  0  0
  1  2  1  0  0  0  0
  1  5  1  0  0  0  0
  2  6  1  0  0  0  0
  2  8  1  0  0  0  0
  4  1  1  0  0  0  0
  6 10  1  0  0  0  0
  7  2  1  0  0  0  0
  9  6  1  0  0  0  0
  9 12  1  0  0  0  0
 11  6  1  0  0  0  0
 13  9  1  0  0  0  0
 14  9  1  0  0  0  0
M  END
$$$$
