butane_opt
 OpenBabel08242015393D

 14 11  0  0  0  0  0  0  0  0999 V2000
   -4.0308    0.3205   -0.1019 C   0  0  0  0  0  0  0  0  0  0  0  0
   -2.6625   -0.6859    0.2173 C   0  0  0  0  0  0  0  0  0  0  0  0
   -4.6495   -0.1689   -0.1813 H   0  0  0  0  0  0  0  0  0  0  0  0
   -4.1057    1.0899   -1.0311 H   0  0  0  0  0  0  0  0  0  0  0  0
   -4.1381    0.6050    0.5361 H   0  0  0  0  0  0  0  0  0  0  0  0
   -1.3258    0.1672    0.0508 C   0  0  0  0  0  0  0  0  0  0  0  0
   -2.6513   -1.1165   -0.2801 H   0  0  0  0  0  0  0  0  0  0  0  0
   -2.9611   -1.4761    1.3551 H   0  0  0  0  0  0  0  0  0  0  0  0
   -0.2110   -0.6546   -0.0700 C   0  0  0  0  0  0  0  0  0  0  0  0
   -1.2603    1.0132    1.0181 H   0  0  0  0  0  0  0  0  0  0  0  0
   -1.2061    0.6087   -0.6769 H   0  0  0  0  0  0  0  0  0  0  0  0
   -0.0678   -0.6339    0.3821 H   0  0  0  0  0  0  0  0  0  0  0  0
    0.7078   -0.0929    0.4593 H   0  0  0  0  0  0  0  0  0  0  0  0
    0.0205   -2.0482   -1.4255 H   0  0  0  0  0  0  0  0  0  0  0  0
  1  2  1  0  0  0  0
  1  5  1  0  0  0  0
  2  8  1  0  0  0  0
  3  1  1  0  0  0  0
  4  1  1  0  0  0  0
  6  2  1  0  0  0  0
  6 10  1  0  0  0  0
  7  2  1  0  0  0  0
  9  6  1  0  0  0  0
  9 13  1  0  0  0  0
 11  6  1  0  0  0  0
M  RAD  3   9   3  12   2  14   2
M  END
$$$$
