butane_opt
 OpenBabel08242015393D

 14  9  0  0  0  0  0  0  0  0999 V2000
   -3.9708    0.2537   -0.1355 C   0  0  0  0  0  0  0  0  0  0  0  0
   -2.7574   -0.5475    0.2152 C   0  0  0  0  0  0  0  0  0  0  0  0
   -5.0702   -0.4939    0.4840 H   0  0  0  0  0  0  0  0  0  0  0  0
   -3.9336    1.1240   -1.3421 H   0  0  0  0  0  0  0  0  0  0  0  0
   -3.6841    0.4104    0.5212 H   0  0  0  0  0  0  0  0  0  0  0  0
   -1.4357    0.2384    0.0850 C   0  0  0  0  0  0  0  0  0  0  0  0
   -2.7901   -1.1983   -0.6283 H   0  0  0  0  0  0  0  0  0  0  0  0
   -2.7397   -1.4678    1.2725 H   0  0  0  0  0  0  0  0  0  0  0  0
   -0.0963   -0.7635   -0.1004 C   0  0  0  0  0  1  0  0  0  0  0  0
   -1.1047    1.1111    1.1486 H   0  0  0  0  0  0  0  0  0  0  0  0
   -1.4940    0.7091   -0.5925 H   0  0  0  0  0  0  0  0  0  0  0  0
   -0.3543   -0.7443    0.2671 H   0  0  0  0  0  0  0  0  0  0  0  0
    0.8590   -0.2192    0.6690 H   0  0  0  0  0  0  0  0  0  0  0  0
    0.4229   -1.8710   -1.2353 H   0  0  0  0  0  0  0  0  0  0  0  0
  1  3  1  0  0  0  0
  1  5  1  0  0  0  0
  2  8  1  0  0  0  0
  4  1  1  0  0  0  0
  6 12  1  0  0  0  0
  6 10  1  0  0  0  0
  7  2  1  0  0  0  0
  9 13  1  0  0  0  0
 11  6  1  0  0  0  0
M  RAD  4   1   2   2   3   6   2  14   2
M  END
$$$$
