14
butane_opt
C  -3.934274   0.328678   0.194834
C  -2.615099  -0.712601  -0.180415
H  -4.761720  -0.274098   0.840249
H  -4.134814   1.290956  -0.820498
H  -3.760153   0.647354   0.729513
C  -1.430191   0.135015  -0.137133
H  -2.745449  -1.711032  -1.226980
H  -2.394578  -0.861427   0.397681
C  -0.236583  -0.590771   0.236529
H  -1.436654   0.764119   0.710388
H  -1.205272   0.626720  -1.097938
H  -0.406807  -1.488981   1.225095
H   0.681001  -0.136336  -0.020043
H  -0.298621  -1.218905  -0.666469
