14
butane_opt
C  -4.013172   0.280759  -0.129389
C  -2.672734  -0.696199   0.259461
H  -4.903934  -0.188705   0.081228
H  -4.000829   1.419516  -1.393888
H  -4.309630   0.771041   0.671895
C  -1.396600   0.180212   0.074809
H  -2.656947  -1.144786  -0.459553
H  -2.597282  -1.657691   1.315697
C  -0.115158  -0.644406  -0.102885
H  -1.290017   1.125967   1.199576
H  -1.189513   0.487160  -0.713389
H  -0.489774  -0.582318   0.284131
H   0.784593  -0.145282   0.528944
H   0.031114  -1.995340  -1.437390
