butane_opt
 OpenBabel08242015393D

 14 10  0  0  0  0  0  0  0  0999 V2000
   -3.9169    0.3503   -0.0960 C   0  0  0  0  0  0  0  0  0  0  0  0
   -2.6528   -0.6923    0.1481 C   0  0  0  0  0  0  0  0  0  0  0  0
   -4.7557   -0.1851   -0.2179 H   0  0  0  0  0  0  0  0  0  0  0  0
   -3.7674    0.7042   -0.8681 H   0  0  0  0  0  0  0  0  0  0  0  0
   -4.4467    0.9821    0.6999 H   0  0  0  0  0  0  0  0  0  0  0  0
   -1.3808    0.1402    0.1193 C   0  0  0  0  0  0  0  0  0  0  0  0
   -2.5160   -1.3168   -0.7682 H   0  0  0  0  0  0  0  0  0  0  0  0
   -2.6241   -1.4304    1.2007 H   0  0  0  0  0  0  0  0  0  0  0  0
   -0.2823   -0.6504   -0.0714 C   0  0  0  0  0  0  0  0  0  0  0  0
   -1.1380    1.2658    1.2449 H   0  0  0  0  0  0  0  0  0  0  0  0
   -1.1431    0.3371   -0.5532 H   0  0  0  0  0  0  0  0  0  0  0  0
   -0.0260   -1.6569    1.0392 H   0  0  0  0  0  0  0  0  0  0  0  0
    0.8549   -0.0236   -0.6980 H   0  0  0  0  0  0  0  0  0  0  0  0
   -0.6638   -0.8998   -0.7820 H   0  0  0  0  0  0  0  0  0  0  0  0
  1  2  1  0  0  0  0
  1  5  1  0  0  0  0
  2  8  1  0  0  0  0
  3  1  1  0  0  0  0
  4  1  1  0  0  0  0
  6  2  1  0  0  0  0
  7  2  1  0  0  0  0
  9  6  1  0  0  0  0
 11  6  1  0  0  0  0
 14  9  1  0  0  0  0
M  RAD  5   6   2   9   3  10   2  12   2  13   2
M  END
$$$$
