14
butane_opt
C  -3.899583   0.314331   0.140989
C  -2.674649  -0.645304  -0.089862
H  -4.773491  -0.472030   0.082048
H  -3.781133   0.768456  -0.503509
H  -4.130140   1.074330   1.093452
C  -1.430823   0.101562  -0.108586
H  -2.774238  -1.683673  -1.316234
H  -2.440435  -0.967981   0.515475
C  -0.190811  -0.656082   0.182521
H  -1.569746   0.869656   0.836531
H  -1.590014   0.966614  -1.206024
H  -0.101409  -1.643002   1.316718
H   0.850772   0.064370  -0.453346
H  -0.394964  -0.797637  -0.337572
