butane_opt
 OpenBabel08242015393D

 14 11  0  0  0  0  0  0  0  0999 V2000
   -3.9240    0.2398    0.1868 C   0  0  0  0  0  0  0  0  0  0  0  0
   -2.6939   -0.5475   -0.1168 C   0  0  0  0  0  0  0  0  0  0  0  0
   -4.8276   -0.4165    0.2256 H   0  0  0  0  0  0  0  0  0  0  0  0
   -3.9101    0.6550   -0.4216 H   0  0  0  0  0  0  0  0  0  0  0  0
   -3.6138    0.9257    1.0484 H   0  0  0  0  0  0  0  0  0  0  0  0
   -1.4800    0.2170   -0.2214 C   0  0  0  0  0  0  0  0  0  0  0  0
   -3.0544   -1.4756   -1.0145 H   0  0  0  0  0  0  0  0  0  0  0  0
   -2.4416   -1.0790    0.6785 H   0  0  0  0  0  0  0  0  0  0  0  0
   -0.1376   -0.7557    0.2358 C   0  0  0  0  0  0  0  0  0  0  0  0
   -1.7091    0.4820    0.2764 H   0  0  0  0  0  0  0  0  0  0  0  0
   -1.3155    1.0644   -1.2906 H   0  0  0  0  0  0  0  0  0  0  0  0
   -0.1936   -0.9472    0.9209 H   0  0  0  0  0  0  0  0  0  0  0  0
    0.9116    0.0297    0.7141 H   0  0  0  0  0  0  0  0  0  0  0  0
   -0.0723   -1.5366   -0.7242 H   0  0  0  0  0  0  0  0  0  0  0  0
  1  3  1  0  0  0  0
  1  5  1  0  0  0  0
  2  8  1  0  0  0  0
  4  1  1  0  0  0  0
  6  2  1  0  0  0  0
  6  9  1  0  0  0  0
  7  2  1  0  0  0  0
  9 13  1  0  0  0  0
  9 12  1  0  0  0  0
 11  6  1  0  0  0  0
 14  9  1  0  0  0  0
M  RAD  4   1   2   2   2   6   2  10   2
M  END
$$$$
