butane_opt
 OpenBabel08242015393D

 14 12  0  0  0  0  0  0  0  0999 V2000
   -4.0629    0.3077    0.1128 C   0  0  0  0  0  0  0  0  0  0  0  0
   -2.6621   -0.6766   -0.0806 C   0  0  0  0  0  0  0  0  0  0  0  0
   -4.9208   -0.2622    0.6308 H   0  0  0  0  0  0  0  0  0  0  0  0
   -4.2822    1.3865   -1.0164 H   0  0  0  0  0  0  0  0  0  0  0  0
   -3.7765    0.8140    0.9090 H   0  0  0  0  0  0  0  0  0  0  0  0
   -1.3161    0.1101   -0.0834 C   0  0  0  0  0  0  0  0  0  0  0  0
   -2.9206   -1.2885   -0.9778 H   0  0  0  0  0  0  0  0  0  0  0  0
   -2.5667   -1.1406    0.5582 H   0  0  0  0  0  0  0  0  0  0  0  0
   -0.1551   -0.6477    0.1705 C   0  0  0  0  0  0  0  0  0  0  0  0
   -1.4351    0.5797    0.6353 H   0  0  0  0  0  0  0  0  0  0  0  0
   -1.2274    0.7804   -1.0955 H   0  0  0  0  0  0  0  0  0  0  0  0
   -0.1597   -0.9486    0.8248 H   0  0  0  0  0  0  0  0  0  0  0  0
    0.7958    0.0489    0.4715 H   0  0  0  0  0  0  0  0  0  0  0  0
   -0.2032   -1.5355   -0.9713 H   0  0  0  0  0  0  0  0  0  0  0  0
  1  3  1  0  0  0  0
  1  5  1  0  0  0  0
  2  1  1  0  0  0  0
  2  8  1  0  0  0  0
  6  2  1  0  0  0  0
  6  9  1  0  0  0  0
  6 10  1  0  0  0  0
  7  2  1  0  0  0  0
  9 13  1  0  0  0  0
  9 12  1  0  0  0  0
 11  6  1  0  0  0  0
 14  9  1  0  0  0  0
M  RAD  2   1   2   4   2
M  END
$$$$
