14
butane_opt
C  -3.945997   0.270550  -0.021948
C  -2.696191  -0.628298   0.093621
H  -4.842138  -0.296720  -0.073434
H  -3.930499   0.829177  -0.880481
H  -4.039240   1.011577   0.846544
C  -1.405161   0.165783   0.036706
H  -2.620313  -1.265013  -0.757612
H  -2.704118  -1.291278   1.013751
C  -0.166037  -0.676477  -0.008315
H  -1.343387   0.920770   0.939166
H  -1.396255   0.784687  -0.848212
H  -0.136101  -1.299402   0.894527
H   0.722195  -0.101544  -0.007949
H  -0.172536  -1.352879  -0.877638
