14
butane_opt
C  -3.999757   0.330368  -0.077406
C  -2.696073  -0.692394   0.216999
H  -4.964101  -0.208148  -0.118520
H  -4.166784   1.255904  -1.210924
H  -4.312749   0.901444   0.497381
C  -1.333941   0.153902   0.059489
H  -2.750468  -1.331368  -0.571223
H  -2.821883  -1.441329   1.304274
C  -0.133024  -0.682895  -0.062190
H  -1.078318   0.796868   0.995092
H  -1.421823   0.555074  -0.756238
H  -0.358511  -0.607438   0.495597
H   1.067714   0.151734   0.428196
H  -0.253749  -1.836384  -1.351928
