butane_opt
 OpenBabel08242015393D

 14 13  0  0  0  0  0  0  0  0999 V2000
   -3.9164    0.1971    0.0795 C   0  0  0  0  0  0  0  0  0  0  0  0
   -2.6510   -0.5188    0.0331 C   0  0  0  0  0  0  0  0  0  0  0  0
   -4.8374   -0.4446   -0.4223 H   0  0  0  0  0  0  0  0  0  0  0  0
   -3.5666    0.4674   -0.6491 H   0  0  0  0  0  0  0  0  0  0  0  0
   -4.0837    1.2277    1.1092 H   0  0  0  0  0  0  0  0  0  0  0  0
   -1.4696    0.2096   -0.0299 C   0  0  0  0  0  0  0  0  0  0  0  0
   -2.6394   -1.3137   -0.8995 H   0  0  0  0  0  0  0  0  0  0  0  0
   -2.5854   -1.0565    0.8380 H   0  0  0  0  0  0  0  0  0  0  0  0
   -0.2224   -0.7236    0.0751 C   0  0  0  0  0  0  0  0  0  0  0  0
   -1.1939    0.5729    0.4257 H   0  0  0  0  0  0  0  0  0  0  0  0
   -1.6236    0.9978   -1.0280 H   0  0  0  0  0  0  0  0  0  0  0  0
   -0.2984   -1.4478    1.0319 H   0  0  0  0  0  0  0  0  0  0  0  0
    0.8530   -0.0945   -0.0794 H   0  0  0  0  0  0  0  0  0  0  0  0
    0.0790   -1.3554   -0.7149 H   0  0  0  0  0  0  0  0  0  0  0  0
  1  5  1  0  0  0  0
  2  1  1  0  0  0  0
  2  8  1  0  0  0  0
  3  1  1  0  0  0  0
  4  1  1  0  0  0  0
  6  2  1  0  0  0  0
  6  9  1  0  0  0  0
  6 10  1  0  0  0  0
  7  2  1  0  0  0  0
  9 12  1  0  0  0  0
 11  6  1  0  0  0  0
 13  9  1  0  0  0  0
 14  9  1  0  0  0  0
M  END
$$$$
