14
butane_opt
C  -3.992537   0.334997  -0.084521
C  -2.712106  -0.692728   0.212164
H  -5.035443  -0.219787   0.213615
H  -3.816424   1.265359  -1.292939
H  -4.209340   0.775324   0.632236
C  -1.356329   0.122505   0.046300
H  -2.958978  -1.424107  -0.634140
H  -2.547343  -1.409067   1.168293
C  -0.142421  -0.668109  -0.055081
H  -1.302344   0.856779   0.863160
H  -1.525514   0.836402  -0.798421
H  -0.313716  -0.450499   0.359593
H   0.938531   0.147697   0.646665
H   0.146551  -1.995100  -1.256219
