14
butane_opt
C  -3.868292   0.237848   0.143130
C  -2.695805  -0.594408  -0.026279
H  -4.885753  -0.439811  -0.198630
H  -3.722999   0.770240  -0.745049
H  -4.023223   1.233210   1.231317
C  -1.420484   0.218917  -0.178508
H  -2.880830  -1.203468  -0.817440
H  -2.763120  -1.381974   0.947564
C  -0.210404  -0.745804   0.098408
H  -1.655189   0.937434   0.755286
H  -1.423513   0.894196  -0.955548
H  -0.572557  -1.185417   1.036419
H   0.938682  -0.035691   0.422203
H   0.306103  -1.454794  -0.695550
