14
butane_opt
C  -3.994396   0.329665  -0.144395
C  -2.657797  -0.640591   0.179718
H  -4.876108  -0.147043  -0.274370
H  -3.931616   1.087216  -1.140927
H  -4.320515   0.758330   0.471314
C  -1.323235   0.081272   0.267101
H  -2.435704  -1.353864  -0.570457
H  -3.003189  -1.408530   1.158157
C  -0.207361  -0.644496  -0.190748
H  -1.145632   1.053654   1.321674
H  -1.721592   0.315053  -0.304043
H   0.026069  -1.522952   0.989898
H   0.948935   0.119261  -0.810076
H  -0.417274  -0.812629  -0.719256
