butane_opt
 OpenBabel08242015393D

 14 13  0  0  0  0  0  0  0  0999 V2000
   -3.9522    0.2766    0.0090 C   0  0  0  0  0  0  0  0  0  0  0  0
   -2.7047   -0.6364    0.0467 C   0  0  0  0  0  0  0  0  0  0  0  0
   -4.8401   -0.2908    0.0042 H   0  0  0  0  0  0  0  0  0  0  0  0
   -3.9930    0.8949   -0.9013 H   0  0  0  0  0  0  0  0  0  0  0  0
   -4.0213    0.9777    0.8969 H   0  0  0  0  0  0  0  0  0  0  0  0
   -1.3874    0.1864    0.0111 C   0  0  0  0  0  0  0  0  0  0  0  0
   -2.7104   -1.2609   -0.7584 H   0  0  0  0  0  0  0  0  0  0  0  0
   -2.7059   -1.3542    1.0302 H   0  0  0  0  0  0  0  0  0  0  0  0
   -0.1648   -0.6918    0.0257 C   0  0  0  0  0  0  0  0  0  0  0  0
   -1.3530    0.8509    0.8672 H   0  0  0  0  0  0  0  0  0  0  0  0
   -1.3929    0.8061   -0.8787 H   0  0  0  0  0  0  0  0  0  0  0  0
   -0.1848   -1.2019    0.8706 H   0  0  0  0  0  0  0  0  0  0  0  0
    0.7835   -0.0434    0.0777 H   0  0  0  0  0  0  0  0  0  0  0  0
   -0.1003   -1.4610   -0.8935 H   0  0  0  0  0  0  0  0  0  0  0  0
  1  2  1  0  0  0  0
  1  5  1  0  0  0  0
  2  8  1  0  0  0  0
  3  1  1  0  0  0  0
  4  1  1  0  0  0  0
  6  9  1  0  0  0  0
  6  2  1  0  0  0  0
  6 10  1  0  0  0  0
  7  2  1  0  0  0  0
  9 13  1  0  0  0  0
  9 12  1  0  0  0  0
 11  6  1  0  0  0  0
 14  9  1  0  0  0  0
M  END
$$$$
