14
butane_opt
C  -3.921411   0.287788  -0.183648
C  -2.664513  -0.607482   0.238658
H  -4.932360  -0.478314  -0.450692
H  -3.846410   1.049775  -1.020341
H  -4.081066   0.944707   0.650612
C  -1.410107   0.107214   0.230625
H  -2.291442  -1.097112  -0.532011
H  -2.971978  -1.381260   1.399062
C  -0.193965  -0.635722  -0.148185
H  -1.403738   0.926015   1.081814
H  -1.571023   0.368341  -0.433228
H   0.290650  -1.333852   0.769056
H   0.704500   0.056239  -0.569848
H  -0.645114  -1.354803  -1.108415
