butane_opt
 OpenBabel08242015393D

 14 13  0  0  0  0  0  0  0  0999 V2000
   -3.9573    0.2787    0.0484 C   0  0  0  0  0  0  0  0  0  0  0  0
   -2.7088   -0.6274   -0.0014 C   0  0  0  0  0  0  0  0  0  0  0  0
   -4.8576   -0.3069    0.1515 H   0  0  0  0  0  0  0  0  0  0  0  0
   -3.9868    0.9371   -0.9048 H   0  0  0  0  0  0  0  0  0  0  0  0
   -3.9546    0.8796    0.8687 H   0  0  0  0  0  0  0  0  0  0  0  0
   -1.3925    0.1713   -0.0064 C   0  0  0  0  0  0  0  0  0  0  0  0
   -2.7405   -1.3359   -0.8728 H   0  0  0  0  0  0  0  0  0  0  0  0
   -2.6539   -1.1952    0.8711 H   0  0  0  0  0  0  0  0  0  0  0  0
   -0.1615   -0.6839    0.0574 C   0  0  0  0  0  0  0  0  0  0  0  0
   -1.3572    0.8249    0.8317 H   0  0  0  0  0  0  0  0  0  0  0  0
   -1.3574    0.8176   -0.9048 H   0  0  0  0  0  0  0  0  0  0  0  0
   -0.1343   -1.3246    0.9894 H   0  0  0  0  0  0  0  0  0  0  0  0
    0.7598   -0.0666    0.0323 H   0  0  0  0  0  0  0  0  0  0  0  0
   -0.1105   -1.3606   -0.8010 H   0  0  0  0  0  0  0  0  0  0  0  0
  1  3  1  0  0  0  0
  1  5  1  0  0  0  0
  2  1  1  0  0  0  0
  2  8  1  0  0  0  0
  4  1  1  0  0  0  0
  6  2  1  0  0  0  0
  6  9  1  0  0  0  0
  6 10  1  0  0  0  0
  7  2  1  0  0  0  0
  9 12  1  0  0  0  0
 11  6  1  0  0  0  0
 13  9  1  0  0  0  0
 14  9  1  0  0  0  0
M  END
$$$$
