butane_opt
 OpenBabel08242015393D

 14 12  0  0  0  0  0  0  0  0999 V2000
   -3.9764    0.2879    0.1685 C   0  0  0  0  0  0  0  0  0  0  0  0
   -2.7254   -0.6947   -0.1805 C   0  0  0  0  0  0  0  0  0  0  0  0
   -4.8432   -0.0567    0.8409 H   0  0  0  0  0  0  0  0  0  0  0  0
   -4.3045    1.2022   -1.0246 H   0  0  0  0  0  0  0  0  0  0  0  0
   -3.5644    0.5169    0.7689 H   0  0  0  0  0  0  0  0  0  0  0  0
   -1.3815    0.1879   -0.0738 C   0  0  0  0  0  0  0  0  0  0  0  0
   -2.7314   -1.4699   -1.1510 H   0  0  0  0  0  0  0  0  0  0  0  0
   -2.7736   -1.1841    0.5522 H   0  0  0  0  0  0  0  0  0  0  0  0
   -0.1306   -0.6705    0.1421 C   0  0  0  0  0  0  0  0  0  0  0  0
   -1.5409    1.1442    0.9281 H   0  0  0  0  0  0  0  0  0  0  0  0
   -1.4281    0.9095   -0.8767 H   0  0  0  0  0  0  0  0  0  0  0  0
   -0.3761   -1.5208    1.2251 H   0  0  0  0  0  0  0  0  0  0  0  0
    0.7637   -0.1580    0.0015 H   0  0  0  0  0  0  0  0  0  0  0  0
    0.2901   -1.1628   -0.5237 H   0  0  0  0  0  0  0  0  0  0  0  0
  1  5  1  0  0  0  0
  1  3  1  0  0  0  0
  2  6  1  0  0  0  0
  2  1  1  0  0  0  0
  2  8  1  0  0  0  0
  6  9  1  0  0  0  0
  6 10  1  0  0  0  0
  7  2  1  0  0  0  0
  9 12  1  0  0  0  0
 11  6  1  0  0  0  0
 13  9  1  0  0  0  0
 14  9  1  0  0  0  0
M  RAD  2   1   2   4   2
M  END
$$$$
