butane_opt
 OpenBabel08242015393D

 14 11  0  0  0  0  0  0  0  0999 V2000
   -3.9877    0.3647   -0.1627 C   0  0  0  0  0  0  0  0  0  0  0  0
   -2.6699   -0.7142    0.1417 C   0  0  0  0  0  0  0  0  0  0  0  0
   -4.8694   -0.3300    0.0244 H   0  0  0  0  0  0  0  0  0  0  0  0
   -3.8611    1.0522   -1.1297 H   0  0  0  0  0  0  0  0  0  0  0  0
   -4.0406    0.9058    0.6028 H   0  0  0  0  0  0  0  0  0  0  0  0
   -1.3640    0.1313    0.2272 C   0  0  0  0  0  0  0  0  0  0  0  0
   -2.7098   -1.0424   -0.3792 H   0  0  0  0  0  0  0  0  0  0  0  0
   -2.7522   -1.7044    1.2953 H   0  0  0  0  0  0  0  0  0  0  0  0
   -0.2153   -0.6584   -0.1191 C   0  0  0  0  0  0  0  0  0  0  0  0
   -1.1872    0.9448    1.2964 H   0  0  0  0  0  0  0  0  0  0  0  0
   -1.2905    0.5533   -0.5296 H   0  0  0  0  0  0  0  0  0  0  0  0
    0.1993   -1.1131    0.4943 H   0  0  0  0  0  0  0  0  0  0  0  0
    0.6833    0.0309   -0.3331 H   0  0  0  0  0  0  0  0  0  0  0  0
   -0.4028   -1.2024   -0.9762 H   0  0  0  0  0  0  0  0  0  0  0  0
  1  3  1  0  0  0  0
  1  2  1  0  0  0  0
  1  5  1  0  0  0  0
  2  6  1  0  0  0  0
  4  1  1  0  0  0  0
  6 10  1  0  0  0  0
  9  6  1  0  0  0  0
  9 12  1  0  0  0  0
 11  6  1  0  0  0  0
 13  9  1  0  0  0  0
 14  9  1  0  0  0  0
M  RAD  3   2   3   7   2   8   2
M  END
$$$$
