14
butane_opt
C  -3.973010   0.290839  -0.156608
C  -2.695631  -0.655156   0.244693
H  -4.637556  -0.049519  -0.191505
H  -3.936070   1.042889  -1.178221
H  -4.138269   0.806749   0.541118
C  -1.349054   0.119751   0.224773
H  -2.299125  -1.402418  -0.613288
H  -2.749123  -1.068153   0.960409
C  -0.223304  -0.655650  -0.151358
H  -1.153101   0.919293   1.174010
H  -1.376930   0.595660  -0.486904
H  -0.047761  -1.457614   0.895519
H   0.709047   0.009360  -0.507977
H  -0.519138  -1.052348  -1.083172
