butane_opt
 OpenBabel08242015393D

 14  9  0  0  0  0  0  0  0  0999 V2000
   -3.9998    0.3304   -0.0774 C   0  0  0  0  0  0  0  0  0  0  0  0
   -2.6961   -0.6924    0.2170 C   0  0  0  0  0  0  0  0  0  0  0  0
   -4.9641   -0.2081   -0.1185 H   0  0  0  0  0  0  0  0  0  0  0  0
   -4.1668    1.2559   -1.2109 H   0  0  0  0  0  0  0  0  0  0  0  0
   -4.3127    0.9014    0.4974 H   0  0  0  0  0  0  0  0  0  0  0  0
   -1.3339    0.1539    0.0595 C   0  0  0  0  0  0  0  0  0  0  0  0
   -2.7505   -1.3314   -0.5712 H   0  0  0  0  0  0  0  0  0  0  0  0
   -2.8219   -1.4413    1.3043 H   0  0  0  0  0  0  0  0  0  0  0  0
   -0.1330   -0.6829   -0.0622 C   0  0  0  0  0 15  0  0  0  0  0  0
   -1.0783    0.7969    0.9951 H   0  0  0  0  0  0  0  0  0  0  0  0
   -1.4218    0.5551   -0.7562 H   0  0  0  0  0  0  0  0  0  0  0  0
   -0.3585   -0.6074    0.4956 H   0  0  0  0  0  0  0  0  0  0  0  0
    1.0677    0.1517    0.4282 H   0  0  0  0  0  0  0  0  0  0  0  0
   -0.2537   -1.8364   -1.3519 H   0  0  0  0  0  0  0  0  0  0  0  0
  1  2  1  0  0  0  0
  1  5  1  0  0  0  0
  2  8  1  0  0  0  0
  3  1  1  0  0  0  0
  4  1  1  0  0  0  0
  6 12  1  0  0  0  0
  6 10  1  0  0  0  0
  7  2  1  0  0  0  0
 11  6  1  0  0  0  0
M  RAD  4   2   2   6   2  13   2  14   2
M  END
$$$$
