14
butane_opt
C  -3.992835   0.341158   0.137914
C  -2.664175  -0.669370  -0.047965
H  -4.960522  -0.379590  -0.504988
H  -3.881911   0.372776  -0.269281
H  -4.252829   1.480165   1.272471
C  -1.342904   0.110325  -0.133047
H  -2.859185  -1.407760  -0.905334
H  -2.639151  -1.150578   0.874485
C  -0.187066  -0.672199   0.159845
H  -1.484394   0.575874   0.590692
H  -1.063010   1.141583  -1.404638
H  -0.357393  -1.270553   1.059164
H   0.855727   0.004535  -0.106649
H  -0.139769  -1.177154  -0.539994
