14
butane_opt
C  -3.939650   0.259340   0.024149
C  -2.708945  -0.598945   0.028208
H  -4.859510  -0.347563  -0.027868
H  -3.931174   0.793233  -0.826170
H  -3.891162   0.956602   0.904579
C  -1.406197   0.185391   0.004685
H  -2.724404  -1.279204  -0.840907
H  -2.651699  -1.212371   0.913258
C  -0.163361  -0.698692   0.041003
H  -1.399417   0.854693   0.871701
H  -1.389977   0.815321  -0.876839
H  -0.092156  -1.409604   0.994555
H   0.719388  -0.107143  -0.083080
H  -0.186660  -1.304107  -0.759967
