14
butane_opt
C  -3.858429   0.195945  -0.137228
C  -2.729982  -0.558004   0.219549
H  -4.851894  -0.440977  -0.523876
H  -3.688563   0.646078  -0.907060
H  -4.236187   1.017736   0.944954
C  -1.448360   0.294975   0.154898
H  -2.872761  -1.099821  -0.634015
H  -2.792253  -1.309020   1.216353
C  -0.141408  -0.783701  -0.061996
H  -1.359372   0.815162   0.912941
H  -1.399075   1.107098  -0.825266
H   0.127700  -1.071627   0.534015
H   0.666209  -0.383365  -0.400515
H  -0.392569  -1.591170  -1.017026
