14
butane_opt
C  -3.899594   0.193335   0.183361
C  -2.718809  -0.506246  -0.148118
H  -4.990089  -0.686946  -0.046850
H  -3.672185   0.667472  -0.741560
H  -3.651707   1.169135   1.308680
C  -1.420978   0.247396  -0.088664
H  -2.797734  -1.580236  -1.288867
H  -2.460806  -0.769682   0.606592
C  -0.202996  -0.782045   0.188887
H  -1.323130   0.830631   0.643550
H  -1.453087   1.117195  -1.159158
H  -0.258308  -2.006282   1.434754
H   0.684823  -0.251025  -0.524618
H  -0.124906  -0.824043  -0.339250
