14
butane_opt
C  -3.983307   0.346957  -0.124217
C  -2.684786  -0.685736   0.281918
H  -4.841317  -0.214857  -0.626251
H  -3.735231   0.832924  -1.082219
H  -4.555577   1.243608   0.917763
C  -1.363185   0.076110   0.132933
H  -2.629425  -1.272393  -0.377878
H  -3.036469  -1.363970   1.130608
C  -0.117035  -0.620467  -0.153199
H  -1.173183   0.624262   0.978768
H  -1.429969   0.685707  -0.686339
H  -0.522721  -0.963508   0.635622
H   0.793163  -0.004549  -0.033436
H  -0.122057  -1.416994  -1.081047
