butane_opt
 OpenBabel08242015393D

 14 11  0  0  0  0  0  0  0  0999 V2000
   -3.9545    0.3131   -0.0025 C   0  0  0  0  0  0  0  0  0  0  0  0
   -2.7083   -0.6963    0.0418 C   0  0  0  0  0  0  0  0  0  0  0  0
   -4.6829   -0.0969    0.4143 H   0  0  0  0  0  0  0  0  0  0  0  0
   -4.2734    1.6152   -1.4331 H   0  0  0  0  0  0  0  0  0  0  0  0
   -3.9305    0.4055    0.3517 H   0  0  0  0  0  0  0  0  0  0  0  0
   -1.3929    0.1336    0.1415 C   0  0  0  0  0  0  0  0  0  0  0  0
   -3.0157   -1.4294   -0.7215 H   0  0  0  0  0  0  0  0  0  0  0  0
   -2.5762   -1.1445    0.7839 H   0  0  0  0  0  0  0  0  0  0  0  0
   -0.1780   -0.6530   -0.0429 C   0  0  0  0  0  0  0  0  0  0  0  0
   -1.2318    0.8791    1.0442 H   0  0  0  0  0  0  0  0  0  0  0  0
   -1.2382    0.5879   -0.6619 H   0  0  0  0  0  0  0  0  0  0  0  0
   -0.0034   -1.0887    0.6065 H   0  0  0  0  0  0  0  0  0  0  0  0
    0.7613   -0.0215    0.0526 H   0  0  0  0  0  0  0  0  0  0  0  0
   -0.0750   -1.2735   -0.7610 H   0  0  0  0  0  0  0  0  0  0  0  0
  1  2  1  0  0  0  0
  1  3  1  0  0  0  0
  2  6  1  0  0  0  0
  2  8  1  0  0  0  0
  6 10  1  0  0  0  0
  7  2  1  0  0  0  0
  9 13  1  0  0  0  0
  9  6  1  0  0  0  0
  9 12  1  0  0  0  0
 11  6  1  0  0  0  0
 14  9  1  0  0  0  0
M  RAD  3   1   3   4   2   5   2
M  END
$$$$
