butane_opt
 OpenBabel08242015393D

 14 13  0  0  0  0  0  0  0  0999 V2000
   -3.9119    0.2990   -0.1594 C   0  0  0  0  0  0  0  0  0  0  0  0
   -2.6988   -0.6385    0.2722 C   0  0  0  0  0  0  0  0  0  0  0  0
   -4.7863   -0.3301   -0.6468 H   0  0  0  0  0  0  0  0  0  0  0  0
   -3.2578    0.8821   -1.1786 H   0  0  0  0  0  0  0  0  0  0  0  0
   -4.3838    1.2326    0.8489 H   0  0  0  0  0  0  0  0  0  0  0  0
   -1.4153    0.1292    0.1740 C   0  0  0  0  0  0  0  0  0  0  0  0
   -2.4147   -1.0734   -0.2864 H   0  0  0  0  0  0  0  0  0  0  0  0
   -2.8763   -1.5506    1.2879 H   0  0  0  0  0  0  0  0  0  0  0  0
   -0.1986   -0.6802   -0.1840 C   0  0  0  0  0  0  0  0  0  0  0  0
   -1.2983    0.9950    1.2621 H   0  0  0  0  0  0  0  0  0  0  0  0
   -1.6326    0.4510   -0.3556 H   0  0  0  0  0  0  0  0  0  0  0  0
   -0.2244   -1.2109    0.7812 H   0  0  0  0  0  0  0  0  0  0  0  0
    0.9898    0.0926   -0.4432 H   0  0  0  0  0  0  0  0  0  0  0  0
   -0.4769   -1.2244   -1.0461 H   0  0  0  0  0  0  0  0  0  0  0  0
  1  2  1  0  0  0  0
  1  5  1  0  0  0  0
  2  8  1  0  0  0  0
  3  1  1  0  0  0  0
  4  1  1  0  0  0  0
  6  2  1  0  0  0  0
  6 10  1  0  0  0  0
  7  2  1  0  0  0  0
  9  6  1  0  0  0  0
  9 12  1  0  0  0  0
 11  6  1  0  0  0  0
 13  9  1  0  0  0  0
 14  9  1  0  0  0  0
M  END
$$$$
