butane_opt
 OpenBabel08242015393D

 14 10  0  0  0  0  0  0  0  0999 V2000
   -4.0148    0.2291    0.0925 C   0  0  0  0  0  0  0  0  0  0  0  0
   -2.7679   -0.5780    0.0708 C   0  0  0  0  0  0  0  0  0  0  0  0
   -5.0271   -0.5062   -0.4764 H   0  0  0  0  0  0  0  0  0  0  0  0
   -3.3941    0.3383   -0.7246 H   0  0  0  0  0  0  0  0  0  0  0  0
   -4.1891    1.4092    1.2566 H   0  0  0  0  0  0  0  0  0  0  0  0
   -1.4036    0.2645   -0.1052 C   0  0  0  0  0  0  0  0  0  0  0  0
   -2.5518   -1.3192   -0.8461 H   0  0  0  0  0  0  0  0  0  0  0  0
   -2.7910   -1.0638    0.9249 H   0  0  0  0  0  0  0  0  0  0  0  0
   -0.0691   -0.7304    0.0639 C   0  0  0  0  0  0  0  0  0  0  0  0
   -1.3721    0.6331    0.5010 H   0  0  0  0  0  0  0  0  0  0  0  0
   -1.5157    0.9312   -1.0211 H   0  0  0  0  0  0  0  0  0  0  0  0
   -0.1675   -1.4869    0.9854 H   0  0  0  0  0  0  0  0  0  0  0  0
    0.7515   -0.1840    0.1874 H   0  0  0  0  0  0  0  0  0  0  0  0
    0.3018   -1.4620   -0.7171 H   0  0  0  0  0  0  0  0  0  0  0  0
  2  8  1  0  0  0  0
  3  1  1  0  0  0  0
  4  1  1  0  0  0  0
  6  9  1  0  0  0  0
  6 10  1  0  0  0  0
  7  2  1  0  0  0  0
  9 13  1  0  0  0  0
  9 12  1  0  0  0  0
 11  6  1  0  0  0  0
 14  9  1  0  0  0  0
M  RAD  4   1   3   2   3   5   2   6   2
M  END
$$$$
