butane_opt
 OpenBabel08242015393D

 14 12  0  0  0  0  0  0  0  0999 V2000
   -3.9875    0.3107    0.1483 C   0  0  0  0  0  0  0  0  0  0  0  0
   -2.7875   -0.6646   -0.0268 C   0  0  0  0  0  0  0  0  0  0  0  0
   -4.8259   -0.2248   -0.4403 H   0  0  0  0  0  0  0  0  0  0  0  0
   -3.8995    0.4749   -0.2572 H   0  0  0  0  0  0  0  0  0  0  0  0
   -4.3107    1.2731    1.0882 H   0  0  0  0  0  0  0  0  0  0  0  0
   -1.3500    0.1859   -0.1554 C   0  0  0  0  0  0  0  0  0  0  0  0
   -2.8383   -1.3561   -0.9481 H   0  0  0  0  0  0  0  0  0  0  0  0
   -2.5570   -1.2047    0.7839 H   0  0  0  0  0  0  0  0  0  0  0  0
   -0.0828   -0.7057    0.1131 C   0  0  0  0  0  0  0  0  0  0  0  0
   -1.5834    0.7368    0.6292 H   0  0  0  0  0  0  0  0  0  0  0  0
   -1.1700    0.8656   -1.2062 H   0  0  0  0  0  0  0  0  0  0  0  0
   -0.2795   -1.4630    1.1814 H   0  0  0  0  0  0  0  0  0  0  0  0
    0.9804    0.0236    0.2338 H   0  0  0  0  0  0  0  0  0  0  0  0
   -0.0669   -1.1139   -0.5259 H   0  0  0  0  0  0  0  0  0  0  0  0
  1  5  1  0  0  0  0
  2  1  1  0  0  0  0
  2  8  1  0  0  0  0
  3  1  1  0  0  0  0
  6  2  1  0  0  0  0
  6  9  1  0  0  0  0
  6 10  1  0  0  0  0
  7  2  1  0  0  0  0
  9 13  1  0  0  0  0
  9 12  1  0  0  0  0
 11  6  1  0  0  0  0
 14  9  1  0  0  0  0
M  RAD  2   1   2   4   2
M  END
$$$$
