butane_opt
 OpenBabel08242015393D

 14 11  0  0  0  0  0  0  0  0999 V2000
   -3.9426    0.3044   -0.1307 C   0  0  0  0  0  0  0  0  0  0  0  0
   -2.6859   -0.5918    0.0862 C   0  0  0  0  0  0  0  0  0  0  0  0
   -4.7968   -0.2633    0.8908 H   0  0  0  0  0  0  0  0  0  0  0  0
   -4.1556    1.2917   -1.3369 H   0  0  0  0  0  0  0  0  0  0  0  0
   -3.5937    0.5471    0.4272 H   0  0  0  0  0  0  0  0  0  0  0  0
   -1.4190    0.1036    0.1849 C   0  0  0  0  0  0  0  0  0  0  0  0
   -2.6004   -1.3751   -0.6552 H   0  0  0  0  0  0  0  0  0  0  0  0
   -2.7003   -1.2788    0.9826 H   0  0  0  0  0  0  0  0  0  0  0  0
   -0.1982   -0.6602   -0.0565 C   0  0  0  0  0  0  0  0  0  0  0  0
   -1.0735    0.6833    1.0463 H   0  0  0  0  0  0  0  0  0  0  0  0
   -1.3668    0.4897   -0.5675 H   0  0  0  0  0  0  0  0  0  0  0  0
   -0.0876   -0.9548    0.5715 H   0  0  0  0  0  0  0  0  0  0  0  0
    0.6801   -0.0021    0.0027 H   0  0  0  0  0  0  0  0  0  0  0  0
   -0.4040   -1.4135   -0.9651 H   0  0  0  0  0  0  0  0  0  0  0  0
  1  5  1  0  0  0  0
  1  3  1  0  0  0  0
  2  6  1  0  0  0  0
  2  8  1  0  0  0  0
  6 10  1  0  0  0  0
  7  2  1  0  0  0  0
  9 13  1  0  0  0  0
  9  6  1  0  0  0  0
  9 12  1  0  0  0  0
 11  6  1  0  0  0  0
 14  9  1  0  0  0  0
M  RAD  3   1   3   2   2   4   2
M  END
$$$$
