14
butane_opt
C  -3.850852   0.182408   0.025627
C  -2.703149  -0.553501  -0.059755
H  -4.805585  -0.473790   0.066272
H  -4.089746   0.755057  -0.917081
H  -3.951084   0.891768   1.034381
C  -1.466654   0.251336   0.051557
H  -2.693858  -1.037859  -0.775872
H  -2.583943  -1.083571   0.732466
C  -0.173777  -0.744991   0.047508
H  -1.460580   1.188701   0.956589
H  -1.589742   0.730501  -0.677898
H   0.363544  -1.930177   1.364637
H   0.777471  -0.162841  -0.588026
H  -0.600769  -0.992045  -0.460863
