butane_opt
 OpenBabel08242015393D

 14 13  0  0  0  0  0  0  0  0999 V2000
   -3.9752    0.2954   -0.2113 C   0  0  0  0  0  0  0  0  0  0  0  0
   -2.7175   -0.6515    0.3732 C   0  0  0  0  0  0  0  0  0  0  0  0
   -4.9478   -0.3769   -0.9672 H   0  0  0  0  0  0  0  0  0  0  0  0
   -3.5361    0.5613   -0.8662 H   0  0  0  0  0  0  0  0  0  0  0  0
   -4.2198    1.1623    0.8083 H   0  0  0  0  0  0  0  0  0  0  0  0
   -1.3772    0.2530    0.1994 C   0  0  0  0  0  0  0  0  0  0  0  0
   -2.8406   -1.2708   -0.5582 H   0  0  0  0  0  0  0  0  0  0  0  0
   -2.9613   -1.4767    1.3847 H   0  0  0  0  0  0  0  0  0  0  0  0
   -0.1544   -0.7095   -0.1683 C   0  0  0  0  0  0  0  0  0  0  0  0
   -1.1242    0.8180    1.0462 H   0  0  0  0  0  0  0  0  0  0  0  0
   -1.5004    0.9381   -0.7929 H   0  0  0  0  0  0  0  0  0  0  0  0
    0.2385   -1.1920    0.5122 H   0  0  0  0  0  0  0  0  0  0  0  0
    0.7309   -0.3064   -0.2220 H   0  0  0  0  0  0  0  0  0  0  0  0
   -0.1973   -1.5804   -1.2260 H   0  0  0  0  0  0  0  0  0  0  0  0
  1  2  1  0  0  0  0
  1  5  1  0  0  0  0
  2  8  1  0  0  0  0
  3  1  1  0  0  0  0
  4  1  1  0  0  0  0
  6  2  1  0  0  0  0
  6 10  1  0  0  0  0
  7  2  1  0  0  0  0
  9  6  1  0  0  0  0
  9 12  1  0  0  0  0
 11  6  1  0  0  0  0
 13  9  1  0  0  0  0
 14  9  1  0  0  0  0
M  END
$$$$
