butane_opt
 OpenBabel08242015393D

 14 13  0  0  0  0  0  0  0  0999 V2000
   -3.9435    0.2659    0.0603 C   0  0  0  0  0  0  0  0  0  0  0  0
   -2.6873   -0.6190   -0.0097 C   0  0  0  0  0  0  0  0  0  0  0  0
   -4.8347   -0.2902    0.1436 H   0  0  0  0  0  0  0  0  0  0  0  0
   -3.9963    0.9160   -0.8894 H   0  0  0  0  0  0  0  0  0  0  0  0
   -3.9499    0.9046    0.8981 H   0  0  0  0  0  0  0  0  0  0  0  0
   -1.4017    0.1791   -0.0220 C   0  0  0  0  0  0  0  0  0  0  0  0
   -2.7276   -1.3709   -0.9190 H   0  0  0  0  0  0  0  0  0  0  0  0
   -2.6158   -1.2374    0.8613 H   0  0  0  0  0  0  0  0  0  0  0  0
   -0.1804   -0.6830    0.0694 C   0  0  0  0  0  0  0  0  0  0  0  0
   -1.3995    0.8319    0.8084 H   0  0  0  0  0  0  0  0  0  0  0  0
   -1.3700    0.8333   -0.9022 H   0  0  0  0  0  0  0  0  0  0  0  0
   -0.1793   -1.3328    0.9868 H   0  0  0  0  0  0  0  0  0  0  0  0
    0.7416   -0.1073    0.0393 H   0  0  0  0  0  0  0  0  0  0  0  0
   -0.1348   -1.3258   -0.7629 H   0  0  0  0  0  0  0  0  0  0  0  0
  1  3  1  0  0  0  0
  1  5  1  0  0  0  0
  2  1  1  0  0  0  0
  2  8  1  0  0  0  0
  4  1  1  0  0  0  0
  6  2  1  0  0  0  0
  6  9  1  0  0  0  0
  6 10  1  0  0  0  0
  7  2  1  0  0  0  0
  9 12  1  0  0  0  0
 11  6  1  0  0  0  0
 13  9  1  0  0  0  0
 14  9  1  0  0  0  0
M  END
$$$$
