butane_opt
 OpenBabel08242015393D

 14  9  0  0  0  0  0  0  0  0999 V2000
   -3.9571    0.2088    0.1990 C   0  0  0  0  0  1  0  0  0  0  0  0
   -2.7649   -0.5488   -0.1344 C   0  0  0  0  0  0  0  0  0  0  0  0
   -5.0187   -0.5258    0.7403 H   0  0  0  0  0  0  0  0  0  0  0  0
   -4.0991    1.2447   -0.9142 H   0  0  0  0  0  0  0  0  0  0  0  0
   -3.5436    0.3353    0.5563 H   0  0  0  0  0  0  0  0  0  0  0  0
   -1.4279    0.2444   -0.1256 C   0  0  0  0  0  0  0  0  0  0  0  0
   -2.7817   -1.6263   -1.3595 H   0  0  0  0  0  0  0  0  0  0  0  0
   -2.5779   -0.7705    0.5228 H   0  0  0  0  0  0  0  0  0  0  0  0
   -0.1033   -0.7606    0.1827 C   0  0  0  0  0  0  0  0  0  0  0  0
   -1.6079    1.1526    0.7908 H   0  0  0  0  0  0  0  0  0  0  0  0
   -1.3514    0.9948   -1.2040 H   0  0  0  0  0  0  0  0  0  0  0  0
    0.0980   -1.4095    1.0906 H   0  0  0  0  0  0  0  0  0  0  0  0
    0.7735   -0.2476    0.3000 H   0  0  0  0  0  0  0  0  0  0  0  0
    0.1246   -1.3797   -0.5621 H   0  0  0  0  0  0  0  0  0  0  0  0
  1  3  1  0  0  0  0
  2  8  1  0  0  0  0
  2  5  1  0  0  0  0
  6  9  1  0  0  0  0
  6 10  1  0  0  0  0
  9 13  1  0  0  0  0
  9 12  1  0  0  0  0
 11  6  1  0  0  0  0
 14  9  1  0  0  0  0
M  RAD  4   2   3   4   2   6   2   7   2
M  END
$$$$
