14
butane_opt
C  -3.966745   0.316478  -0.082636
C  -2.689238  -0.630831   0.135852
H  -4.747151  -0.275080   0.085275
H  -4.052952   0.961722  -0.973005
H  -3.976016   0.856917   0.756802
C  -1.342468   0.075248   0.046929
H  -2.252997  -1.096375  -0.487068
H  -2.743212  -1.422061   1.217497
C  -0.258572  -0.652303  -0.056369
H  -1.195187   1.030368   1.156981
H  -1.292804   0.608315  -0.733432
H  -0.200618  -1.011403   0.574011
H   0.742461   0.053316   0.303000
H  -0.234290  -1.468892  -0.996225
