butane_opt
 OpenBabel08242015393D

 14  9  0  0  0  0  0  0  0  0999 V2000
   -3.9770    0.2189   -0.1355 C   0  0  0  0  0  0  0  0  0  0  0  0
   -2.7185   -0.6088    0.1294 C   0  0  0  0  0  0  0  0  0  0  0  0
   -4.8120   -0.3480    0.5114 H   0  0  0  0  0  0  0  0  0  0  0  0
   -4.1552    1.4469   -1.5366 H   0  0  0  0  0  0  0  0  0  0  0  0
   -3.7154    0.2966    0.4904 H   0  0  0  0  0  0  0  0  0  0  0  0
   -1.3964    0.2591    0.2419 C   0  0  0  0  0  0  0  0  0  0  0  0
   -2.4727   -1.1383   -0.5516 H   0  0  0  0  0  0  0  0  0  0  0  0
   -3.1164   -1.3980    1.1323 H   0  0  0  0  0  0  0  0  0  0  0  0
   -0.0975   -0.7332   -0.1128 C   0  0  0  0  0  0  0  0  0  0  0  0
   -1.4079    1.3049    1.1932 H   0  0  0  0  0  0  0  0  0  0  0  0
   -1.7764    0.8049   -0.5705 H   0  0  0  0  0  0  0  0  0  0  0  0
   -0.0070   -1.1849    0.6304 H   0  0  0  0  0  0  0  0  0  0  0  0
    0.7973   -0.1602   -0.1072 H   0  0  0  0  0  0  0  0  0  0  0  0
   -0.0888   -1.7163   -1.2968 H   0  0  0  0  0  0  0  0  0  0  0  0
  1  5  1  0  0  0  0
  1  3  1  0  0  0  0
  2  8  1  0  0  0  0
  6 10  1  0  0  0  0
  7  2  1  0  0  0  0
  9 13  1  0  0  0  0
  9  6  1  0  0  0  0
  9 12  1  0  0  0  0
 11  6  1  0  0  0  0
M  RAD  6   1   3   2   3   4   2   6   2   9   2  14   2
M  END
$$$$
