butane_opt
 OpenBabel08242015393D

 14 12  0  0  0  0  0  0  0  0999 V2000
   -4.0082    0.3093    0.2453 C   0  0  0  0  0  0  0  0  0  0  0  0
   -2.6941   -0.6824   -0.2348 C   0  0  0  0  0  0  0  0  0  0  0  0
   -4.5763    0.0827    0.5350 H   0  0  0  0  0  0  0  0  0  0  0  0
   -4.5127    1.3136   -0.8776 H   0  0  0  0  0  0  0  0  0  0  0  0
   -3.7824    0.5722    0.8349 H   0  0  0  0  0  0  0  0  0  0  0  0
   -1.3000    0.1308   -0.1203 C   0  0  0  0  0  0  0  0  0  0  0  0
   -3.0517   -1.7143   -1.2701 H   0  0  0  0  0  0  0  0  0  0  0  0
   -2.5218   -1.0297    0.3238 H   0  0  0  0  0  0  0  0  0  0  0  0
   -0.1862   -0.6312    0.2165 C   0  0  0  0  0  0  0  0  0  0  0  0
   -1.4859    0.5564    0.6449 H   0  0  0  0  0  0  0  0  0  0  0  0
   -1.3585    0.9435   -1.0189 H   0  0  0  0  0  0  0  0  0  0  0  0
   -0.2368   -1.4748    1.3007 H   0  0  0  0  0  0  0  0  0  0  0  0
    0.8498    0.0213    0.0484 H   0  0  0  0  0  0  0  0  0  0  0  0
   -0.1511   -1.1638   -0.4045 H   0  0  0  0  0  0  0  0  0  0  0  0
  1  3  1  0  0  0  0
  1  5  1  0  0  0  0
  2  6  1  0  0  0  0
  2  1  1  0  0  0  0
  2  8  1  0  0  0  0
  6  9  1  0  0  0  0
  6 10  1  0  0  0  0
  7  2  1  0  0  0  0
  9 12  1  0  0  0  0
 11  6  1  0  0  0  0
 13  9  1  0  0  0  0
 14  9  1  0  0  0  0
M  RAD  2   1   2   4   2
M  END
$$$$
