14
butane_opt
C  -3.896470   0.236563   0.125697
C  -2.734628  -0.535552   0.018982
H  -4.920793  -0.594770  -0.681281
H  -3.517848   0.436841  -0.559537
H  -4.401058   1.268018   1.253555
C  -1.426168   0.166649  -0.105009
H  -2.836806  -1.432299  -0.979680
H  -2.695089  -1.076634   0.966870
C  -0.109145  -0.724008   0.109549
H  -1.691941   0.803377   0.657245
H  -1.534256   1.063908  -1.234733
H  -0.140393  -1.305603   1.082247
H   0.763156  -0.269246  -0.186927
H  -0.015678  -1.125497  -0.628218
