butane_opt
 OpenBabel08242015393D

 14  8  0  0  0  0  0  0  0  0999 V2000
   -3.8556    0.2013   -0.1128 C   0  0  0  0  0  1  0  0  0  0  0  0
   -2.7178   -0.5620    0.1066 C   0  0  0  0  0  0  0  0  0  0  0  0
   -4.8263   -0.4407    0.6951 H   0  0  0  0  0  0  0  0  0  0  0  0
   -3.8677    1.5392   -1.4495 H   0  0  0  0  0  0  0  0  0  0  0  0
   -3.6471    0.3258    0.4426 H   0  0  0  0  0  0  0  0  0  0  0  0
   -1.4581    0.2135    0.1381 C   0  0  0  0  0  1  0  0  0  0  0  0
   -2.6117   -0.9384   -0.5395 H   0  0  0  0  0  0  0  0  0  0  0  0
   -2.6974   -1.2206    0.9946 H   0  0  0  0  0  0  0  0  0  0  0  0
   -0.2379   -0.7275   -0.0837 C   0  0  0  0  0  0  0  0  0  0  0  0
   -1.1748    1.3404    1.2600 H   0  0  0  0  0  0  0  0  0  0  0  0
   -1.4972    0.4539   -0.3327 H   0  0  0  0  0  0  0  0  0  0  0  0
    0.1377   -1.1657    0.7739 H   0  0  0  0  0  0  0  0  0  0  0  0
    0.5933   -0.2426    0.0762 H   0  0  0  0  0  0  0  0  0  0  0  0
   -0.1873   -1.6560   -1.1253 H   0  0  0  0  0  0  0  0  0  0  0  0
  1  3  1  0  0  0  0
  2  5  1  0  0  0  0
  2  8  1  0  0  0  0
  7  2  1  0  0  0  0
  9 13  1  0  0  0  0
  9  6  1  0  0  0  0
  9 12  1  0  0  0  0
 14  9  1  0  0  0  0
M  RAD  4   2   2   4   2  10   2  11   2
M  END
$$$$
