14
butane_opt
C  -3.921466   0.295542  -0.044175
C  -2.690324  -0.633455   0.175948
H  -4.783361  -0.290648  -0.321162
H  -3.387764   0.506642  -0.702191
H  -4.100752   1.135151   0.951876
C  -1.431875   0.191467   0.025022
H  -2.587979  -1.434772  -0.678959
H  -2.733332  -1.081684   0.875854
C  -0.202363  -0.693724  -0.059936
H  -1.266660   0.625876   0.847129
H  -1.339854   0.867931  -0.868417
H  -0.341035  -1.371573   0.958422
H   0.587087  -0.069092   0.105000
H  -0.148989  -1.278918  -0.833535
