14
butane_opt
C  -3.974008   0.242350  -0.107878
C  -2.727244  -0.625220   0.251880
H  -4.961186  -0.295612  -0.110143
H  -3.889343   0.916917  -1.071263
H  -4.163913   0.773115   0.568375
C  -1.424756   0.191632   0.046330
H  -2.627846  -0.968648  -0.409111
H  -3.043232  -1.176450   1.314501
C  -0.076005  -0.702944  -0.084778
H  -1.208561   1.043240   1.054863
H  -1.698078   0.715441  -0.736423
H  -0.253954  -0.710553   0.368649
H   0.801648  -0.210754   0.484746
H   0.436853  -1.886936  -1.354197
