butane_opt
 OpenBabel08242015393D

 14 12  0  0  0  0  0  0  0  0999 V2000
   -3.8713    0.1900   -0.1387 C   0  0  0  0  0  0  0  0  0  0  0  0
   -2.7127   -0.4844    0.2298 C   0  0  0  0  0  0  0  0  0  0  0  0
   -4.6728   -0.4254   -0.6358 H   0  0  0  0  0  0  0  0  0  0  0  0
   -3.3370    0.5049   -0.9432 H   0  0  0  0  0  0  0  0  0  0  0  0
   -4.2281    0.9726    0.8587 H   0  0  0  0  0  0  0  0  0  0  0  0
   -1.4097    0.2166    0.1254 C   0  0  0  0  0  0  0  0  0  0  0  0
   -2.9630   -0.8765   -0.3606 H   0  0  0  0  0  0  0  0  0  0  0  0
   -2.7453   -1.4331    1.4666 H   0  0  0  0  0  0  0  0  0  0  0  0
   -0.1933   -0.7643   -0.1290 C   0  0  0  0  0  0  0  0  0  0  0  0
   -1.5166    1.1252    1.2062 H   0  0  0  0  0  0  0  0  0  0  0  0
   -1.7973    0.7145   -0.6656 H   0  0  0  0  0  0  0  0  0  0  0  0
   -0.1502   -1.2218    0.7430 H   0  0  0  0  0  0  0  0  0  0  0  0
    0.7576   -0.1796   -0.1967 H   0  0  0  0  0  0  0  0  0  0  0  0
   -0.1312   -1.5503   -1.1185 H   0  0  0  0  0  0  0  0  0  0  0  0
  1  2  1  0  0  0  0
  1  5  1  0  0  0  0
  3  1  1  0  0  0  0
  4  1  1  0  0  0  0
  6  2  1  0  0  0  0
  6 10  1  0  0  0  0
  7  2  1  0  0  0  0
  9  6  1  0  0  0  0
  9 12  1  0  0  0  0
 11  6  1  0  0  0  0
 13  9  1  0  0  0  0
 14  9  1  0  0  0  0
M  RAD  2   2   2   8   2
M  END
$$$$
