14
butane_opt
C  -4.028446   0.297801  -0.158787
C  -2.649630  -0.669206   0.203211
H  -4.880155  -0.127303  -0.134077
H  -3.998296   0.887538  -1.119071
H  -4.352682   1.157753   0.658735
C  -1.373144   0.086123   0.182995
H  -2.512083  -1.159656  -0.546214
H  -2.707649  -1.399582   1.188317
C  -0.134835  -0.640929  -0.128961
H  -1.208363   1.040050   1.262027
H  -1.239437   0.457501  -0.380438
H  -0.039286  -1.243962   0.794518
H   0.731937  -0.079230  -0.591363
H  -0.546139  -0.904072  -0.862412
