butane_opt
 OpenBabel08242015393D

 14 12  0  0  0  0  0  0  0  0999 V2000
   -3.9112    0.2308    0.1260 C   0  0  0  0  0  0  0  0  0  0  0  0
   -2.6779   -0.5924    0.0023 C   0  0  0  0  0  0  0  0  0  0  0  0
   -4.6986   -0.3225    0.0297 H   0  0  0  0  0  0  0  0  0  0  0  0
   -4.0510    0.7718   -0.6258 H   0  0  0  0  0  0  0  0  0  0  0  0
   -3.8398    0.7422    0.8395 H   0  0  0  0  0  0  0  0  0  0  0  0
   -1.4087    0.2346   -0.1174 C   0  0  0  0  0  0  0  0  0  0  0  0
   -2.8587   -1.4473   -0.9638 H   0  0  0  0  0  0  0  0  0  0  0  0
   -2.4718   -1.0226    0.7392 H   0  0  0  0  0  0  0  0  0  0  0  0
   -0.1847   -0.6823    0.1116 C   0  0  0  0  0  0  0  0  0  0  0  0
   -1.4672    0.6191    0.4992 H   0  0  0  0  0  0  0  0  0  0  0  0
   -1.6866    1.0932   -1.2860 H   0  0  0  0  0  0  0  0  0  0  0  0
   -0.6827   -1.1149    0.9172 H   0  0  0  0  0  0  0  0  0  0  0  0
    0.6201   -0.3673    0.7453 H   0  0  0  0  0  0  0  0  0  0  0  0
    0.3086   -1.7343   -0.9606 H   0  0  0  0  0  0  0  0  0  0  0  0
  1  5  1  0  0  0  0
  2  1  1  0  0  0  0
  2  8  1  0  0  0  0
  3  1  1  0  0  0  0
  4  1  1  0  0  0  0
  6  2  1  0  0  0  0
  6  9  1  0  0  0  0
  6 10  1  0  0  0  0
  7  2  1  0  0  0  0
  9 13  1  0  0  0  0
  9 12  1  0  0  0  0
 11  6  1  0  0  0  0
M  RAD  2   9   2  14   2
M  END
$$$$
