14
butane_opt
C  -3.912897   0.323349   0.124502
C  -2.641848  -0.732913  -0.137989
H  -4.906450  -0.314544  -0.086797
H  -3.923566   0.763723  -0.561485
H  -3.869565   1.234198   1.202944
C  -1.408071   0.152449  -0.001023
H  -2.632684  -1.457065  -1.031621
H  -2.377526  -1.048368   0.548628
C  -0.244588  -0.614613   0.150284
H  -1.766641   0.682486   0.693173
H  -1.173243   0.846224  -1.156587
H  -0.036680  -1.808252   1.535126
H   0.613827  -0.141067  -0.846931
H  -0.491767  -0.767107  -0.449375
