butane_opt
 OpenBabel08242015393D

 14 13  0  0  0  0  0  0  0  0999 V2000
   -3.8683    0.2378    0.1431 C   0  0  0  0  0  0  0  0  0  0  0  0
   -2.6958   -0.5944   -0.0263 C   0  0  0  0  0  0  0  0  0  0  0  0
   -4.8858   -0.4398   -0.1986 H   0  0  0  0  0  0  0  0  0  0  0  0
   -3.7230    0.7702   -0.7450 H   0  0  0  0  0  0  0  0  0  0  0  0
   -4.0232    1.2332    1.2313 H   0  0  0  0  0  0  0  0  0  0  0  0
   -1.4205    0.2189   -0.1785 C   0  0  0  0  0  0  0  0  0  0  0  0
   -2.8808   -1.2035   -0.8174 H   0  0  0  0  0  0  0  0  0  0  0  0
   -2.7631   -1.3820    0.9476 H   0  0  0  0  0  0  0  0  0  0  0  0
   -0.2104   -0.7458    0.0984 C   0  0  0  0  0  0  0  0  0  0  0  0
   -1.6552    0.9374    0.7553 H   0  0  0  0  0  0  0  0  0  0  0  0
   -1.4235    0.8942   -0.9555 H   0  0  0  0  0  0  0  0  0  0  0  0
   -0.5726   -1.1854    1.0364 H   0  0  0  0  0  0  0  0  0  0  0  0
    0.9387   -0.0357    0.4222 H   0  0  0  0  0  0  0  0  0  0  0  0
    0.3061   -1.4548   -0.6956 H   0  0  0  0  0  0  0  0  0  0  0  0
  1  5  1  0  0  0  0
  2  1  1  0  0  0  0
  2  8  1  0  0  0  0
  3  1  1  0  0  0  0
  4  1  1  0  0  0  0
  6  2  1  0  0  0  0
  6  9  1  0  0  0  0
  6 10  1  0  0  0  0
  7  2  1  0  0  0  0
  9 13  1  0  0  0  0
  9 12  1  0  0  0  0
 11  6  1  0  0  0  0
 14  9  1  0  0  0  0
M  END
$$$$
