14
butane_opt
C  -3.896919   0.254433   0.124530
C  -2.643674  -0.627313  -0.149749
H  -4.749308  -0.161116   0.176156
H  -4.238163   0.623996  -0.600361
H  -3.628723   1.412968   1.309563
C  -1.402795   0.111999  -0.086291
H  -2.878086  -1.242733  -1.055841
H  -2.759124  -1.009775   0.664800
C  -0.239606  -0.669985   0.160445
H  -1.398560   0.877429   0.747218
H  -1.278498   0.921309  -1.184326
H  -0.142570  -1.895347   1.473556
H   0.740217   0.067984  -0.217569
H  -0.502170  -0.903477  -0.351767
