butane_opt
 OpenBabel08242015393D

 14 10  0  0  0  0  0  0  0  0999 V2000
   -4.0023    0.3458   -0.0552 C   0  0  0  0  0  0  0  0  0  0  0  0
   -2.7076   -0.7428    0.0958 C   0  0  0  0  0  0  0  0  0  0  0  0
   -4.6375    0.0172    0.6499 H   0  0  0  0  0  0  0  0  0  0  0  0
   -3.9527    1.5699   -1.3785 H   0  0  0  0  0  0  0  0  0  0  0  0
   -4.0087    0.2436    0.2456 H   0  0  0  0  0  0  0  0  0  0  0  0
   -1.3707    0.1761    0.1357 C   0  0  0  0  0  0  0  0  0  0  0  0
   -2.8298   -1.3726   -0.7516 H   0  0  0  0  0  0  0  0  0  0  0  0
   -2.7977   -1.3620    0.9433 H   0  0  0  0  0  0  0  0  0  0  0  0
   -0.1340   -0.6474   -0.0568 C   0  0  0  0  0  0  0  0  0  0  0  0
   -1.1644    0.8148    1.1106 H   0  0  0  0  0  0  0  0  0  0  0  0
   -1.4248    0.6581   -0.5854 H   0  0  0  0  0  0  0  0  0  0  0  0
   -0.1652   -0.8397    0.5984 H   0  0  0  0  0  0  0  0  0  0  0  0
    0.6917    0.0740    0.2319 H   0  0  0  0  0  0  0  0  0  0  0  0
   -0.2352   -1.7988   -1.1585 H   0  0  0  0  0  0  0  0  0  0  0  0
  1  2  1  0  0  0  0
  1  3  1  0  0  0  0
  2  6  1  0  0  0  0
  2  8  1  0  0  0  0
  6 10  1  0  0  0  0
  7  2  1  0  0  0  0
  9  6  1  0  0  0  0
  9 13  1  0  0  0  0
  9 12  1  0  0  0  0
 11  6  1  0  0  0  0
M  RAD  5   1   3   4   2   5   2   9   2  14   2
M  END
$$$$
