butane_opt
 OpenBabel08242015393D

 14 13  0  0  0  0  0  0  0  0999 V2000
   -3.9922    0.2833    0.1036 C   0  0  0  0  0  0  0  0  0  0  0  0
   -2.6863   -0.6996   -0.0353 C   0  0  0  0  0  0  0  0  0  0  0  0
   -4.6761   -0.1982    0.1937 H   0  0  0  0  0  0  0  0  0  0  0  0
   -4.2430    1.2074   -0.8966 H   0  0  0  0  0  0  0  0  0  0  0  0
   -4.2624    1.1219    1.1067 H   0  0  0  0  0  0  0  0  0  0  0  0
   -1.3785    0.1738   -0.0803 C   0  0  0  0  0  0  0  0  0  0  0  0
   -2.8744   -1.4856   -0.9899 H   0  0  0  0  0  0  0  0  0  0  0  0
   -2.7235   -1.2414    0.8335 H   0  0  0  0  0  0  0  0  0  0  0  0
   -0.1201   -0.6564    0.1105 C   0  0  0  0  0  0  0  0  0  0  0  0
   -1.0336    0.6870    0.6987 H   0  0  0  0  0  0  0  0  0  0  0  0
   -1.3655    0.8895   -1.1953 H   0  0  0  0  0  0  0  0  0  0  0  0
   -0.6087   -1.0617    0.9803 H   0  0  0  0  0  0  0  0  0  0  0  0
    0.8144   -0.0958    0.3351 H   0  0  0  0  0  0  0  0  0  0  0  0
    0.1027   -1.4856   -0.8172 H   0  0  0  0  0  0  0  0  0  0  0  0
  1  3  1  0  0  0  0
  1  5  1  0  0  0  0
  2  1  1  0  0  0  0
  2  8  1  0  0  0  0
  4  1  1  0  0  0  0
  6  2  1  0  0  0  0
  6  9  1  0  0  0  0
  6 10  1  0  0  0  0
  7  2  1  0  0  0  0
  9 13  1  0  0  0  0
  9 12  1  0  0  0  0
 11  6  1  0  0  0  0
 14  9  1  0  0  0  0
M  END
$$$$
