butane_opt
 OpenBabel08242015393D

 14 12  0  0  0  0  0  0  0  0999 V2000
   -3.9360    0.2347   -0.1075 C   0  0  0  0  0  0  0  0  0  0  0  0
   -2.7160   -0.6397    0.1535 C   0  0  0  0  0  0  0  0  0  0  0  0
   -4.9043   -0.2386   -0.0695 H   0  0  0  0  0  0  0  0  0  0  0  0
   -3.8032    1.0552   -1.1941 H   0  0  0  0  0  0  0  0  0  0  0  0
   -4.1967    0.6306    0.5447 H   0  0  0  0  0  0  0  0  0  0  0  0
   -1.3807    0.2845    0.1726 C   0  0  0  0  0  0  0  0  0  0  0  0
   -2.9229   -1.0599   -0.6266 H   0  0  0  0  0  0  0  0  0  0  0  0
   -2.9463   -1.3095    1.2132 H   0  0  0  0  0  0  0  0  0  0  0  0
   -0.1544   -0.7635   -0.1326 C   0  0  0  0  0  0  0  0  0  0  0  0
   -1.4647    1.3839    1.4114 H   0  0  0  0  0  0  0  0  0  0  0  0
   -1.3426    0.6561   -0.4385 H   0  0  0  0  0  0  0  0  0  0  0  0
    0.1169   -1.5234    0.8823 H   0  0  0  0  0  0  0  0  0  0  0  0
    0.7849   -0.1289   -0.5002 H   0  0  0  0  0  0  0  0  0  0  0  0
   -0.0967   -1.3499   -0.8792 H   0  0  0  0  0  0  0  0  0  0  0  0
  1  3  1  0  0  0  0
  1  2  1  0  0  0  0
  1  5  1  0  0  0  0
  2  6  1  0  0  0  0
  2  8  1  0  0  0  0
  4  1  1  0  0  0  0
  7  2  1  0  0  0  0
  9  6  1  0  0  0  0
  9 12  1  0  0  0  0
 11  6  1  0  0  0  0
 13  9  1  0  0  0  0
 14  9  1  0  0  0  0
M  RAD  2   6   2  10   2
M  END
$$$$
