14
butane_opt
C  -3.957061   0.208828   0.198982
C  -2.764926  -0.548792  -0.134409
H  -5.018672  -0.525782   0.740341
H  -4.099068   1.244661  -0.914219
H  -3.543555   0.335252   0.556340
C  -1.427864   0.244369  -0.125558
H  -2.781714  -1.626272  -1.359537
H  -2.577922  -0.770484   0.522847
C  -0.103285  -0.760647   0.182653
H  -1.607919   1.152596   0.790844
H  -1.351401   0.994776  -1.203979
H   0.097956  -1.409451   1.090622
H   0.773499  -0.247552   0.300039
H   0.124621  -1.379661  -0.562142
