butane_opt
 OpenBabel08242015393D

 14 11  0  0  0  0  0  0  0  0999 V2000
   -3.9015    0.1883    0.1081 C   0  0  0  0  0  0  0  0  0  0  0  0
   -2.6133   -0.5202   -0.1537 C   0  0  0  0  0  0  0  0  0  0  0  0
   -4.9924   -0.4938    0.9678 H   0  0  0  0  0  0  0  0  0  0  0  0
   -4.4516    1.1779   -0.9333 H   0  0  0  0  0  0  0  0  0  0  0  0
   -3.2508    0.7154    0.8319 H   0  0  0  0  0  0  0  0  0  0  0  0
   -1.4536    0.2068   -0.0790 C   0  0  0  0  0  0  0  0  0  0  0  0
   -2.8015   -1.3775   -1.0752 H   0  0  0  0  0  0  0  0  0  0  0  0
   -2.7791   -1.1771    0.6923 H   0  0  0  0  0  0  0  0  0  0  0  0
   -0.2260   -0.7240    0.1627 C   0  0  0  0  0  0  0  0  0  0  0  0
   -1.6689    0.9421    0.8791 H   0  0  0  0  0  0  0  0  0  0  0  0
   -1.2596    0.8295   -0.9181 H   0  0  0  0  0  0  0  0  0  0  0  0
   -0.2963   -1.3330    1.0833 H   0  0  0  0  0  0  0  0  0  0  0  0
    0.6399   -0.1738    0.0434 H   0  0  0  0  0  0  0  0  0  0  0  0
    0.1876   -1.3911   -0.6522 H   0  0  0  0  0  0  0  0  0  0  0  0
  1  5  1  0  0  0  0
  2  6  1  0  0  0  0
  2  1  1  0  0  0  0
  2  8  1  0  0  0  0
  6  9  1  0  0  0  0
  6 10  1  0  0  0  0
  7  2  1  0  0  0  0
  9 12  1  0  0  0  0
 11  6  1  0  0  0  0
 13  9  1  0  0  0  0
 14  9  1  0  0  0  0
M  RAD  3   1   3   3   2   4   2
M  END
$$$$
