14
butane_opt
C  -3.969949   0.285161   0.204016
C  -2.644629  -0.697356  -0.123831
H  -4.670828  -0.013050  -0.441914
H  -3.880464   0.631945  -0.527042
H  -4.016279   1.363799   1.157787
C  -1.401976   0.143563  -0.069287
H  -2.535491  -1.648839  -1.232819
H  -2.390765  -0.914404   0.459776
C  -0.255500  -0.613725   0.156263
H  -1.422229   0.531412   0.567805
H  -1.247770   0.838877  -1.176463
H  -0.005354  -2.030037   1.666951
H   0.755635   0.018497  -0.608177
H  -0.406351  -0.618490  -0.319828
