14
butane_opt
C  -3.841167   0.289684  -0.041119
C  -2.665772  -0.680103   0.032689
H  -4.760805  -0.378477   0.771563
H  -4.264015   1.709590  -1.354038
H  -3.836899   0.329367   0.292364
C  -1.446334   0.144641   0.188396
H  -2.577644  -1.330374  -0.842856
H  -2.795065  -1.253205   0.948888
C  -0.213126  -0.639475  -0.043057
H  -1.728200   1.045042   1.108419
H  -1.390437   0.828084  -0.834496
H  -0.146076  -1.089844   0.726801
H   0.840138   0.001483  -0.027430
H  -0.383346  -1.696890  -1.098510
