butane_opt
 OpenBabel08242015393D

 14 13  0  0  0  0  0  0  0  0999 V2000
   -3.9579    0.2713    0.0302 C   0  0  0  0  0  0  0  0  0  0  0  0
   -2.6990   -0.6383    0.0279 C   0  0  0  0  0  0  0  0  0  0  0  0
   -4.8536   -0.3013   -0.0811 H   0  0  0  0  0  0  0  0  0  0  0  0
   -3.9860    0.7838   -0.7785 H   0  0  0  0  0  0  0  0  0  0  0  0
   -4.0058    1.0747    0.9628 H   0  0  0  0  0  0  0  0  0  0  0  0
   -1.3945    0.1910   -0.0138 C   0  0  0  0  0  0  0  0  0  0  0  0
   -2.7386   -1.2706   -0.8043 H   0  0  0  0  0  0  0  0  0  0  0  0
   -2.6730   -1.2591    0.9092 H   0  0  0  0  0  0  0  0  0  0  0  0
   -0.1574   -0.6913    0.0534 C   0  0  0  0  0  0  0  0  0  0  0  0
   -1.3651    0.8606    0.8512 H   0  0  0  0  0  0  0  0  0  0  0  0
   -1.3157    0.8197   -0.9170 H   0  0  0  0  0  0  0  0  0  0  0  0
   -0.1277   -1.3841    0.9795 H   0  0  0  0  0  0  0  0  0  0  0  0
    0.7384   -0.1044   -0.0554 H   0  0  0  0  0  0  0  0  0  0  0  0
   -0.1867   -1.2902   -0.7862 H   0  0  0  0  0  0  0  0  0  0  0  0
  1  5  1  0  0  0  0
  2  1  1  0  0  0  0
  2  8  1  0  0  0  0
  3  1  1  0  0  0  0
  4  1  1  0  0  0  0
  6  2  1  0  0  0  0
  6  9  1  0  0  0  0
  6 10  1  0  0  0  0
  7  2  1  0  0  0  0
  9 12  1  0  0  0  0
 11  6  1  0  0  0  0
 13  9  1  0  0  0  0
 14  9  1  0  0  0  0
M  END
$$$$
