butane_opt
 OpenBabel08242015393D

 14 13  0  0  0  0  0  0  0  0999 V2000
   -3.9415    0.3201    0.2371 C   0  0  0  0  0  0  0  0  0  0  0  0
   -2.6798   -0.6294   -0.1203 C   0  0  0  0  0  0  0  0  0  0  0  0
   -4.9091   -0.4032   -0.1476 H   0  0  0  0  0  0  0  0  0  0  0  0
   -3.6389    0.5000   -0.5426 H   0  0  0  0  0  0  0  0  0  0  0  0
   -4.0225    1.3391    1.2976 H   0  0  0  0  0  0  0  0  0  0  0  0
   -1.4165    0.1319   -0.2651 C   0  0  0  0  0  0  0  0  0  0  0  0
   -2.7326   -1.4063   -0.9646 H   0  0  0  0  0  0  0  0  0  0  0  0
   -2.4173   -1.2835    0.7739 H   0  0  0  0  0  0  0  0  0  0  0  0
   -0.2119   -0.6618    0.2073 C   0  0  0  0  0  0  0  0  0  0  0  0
   -1.4051    0.7550    0.5319 H   0  0  0  0  0  0  0  0  0  0  0  0
   -0.9938    0.8697   -1.2150 H   0  0  0  0  0  0  0  0  0  0  0  0
   -0.6352   -1.4300    1.2052 H   0  0  0  0  0  0  0  0  0  0  0  0
    0.7771    0.0534    0.4339 H   0  0  0  0  0  0  0  0  0  0  0  0
   -0.0545   -1.3983   -0.5966 H   0  0  0  0  0  0  0  0  0  0  0  0
  1  5  1  0  0  0  0
  2  1  1  0  0  0  0
  2  8  1  0  0  0  0
  3  1  1  0  0  0  0
  4  1  1  0  0  0  0
  6  2  1  0  0  0  0
  6  9  1  0  0  0  0
  6 10  1  0  0  0  0
  7  2  1  0  0  0  0
  9 13  1  0  0  0  0
  9 12  1  0  0  0  0
 11  6  1  0  0  0  0
 14  9  1  0  0  0  0
M  END
$$$$
