14
butane_opt
C  -3.915524   0.210256  -0.141966
C  -2.688324  -0.494614   0.272333
H  -5.055372  -0.680907  -0.809641
H  -3.158348   0.521562  -0.851999
H  -4.191057   1.150267   0.876325
C  -1.454163   0.248587   0.129872
H  -2.433884  -1.076635  -0.433925
H  -3.056400  -1.419296   1.538411
C  -0.191048  -0.782752  -0.177171
H  -1.120070   1.070837   1.070049
H  -1.606666   0.723503  -0.553362
H   0.020617  -1.505378   0.790500
H   0.752901  -0.011739  -0.045517
H  -0.162424  -1.468812  -1.073630
