butane_opt
 OpenBabel08242015393D

 14 10  0  0  0  0  0  0  0  0999 V2000
   -3.9699    0.2852    0.2040 C   0  0  0  0  0  0  0  0  0  0  0  0
   -2.6446   -0.6974   -0.1238 C   0  0  0  0  0  0  0  0  0  0  0  0
   -4.6708   -0.0131   -0.4419 H   0  0  0  0  0  0  0  0  0  0  0  0
   -3.8805    0.6319   -0.5270 H   0  0  0  0  0  0  0  0  0  0  0  0
   -4.0163    1.3638    1.1578 H   0  0  0  0  0  0  0  0  0  0  0  0
   -1.4020    0.1436   -0.0693 C   0  0  0  0  0  0  0  0  0  0  0  0
   -2.5355   -1.6488   -1.2328 H   0  0  0  0  0  0  0  0  0  0  0  0
   -2.3908   -0.9144    0.4598 H   0  0  0  0  0  0  0  0  0  0  0  0
   -0.2555   -0.6137    0.1563 C   0  0  0  0  0  1  0  0  0  0  0  0
   -1.4222    0.5314    0.5678 H   0  0  0  0  0  0  0  0  0  0  0  0
   -1.2478    0.8389   -1.1765 H   0  0  0  0  0  0  0  0  0  0  0  0
   -0.0054   -2.0300    1.6670 H   0  0  0  0  0  0  0  0  0  0  0  0
    0.7556    0.0185   -0.6082 H   0  0  0  0  0  0  0  0  0  0  0  0
   -0.4064   -0.6185   -0.3198 H   0  0  0  0  0  0  0  0  0  0  0  0
  1  5  1  0  0  0  0
  2  1  1  0  0  0  0
  2  8  1  0  0  0  0
  3  1  1  0  0  0  0
  4  1  1  0  0  0  0
  6 10  1  0  0  0  0
  7  2  1  0  0  0  0
 11  6  1  0  0  0  0
 13  9  1  0  0  0  0
 14  6  1  0  0  0  0
M  RAD  3   2   2   6   2  12   2
M  END
$$$$
