14
butane_opt
C  -3.892388   0.290903  -0.079924
C  -2.622466  -0.671043   0.115237
H  -4.707847  -0.067876   0.520691
H  -4.218399   1.536044  -1.352011
H  -3.971729   0.363624   0.477824
C  -1.453162   0.137293   0.077225
H  -2.804345  -1.246611  -0.601046
H  -2.492398  -1.394039   0.996814
C  -0.214300  -0.628900  -0.046963
H  -1.249138   1.010200   1.208076
H  -1.412109   0.401010  -0.487691
H  -0.337191  -0.978169   0.717271
H   0.765895   0.113668   0.326106
H  -0.423871  -1.715147  -1.268802
