butane_opt
 OpenBabel08242015393D

 14 13  0  0  0  0  0  0  0  0999 V2000
   -3.9432    0.2769    0.1553 C   0  0  0  0  0  0  0  0  0  0  0  0
   -2.6997   -0.5562   -0.1834 C   0  0  0  0  0  0  0  0  0  0  0  0
   -4.9167   -0.4663    0.4876 H   0  0  0  0  0  0  0  0  0  0  0  0
   -4.0692    0.6215   -0.5443 H   0  0  0  0  0  0  0  0  0  0  0  0
   -3.1546    0.9256    1.0720 H   0  0  0  0  0  0  0  0  0  0  0  0
   -1.4197    0.1773   -0.1530 C   0  0  0  0  0  0  0  0  0  0  0  0
   -2.9293   -1.3209   -1.1311 H   0  0  0  0  0  0  0  0  0  0  0  0
   -2.7245   -1.1886    0.6994 H   0  0  0  0  0  0  0  0  0  0  0  0
   -0.1711   -0.7104    0.2252 C   0  0  0  0  0  0  0  0  0  0  0  0
   -1.4639    0.6925    0.5815 H   0  0  0  0  0  0  0  0  0  0  0  0
   -1.4292    0.9438   -0.9408 H   0  0  0  0  0  0  0  0  0  0  0  0
   -0.3242   -1.4172    1.1712 H   0  0  0  0  0  0  0  0  0  0  0  0
    0.7395   -0.2174   -0.0353 H   0  0  0  0  0  0  0  0  0  0  0  0
    0.0224   -1.2774   -0.4463 H   0  0  0  0  0  0  0  0  0  0  0  0
  1  3  1  0  0  0  0
  1  5  1  0  0  0  0
  2  6  1  0  0  0  0
  2  1  1  0  0  0  0
  2  8  1  0  0  0  0
  4  1  1  0  0  0  0
  6  9  1  0  0  0  0
  6 10  1  0  0  0  0
  7  2  1  0  0  0  0
  9 12  1  0  0  0  0
 11  6  1  0  0  0  0
 13  9  1  0  0  0  0
 14  9  1  0  0  0  0
M  END
$$$$
