14
butane_opt
C  -3.965165   0.245208   0.056259
C  -2.759962  -0.536492  -0.117860
H  -4.964164  -0.566433   0.045387
H  -4.038969   0.527362  -0.477282
H  -3.823224   1.169403   1.186009
C  -1.389966   0.190522   0.026914
H  -2.792365  -1.354325  -1.095085
H  -2.781401  -1.310995   0.837770
C  -0.073286  -0.706190   0.095878
H  -1.633061   1.013868   0.814737
H  -1.261333   0.822930  -0.808002
H   0.172501  -2.069442   1.477107
H   0.618124  -0.388234  -0.904357
H  -0.224110  -0.648475  -0.290639
