14
butane_opt
C  -3.976403   0.287909   0.168528
C  -2.725389  -0.694661  -0.180474
H  -4.843185  -0.056728   0.840858
H  -4.304503   1.202243  -1.024552
H  -3.564384   0.516876   0.768865
C  -1.381498   0.187864  -0.073850
H  -2.731398  -1.469873  -1.151049
H  -2.773629  -1.184079   0.552166
C  -0.130618  -0.670468   0.142074
H  -1.540889   1.144236   0.928102
H  -1.428083   0.909470  -0.876675
H  -0.376115  -1.520831   1.225062
H   0.763676  -0.158026   0.001463
H   0.290062  -1.162754  -0.523749
