14
butane_opt
C  -3.868446   0.194385   0.193090
C  -2.703702  -0.560902  -0.189408
H  -4.622914  -0.268498   0.327585
H  -4.181422   0.762908  -0.625273
H  -3.424731   0.996779   1.198807
C  -1.459342   0.219935  -0.161063
H  -2.891851  -1.285731  -1.097130
H  -2.674756  -1.086543   0.520967
C  -0.184568  -0.694843   0.177014
H  -1.825113   0.940332   0.650742
H  -1.349824   0.812899  -0.976815
H  -0.183298  -1.924647   1.507413
H   0.698715  -0.121300   0.065045
H  -0.010755  -1.169112  -0.334079
