butane_opt
 OpenBabel08242015393D

 14 11  0  0  0  0  0  0  0  0999 V2000
   -3.9124    0.2377    0.1439 C   0  0  0  0  0  0  0  0  0  0  0  0
   -2.7212   -0.6273   -0.1528 C   0  0  0  0  0  0  0  0  0  0  0  0
   -4.9036   -0.4706    0.0081 H   0  0  0  0  0  0  0  0  0  0  0  0
   -4.2745    0.6564   -0.5706 H   0  0  0  0  0  0  0  0  0  0  0  0
   -3.9326    1.2353    1.2097 H   0  0  0  0  0  0  0  0  0  0  0  0
   -1.4583    0.2094   -0.0239 C   0  0  0  0  0  0  0  0  0  0  0  0
   -2.6580   -1.3807   -1.1546 H   0  0  0  0  0  0  0  0  0  0  0  0
   -2.8197   -0.7598    0.5247 H   0  0  0  0  0  0  0  0  0  0  0  0
   -0.1147   -0.7072    0.1348 C   0  0  0  0  0  1  0  0  0  0  0  0
   -1.4770    0.7914    0.6640 H   0  0  0  0  0  0  0  0  0  0  0  0
   -1.1966    0.9036   -1.0294 H   0  0  0  0  0  0  0  0  0  0  0  0
    0.2768   -2.2012    1.5926 H   0  0  0  0  0  0  0  0  0  0  0  0
    0.6945   -0.1650   -0.5926 H   0  0  0  0  0  0  0  0  0  0  0  0
   -0.2189   -0.4729   -0.3002 H   0  0  0  0  0  0  0  0  0  0  0  0
  1  5  1  0  0  0  0
  2  6  1  0  0  0  0
  2  1  1  0  0  0  0
  2  8  1  0  0  0  0
  3  1  1  0  0  0  0
  4  1  1  0  0  0  0
  6 10  1  0  0  0  0
  7  2  1  0  0  0  0
 11  6  1  0  0  0  0
 13  9  1  0  0  0  0
 14  6  1  0  0  0  0
M  RAD  1  12   2
M  END
$$$$
