14
butane_opt
C  -3.937156   0.339358  -0.141881
C  -2.584885  -0.715256   0.157876
H  -4.663222  -0.061413   0.690444
H  -4.362316   1.295555  -1.323030
H  -3.835885   0.424259   0.283728
C  -1.408141   0.140847   0.203929
H  -2.528835  -1.553032  -0.744076
H  -2.975344  -1.272630   1.071366
C  -0.254360  -0.638564  -0.107560
H  -1.437901   0.954571   1.213982
H  -1.455981   0.650771  -0.710276
H  -0.131961  -1.063521   0.631132
H   0.997859   0.173404   0.073359
H  -0.486168  -1.446457  -1.134555
