butane_opt
 OpenBabel08242015393D

 14 13  0  0  0  0  0  0  0  0999 V2000
   -3.9429    0.3026   -0.1196 C   0  0  0  0  0  0  0  0  0  0  0  0
   -2.6132   -0.6557    0.1809 C   0  0  0  0  0  0  0  0  0  0  0  0
   -4.9611   -0.4346   -0.3461 H   0  0  0  0  0  0  0  0  0  0  0  0
   -3.9409    0.7054   -0.8915 H   0  0  0  0  0  0  0  0  0  0  0  0
   -4.0820    1.2108    0.9236 H   0  0  0  0  0  0  0  0  0  0  0  0
   -1.4490    0.1008    0.1304 C   0  0  0  0  0  0  0  0  0  0  0  0
   -2.4114   -0.8935   -0.4813 H   0  0  0  0  0  0  0  0  0  0  0  0
   -2.6383   -1.5537    1.3139 H   0  0  0  0  0  0  0  0  0  0  0  0
   -0.2367   -0.6602   -0.1014 C   0  0  0  0  0  0  0  0  0  0  0  0
   -1.1085    0.9113    0.9980 H   0  0  0  0  0  0  0  0  0  0  0  0
   -1.3665    0.8958   -0.9162 H   0  0  0  0  0  0  0  0  0  0  0  0
   -0.1350   -1.0902    0.7330 H   0  0  0  0  0  0  0  0  0  0  0  0
    0.8294    0.1402    0.2452 H   0  0  0  0  0  0  0  0  0  0  0  0
   -0.2995   -1.4644   -1.1955 H   0  0  0  0  0  0  0  0  0  0  0  0
  1  2  1  0  0  0  0
  1  5  1  0  0  0  0
  2  8  1  0  0  0  0
  3  1  1  0  0  0  0
  4  1  1  0  0  0  0
  6  2  1  0  0  0  0
  6 10  1  0  0  0  0
  7  2  1  0  0  0  0
  9  6  1  0  0  0  0
  9 13  1  0  0  0  0
  9 12  1  0  0  0  0
 11  6  1  0  0  0  0
 14  9  1  0  0  0  0
M  END
$$$$
