butane_opt
 OpenBabel08242015393D

 14 13  0  0  0  0  0  0  0  0999 V2000
   -3.8584    0.1959   -0.1372 C   0  0  0  0  0  0  0  0  0  0  0  0
   -2.7300   -0.5580    0.2195 C   0  0  0  0  0  0  0  0  0  0  0  0
   -4.8519   -0.4410   -0.5239 H   0  0  0  0  0  0  0  0  0  0  0  0
   -3.6886    0.6461   -0.9071 H   0  0  0  0  0  0  0  0  0  0  0  0
   -4.2362    1.0177    0.9450 H   0  0  0  0  0  0  0  0  0  0  0  0
   -1.4484    0.2950    0.1549 C   0  0  0  0  0  0  0  0  0  0  0  0
   -2.8728   -1.0998   -0.6340 H   0  0  0  0  0  0  0  0  0  0  0  0
   -2.7923   -1.3090    1.2164 H   0  0  0  0  0  0  0  0  0  0  0  0
   -0.1414   -0.7837   -0.0620 C   0  0  0  0  0  0  0  0  0  0  0  0
   -1.3594    0.8152    0.9129 H   0  0  0  0  0  0  0  0  0  0  0  0
   -1.3991    1.1071   -0.8253 H   0  0  0  0  0  0  0  0  0  0  0  0
    0.1277   -1.0716    0.5340 H   0  0  0  0  0  0  0  0  0  0  0  0
    0.6662   -0.3834   -0.4005 H   0  0  0  0  0  0  0  0  0  0  0  0
   -0.3926   -1.5912   -1.0170 H   0  0  0  0  0  0  0  0  0  0  0  0
  1  2  1  0  0  0  0
  1  5  1  0  0  0  0
  2  8  1  0  0  0  0
  3  1  1  0  0  0  0
  4  1  1  0  0  0  0
  6  2  1  0  0  0  0
  6 10  1  0  0  0  0
  7  2  1  0  0  0  0
  9  6  1  0  0  0  0
  9 12  1  0  0  0  0
 11  6  1  0  0  0  0
 13  9  1  0  0  0  0
 14  9  1  0  0  0  0
M  END
$$$$
