butane_opt
 OpenBabel08242015393D

 14 11  0  0  0  0  0  0  0  0999 V2000
   -3.8412    0.2897   -0.0411 C   0  0  0  0  0  0  0  0  0  0  0  0
   -2.6658   -0.6801    0.0327 C   0  0  0  0  0  0  0  0  0  0  0  0
   -4.7608   -0.3785    0.7716 H   0  0  0  0  0  0  0  0  0  0  0  0
   -4.2640    1.7096   -1.3540 H   0  0  0  0  0  0  0  0  0  0  0  0
   -3.8369    0.3294    0.2924 H   0  0  0  0  0  0  0  0  0  0  0  0
   -1.4463    0.1446    0.1884 C   0  0  0  0  0  0  0  0  0  0  0  0
   -2.5776   -1.3304   -0.8429 H   0  0  0  0  0  0  0  0  0  0  0  0
   -2.7951   -1.2532    0.9489 H   0  0  0  0  0  0  0  0  0  0  0  0
   -0.2131   -0.6395   -0.0431 C   0  0  0  0  0  0  0  0  0  0  0  0
   -1.7282    1.0450    1.1084 H   0  0  0  0  0  0  0  0  0  0  0  0
   -1.3904    0.8281   -0.8345 H   0  0  0  0  0  0  0  0  0  0  0  0
   -0.1461   -1.0898    0.7268 H   0  0  0  0  0  0  0  0  0  0  0  0
    0.8401    0.0015   -0.0274 H   0  0  0  0  0  0  0  0  0  0  0  0
   -0.3833   -1.6969   -1.0985 H   0  0  0  0  0  0  0  0  0  0  0  0
  1  2  1  0  0  0  0
  1  3  1  0  0  0  0
  2  6  1  0  0  0  0
  2  8  1  0  0  0  0
  6 10  1  0  0  0  0
  7  2  1  0  0  0  0
  9 13  1  0  0  0  0
  9  6  1  0  0  0  0
  9 12  1  0  0  0  0
 11  6  1  0  0  0  0
 14  9  1  0  0  0  0
M  RAD  3   1   3   4   2   5   2
M  END
$$$$
