butane_opt
 OpenBabel08242015393D

 14 13  0  0  0  0  0  0  0  0999 V2000
   -3.9454    0.2399   -0.0850 C   0  0  0  0  0  0  0  0  0  0  0  0
   -2.6575   -0.6097    0.2055 C   0  0  0  0  0  0  0  0  0  0  0  0
   -4.7573   -0.0411   -0.3722 H   0  0  0  0  0  0  0  0  0  0  0  0
   -3.6806    0.6506   -0.9057 H   0  0  0  0  0  0  0  0  0  0  0  0
   -4.1962    1.1213    0.9067 H   0  0  0  0  0  0  0  0  0  0  0  0
   -1.4018    0.1785    0.0404 C   0  0  0  0  0  0  0  0  0  0  0  0
   -2.4339   -1.2304   -0.6931 H   0  0  0  0  0  0  0  0  0  0  0  0
   -2.5294   -1.4699    1.1490 H   0  0  0  0  0  0  0  0  0  0  0  0
   -0.2374   -0.6546   -0.0692 C   0  0  0  0  0  0  0  0  0  0  0  0
   -1.0981    0.8856    1.0420 H   0  0  0  0  0  0  0  0  0  0  0  0
   -1.6460    0.4820   -0.7048 H   0  0  0  0  0  0  0  0  0  0  0  0
   -0.1166   -1.2499    0.8182 H   0  0  0  0  0  0  0  0  0  0  0  0
    0.5540   -0.1693    0.0769 H   0  0  0  0  0  0  0  0  0  0  0  0
   -0.2189   -1.2815   -0.9197 H   0  0  0  0  0  0  0  0  0  0  0  0
  1  2  1  0  0  0  0
  1  5  1  0  0  0  0
  2  8  1  0  0  0  0
  3  1  1  0  0  0  0
  4  1  1  0  0  0  0
  6  2  1  0  0  0  0
  6 10  1  0  0  0  0
  7  2  1  0  0  0  0
  9  6  1  0  0  0  0
  9 13  1  0  0  0  0
  9 12  1  0  0  0  0
 11  6  1  0  0  0  0
 14  9  1  0  0  0  0
M  END
$$$$
