butane_opt
 OpenBabel08242015393D

 14 11  0  0  0  0  0  0  0  0999 V2000
   -3.9372    0.3394   -0.1419 C   0  0  0  0  0  0  0  0  0  0  0  0
   -2.5849   -0.7153    0.1579 C   0  0  0  0  0  0  0  0  0  0  0  0
   -4.6632   -0.0614    0.6904 H   0  0  0  0  0  0  0  0  0  0  0  0
   -4.3623    1.2956   -1.3230 H   0  0  0  0  0  0  0  0  0  0  0  0
   -3.8359    0.4243    0.2837 H   0  0  0  0  0  0  0  0  0  0  0  0
   -1.4081    0.1408    0.2039 C   0  0  0  0  0  0  0  0  0  0  0  0
   -2.5288   -1.5530   -0.7441 H   0  0  0  0  0  0  0  0  0  0  0  0
   -2.9753   -1.2726    1.0714 H   0  0  0  0  0  0  0  0  0  0  0  0
   -0.2544   -0.6386   -0.1076 C   0  0  0  0  0  0  0  0  0  0  0  0
   -1.4379    0.9546    1.2140 H   0  0  0  0  0  0  0  0  0  0  0  0
   -1.4560    0.6508   -0.7103 H   0  0  0  0  0  0  0  0  0  0  0  0
   -0.1320   -1.0635    0.6311 H   0  0  0  0  0  0  0  0  0  0  0  0
    0.9979    0.1734    0.0734 H   0  0  0  0  0  0  0  0  0  0  0  0
   -0.4862   -1.4465   -1.1346 H   0  0  0  0  0  0  0  0  0  0  0  0
  1  2  1  0  0  0  0
  1  3  1  0  0  0  0
  2  6  1  0  0  0  0
  2  8  1  0  0  0  0
  6 10  1  0  0  0  0
  7  2  1  0  0  0  0
  9 13  1  0  0  0  0
  9  6  1  0  0  0  0
  9 12  1  0  0  0  0
 11  6  1  0  0  0  0
 14  9  1  0  0  0  0
M  RAD  3   1   3   4   2   5   2
M  END
$$$$
