14
butane_opt
C  -3.942551   0.304361  -0.130704
C  -2.685948  -0.591765   0.086180
H  -4.796779  -0.263286   0.890843
H  -4.155560   1.291709  -1.336902
H  -3.593691   0.547085   0.427245
C  -1.419047   0.103584   0.184888
H  -2.600401  -1.375140  -0.655207
H  -2.700270  -1.278807   0.982649
C  -0.198194  -0.660237  -0.056497
H  -1.073525   0.683294   1.046329
H  -1.366808   0.489703  -0.567500
H  -0.087590  -0.954763   0.571503
H   0.680143  -0.002132   0.002748
H  -0.404000  -1.413497  -0.965139
