butane_opt
 OpenBabel08242015393D

 14  8  0  0  0  0  0  0  0  0999 V2000
   -4.0034    0.2943    0.1618 C   0  0  0  0  0  0  0  0  0  0  0  0
   -2.7029   -0.6819   -0.0364 C   0  0  0  0  0  0  0  0  0  0  0  0
   -4.9281   -0.2911   -0.5197 H   0  0  0  0  0  0  0  0  0  0  0  0
   -3.9616    0.3290   -0.3526 H   0  0  0  0  0  0  0  0  0  0  0  0
   -4.3122    1.5443    1.3474 H   0  0  0  0  0  0  0  0  0  0  0  0
   -1.3494    0.2074   -0.1357 C   0  0  0  0  0  0  0  0  0  0  0  0
   -2.8034   -1.4892   -1.0961 H   0  0  0  0  0  0  0  0  0  0  0  0
   -2.6168   -1.0212    0.5804 H   0  0  0  0  0  0  0  0  0  0  0  0
   -0.1557   -0.6969    0.1235 C   0  0  0  0  0  0  0  0  0  0  0  0
   -1.2140    0.5963    0.5761 H   0  0  0  0  0  0  0  0  0  0  0  0
   -1.0831    1.2169   -1.3728 H   0  0  0  0  0  0  0  0  0  0  0  0
   -0.2046   -1.7168    1.3598 H   0  0  0  0  0  0  0  0  0  0  0  0
    0.7937   -0.2554    0.0971 H   0  0  0  0  0  0  0  0  0  0  0  0
   -0.1230   -0.8939   -0.4080 H   0  0  0  0  0  0  0  0  0  0  0  0
  2  1  1  0  0  0  0
  2  8  1  0  0  0  0
  3  1  1  0  0  0  0
  6  2  1  0  0  0  0
  6  9  1  0  0  0  0
  6 10  1  0  0  0  0
  7  2  1  0  0  0  0
 13  9  1  0  0  0  0
M  RAD  8   1   3   4   2   5   2   6   2   9   3  11   2  12   2  14   2
M  END
$$$$
