butane_opt
 OpenBabel08242015393D

 14 13  0  0  0  0  0  0  0  0999 V2000
   -3.9870    0.3496    0.1971 C   0  0  0  0  0  0  0  0  0  0  0  0
   -2.7008   -0.7391   -0.2485 C   0  0  0  0  0  0  0  0  0  0  0  0
   -4.9214   -0.2202    0.8784 H   0  0  0  0  0  0  0  0  0  0  0  0
   -4.7106    1.1141   -0.5926 H   0  0  0  0  0  0  0  0  0  0  0  0
   -3.6934    0.7937    1.0156 H   0  0  0  0  0  0  0  0  0  0  0  0
   -1.3586    0.1555   -0.1991 C   0  0  0  0  0  0  0  0  0  0  0  0
   -3.0547   -1.4906   -1.1720 H   0  0  0  0  0  0  0  0  0  0  0  0
   -2.3199   -1.4636    0.5093 H   0  0  0  0  0  0  0  0  0  0  0  0
   -0.1362   -0.6213    0.2755 C   0  0  0  0  0  0  0  0  0  0  0  0
   -1.6052    0.9775    0.7118 H   0  0  0  0  0  0  0  0  0  0  0  0
   -1.1490    0.8310   -1.1198 H   0  0  0  0  0  0  0  0  0  0  0  0
   -0.2883   -1.3954    1.2546 H   0  0  0  0  0  0  0  0  0  0  0  0
    0.6982    0.0735    0.1902 H   0  0  0  0  0  0  0  0  0  0  0  0
    0.1657   -1.4095   -0.5939 H   0  0  0  0  0  0  0  0  0  0  0  0
  1  3  1  0  0  0  0
  1  5  1  0  0  0  0
  2  6  1  0  0  0  0
  2  1  1  0  0  0  0
  2  8  1  0  0  0  0
  4  1  1  0  0  0  0
  6  9  1  0  0  0  0
  6 10  1  0  0  0  0
  7  2  1  0  0  0  0
  9 12  1  0  0  0  0
 11  6  1  0  0  0  0
 13  9  1  0  0  0  0
 14  9  1  0  0  0  0
M  END
$$$$
