butane_opt
 OpenBabel08242015393D

 14 13  0  0  0  0  0  0  0  0999 V2000
   -3.9361    0.2681    0.0043 C   0  0  0  0  0  0  0  0  0  0  0  0
   -2.6917   -0.6259    0.0486 C   0  0  0  0  0  0  0  0  0  0  0  0
   -4.8482   -0.3245    0.0666 H   0  0  0  0  0  0  0  0  0  0  0  0
   -4.0212    0.9223   -0.8926 H   0  0  0  0  0  0  0  0  0  0  0  0
   -3.9562    0.9429    0.8724 H   0  0  0  0  0  0  0  0  0  0  0  0
   -1.4072    0.1867    0.0164 C   0  0  0  0  0  0  0  0  0  0  0  0
   -2.6738   -1.2816   -0.7418 H   0  0  0  0  0  0  0  0  0  0  0  0
   -2.7238   -1.2769    0.9642 H   0  0  0  0  0  0  0  0  0  0  0  0
   -0.1681   -0.6934    0.0203 C   0  0  0  0  0  0  0  0  0  0  0  0
   -1.3933    0.8477    0.8576 H   0  0  0  0  0  0  0  0  0  0  0  0
   -1.3621    0.7873   -0.8587 H   0  0  0  0  0  0  0  0  0  0  0  0
   -0.2334   -1.2312    0.8786 H   0  0  0  0  0  0  0  0  0  0  0  0
    0.7523   -0.0652    0.0726 H   0  0  0  0  0  0  0  0  0  0  0  0
   -0.1206   -1.4178   -0.8698 H   0  0  0  0  0  0  0  0  0  0  0  0
  1  2  1  0  0  0  0
  1  3  1  0  0  0  0
  1  5  1  0  0  0  0
  2  8  1  0  0  0  0
  4  1  1  0  0  0  0
  6  9  1  0  0  0  0
  6  2  1  0  0  0  0
  6 10  1  0  0  0  0
  7  2  1  0  0  0  0
  9 13  1  0  0  0  0
  9 12  1  0  0  0  0
 11  6  1  0  0  0  0
 14  9  1  0  0  0  0
M  END
$$$$
