14
butane_opt
C  -3.915825   0.267969   0.098627
C  -2.645431  -0.649418  -0.013261
H  -4.761981  -0.241226  -0.456836
H  -3.824786   0.529639  -0.728503
H  -4.302311   1.338452   1.141471
C  -1.396213   0.176058  -0.002078
H  -2.645855  -1.439542  -0.939050
H  -2.820575  -1.253530   0.857836
C  -0.206629  -0.696211   0.105874
H  -1.744206   0.735614   0.711931
H  -1.451297   1.073163  -1.271252
H   0.038900  -1.329535   1.029474
H   0.830301  -0.000550  -0.535932
H  -0.385257  -1.032842  -0.578815
