14
butane_opt
C  -3.899203   0.344696  -0.074785
C  -2.661250  -0.723781   0.042451
H  -4.659647  -0.281295   0.774954
H  -4.184001   1.314136  -1.163672
H  -3.666182   0.719148   0.669624
C  -1.424994   0.119081   0.114560
H  -2.591201  -1.235608  -0.676604
H  -3.000573  -1.334627   0.995544
C  -0.209918  -0.629303  -0.051456
H  -1.353339   1.084143   1.120175
H  -1.318058   0.636570  -0.797354
H  -0.370931  -1.213080   0.921528
H   0.764475   0.076627   0.155522
H  -0.348388  -1.531702  -0.947897
