butane_opt
 OpenBabel08242015393D

 14 10  0  0  0  0  0  0  0  0999 V2000
   -3.9358    0.1909    0.1062 C   0  0  0  0  0  0  0  0  0  0  0  0
   -2.7535   -0.5886   -0.0554 C   0  0  0  0  0  0  0  0  0  0  0  0
   -4.7313   -0.3068    0.0673 H   0  0  0  0  0  0  0  0  0  0  0  0
   -3.9043    0.7175   -0.7440 H   0  0  0  0  0  0  0  0  0  0  0  0
   -3.8573    1.0366    1.0803 H   0  0  0  0  0  0  0  0  0  0  0  0
   -1.4207    0.3205   -0.0207 C   0  0  0  0  0  0  0  0  0  0  0  0
   -2.9838   -1.6144   -1.1807 H   0  0  0  0  0  0  0  0  0  0  0  0
   -2.6192   -0.9094    0.5565 H   0  0  0  0  0  0  0  0  0  0  0  0
   -0.0837   -0.7503    0.0852 C   0  0  0  0  0  0  0  0  0  0  0  0
   -1.5636    0.7203    0.6073 H   0  0  0  0  0  0  0  0  0  0  0  0
   -1.6683    0.8732   -1.0478 H   0  0  0  0  0  0  0  0  0  0  0  0
    0.0747   -1.9541    1.3227 H   0  0  0  0  0  0  0  0  0  0  0  0
    0.5617   -0.2313   -0.1023 H   0  0  0  0  0  0  0  0  0  0  0  0
   -0.0124   -0.8474   -0.4020 H   0  0  0  0  0  0  0  0  0  0  0  0
  1  5  1  0  0  0  0
  2  6  1  0  0  0  0
  2  1  1  0  0  0  0
  2  8  1  0  0  0  0
  3  1  1  0  0  0  0
  4  1  1  0  0  0  0
  6  9  1  0  0  0  0
  6 10  1  0  0  0  0
 11  6  1  0  0  0  0
 13  9  1  0  0  0  0
M  RAD  5   2   2   7   2   9   3  12   2  14   2
M  END
$$$$
