butane_opt
 OpenBabel08242015393D

 14 13  0  0  0  0  0  0  0  0999 V2000
   -3.8990    0.3330    0.2216 C   0  0  0  0  0  0  0  0  0  0  0  0
   -2.6996   -0.6991   -0.3067 C   0  0  0  0  0  0  0  0  0  0  0  0
   -4.4911   -0.1340    0.9680 H   0  0  0  0  0  0  0  0  0  0  0  0
   -4.5754    1.2904   -0.7292 H   0  0  0  0  0  0  0  0  0  0  0  0
   -3.5080    0.6827    0.9440 H   0  0  0  0  0  0  0  0  0  0  0  0
   -1.3694    0.0713   -0.1467 C   0  0  0  0  0  0  0  0  0  0  0  0
   -2.9266   -1.3477   -1.2056 H   0  0  0  0  0  0  0  0  0  0  0  0
   -2.5891   -1.2803    0.6230 H   0  0  0  0  0  0  0  0  0  0  0  0
   -0.2483   -0.6239    0.2414 C   0  0  0  0  0  0  0  0  0  0  0  0
   -1.5146    0.9967    0.7869 H   0  0  0  0  0  0  0  0  0  0  0  0
   -1.3236    0.8215   -1.1761 H   0  0  0  0  0  0  0  0  0  0  0  0
   -0.2217   -1.4101    1.2489 H   0  0  0  0  0  0  0  0  0  0  0  0
    0.7536    0.0573    0.3210 H   0  0  0  0  0  0  0  0  0  0  0  0
   -0.1038   -1.0697   -0.4529 H   0  0  0  0  0  0  0  0  0  0  0  0
  1  5  1  0  0  0  0
  1  3  1  0  0  0  0
  2  6  1  0  0  0  0
  2  1  1  0  0  0  0
  2  8  1  0  0  0  0
  4  1  1  0  0  0  0
  6  9  1  0  0  0  0
  6 10  1  0  0  0  0
  7  2  1  0  0  0  0
  9 13  1  0  0  0  0
  9 12  1  0  0  0  0
 11  6  1  0  0  0  0
 14  9  1  0  0  0  0
M  END
$$$$
