butane_opt
 OpenBabel08242015393D

 14  9  0  0  0  0  0  0  0  0999 V2000
   -3.8577    0.3108    0.1611 C   0  0  0  0  0  0  0  0  0  0  0  0
   -2.6563   -0.6518   -0.1702 C   0  0  0  0  0  0  0  0  0  0  0  0
   -4.8063   -0.1866   -0.0915 H   0  0  0  0  0  0  0  0  0  0  0  0
   -4.1916    0.6506   -0.5352 H   0  0  0  0  0  0  0  0  0  0  0  0
   -3.9713    1.3225    1.3297 H   0  0  0  0  0  0  0  0  0  0  0  0
   -1.4370    0.1275   -0.0931 C   0  0  0  0  0  0  0  0  0  0  0  0
   -2.7728   -1.5871   -1.0901 H   0  0  0  0  0  0  0  0  0  0  0  0
   -2.4893   -1.2464    0.5850 H   0  0  0  0  0  0  0  0  0  0  0  0
   -0.2564   -0.6151    0.1764 C   0  0  0  0  0  1  0  0  0  0  0  0
   -1.4801    0.5809    0.7014 H   0  0  0  0  0  0  0  0  0  0  0  0
   -1.0416    0.6785   -0.8836 H   0  0  0  0  0  0  0  0  0  0  0  0
   -0.1835   -1.9720    1.5339 H   0  0  0  0  0  0  0  0  0  0  0  0
    0.7326   -0.0450   -0.6912 H   0  0  0  0  0  0  0  0  0  0  0  0
   -0.3419   -0.6629   -0.2564 H   0  0  0  0  0  0  0  0  0  0  0  0
  2  1  1  0  0  0  0
  2  8  1  0  0  0  0
  3  1  1  0  0  0  0
  4  1  1  0  0  0  0
  6 10  1  0  0  0  0
  7  2  1  0  0  0  0
 11  6  1  0  0  0  0
 13  9  1  0  0  0  0
 14  6  1  0  0  0  0
M  RAD  5   1   2   2   2   5   2   6   2  12   2
M  END
$$$$
