14
butane_opt
C  -3.924742   0.222036   0.191183
C  -2.775113  -0.633633  -0.086150
H  -4.854103  -0.267729   0.206862
H  -4.177720   0.935309  -0.730064
H  -3.845553   0.943612   0.966555
C  -1.384010   0.274182  -0.171853
H  -3.149611  -1.555728  -1.300233
H  -2.602160  -0.974275   0.476494
C  -0.069929  -0.736151   0.192437
H  -1.618730   0.946111   0.726659
H  -1.389016   1.071879  -1.271755
H  -0.254406  -1.455036   1.279446
H   0.659970  -0.352825   0.180500
H   0.076792  -1.318634  -0.608403
