butane_opt
 OpenBabel08242015393D

 14 11  0  0  0  0  0  0  0  0999 V2000
   -3.9848    0.3186    0.0732 C   0  0  0  0  0  0  0  0  0  0  0  0
   -2.7408   -0.6682   -0.0772 C   0  0  0  0  0  0  0  0  0  0  0  0
   -4.8712   -0.1968   -0.0037 H   0  0  0  0  0  0  0  0  0  0  0  0
   -4.4147    0.7912   -0.5623 H   0  0  0  0  0  0  0  0  0  0  0  0
   -3.9576    1.0898    1.0745 H   0  0  0  0  0  0  0  0  0  0  0  0
   -1.3268    0.1267    0.0273 C   0  0  0  0  0  0  0  0  0  0  0  0
   -2.8702   -1.4988   -1.0767 H   0  0  0  0  0  0  0  0  0  0  0  0
   -2.7057   -1.0309    0.5139 H   0  0  0  0  0  0  0  0  0  0  0  0
   -0.1182   -0.6551    0.1009 C   0  0  0  0  0  0  0  0  0  0  0  0
   -1.3593    0.4893    0.6879 H   0  0  0  0  0  0  0  0  0  0  0  0
   -1.3743    1.0034   -1.0486 H   0  0  0  0  0  0  0  0  0  0  0  0
    0.0291   -1.6512    1.1969 H   0  0  0  0  0  0  0  0  0  0  0  0
    0.7807   -0.1086   -0.4737 H   0  0  0  0  0  0  0  0  0  0  0  0
   -0.2445   -0.7929   -0.3107 H   0  0  0  0  0  0  0  0  0  0  0  0
  1  5  1  0  0  0  0
  2  1  1  0  0  0  0
  2  8  1  0  0  0  0
  3  1  1  0  0  0  0
  4  1  1  0  0  0  0
  6  9  1  0  0  0  0
  6 10  1  0  0  0  0
  7  2  1  0  0  0  0
  9 12  1  0  0  0  0
 11  6  1  0  0  0  0
 13  9  1  0  0  0  0
M  RAD  4   2   2   6   2   9   2  14   2
M  END
$$$$
