14
butane_opt
C  -4.027081   0.331671   0.147554
C  -2.670646  -0.663519  -0.042573
H  -5.038288  -0.190894  -0.025015
H  -3.990346   0.473978  -0.553232
H  -4.005032   1.291517   1.179389
C  -1.351799   0.143455  -0.237228
H  -2.884823  -1.474168  -0.913183
H  -2.196356  -1.419053   0.949586
C  -0.184967  -0.656000   0.179123
H  -1.464207   0.694491   0.598790
H  -1.152740   0.728070  -1.178920
H  -0.587514  -0.994224   0.958125
H   0.858181   0.039972   0.517426
H   0.225672  -1.464744  -0.681871
