butane_opt
 OpenBabel08242015393D

 14 11  0  0  0  0  0  0  0  0999 V2000
   -3.9191    0.2342    0.1416 C   0  0  0  0  0  0  0  0  0  0  0  0
   -2.7755   -0.6031   -0.0747 C   0  0  0  0  0  0  0  0  0  0  0  0
   -4.9259   -0.5104    0.4556 H   0  0  0  0  0  0  0  0  0  0  0  0
   -4.0602    1.3461   -1.1448 H   0  0  0  0  0  0  0  0  0  0  0  0
   -3.6983    0.4488    0.6061 H   0  0  0  0  0  0  0  0  0  0  0  0
   -1.4176    0.2517   -0.0489 C   0  0  0  0  0  0  0  0  0  0  0  0
   -2.9961   -1.3533   -0.9814 H   0  0  0  0  0  0  0  0  0  0  0  0
   -2.8086   -0.9258    0.7010 H   0  0  0  0  0  0  0  0  0  0  0  0
   -0.0946   -0.7521    0.0842 C   0  0  0  0  0  0  0  0  0  0  0  0
   -1.6251    1.1409    0.8694 H   0  0  0  0  0  0  0  0  0  0  0  0
   -1.3717    0.9197   -0.9270 H   0  0  0  0  0  0  0  0  0  0  0  0
   -0.0700   -1.3967    0.9995 H   0  0  0  0  0  0  0  0  0  0  0  0
    0.8683   -0.2116    0.3136 H   0  0  0  0  0  0  0  0  0  0  0  0
    0.1397   -1.5159   -0.7419 H   0  0  0  0  0  0  0  0  0  0  0  0
  1  3  1  0  0  0  0
  2  6  1  0  0  0  0
  2  1  1  0  0  0  0
  2  8  1  0  0  0  0
  6  9  1  0  0  0  0
  6 10  1  0  0  0  0
  7  2  1  0  0  0  0
  9 13  1  0  0  0  0
  9 12  1  0  0  0  0
 11  6  1  0  0  0  0
 14  9  1  0  0  0  0
M  RAD  3   1   3   4   2   5   2
M  END
$$$$
