butane_opt
 OpenBabel08242015393D

 14 12  0  0  0  0  0  0  0  0999 V2000
   -3.9751    0.2689   -0.1351 C   0  0  0  0  0  0  0  0  0  0  0  0
   -2.6432   -0.5852    0.1122 C   0  0  0  0  0  0  0  0  0  0  0  0
   -4.7487   -0.2656    0.6136 H   0  0  0  0  0  0  0  0  0  0  0  0
   -4.0058    1.2431   -1.3223 H   0  0  0  0  0  0  0  0  0  0  0  0
   -3.7122    0.5402    0.3958 H   0  0  0  0  0  0  0  0  0  0  0  0
   -1.4029    0.0949    0.1983 C   0  0  0  0  0  0  0  0  0  0  0  0
   -2.5237   -1.0632   -0.6509 H   0  0  0  0  0  0  0  0  0  0  0  0
   -2.3914   -1.4204    1.1171 H   0  0  0  0  0  0  0  0  0  0  0  0
   -0.2458   -0.6412   -0.0897 C   0  0  0  0  0  0  0  0  0  0  0  0
   -1.3113    1.0220    1.2261 H   0  0  0  0  0  0  0  0  0  0  0  0
   -1.4362    0.4510   -0.5735 H   0  0  0  0  0  0  0  0  0  0  0  0
   -0.0261   -1.1566    0.8063 H   0  0  0  0  0  0  0  0  0  0  0  0
    0.7448    0.0799   -0.0639 H   0  0  0  0  0  0  0  0  0  0  0  0
   -0.4490   -1.5219   -1.1870 H   0  0  0  0  0  0  0  0  0  0  0  0
  1  2  1  0  0  0  0
  1  5  1  0  0  0  0
  1  3  1  0  0  0  0
  2  6  1  0  0  0  0
  2  8  1  0  0  0  0
  6 10  1  0  0  0  0
  7  2  1  0  0  0  0
  9 13  1  0  0  0  0
  9  6  1  0  0  0  0
  9 12  1  0  0  0  0
 11  6  1  0  0  0  0
 14  9  1  0  0  0  0
M  RAD  2   1   2   4   2
M  END
$$$$
