butane_opt
 OpenBabel08242015393D

 14 12  0  0  0  0  0  0  0  0999 V2000
   -3.8868    0.1550   -0.1706 C   0  0  0  0  0  0  0  0  0  0  0  0
   -2.7241   -0.4713    0.2863 C   0  0  0  0  0  0  0  0  0  0  0  0
   -4.8856   -0.5784   -0.7016 H   0  0  0  0  0  0  0  0  0  0  0  0
   -3.3699    0.5078   -0.9820 H   0  0  0  0  0  0  0  0  0  0  0  0
   -4.4489    1.2178    0.9752 H   0  0  0  0  0  0  0  0  0  0  0  0
   -1.4560    0.2165    0.1950 C   0  0  0  0  0  0  0  0  0  0  0  0
   -2.3825   -0.9553   -0.4464 H   0  0  0  0  0  0  0  0  0  0  0  0
   -2.9456   -1.2420    1.2573 H   0  0  0  0  0  0  0  0  0  0  0  0
   -0.1243   -0.7558   -0.1500 C   0  0  0  0  0  0  0  0  0  0  0  0
   -1.2016    0.7607    1.1391 H   0  0  0  0  0  0  0  0  0  0  0  0
   -1.8536    1.1567   -0.9259 H   0  0  0  0  0  0  0  0  0  0  0  0
    0.0281   -1.2589    0.7668 H   0  0  0  0  0  0  0  0  0  0  0  0
    0.7936   -0.1904   -0.2572 H   0  0  0  0  0  0  0  0  0  0  0  0
   -0.4039   -1.6798   -1.2486 H   0  0  0  0  0  0  0  0  0  0  0  0
  1  2  1  0  0  0  0
  2  8  1  0  0  0  0
  3  1  1  0  0  0  0
  4  1  1  0  0  0  0
  6  2  1  0  0  0  0
  6 10  1  0  0  0  0
  7  2  1  0  0  0  0
  9  6  1  0  0  0  0
  9 12  1  0  0  0  0
 11  6  1  0  0  0  0
 13  9  1  0  0  0  0
 14  9  1  0  0  0  0
M  RAD  2   1   2   5   2
M  END
$$$$
