14
butane_opt
C  -3.908769   0.265981   0.166156
C  -2.708854  -0.653853  -0.164686
H  -4.539658  -0.109186   0.449456
H  -4.356975   1.208233  -0.796573
H  -3.595616   0.918189   0.974209
C  -1.434622   0.151519  -0.093880
H  -3.068089  -1.660844  -1.264205
H  -2.430704  -0.976042   0.513502
C  -0.179864  -0.661023   0.201732
H  -1.491689   0.762537   0.726913
H  -1.105788   0.807903  -1.192896
H  -0.129243  -1.459376   1.248630
H   0.790871  -0.123598  -0.173479
H  -0.338919  -1.005765  -0.382778
