butane_opt
 OpenBabel08242015393D

 14 10  0  0  0  0  0  0  0  0999 V2000
   -3.9574    0.3541    0.0803 C   0  0  0  0  0  0  0  0  0  0  0  0
   -2.6896   -0.6889   -0.0605 C   0  0  0  0  0  0  0  0  0  0  0  0
   -4.9492   -0.4294   -0.0549 H   0  0  0  0  0  0  0  0  0  0  0  0
   -3.9376    0.9266   -0.6941 H   0  0  0  0  0  0  0  0  0  0  0  0
   -4.1309    1.1475    0.9504 H   0  0  0  0  0  0  0  0  0  0  0  0
   -1.3405    0.1264    0.0638 C   0  0  0  0  0  0  0  0  0  0  0  0
   -2.5208   -1.5126   -1.1109 H   0  0  0  0  0  0  0  0  0  0  0  0
   -2.7598   -1.1674    0.6618 H   0  0  0  0  0  0  0  0  0  0  0  0
   -0.2040   -0.6320    0.0900 C   0  0  0  0  0  0  0  0  0  0  0  0
   -1.5894    0.5171    0.6805 H   0  0  0  0  0  0  0  0  0  0  0  0
   -1.2423    0.7194   -0.9320 H   0  0  0  0  0  0  0  0  0  0  0  0
    0.1094   -1.7800    1.1976 H   0  0  0  0  0  0  0  0  0  0  0  0
    0.8674    0.0427   -0.7117 H   0  0  0  0  0  0  0  0  0  0  0  0
   -0.5977   -0.8000   -0.5473 H   0  0  0  0  0  0  0  0  0  0  0  0
  1  5  1  0  0  0  0
  2  1  1  0  0  0  0
  2  8  1  0  0  0  0
  3  1  1  0  0  0  0
  4  1  1  0  0  0  0
  6 10  1  0  0  0  0
  7  2  1  0  0  0  0
 11  6  1  0  0  0  0
 13  9  1  0  0  0  0
 14  9  1  0  0  0  0
M  RAD  4   2   2   6   3   9   3  12   2
M  END
$$$$
