14
butane_opt
C  -3.971532   0.281537   0.140116
C  -2.721924  -0.616542  -0.153317
H  -4.910410  -0.266873  -0.037784
H  -4.053221   0.653810  -0.462990
H  -3.806977   1.336667   1.292115
C  -1.371563   0.142813  -0.117098
H  -3.068891  -1.314602  -1.039015
H  -2.758215  -1.340434   0.654957
C  -0.120478  -0.684446   0.210180
H  -1.478244   0.884088   0.753469
H  -1.279872   0.768373  -1.026812
H   0.026730  -1.646018   1.277916
H   0.718554  -0.119803  -0.625631
H  -0.213078  -0.879432  -0.259212
