14
butane_opt
C  -3.932578   0.249250   0.129317
C  -2.664060  -0.606123  -0.034253
H  -4.750761  -0.371954  -0.321520
H  -3.965686   0.519905  -0.510075
H  -4.100369   1.441638   1.162808
C  -1.388885   0.131617  -0.088790
H  -2.770660  -1.507481  -1.143327
H  -2.571812  -0.731620   0.446762
C  -0.209650  -0.696399   0.140857
H  -1.567189   0.784273   0.765782
H  -1.537120   0.866803  -1.148951
H  -0.152847  -1.899933   1.491347
H   0.880303   0.198602  -0.664776
H  -0.171357  -0.699623  -0.306862
