14
butane_opt
C  -3.924028   0.219027   0.016177
C  -2.752666  -0.566871   0.176600
H  -5.032580  -0.488671  -0.653743
H  -3.508991   0.764313  -0.837927
H  -4.135563   1.184357   0.847842
C  -1.430136   0.241609  -0.026154
H  -2.948332  -1.203126  -0.713474
H  -3.030298  -1.128104   0.837648
C  -0.045916  -0.749144   0.016844
H  -1.426718   0.894383   0.784383
H  -1.520415   0.749236  -0.805092
H  -0.099364  -1.221727   0.867558
H   0.733565  -0.308847  -0.159708
H  -0.193135  -1.498065  -0.927458
