butane_opt
 OpenBabel08242015393D

 14 13  0  0  0  0  0  0  0  0999 V2000
   -3.9440    0.2008    0.1584 C   0  0  0  0  0  0  0  0  0  0  0  0
   -2.7083   -0.6030   -0.0294 C   0  0  0  0  0  0  0  0  0  0  0  0
   -4.8361   -0.2837    0.0390 H   0  0  0  0  0  0  0  0  0  0  0  0
   -4.3876    0.5903   -0.5501 H   0  0  0  0  0  0  0  0  0  0  0  0
   -3.8886    1.0300    1.1464 H   0  0  0  0  0  0  0  0  0  0  0  0
   -1.4371    0.2654   -0.2553 C   0  0  0  0  0  0  0  0  0  0  0  0
   -2.8494   -1.1506   -0.8250 H   0  0  0  0  0  0  0  0  0  0  0  0
   -2.5797   -1.0902    0.7606 H   0  0  0  0  0  0  0  0  0  0  0  0
   -0.1192   -0.7572    0.1407 C   0  0  0  0  0  0  0  0  0  0  0  0
   -1.4320    0.9778    0.5245 H   0  0  0  0  0  0  0  0  0  0  0  0
   -1.2057    0.9176   -1.1238 H   0  0  0  0  0  0  0  0  0  0  0  0
   -0.5716   -1.0032    1.0373 H   0  0  0  0  0  0  0  0  0  0  0  0
    0.6869   -0.2633    0.9318 H   0  0  0  0  0  0  0  0  0  0  0  0
    0.6042   -1.5462   -0.7062 H   0  0  0  0  0  0  0  0  0  0  0  0
  1  5  1  0  0  0  0
  2  1  1  0  0  0  0
  2  8  1  0  0  0  0
  3  1  1  0  0  0  0
  4  1  1  0  0  0  0
  6  2  1  0  0  0  0
  6  9  1  0  0  0  0
  6 10  1  0  0  0  0
  7  2  1  0  0  0  0
  9 13  1  0  0  0  0
  9 12  1  0  0  0  0
 11  6  1  0  0  0  0
 14  9  1  0  0  0  0
M  END
$$$$
