butane_opt
 OpenBabel08242015393D

 14 11  0  0  0  0  0  0  0  0999 V2000
   -3.9715    0.2815    0.1401 C   0  0  0  0  0  0  0  0  0  0  0  0
   -2.7219   -0.6165   -0.1533 C   0  0  0  0  0  0  0  0  0  0  0  0
   -4.9104   -0.2669   -0.0378 H   0  0  0  0  0  0  0  0  0  0  0  0
   -4.0532    0.6538   -0.4630 H   0  0  0  0  0  0  0  0  0  0  0  0
   -3.8070    1.3367    1.2921 H   0  0  0  0  0  0  0  0  0  0  0  0
   -1.3716    0.1428   -0.1171 C   0  0  0  0  0  0  0  0  0  0  0  0
   -3.0689   -1.3146   -1.0390 H   0  0  0  0  0  0  0  0  0  0  0  0
   -2.7582   -1.3404    0.6550 H   0  0  0  0  0  0  0  0  0  0  0  0
   -0.1205   -0.6844    0.2102 C   0  0  0  0  0  0  0  0  0  0  0  0
   -1.4782    0.8841    0.7535 H   0  0  0  0  0  0  0  0  0  0  0  0
   -1.2799    0.7684   -1.0268 H   0  0  0  0  0  0  0  0  0  0  0  0
    0.0267   -1.6460    1.2779 H   0  0  0  0  0  0  0  0  0  0  0  0
    0.7186   -0.1198   -0.6256 H   0  0  0  0  0  0  0  0  0  0  0  0
   -0.2131   -0.8794   -0.2592 H   0  0  0  0  0  0  0  0  0  0  0  0
  2  6  1  0  0  0  0
  2  1  1  0  0  0  0
  2  8  1  0  0  0  0
  3  1  1  0  0  0  0
  4  1  1  0  0  0  0
  6  9  1  0  0  0  0
  6 10  1  0  0  0  0
  7  2  1  0  0  0  0
  9 12  1  0  0  0  0
 11  6  1  0  0  0  0
 13  9  1  0  0  0  0
M  RAD  4   1   2   5   2   9   2  14   2
M  END
$$$$
