14
butane_opt
C  -3.865252   0.262882   0.158564
C  -2.703336  -0.607904  -0.145739
H  -4.972438  -0.498933  -0.019130
H  -3.852523   0.518921  -0.525225
H  -3.814711   1.025790   0.941024
C  -1.437531   0.273725  -0.041868
H  -2.776951  -1.381768  -1.131009
H  -2.786478  -1.041618   0.652409
C  -0.197437  -0.737282   0.181012
H  -1.539593   0.611948   0.585920
H  -1.191872   1.041199  -0.969199
H   0.104484  -1.772251   1.262246
H   0.525308  -0.285040  -0.679131
H  -0.251598  -1.024376  -0.452354
