butane_opt
 OpenBabel08242015393D

 14 10  0  0  0  0  0  0  0  0999 V2000
   -3.8837    0.2537    0.1475 C   0  0  0  0  0  0  0  0  0  0  0  0
   -2.6986   -0.5382   -0.1841 C   0  0  0  0  0  0  0  0  0  0  0  0
   -4.9209   -0.4764    0.1066 H   0  0  0  0  0  0  0  0  0  0  0  0
   -3.9384    0.5182   -0.5101 H   0  0  0  0  0  0  0  0  0  0  0  0
   -3.5255    1.0744    1.1812 H   0  0  0  0  0  0  0  0  0  0  0  0
   -1.4393    0.1987   -0.0527 C   0  0  0  0  0  0  0  0  0  0  0  0
   -2.9901   -1.5505   -1.3115 H   0  0  0  0  0  0  0  0  0  0  0  0
   -2.6328   -1.0813    0.6537 H   0  0  0  0  0  0  0  0  0  0  0  0
   -0.1745   -0.7171    0.1420 C   0  0  0  0  0  1  0  0  0  0  0  0
   -1.3821    0.7627    0.7497 H   0  0  0  0  0  0  0  0  0  0  0  0
   -1.4366    0.9750   -0.8835 H   0  0  0  0  0  0  0  0  0  0  0  0
   -0.2791   -2.0932    1.6550 H   0  0  0  0  0  0  0  0  0  0  0  0
    0.6874   -0.3439   -0.6404 H   0  0  0  0  0  0  0  0  0  0  0  0
   -0.2280   -0.6179   -0.1153 H   0  0  0  0  0  0  0  0  0  0  0  0
  1  5  1  0  0  0  0
  2  6  1  0  0  0  0
  2  1  1  0  0  0  0
  2  8  1  0  0  0  0
  3  1  1  0  0  0  0
  4  1  1  0  0  0  0
  6 10  1  0  0  0  0
 11  6  1  0  0  0  0
 13  9  1  0  0  0  0
 14  6  1  0  0  0  0
M  RAD  3   2   2   7   2  12   2
M  END
$$$$
