butane_opt
 OpenBabel08242015393D

 14 13  0  0  0  0  0  0  0  0999 V2000
   -3.9003    0.1913   -0.1455 C   0  0  0  0  0  0  0  0  0  0  0  0
   -2.6938   -0.5244    0.1895 C   0  0  0  0  0  0  0  0  0  0  0  0
   -4.7871   -0.5290   -0.3585 H   0  0  0  0  0  0  0  0  0  0  0  0
   -3.8510    1.1083   -1.2635 H   0  0  0  0  0  0  0  0  0  0  0  0
   -4.0269    0.8856    0.6657 H   0  0  0  0  0  0  0  0  0  0  0  0
   -1.4400    0.1876    0.2866 C   0  0  0  0  0  0  0  0  0  0  0  0
   -2.6150   -1.2722   -0.5847 H   0  0  0  0  0  0  0  0  0  0  0  0
   -2.7618   -1.0005    1.0246 H   0  0  0  0  0  0  0  0  0  0  0  0
   -0.1738   -0.7485   -0.1777 C   0  0  0  0  0  0  0  0  0  0  0  0
   -1.2978    0.8695    1.1393 H   0  0  0  0  0  0  0  0  0  0  0  0
   -1.7380    0.8050   -0.5187 H   0  0  0  0  0  0  0  0  0  0  0  0
    0.1386   -1.5751    0.9162 H   0  0  0  0  0  0  0  0  0  0  0  0
    0.8846    0.0320   -0.6848 H   0  0  0  0  0  0  0  0  0  0  0  0
   -0.4428   -1.0473   -0.7371 H   0  0  0  0  0  0  0  0  0  0  0  0
  1  2  1  0  0  0  0
  1  5  1  0  0  0  0
  2  6  1  0  0  0  0
  2  8  1  0  0  0  0
  3  1  1  0  0  0  0
  4  1  1  0  0  0  0
  6 10  1  0  0  0  0
  7  2  1  0  0  0  0
  9  6  1  0  0  0  0
  9 12  1  0  0  0  0
 11  6  1  0  0  0  0
 13  9  1  0  0  0  0
 14  9  1  0  0  0  0
M  END
$$$$
