14
butane_opt
C  -3.916056   0.286498  -0.084640
C  -2.653079  -0.651372   0.183811
H  -4.853262  -0.277206   0.006263
H  -3.903968   1.117546  -1.126633
H  -3.908267   0.618481   0.470276
C  -1.384273   0.206755   0.043907
H  -2.690946  -0.879944  -0.337268
H  -2.748779  -1.508335   1.352992
C  -0.230639  -0.679362  -0.056443
H  -1.233207   0.911169   1.022565
H  -1.422054   0.583831  -0.711850
H  -0.390739  -0.582999   0.491723
H   0.697626  -0.203706   0.664902
H  -0.350071  -2.237399  -1.551294
