14
butane_opt
C  -3.878891   0.210596  -0.054852
C  -2.672849  -0.574758   0.058360
H  -4.961549  -0.541237   0.555205
H  -3.957211   1.404764  -1.365673
H  -3.633993   0.405461   0.519030
C  -1.488908   0.256867   0.100558
H  -2.567843  -1.172607  -0.713867
H  -2.603686  -1.267066   0.976931
C  -0.172039  -0.705975  -0.021809
H  -1.197802   1.157227   1.130585
H  -1.573276   0.533710  -0.401918
H  -0.103747  -1.336854   0.676250
H   0.550668  -0.376594  -0.032952
H  -0.351533  -1.540612  -0.941034
