14
butane_opt
C  -3.911874   0.299274  -0.178369
C  -2.650859  -0.654431   0.208653
H  -4.564524  -0.068844  -0.108889
H  -3.900500   1.192077  -1.158292
H  -4.163460   0.838262   0.562954
C  -1.431721   0.071649   0.244414
H  -2.309338  -1.427737  -0.651666
H  -2.766152  -1.537024   1.331006
C  -0.241363  -0.597852  -0.208027
H  -1.192096   1.148774   1.354357
H  -1.557466   0.433066  -0.266917
H  -0.094832  -1.537677   0.848462
H   0.789484   0.025035  -0.420387
H  -0.466615  -0.898540  -0.832651
