butane_opt
 OpenBabel08242015393D

 14  8  0  0  0  0  0  0  0  0999 V2000
   -4.0259    0.2966    0.0611 C   0  0  0  0  0  1  0  0  0  0  0  0
   -2.7278   -0.6618    0.0473 C   0  0  0  0  0  0  0  0  0  0  0  0
   -4.6996   -0.1191   -0.6228 H   0  0  0  0  0  0  0  0  0  0  0  0
   -3.8850   -0.0245   -0.0635 H   0  0  0  0  0  0  0  0  0  0  0  0
   -4.3879    1.7727    1.4152 H   0  0  0  0  0  0  0  0  0  0  0  0
   -1.3146    0.1749   -0.1135 C   0  0  0  0  0  1  0  0  0  0  0  0
   -2.6929   -1.4443   -0.9413 H   0  0  0  0  0  0  0  0  0  0  0  0
   -2.5322   -1.2002    0.7285 H   0  0  0  0  0  0  0  0  0  0  0  0
   -0.1532   -0.6417    0.1482 C   0  0  0  0  0  0  0  0  0  0  0  0
   -1.2566    0.3997    0.3042 H   0  0  0  0  0  0  0  0  0  0  0  0
   -1.1448    1.1706   -1.2533 H   0  0  0  0  0  0  0  0  0  0  0  0
   -0.1770   -1.5742    1.1360 H   0  0  0  0  0  0  0  0  0  0  0  0
    0.6441   -0.2895   -0.1688 H   0  0  0  0  0  0  0  0  0  0  0  0
   -0.2201   -1.2025   -0.6832 H   0  0  0  0  0  0  0  0  0  0  0  0
  2  8  1  0  0  0  0
  3  1  1  0  0  0  0
  4  2  1  0  0  0  0
  6  9  1  0  0  0  0
  7  2  1  0  0  0  0
  9 12  1  0  0  0  0
 13  9  1  0  0  0  0
 14  9  1  0  0  0  0
M  RAD  4   2   2   5   2  10   2  11   2
M  END
$$$$
