14
butane_opt
C  -3.867049   0.193725   0.112484
C  -2.688787  -0.491965  -0.026292
H  -4.873091  -0.509448  -0.249582
H  -3.724962   0.026171  -0.361710
H  -3.928598   1.568757   1.389065
C  -1.440389   0.181939  -0.201861
H  -3.136245  -1.033638  -0.726334
H  -2.690936  -0.972642   0.764240
C  -0.173140  -0.776402   0.139818
H  -1.469766   0.852644   0.555766
H  -1.645283   0.956471  -1.103410
H  -0.483412  -1.528730   1.137369
H   0.710628   0.004248   0.266164
H   0.270499  -1.174365  -0.426148
