butane_opt
 OpenBabel08242015393D

 14 10  0  0  0  0  0  0  0  0999 V2000
   -4.0140    0.2089   -0.0163 C   0  0  0  0  0  0  0  0  0  0  0  0
   -2.6829   -0.6056   -0.0045 C   0  0  0  0  0  0  0  0  0  0  0  0
   -4.8820   -0.4178    0.7499 H   0  0  0  0  0  0  0  0  0  0  0  0
   -4.0312    1.2588   -1.2805 H   0  0  0  0  0  0  0  0  0  0  0  0
   -3.6544    0.3297    0.5062 H   0  0  0  0  0  0  0  0  0  0  0  0
   -1.4100    0.3396    0.0763 C   0  0  0  0  0  0  0  0  0  0  0  0
   -2.8791   -1.2296   -0.7865 H   0  0  0  0  0  0  0  0  0  0  0  0
   -2.7572   -1.1868    1.0137 H   0  0  0  0  0  0  0  0  0  0  0  0
   -0.1220   -0.7487   -0.0148 C   0  0  0  0  0  0  0  0  0  0  0  0
   -1.5448    1.2533    1.1505 H   0  0  0  0  0  0  0  0  0  0  0  0
   -1.3684    0.5238   -0.5568 H   0  0  0  0  0  0  0  0  0  0  0  0
    0.1232   -1.4787    1.0749 H   0  0  0  0  0  0  0  0  0  0  0  0
    0.6758   -0.3182   -0.0013 H   0  0  0  0  0  0  0  0  0  0  0  0
    0.0307   -1.5277   -0.9842 H   0  0  0  0  0  0  0  0  0  0  0  0
  1  5  1  0  0  0  0
  1  3  1  0  0  0  0
  2  8  1  0  0  0  0
  6 10  1  0  0  0  0
  7  2  1  0  0  0  0
  9 13  1  0  0  0  0
  9  6  1  0  0  0  0
  9 12  1  0  0  0  0
 11  6  1  0  0  0  0
 14  9  1  0  0  0  0
M  RAD  4   1   3   2   3   4   2   6   2
M  END
$$$$
