14
butane_opt
C  -3.975218   0.207365   0.146700
C  -2.720629  -0.569966  -0.163801
H  -5.002433  -0.446071   0.163203
H  -4.050024   0.675588  -0.574072
H  -3.709037   0.910868   0.922670
C  -1.424911   0.256371  -0.049442
H  -2.919223  -1.307893  -1.060771
H  -2.755706  -0.902461   0.620834
C  -0.035986  -0.757466   0.114137
H  -1.439098   1.080437   0.828405
H  -1.592478   0.865659  -0.818806
H  -0.110183  -2.128391   1.481851
H   0.677596  -0.339302  -0.333383
H  -0.190047  -0.576671  -0.260962
