butane_opt
 OpenBabel08242015393D

 14 12  0  0  0  0  0  0  0  0999 V2000
   -3.9116    0.2278   -0.1209 C   0  0  0  0  0  0  0  0  0  0  0  0
   -2.6692   -0.5437    0.1933 C   0  0  0  0  0  0  0  0  0  0  0  0
   -5.0302   -0.5955    0.1637 H   0  0  0  0  0  0  0  0  0  0  0  0
   -3.7941    1.0588   -1.3475 H   0  0  0  0  0  0  0  0  0  0  0  0
   -3.8127    0.4731    0.5119 H   0  0  0  0  0  0  0  0  0  0  0  0
   -1.4330    0.1968    0.2023 C   0  0  0  0  0  0  0  0  0  0  0  0
   -2.3431   -1.0240   -0.4729 H   0  0  0  0  0  0  0  0  0  0  0  0
   -2.9012   -1.1951    1.1132 H   0  0  0  0  0  0  0  0  0  0  0  0
   -0.1583   -0.7102   -0.1300 C   0  0  0  0  0  0  0  0  0  0  0  0
   -1.3739    0.8702    1.0097 H   0  0  0  0  0  0  0  0  0  0  0  0
   -1.8183    0.9734   -0.8765 H   0  0  0  0  0  0  0  0  0  0  0  0
   -0.1493   -0.9984    0.5471 H   0  0  0  0  0  0  0  0  0  0  0  0
    0.6850   -0.2151    0.4305 H   0  0  0  0  0  0  0  0  0  0  0  0
   -0.3852   -1.9161   -1.3904 H   0  0  0  0  0  0  0  0  0  0  0  0
  1  3  1  0  0  0  0
  1  2  1  0  0  0  0
  1  5  1  0  0  0  0
  2  6  1  0  0  0  0
  2  8  1  0  0  0  0
  4  1  1  0  0  0  0
  6 10  1  0  0  0  0
  7  2  1  0  0  0  0
  9  6  1  0  0  0  0
  9 13  1  0  0  0  0
  9 12  1  0  0  0  0
 11  6  1  0  0  0  0
M  RAD  2   9   2  14   2
M  END
$$$$
