14
butane_opt
C  -3.888251   0.220400  -0.203585
C  -2.690561  -0.517502   0.356289
H  -4.866065  -0.518678  -0.690162
H  -3.621572   0.545530  -1.017888
H  -4.130765   0.938150   0.655900
C  -1.428999   0.259860   0.197441
H  -2.838885  -1.109640  -0.578131
H  -3.002587  -1.314486   1.297428
C  -0.163897  -0.781460  -0.191163
H  -1.231533   0.906645   1.034467
H  -1.783815   0.750955  -0.542470
H   0.065399  -1.221763   0.485277
H   0.759378  -0.114215  -0.135930
H  -0.280063  -1.511901  -0.966939
