butane_opt
 OpenBabel08242015393D

 14 11  0  0  0  0  0  0  0  0999 V2000
   -3.9552    0.3530   -0.0583 C   0  0  0  0  0  0  0  0  0  0  0  0
   -2.7551   -0.7545    0.0629 C   0  0  0  0  0  0  0  0  0  0  0  0
   -4.8116   -0.1621    0.6729 H   0  0  0  0  0  0  0  0  0  0  0  0
   -4.4394    1.6652   -1.4817 H   0  0  0  0  0  0  0  0  0  0  0  0
   -4.0825    0.2545    0.3662 H   0  0  0  0  0  0  0  0  0  0  0  0
   -1.3525    0.1826    0.1977 C   0  0  0  0  0  0  0  0  0  0  0  0
   -2.5948   -1.3672   -0.7695 H   0  0  0  0  0  0  0  0  0  0  0  0
   -2.6797   -1.3607    0.9984 H   0  0  0  0  0  0  0  0  0  0  0  0
   -0.1198   -0.6512   -0.0738 C   0  0  0  0  0  0  0  0  0  0  0  0
   -1.5495    0.8908    1.0384 H   0  0  0  0  0  0  0  0  0  0  0  0
   -1.1632    0.5416   -0.6491 H   0  0  0  0  0  0  0  0  0  0  0  0
    0.0419   -0.9935    0.4995 H   0  0  0  0  0  0  0  0  0  0  0  0
    0.8282   -0.0754    0.1789 H   0  0  0  0  0  0  0  0  0  0  0  0
   -0.3787   -1.3716   -1.0461 H   0  0  0  0  0  0  0  0  0  0  0  0
  1  2  1  0  0  0  0
  1  3  1  0  0  0  0
  2  6  1  0  0  0  0
  2  8  1  0  0  0  0
  6 10  1  0  0  0  0
  7  2  1  0  0  0  0
  9 13  1  0  0  0  0
  9  6  1  0  0  0  0
  9 12  1  0  0  0  0
 11  6  1  0  0  0  0
 14  9  1  0  0  0  0
M  RAD  3   1   3   4   2   5   2
M  END
$$$$
