14
butane_opt
C  -3.943750   0.208958  -0.083600
C  -2.695932  -0.613421   0.135688
H  -4.832434  -0.395593   0.710052
H  -4.272951   1.694607  -1.605253
H  -3.807304   0.159139   0.430961
C  -1.440410   0.290063   0.182414
H  -2.773285  -1.435492  -0.887777
H  -3.008508  -0.988333   0.807821
C  -0.067340  -0.745363  -0.118529
H  -1.362718   1.049076   1.228760
H  -1.522834   0.804857  -0.716178
H  -0.170392  -1.157856   0.756436
H   0.711949  -0.276481   0.258741
H  -0.164680  -1.601476  -1.016745
