14
butane_opt
C  -3.965949   0.302596  -0.109558
C  -2.688295  -0.691343   0.107426
H  -4.810186  -0.343079  -0.099020
H  -4.188222   0.798718  -0.957040
H  -4.249940   1.146498   0.837300
C  -1.366900   0.175701   0.149214
H  -2.601138  -1.285353  -0.677135
H  -2.902219  -1.453648   1.281000
C  -0.118985  -0.693109  -0.027362
H  -1.333466   1.080746   1.122145
H  -1.660062   0.837696  -0.730659
H   0.047849  -1.234034   0.755242
H   0.860516  -0.110577  -0.634968
H  -0.468187  -1.034306  -0.866339
