14
butane_opt
C  -3.924924   0.235823   0.121663
C  -2.777216  -0.630099  -0.165105
H  -4.830363  -0.376106   0.820995
H  -4.464133   1.056077  -0.782933
H  -3.652857   1.133764   0.992232
C  -1.418594   0.254340  -0.054651
H  -3.015703  -1.620746  -1.274364
H  -2.742969  -1.035395   0.563299
C  -0.101870  -0.742071   0.184110
H  -1.388187   0.745990   0.653135
H  -1.175856   1.040711  -1.242814
H   0.114967  -1.534353   1.211709
H   0.826838  -0.148011  -0.058546
H  -0.016616  -1.125329  -0.425745
