butane_opt
 OpenBabel08242015393D

 14 13  0  0  0  0  0  0  0  0999 V2000
   -3.9236    0.2533    0.2098 C   0  0  0  0  0  0  0  0  0  0  0  0
   -2.7844   -0.6003   -0.1601 C   0  0  0  0  0  0  0  0  0  0  0  0
   -5.0247   -0.4918    0.4008 H   0  0  0  0  0  0  0  0  0  0  0  0
   -4.3065    0.9975   -0.7111 H   0  0  0  0  0  0  0  0  0  0  0  0
   -3.6972    0.8065    0.9978 H   0  0  0  0  0  0  0  0  0  0  0  0
   -1.4380    0.2572   -0.1366 C   0  0  0  0  0  0  0  0  0  0  0  0
   -3.0624   -1.5134   -1.1885 H   0  0  0  0  0  0  0  0  0  0  0  0
   -2.7298   -0.9424    0.3807 H   0  0  0  0  0  0  0  0  0  0  0  0
   -0.0559   -0.7542    0.1961 C   0  0  0  0  0  0  0  0  0  0  0  0
   -1.3346    0.6771    0.5536 H   0  0  0  0  0  0  0  0  0  0  0  0
   -1.3269    1.1486   -1.2430 H   0  0  0  0  0  0  0  0  0  0  0  0
   -0.3739   -1.5439    1.2695 H   0  0  0  0  0  0  0  0  0  0  0  0
    1.0112   -0.1969    0.3354 H   0  0  0  0  0  0  0  0  0  0  0  0
    0.2549   -1.2957   -0.6591 H   0  0  0  0  0  0  0  0  0  0  0  0
  1  3  1  0  0  0  0
  1  5  1  0  0  0  0
  2  6  1  0  0  0  0
  2  1  1  0  0  0  0
  2  8  1  0  0  0  0
  4  1  1  0  0  0  0
  6  9  1  0  0  0  0
  6 10  1  0  0  0  0
  7  2  1  0  0  0  0
  9 13  1  0  0  0  0
  9 12  1  0  0  0  0
 11  6  1  0  0  0  0
 14  9  1  0  0  0  0
M  END
$$$$
