14
butane_opt
C  -3.921156   0.349662  -0.137383
C  -2.665269  -0.726618   0.227238
H  -4.876664  -0.300838   0.190006
H  -3.813602   1.113930  -1.129929
H  -3.969887   1.010687   0.751971
C  -1.348495   0.132295   0.043604
H  -2.416733  -1.142351  -0.298037
H  -2.919458  -1.567035   1.326070
C  -0.277275  -0.649179  -0.083206
H  -1.262166   0.864103   0.965906
H  -1.530908   0.668306  -0.692937
H  -0.402236  -0.407304   0.403483
H   0.673244  -0.010574   0.679323
H   0.000945  -1.976314  -1.418880
