butane_opt
 OpenBabel08242015393D

 14 11  0  0  0  0  0  0  0  0999 V2000
   -4.0179    0.3186   -0.0239 C   0  0  0  0  0  0  0  0  0  0  0  0
   -2.7116   -0.6742    0.0482 C   0  0  0  0  0  0  0  0  0  0  0  0
   -4.7571   -0.2214    0.6022 H   0  0  0  0  0  0  0  0  0  0  0  0
   -4.4982    1.5596   -1.3013 H   0  0  0  0  0  0  0  0  0  0  0  0
   -3.8277    0.5188    0.5931 H   0  0  0  0  0  0  0  0  0  0  0  0
   -1.3048    0.1566    0.0970 C   0  0  0  0  0  0  0  0  0  0  0  0
   -2.7311   -1.6903   -1.0965 H   0  0  0  0  0  0  0  0  0  0  0  0
   -2.5680   -1.2051    0.8514 H   0  0  0  0  0  0  0  0  0  0  0  0
   -0.2125   -0.6494   -0.0064 C   0  0  0  0  0  0  0  0  0  0  0  0
   -1.1304    0.7728    1.0497 H   0  0  0  0  0  0  0  0  0  0  0  0
   -1.3654    0.6274   -0.7177 H   0  0  0  0  0  0  0  0  0  0  0  0
   -0.0516   -1.3062    0.9207 H   0  0  0  0  0  0  0  0  0  0  0  0
    0.7959    0.0202    0.0696 H   0  0  0  0  0  0  0  0  0  0  0  0
    0.0327   -1.2876   -0.9703 H   0  0  0  0  0  0  0  0  0  0  0  0
  1  2  1  0  0  0  0
  1  5  1  0  0  0  0
  1  3  1  0  0  0  0
  2  6  1  0  0  0  0
  2  8  1  0  0  0  0
  6 10  1  0  0  0  0
  9 13  1  0  0  0  0
  9  6  1  0  0  0  0
  9 12  1  0  0  0  0
 11  6  1  0  0  0  0
 14  9  1  0  0  0  0
M  RAD  4   1   2   2   2   4   2   7   2
M  END
$$$$
