butane_opt
 OpenBabel08242015393D

 14 12  0  0  0  0  0  0  0  0999 V2000
   -3.9467    0.2014    0.2116 C   0  0  0  0  0  0  0  0  0  0  0  0
   -2.7329   -0.5642   -0.0866 C   0  0  0  0  0  0  0  0  0  0  0  0
   -4.7450   -0.3641    0.1112 H   0  0  0  0  0  0  0  0  0  0  0  0
   -4.1587    0.9180   -0.7616 H   0  0  0  0  0  0  0  0  0  0  0  0
   -3.9040    0.9460    1.1695 H   0  0  0  0  0  0  0  0  0  0  0  0
   -1.3991    0.2882   -0.2025 C   0  0  0  0  0  0  0  0  0  0  0  0
   -3.0334   -1.6351   -1.1760 H   0  0  0  0  0  0  0  0  0  0  0  0
   -2.9446   -1.0908    0.6347 H   0  0  0  0  0  0  0  0  0  0  0  0
   -0.0882   -0.7282    0.1919 C   0  0  0  0  0  0  0  0  0  0  0  0
   -1.4056    0.6243    0.4410 H   0  0  0  0  0  0  0  0  0  0  0  0
   -1.4462    1.1498   -1.2241 H   0  0  0  0  0  0  0  0  0  0  0  0
   -0.4799   -1.3970    1.1161 H   0  0  0  0  0  0  0  0  0  0  0  0
    0.7026   -0.3703    0.6499 H   0  0  0  0  0  0  0  0  0  0  0  0
    0.4166   -1.6104   -0.8878 H   0  0  0  0  0  0  0  0  0  0  0  0
  1  5  1  0  0  0  0
  2  1  1  0  0  0  0
  2  8  1  0  0  0  0
  3  1  1  0  0  0  0
  4  1  1  0  0  0  0
  6  2  1  0  0  0  0
  6  9  1  0  0  0  0
  6 10  1  0  0  0  0
  9 13  1  0  0  0  0
  9 12  1  0  0  0  0
 11  6  1  0  0  0  0
 14  9  1  0  0  0  0
M  RAD  2   2   2   7   2
M  END
$$$$
