14
butane_opt
C  -3.900347   0.191273  -0.145506
C  -2.693849  -0.524411   0.189453
H  -4.787116  -0.528991  -0.358524
H  -3.851029   1.108329  -1.263549
H  -4.026875   0.885644   0.665749
C  -1.439978   0.187560   0.286628
H  -2.615016  -1.272247  -0.584706
H  -2.761781  -1.000513   1.024561
C  -0.173816  -0.748496  -0.177746
H  -1.297779   0.869501   1.139253
H  -1.737956   0.805046  -0.518656
H   0.138585  -1.575078   0.916203
H   0.884608   0.032003  -0.684786
H  -0.442754  -1.047294  -0.737149
