butane_opt
 OpenBabel08242015393D

 14 13  0  0  0  0  0  0  0  0999 V2000
   -3.9244    0.2638    0.0494 C   0  0  0  0  0  0  0  0  0  0  0  0
   -2.7088   -0.6140    0.0165 C   0  0  0  0  0  0  0  0  0  0  0  0
   -4.8246   -0.3459    0.0588 H   0  0  0  0  0  0  0  0  0  0  0  0
   -4.0029    0.8417   -0.8279 H   0  0  0  0  0  0  0  0  0  0  0  0
   -3.9561    0.9545    0.9313 H   0  0  0  0  0  0  0  0  0  0  0  0
   -1.4065    0.1858   -0.0427 C   0  0  0  0  0  0  0  0  0  0  0  0
   -2.7442   -1.2900   -0.8196 H   0  0  0  0  0  0  0  0  0  0  0  0
   -2.7384   -1.2159    0.9034 H   0  0  0  0  0  0  0  0  0  0  0  0
   -0.1617   -0.6986    0.0607 C   0  0  0  0  0  0  0  0  0  0  0  0
   -1.4228    0.8724    0.8042 H   0  0  0  0  0  0  0  0  0  0  0  0
   -1.3928    0.8331   -0.9173 H   0  0  0  0  0  0  0  0  0  0  0  0
   -0.2003   -1.2503    0.9463 H   0  0  0  0  0  0  0  0  0  0  0  0
    0.7351   -0.1343    0.1553 H   0  0  0  0  0  0  0  0  0  0  0  0
   -0.0554   -1.3881   -0.8015 H   0  0  0  0  0  0  0  0  0  0  0  0
  1  3  1  0  0  0  0
  1  5  1  0  0  0  0
  2  1  1  0  0  0  0
  2  8  1  0  0  0  0
  4  1  1  0  0  0  0
  6  2  1  0  0  0  0
  6  9  1  0  0  0  0
  6 10  1  0  0  0  0
  7  2  1  0  0  0  0
  9 13  1  0  0  0  0
  9 12  1  0  0  0  0
 11  6  1  0  0  0  0
 14  9  1  0  0  0  0
M  END
$$$$
