butane_opt
 OpenBabel08242015393D

 14 13  0  0  0  0  0  0  0  0999 V2000
   -3.9249    0.2358    0.1217 C   0  0  0  0  0  0  0  0  0  0  0  0
   -2.7772   -0.6301   -0.1651 C   0  0  0  0  0  0  0  0  0  0  0  0
   -4.8304   -0.3761    0.8210 H   0  0  0  0  0  0  0  0  0  0  0  0
   -4.4641    1.0561   -0.7829 H   0  0  0  0  0  0  0  0  0  0  0  0
   -3.6529    1.1338    0.9922 H   0  0  0  0  0  0  0  0  0  0  0  0
   -1.4186    0.2543   -0.0547 C   0  0  0  0  0  0  0  0  0  0  0  0
   -3.0157   -1.6207   -1.2744 H   0  0  0  0  0  0  0  0  0  0  0  0
   -2.7430   -1.0354    0.5633 H   0  0  0  0  0  0  0  0  0  0  0  0
   -0.1019   -0.7421    0.1841 C   0  0  0  0  0  0  0  0  0  0  0  0
   -1.3882    0.7460    0.6531 H   0  0  0  0  0  0  0  0  0  0  0  0
   -1.1759    1.0407   -1.2428 H   0  0  0  0  0  0  0  0  0  0  0  0
    0.1150   -1.5344    1.2117 H   0  0  0  0  0  0  0  0  0  0  0  0
    0.8268   -0.1480   -0.0585 H   0  0  0  0  0  0  0  0  0  0  0  0
   -0.0166   -1.1253   -0.4257 H   0  0  0  0  0  0  0  0  0  0  0  0
  1  3  1  0  0  0  0
  1  5  1  0  0  0  0
  2  6  1  0  0  0  0
  2  1  1  0  0  0  0
  2  8  1  0  0  0  0
  4  1  1  0  0  0  0
  6  9  1  0  0  0  0
  6 10  1  0  0  0  0
  7  2  1  0  0  0  0
  9 12  1  0  0  0  0
 11  6  1  0  0  0  0
 13  9  1  0  0  0  0
 14  9  1  0  0  0  0
M  END
$$$$
