14
butane_opt
C  -3.993018   0.226040   0.160168
C  -2.754370  -0.632811  -0.047515
H  -4.800643  -0.079836  -0.372580
H  -3.979016   0.725470  -0.635779
H  -3.950241   1.230820   1.231940
C  -1.405294   0.262914  -0.133723
H  -2.856558  -1.771300  -1.131842
H  -2.548916  -1.117970   0.661917
C  -0.078624  -0.715504   0.151196
H  -1.308737   0.676248   0.474025
H  -1.654096   0.998120  -1.104743
H  -0.113106  -1.533084   1.322280
H   0.899241  -0.104503  -0.021747
H   0.039365  -1.141703  -0.496673
