butane_opt
 OpenBabel08242015393D

 14 13  0  0  0  0  0  0  0  0999 V2000
   -3.9843    0.3145    0.1879 C   0  0  0  0  0  0  0  0  0  0  0  0
   -2.6971   -0.6555   -0.1659 C   0  0  0  0  0  0  0  0  0  0  0  0
   -4.8455   -0.1808    0.7744 H   0  0  0  0  0  0  0  0  0  0  0  0
   -4.2859    1.2243   -0.8844 H   0  0  0  0  0  0  0  0  0  0  0  0
   -3.9284    0.7268    0.8736 H   0  0  0  0  0  0  0  0  0  0  0  0
   -1.3786    0.0746   -0.1219 C   0  0  0  0  0  0  0  0  0  0  0  0
   -2.8037   -1.5634   -1.2165 H   0  0  0  0  0  0  0  0  0  0  0  0
   -2.5897   -1.0858    0.5974 H   0  0  0  0  0  0  0  0  0  0  0  0
   -0.1613   -0.6060    0.1743 C   0  0  0  0  0  0  0  0  0  0  0  0
   -1.4310    0.6407    0.6841 H   0  0  0  0  0  0  0  0  0  0  0  0
   -1.4983    0.9226   -1.2664 H   0  0  0  0  0  0  0  0  0  0  0  0
   -0.3329   -1.2794    1.1330 H   0  0  0  0  0  0  0  0  0  0  0  0
    1.0469    0.2311    0.4895 H   0  0  0  0  0  0  0  0  0  0  0  0
    0.2121   -1.5686   -0.6369 H   0  0  0  0  0  0  0  0  0  0  0  0
  1  3  1  0  0  0  0
  1  5  1  0  0  0  0
  2  6  1  0  0  0  0
  2  1  1  0  0  0  0
  2  8  1  0  0  0  0
  4  1  1  0  0  0  0
  6  9  1  0  0  0  0
  6 10  1  0  0  0  0
  7  2  1  0  0  0  0
  9 13  1  0  0  0  0
  9 12  1  0  0  0  0
 11  6  1  0  0  0  0
 14  9  1  0  0  0  0
M  END
$$$$
