14
butane_opt
C  -3.889328   0.221982   0.238403
C  -2.736882  -0.483185  -0.198091
H  -4.804313  -0.471797   0.658451
H  -4.087204   0.920599  -0.814940
H  -3.294797   0.521489   0.895306
C  -1.422018   0.178081  -0.186713
H  -2.847414  -1.378288  -1.283431
H  -2.702197  -1.065308   0.531429
C  -0.174920  -0.725799   0.205934
H  -1.605885   0.910956   0.720939
H  -1.604936   0.841966  -1.141761
H  -0.526618  -1.493315   1.259522
H   0.684548  -0.128574   0.393515
H   0.404524  -1.396345  -0.503883
