butane_opt
 OpenBabel08242015393D

 14 10  0  0  0  0  0  0  0  0999 V2000
   -3.9438    0.2090   -0.0836 C   0  0  0  0  0  1  0  0  0  0  0  0
   -2.6959   -0.6134    0.1357 C   0  0  0  0  0  0  0  0  0  0  0  0
   -4.8324   -0.3956    0.7101 H   0  0  0  0  0  0  0  0  0  0  0  0
   -4.2730    1.6946   -1.6053 H   0  0  0  0  0  0  0  0  0  0  0  0
   -3.8073    0.1591    0.4310 H   0  0  0  0  0  0  0  0  0  0  0  0
   -1.4404    0.2901    0.1824 C   0  0  0  0  0  0  0  0  0  0  0  0
   -2.7733   -1.4355   -0.8878 H   0  0  0  0  0  0  0  0  0  0  0  0
   -3.0085   -0.9883    0.8078 H   0  0  0  0  0  0  0  0  0  0  0  0
   -0.0673   -0.7454   -0.1185 C   0  0  0  0  0  0  0  0  0  0  0  0
   -1.3627    1.0491    1.2288 H   0  0  0  0  0  0  0  0  0  0  0  0
   -1.5228    0.8049   -0.7162 H   0  0  0  0  0  0  0  0  0  0  0  0
   -0.1704   -1.1579    0.7564 H   0  0  0  0  0  0  0  0  0  0  0  0
    0.7119   -0.2765    0.2587 H   0  0  0  0  0  0  0  0  0  0  0  0
   -0.1647   -1.6015   -1.0167 H   0  0  0  0  0  0  0  0  0  0  0  0
  1  3  1  0  0  0  0
  2  5  1  0  0  0  0
  2  8  1  0  0  0  0
  6 10  1  0  0  0  0
  7  2  1  0  0  0  0
  9  6  1  0  0  0  0
  9 13  1  0  0  0  0
  9 12  1  0  0  0  0
 11  6  1  0  0  0  0
 14  9  1  0  0  0  0
M  RAD  3   2   2   4   2   6   2
M  END
$$$$
