butane_opt
 OpenBabel08242015393D

 14 12  0  0  0  0  0  0  0  0999 V2000
   -4.0298    0.3095   -0.0687 C   0  0  0  0  0  0  0  0  0  0  0  0
   -2.7084   -0.6563    0.0987 C   0  0  0  0  0  0  0  0  0  0  0  0
   -4.8104   -0.2542    0.0295 H   0  0  0  0  0  0  0  0  0  0  0  0
   -3.8722    1.1928   -1.2472 H   0  0  0  0  0  0  0  0  0  0  0  0
   -4.1105    0.8077    0.7486 H   0  0  0  0  0  0  0  0  0  0  0  0
   -1.3908    0.0957    0.1582 C   0  0  0  0  0  0  0  0  0  0  0  0
   -2.3216   -1.3261   -0.5975 H   0  0  0  0  0  0  0  0  0  0  0  0
   -2.7814   -1.1808    0.8862 H   0  0  0  0  0  0  0  0  0  0  0  0
   -0.1371   -0.6249   -0.1059 C   0  0  0  0  0  0  0  0  0  0  0  0
   -1.0809    1.0712    1.2274 H   0  0  0  0  0  0  0  0  0  0  0  0
   -1.4365    0.3211   -0.5229 H   0  0  0  0  0  0  0  0  0  0  0  0
    0.1288   -1.5984    1.1304 H   0  0  0  0  0  0  0  0  0  0  0  0
    0.8243    0.0016   -0.4814 H   0  0  0  0  0  0  0  0  0  0  0  0
   -0.4153   -0.9344   -0.6735 H   0  0  0  0  0  0  0  0  0  0  0  0
  1  3  1  0  0  0  0
  1  2  1  0  0  0  0
  1  5  1  0  0  0  0
  2  6  1  0  0  0  0
  2  8  1  0  0  0  0
  4  1  1  0  0  0  0
  6 10  1  0  0  0  0
  7  2  1  0  0  0  0
  9  6  1  0  0  0  0
 11  6  1  0  0  0  0
 13  9  1  0  0  0  0
 14  9  1  0  0  0  0
M  RAD  2   9   2  12   2
M  END
$$$$
