butane_opt
 OpenBabel08242015393D

 14 12  0  0  0  0  0  0  0  0999 V2000
   -3.9937    0.2559   -0.1406 C   0  0  0  0  0  0  0  0  0  0  0  0
   -2.7299   -0.6297    0.1642 C   0  0  0  0  0  0  0  0  0  0  0  0
   -5.1263   -0.4583   -0.2680 H   0  0  0  0  0  0  0  0  0  0  0  0
   -3.8936    1.0909   -1.1992 H   0  0  0  0  0  0  0  0  0  0  0  0
   -3.9554    0.7062    0.4835 H   0  0  0  0  0  0  0  0  0  0  0  0
   -1.4106    0.2234    0.3180 C   0  0  0  0  0  0  0  0  0  0  0  0
   -2.2802   -1.4290   -0.5633 H   0  0  0  0  0  0  0  0  0  0  0  0
   -3.1167   -1.1207    1.0411 H   0  0  0  0  0  0  0  0  0  0  0  0
   -0.0600   -0.6855   -0.1651 C   0  0  0  0  0  0  0  0  0  0  0  0
   -1.2683    1.0172    1.2495 H   0  0  0  0  0  0  0  0  0  0  0  0
   -1.5942    0.9680   -0.6155 H   0  0  0  0  0  0  0  0  0  0  0  0
    0.4293   -1.7576    0.9518 H   0  0  0  0  0  0  0  0  0  0  0  0
    0.6509   -0.2531   -0.8875 H   0  0  0  0  0  0  0  0  0  0  0  0
   -0.5302   -1.2344   -0.8574 H   0  0  0  0  0  0  0  0  0  0  0  0
  1  2  1  0  0  0  0
  1  5  1  0  0  0  0
  2  6  1  0  0  0  0
  2  8  1  0  0  0  0
  3  1  1  0  0  0  0
  4  1  1  0  0  0  0
  6 10  1  0  0  0  0
  7  2  1  0  0  0  0
  9  6  1  0  0  0  0
 11  6  1  0  0  0  0
 13  9  1  0  0  0  0
 14  9  1  0  0  0  0
M  RAD  2   9   2  12   2
M  END
$$$$
