butane_opt
 OpenBabel08242015393D

 14 10  0  0  0  0  0  0  0  0999 V2000
   -3.8889    0.2893    0.1590 C   0  0  0  0  0  1  0  0  0  0  0  0
   -2.6867   -0.6786   -0.0745 C   0  0  0  0  0  0  0  0  0  0  0  0
   -4.7556   -0.2646   -0.3625 H   0  0  0  0  0  0  0  0  0  0  0  0
   -3.6393    0.4033   -0.3519 H   0  0  0  0  0  0  0  0  0  0  0  0
   -4.1877    1.5743    1.4203 H   0  0  0  0  0  0  0  0  0  0  0  0
   -1.3825    0.1924   -0.2195 C   0  0  0  0  0  0  0  0  0  0  0  0
   -2.9919   -1.1943   -0.8285 H   0  0  0  0  0  0  0  0  0  0  0  0
   -2.5354   -1.3153    0.8491 H   0  0  0  0  0  0  0  0  0  0  0  0
   -0.2436   -0.7076    0.1645 C   0  0  0  0  0  0  0  0  0  0  0  0
   -1.5149    0.7470    0.5111 H   0  0  0  0  0  0  0  0  0  0  0  0
   -1.4677    0.9160   -0.9916 H   0  0  0  0  0  0  0  0  0  0  0  0
   -0.3825   -1.3510    1.0590 H   0  0  0  0  0  0  0  0  0  0  0  0
    0.8418   -0.0464    0.2786 H   0  0  0  0  0  0  0  0  0  0  0  0
    0.0187   -1.0790   -0.4221 H   0  0  0  0  0  0  0  0  0  0  0  0
  2  8  1  0  0  0  0
  3  1  1  0  0  0  0
  4  2  1  0  0  0  0
  6  9  1  0  0  0  0
  6 10  1  0  0  0  0
  7  2  1  0  0  0  0
  9 13  1  0  0  0  0
  9 12  1  0  0  0  0
 11  6  1  0  0  0  0
 14  9  1  0  0  0  0
M  RAD  3   2   2   5   2   6   2
M  END
$$$$
