butane_opt
 OpenBabel08242015393D

 14  8  0  0  0  0  0  0  0  0999 V2000
   -3.9326    0.2492    0.1293 C   0  0  0  0  0  0  0  0  0  0  0  0
   -2.6641   -0.6061   -0.0343 C   0  0  0  0  0  0  0  0  0  0  0  0
   -4.7508   -0.3720   -0.3215 H   0  0  0  0  0  0  0  0  0  0  0  0
   -3.9657    0.5199   -0.5101 H   0  0  0  0  0  0  0  0  0  0  0  0
   -4.1004    1.4416    1.1628 H   0  0  0  0  0  0  0  0  0  0  0  0
   -1.3889    0.1316   -0.0888 C   0  0  0  0  0  0  0  0  0  0  0  0
   -2.7707   -1.5075   -1.1433 H   0  0  0  0  0  0  0  0  0  0  0  0
   -2.5718   -0.7316    0.4468 H   0  0  0  0  0  0  0  0  0  0  0  0
   -0.2097   -0.6964    0.1409 C   0  0  0  0  0  1  0  0  0  0  0  0
   -1.5672    0.7843    0.7658 H   0  0  0  0  0  0  0  0  0  0  0  0
   -1.5371    0.8668   -1.1490 H   0  0  0  0  0  0  0  0  0  0  0  0
   -0.1528   -1.8999    1.4913 H   0  0  0  0  0  0  0  0  0  0  0  0
    0.8803    0.1986   -0.6648 H   0  0  0  0  0  0  0  0  0  0  0  0
   -0.1714   -0.6996   -0.3069 H   0  0  0  0  0  0  0  0  0  0  0  0
  2  1  1  0  0  0  0
  3  1  1  0  0  0  0
  4  1  1  0  0  0  0
  6  2  1  0  0  0  0
  6  9  1  0  0  0  0
  6 10  1  0  0  0  0
  7  2  1  0  0  0  0
 11  6  1  0  0  0  0
M  RAD  7   1   2   2   2   5   2   8   2  12   2  13   2  14   2
M  END
$$$$
