14
butane_opt
C  -3.905666   0.192727  -0.031402
C  -2.683361  -0.567354   0.065294
H  -5.029913  -0.606607  -0.113651
H  -3.768706   1.040819  -1.173525
H  -3.991112   0.718128   0.672409
C  -1.405361   0.291916   0.188046
H  -2.846431  -1.167827  -0.885633
H  -2.606663  -1.113491   0.777269
C  -0.190887  -0.783792  -0.053256
H  -1.558561   1.049408   1.036374
H  -1.667586   0.866013  -0.585842
H   0.423084  -1.689066   1.070390
H   0.653679  -0.242269  -0.683481
H  -0.361786  -0.962320  -0.687903
