butane_opt
 OpenBabel08242015393D

 14 12  0  0  0  0  0  0  0  0999 V2000
   -3.9028    0.2005   -0.0831 C   0  0  0  0  0  0  0  0  0  0  0  0
   -2.7275   -0.5349    0.0908 C   0  0  0  0  0  0  0  0  0  0  0  0
   -4.8612   -0.6822   -0.0524 H   0  0  0  0  0  0  0  0  0  0  0  0
   -3.8619    0.9146   -0.9468 H   0  0  0  0  0  0  0  0  0  0  0  0
   -4.0434    0.7765    0.7108 H   0  0  0  0  0  0  0  0  0  0  0  0
   -1.4202    0.2676    0.1742 C   0  0  0  0  0  0  0  0  0  0  0  0
   -2.3217   -1.4139   -0.7675 H   0  0  0  0  0  0  0  0  0  0  0  0
   -2.8401   -1.0966    0.8577 H   0  0  0  0  0  0  0  0  0  0  0  0
   -0.1813   -0.7704   -0.0335 C   0  0  0  0  0  0  0  0  0  0  0  0
   -1.3517    1.1482    1.2100 H   0  0  0  0  0  0  0  0  0  0  0  0
   -1.3731    1.0412   -0.7130 H   0  0  0  0  0  0  0  0  0  0  0  0
    0.6015   -1.7546    1.0291 H   0  0  0  0  0  0  0  0  0  0  0  0
    0.6210   -0.2986   -0.8693 H   0  0  0  0  0  0  0  0  0  0  0  0
   -0.7430   -1.0956   -0.7433 H   0  0  0  0  0  0  0  0  0  0  0  0
  1  3  1  0  0  0  0
  1  2  1  0  0  0  0
  1  5  1  0  0  0  0
  2  6  1  0  0  0  0
  2  8  1  0  0  0  0
  4  1  1  0  0  0  0
  6 10  1  0  0  0  0
  7  2  1  0  0  0  0
  9  6  1  0  0  0  0
 11  6  1  0  0  0  0
 13  9  1  0  0  0  0
 14  9  1  0  0  0  0
M  RAD  2   9   2  12   2
M  END
$$$$
