butane_opt
 OpenBabel08242015393D

 14 13  0  0  0  0  0  0  0  0999 V2000
   -3.9983    0.1768    0.1991 C   0  0  0  0  0  0  0  0  0  0  0  0
   -2.7307   -0.5797   -0.1123 C   0  0  0  0  0  0  0  0  0  0  0  0
   -4.6704   -0.3919    0.2038 H   0  0  0  0  0  0  0  0  0  0  0  0
   -4.0368    0.8295   -0.6295 H   0  0  0  0  0  0  0  0  0  0  0  0
   -3.8478    1.1677    1.3051 H   0  0  0  0  0  0  0  0  0  0  0  0
   -1.4053    0.2617   -0.2742 C   0  0  0  0  0  0  0  0  0  0  0  0
   -2.9232   -1.3529   -0.9412 H   0  0  0  0  0  0  0  0  0  0  0  0
   -2.4518   -1.1561    0.6200 H   0  0  0  0  0  0  0  0  0  0  0  0
   -0.1288   -0.7265    0.1824 C   0  0  0  0  0  0  0  0  0  0  0  0
   -1.6626    1.0790    0.7337 H   0  0  0  0  0  0  0  0  0  0  0  0
   -1.0773    0.9797   -1.1163 H   0  0  0  0  0  0  0  0  0  0  0  0
   -0.2188   -1.5362    1.2397 H   0  0  0  0  0  0  0  0  0  0  0  0
    0.6473   -0.2885    0.6952 H   0  0  0  0  0  0  0  0  0  0  0  0
    0.3821   -1.4000   -0.6034 H   0  0  0  0  0  0  0  0  0  0  0  0
  1  3  1  0  0  0  0
  1  5  1  0  0  0  0
  2  1  1  0  0  0  0
  2  8  1  0  0  0  0
  4  1  1  0  0  0  0
  6  2  1  0  0  0  0
  6  9  1  0  0  0  0
  6 10  1  0  0  0  0
  7  2  1  0  0  0  0
  9 13  1  0  0  0  0
  9 12  1  0  0  0  0
 11  6  1  0  0  0  0
 14  9  1  0  0  0  0
M  END
$$$$
