butane_opt
 OpenBabel08242015393D

 14  9  0  0  0  0  0  0  0  0999 V2000
   -3.9555    0.2681    0.0704 C   0  0  0  0  0  0  0  0  0  0  0  0
   -2.6851   -0.6985   -0.0780 C   0  0  0  0  0  0  0  0  0  0  0  0
   -4.8747   -0.2562    0.0086 H   0  0  0  0  0  0  0  0  0  0  0  0
   -4.4215    0.6908   -0.6777 H   0  0  0  0  0  0  0  0  0  0  0  0
   -4.2121    1.4178    1.2397 H   0  0  0  0  0  0  0  0  0  0  0  0
   -1.3691    0.2182   -0.0398 C   0  0  0  0  0  0  0  0  0  0  0  0
   -2.9141   -1.6050   -1.2119 H   0  0  0  0  0  0  0  0  0  0  0  0
   -2.6047   -1.0911    0.6887 H   0  0  0  0  0  0  0  0  0  0  0  0
   -0.1196   -0.6893    0.0813 C   0  0  0  0  0  1  0  0  0  0  0  0
   -1.3034    1.0366    1.0116 H   0  0  0  0  0  0  0  0  0  0  0  0
   -1.5910    0.7880   -0.8034 H   0  0  0  0  0  0  0  0  0  0  0  0
    0.1034   -2.1824    1.6736 H   0  0  0  0  0  0  0  0  0  0  0  0
    0.7512    0.0216   -0.6284 H   0  0  0  0  0  0  0  0  0  0  0  0
   -0.3632   -0.4735   -0.1320 H   0  0  0  0  0  0  0  0  0  0  0  0
  2  1  1  0  0  0  0
  2  8  1  0  0  0  0
  3  1  1  0  0  0  0
  4  1  1  0  0  0  0
  6 10  1  0  0  0  0
  7  2  1  0  0  0  0
 11  6  1  0  0  0  0
 13  9  1  0  0  0  0
 14  6  1  0  0  0  0
M  RAD  5   1   2   2   2   5   2   6   2  12   2
M  END
$$$$
