14
butane_opt
C  -4.006384   0.317322   0.201283
C  -2.684580  -0.654099  -0.207693
H  -4.907811  -0.299845   0.842647
H  -4.319486   1.249622  -0.779610
H  -3.801407   0.801059   0.917891
C  -1.358288   0.081175  -0.149898
H  -2.629058  -1.616388  -1.143386
H  -2.560694  -1.177473   0.534990
C  -0.147639  -0.595567   0.238201
H  -1.645235   0.650794   0.524706
H  -1.084483   0.899947  -1.190920
H  -0.194933  -1.176475   1.267974
H   0.670530  -0.022432   0.268787
H  -0.215583  -1.560743  -0.805535
