butane_opt
 OpenBabel08242015393D

 14 13  0  0  0  0  0  0  0  0999 V2000
   -4.0271    0.3317    0.1476 C   0  0  0  0  0  0  0  0  0  0  0  0
   -2.6706   -0.6635   -0.0426 C   0  0  0  0  0  0  0  0  0  0  0  0
   -5.0383   -0.1909   -0.0250 H   0  0  0  0  0  0  0  0  0  0  0  0
   -3.9903    0.4740   -0.5532 H   0  0  0  0  0  0  0  0  0  0  0  0
   -4.0050    1.2915    1.1794 H   0  0  0  0  0  0  0  0  0  0  0  0
   -1.3518    0.1435   -0.2372 C   0  0  0  0  0  0  0  0  0  0  0  0
   -2.8848   -1.4742   -0.9132 H   0  0  0  0  0  0  0  0  0  0  0  0
   -2.1964   -1.4191    0.9496 H   0  0  0  0  0  0  0  0  0  0  0  0
   -0.1850   -0.6560    0.1791 C   0  0  0  0  0  0  0  0  0  0  0  0
   -1.4642    0.6945    0.5988 H   0  0  0  0  0  0  0  0  0  0  0  0
   -1.1527    0.7281   -1.1789 H   0  0  0  0  0  0  0  0  0  0  0  0
   -0.5875   -0.9942    0.9581 H   0  0  0  0  0  0  0  0  0  0  0  0
    0.8582    0.0400    0.5174 H   0  0  0  0  0  0  0  0  0  0  0  0
    0.2257   -1.4647   -0.6819 H   0  0  0  0  0  0  0  0  0  0  0  0
  1  5  1  0  0  0  0
  2  1  1  0  0  0  0
  2  8  1  0  0  0  0
  3  1  1  0  0  0  0
  4  1  1  0  0  0  0
  6  2  1  0  0  0  0
  6  9  1  0  0  0  0
  6 10  1  0  0  0  0
  7  2  1  0  0  0  0
  9 13  1  0  0  0  0
  9 12  1  0  0  0  0
 11  6  1  0  0  0  0
 14  9  1  0  0  0  0
M  END
$$$$
