14
butane_opt
C  -3.984837   0.318617   0.073247
C  -2.740819  -0.668229  -0.077177
H  -4.871159  -0.196806  -0.003734
H  -4.414679   0.791160  -0.562264
H  -3.957648   1.089761   1.074500
C  -1.326848   0.126720   0.027275
H  -2.870228  -1.498786  -1.076651
H  -2.705702  -1.030914   0.513866
C  -0.118244  -0.655075   0.100913
H  -1.359323   0.489331   0.687919
H  -1.374289   1.003389  -1.048627
H   0.029063  -1.651154   1.196921
H   0.780749  -0.108608  -0.473667
H  -0.244454  -0.792868  -0.310745
