butane_opt
 OpenBabel08242015393D

 14 10  0  0  0  0  0  0  0  0999 V2000
   -3.8389    0.2189    0.1804 C   0  0  0  0  0  0  0  0  0  0  0  0
   -2.6784   -0.5853   -0.1804 C   0  0  0  0  0  0  0  0  0  0  0  0
   -4.7577   -0.5542    0.8057 H   0  0  0  0  0  0  0  0  0  0  0  0
   -4.2370    1.1974   -0.8635 H   0  0  0  0  0  0  0  0  0  0  0  0
   -3.5571    0.5317    0.8272 H   0  0  0  0  0  0  0  0  0  0  0  0
   -1.4896    0.2235   -0.0848 C   0  0  0  0  0  0  0  0  0  0  0  0
   -3.1057   -1.4182   -1.2531 H   0  0  0  0  0  0  0  0  0  0  0  0
   -2.5203   -0.7173    0.2586 H   0  0  0  0  0  0  0  0  0  0  0  0
   -0.1854   -0.7038    0.1559 C   0  0  0  0  0  0  0  0  0  0  0  0
   -1.5453    0.7887    0.6168 H   0  0  0  0  0  0  0  0  0  0  0  0
   -1.4392    1.0366   -0.9968 H   0  0  0  0  0  0  0  0  0  0  0  0
   -0.1760   -1.6918    1.4181 H   0  0  0  0  0  0  0  0  0  0  0  0
    0.5948   -0.2306    0.2526 H   0  0  0  0  0  0  0  0  0  0  0  0
    0.0392   -1.2808   -0.4814 H   0  0  0  0  0  0  0  0  0  0  0  0
  1  3  1  0  0  0  0
  1  5  1  0  0  0  0
  2  1  1  0  0  0  0
  4  1  1  0  0  0  0
  6  8  1  0  0  0  0
  6 10  1  0  0  0  0
  7  2  1  0  0  0  0
  9 13  1  0  0  0  0
 11  6  1  0  0  0  0
 14  9  1  0  0  0  0
M  RAD  4   2   3   6   2   9   3  12   2
M  END
$$$$
