butane_opt
 OpenBabel08242015393D

 14 12  0  0  0  0  0  0  0  0999 V2000
   -3.9286    0.3354   -0.1296 C   0  0  0  0  0  0  0  0  0  0  0  0
   -2.7072   -0.6555    0.2342 C   0  0  0  0  0  0  0  0  0  0  0  0
   -4.7132   -0.2633   -0.3164 H   0  0  0  0  0  0  0  0  0  0  0  0
   -3.4987    0.7685   -1.0366 H   0  0  0  0  0  0  0  0  0  0  0  0
   -4.1681    1.2545    0.9093 H   0  0  0  0  0  0  0  0  0  0  0  0
   -1.3962    0.0648    0.0966 C   0  0  0  0  0  0  0  0  0  0  0  0
   -2.4773   -1.1526   -0.5557 H   0  0  0  0  0  0  0  0  0  0  0  0
   -2.6189   -1.6734    1.3110 H   0  0  0  0  0  0  0  0  0  0  0  0
   -0.2179   -0.6530   -0.0806 C   0  0  0  0  0  0  0  0  0  0  0  0
   -1.4613    1.0288    1.0557 H   0  0  0  0  0  0  0  0  0  0  0  0
   -1.3017    0.6593   -0.7476 H   0  0  0  0  0  0  0  0  0  0  0  0
   -0.1448   -0.9335    0.4145 H   0  0  0  0  0  0  0  0  0  0  0  0
    0.8474    0.1731   -0.0393 H   0  0  0  0  0  0  0  0  0  0  0  0
   -0.5221   -1.3916   -0.9941 H   0  0  0  0  0  0  0  0  0  0  0  0
  1  2  1  0  0  0  0
  1  5  1  0  0  0  0
  2  8  1  0  0  0  0
  3  1  1  0  0  0  0
  4  1  1  0  0  0  0
  6  2  1  0  0  0  0
  6 10  1  0  0  0  0
  7  2  1  0  0  0  0
  9 13  1  0  0  0  0
  9  6  1  0  0  0  0
 11  6  1  0  0  0  0
 14  9  1  0  0  0  0
M  RAD  2   9   2  12   2
M  END
$$$$
