butane_opt
 OpenBabel08242015393D

 14 10  0  0  0  0  0  0  0  0999 V2000
   -3.9035    0.1996   -0.0789 C   0  0  0  0  0  0  0  0  0  0  0  0
   -2.6660   -0.5769    0.1668 C   0  0  0  0  0  0  0  0  0  0  0  0
   -4.7895   -0.3778    0.1399 H   0  0  0  0  0  0  0  0  0  0  0  0
   -3.8016    1.1618   -1.1855 H   0  0  0  0  0  0  0  0  0  0  0  0
   -3.7666    0.7567    0.7219 H   0  0  0  0  0  0  0  0  0  0  0  0
   -1.4684    0.2455    0.0711 C   0  0  0  0  0  0  0  0  0  0  0  0
   -2.7010   -1.0427   -0.5795 H   0  0  0  0  0  0  0  0  0  0  0  0
   -3.0476   -1.6170    1.4097 H   0  0  0  0  0  0  0  0  0  0  0  0
   -0.1555   -0.7161   -0.0771 C   0  0  0  0  0  0  0  0  0  0  0  0
   -1.4467    0.9180    0.8056 H   0  0  0  0  0  0  0  0  0  0  0  0
   -1.7974    0.9486   -0.8046 H   0  0  0  0  0  0  0  0  0  0  0  0
   -0.2605   -0.7398    0.4319 H   0  0  0  0  0  0  0  0  0  0  0  0
    0.8082   -0.1726    0.9417 H   0  0  0  0  0  0  0  0  0  0  0  0
    0.0881   -2.1376   -1.4728 H   0  0  0  0  0  0  0  0  0  0  0  0
  1  3  1  0  0  0  0
  1  2  1  0  0  0  0
  1  5  1  0  0  0  0
  4  1  1  0  0  0  0
  6  2  1  0  0  0  0
  6 10  1  0  0  0  0
  7  2  1  0  0  0  0
  9  6  1  0  0  0  0
  9 13  1  0  0  0  0
 11  6  1  0  0  0  0
M  RAD  5   2   2   8   2   9   3  12   2  14   2
M  END
$$$$
