butane_opt
 OpenBabel08242015393D

 14 13  0  0  0  0  0  0  0  0999 V2000
   -3.9204    0.2607    0.0346 C   0  0  0  0  0  0  0  0  0  0  0  0
   -2.7096   -0.6032    0.0129 C   0  0  0  0  0  0  0  0  0  0  0  0
   -4.8393   -0.3488    0.1442 H   0  0  0  0  0  0  0  0  0  0  0  0
   -4.0050    0.8924   -0.8778 H   0  0  0  0  0  0  0  0  0  0  0  0
   -3.8995    0.8644    0.8383 H   0  0  0  0  0  0  0  0  0  0  0  0
   -1.4088    0.1892   -0.0017 C   0  0  0  0  0  0  0  0  0  0  0  0
   -2.7862   -1.3119   -0.8673 H   0  0  0  0  0  0  0  0  0  0  0  0
   -2.6783   -1.2102    0.8786 H   0  0  0  0  0  0  0  0  0  0  0  0
   -0.1628   -0.6997    0.0563 C   0  0  0  0  0  0  0  0  0  0  0  0
   -1.4420    0.8558    0.8344 H   0  0  0  0  0  0  0  0  0  0  0  0
   -1.3860    0.8406   -0.8758 H   0  0  0  0  0  0  0  0  0  0  0  0
   -0.1378   -1.3193    0.9430 H   0  0  0  0  0  0  0  0  0  0  0  0
    0.7078   -0.1200    0.0006 H   0  0  0  0  0  0  0  0  0  0  0  0
   -0.1338   -1.3830   -0.8152 H   0  0  0  0  0  0  0  0  0  0  0  0
  1  3  1  0  0  0  0
  1  5  1  0  0  0  0
  2  1  1  0  0  0  0
  2  8  1  0  0  0  0
  4  1  1  0  0  0  0
  6  2  1  0  0  0  0
  6  9  1  0  0  0  0
  6 10  1  0  0  0  0
  7  2  1  0  0  0  0
  9 12  1  0  0  0  0
 11  6  1  0  0  0  0
 13  9  1  0  0  0  0
 14  9  1  0  0  0  0
M  END
$$$$
