14
butane_opt
C  -3.838856   0.218938   0.180442
C  -2.678431  -0.585273  -0.180379
H  -4.757740  -0.554225   0.805727
H  -4.236978   1.197444  -0.863538
H  -3.557109   0.531749   0.827193
C  -1.489649   0.223460  -0.084796
H  -3.105729  -1.418242  -1.253071
H  -2.520283  -0.717288   0.258583
C  -0.185444  -0.703773   0.155922
H  -1.545294   0.788746   0.616848
H  -1.439240   1.036551  -0.996795
H  -0.176036  -1.691779   1.418062
H   0.594814  -0.230612   0.252629
H   0.039169  -1.280769  -0.481430
