14
butane_opt
C  -4.017946   0.318570  -0.023894
C  -2.711594  -0.674243   0.048216
H  -4.757060  -0.221403   0.602167
H  -4.498184   1.559561  -1.301253
H  -3.827654   0.518833   0.593122
C  -1.304791   0.156623   0.096969
H  -2.731132  -1.690334  -1.096537
H  -2.568011  -1.205106   0.851446
C  -0.212466  -0.649413  -0.006390
H  -1.130450   0.772831   1.049657
H  -1.365425   0.627438  -0.717712
H  -0.051599  -1.306240   0.920744
H   0.795931   0.020228   0.069638
H   0.032706  -1.287644  -0.970346
