butane_opt
 OpenBabel08242015393D

 14 12  0  0  0  0  0  0  0  0999 V2000
   -3.8371    0.1992    0.1604 C   0  0  0  0  0  0  0  0  0  0  0  0
   -2.7173   -0.5320   -0.0766 C   0  0  0  0  0  0  0  0  0  0  0  0
   -4.7775   -0.4925    0.0212 H   0  0  0  0  0  0  0  0  0  0  0  0
   -3.8490    0.7351   -0.5899 H   0  0  0  0  0  0  0  0  0  0  0  0
   -3.7342    1.1247    1.1923 H   0  0  0  0  0  0  0  0  0  0  0  0
   -1.4211    0.2771   -0.1835 C   0  0  0  0  0  0  0  0  0  0  0  0
   -3.0182   -1.2413   -0.9633 H   0  0  0  0  0  0  0  0  0  0  0  0
   -2.6402   -1.4600    0.8445 H   0  0  0  0  0  0  0  0  0  0  0  0
   -0.1814   -0.7529    0.1919 C   0  0  0  0  0  0  0  0  0  0  0  0
   -1.6888    0.5981    0.4265 H   0  0  0  0  0  0  0  0  0  0  0  0
   -1.5195    1.1644   -1.2430 H   0  0  0  0  0  0  0  0  0  0  0  0
   -0.6530   -0.9689    0.9213 H   0  0  0  0  0  0  0  0  0  0  0  0
    0.7121   -0.2584    0.5346 H   0  0  0  0  0  0  0  0  0  0  0  0
    0.0660   -1.9751   -0.8613 H   0  0  0  0  0  0  0  0  0  0  0  0
  1  5  1  0  0  0  0
  2  1  1  0  0  0  0
  2  8  1  0  0  0  0
  3  1  1  0  0  0  0
  4  1  1  0  0  0  0
  6  2  1  0  0  0  0
  6  9  1  0  0  0  0
  6 10  1  0  0  0  0
  7  2  1  0  0  0  0
  9 13  1  0  0  0  0
  9 12  1  0  0  0  0
 11  6  1  0  0  0  0
M  RAD  2   9   2  14   2
M  END
$$$$
