14
butane_opt
C  -3.981190   0.161993  -0.140116
C  -2.752092  -0.539251   0.175311
H  -4.608349  -0.246761   0.757758
H  -4.140113   1.297206  -1.418541
H  -3.876677   0.163761   0.302531
C  -1.417082   0.310791   0.159843
H  -2.782908  -1.301017  -0.688599
H  -2.756034  -1.046035   0.968057
C  -0.080601  -0.762528  -0.096523
H  -1.259872   0.982966   1.093952
H  -1.723342   0.829216  -0.478390
H   0.076783  -0.993053   0.502748
H   0.684070  -0.271451   0.260095
H   0.145228  -1.917787  -1.133015
