butane_opt
 OpenBabel08242015393D

 14 13  0  0  0  0  0  0  0  0999 V2000
   -4.0333    0.3257    0.0709 C   0  0  0  0  0  0  0  0  0  0  0  0
   -2.7096   -0.7098   -0.1636 C   0  0  0  0  0  0  0  0  0  0  0  0
   -4.9955   -0.1705    0.8740 H   0  0  0  0  0  0  0  0  0  0  0  0
   -4.2853    1.1811   -0.8930 H   0  0  0  0  0  0  0  0  0  0  0  0
   -3.5541    0.9169    1.0712 H   0  0  0  0  0  0  0  0  0  0  0  0
   -1.3593    0.1773   -0.0076 C   0  0  0  0  0  0  0  0  0  0  0  0
   -2.7905   -1.3256   -1.0008 H   0  0  0  0  0  0  0  0  0  0  0  0
   -2.6238   -1.3418    0.8323 H   0  0  0  0  0  0  0  0  0  0  0  0
   -0.1404   -0.6604    0.1064 C   0  0  0  0  0  0  0  0  0  0  0  0
   -1.2122    0.6816    0.7172 H   0  0  0  0  0  0  0  0  0  0  0  0
   -1.1306    0.6573   -0.9130 H   0  0  0  0  0  0  0  0  0  0  0  0
   -0.3026   -1.4096    1.1808 H   0  0  0  0  0  0  0  0  0  0  0  0
    0.7743   -0.0473    0.1616 H   0  0  0  0  0  0  0  0  0  0  0  0
   -0.0170   -1.1732   -0.6528 H   0  0  0  0  0  0  0  0  0  0  0  0
  1  3  1  0  0  0  0
  1  5  1  0  0  0  0
  2  6  1  0  0  0  0
  2  1  1  0  0  0  0
  2  8  1  0  0  0  0
  4  1  1  0  0  0  0
  6  9  1  0  0  0  0
  6 10  1  0  0  0  0
  7  2  1  0  0  0  0
  9 13  1  0  0  0  0
  9 12  1  0  0  0  0
 11  6  1  0  0  0  0
 14  9  1  0  0  0  0
M  END
$$$$
