14
butane_opt
C  -3.906977   0.282328   0.045951
C  -2.673700  -0.579342   0.001472
H  -4.886026  -0.347848  -0.347749
H  -3.692814   0.374344  -0.423610
H  -4.124439   1.394064   1.245816
C  -1.381481   0.146220  -0.072277
H  -2.739015  -1.146450  -0.633047
H  -2.856479  -1.385471   1.123102
C  -0.176839  -0.691434   0.071148
H  -1.393411   0.573431   0.542716
H  -1.630103   0.838467  -0.891423
H  -0.599970  -1.312112   0.891529
H   0.841842  -0.028939   0.131386
H  -0.250730  -1.324153  -0.687487
