14
butane_opt
C  -3.955536   0.268112   0.070364
C  -2.685055  -0.698483  -0.077979
H  -4.874677  -0.256152   0.008552
H  -4.421480   0.690840  -0.677711
H  -4.212064   1.417773   1.239655
C  -1.369133   0.218169  -0.039850
H  -2.914054  -1.604995  -1.211912
H  -2.604670  -1.091057   0.688679
C  -0.119645  -0.689332   0.081277
H  -1.303369   1.036631   1.011616
H  -1.590974   0.787958  -0.803391
H   0.103449  -2.182390   1.673588
H   0.751204   0.021593  -0.628431
H  -0.363168  -0.473488  -0.132022
