14
butane_opt
C  -3.923640   0.253311   0.209849
C  -2.784420  -0.600275  -0.160067
H  -5.024660  -0.491775   0.400819
H  -4.306469   0.997486  -0.711125
H  -3.697198   0.806509   0.997757
C  -1.437960   0.257204  -0.136610
H  -3.062372  -1.513439  -1.188515
H  -2.729767  -0.942377   0.380706
C  -0.055908  -0.754161   0.196064
H  -1.334559   0.677136   0.553557
H  -1.326901   1.148617  -1.243032
H  -0.373924  -1.543868   1.269528
H   1.011162  -0.196894   0.335400
H   0.254926  -1.295659  -0.659145
