butane_opt
 OpenBabel08242015393D

 14 10  0  0  0  0  0  0  0  0999 V2000
   -3.9358    0.2292   -0.0433 C   0  0  0  0  0  1  0  0  0  0  0  0
   -2.7277   -0.6366    0.0433 C   0  0  0  0  0  0  0  0  0  0  0  0
   -5.0164   -0.3485    0.8150 H   0  0  0  0  0  0  0  0  0  0  0  0
   -4.2401    1.4660   -1.3337 H   0  0  0  0  0  0  0  0  0  0  0  0
   -3.7490    0.0656    0.2799 H   0  0  0  0  0  0  0  0  0  0  0  0
   -1.4491    0.3032    0.1589 C   0  0  0  0  0  0  0  0  0  0  0  0
   -2.8940   -1.2275   -0.7384 H   0  0  0  0  0  0  0  0  0  0  0  0
   -2.9118   -1.0434    0.8003 H   0  0  0  0  0  0  0  0  0  0  0  0
   -0.0547   -0.7526   -0.0268 C   0  0  0  0  0  0  0  0  0  0  0  0
   -1.4761    0.9504    1.0666 H   0  0  0  0  0  0  0  0  0  0  0  0
   -1.5497    0.9305   -0.8499 H   0  0  0  0  0  0  0  0  0  0  0  0
    0.2314   -1.0409    0.5395 H   0  0  0  0  0  0  0  0  0  0  0  0
    0.6993   -0.3305    0.3306 H   0  0  0  0  0  0  0  0  0  0  0  0
   -0.1032   -1.6356   -1.1295 H   0  0  0  0  0  0  0  0  0  0  0  0
  1  3  1  0  0  0  0
  2  5  1  0  0  0  0
  2  8  1  0  0  0  0
  6 10  1  0  0  0  0
  7  2  1  0  0  0  0
  9  6  1  0  0  0  0
  9 13  1  0  0  0  0
  9 12  1  0  0  0  0
 11  6  1  0  0  0  0
 14  9  1  0  0  0  0
M  RAD  3   2   2   4   2   6   2
M  END
$$$$
