butane_opt
 OpenBabel08242015393D

 14 12  0  0  0  0  0  0  0  0999 V2000
   -3.9556    0.3181   -0.1799 C   0  0  0  0  0  0  0  0  0  0  0  0
   -2.5988   -0.7161    0.1805 C   0  0  0  0  0  0  0  0  0  0  0  0
   -4.8042   -0.1528   -0.0883 H   0  0  0  0  0  0  0  0  0  0  0  0
   -3.7990    1.1632   -1.1877 H   0  0  0  0  0  0  0  0  0  0  0  0
   -4.4383    0.8626    0.5354 H   0  0  0  0  0  0  0  0  0  0  0  0
   -1.4095    0.0961    0.2434 C   0  0  0  0  0  0  0  0  0  0  0  0
   -2.6221   -1.1650   -0.4163 H   0  0  0  0  0  0  0  0  0  0  0  0
   -2.7221   -1.4922    1.1289 H   0  0  0  0  0  0  0  0  0  0  0  0
   -0.2510   -0.6038   -0.1358 C   0  0  0  0  0  0  0  0  0  0  0  0
   -1.0257    1.3678    1.5252 H   0  0  0  0  0  0  0  0  0  0  0  0
   -1.5791    0.3432   -0.4189 H   0  0  0  0  0  0  0  0  0  0  0  0
    0.3623   -1.5239    0.8641 H   0  0  0  0  0  0  0  0  0  0  0  0
    0.6923    0.0880   -0.8799 H   0  0  0  0  0  0  0  0  0  0  0  0
   -0.5655   -1.0622   -0.9006 H   0  0  0  0  0  0  0  0  0  0  0  0
  1  3  1  0  0  0  0
  1  2  1  0  0  0  0
  1  5  1  0  0  0  0
  2  6  1  0  0  0  0
  2  8  1  0  0  0  0
  4  1  1  0  0  0  0
  7  2  1  0  0  0  0
  9  6  1  0  0  0  0
  9 12  1  0  0  0  0
 11  6  1  0  0  0  0
 13  9  1  0  0  0  0
 14  9  1  0  0  0  0
M  RAD  2   6   2  10   2
M  END
$$$$
