14
butane_opt
C  -3.946127   0.171687  -0.119584
C  -2.741095  -0.557847   0.097020
H  -4.903630  -0.285161   0.726626
H  -4.373994   1.361758  -1.390255
H  -3.786926   0.257552   0.381754
C  -1.395426   0.305986   0.206236
H  -2.650800  -0.997542  -0.582561
H  -3.029184  -1.348004   0.957507
C  -0.064711  -0.736389  -0.082797
H  -1.378462   1.002257   1.085607
H  -1.786619   0.783206  -0.510748
H  -0.032117  -1.143320   0.763694
H   0.718309  -0.312412   0.005844
H  -0.001768  -2.008055  -1.296402
