butane_opt
 OpenBabel08242015393D

 14 12  0  0  0  0  0  0  0  0999 V2000
   -3.9774    0.3262    0.1516 C   0  0  0  0  0  0  0  0  0  0  0  0
   -2.7661   -0.6769   -0.0627 C   0  0  0  0  0  0  0  0  0  0  0  0
   -4.7497   -0.1410    0.2396 H   0  0  0  0  0  0  0  0  0  0  0  0
   -4.4170    0.9980   -0.6248 H   0  0  0  0  0  0  0  0  0  0  0  0
   -4.1057    0.9922    0.9153 H   0  0  0  0  0  0  0  0  0  0  0  0
   -1.3353    0.0868   -0.1655 C   0  0  0  0  0  0  0  0  0  0  0  0
   -2.5710   -1.2507   -0.6912 H   0  0  0  0  0  0  0  0  0  0  0  0
   -2.8011   -1.3021    0.7770 H   0  0  0  0  0  0  0  0  0  0  0  0
   -0.1179   -0.6415    0.1218 C   0  0  0  0  0  0  0  0  0  0  0  0
   -1.4099    0.6086    0.5136 H   0  0  0  0  0  0  0  0  0  0  0  0
   -1.1928    0.8940   -1.2235 H   0  0  0  0  0  0  0  0  0  0  0  0
   -0.5163   -0.7001    0.7966 H   0  0  0  0  0  0  0  0  0  0  0  0
    0.9292   -0.0257    0.9938 H   0  0  0  0  0  0  0  0  0  0  0  0
    0.1537   -1.6731   -0.8186 H   0  0  0  0  0  0  0  0  0  0  0  0
  1  3  1  0  0  0  0
  1  5  1  0  0  0  0
  2  1  1  0  0  0  0
  2  8  1  0  0  0  0
  4  1  1  0  0  0  0
  6  9  1  0  0  0  0
  6 10  1  0  0  0  0
  7  2  1  0  0  0  0
  9 12  1  0  0  0  0
  9 13  1  0  0  0  0
 11  6  1  0  0  0  0
 14  9  1  0  0  0  0
M  RAD  2   2   2   6   2
M  END
$$$$
