butane_opt
 OpenBabel08242015393D

 14 13  0  0  0  0  0  0  0  0999 V2000
   -3.9090    0.3219    0.0235 C   0  0  0  0  0  0  0  0  0  0  0  0
   -2.6458   -0.7265    0.0205 C   0  0  0  0  0  0  0  0  0  0  0  0
   -4.8246   -0.2089    0.3866 H   0  0  0  0  0  0  0  0  0  0  0  0
   -4.2690    1.1653   -0.9859 H   0  0  0  0  0  0  0  0  0  0  0  0
   -3.9036    0.8983    0.9684 H   0  0  0  0  0  0  0  0  0  0  0  0
   -1.4260    0.1186   -0.0267 C   0  0  0  0  0  0  0  0  0  0  0  0
   -2.6635   -1.3946   -0.9309 H   0  0  0  0  0  0  0  0  0  0  0  0
   -2.3351   -1.3480    0.8511 H   0  0  0  0  0  0  0  0  0  0  0  0
   -0.2423   -0.6133    0.0793 C   0  0  0  0  0  0  0  0  0  0  0  0
   -1.4416    0.7446    0.8592 H   0  0  0  0  0  0  0  0  0  0  0  0
   -1.2347    1.0254   -1.1543 H   0  0  0  0  0  0  0  0  0  0  0  0
   -0.1991   -0.9810    0.7375 H   0  0  0  0  0  0  0  0  0  0  0  0
    0.8208    0.0136    0.5284 H   0  0  0  0  0  0  0  0  0  0  0  0
   -0.3101   -1.5795   -1.0124 H   0  0  0  0  0  0  0  0  0  0  0  0
  1  3  1  0  0  0  0
  1  5  1  0  0  0  0
  2  1  1  0  0  0  0
  2  8  1  0  0  0  0
  4  1  1  0  0  0  0
  6  2  1  0  0  0  0
  6  9  1  0  0  0  0
  6 10  1  0  0  0  0
  7  2  1  0  0  0  0
  9 13  1  0  0  0  0
  9 12  1  0  0  0  0
 11  6  1  0  0  0  0
 14  9  1  0  0  0  0
M  END
$$$$
