14
butane_opt
C  -3.928589   0.335440  -0.129588
C  -2.707177  -0.655537   0.234218
H  -4.713230  -0.263321  -0.316378
H  -3.498698   0.768522  -1.036571
H  -4.168129   1.254527   0.909270
C  -1.396241   0.064829   0.096558
H  -2.477328  -1.152572  -0.555673
H  -2.618865  -1.673403   1.311025
C  -0.217901  -0.652979  -0.080570
H  -1.461271   1.028833   1.055697
H  -1.301747   0.659347  -0.747586
H  -0.144782  -0.933508   0.414530
H   0.847448   0.173140  -0.039323
H  -0.522138  -1.391588  -0.994086
