14
butane_opt
C  -3.976806   0.293424   0.143758
C  -2.617666  -0.629866   0.004327
H  -4.883210  -0.227516  -0.407299
H  -3.949661   0.426514  -0.434322
H  -4.268003   1.641528   1.485962
C  -1.389232   0.087223  -0.182857
H  -2.817701  -1.719434  -1.121766
H  -2.675031  -0.998045   0.629558
C  -0.205371  -0.646770   0.174215
H  -1.460863   0.589545   0.404803
H  -1.304082   0.917648  -1.355377
H  -0.499894  -1.454645   1.165172
H   1.002101   0.151419  -0.039161
H   0.078559  -1.003690  -0.473413
