14
butane_opt
C  -3.957395   0.354141   0.080315
C  -2.689576  -0.688872  -0.060506
H  -4.949182  -0.429439  -0.054895
H  -3.937637   0.926632  -0.694058
H  -4.130860   1.147549   0.950447
C  -1.340535   0.126359   0.063796
H  -2.520842  -1.512629  -1.110937
H  -2.759827  -1.167442   0.661785
C  -0.204030  -0.632007   0.090044
H  -1.589357   0.517097   0.680500
H  -1.242322   0.719408  -0.931972
H   0.109399  -1.780045   1.197575
H   0.867401   0.042748  -0.711678
H  -0.597726  -0.800032  -0.547345
