14
butane_opt
C  -3.937447   0.280669   0.035976
C  -2.702407  -0.637462   0.014941
H  -4.856360  -0.316305   0.041197
H  -3.955696   0.871883  -0.829405
H  -4.006538   0.977339   0.898105
C  -1.401832   0.178373  -0.000732
H  -2.697328  -1.353087  -0.862387
H  -2.642493  -1.211898   0.839086
C  -0.174500  -0.682175   0.053441
H  -1.357278   0.833164   0.843171
H  -1.372363   0.811400  -0.886534
H  -0.100131  -1.400843   1.019438
H   0.768950  -0.067313  -0.104020
H  -0.216226  -1.282978  -0.746396
