14
butane_opt
C  -3.837092   0.199220   0.160405
C  -2.717323  -0.532044  -0.076638
H  -4.777459  -0.492544   0.021237
H  -3.848983   0.735135  -0.589899
H  -3.734167   1.124655   1.192259
C  -1.421127   0.277103  -0.183518
H  -3.018153  -1.241271  -0.963337
H  -2.640248  -1.459983   0.844542
C  -0.181396  -0.752932   0.191925
H  -1.688781   0.598142   0.426496
H  -1.519493   1.164448  -1.242985
H  -0.653044  -0.968915   0.921316
H   0.712128  -0.258370   0.534647
H   0.065974  -1.975130  -0.861276
