butane_opt
 OpenBabel08242015393D

 14 13  0  0  0  0  0  0  0  0999 V2000
   -3.9392    0.2534   -0.0009 C   0  0  0  0  0  0  0  0  0  0  0  0
   -2.7141   -0.6145    0.0657 C   0  0  0  0  0  0  0  0  0  0  0  0
   -4.8647   -0.3500   -0.0789 H   0  0  0  0  0  0  0  0  0  0  0  0
   -3.9457    0.8290   -0.8647 H   0  0  0  0  0  0  0  0  0  0  0  0
   -3.9905    0.9929    0.9078 H   0  0  0  0  0  0  0  0  0  0  0  0
   -1.3994    0.2120    0.0283 C   0  0  0  0  0  0  0  0  0  0  0  0
   -2.7137   -1.2708   -0.7590 H   0  0  0  0  0  0  0  0  0  0  0  0
   -2.7790   -1.2331    0.9441 H   0  0  0  0  0  0  0  0  0  0  0  0
   -0.1462   -0.7083    0.0118 C   0  0  0  0  0  0  0  0  0  0  0  0
   -1.4166    0.8555    0.8639 H   0  0  0  0  0  0  0  0  0  0  0  0
   -1.4133    0.8555   -0.8718 H   0  0  0  0  0  0  0  0  0  0  0  0
   -0.1120   -1.3407    0.9155 H   0  0  0  0  0  0  0  0  0  0  0  0
    0.7445   -0.1647   -0.0289 H   0  0  0  0  0  0  0  0  0  0  0  0
   -0.1362   -1.3628   -0.8430 H   0  0  0  0  0  0  0  0  0  0  0  0
  1  2  1  0  0  0  0
  1  5  1  0  0  0  0
  2  8  1  0  0  0  0
  3  1  1  0  0  0  0
  4  1  1  0  0  0  0
  6  2  1  0  0  0  0
  6 10  1  0  0  0  0
  7  2  1  0  0  0  0
  9  6  1  0  0  0  0
  9 12  1  0  0  0  0
 11  6  1  0  0  0  0
 13  9  1  0  0  0  0
 14  9  1  0  0  0  0
M  END
$$$$
