butane_opt
 OpenBabel08242015393D

 14 11  0  0  0  0  0  0  0  0999 V2000
   -4.0243    0.3536   -0.0581 C   0  0  0  0  0  0  0  0  0  0  0  0
   -2.6860   -0.7362    0.0811 C   0  0  0  0  0  0  0  0  0  0  0  0
   -4.9170   -0.1673    0.5870 H   0  0  0  0  0  0  0  0  0  0  0  0
   -4.4135    1.5246   -1.3985 H   0  0  0  0  0  0  0  0  0  0  0  0
   -3.8365    0.4911    0.4970 H   0  0  0  0  0  0  0  0  0  0  0  0
   -1.2855    0.1670    0.1186 C   0  0  0  0  0  0  0  0  0  0  0  0
   -2.5342   -1.6258   -0.7757 H   0  0  0  0  0  0  0  0  0  0  0  0
   -2.9558   -1.3315    0.9852 H   0  0  0  0  0  0  0  0  0  0  0  0
   -0.2085   -0.6568   -0.0233 C   0  0  0  0  0  0  0  0  0  0  0  0
   -1.1724    1.0633    1.1577 H   0  0  0  0  0  0  0  0  0  0  0  0
   -1.3517    0.6559   -0.7014 H   0  0  0  0  0  0  0  0  0  0  0  0
   -0.0751   -0.9812    0.6018 H   0  0  0  0  0  0  0  0  0  0  0  0
    0.7848   -0.1028   -0.0876 H   0  0  0  0  0  0  0  0  0  0  0  0
   -0.1278   -1.4651   -0.9234 H   0  0  0  0  0  0  0  0  0  0  0  0
  1  2  1  0  0  0  0
  1  3  1  0  0  0  0
  2  6  1  0  0  0  0
  2  8  1  0  0  0  0
  6 10  1  0  0  0  0
  7  2  1  0  0  0  0
  9  6  1  0  0  0  0
  9 12  1  0  0  0  0
 11  6  1  0  0  0  0
 13  9  1  0  0  0  0
 14  9  1  0  0  0  0
M  RAD  3   1   3   4   2   5   2
M  END
$$$$
