butane_opt
 OpenBabel08242015393D

 14 13  0  0  0  0  0  0  0  0999 V2000
   -3.9312    0.2536    0.0280 C   0  0  0  0  0  0  0  0  0  0  0  0
   -2.7033   -0.5883    0.0252 C   0  0  0  0  0  0  0  0  0  0  0  0
   -4.8942   -0.3941    0.0159 H   0  0  0  0  0  0  0  0  0  0  0  0
   -3.9713    0.8664   -0.8790 H   0  0  0  0  0  0  0  0  0  0  0  0
   -3.9161    0.9051    0.8806 H   0  0  0  0  0  0  0  0  0  0  0  0
   -1.4152    0.1866    0.0143 C   0  0  0  0  0  0  0  0  0  0  0  0
   -2.6570   -1.3049   -0.8726 H   0  0  0  0  0  0  0  0  0  0  0  0
   -2.7225   -1.2364    0.9178 H   0  0  0  0  0  0  0  0  0  0  0  0
   -0.1594   -0.7028    0.0299 C   0  0  0  0  0  0  0  0  0  0  0  0
   -1.3859    0.9046    0.8846 H   0  0  0  0  0  0  0  0  0  0  0  0
   -1.4130    0.7902   -0.8450 H   0  0  0  0  0  0  0  0  0  0  0  0
   -0.1137   -1.4137    1.0115 H   0  0  0  0  0  0  0  0  0  0  0  0
    0.7203   -0.1296   -0.0779 H   0  0  0  0  0  0  0  0  0  0  0  0
   -0.1482   -1.2563   -0.7545 H   0  0  0  0  0  0  0  0  0  0  0  0
  1  5  1  0  0  0  0
  2  1  1  0  0  0  0
  2  8  1  0  0  0  0
  3  1  1  0  0  0  0
  4  1  1  0  0  0  0
  6  2  1  0  0  0  0
  6  9  1  0  0  0  0
  6 10  1  0  0  0  0
  7  2  1  0  0  0  0
  9 12  1  0  0  0  0
 11  6  1  0  0  0  0
 13  9  1  0  0  0  0
 14  9  1  0  0  0  0
M  END
$$$$
