14
butane_opt
C  -3.902605   0.231606   0.130288
C  -2.674951  -0.531705  -0.157162
H  -5.096243  -0.634602   0.301254
H  -3.983279   0.430548  -0.501248
H  -3.708808   1.157981   1.186220
C  -1.449801   0.184800  -0.043453
H  -2.861684  -1.431184  -1.072586
H  -2.637491  -0.882991   0.532815
C  -0.165832  -0.707949   0.152773
H  -1.578377   0.514408   0.460732
H  -1.417054   1.199210  -1.192748
H   0.025371  -1.662862   1.218182
H   0.567789  -0.376161  -0.225337
H   0.016045  -0.932946  -0.166962
