14
butane_opt
C  -3.903464   0.199620  -0.078895
C  -2.665980  -0.576885   0.166750
H  -4.789543  -0.377848   0.139863
H  -3.801579   1.161848  -1.185463
H  -3.766568   0.756662   0.721912
C  -1.468399   0.245517   0.071143
H  -2.700984  -1.042679  -0.579482
H  -3.047640  -1.616967   1.409730
C  -0.155474  -0.716136  -0.077137
H  -1.446716   0.917960   0.805633
H  -1.797371   0.948572  -0.804610
H  -0.260506  -0.739786   0.431853
H   0.808154  -0.172642   0.941673
H   0.088100  -2.137585  -1.472807
