14
butane_opt
C  -4.039623   0.336825  -0.118121
C  -2.706416  -0.693250   0.123535
H  -4.918146  -0.242822  -0.222858
H  -3.896988   0.846040  -1.044934
H  -4.017103   1.206403   0.767740
C  -1.371589   0.121308   0.213370
H  -2.385738  -1.262844  -0.606086
H  -2.550790  -1.535297   1.171365
C  -0.154791  -0.634352  -0.113552
H  -1.092750   0.828252   1.027676
H  -1.441750   0.498512  -0.419241
H  -0.004044  -1.533833   1.049059
H   0.804303   0.098392  -0.684318
H  -0.287744  -0.907849  -0.831487
