butane_opt
 OpenBabel08242015393D

 14  9  0  0  0  0  0  0  0  0999 V2000
   -3.9950    0.1682    0.1639 C   0  0  0  0  0  1  0  0  0  0  0  0
   -2.7273   -0.5523   -0.0583 C   0  0  0  0  0  0  0  0  0  0  0  0
   -4.8503   -0.4474   -0.7696 H   0  0  0  0  0  0  0  0  0  0  0  0
   -3.6600    0.1819   -0.2541 H   0  0  0  0  0  0  0  0  0  0  0  0
   -4.1927    1.6446    1.4781 H   0  0  0  0  0  0  0  0  0  0  0  0
   -1.4477    0.2761   -0.1485 C   0  0  0  0  0  0  0  0  0  0  0  0
   -3.0072   -1.2426   -0.9984 H   0  0  0  0  0  0  0  0  0  0  0  0
   -2.6669   -1.0453    0.7214 H   0  0  0  0  0  0  0  0  0  0  0  0
   -0.0342   -0.7817    0.1831 C   0  0  0  0  0  0  0  0  0  0  0  0
   -1.5330    0.5948    0.5086 H   0  0  0  0  0  0  0  0  0  0  0  0
   -1.4074    1.4491   -1.3824 H   0  0  0  0  0  0  0  0  0  0  0  0
    0.1552   -1.7978    1.2724 H   0  0  0  0  0  0  0  0  0  0  0  0
    0.8565   -0.0670   -0.0624 H   0  0  0  0  0  0  0  0  0  0  0  0
   -0.2433   -1.1191   -0.6311 H   0  0  0  0  0  0  0  0  0  0  0  0
  2  8  1  0  0  0  0
  3  1  1  0  0  0  0
  4  2  1  0  0  0  0
  6  9  1  0  0  0  0
  6 10  1  0  0  0  0
  7  2  1  0  0  0  0
  9 12  1  0  0  0  0
 13  9  1  0  0  0  0
 14  9  1  0  0  0  0
M  RAD  4   2   2   5   2   6   3  11   2
M  END
$$$$
