14
butane_opt
C  -3.933659   0.310274   0.203911
C  -2.657022  -0.623520  -0.078688
H  -4.852201  -0.408929   0.073803
H  -3.918506   0.617513  -0.496120
H  -3.770832   1.024012   1.167923
C  -1.379478   0.123492  -0.195942
H  -2.816681  -1.460983  -1.170972
H  -2.580379  -0.875579   0.477763
C  -0.252760  -0.705880   0.175441
H  -1.570279   0.597221   0.528714
H  -1.297831   1.133653  -1.502214
H  -0.608800  -1.256601   1.131299
H   0.838295   0.021243   0.644060
H   0.190036  -1.119528  -0.624442
