14
butane_opt
C  -3.946072   0.305407  -0.045673
C  -2.575497  -0.689816   0.081125
H  -4.958586  -0.250006   0.501881
H  -4.126381   1.746890  -1.485895
H  -3.896765   0.274309   0.442530
C  -1.402865   0.112727   0.098632
H  -2.613254  -1.276073  -0.789673
H  -2.742354  -1.305416   1.093843
C  -0.271438  -0.631079  -0.049671
H  -1.315685   1.245578   1.404718
H  -1.375270   0.421894  -0.471160
H  -0.151787  -1.070864   0.637324
H   0.687188   0.034918  -0.015297
H  -0.193022  -1.444396  -1.010298
