14
butane_opt
C  -3.980217   0.265795   0.201747
C  -2.739765  -0.617219  -0.164110
H  -4.881912  -0.217300   0.608510
H  -4.563673   1.262485  -1.026770
H  -3.556762   0.657465   0.981368
C  -1.370566   0.167937  -0.131294
H  -2.733438  -1.616126  -1.231820
H  -2.681277  -0.983757   0.512656
C  -0.092677  -0.707247   0.231268
H  -1.529869   0.828923   0.545296
H  -1.123750   1.055579  -1.227637
H  -0.386735  -1.257103   1.065863
H   0.993303  -0.006994   0.233912
H  -0.324421  -1.493640  -0.718235
