butane_opt
 OpenBabel08242015393D

 14  9  0  0  0  0  0  0  0  0999 V2000
   -3.8505    0.2522   -0.0931 C   0  0  0  0  0  1  0  0  0  0  0  0
   -2.7113   -0.5911    0.1135 C   0  0  0  0  0  0  0  0  0  0  0  0
   -4.9292   -0.5736    0.4764 H   0  0  0  0  0  0  0  0  0  0  0  0
   -3.8996    1.3619   -1.4474 H   0  0  0  0  0  0  0  0  0  0  0  0
   -3.6035    0.0988    0.2991 H   0  0  0  0  0  0  0  0  0  0  0  0
   -1.4256    0.2491    0.1480 C   0  0  0  0  0  0  0  0  0  0  0  0
   -2.5661   -0.9690   -0.5167 H   0  0  0  0  0  0  0  0  0  0  0  0
   -2.8306   -1.2532    1.0571 H   0  0  0  0  0  0  0  0  0  0  0  0
   -0.2185   -0.7402   -0.0986 C   0  0  0  0  0  0  0  0  0  0  0  0
   -1.4671    1.3909    1.4772 H   0  0  0  0  0  0  0  0  0  0  0  0
   -1.5727    0.5036   -0.4537 H   0  0  0  0  0  0  0  0  0  0  0  0
    0.0846   -1.1463    0.6922 H   0  0  0  0  0  0  0  0  0  0  0  0
    0.5152   -0.3133   -0.0438 H   0  0  0  0  0  0  0  0  0  0  0  0
   -0.2742   -1.6362   -1.0384 H   0  0  0  0  0  0  0  0  0  0  0  0
  1  3  1  0  0  0  0
  2  5  1  0  0  0  0
  2  8  1  0  0  0  0
  7  2  1  0  0  0  0
  9 13  1  0  0  0  0
  9  6  1  0  0  0  0
  9 12  1  0  0  0  0
 11  6  1  0  0  0  0
 14  9  1  0  0  0  0
M  RAD  4   2   2   4   2   6   3  10   2
M  END
$$$$
