14
butane_opt
C  -3.919420   0.343753  -0.105636
C  -2.656572  -0.673220   0.112789
H  -4.839679  -0.228521   0.935547
H  -4.170562   1.608084  -1.547288
H  -3.807787   0.246602   0.139839
C  -1.440663   0.090165   0.155694
H  -2.561430  -1.320679  -0.733595
H  -2.539934  -1.312994   1.153537
C  -0.173087  -0.623273  -0.083342
H  -1.464776   1.044587   1.245214
H  -1.277748   0.164080  -0.351211
H  -0.430397  -0.874198   0.463239
H   0.901887   0.108965   0.087721
H  -0.553927  -1.500898  -1.025849
