butane_opt
 OpenBabel08242015393D

 14 12  0  0  0  0  0  0  0  0999 V2000
   -3.9567    0.2176   -0.0887 C   0  0  0  0  0  0  0  0  0  0  0  0
   -2.7444   -0.5602    0.1770 C   0  0  0  0  0  0  0  0  0  0  0  0
   -4.9130   -0.3666   -0.4810 H   0  0  0  0  0  0  0  0  0  0  0  0
   -3.5403    0.5863   -0.9847 H   0  0  0  0  0  0  0  0  0  0  0  0
   -4.4227    0.9747    0.8557 H   0  0  0  0  0  0  0  0  0  0  0  0
   -1.4215    0.2955    0.0726 C   0  0  0  0  0  0  0  0  0  0  0  0
   -2.9018   -1.1353   -0.6096 H   0  0  0  0  0  0  0  0  0  0  0  0
   -2.8377   -1.5084    1.4666 H   0  0  0  0  0  0  0  0  0  0  0  0
   -0.0522   -0.7656   -0.0642 C   0  0  0  0  0  0  0  0  0  0  0  0
   -1.1190    1.2406    1.1586 H   0  0  0  0  0  0  0  0  0  0  0  0
   -1.5966    0.6076   -0.6182 H   0  0  0  0  0  0  0  0  0  0  0  0
    0.0289   -1.4137    0.6949 H   0  0  0  0  0  0  0  0  0  0  0  0
    0.7696   -0.3482   -0.2266 H   0  0  0  0  0  0  0  0  0  0  0  0
   -0.3254   -1.3746   -0.9435 H   0  0  0  0  0  0  0  0  0  0  0  0
  1  2  1  0  0  0  0
  1  5  1  0  0  0  0
  3  1  1  0  0  0  0
  4  1  1  0  0  0  0
  6  2  1  0  0  0  0
  6 10  1  0  0  0  0
  7  2  1  0  0  0  0
  9  6  1  0  0  0  0
  9 12  1  0  0  0  0
 11  6  1  0  0  0  0
 13  9  1  0  0  0  0
 14  9  1  0  0  0  0
M  RAD  2   2   2   8   2
M  END
$$$$
