butane_opt
 OpenBabel08242015393D

 14 11  0  0  0  0  0  0  0  0999 V2000
   -4.0624    0.3064    0.2244 C   0  0  0  0  0  0  0  0  0  0  0  0
   -2.6666   -0.6511   -0.2125 C   0  0  0  0  0  0  0  0  0  0  0  0
   -4.6977    0.0708    0.9220 H   0  0  0  0  0  0  0  0  0  0  0  0
   -4.5122    1.1782   -0.8841 H   0  0  0  0  0  0  0  0  0  0  0  0
   -3.7944    0.5314    0.9214 H   0  0  0  0  0  0  0  0  0  0  0  0
   -1.3854    0.0885   -0.1483 C   0  0  0  0  0  0  0  0  0  0  0  0
   -2.8867   -1.8334   -1.4612 H   0  0  0  0  0  0  0  0  0  0  0  0
   -2.4075   -0.8904    0.3578 H   0  0  0  0  0  0  0  0  0  0  0  0
   -0.1079   -0.6432    0.2411 C   0  0  0  0  0  0  0  0  0  0  0  0
   -1.5390    0.7328    0.6156 H   0  0  0  0  0  0  0  0  0  0  0  0
   -0.8881    0.8592   -1.1055 H   0  0  0  0  0  0  0  0  0  0  0  0
   -0.5624   -1.4354    1.2650 H   0  0  0  0  0  0  0  0  0  0  0  0
    0.9073    0.1497    0.0387 H   0  0  0  0  0  0  0  0  0  0  0  0
    0.0009   -0.9870   -0.5271 H   0  0  0  0  0  0  0  0  0  0  0  0
  1  5  1  0  0  0  0
  1  3  1  0  0  0  0
  2  6  1  0  0  0  0
  2  1  1  0  0  0  0
  2  8  1  0  0  0  0
  4  1  1  0  0  0  0
  6 10  1  0  0  0  0
  9 12  1  0  0  0  0
 11  6  1  0  0  0  0
 13  9  1  0  0  0  0
 14  9  1  0  0  0  0
M  RAD  4   2   2   6   2   7   2   9   2
M  END
$$$$
