14
butane_opt
C  -3.961211   0.274448   0.007531
C  -2.694956  -0.631585   0.059630
H  -4.872773  -0.324238   0.039619
H  -3.962324   0.976399  -0.940383
H  -4.028458   0.930425   0.841764
C  -1.404942   0.173611   0.023882
H  -2.734719  -1.333169  -0.803099
H  -2.679677  -1.277566   0.932577
C  -0.146246  -0.682485   0.018619
H  -1.355149   0.859139   0.875480
H  -1.365574   0.812381  -0.890628
H  -0.146893  -1.243580   0.863304
H   0.786824  -0.088078   0.084290
H  -0.176024  -1.386431  -0.885122
