14
butane_opt
C  -3.998703   0.319293   0.142466
C  -2.736164  -0.707924  -0.147465
H  -4.779850  -0.078671  -0.042072
H  -4.221323   0.591832  -0.588378
H  -3.966226   1.269339   1.174246
C  -1.319646   0.162526  -0.054939
H  -2.932514  -1.452191  -1.203981
H  -2.439746  -1.162562   0.626446
C  -0.178294  -0.643419   0.121583
H  -1.288834   0.811286   0.771916
H  -1.366222   0.605209  -0.841796
H   0.044703  -2.047996   1.606562
H   0.551243  -0.104280  -0.615810
H   0.123626  -0.436415  -0.097123
