butane_opt
 OpenBabel08242015393D

 14 10  0  0  0  0  0  0  0  0999 V2000
   -3.9816    0.3419   -0.0205 C   0  0  0  0  0  0  0  0  0  0  0  0
   -2.7019   -0.7007    0.0686 C   0  0  0  0  0  0  0  0  0  0  0  0
   -4.9003   -0.2032    0.5902 H   0  0  0  0  0  0  0  0  0  0  0  0
   -4.2649    1.5421   -1.3869 H   0  0  0  0  0  0  0  0  0  0  0  0
   -4.1898    0.5350    0.4497 H   0  0  0  0  0  0  0  0  0  0  0  0
   -1.3650    0.1474    0.1245 C   0  0  0  0  0  0  0  0  0  0  0  0
   -2.6395   -1.4792   -0.8529 H   0  0  0  0  0  0  0  0  0  0  0  0
   -2.7144   -1.4357    1.0652 H   0  0  0  0  0  0  0  0  0  0  0  0
   -0.1431   -0.6548   -0.0445 C   0  0  0  0  0  0  0  0  0  0  0  0
   -1.4070    0.8126    0.8083 H   0  0  0  0  0  0  0  0  0  0  0  0
   -1.0386    0.6579   -0.7302 H   0  0  0  0  0  0  0  0  0  0  0  0
   -0.2424   -0.8842    0.6525 H   0  0  0  0  0  0  0  0  0  0  0  0
    1.0786    0.1038    0.3680 H   0  0  0  0  0  0  0  0  0  0  0  0
   -0.3924   -1.6812   -1.1397 H   0  0  0  0  0  0  0  0  0  0  0  0
  1  2  1  0  0  0  0
  1  3  1  0  0  0  0
  2  6  1  0  0  0  0
  2  8  1  0  0  0  0
  6 10  1  0  0  0  0
  7  2  1  0  0  0  0
  9  6  1  0  0  0  0
  9 13  1  0  0  0  0
  9 12  1  0  0  0  0
 11  6  1  0  0  0  0
M  RAD  5   1   3   4   2   5   2   9   2  14   2
M  END
$$$$
