butane_opt
 OpenBabel08242015393D

 14  9  0  0  0  0  0  0  0  0999 V2000
   -3.9041    0.3027    0.1405 C   0  0  0  0  0  1  0  0  0  0  0  0
   -2.6996   -0.6451   -0.0464 C   0  0  0  0  0  0  0  0  0  0  0  0
   -4.7443   -0.2317   -0.2679 H   0  0  0  0  0  0  0  0  0  0  0  0
   -3.9595    0.2331   -0.2751 H   0  0  0  0  0  0  0  0  0  0  0  0
   -3.9809    1.5297    1.4107 H   0  0  0  0  0  0  0  0  0  0  0  0
   -1.4485    0.1576   -0.2025 C   0  0  0  0  0  0  0  0  0  0  0  0
   -2.6375   -1.5341   -0.9889 H   0  0  0  0  0  0  0  0  0  0  0  0
   -2.4806   -1.1607    0.7933 H   0  0  0  0  0  0  0  0  0  0  0  0
   -0.1408   -0.6559    0.1872 C   0  0  0  0  0  0  0  0  0  0  0  0
   -1.7809    0.3259    0.3590 H   0  0  0  0  0  0  0  0  0  0  0  0
   -1.1961    0.9625   -1.3020 H   0  0  0  0  0  0  0  0  0  0  0  0
   -0.3956   -1.2775    1.0759 H   0  0  0  0  0  0  0  0  0  0  0  0
    0.8734    0.0272    0.2816 H   0  0  0  0  0  0  0  0  0  0  0  0
   -0.4098   -1.2243   -0.5219 H   0  0  0  0  0  0  0  0  0  0  0  0
  2  8  1  0  0  0  0
  3  1  1  0  0  0  0
  6  9  1  0  0  0  0
  6 10  1  0  0  0  0
  7  2  1  0  0  0  0
  9 13  1  0  0  0  0
  9 12  1  0  0  0  0
 11  6  1  0  0  0  0
 14  9  1  0  0  0  0
M  RAD  4   2   3   4   2   5   2   6   2
M  END
$$$$
