butane_opt
 OpenBabel08242015393D

 14 13  0  0  0  0  0  0  0  0999 V2000
   -3.9650    0.2427   -0.1618 C   0  0  0  0  0  0  0  0  0  0  0  0
   -2.7652   -0.5639    0.0920 C   0  0  0  0  0  0  0  0  0  0  0  0
   -4.8837   -0.4714    0.2388 H   0  0  0  0  0  0  0  0  0  0  0  0
   -3.9355    0.7629   -0.9528 H   0  0  0  0  0  0  0  0  0  0  0  0
   -3.9221    0.8554    0.6063 H   0  0  0  0  0  0  0  0  0  0  0  0
   -1.3673    0.2470    0.2507 C   0  0  0  0  0  0  0  0  0  0  0  0
   -2.5311   -1.1275   -0.6944 H   0  0  0  0  0  0  0  0  0  0  0  0
   -2.7518   -1.4114    1.2172 H   0  0  0  0  0  0  0  0  0  0  0  0
   -0.1632   -0.7627   -0.1074 C   0  0  0  0  0  0  0  0  0  0  0  0
   -1.1836    1.1248    1.3155 H   0  0  0  0  0  0  0  0  0  0  0  0
   -1.5032    0.8002   -0.5254 H   0  0  0  0  0  0  0  0  0  0  0  0
    0.3083   -1.7877    0.8816 H   0  0  0  0  0  0  0  0  0  0  0  0
    0.8878   -0.1478   -0.7041 H   0  0  0  0  0  0  0  0  0  0  0  0
   -0.3670   -1.0153   -0.7691 H   0  0  0  0  0  0  0  0  0  0  0  0
  1  2  1  0  0  0  0
  1  3  1  0  0  0  0
  1  5  1  0  0  0  0
  2  6  1  0  0  0  0
  2  8  1  0  0  0  0
  4  1  1  0  0  0  0
  6 10  1  0  0  0  0
  7  2  1  0  0  0  0
  9  6  1  0  0  0  0
  9 12  1  0  0  0  0
 11  6  1  0  0  0  0
 13  9  1  0  0  0  0
 14  9  1  0  0  0  0
M  END
$$$$
