14
butane_opt
C  -3.904141   0.221893   0.030173
C  -2.731351  -0.496821   0.047293
H  -5.049472  -0.591097   0.089995
H  -3.786371   0.704895  -0.793801
H  -3.911315   0.615352   0.689643
C  -1.449151   0.238977  -0.053467
H  -2.624104  -1.040119  -0.556975
H  -2.471080  -1.538882   1.289721
C  -0.139977  -0.759070   0.037631
H  -1.528587   0.930383   0.860150
H  -1.436686   0.902954  -1.065210
H  -0.292626  -0.898777   0.516638
H   0.679924  -0.061005   0.860553
H   0.119745  -2.009010  -1.251697
