14
butane_opt
C  -3.990691   0.291800  -0.167584
C  -2.667567  -0.710409   0.166087
H  -4.835988  -0.187344   0.677174
H  -4.525699   1.435867  -1.315216
H  -4.023788   0.626963   0.256815
C  -1.405368   0.175399   0.204727
H  -2.662306  -1.173471  -0.516839
H  -2.671990  -1.505151   1.055440
C  -0.133694  -0.656044  -0.103421
H  -1.113559   0.975242   1.127277
H  -1.319057   0.541159  -0.540812
H   0.057096  -0.676143   0.404332
H   0.643643  -0.188279   0.143211
H  -0.180434  -1.529457  -1.129381
