butane_opt
 OpenBabel08242015393D

 14 10  0  0  0  0  0  0  0  0999 V2000
   -3.9348    0.2421    0.1310 C   0  0  0  0  0  1  0  0  0  0  0  0
   -2.7716   -0.5557    0.0083 C   0  0  0  0  0  0  0  0  0  0  0  0
   -4.8538   -0.3809   -0.7556 H   0  0  0  0  0  0  0  0  0  0  0  0
   -3.7749    0.0236   -0.3207 H   0  0  0  0  0  0  0  0  0  0  0  0
   -4.3686    1.5468    1.3568 H   0  0  0  0  0  0  0  0  0  0  0  0
   -1.4541    0.1856   -0.1450 C   0  0  0  0  0  0  0  0  0  0  0  0
   -2.8036   -1.2895   -0.7693 H   0  0  0  0  0  0  0  0  0  0  0  0
   -2.7834   -1.0384    0.6795 H   0  0  0  0  0  0  0  0  0  0  0  0
   -0.0470   -0.7301    0.1715 C   0  0  0  0  0  0  0  0  0  0  0  0
   -1.5426    0.6518    0.4500 H   0  0  0  0  0  0  0  0  0  0  0  0
   -1.1402    1.0055   -1.2970 H   0  0  0  0  0  0  0  0  0  0  0  0
    0.0088   -1.4169    1.0875 H   0  0  0  0  0  0  0  0  0  0  0  0
    0.8089   -0.1096   -0.3885 H   0  0  0  0  0  0  0  0  0  0  0  0
   -0.0706   -1.1872   -0.5196 H   0  0  0  0  0  0  0  0  0  0  0  0
  2  8  1  0  0  0  0
  3  1  1  0  0  0  0
  4  2  1  0  0  0  0
  6  9  1  0  0  0  0
  6 10  1  0  0  0  0
  7  2  1  0  0  0  0
  9 12  1  0  0  0  0
 11  6  1  0  0  0  0
 13  9  1  0  0  0  0
 14  9  1  0  0  0  0
M  RAD  3   2   2   5   2   6   2
M  END
$$$$
