butane_opt
 OpenBabel08242015393D

 14 13  0  0  0  0  0  0  0  0999 V2000
   -3.9700    0.2765    0.0480 C   0  0  0  0  0  0  0  0  0  0  0  0
   -2.6942   -0.6336    0.0092 C   0  0  0  0  0  0  0  0  0  0  0  0
   -4.8781   -0.3208    0.0733 H   0  0  0  0  0  0  0  0  0  0  0  0
   -4.0230    0.8965   -0.8474 H   0  0  0  0  0  0  0  0  0  0  0  0
   -3.9426    1.0011    0.9512 H   0  0  0  0  0  0  0  0  0  0  0  0
   -1.3862    0.1764   -0.0335 C   0  0  0  0  0  0  0  0  0  0  0  0
   -2.7450   -1.3016   -0.8331 H   0  0  0  0  0  0  0  0  0  0  0  0
   -2.6955   -1.2746    0.9409 H   0  0  0  0  0  0  0  0  0  0  0  0
   -0.1559   -0.6869    0.0540 C   0  0  0  0  0  0  0  0  0  0  0  0
   -1.3501    0.8403    0.8134 H   0  0  0  0  0  0  0  0  0  0  0  0
   -1.3629    0.8333   -0.9470 H   0  0  0  0  0  0  0  0  0  0  0  0
   -0.2439   -1.2556    0.9564 H   0  0  0  0  0  0  0  0  0  0  0  0
    0.7747   -0.0897    0.2099 H   0  0  0  0  0  0  0  0  0  0  0  0
   -0.0800   -1.3905   -0.8094 H   0  0  0  0  0  0  0  0  0  0  0  0
  1  3  1  0  0  0  0
  1  5  1  0  0  0  0
  2  1  1  0  0  0  0
  2  8  1  0  0  0  0
  4  1  1  0  0  0  0
  6  2  1  0  0  0  0
  6  9  1  0  0  0  0
  6 10  1  0  0  0  0
  7  2  1  0  0  0  0
  9 13  1  0  0  0  0
  9 12  1  0  0  0  0
 11  6  1  0  0  0  0
 14  9  1  0  0  0  0
M  END
$$$$
