14
butane_opt
C  -4.063610   0.262176  -0.080822
C  -2.688732  -0.619694   0.100303
H  -4.686930  -0.052683   0.842673
H  -4.334687   1.501853  -1.427742
H  -3.743856   0.122592   0.208715
C  -1.377170   0.154751   0.153198
H  -2.768115  -1.124537  -0.823682
H  -2.846030  -1.200002   0.936893
C  -0.082550  -0.662494  -0.082141
H  -1.478160   1.067576   1.214668
H  -1.337058   0.430650  -0.515471
H  -0.079013  -1.110208   0.633174
H   0.955716  -0.034781   0.213278
H  -0.207047  -1.625021  -1.025069
