butane_opt
 OpenBabel08242015393D

 14 10  0  0  0  0  0  0  0  0999 V2000
   -3.9699    0.1991    0.1369 C   0  0  0  0  0  0  0  0  0  0  0  0
   -2.7079   -0.5588   -0.0369 C   0  0  0  0  0  0  0  0  0  0  0  0
   -4.9052   -0.6075    0.1501 H   0  0  0  0  0  0  0  0  0  0  0  0
   -4.2666    0.7559   -0.6673 H   0  0  0  0  0  0  0  0  0  0  0  0
   -3.7394    0.8637    1.0577 H   0  0  0  0  0  0  0  0  0  0  0  0
   -1.4387    0.3155   -0.1742 C   0  0  0  0  0  0  0  0  0  0  0  0
   -3.0251   -1.3911   -1.1062 H   0  0  0  0  0  0  0  0  0  0  0  0
   -2.4737   -1.2591    0.8627 H   0  0  0  0  0  0  0  0  0  0  0  0
   -0.1119   -0.7657    0.1875 C   0  0  0  0  0  0  0  0  0  0  0  0
   -1.5977    0.7177    0.4041 H   0  0  0  0  0  0  0  0  0  0  0  0
   -1.0614    1.3336   -1.2686 H   0  0  0  0  0  0  0  0  0  0  0  0
   -0.0989   -0.8675    0.7819 H   0  0  0  0  0  0  0  0  0  0  0  0
    0.5967   -0.4070    0.6941 H   0  0  0  0  0  0  0  0  0  0  0  0
    0.3561   -1.9503   -0.9200 H   0  0  0  0  0  0  0  0  0  0  0  0
  1  3  1  0  0  0  0
  1  5  1  0  0  0  0
  2  1  1  0  0  0  0
  2  8  1  0  0  0  0
  4  1  1  0  0  0  0
  6  2  1  0  0  0  0
  6  9  1  0  0  0  0
  6 10  1  0  0  0  0
  7  2  1  0  0  0  0
  9 13  1  0  0  0  0
M  RAD  5   6   2   9   3  11   2  12   2  14   2
M  END
$$$$
