butane_opt
 OpenBabel08242015393D

 14 11  0  0  0  0  0  0  0  0999 V2000
   -3.9129    0.2897    0.0741 C   0  0  0  0  0  0  0  0  0  0  0  0
   -2.6774   -0.6195   -0.0126 C   0  0  0  0  0  0  0  0  0  0  0  0
   -4.9616   -0.4152   -0.5172 H   0  0  0  0  0  0  0  0  0  0  0  0
   -3.8751    0.3404   -0.3493 H   0  0  0  0  0  0  0  0  0  0  0  0
   -4.2085    1.5279    1.4318 H   0  0  0  0  0  0  0  0  0  0  0  0
   -1.4011    0.1202   -0.1295 C   0  0  0  0  0  0  0  0  0  0  0  0
   -2.7427   -1.0576   -0.6719 H   0  0  0  0  0  0  0  0  0  0  0  0
   -2.5778   -1.4431    0.8340 H   0  0  0  0  0  0  0  0  0  0  0  0
   -0.1827   -0.6319    0.1242 C   0  0  0  0  0  0  0  0  0  0  0  0
   -1.4865    0.6798    0.6594 H   0  0  0  0  0  0  0  0  0  0  0  0
   -1.5278    0.7915   -1.0447 H   0  0  0  0  0  0  0  0  0  0  0  0
   -0.0026   -1.4677    1.0984 H   0  0  0  0  0  0  0  0  0  0  0  0
    0.7497   -0.1393    0.0478 H   0  0  0  0  0  0  0  0  0  0  0  0
   -0.3091   -1.1942   -0.6258 H   0  0  0  0  0  0  0  0  0  0  0  0
  2  1  1  0  0  0  0
  2  8  1  0  0  0  0
  3  1  1  0  0  0  0
  6  2  1  0  0  0  0
  6  9  1  0  0  0  0
  6 10  1  0  0  0  0
  7  2  1  0  0  0  0
  9 12  1  0  0  0  0
 11  6  1  0  0  0  0
 13  9  1  0  0  0  0
 14  9  1  0  0  0  0
M  RAD  3   1   3   4   2   5   2
M  END
$$$$
