14
butane_opt
C  -3.886674   0.207745  -0.032838
C  -2.765159  -0.572797   0.027394
H  -4.702837  -0.414791  -0.027787
H  -3.866878   0.459902  -0.714158
H  -3.944519   1.165128   1.088096
C  -1.456024   0.273158   0.089499
H  -2.841119  -1.198303  -0.905521
H  -2.866998  -1.008868   0.717348
C  -0.101616  -0.741556   0.025726
H  -1.416724   0.773791   0.936135
H  -1.401738   0.924325  -0.898867
H   0.351888  -1.793801   1.310846
H   0.586314  -0.446882  -0.746234
H  -0.388869  -0.938422  -0.542194
