butane_opt
 OpenBabel08242015393D

 14 10  0  0  0  0  0  0  0  0999 V2000
   -3.9461    0.3054   -0.0457 C   0  0  0  0  0  0  0  0  0  0  0  0
   -2.5755   -0.6898    0.0811 C   0  0  0  0  0  0  0  0  0  0  0  0
   -4.9586   -0.2500    0.5019 H   0  0  0  0  0  0  0  0  0  0  0  0
   -4.1264    1.7469   -1.4859 H   0  0  0  0  0  0  0  0  0  0  0  0
   -3.8968    0.2743    0.4425 H   0  0  0  0  0  0  0  0  0  0  0  0
   -1.4029    0.1127    0.0986 C   0  0  0  0  0  0  0  0  0  0  0  0
   -2.6133   -1.2761   -0.7897 H   0  0  0  0  0  0  0  0  0  0  0  0
   -2.7424   -1.3054    1.0938 H   0  0  0  0  0  0  0  0  0  0  0  0
   -0.2714   -0.6311   -0.0497 C   0  0  0  0  0  0  0  0  0  0  0  0
   -1.3157    1.2456    1.4047 H   0  0  0  0  0  0  0  0  0  0  0  0
   -1.3753    0.4219   -0.4712 H   0  0  0  0  0  0  0  0  0  0  0  0
   -0.1518   -1.0709    0.6373 H   0  0  0  0  0  0  0  0  0  0  0  0
    0.6872    0.0349   -0.0153 H   0  0  0  0  0  0  0  0  0  0  0  0
   -0.1930   -1.4444   -1.0103 H   0  0  0  0  0  0  0  0  0  0  0  0
  1  2  1  0  0  0  0
  1  3  1  0  0  0  0
  2  6  1  0  0  0  0
  2  8  1  0  0  0  0
  7  2  1  0  0  0  0
  9 13  1  0  0  0  0
  9  6  1  0  0  0  0
  9 12  1  0  0  0  0
 11  6  1  0  0  0  0
 14  9  1  0  0  0  0
M  RAD  5   1   3   4   2   5   2   6   2  10   2
M  END
$$$$
