butane_opt
 OpenBabel08242015393D

 14 10  0  0  0  0  0  0  0  0999 V2000
   -3.9709    0.2751    0.1255 C   0  0  0  0  0  0  0  0  0  0  0  0
   -2.7720   -0.5847   -0.1257 C   0  0  0  0  0  0  0  0  0  0  0  0
   -5.1404   -0.5182   -0.2027 H   0  0  0  0  0  0  0  0  0  0  0  0
   -4.1430    0.5104   -0.4960 H   0  0  0  0  0  0  0  0  0  0  0  0
   -3.7765    1.0722    1.2609 H   0  0  0  0  0  0  0  0  0  0  0  0
   -1.4060    0.2503   -0.0202 C   0  0  0  0  0  0  0  0  0  0  0  0
   -2.8924   -1.5588   -1.2864 H   0  0  0  0  0  0  0  0  0  0  0  0
   -2.6435   -1.0864    0.7454 H   0  0  0  0  0  0  0  0  0  0  0  0
   -0.0717   -0.7591    0.1434 C   0  0  0  0  0  0  0  0  0  0  0  0
   -1.2781    0.4948    0.6243 H   0  0  0  0  0  0  0  0  0  0  0  0
   -1.1378    1.2459   -1.1281 H   0  0  0  0  0  0  0  0  0  0  0  0
    0.1858   -1.8378    1.3496 H   0  0  0  0  0  0  0  0  0  0  0  0
    0.6462   -0.1923   -0.4701 H   0  0  0  0  0  0  0  0  0  0  0  0
   -0.1503   -0.8174   -0.3776 H   0  0  0  0  0  0  0  0  0  0  0  0
  1  5  1  0  0  0  0
  2  6  1  0  0  0  0
  2  1  1  0  0  0  0
  2  8  1  0  0  0  0
  3  1  1  0  0  0  0
  4  1  1  0  0  0  0
  6  9  1  0  0  0  0
  6 10  1  0  0  0  0
 11  6  1  0  0  0  0
 13  9  1  0  0  0  0
M  RAD  5   2   2   7   2   9   3  12   2  14   2
M  END
$$$$
