butane_opt
 OpenBabel08242015393D

 14 12  0  0  0  0  0  0  0  0999 V2000
   -3.8673    0.2209    0.0898 C   0  0  0  0  0  0  0  0  0  0  0  0
   -2.7502   -0.5366   -0.0535 C   0  0  0  0  0  0  0  0  0  0  0  0
   -4.9591   -0.5112   -0.1554 H   0  0  0  0  0  0  0  0  0  0  0  0
   -3.6664    0.7866   -0.8707 H   0  0  0  0  0  0  0  0  0  0  0  0
   -3.9408    1.1056    1.1944 H   0  0  0  0  0  0  0  0  0  0  0  0
   -1.4303    0.1648    0.0137 C   0  0  0  0  0  0  0  0  0  0  0  0
   -2.9361   -1.2199   -1.1142 H   0  0  0  0  0  0  0  0  0  0  0  0
   -2.7039   -1.0335    0.7328 H   0  0  0  0  0  0  0  0  0  0  0  0
   -0.1194   -0.7026    0.0959 C   0  0  0  0  0  0  0  0  0  0  0  0
   -1.5895    0.7468    0.7907 H   0  0  0  0  0  0  0  0  0  0  0  0
   -1.5409    1.0095   -1.0563 H   0  0  0  0  0  0  0  0  0  0  0  0
    0.1205   -1.8051    1.2196 H   0  0  0  0  0  0  0  0  0  0  0  0
    0.7703   -0.2478   -0.4052 H   0  0  0  0  0  0  0  0  0  0  0  0
   -0.5441   -1.0758   -0.5715 H   0  0  0  0  0  0  0  0  0  0  0  0
  1  5  1  0  0  0  0
  2  6  1  0  0  0  0
  2  1  1  0  0  0  0
  2  8  1  0  0  0  0
  3  1  1  0  0  0  0
  4  1  1  0  0  0  0
  6  9  1  0  0  0  0
  6 10  1  0  0  0  0
  7  2  1  0  0  0  0
 11  6  1  0  0  0  0
 13  9  1  0  0  0  0
 14  9  1  0  0  0  0
M  RAD  2   9   2  12   2
M  END
$$$$
