butane_opt
 OpenBabel08242015393D

 14  8  0  0  0  0  0  0  0  0999 V2000
   -3.9431    0.2582    0.1434 C   0  0  0  0  0  0  0  0  0  0  0  0
   -2.7740   -0.5276   -0.1356 C   0  0  0  0  0  0  0  0  0  0  0  0
   -5.1595   -0.6444    0.0128 H   0  0  0  0  0  0  0  0  0  0  0  0
   -3.9407    0.3004   -0.4671 H   0  0  0  0  0  0  0  0  0  0  0  0
   -3.7093    1.1322    1.0979 H   0  0  0  0  0  0  0  0  0  0  0  0
   -1.4309    0.2544   -0.1175 C   0  0  0  0  0  0  0  0  0  0  0  0
   -2.8371   -1.5146   -1.0662 H   0  0  0  0  0  0  0  0  0  0  0  0
   -2.7357   -1.0724    0.6757 H   0  0  0  0  0  0  0  0  0  0  0  0
   -0.1027   -0.7646    0.1797 C   0  0  0  0  0  0  0  0  0  0  0  0
   -1.0928    1.0600    0.8284 H   0  0  0  0  0  0  0  0  0  0  0  0
   -1.3979    0.8533   -1.0090 H   0  0  0  0  0  0  0  0  0  0  0  0
   -0.0077   -2.0638    1.5566 H   0  0  0  0  0  0  0  0  0  0  0  0
    0.8737   -0.3290   -0.5848 H   0  0  0  0  0  0  0  0  0  0  0  0
    0.0056   -0.8540   -0.3337 H   0  0  0  0  0  0  0  0  0  0  0  0
  1  5  1  0  0  0  0
  2  1  1  0  0  0  0
  2  8  1  0  0  0  0
  6  9  1  0  0  0  0
  6 10  1  0  0  0  0
  7  2  1  0  0  0  0
 11  6  1  0  0  0  0
 13  9  1  0  0  0  0
M  RAD  8   1   3   2   2   3   2   4   2   6   2   9   3  12   2  14   2
M  END
$$$$
