butane_opt
 OpenBabel08242015393D

 14 11  0  0  0  0  0  0  0  0999 V2000
   -3.8663    0.2191   -0.0319 C   0  0  0  0  0  0  0  0  0  0  0  0
   -2.7040   -0.4748    0.1725 C   0  0  0  0  0  0  0  0  0  0  0  0
   -4.9323   -0.5941   -0.0424 H   0  0  0  0  0  0  0  0  0  0  0  0
   -3.5827    1.0659   -1.2225 H   0  0  0  0  0  0  0  0  0  0  0  0
   -4.0616    0.5063    0.5085 H   0  0  0  0  0  0  0  0  0  0  0  0
   -1.4509    0.1794    0.0561 C   0  0  0  0  0  0  0  0  0  0  0  0
   -2.9531   -1.1509   -0.6672 H   0  0  0  0  0  0  0  0  0  0  0  0
   -2.8369   -1.4209    1.3230 H   0  0  0  0  0  0  0  0  0  0  0  0
   -0.1609   -0.7350   -0.0385 C   0  0  0  0  0  1  0  0  0  0  0  0
   -1.4316    0.9191    0.8286 H   0  0  0  0  0  0  0  0  0  0  0  0
   -1.7002    0.8773   -0.7975 H   0  0  0  0  0  0  0  0  0  0  0  0
   -0.3436   -0.6473    0.2806 H   0  0  0  0  0  0  0  0  0  0  0  0
    0.7670   -0.1620    0.5035 H   0  0  0  0  0  0  0  0  0  0  0  0
    0.2525   -2.1435   -1.2918 H   0  0  0  0  0  0  0  0  0  0  0  0
  1  2  1  0  0  0  0
  1  5  1  0  0  0  0
  2  8  1  0  0  0  0
  3  1  1  0  0  0  0
  4  1  1  0  0  0  0
  6  2  1  0  0  0  0
  6 12  1  0  0  0  0
  6 10  1  0  0  0  0
  7  2  1  0  0  0  0
  9 13  1  0  0  0  0
 11  6  1  0  0  0  0
M  RAD  1  14   2
M  END
$$$$
