butane_opt
 OpenBabel08242015393D

 14 10  0  0  0  0  0  0  0  0999 V2000
   -3.9496    0.2858    0.1284 C   0  0  0  0  0  0  0  0  0  0  0  0
   -2.7094   -0.5900   -0.1601 C   0  0  0  0  0  0  0  0  0  0  0  0
   -4.7860   -0.1392   -0.0623 H   0  0  0  0  0  0  0  0  0  0  0  0
   -4.2475    0.5999   -0.5385 H   0  0  0  0  0  0  0  0  0  0  0  0
   -3.9101    1.2835    1.2481 H   0  0  0  0  0  0  0  0  0  0  0  0
   -1.3510    0.1038   -0.0320 C   0  0  0  0  0  0  0  0  0  0  0  0
   -2.5683   -1.3833   -1.0655 H   0  0  0  0  0  0  0  0  0  0  0  0
   -2.5363   -1.2878    0.6090 H   0  0  0  0  0  0  0  0  0  0  0  0
   -0.1798   -0.6597    0.1250 C   0  0  0  0  0  0  0  0  0  0  0  0
   -1.6195    0.6753    0.7212 H   0  0  0  0  0  0  0  0  0  0  0  0
   -1.0985    0.5674   -0.8504 H   0  0  0  0  0  0  0  0  0  0  0  0
   -0.0491   -1.9178    1.5460 H   0  0  0  0  0  0  0  0  0  0  0  0
    0.8588   -0.0357   -0.7049 H   0  0  0  0  0  0  0  0  0  0  0  0
   -0.7696   -0.4519   -0.1005 H   0  0  0  0  0  0  0  0  0  0  0  0
  1  5  1  0  0  0  0
  2  1  1  0  0  0  0
  2  8  1  0  0  0  0
  3  1  1  0  0  0  0
  4  1  1  0  0  0  0
  6 10  1  0  0  0  0
  7  2  1  0  0  0  0
 11  6  1  0  0  0  0
 13  9  1  0  0  0  0
 14  9  1  0  0  0  0
M  RAD  4   2   2   6   3   9   3  12   2
M  END
$$$$
