14
butane_opt
C  -3.904639   0.206512   0.170515
C  -2.691168  -0.545001  -0.117619
H  -4.940072  -0.596933   0.317210
H  -3.868245   0.659789  -0.525603
H  -3.273330   0.984725   1.185727
C  -1.515213   0.250784  -0.241266
H  -2.894733  -0.961901  -0.898066
H  -2.391036  -1.248892   0.723915
C  -0.165395  -0.762144   0.227513
H  -1.745732   0.745572   0.577584
H  -1.127252   0.942921  -1.281557
H  -0.461853  -0.888457   0.988633
H   0.645654  -0.145051   0.600092
H   0.340573  -1.806662  -0.799931
