14
butane_opt
C  -3.970938   0.325379   0.099730
C  -2.706348  -0.611822  -0.014875
H  -4.716341  -0.292177  -0.349704
H  -3.717463   0.483011  -0.448877
H  -4.075990   1.561105   1.331782
C  -1.359900   0.076498  -0.083434
H  -2.771388  -1.454367  -0.974289
H  -2.361390  -1.368361   0.725153
C  -0.217005  -0.628083   0.126916
H  -1.398211   0.219793   0.361403
H  -1.226633   0.937440  -1.150180
H  -0.313779  -1.374826   1.063246
H   0.833616   0.061852   0.119171
H  -0.269587  -1.125584  -0.699240
