butane_opt
 OpenBabel08242015393D

 14 10  0  0  0  0  0  0  0  0999 V2000
   -3.9220    0.2399   -0.0181 C   0  0  0  0  0  1  0  0  0  0  0  0
   -2.7273   -0.5268    0.0175 C   0  0  0  0  0  0  0  0  0  0  0  0
   -4.8526   -0.5508    0.7999 H   0  0  0  0  0  0  0  0  0  0  0  0
   -3.9957    1.6206   -1.4320 H   0  0  0  0  0  0  0  0  0  0  0  0
   -3.5153    0.1780    0.4332 H   0  0  0  0  0  0  0  0  0  0  0  0
   -1.4425    0.1639    0.1545 C   0  0  0  0  0  0  0  0  0  0  0  0
   -2.5094   -1.3539   -0.9630 H   0  0  0  0  0  0  0  0  0  0  0  0
   -2.8077   -1.1170    0.9188 H   0  0  0  0  0  0  0  0  0  0  0  0
   -0.1682   -0.7015   -0.0139 C   0  0  0  0  0  0  0  0  0  0  0  0
   -1.2864    0.8856    1.0028 H   0  0  0  0  0  0  0  0  0  0  0  0
   -1.2772    0.7224   -0.8379 H   0  0  0  0  0  0  0  0  0  0  0  0
    0.1101   -1.1406    0.7168 H   0  0  0  0  0  0  0  0  0  0  0  0
    0.6235   -0.3039    0.2064 H   0  0  0  0  0  0  0  0  0  0  0  0
   -0.3768   -1.5109   -1.1296 H   0  0  0  0  0  0  0  0  0  0  0  0
  1  3  1  0  0  0  0
  2  5  1  0  0  0  0
  2  8  1  0  0  0  0
  6 10  1  0  0  0  0
  7  2  1  0  0  0  0
  9  6  1  0  0  0  0
  9 13  1  0  0  0  0
  9 12  1  0  0  0  0
 11  6  1  0  0  0  0
 14  9  1  0  0  0  0
M  RAD  3   2   2   4   2   6   2
M  END
$$$$
