14
butane_opt
C  -3.934810   0.242079   0.131010
C  -2.771642  -0.555674   0.008300
H  -4.853828  -0.380910  -0.755619
H  -3.774863   0.023569  -0.320658
H  -4.368625   1.546820   1.356812
C  -1.454077   0.185580  -0.144972
H  -2.803564  -1.289479  -0.769347
H  -2.783393  -1.038378   0.679498
C  -0.047041  -0.730137   0.171541
H  -1.542619   0.651784   0.450027
H  -1.140159   1.005493  -1.296989
H   0.008808  -1.416912   1.087532
H   0.808886  -0.109630  -0.388506
H  -0.070581  -1.187224  -0.519600
