butane_opt
 OpenBabel08242015393D

 14 13  0  0  0  0  0  0  0  0999 V2000
   -3.9486    0.2784    0.0004 C   0  0  0  0  0  0  0  0  0  0  0  0
   -2.6957   -0.6338    0.0510 C   0  0  0  0  0  0  0  0  0  0  0  0
   -4.8207   -0.2840    0.1413 H   0  0  0  0  0  0  0  0  0  0  0  0
   -4.0183    0.9927   -0.9328 H   0  0  0  0  0  0  0  0  0  0  0  0
   -4.0318    0.8173    0.7584 H   0  0  0  0  0  0  0  0  0  0  0  0
   -1.3940    0.1787    0.0401 C   0  0  0  0  0  0  0  0  0  0  0  0
   -2.6977   -1.3080   -0.7824 H   0  0  0  0  0  0  0  0  0  0  0  0
   -2.7825   -1.2520    0.9345 H   0  0  0  0  0  0  0  0  0  0  0  0
   -0.1617   -0.6848    0.0085 C   0  0  0  0  0  0  0  0  0  0  0  0
   -1.3431    0.8849    0.8986 H   0  0  0  0  0  0  0  0  0  0  0  0
   -1.3993    0.7677   -0.8291 H   0  0  0  0  0  0  0  0  0  0  0  0
   -0.1587   -1.2643    0.8751 H   0  0  0  0  0  0  0  0  0  0  0  0
    0.7791   -0.0817    0.0396 H   0  0  0  0  0  0  0  0  0  0  0  0
   -0.1552   -1.3970   -0.8689 H   0  0  0  0  0  0  0  0  0  0  0  0
  1  2  1  0  0  0  0
  1  3  1  0  0  0  0
  1  5  1  0  0  0  0
  2  8  1  0  0  0  0
  4  1  1  0  0  0  0
  6  2  1  0  0  0  0
  6 10  1  0  0  0  0
  7  2  1  0  0  0  0
  9 13  1  0  0  0  0
  9  6  1  0  0  0  0
  9 12  1  0  0  0  0
 11  6  1  0  0  0  0
 14  9  1  0  0  0  0
M  END
$$$$
