butane_opt
 OpenBabel08242015393D

 14 11  0  0  0  0  0  0  0  0999 V2000
   -3.9509    0.2180    0.1257 C   0  0  0  0  0  0  0  0  0  0  0  0
   -2.7752   -0.5744   -0.1726 C   0  0  0  0  0  0  0  0  0  0  0  0
   -4.9696   -0.5183    0.9827 H   0  0  0  0  0  0  0  0  0  0  0  0
   -4.4308    1.3103   -1.0536 H   0  0  0  0  0  0  0  0  0  0  0  0
   -3.7939    0.5670    0.7817 H   0  0  0  0  0  0  0  0  0  0  0  0
   -1.3663    0.2784   -0.1005 C   0  0  0  0  0  0  0  0  0  0  0  0
   -2.9088   -1.4045   -1.1146 H   0  0  0  0  0  0  0  0  0  0  0  0
   -2.5758   -1.1157    0.8542 H   0  0  0  0  0  0  0  0  0  0  0  0
   -0.1070   -0.7662    0.1625 C   0  0  0  0  0  0  0  0  0  0  0  0
   -1.4020    1.1557    0.9221 H   0  0  0  0  0  0  0  0  0  0  0  0
   -1.2583    0.6389   -0.7692 H   0  0  0  0  0  0  0  0  0  0  0  0
   -0.0406   -1.3772    1.2041 H   0  0  0  0  0  0  0  0  0  0  0  0
    0.6926   -0.2325    0.0411 H   0  0  0  0  0  0  0  0  0  0  0  0
    0.1272   -1.3916   -0.6414 H   0  0  0  0  0  0  0  0  0  0  0  0
  1  5  1  0  0  0  0
  2  6  1  0  0  0  0
  2  1  1  0  0  0  0
  2  8  1  0  0  0  0
  6  9  1  0  0  0  0
  6 10  1  0  0  0  0
  7  2  1  0  0  0  0
  9 12  1  0  0  0  0
 11  6  1  0  0  0  0
 13  9  1  0  0  0  0
 14  9  1  0  0  0  0
M  RAD  3   1   3   3   2   4   2
M  END
$$$$
