butane_opt
 OpenBabel08242015393D

 14 12  0  0  0  0  0  0  0  0999 V2000
   -3.8421    0.2158    0.0062 C   0  0  0  0  0  0  0  0  0  0  0  0
   -2.7317   -0.5111    0.0245 C   0  0  0  0  0  0  0  0  0  0  0  0
   -4.8420   -0.4542    0.3666 H   0  0  0  0  0  0  0  0  0  0  0  0
   -4.0427    1.0791   -0.9639 H   0  0  0  0  0  0  0  0  0  0  0  0
   -3.9025    0.5517    0.4576 H   0  0  0  0  0  0  0  0  0  0  0  0
   -1.4038    0.1771    0.0560 C   0  0  0  0  0  0  0  0  0  0  0  0
   -2.7305   -1.0079   -0.8835 H   0  0  0  0  0  0  0  0  0  0  0  0
   -2.8997   -1.3671    1.0520 H   0  0  0  0  0  0  0  0  0  0  0  0
   -0.1829   -0.7302    0.0296 C   0  0  0  0  0  0  0  0  0  0  0  0
   -1.6416    1.0921    1.0593 H   0  0  0  0  0  0  0  0  0  0  0  0
   -1.5183    0.7887   -0.8244 H   0  0  0  0  0  0  0  0  0  0  0  0
   -0.0759   -1.1914    0.7987 H   0  0  0  0  0  0  0  0  0  0  0  0
    0.8054   -0.0988   -0.0365 H   0  0  0  0  0  0  0  0  0  0  0  0
   -0.2328   -1.7134   -1.0318 H   0  0  0  0  0  0  0  0  0  0  0  0
  1  2  1  0  0  0  0
  1  3  1  0  0  0  0
  2  6  1  0  0  0  0
  2  8  1  0  0  0  0
  4  1  1  0  0  0  0
  6 10  1  0  0  0  0
  7  2  1  0  0  0  0
  9  6  1  0  0  0  0
  9 12  1  0  0  0  0
 11  6  1  0  0  0  0
 13  9  1  0  0  0  0
 14  9  1  0  0  0  0
M  RAD  2   1   2   5   2
M  END
$$$$
