butane_opt
 OpenBabel08242015393D

 14 10  0  0  0  0  0  0  0  0999 V2000
   -3.9194    0.3438   -0.1056 C   0  0  0  0  0  1  0  0  0  0  0  0
   -2.6566   -0.6732    0.1128 C   0  0  0  0  0  0  0  0  0  0  0  0
   -4.8397   -0.2285    0.9355 H   0  0  0  0  0  0  0  0  0  0  0  0
   -4.1706    1.6081   -1.5473 H   0  0  0  0  0  0  0  0  0  0  0  0
   -3.8078    0.2466    0.1398 H   0  0  0  0  0  0  0  0  0  0  0  0
   -1.4407    0.0902    0.1557 C   0  0  0  0  0  0  0  0  0  0  0  0
   -2.5614   -1.3207   -0.7336 H   0  0  0  0  0  0  0  0  0  0  0  0
   -2.5399   -1.3130    1.1535 H   0  0  0  0  0  0  0  0  0  0  0  0
   -0.1731   -0.6233   -0.0833 C   0  0  0  0  0  0  0  0  0  0  0  0
   -1.4648    1.0446    1.2452 H   0  0  0  0  0  0  0  0  0  0  0  0
   -1.2777    0.1641   -0.3512 H   0  0  0  0  0  0  0  0  0  0  0  0
   -0.4304   -0.8742    0.4632 H   0  0  0  0  0  0  0  0  0  0  0  0
    0.9019    0.1090    0.0877 H   0  0  0  0  0  0  0  0  0  0  0  0
   -0.5539   -1.5009   -1.0258 H   0  0  0  0  0  0  0  0  0  0  0  0
  1  3  1  0  0  0  0
  2  5  1  0  0  0  0
  2  6  1  0  0  0  0
  2  8  1  0  0  0  0
  6 10  1  0  0  0  0
  7  2  1  0  0  0  0
  9 13  1  0  0  0  0
  9 12  1  0  0  0  0
 11  9  1  0  0  0  0
 14  9  1  0  0  0  0
M  RAD  2   4   2   6   3
M  END
$$$$
