14
butane_opt
C  -3.943030   0.259055   0.052734
C  -2.692473  -0.610587  -0.006583
H  -4.887450  -0.352632   0.167853
H  -4.001066   0.911200  -0.859460
H  -3.849575   0.892436   0.888782
C  -1.413097   0.185035  -0.025140
H  -2.749988  -1.301901  -0.876884
H  -2.666188  -1.167431   0.823668
C  -0.163985  -0.693189   0.064459
H  -1.452127   0.890803   0.860975
H  -1.351925   0.782642  -0.908219
H  -0.125007  -1.393107   1.018573
H   0.731885  -0.100307   0.035165
H  -0.126096  -1.318148  -0.735484
