butane_opt
 OpenBabel08242015393D

 14 10  0  0  0  0  0  0  0  0999 V2000
   -3.9510    0.2690    0.1314 C   0  0  0  0  0  0  0  0  0  0  0  0
   -2.6754   -0.6350   -0.0266 C   0  0  0  0  0  0  0  0  0  0  0  0
   -4.7552   -0.1410   -0.3863 H   0  0  0  0  0  0  0  0  0  0  0  0
   -4.0553    0.3486   -0.4404 H   0  0  0  0  0  0  0  0  0  0  0  0
   -4.1360    1.5602    1.4270 H   0  0  0  0  0  0  0  0  0  0  0  0
   -1.4206    0.1055   -0.2041 C   0  0  0  0  0  0  0  0  0  0  0  0
   -2.7570   -1.2711   -0.8010 H   0  0  0  0  0  0  0  0  0  0  0  0
   -2.3571   -1.0639    0.7620 H   0  0  0  0  0  0  0  0  0  0  0  0
   -0.1360   -0.6511    0.1529 C   0  0  0  0  0  0  0  0  0  0  0  0
   -1.4060    0.7246    0.6845 H   0  0  0  0  0  0  0  0  0  0  0  0
   -1.3830    0.7387   -1.1866 H   0  0  0  0  0  0  0  0  0  0  0  0
   -0.7949   -1.5146    1.2957 H   0  0  0  0  0  0  0  0  0  0  0  0
    0.8371    0.1736    0.1302 H   0  0  0  0  0  0  0  0  0  0  0  0
   -0.0138   -1.1027   -0.6410 H   0  0  0  0  0  0  0  0  0  0  0  0
  2  1  1  0  0  0  0
  2  8  1  0  0  0  0
  3  1  1  0  0  0  0
  6  2  1  0  0  0  0
  6  9  1  0  0  0  0
  6 10  1  0  0  0  0
  7  2  1  0  0  0  0
 11  6  1  0  0  0  0
 13  9  1  0  0  0  0
 14  9  1  0  0  0  0
M  RAD  5   1   3   4   2   5   2   9   2  12   2
M  END
$$$$
