14
butane_opt
C  -3.967863   0.274649   0.006347
C  -2.696688  -0.628605   0.044501
H  -4.819351  -0.272253  -0.004211
H  -3.984847   0.859987  -0.902506
H  -4.005197   0.953099   0.867736
C  -1.389984   0.169859   0.036802
H  -2.679912  -1.318537  -0.828785
H  -2.725544  -1.259641   0.944976
C  -0.153597  -0.678286   0.019792
H  -1.376247   0.831782   0.896310
H  -1.418602   0.830622  -0.856206
H  -0.053991  -1.373494   0.947868
H   0.765039  -0.062490  -0.086187
H  -0.237898  -1.299823  -0.814732
