butane_opt
 OpenBabel08242015393D

 14  8  0  0  0  0  0  0  0  0999 V2000
   -3.9769    0.2186    0.1303 C   0  0  0  0  0  0  0  0  0  0  0  0
   -2.7589   -0.5582   -0.0733 C   0  0  0  0  0  0  0  0  0  0  0  0
   -4.7717   -0.3392   -0.4365 H   0  0  0  0  0  0  0  0  0  0  0  0
   -3.9145    0.2837   -0.4251 H   0  0  0  0  0  0  0  0  0  0  0  0
   -3.7881    1.3818    1.3283 H   0  0  0  0  0  0  0  0  0  0  0  0
   -1.4315    0.2633   -0.1240 C   0  0  0  0  0  0  0  0  0  0  0  0
   -2.8526   -1.4370   -1.0777 H   0  0  0  0  0  0  0  0  0  0  0  0
   -2.8134   -1.1625    0.7887 H   0  0  0  0  0  0  0  0  0  0  0  0
   -0.0885   -0.7366    0.1457 C   0  0  0  0  0  0  0  0  0  0  0  0
   -1.0816    0.8630    0.5519 H   0  0  0  0  0  0  0  0  0  0  0  0
   -1.4195    0.7654   -0.8865 H   0  0  0  0  0  0  0  0  0  0  0  0
    0.0680   -1.8434    1.5358 H   0  0  0  0  0  0  0  0  0  0  0  0
    0.5429   -0.4067   -0.4894 H   0  0  0  0  0  0  0  0  0  0  0  0
    0.0901   -0.8311   -0.2876 H   0  0  0  0  0  0  0  0  0  0  0  0
  2  1  1  0  0  0  0
  2  8  1  0  0  0  0
  3  1  1  0  0  0  0
  6  9  1  0  0  0  0
  6 10  1  0  0  0  0
  7  2  1  0  0  0  0
 11  6  1  0  0  0  0
 13  9  1  0  0  0  0
M  RAD  8   1   3   2   2   4   2   5   2   6   2   9   3  12   2  14   2
M  END
$$$$
