14
butane_opt
C  -3.938181   0.268849   0.000482
C  -2.686368  -0.617157   0.053669
H  -4.866987  -0.326537  -0.027956
H  -3.983880   0.846124  -0.843918
H  -4.002673   0.972430   0.898487
C  -1.406498   0.168253   0.031958
H  -2.724082  -1.282037  -0.797900
H  -2.721008  -1.244757   0.939718
C  -0.162344  -0.689459   0.020601
H  -1.390090   0.820448   0.844714
H  -1.423349   0.855745  -0.891051
H  -0.161510  -1.282964   0.887331
H   0.753735  -0.071803  -0.043204
H  -0.176981  -1.327935  -0.805830
