butane_opt
 OpenBabel08242015393D

 14 13  0  0  0  0  0  0  0  0999 V2000
   -3.9019    0.3338    0.0433 C   0  0  0  0  0  0  0  0  0  0  0  0
   -2.6679   -0.7038   -0.0770 C   0  0  0  0  0  0  0  0  0  0  0  0
   -4.8602   -0.1859    0.3327 H   0  0  0  0  0  0  0  0  0  0  0  0
   -3.9635    0.9507   -0.8488 H   0  0  0  0  0  0  0  0  0  0  0  0
   -4.0148    0.8748    0.9438 H   0  0  0  0  0  0  0  0  0  0  0  0
   -1.4309    0.1086    0.0697 C   0  0  0  0  0  0  0  0  0  0  0  0
   -2.6184   -1.4297   -0.9874 H   0  0  0  0  0  0  0  0  0  0  0  0
   -2.3987   -1.0620    0.7394 H   0  0  0  0  0  0  0  0  0  0  0  0
   -0.1935   -0.6027    0.0799 C   0  0  0  0  0  0  0  0  0  0  0  0
   -1.5289    0.5586    0.7681 H   0  0  0  0  0  0  0  0  0  0  0  0
   -1.4526    0.8692   -0.9518 H   0  0  0  0  0  0  0  0  0  0  0  0
   -0.1543   -1.6301    1.1955 H   0  0  0  0  0  0  0  0  0  0  0  0
    0.9282    0.1252   -0.3859 H   0  0  0  0  0  0  0  0  0  0  0  0
   -0.6639   -1.1401   -0.7210 H   0  0  0  0  0  0  0  0  0  0  0  0
  1  3  1  0  0  0  0
  1  5  1  0  0  0  0
  2  1  1  0  0  0  0
  2  6  1  0  0  0  0
  2  8  1  0  0  0  0
  4  1  1  0  0  0  0
  6  9  1  0  0  0  0
  6 10  1  0  0  0  0
  7  2  1  0  0  0  0
  9 12  1  0  0  0  0
 11  6  1  0  0  0  0
 13  9  1  0  0  0  0
 14  9  1  0  0  0  0
M  END
$$$$
