butane_opt
 OpenBabel08242015393D

 14 12  0  0  0  0  0  0  0  0999 V2000
   -3.9755    0.2179    0.1057 C   0  0  0  0  0  0  0  0  0  0  0  0
   -2.7166   -0.5471   -0.1119 C   0  0  0  0  0  0  0  0  0  0  0  0
   -4.8931   -0.5235    0.7399 H   0  0  0  0  0  0  0  0  0  0  0  0
   -4.3970    1.0543   -0.9801 H   0  0  0  0  0  0  0  0  0  0  0  0
   -3.5128    0.5662    0.7967 H   0  0  0  0  0  0  0  0  0  0  0  0
   -1.4660    0.2486   -0.0193 C   0  0  0  0  0  0  0  0  0  0  0  0
   -2.8357   -1.5406   -1.2726 H   0  0  0  0  0  0  0  0  0  0  0  0
   -2.8513   -0.9724    0.5921 H   0  0  0  0  0  0  0  0  0  0  0  0
   -0.0379   -0.7120    0.1489 C   0  0  0  0  0  0  0  0  0  0  0  0
   -1.4501    0.8153    0.7624 H   0  0  0  0  0  0  0  0  0  0  0  0
   -1.3836    0.9625   -1.1379 H   0  0  0  0  0  0  0  0  0  0  0  0
    0.1148   -1.6210    1.2839 H   0  0  0  0  0  0  0  0  0  0  0  0
    0.7860   -0.2621    0.0109 H   0  0  0  0  0  0  0  0  0  0  0  0
   -0.2406   -1.4309   -0.8112 H   0  0  0  0  0  0  0  0  0  0  0  0
  1  3  1  0  0  0  0
  1  5  1  0  0  0  0
  2  6  1  0  0  0  0
  2  1  1  0  0  0  0
  2  8  1  0  0  0  0
  4  1  1  0  0  0  0
  6  9  1  0  0  0  0
  6 10  1  0  0  0  0
  9 12  1  0  0  0  0
 11  6  1  0  0  0  0
 13  9  1  0  0  0  0
 14  9  1  0  0  0  0
M  RAD  2   2   2   7   2
M  END
$$$$
