butane_opt
 OpenBabel08242015393D

 14 11  0  0  0  0  0  0  0  0999 V2000
   -3.8550    0.1919    0.1522 C   0  0  0  0  0  0  0  0  0  0  0  0
   -2.7036   -0.5152   -0.0107 C   0  0  0  0  0  0  0  0  0  0  0  0
   -4.9234   -0.4453   -0.1610 H   0  0  0  0  0  0  0  0  0  0  0  0
   -3.7728    0.3556   -0.4267 H   0  0  0  0  0  0  0  0  0  0  0  0
   -3.8011    1.2564    1.2124 H   0  0  0  0  0  0  0  0  0  0  0  0
   -1.5095    0.1845   -0.2184 C   0  0  0  0  0  0  0  0  0  0  0  0
   -2.9657   -1.3355   -1.0287 H   0  0  0  0  0  0  0  0  0  0  0  0
   -2.6587   -0.8614    0.7800 H   0  0  0  0  0  0  0  0  0  0  0  0
   -0.1615   -0.7429    0.1870 C   0  0  0  0  0  0  0  0  0  0  0  0
   -1.7004    0.7823    0.5322 H   0  0  0  0  0  0  0  0  0  0  0  0
   -1.2576    1.1581   -1.4250 H   0  0  0  0  0  0  0  0  0  0  0  0
   -0.3378   -1.2788    0.9080 H   0  0  0  0  0  0  0  0  0  0  0  0
    0.7572   -0.0888    0.4039 H   0  0  0  0  0  0  0  0  0  0  0  0
    0.3868   -1.4874   -0.6651 H   0  0  0  0  0  0  0  0  0  0  0  0
  1  5  1  0  0  0  0
  2  1  1  0  0  0  0
  2  8  1  0  0  0  0
  3  1  1  0  0  0  0
  6  2  1  0  0  0  0
  6  9  1  0  0  0  0
  6 10  1  0  0  0  0
  7  2  1  0  0  0  0
  9 13  1  0  0  0  0
  9 12  1  0  0  0  0
 14  9  1  0  0  0  0
M  RAD  4   1   2   4   2   6   2  11   2
M  END
$$$$
