14
butane_opt
C  -3.924674   0.211426   0.076423
C  -2.812117  -0.593930  -0.090130
H  -4.768220  -0.357203  -0.079614
H  -3.863687   0.653043  -0.628603
H  -4.122211   1.090444   1.152379
C  -1.394827   0.295729   0.005035
H  -2.714645  -1.198275  -0.853787
H  -2.797032  -1.133691   0.645307
C  -0.099685  -0.740010   0.104691
H  -1.448313   0.859864   0.873109
H  -1.289306   0.858841  -0.884287
H   0.414874  -1.985722   1.337134
H   0.619353  -0.319636  -0.716683
H  -0.270712  -1.014240  -0.472538
