butane_opt
 OpenBabel08242015393D

 14 12  0  0  0  0  0  0  0  0999 V2000
   -3.9908    0.3107    0.2573 C   0  0  0  0  0  0  0  0  0  0  0  0
   -2.7256   -0.7363   -0.1877 C   0  0  0  0  0  0  0  0  0  0  0  0
   -4.5861   -0.0168    0.4341 H   0  0  0  0  0  0  0  0  0  0  0  0
   -4.2375    1.2935   -0.8712 H   0  0  0  0  0  0  0  0  0  0  0  0
   -3.8772    0.9788    0.9492 H   0  0  0  0  0  0  0  0  0  0  0  0
   -1.3767    0.1622   -0.1688 C   0  0  0  0  0  0  0  0  0  0  0  0
   -3.0509   -1.7756   -1.2975 H   0  0  0  0  0  0  0  0  0  0  0  0
   -2.5821   -0.9053    0.4541 H   0  0  0  0  0  0  0  0  0  0  0  0
   -0.1429   -0.6565    0.2128 C   0  0  0  0  0  0  0  0  0  0  0  0
   -1.5158    0.6456    0.5976 H   0  0  0  0  0  0  0  0  0  0  0  0
   -0.9073    0.8188   -1.2021 H   0  0  0  0  0  0  0  0  0  0  0  0
   -0.3289   -1.3686    1.1358 H   0  0  0  0  0  0  0  0  0  0  0  0
    0.8454   -0.1043    0.2168 H   0  0  0  0  0  0  0  0  0  0  0  0
    0.0095   -0.9242   -0.3541 H   0  0  0  0  0  0  0  0  0  0  0  0
  1  3  1  0  0  0  0
  1  5  1  0  0  0  0
  2  6  1  0  0  0  0
  2  1  1  0  0  0  0
  2  8  1  0  0  0  0
  4  1  1  0  0  0  0
  6  9  1  0  0  0  0
  6 10  1  0  0  0  0
  9 13  1  0  0  0  0
  9 12  1  0  0  0  0
 11  6  1  0  0  0  0
 14  9  1  0  0  0  0
M  RAD  2   2   2   7   2
M  END
$$$$
