butane_opt
 OpenBabel08242015393D

 14  6  0  0  0  0  0  0  0  0999 V2000
   -4.0403    0.3404   -0.1142 C   0  0  0  0  0  0  0  0  0  0  0  0
   -2.7053   -0.7387    0.1641 C   0  0  0  0  0  0  0  0  0  0  0  0
   -4.7742   -0.0372    0.3100 H   0  0  0  0  0  0  0  0  0  0  0  0
   -3.9778    1.2729   -1.3535 H   0  0  0  0  0  0  0  0  0  0  0  0
   -4.1460    0.6409    0.4086 H   0  0  0  0  0  0  0  0  0  0  0  0
   -1.2970    0.1407    0.1577 C   0  0  0  0  0  0  0  0  0  0  0  0
   -2.4824   -1.0920   -0.3373 H   0  0  0  0  0  0  0  0  0  0  0  0
   -2.7165   -1.6950    1.3595 H   0  0  0  0  0  0  0  0  0  0  0  0
   -0.2096   -0.6646   -0.1080 C   0  0  0  0  0  1  0  0  0  0  0  0
   -1.2647    1.1375    1.1490 H   0  0  0  0  0  0  0  0  0  0  0  0
   -1.0964    0.8010   -0.7016 H   0  0  0  0  0  0  0  0  0  0  0  0
   -0.1854   -0.5925    0.3824 H   0  0  0  0  0  0  0  0  0  0  0  0
    0.6992   -0.0121    0.3978 H   0  0  0  0  0  0  0  0  0  0  0  0
   -0.0848   -1.8401   -1.4774 H   0  0  0  0  0  0  0  0  0  0  0  0
  1  2  1  0  0  0  0
  1  3  1  0  0  0  0
  6 12  1  0  0  0  0
  7  2  1  0  0  0  0
  9 13  1  0  0  0  0
 11  6  1  0  0  0  0
M  RAD  8   1   3   2   3   4   2   5   2   6   3   8   2  10   2  14   2
M  END
$$$$
