14
butane_opt
C  -3.895545   0.266340  -0.196073
C  -2.636206  -0.591284   0.205123
H  -4.857592  -0.383324  -0.306167
H  -3.873487   0.909336  -1.184881
H  -3.842940   0.755080   0.455240
C  -1.465015   0.177269   0.364197
H  -2.594223  -1.283526  -0.532135
H  -2.927739  -1.368119   1.128436
C  -0.228264  -0.663357  -0.193592
H  -1.282631   0.841094   1.158628
H  -1.647089   0.670193  -0.514656
H   0.503392  -1.591547   0.718817
H   0.642460  -0.153408  -0.838054
H  -0.490982  -1.076485  -0.792035
