14
butane_opt
C  -3.910214   0.238655  -0.065981
C  -2.690267  -0.574180   0.072075
H  -4.837824  -0.482414   0.636757
H  -4.111997   1.438549  -1.350577
H  -3.472316  -0.082820   0.253151
C  -1.421452   0.280476   0.126013
H  -2.861762  -1.049178  -0.745788
H  -2.697366  -1.382750   1.001911
C  -0.178037  -0.737592  -0.036217
H  -1.347539   1.368632   1.159338
H  -1.503923   0.538077  -0.383903
H  -0.020189  -1.184921   0.732677
H   0.493778  -0.437069   0.111987
H  -0.234771  -1.721482  -1.249924
