14
butane_opt
C  -3.960347   0.182483   0.154607
C  -2.720792  -0.538586  -0.191601
H  -5.062394  -0.661895   0.167823
H  -4.058251   0.502070  -0.537388
H  -3.982752   1.388073   1.245319
C  -1.443178   0.275323  -0.102582
H  -2.721266  -1.248514  -1.115092
H  -2.786350  -1.009769   0.577758
C  -0.053986  -0.801923   0.216907
H  -1.552508   0.968609   0.715053
H  -1.232817   0.891185  -0.806933
H   0.291019  -2.020774   1.459345
H   0.778575  -0.147648  -0.868215
H  -0.453659  -0.595584  -0.190893
