butane_opt
 OpenBabel08242015393D

 14 13  0  0  0  0  0  0  0  0999 V2000
   -3.8572    0.1778    0.0785 C   0  0  0  0  0  0  0  0  0  0  0  0
   -2.6883   -0.5088    0.0331 C   0  0  0  0  0  0  0  0  0  0  0  0
   -4.7332   -0.3882   -0.0285 H   0  0  0  0  0  0  0  0  0  0  0  0
   -3.8589    0.4201   -0.5597 H   0  0  0  0  0  0  0  0  0  0  0  0
   -3.8337    1.0796    1.0946 H   0  0  0  0  0  0  0  0  0  0  0  0
   -1.4695    0.2392   -0.1720 C   0  0  0  0  0  0  0  0  0  0  0  0
   -2.8206   -1.3033   -0.7948 H   0  0  0  0  0  0  0  0  0  0  0  0
   -2.6457   -1.2308    1.0539 H   0  0  0  0  0  0  0  0  0  0  0  0
   -0.1756   -0.7208    0.0824 C   0  0  0  0  0  0  0  0  0  0  0  0
   -1.6230    1.0394    0.6515 H   0  0  0  0  0  0  0  0  0  0  0  0
   -1.4968    0.9635   -1.0466 H   0  0  0  0  0  0  0  0  0  0  0  0
   -0.7263   -1.2517    1.0268 H   0  0  0  0  0  0  0  0  0  0  0  0
    0.6210   -0.3299    0.5749 H   0  0  0  0  0  0  0  0  0  0  0  0
    0.4128   -1.7659   -0.8196 H   0  0  0  0  0  0  0  0  0  0  0  0
  1  5  1  0  0  0  0
  2  1  1  0  0  0  0
  2  8  1  0  0  0  0
  3  1  1  0  0  0  0
  4  1  1  0  0  0  0
  6  2  1  0  0  0  0
  6  9  1  0  0  0  0
  6 10  1  0  0  0  0
  7  2  1  0  0  0  0
  9 13  1  0  0  0  0
  9 12  1  0  0  0  0
 11  6  1  0  0  0  0
 14  9  1  0  0  0  0
M  END
$$$$
