14
butane_opt
C  -3.971294   0.247865   0.162736
C  -2.704014  -0.649590  -0.134727
H  -4.996594  -0.307824  -0.142866
H  -3.860852   0.467032  -0.629671
H  -4.024302   1.240809   1.197926
C  -1.445429   0.281211  -0.091313
H  -2.910339  -1.549260  -1.158073
H  -2.595959  -1.063937   0.528102
C  -0.116306  -0.734188   0.191146
H  -1.377596   1.027857   0.662618
H  -1.327231   0.777310  -0.928486
H   0.449275  -1.939065   1.424818
H   0.708702  -0.297383  -0.859119
H  -0.236961  -0.558852  -0.068923
