14
butane_opt
C  -3.939841   0.272777   0.016507
C  -2.697583  -0.621173   0.060357
H  -4.850810  -0.326214  -0.110721
H  -3.845766   0.804401  -0.863476
H  -4.088265   1.031667   0.932507
C  -1.398837   0.171924   0.009058
H  -2.709295  -1.304884  -0.789163
H  -2.689808  -1.242931   0.924806
C  -0.176341  -0.692241   0.028374
H  -1.364107   0.862432   0.855644
H  -1.426675   0.842839  -0.933112
H  -0.133498  -1.324441   0.926791
H   0.807136  -0.038476  -0.022586
H  -0.179646  -1.345818  -0.833772
