14
butane_opt
C  -3.927364   0.307911  -0.001949
C  -2.687807  -0.688420   0.004068
H  -4.421162   0.061551   0.704751
H  -4.158521   1.588217  -1.382480
H  -3.886564   0.160602   0.369541
C  -1.428357   0.116635   0.076582
H  -2.634619  -1.172119  -0.766197
H  -2.446815  -1.486532   1.024965
C  -0.214245  -0.613932  -0.000177
H  -1.265091   1.064571   1.173440
H  -1.533024   0.354549  -0.466361
H  -0.372845  -1.012868   0.582402
H   0.780485   0.129267   0.173380
H  -0.061203  -1.536127  -1.030065
