14
butane_opt
C  -3.936123   0.324971  -0.047610
C  -2.661942  -0.703652   0.183441
H  -4.800480  -0.197363   0.134157
H  -4.101734   1.302020  -1.229864
H  -3.932100   0.599053   0.555375
C  -1.423361   0.123313   0.041962
H  -2.255566  -1.371450  -0.661329
H  -2.620377  -1.446195   1.188373
C  -0.252405  -0.600047  -0.031506
H  -1.341745   0.839159   0.890126
H  -1.301147   0.809225  -1.023252
H  -0.189767  -0.570451   0.400127
H   0.805416   0.129464   0.688485
H  -0.057997  -2.273140  -1.368762
