butane_opt
 OpenBabel08242015393D

 14 13  0  0  0  0  0  0  0  0999 V2000
   -3.8686    0.1853   -0.0315 C   0  0  0  0  0  0  0  0  0  0  0  0
   -2.7022   -0.5632    0.0273 C   0  0  0  0  0  0  0  0  0  0  0  0
   -4.8788   -0.4223    0.0304 H   0  0  0  0  0  0  0  0  0  0  0  0
   -3.7344    1.0149   -1.1085 H   0  0  0  0  0  0  0  0  0  0  0  0
   -3.7159    0.8684    0.8249 H   0  0  0  0  0  0  0  0  0  0  0  0
   -1.4986    0.2374    0.1778 C   0  0  0  0  0  0  0  0  0  0  0  0
   -2.7380   -1.3870   -0.8610 H   0  0  0  0  0  0  0  0  0  0  0  0
   -2.9772   -0.9891    0.9103 H   0  0  0  0  0  0  0  0  0  0  0  0
   -0.1358   -0.7342   -0.0208 C   0  0  0  0  0  0  0  0  0  0  0  0
   -1.3889    0.8901    1.0473 H   0  0  0  0  0  0  0  0  0  0  0  0
   -1.7783    1.1475   -0.8753 H   0  0  0  0  0  0  0  0  0  0  0  0
    0.1307   -1.6952    1.0508 H   0  0  0  0  0  0  0  0  0  0  0  0
    0.7510   -0.1352   -0.7218 H   0  0  0  0  0  0  0  0  0  0  0  0
   -0.2449   -1.2665   -0.6793 H   0  0  0  0  0  0  0  0  0  0  0  0
  1  2  1  0  0  0  0
  1  3  1  0  0  0  0
  1  5  1  0  0  0  0
  2  6  1  0  0  0  0
  2  8  1  0  0  0  0
  4  1  1  0  0  0  0
  6 10  1  0  0  0  0
  7  2  1  0  0  0  0
  9  6  1  0  0  0  0
  9 12  1  0  0  0  0
 11  6  1  0  0  0  0
 13  9  1  0  0  0  0
 14  9  1  0  0  0  0
M  END
$$$$
