butane_opt
 OpenBabel08242015393D

 14 11  0  0  0  0  0  0  0  0999 V2000
   -3.9196    0.2924   -0.1058 C   0  0  0  0  0  1  0  0  0  0  0  0
   -2.6905   -0.6595    0.0810 C   0  0  0  0  0  0  0  0  0  0  0  0
   -4.5764   -0.0590    0.5526 H   0  0  0  0  0  0  0  0  0  0  0  0
   -4.2293    1.4402   -1.3256 H   0  0  0  0  0  0  0  0  0  0  0  0
   -3.6350    0.4307    0.4360 H   0  0  0  0  0  0  0  0  0  0  0  0
   -1.3728    0.1558    0.2045 C   0  0  0  0  0  0  0  0  0  0  0  0
   -2.4681   -1.1633   -0.5562 H   0  0  0  0  0  0  0  0  0  0  0  0
   -2.8075   -1.5801    1.1620 H   0  0  0  0  0  0  0  0  0  0  0  0
   -0.2427   -0.6992   -0.1104 C   0  0  0  0  0  0  0  0  0  0  0  0
   -1.3451    1.1842    1.3085 H   0  0  0  0  0  0  0  0  0  0  0  0
   -1.3688    0.6209   -0.7297 H   0  0  0  0  0  0  0  0  0  0  0  0
   -0.4318   -1.0002    0.6673 H   0  0  0  0  0  0  0  0  0  0  0  0
    0.7772    0.2057    0.0049 H   0  0  0  0  0  0  0  0  0  0  0  0
   -0.2726   -1.5683   -1.0154 H   0  0  0  0  0  0  0  0  0  0  0  0
  1  3  1  0  0  0  0
  2  6  1  0  0  0  0
  2  5  1  0  0  0  0
  2  8  1  0  0  0  0
  6 10  1  0  0  0  0
  7  2  1  0  0  0  0
  9 13  1  0  0  0  0
  9  6  1  0  0  0  0
  9 12  1  0  0  0  0
 11  6  1  0  0  0  0
 14  9  1  0  0  0  0
M  RAD  1   4   2
M  END
$$$$
