butane_opt
 OpenBabel08242015393D

 14 13  0  0  0  0  0  0  0  0999 V2000
   -3.9059    0.2355    0.0984 C   0  0  0  0  0  0  0  0  0  0  0  0
   -2.7207   -0.5487   -0.0523 C   0  0  0  0  0  0  0  0  0  0  0  0
   -4.7898   -0.4545    0.2738 H   0  0  0  0  0  0  0  0  0  0  0  0
   -4.0547    0.6686   -0.6530 H   0  0  0  0  0  0  0  0  0  0  0  0
   -3.5013    0.9846    1.1248 H   0  0  0  0  0  0  0  0  0  0  0  0
   -1.4111    0.2322   -0.1599 C   0  0  0  0  0  0  0  0  0  0  0  0
   -2.7207   -1.2209   -0.7732 H   0  0  0  0  0  0  0  0  0  0  0  0
   -2.6631   -1.2402    0.8513 H   0  0  0  0  0  0  0  0  0  0  0  0
   -0.2178   -0.7233    0.1260 C   0  0  0  0  0  0  0  0  0  0  0  0
   -1.5276    0.8258    0.6400 H   0  0  0  0  0  0  0  0  0  0  0  0
   -1.2069    0.7968   -1.0774 H   0  0  0  0  0  0  0  0  0  0  0  0
   -0.2708   -1.3034    1.0714 H   0  0  0  0  0  0  0  0  0  0  0  0
    0.6933   -0.1525    0.6254 H   0  0  0  0  0  0  0  0  0  0  0  0
    0.0689   -1.7156   -0.7948 H   0  0  0  0  0  0  0  0  0  0  0  0
  1  3  1  0  0  0  0
  1  5  1  0  0  0  0
  2  1  1  0  0  0  0
  2  8  1  0  0  0  0
  4  1  1  0  0  0  0
  6  2  1  0  0  0  0
  6  9  1  0  0  0  0
  6 10  1  0  0  0  0
  7  2  1  0  0  0  0
  9 13  1  0  0  0  0
  9 12  1  0  0  0  0
 11  6  1  0  0  0  0
 14  9  1  0  0  0  0
M  END
$$$$
