butane_opt
 OpenBabel08242015393D

 14 12  0  0  0  0  0  0  0  0999 V2000
   -3.9046    0.2065    0.1705 C   0  0  0  0  0  0  0  0  0  0  0  0
   -2.6912   -0.5450   -0.1176 C   0  0  0  0  0  0  0  0  0  0  0  0
   -4.9401   -0.5969    0.3172 H   0  0  0  0  0  0  0  0  0  0  0  0
   -3.8682    0.6598   -0.5256 H   0  0  0  0  0  0  0  0  0  0  0  0
   -3.2733    0.9847    1.1857 H   0  0  0  0  0  0  0  0  0  0  0  0
   -1.5152    0.2508   -0.2413 C   0  0  0  0  0  0  0  0  0  0  0  0
   -2.8947   -0.9619   -0.8981 H   0  0  0  0  0  0  0  0  0  0  0  0
   -2.3910   -1.2489    0.7239 H   0  0  0  0  0  0  0  0  0  0  0  0
   -0.1654   -0.7621    0.2275 C   0  0  0  0  0  0  0  0  0  0  0  0
   -1.7457    0.7456    0.5776 H   0  0  0  0  0  0  0  0  0  0  0  0
   -1.1273    0.9429   -1.2816 H   0  0  0  0  0  0  0  0  0  0  0  0
   -0.4619   -0.8885    0.9886 H   0  0  0  0  0  0  0  0  0  0  0  0
    0.6457   -0.1451    0.6001 H   0  0  0  0  0  0  0  0  0  0  0  0
    0.3406   -1.8067   -0.7999 H   0  0  0  0  0  0  0  0  0  0  0  0
  1  3  1  0  0  0  0
  1  5  1  0  0  0  0
  2  1  1  0  0  0  0
  2  8  1  0  0  0  0
  4  1  1  0  0  0  0
  6  2  1  0  0  0  0
  6  9  1  0  0  0  0
  6 10  1  0  0  0  0
  7  2  1  0  0  0  0
  9 13  1  0  0  0  0
  9 12  1  0  0  0  0
 11  6  1  0  0  0  0
M  RAD  2   9   2  14   2
M  END
$$$$
