butane_opt
 OpenBabel08242015393D

 14 13  0  0  0  0  0  0  0  0999 V2000
   -3.9455    0.2727   -0.0111 C   0  0  0  0  0  0  0  0  0  0  0  0
   -2.6908   -0.6162    0.0866 C   0  0  0  0  0  0  0  0  0  0  0  0
   -4.8362   -0.3133   -0.1073 H   0  0  0  0  0  0  0  0  0  0  0  0
   -3.9010    0.8080   -0.8870 H   0  0  0  0  0  0  0  0  0  0  0  0
   -4.0528    0.9908    0.8959 H   0  0  0  0  0  0  0  0  0  0  0  0
   -1.4005    0.1684    0.0259 C   0  0  0  0  0  0  0  0  0  0  0  0
   -2.7279   -1.2939   -0.7635 H   0  0  0  0  0  0  0  0  0  0  0  0
   -2.7311   -1.2234    0.9931 H   0  0  0  0  0  0  0  0  0  0  0  0
   -0.1624   -0.6856    0.0063 C   0  0  0  0  0  0  0  0  0  0  0  0
   -1.3315    0.8285    0.8804 H   0  0  0  0  0  0  0  0  0  0  0  0
   -1.4520    0.8016   -0.8699 H   0  0  0  0  0  0  0  0  0  0  0  0
   -0.1928   -1.2761    0.9009 H   0  0  0  0  0  0  0  0  0  0  0  0
    0.7698   -0.0643   -0.0139 H   0  0  0  0  0  0  0  0  0  0  0  0
   -0.1793   -1.3989   -0.8777 H   0  0  0  0  0  0  0  0  0  0  0  0
  1  2  1  0  0  0  0
  1  5  1  0  0  0  0
  2  8  1  0  0  0  0
  3  1  1  0  0  0  0
  4  1  1  0  0  0  0
  6  2  1  0  0  0  0
  6 10  1  0  0  0  0
  7  2  1  0  0  0  0
  9  6  1  0  0  0  0
  9 12  1  0  0  0  0
 11  6  1  0  0  0  0
 13  9  1  0  0  0  0
 14  9  1  0  0  0  0
M  END
$$$$
