14
butane_opt
C  -4.023772   0.309044  -0.008055
C  -2.689939  -0.621483   0.110030
H  -4.822658  -0.328797   0.244385
H  -3.954369   1.126896  -1.059918
H  -4.307782   0.634683   0.643706
C  -1.347205   0.143860   0.003900
H  -2.515670  -1.138469  -0.643380
H  -2.796433  -1.469180   1.224443
C  -0.137690  -0.660952   0.009428
H  -1.347676   0.482723   0.721464
H  -1.117544   0.797517  -0.837406
H  -0.402717  -0.438396   0.301743
H   0.714091  -0.075274   0.729447
H  -0.059270  -2.109773  -1.363746
