butane_opt
 OpenBabel08242015393D

 14 12  0  0  0  0  0  0  0  0999 V2000
   -3.8790    0.3498   -0.1911 C   0  0  0  0  0  0  0  0  0  0  0  0
   -2.7237   -0.7017    0.1807 C   0  0  0  0  0  0  0  0  0  0  0  0
   -4.8490   -0.2198   -0.1137 H   0  0  0  0  0  0  0  0  0  0  0  0
   -3.8346    1.0242   -1.0248 H   0  0  0  0  0  0  0  0  0  0  0  0
   -4.1604    0.9024    0.4694 H   0  0  0  0  0  0  0  0  0  0  0  0
   -1.3954    0.0936    0.3255 C   0  0  0  0  0  0  0  0  0  0  0  0
   -2.3546   -1.1659   -0.4593 H   0  0  0  0  0  0  0  0  0  0  0  0
   -2.6481   -1.3930    0.9629 H   0  0  0  0  0  0  0  0  0  0  0  0
   -0.2179   -0.6509   -0.1497 C   0  0  0  0  0  0  0  0  0  0  0  0
   -1.2670    0.9197    1.2510 H   0  0  0  0  0  0  0  0  0  0  0  0
   -1.4281    0.6550   -0.5361 H   0  0  0  0  0  0  0  0  0  0  0  0
    0.0861   -1.4211    0.7789 H   0  0  0  0  0  0  0  0  0  0  0  0
    0.8479    0.1159   -0.9620 H   0  0  0  0  0  0  0  0  0  0  0  0
   -0.8494   -0.9639   -0.8983 H   0  0  0  0  0  0  0  0  0  0  0  0
  1  3  1  0  0  0  0
  1  2  1  0  0  0  0
  1  5  1  0  0  0  0
  2  6  1  0  0  0  0
  2  8  1  0  0  0  0
  4  1  1  0  0  0  0
  6 10  1  0  0  0  0
  7  2  1  0  0  0  0
  9  6  1  0  0  0  0
  9 12  1  0  0  0  0
 11  6  1  0  0  0  0
 14  9  1  0  0  0  0
M  RAD  2   9   2  13   2
M  END
$$$$
