butane_opt
 OpenBabel08242015393D

 14 13  0  0  0  0  0  0  0  0999 V2000
   -3.9609    0.2671    0.0022 C   0  0  0  0  0  0  0  0  0  0  0  0
   -2.6956   -0.6201    0.0604 C   0  0  0  0  0  0  0  0  0  0  0  0
   -4.8267   -0.2674    0.0771 H   0  0  0  0  0  0  0  0  0  0  0  0
   -3.9949    0.9493   -0.9406 H   0  0  0  0  0  0  0  0  0  0  0  0
   -3.9837    0.8529    0.8365 H   0  0  0  0  0  0  0  0  0  0  0  0
   -1.3934    0.1753    0.0144 C   0  0  0  0  0  0  0  0  0  0  0  0
   -2.7303   -1.3027   -0.7848 H   0  0  0  0  0  0  0  0  0  0  0  0
   -2.7301   -1.2773    0.9814 H   0  0  0  0  0  0  0  0  0  0  0  0
   -0.1538   -0.6865    0.0239 C   0  0  0  0  0  0  0  0  0  0  0  0
   -1.3845    0.8585    0.8709 H   0  0  0  0  0  0  0  0  0  0  0  0
   -1.4267    0.8350   -0.8618 H   0  0  0  0  0  0  0  0  0  0  0  0
   -0.1339   -1.1811    0.8307 H   0  0  0  0  0  0  0  0  0  0  0  0
    0.7667   -0.0699    0.1390 H   0  0  0  0  0  0  0  0  0  0  0  0
   -0.1428   -1.4929   -0.9381 H   0  0  0  0  0  0  0  0  0  0  0  0
  1  2  1  0  0  0  0
  1  3  1  0  0  0  0
  1  5  1  0  0  0  0
  2  8  1  0  0  0  0
  4  1  1  0  0  0  0
  6  9  1  0  0  0  0
  6  2  1  0  0  0  0
  6 10  1  0  0  0  0
  7  2  1  0  0  0  0
  9 13  1  0  0  0  0
  9 12  1  0  0  0  0
 11  6  1  0  0  0  0
 14  9  1  0  0  0  0
M  END
$$$$
