14
butane_opt
C  -3.948921   0.211580   0.123875
C  -2.689700  -0.549657  -0.107876
H  -5.104624  -0.667615   0.132802
H  -3.950120   0.772118  -0.631847
H  -3.687256   1.055812   1.265555
C  -1.458166   0.249243  -0.141840
H  -2.927438  -0.992298  -0.710259
H  -2.417751  -1.349553   0.819117
C  -0.107593  -0.749296   0.151965
H  -1.602485   0.843887   0.588356
H  -1.211442   0.869021  -1.082313
H  -0.346480  -1.193432   1.067188
H   0.757309  -0.332270   0.474391
H  -0.016828  -1.472253  -0.822407
