butane_opt
 OpenBabel08242015393D

 14 11  0  0  0  0  0  0  0  0999 V2000
   -4.0655    0.2847    0.1344 C   0  0  0  0  0  0  0  0  0  0  0  0
   -2.6815   -0.6574    0.0277 C   0  0  0  0  0  0  0  0  0  0  0  0
   -4.8107   -0.2245   -0.8829 H   0  0  0  0  0  0  0  0  0  0  0  0
   -3.7834    0.3900   -0.5163 H   0  0  0  0  0  0  0  0  0  0  0  0
   -4.2202    1.6269    1.2494 H   0  0  0  0  0  0  0  0  0  0  0  0
   -1.3972    0.1511   -0.0920 C   0  0  0  0  0  0  0  0  0  0  0  0
   -2.6415   -1.5404   -0.9093 H   0  0  0  0  0  0  0  0  0  0  0  0
   -2.6706   -1.1673    0.8761 H   0  0  0  0  0  0  0  0  0  0  0  0
   -0.1216   -0.6173    0.0975 C   0  0  0  0  0  0  0  0  0  0  0  0
   -1.1436    0.3856    0.3710 H   0  0  0  0  0  0  0  0  0  0  0  0
   -1.3643    1.0290   -1.1613 H   0  0  0  0  0  0  0  0  0  0  0  0
   -0.1194   -1.5243    1.1429 H   0  0  0  0  0  0  0  0  0  0  0  0
    0.7904   -0.1278   -0.0104 H   0  0  0  0  0  0  0  0  0  0  0  0
    0.0901   -1.2298   -0.6474 H   0  0  0  0  0  0  0  0  0  0  0  0
  2  1  1  0  0  0  0
  2  8  1  0  0  0  0
  3  1  1  0  0  0  0
  4  1  1  0  0  0  0
  6  2  1  0  0  0  0
  7  2  1  0  0  0  0
  9 10  1  0  0  0  0
  9 12  1  0  0  0  0
 11  6  1  0  0  0  0
 13  9  1  0  0  0  0
 14  9  1  0  0  0  0
M  RAD  3   1   2   5   2   6   3
M  END
$$$$
