14
butane_opt
C  -3.938042   0.338243   0.131453
C  -2.650149  -0.622624  -0.035302
H  -4.715292  -0.119190  -0.639451
H  -3.928090   0.001863  -0.112455
H  -3.792395   1.673855   1.590147
C  -1.396040   0.034076  -0.218234
H  -2.772741  -1.242660  -0.823983
H  -2.767052  -1.256987   0.881146
C  -0.237743  -0.614891   0.173748
H  -1.601981   0.592217   0.378005
H  -1.149895   0.744456  -1.208649
H  -0.426411  -1.523663   1.173434
H   0.894721   0.131579   0.137917
H  -0.178247  -1.046170  -0.466741
