14
butane_opt
C  -3.905869   0.235534   0.098377
C  -2.720710  -0.548664  -0.052253
H  -4.789829  -0.454541   0.273790
H  -4.054702   0.668586  -0.653041
H  -3.501295   0.984626   1.124849
C  -1.411149   0.232247  -0.159853
H  -2.720744  -1.220851  -0.773177
H  -2.663101  -1.240153   0.851336
C  -0.217767  -0.723263   0.126021
H  -1.527615   0.825786   0.640003
H  -1.206880   0.796780  -1.077416
H  -0.270776  -1.303366   1.071432
H   0.693272  -0.152459   0.625366
H   0.068867  -1.715634  -0.794758
