butane_opt
 OpenBabel08242015393D

 14 11  0  0  0  0  0  0  0  0999 V2000
   -3.9380    0.3382    0.1315 C   0  0  0  0  0  1  0  0  0  0  0  0
   -2.6501   -0.6226   -0.0353 C   0  0  0  0  0  0  0  0  0  0  0  0
   -4.7153   -0.1192   -0.6395 H   0  0  0  0  0  0  0  0  0  0  0  0
   -3.9281    0.0019   -0.1125 H   0  0  0  0  0  0  0  0  0  0  0  0
   -3.7924    1.6739    1.5901 H   0  0  0  0  0  0  0  0  0  0  0  0
   -1.3960    0.0341   -0.2182 C   0  0  0  0  0  0  0  0  0  0  0  0
   -2.7727   -1.2427   -0.8240 H   0  0  0  0  0  0  0  0  0  0  0  0
   -2.7671   -1.2570    0.8811 H   0  0  0  0  0  0  0  0  0  0  0  0
   -0.2377   -0.6149    0.1737 C   0  0  0  0  0  0  0  0  0  0  0  0
   -1.6020    0.5922    0.3780 H   0  0  0  0  0  0  0  0  0  0  0  0
   -1.1499    0.7445   -1.2086 H   0  0  0  0  0  0  0  0  0  0  0  0
   -0.4264   -1.5237    1.1734 H   0  0  0  0  0  0  0  0  0  0  0  0
    0.8947    0.1316    0.1379 H   0  0  0  0  0  0  0  0  0  0  0  0
   -0.1782   -1.0462   -0.4667 H   0  0  0  0  0  0  0  0  0  0  0  0
  2  8  1  0  0  0  0
  3  1  1  0  0  0  0
  4  2  1  0  0  0  0
  6  2  1  0  0  0  0
  6  9  1  0  0  0  0
  6 10  1  0  0  0  0
  7  2  1  0  0  0  0
  9 12  1  0  0  0  0
 11  6  1  0  0  0  0
 13  9  1  0  0  0  0
 14  9  1  0  0  0  0
M  RAD  1   5   2
M  END
$$$$
