14
butane_opt
C  -3.975462   0.217903   0.105682
C  -2.716551  -0.547069  -0.111926
H  -4.893101  -0.523517   0.739908
H  -4.397002   1.054343  -0.980127
H  -3.512793   0.566228   0.796665
C  -1.466006   0.248586  -0.019340
H  -2.835706  -1.540552  -1.272561
H  -2.851325  -0.972412   0.592090
C  -0.037864  -0.711990   0.148896
H  -1.450060   0.815269   0.762389
H  -1.383646   0.962530  -1.137920
H   0.114769  -1.620969   1.283888
H   0.785975  -0.262120   0.010908
H  -0.240553  -1.430890  -0.811170
