14
butane_opt
C  -3.976912   0.218579   0.130309
C  -2.758862  -0.558152  -0.073322
H  -4.771739  -0.339181  -0.436521
H  -3.914478   0.283701  -0.425094
H  -3.788118   1.381791   1.328270
C  -1.431464   0.263290  -0.123950
H  -2.852573  -1.437027  -1.077703
H  -2.813396  -1.162500   0.788729
C  -0.088528  -0.736632   0.145688
H  -1.081567   0.862974   0.551883
H  -1.419457   0.765443  -0.886489
H   0.067958  -1.843433   1.535815
H   0.542889  -0.406700  -0.489446
H   0.090111  -0.831084  -0.287622
