14
butane_opt
C  -4.014673   0.293487   0.196557
C  -2.738571  -0.704063  -0.148696
H  -4.571877   0.202371   0.194377
H  -4.435702   0.823310  -0.552691
H  -3.865673   1.020773   1.210119
C  -1.320722   0.166433  -0.240196
H  -2.861069  -1.191776  -0.969231
H  -2.485648  -1.381824   0.872523
C  -0.161599  -0.664056   0.210727
H  -1.603644   0.704096   0.589536
H  -0.884868   0.834574  -1.113430
H  -0.470626  -1.115374   1.007469
H   0.818692   0.076781   0.656742
H   0.129440  -1.520357  -0.737193
