butane_opt
 OpenBabel08242015393D

 14 11  0  0  0  0  0  0  0  0999 V2000
   -3.9987    0.3193    0.1425 C   0  0  0  0  0  0  0  0  0  0  0  0
   -2.7362   -0.7079   -0.1475 C   0  0  0  0  0  0  0  0  0  0  0  0
   -4.7798   -0.0787   -0.0421 H   0  0  0  0  0  0  0  0  0  0  0  0
   -4.2213    0.5918   -0.5884 H   0  0  0  0  0  0  0  0  0  0  0  0
   -3.9662    1.2693    1.1742 H   0  0  0  0  0  0  0  0  0  0  0  0
   -1.3196    0.1625   -0.0549 C   0  0  0  0  0  0  0  0  0  0  0  0
   -2.9325   -1.4522   -1.2040 H   0  0  0  0  0  0  0  0  0  0  0  0
   -2.4397   -1.1626    0.6264 H   0  0  0  0  0  0  0  0  0  0  0  0
   -0.1783   -0.6434    0.1216 C   0  0  0  0  0  0  0  0  0  0  0  0
   -1.2888    0.8113    0.7719 H   0  0  0  0  0  0  0  0  0  0  0  0
   -1.3662    0.6052   -0.8418 H   0  0  0  0  0  0  0  0  0  0  0  0
    0.0447   -2.0480    1.6066 H   0  0  0  0  0  0  0  0  0  0  0  0
    0.5512   -0.1043   -0.6158 H   0  0  0  0  0  0  0  0  0  0  0  0
    0.1236   -0.4364   -0.0971 H   0  0  0  0  0  0  0  0  0  0  0  0
  1  5  1  0  0  0  0
  2  6  1  0  0  0  0
  2  1  1  0  0  0  0
  2  8  1  0  0  0  0
  3  1  1  0  0  0  0
  4  1  1  0  0  0  0
  6  9  1  0  0  0  0
  6 10  1  0  0  0  0
  7  2  1  0  0  0  0
 11  6  1  0  0  0  0
 13  9  1  0  0  0  0
M  RAD  3   9   3  12   2  14   2
M  END
$$$$
