14
butane_opt
C  -3.943648   0.222283   0.073267
C  -2.758035  -0.558574  -0.111087
H  -4.972729  -0.449454   0.804136
H  -4.319465   1.115141  -0.995698
H  -3.553170   0.443161   0.756104
C  -1.341448   0.264687   0.002254
H  -2.863670  -1.436505  -0.934522
H  -2.708688  -0.873982   0.506575
C  -0.171612  -0.762091   0.156026
H  -1.397940   0.838946   0.781633
H  -1.476015   1.027541  -0.993118
H   0.150150  -1.320612   0.885107
H   0.634058  -0.411231  -0.159535
H   0.075589  -1.398930  -0.692272
