14
butane_opt
C  -3.936543   0.289984   0.139972
C  -2.648271  -0.627672  -0.068025
H  -5.013643  -0.325680  -0.573112
H  -3.754280   0.188735  -0.400307
H  -3.856265   1.761206   1.553602
C  -1.407437   0.087923  -0.187981
H  -2.739558  -0.999566  -0.896864
H  -2.437662  -1.401296   0.883883
C  -0.224911  -0.630719   0.194997
H  -1.619454   0.633065   0.564960
H  -1.448564   0.757132  -1.123743
H  -0.033636  -1.479284   1.187678
H   0.763278   0.006450  -0.087808
H  -0.312229  -1.048319  -0.515890
