butane_opt
 OpenBabel08242015393D

 14  8  0  0  0  0  0  0  0  0999 V2000
   -3.9102    0.2387   -0.0660 C   0  0  0  0  0  1  0  0  0  0  0  0
   -2.6903   -0.5742    0.0721 C   0  0  0  0  0  0  0  0  0  0  0  0
   -4.8378   -0.4824    0.6368 H   0  0  0  0  0  0  0  0  0  0  0  0
   -4.1120    1.4385   -1.3506 H   0  0  0  0  0  0  0  0  0  0  0  0
   -3.4723   -0.0828    0.2532 H   0  0  0  0  0  0  0  0  0  0  0  0
   -1.4215    0.2805    0.1260 C   0  0  0  0  0  0  0  0  0  0  0  0
   -2.8618   -1.0492   -0.7458 H   0  0  0  0  0  0  0  0  0  0  0  0
   -2.6974   -1.3827    1.0019 H   0  0  0  0  0  0  0  0  0  0  0  0
   -0.1780   -0.7376   -0.0362 C   0  0  0  0  0  0  0  0  0  0  0  0
   -1.3475    1.3686    1.1593 H   0  0  0  0  0  0  0  0  0  0  0  0
   -1.5039    0.5381   -0.3839 H   0  0  0  0  0  0  0  0  0  0  0  0
   -0.0202   -1.1849    0.7327 H   0  0  0  0  0  0  0  0  0  0  0  0
    0.4938   -0.4371    0.1120 H   0  0  0  0  0  0  0  0  0  0  0  0
   -0.2348   -1.7215   -1.2499 H   0  0  0  0  0  0  0  0  0  0  0  0
  1  3  1  0  0  0  0
  2  5  1  0  0  0  0
  2  8  1  0  0  0  0
  6 10  1  0  0  0  0
  7  2  1  0  0  0  0
  9 13  1  0  0  0  0
  9  6  1  0  0  0  0
  9 12  1  0  0  0  0
M  RAD  6   2   2   4   2   6   3   9   2  11   2  14   2
M  END
$$$$
