14
butane_opt
C  -4.065469   0.284736   0.134413
C  -2.681464  -0.657417   0.027718
H  -4.810701  -0.224528  -0.882921
H  -3.783417   0.389953  -0.516265
H  -4.220186   1.626859   1.249416
C  -1.397241   0.151098  -0.092027
H  -2.641454  -1.540352  -0.909250
H  -2.670597  -1.167285   0.876074
C  -0.121637  -0.617346   0.097502
H  -1.143640   0.385554   0.370996
H  -1.364349   1.028973  -1.161314
H  -0.119390  -1.524322   1.142908
H   0.790376  -0.127767  -0.010360
H   0.090088  -1.229803  -0.647431
