14
butane_opt
C  -3.972740   0.319376  -0.043983
C  -2.660142  -0.673059   0.102175
H  -4.774019  -0.095708   0.237935
H  -4.223944   1.391259  -1.325154
H  -3.988070   0.346700   0.304019
C  -1.356062   0.135691   0.140262
H  -2.837365  -1.470894  -0.862076
H  -2.622040  -1.111362   0.950503
C  -0.189292  -0.621325  -0.024022
H  -1.067186   0.884058   1.056222
H  -1.366906   0.542489  -0.621064
H  -0.043407  -1.158506   0.732148
H   0.617011  -0.182144  -0.246135
H  -0.571478  -1.525509  -0.968701
