butane_opt
 OpenBabel08242015393D

 14 10  0  0  0  0  0  0  0  0999 V2000
   -4.0238    0.3090   -0.0081 C   0  0  0  0  0  0  0  0  0  0  0  0
   -2.6899   -0.6215    0.1100 C   0  0  0  0  0  0  0  0  0  0  0  0
   -4.8227   -0.3288    0.2444 H   0  0  0  0  0  0  0  0  0  0  0  0
   -3.9544    1.1269   -1.0599 H   0  0  0  0  0  0  0  0  0  0  0  0
   -4.3078    0.6347    0.6437 H   0  0  0  0  0  0  0  0  0  0  0  0
   -1.3472    0.1439    0.0039 C   0  0  0  0  0  0  0  0  0  0  0  0
   -2.5157   -1.1385   -0.6434 H   0  0  0  0  0  0  0  0  0  0  0  0
   -2.7964   -1.4692    1.2244 H   0  0  0  0  0  0  0  0  0  0  0  0
   -0.1377   -0.6610    0.0094 C   0  0  0  0  0  1  0  0  0  0  0  0
   -1.3477    0.4827    0.7215 H   0  0  0  0  0  0  0  0  0  0  0  0
   -1.1175    0.7975   -0.8374 H   0  0  0  0  0  0  0  0  0  0  0  0
   -0.4027   -0.4384    0.3017 H   0  0  0  0  0  0  0  0  0  0  0  0
    0.7141   -0.0753    0.7294 H   0  0  0  0  0  0  0  0  0  0  0  0
   -0.0593   -2.1098   -1.3637 H   0  0  0  0  0  0  0  0  0  0  0  0
  1  2  1  0  0  0  0
  1  3  1  0  0  0  0
  1  5  1  0  0  0  0
  2  8  1  0  0  0  0
  4  1  1  0  0  0  0
  6 12  1  0  0  0  0
  6 10  1  0  0  0  0
  7  2  1  0  0  0  0
  9 13  1  0  0  0  0
 11  6  1  0  0  0  0
M  RAD  3   2   2   6   2  14   2
M  END
$$$$
