butane_opt
 OpenBabel08242015393D

 14  9  0  0  0  0  0  0  0  0999 V2000
   -4.0200    0.2870    0.1054 C   0  0  0  0  0  0  0  0  0  0  0  0
   -2.6823   -0.6049   -0.0831 C   0  0  0  0  0  0  0  0  0  0  0  0
   -4.9826   -0.3204   -0.0115 H   0  0  0  0  0  0  0  0  0  0  0  0
   -3.9983    0.5911   -0.6200 H   0  0  0  0  0  0  0  0  0  0  0  0
   -4.0836    1.1486    1.1739 H   0  0  0  0  0  0  0  0  0  0  0  0
   -1.3369    0.1362   -0.0416 C   0  0  0  0  0  0  0  0  0  0  0  0
   -2.8847   -1.6570   -1.3787 H   0  0  0  0  0  0  0  0  0  0  0  0
   -2.8126   -0.8378    0.5341 H   0  0  0  0  0  0  0  0  0  0  0  0
   -0.1264   -0.6811    0.1328 C   0  0  0  0  0  1  0  0  0  0  0  0
   -1.0756    0.8332    0.9345 H   0  0  0  0  0  0  0  0  0  0  0  0
   -1.4527    0.9556   -1.0423 H   0  0  0  0  0  0  0  0  0  0  0  0
    0.1139   -2.0265    1.5199 H   0  0  0  0  0  0  0  0  0  0  0  0
    0.6743   -0.2263   -0.8010 H   0  0  0  0  0  0  0  0  0  0  0  0
   -0.5044   -0.5818   -0.0849 H   0  0  0  0  0  0  0  0  0  0  0  0
  1  5  1  0  0  0  0
  2  1  1  0  0  0  0
  2  8  1  0  0  0  0
  3  1  1  0  0  0  0
  4  1  1  0  0  0  0
  6 10  1  0  0  0  0
 11  6  1  0  0  0  0
 13  9  1  0  0  0  0
 14  6  1  0  0  0  0
M  RAD  4   2   3   6   2   7   2  12   2
M  END
$$$$
