14
butane_opt
C  -3.901930   0.333782   0.043298
C  -2.667875  -0.703821  -0.077016
H  -4.860158  -0.185894   0.332744
H  -3.963543   0.950685  -0.848848
H  -4.014799   0.874825   0.943830
C  -1.430867   0.108625   0.069729
H  -2.618421  -1.429687  -0.987360
H  -2.398720  -1.062034   0.739413
C  -0.193472  -0.602715   0.079937
H  -1.528928   0.558552   0.768056
H  -1.452556   0.869191  -0.951796
H  -0.154257  -1.630101   1.195486
H   0.928202   0.125176  -0.385860
H  -0.663900  -1.140056  -0.720961
