14
butane_opt
C  -3.963357   0.307148   0.067136
C  -2.615541  -0.645044  -0.022280
H  -4.693520  -0.010523  -0.034989
H  -4.119883   0.752425  -0.673346
H  -3.700635   1.030449   0.942806
C  -1.423892   0.088844  -0.044283
H  -2.751741  -1.235606  -0.772720
H  -2.507194  -1.433558   1.035174
C  -0.221166  -0.650258   0.071708
H  -1.395956   0.597383   0.765877
H  -1.331743   0.845835  -1.126953
H  -0.693944  -1.063002   0.938635
H   1.007789   0.211411   0.439784
H  -0.207230  -1.331611  -0.972682
