butane_opt
 OpenBabel08242015393D

 14  9  0  0  0  0  0  0  0  0999 V2000
   -3.9026    0.2318    0.0813 C   0  0  0  0  0  0  0  0  0  0  0  0
   -2.6933   -0.5275   -0.0235 C   0  0  0  0  0  0  0  0  0  0  0  0
   -4.8801   -0.5501   -0.3486 H   0  0  0  0  0  0  0  0  0  0  0  0
   -3.5938    0.2867   -0.5574 H   0  0  0  0  0  0  0  0  0  0  0  0
   -3.9428    1.3663    1.3266 H   0  0  0  0  0  0  0  0  0  0  0  0
   -1.3842    0.1767   -0.0369 C   0  0  0  0  0  0  0  0  0  0  0  0
   -2.6284   -1.1289   -0.7212 H   0  0  0  0  0  0  0  0  0  0  0  0
   -2.8377   -1.0713    0.7403 H   0  0  0  0  0  0  0  0  0  0  0  0
   -0.2360   -0.7388    0.0958 C   0  0  0  0  0  0  0  0  0  0  0  0
   -1.4927    0.6253    0.5141 H   0  0  0  0  0  0  0  0  0  0  0  0
   -1.5740    1.1749   -1.2328 H   0  0  0  0  0  0  0  0  0  0  0  0
   -0.0114   -1.5130    1.1514 H   0  0  0  0  0  0  0  0  0  0  0  0
    0.7485   -0.0560   -0.1011 H   0  0  0  0  0  0  0  0  0  0  0  0
   -0.2261   -1.3249   -0.6222 H   0  0  0  0  0  0  0  0  0  0  0  0
  2  8  1  0  0  0  0
  3  1  1  0  0  0  0
  4  1  1  0  0  0  0
  6  9  1  0  0  0  0
  6 10  1  0  0  0  0
  7  2  1  0  0  0  0
  9 12  1  0  0  0  0
 13  9  1  0  0  0  0
 14  9  1  0  0  0  0
M  RAD  5   1   3   2   3   5   2   6   3  11   2
M  END
$$$$
