14
butane_opt
C  -3.904097   0.302729   0.140507
C  -2.699640  -0.645079  -0.046437
H  -4.744307  -0.231673  -0.267872
H  -3.959530   0.233070  -0.275067
H  -3.980932   1.529672   1.410679
C  -1.448490   0.157624  -0.202544
H  -2.637452  -1.534130  -0.988938
H  -2.480623  -1.160748   0.793279
C  -0.140793  -0.655889   0.187187
H  -1.780861   0.325856   0.359046
H  -1.196079   0.962492  -1.302000
H  -0.395634  -1.277462   1.075932
H   0.873383   0.027245   0.281617
H  -0.409760  -1.224309  -0.521917
