butane_opt
 OpenBabel08242015393D

 14 12  0  0  0  0  0  0  0  0999 V2000
   -3.8867    0.2077   -0.0328 C   0  0  0  0  0  0  0  0  0  0  0  0
   -2.7652   -0.5728    0.0274 C   0  0  0  0  0  0  0  0  0  0  0  0
   -4.7028   -0.4148   -0.0278 H   0  0  0  0  0  0  0  0  0  0  0  0
   -3.8669    0.4599   -0.7142 H   0  0  0  0  0  0  0  0  0  0  0  0
   -3.9445    1.1651    1.0881 H   0  0  0  0  0  0  0  0  0  0  0  0
   -1.4560    0.2732    0.0895 C   0  0  0  0  0  0  0  0  0  0  0  0
   -2.8411   -1.1983   -0.9055 H   0  0  0  0  0  0  0  0  0  0  0  0
   -2.8670   -1.0089    0.7173 H   0  0  0  0  0  0  0  0  0  0  0  0
   -0.1016   -0.7416    0.0257 C   0  0  0  0  0  0  0  0  0  0  0  0
   -1.4167    0.7738    0.9361 H   0  0  0  0  0  0  0  0  0  0  0  0
   -1.4017    0.9243   -0.8989 H   0  0  0  0  0  0  0  0  0  0  0  0
    0.3519   -1.7938    1.3108 H   0  0  0  0  0  0  0  0  0  0  0  0
    0.5863   -0.4469   -0.7462 H   0  0  0  0  0  0  0  0  0  0  0  0
   -0.3889   -0.9384   -0.5422 H   0  0  0  0  0  0  0  0  0  0  0  0
  1  3  1  0  0  0  0
  1  2  1  0  0  0  0
  1  5  1  0  0  0  0
  2  6  1  0  0  0  0
  2  8  1  0  0  0  0
  4  1  1  0  0  0  0
  6 10  1  0  0  0  0
  7  2  1  0  0  0  0
  9  6  1  0  0  0  0
 11  6  1  0  0  0  0
 13  9  1  0  0  0  0
 14  9  1  0  0  0  0
M  RAD  2   9   2  12   2
M  END
$$$$
