butane_opt
 OpenBabel08242015393D

 14 13  0  0  0  0  0  0  0  0999 V2000
   -3.8876    0.2304   -0.1399 C   0  0  0  0  0  0  0  0  0  0  0  0
   -2.7204   -0.5631    0.1410 C   0  0  0  0  0  0  0  0  0  0  0  0
   -4.9138   -0.5252   -0.0497 H   0  0  0  0  0  0  0  0  0  0  0  0
   -3.5449    1.0355   -1.2576 H   0  0  0  0  0  0  0  0  0  0  0  0
   -4.0615    0.6979    0.5166 H   0  0  0  0  0  0  0  0  0  0  0  0
   -1.4732    0.2450    0.2815 C   0  0  0  0  0  0  0  0  0  0  0  0
   -2.4445   -1.1748   -0.5384 H   0  0  0  0  0  0  0  0  0  0  0  0
   -2.6572   -1.3905    1.0674 H   0  0  0  0  0  0  0  0  0  0  0  0
   -0.1572   -0.6979   -0.1132 C   0  0  0  0  0  0  0  0  0  0  0  0
   -1.3607    0.8696    1.1830 H   0  0  0  0  0  0  0  0  0  0  0  0
   -1.5410    0.6462   -0.4062 H   0  0  0  0  0  0  0  0  0  0  0  0
    0.3281   -1.6397    0.7495 H   0  0  0  0  0  0  0  0  0  0  0  0
    0.6765   -0.2349   -0.8147 H   0  0  0  0  0  0  0  0  0  0  0  0
   -0.6306   -1.3043   -1.0407 H   0  0  0  0  0  0  0  0  0  0  0  0
  1  3  1  0  0  0  0
  1  2  1  0  0  0  0
  1  5  1  0  0  0  0
  2  6  1  0  0  0  0
  2  8  1  0  0  0  0
  4  1  1  0  0  0  0
  6 10  1  0  0  0  0
  7  2  1  0  0  0  0
  9  6  1  0  0  0  0
  9 12  1  0  0  0  0
 11  6  1  0  0  0  0
 13  9  1  0  0  0  0
 14  9  1  0  0  0  0
M  END
$$$$
