14
butane_opt
C  -3.985542   0.327280   0.187751
C  -2.697602  -0.700845  -0.093379
H  -4.779244  -0.203686   0.249206
H  -4.195193   0.760920  -0.692680
H  -3.823577   1.176147   1.111400
C  -1.411677   0.133332  -0.187304
H  -2.890063  -1.642447  -1.173040
H  -2.351360  -1.009795   0.637538
C  -0.156145  -0.679392   0.202392
H  -1.370659   0.510550   0.392392
H  -1.326919   1.029276  -1.299591
H  -0.640629  -0.920736   0.990593
H   0.986569   0.094310   0.446374
H   0.345544  -1.195934  -0.547475
