14
butane_opt
C  -3.840630   0.195892   0.121924
C  -2.747168  -0.578881  -0.030989
H  -4.648690  -0.334458  -0.502066
H  -3.357892   0.117382  -0.360324
H  -3.981666   1.602580   1.384055
C  -1.465366   0.272011  -0.095854
H  -2.893391  -1.116216  -0.988620
H  -2.765235  -1.069800   0.799958
C  -0.180342  -0.733978   0.138511
H  -1.954814   0.601879   0.428593
H  -1.240777   1.137125  -1.201511
H   0.048304  -1.788172   1.253199
H   0.742092  -0.246282  -0.267839
H  -0.198032  -1.247969  -0.607104
