14
butane_opt
C  -3.873316   0.308973   0.063423
C  -2.678132  -0.648552  -0.146983
H  -4.702445  -0.312489   0.955800
H  -4.545108   1.170560  -0.925371
H  -3.622908   0.814285   0.922871
C  -1.369208   0.133748  -0.029254
H  -2.836570  -1.482939  -0.977918
H  -2.620723  -1.383558   0.717529
C  -0.232561  -0.683079   0.111647
H  -1.504340   1.002043   0.952287
H  -1.495951   0.771993  -0.945198
H  -0.345712  -1.295991   1.079905
H   0.773299   0.061174   0.107062
H  -0.286327  -1.086569  -0.427865
