butane_opt
 OpenBabel08242015393D

 14 10  0  0  0  0  0  0  0  0999 V2000
   -3.9315    0.3434   -0.0821 C   0  0  0  0  0  0  0  0  0  0  0  0
   -2.6814   -0.6452    0.1910 C   0  0  0  0  0  0  0  0  0  0  0  0
   -4.6255   -0.1618   -0.0630 H   0  0  0  0  0  0  0  0  0  0  0  0
   -4.0357    1.0692   -1.0828 H   0  0  0  0  0  0  0  0  0  0  0  0
   -3.9618    0.6365    0.5579 H   0  0  0  0  0  0  0  0  0  0  0  0
   -1.4122    0.0585    0.0969 C   0  0  0  0  0  0  0  0  0  0  0  0
   -2.3655   -1.1584   -0.4641 H   0  0  0  0  0  0  0  0  0  0  0  0
   -2.9209   -1.3889    1.1979 H   0  0  0  0  0  0  0  0  0  0  0  0
   -0.1898   -0.6137   -0.0881 C   0  0  0  0  0  1  0  0  0  0  0  0
   -1.1152    0.4899    1.0277 H   0  0  0  0  0  0  0  0  0  0  0  0
   -1.3599    0.8337   -0.8877 H   0  0  0  0  0  0  0  0  0  0  0  0
   -0.5821   -0.5880    0.3950 H   0  0  0  0  0  0  0  0  0  0  0  0
    0.7521    0.0839    0.5649 H   0  0  0  0  0  0  0  0  0  0  0  0
   -0.2654   -1.9729   -1.3083 H   0  0  0  0  0  0  0  0  0  0  0  0
  1  3  1  0  0  0  0
  1  2  1  0  0  0  0
  1  5  1  0  0  0  0
  2  8  1  0  0  0  0
  4  1  1  0  0  0  0
  6 12  1  0  0  0  0
  6 10  1  0  0  0  0
  7  2  1  0  0  0  0
  9 13  1  0  0  0  0
 11  6  1  0  0  0  0
M  RAD  3   2   2   6   2  14   2
M  END
$$$$
