14
butane_opt
C  -3.949690   0.319767  -0.131625
C  -2.688545  -0.630103   0.181006
H  -4.717604  -0.138553   0.047437
H  -3.887799   0.821921  -0.924477
H  -3.985569   1.025973   0.816075
C  -1.392616   0.099490   0.094103
H  -2.552047  -1.022204  -0.330837
H  -2.998095  -1.646727   1.293153
C  -0.188765  -0.633158  -0.105287
H  -1.375135   0.637236   0.931510
H  -1.334501   0.578789  -0.617913
H  -0.455205  -0.853089   0.488553
H   0.888458   0.052123   0.398571
H  -0.034399  -1.731699  -1.159420
