14
butane_opt
C  -3.854505   0.199766  -0.050412
C  -2.680953  -0.555996   0.209336
H  -4.845344  -0.434501   0.116738
H  -3.684383   1.183350  -1.337309
H  -3.981495   0.724317   0.629559
C  -1.435108   0.260593   0.058858
H  -2.757812  -1.334006  -0.703491
H  -3.115093  -1.307553   1.121909
C  -0.158650  -0.753174  -0.060413
H  -1.411816   0.930732   0.834712
H  -1.706752   0.984313  -0.867208
H  -0.581832  -0.770341   0.468658
H   0.596544  -0.158658   0.574415
H   0.060608  -2.136860  -1.353867
