14
butane_opt
C  -3.917640   0.311413   0.187000
C  -2.664763  -0.656184  -0.089084
H  -4.815335  -0.338265  -0.702878
H  -3.840626   0.363921  -0.293739
H  -4.378430   1.786217   1.523101
C  -1.455416   0.039091  -0.198052
H  -2.580432  -1.209312  -0.886836
H  -2.548644  -1.337018   0.904163
C  -0.187003  -0.610100   0.201596
H  -1.494745   0.700370   0.661185
H  -1.105072   0.955767  -1.309004
H  -0.455240  -1.521272   1.183454
H   1.023717   0.184214  -0.246478
H  -0.143650  -1.067141  -0.543982
