butane_opt
 OpenBabel08242015393D

 14  9  0  0  0  0  0  0  0  0999 V2000
   -4.0024    0.2748    0.1615 C   0  0  0  0  0  0  0  0  0  0  0  0
   -2.7628   -0.6033   -0.1806 C   0  0  0  0  0  0  0  0  0  0  0  0
   -4.7743   -0.2376    0.1233 H   0  0  0  0  0  0  0  0  0  0  0  0
   -4.3102    0.7808   -0.6538 H   0  0  0  0  0  0  0  0  0  0  0  0
   -3.9957    1.1897    1.2245 H   0  0  0  0  0  0  0  0  0  0  0  0
   -1.3290    0.1423   -0.0631 C   0  0  0  0  0  0  0  0  0  0  0  0
   -2.7640   -1.5958   -1.1950 H   0  0  0  0  0  0  0  0  0  0  0  0
   -2.6496   -1.1387    0.5362 H   0  0  0  0  0  0  0  0  0  0  0  0
   -0.1384   -0.7070    0.2280 C   0  0  0  0  0 15  0  0  0  0  0  0
   -1.3774    0.8716    0.6713 H   0  0  0  0  0  0  0  0  0  0  0  0
   -1.1083    0.8838   -1.1777 H   0  0  0  0  0  0  0  0  0  0  0  0
    0.2478   -1.6929    1.3412 H   0  0  0  0  0  0  0  0  0  0  0  0
    0.8915   -0.1282   -0.7867 H   0  0  0  0  0  0  0  0  0  0  0  0
   -0.3856   -0.6376   -0.3158 H   0  0  0  0  0  0  0  0  0  0  0  0
  1  5  1  0  0  0  0
  2  1  1  0  0  0  0
  2  8  1  0  0  0  0
  3  1  1  0  0  0  0
  4  1  1  0  0  0  0
  6 10  1  0  0  0  0
  7  2  1  0  0  0  0
 11  6  1  0  0  0  0
 14  6  1  0  0  0  0
M  RAD  4   2   2   6   2  12   2  13   2
M  END
$$$$
