butane_opt
 OpenBabel08242015393D

 14  9  0  0  0  0  0  0  0  0999 V2000
   -3.9197    0.1935    0.1578 C   0  0  0  0  0  0  0  0  0  0  0  0
   -2.7432   -0.5282    0.0127 C   0  0  0  0  0  1  0  0  0  0  0  0
   -4.8968   -0.4264   -0.8136 H   0  0  0  0  0  0  0  0  0  0  0  0
   -3.5604    0.0572   -0.3996 H   0  0  0  0  0  0  0  0  0  0  0  0
   -4.3322    1.5158    1.3414 H   0  0  0  0  0  0  0  0  0  0  0  0
   -1.4511    0.2755   -0.1724 C   0  0  0  0  0  0  0  0  0  0  0  0
   -2.8837   -1.4805   -1.1038 H   0  0  0  0  0  0  0  0  0  0  0  0
   -2.5029   -1.1515    0.8542 H   0  0  0  0  0  0  0  0  0  0  0  0
   -0.0823   -0.7551    0.1567 C   0  0  0  0  0  0  0  0  0  0  0  0
   -1.4750    0.8152    0.4143 H   0  0  0  0  0  0  0  0  0  0  0  0
   -1.4705    1.0873   -1.2732 H   0  0  0  0  0  0  0  0  0  0  0  0
   -0.0059   -1.6727    1.1909 H   0  0  0  0  0  0  0  0  0  0  0  0
    0.8159   -0.2665   -0.0356 H   0  0  0  0  0  0  0  0  0  0  0  0
   -0.2933   -1.2109   -0.4653 H   0  0  0  0  0  0  0  0  0  0  0  0
  2  8  1  0  0  0  0
  3  1  1  0  0  0  0
  4  1  1  0  0  0  0
  6  9  1  0  0  0  0
  6 10  1  0  0  0  0
  9 12  1  0  0  0  0
 11  6  1  0  0  0  0
 13  9  1  0  0  0  0
 14  9  1  0  0  0  0
M  RAD  4   1   3   5   2   6   2   7   2
M  END
$$$$
