butane_opt
 OpenBabel08242015393D

 14 13  0  0  0  0  0  0  0  0999 V2000
   -3.8808    0.2282    0.1119 C   0  0  0  0  0  0  0  0  0  0  0  0
   -2.6827   -0.5461    0.0223 C   0  0  0  0  0  0  0  0  0  0  0  0
   -4.9007   -0.3212   -0.0085 H   0  0  0  0  0  0  0  0  0  0  0  0
   -3.9003    0.5223   -0.4927 H   0  0  0  0  0  0  0  0  0  0  0  0
   -3.9058    1.0774    1.1514 H   0  0  0  0  0  0  0  0  0  0  0  0
   -1.4661    0.1849   -0.2008 C   0  0  0  0  0  0  0  0  0  0  0  0
   -2.9236   -1.4297   -0.9534 H   0  0  0  0  0  0  0  0  0  0  0  0
   -2.7213   -1.0117    0.8091 H   0  0  0  0  0  0  0  0  0  0  0  0
   -0.1111   -0.6969    0.1283 C   0  0  0  0  0  0  0  0  0  0  0  0
   -1.7505    0.4504    0.5194 H   0  0  0  0  0  0  0  0  0  0  0  0
   -1.4482    0.9276   -1.1837 H   0  0  0  0  0  0  0  0  0  0  0  0
   -0.5316   -1.0547    0.8910 H   0  0  0  0  0  0  0  0  0  0  0  0
    0.6563   -0.2318    0.8060 H   0  0  0  0  0  0  0  0  0  0  0  0
    0.1051   -1.4628   -0.8280 H   0  0  0  0  0  0  0  0  0  0  0  0
  1  5  1  0  0  0  0
  2  1  1  0  0  0  0
  2  8  1  0  0  0  0
  3  1  1  0  0  0  0
  4  1  1  0  0  0  0
  6  2  1  0  0  0  0
  6  9  1  0  0  0  0
  6 10  1  0  0  0  0
  7  2  1  0  0  0  0
  9 13  1  0  0  0  0
  9 12  1  0  0  0  0
 11  6  1  0  0  0  0
 14  9  1  0  0  0  0
M  END
$$$$
