butane_opt
 OpenBabel08242015393D

 14 13  0  0  0  0  0  0  0  0999 V2000
   -3.9798    0.2283    0.2017 C   0  0  0  0  0  0  0  0  0  0  0  0
   -2.6655   -0.5660   -0.1764 C   0  0  0  0  0  0  0  0  0  0  0  0
   -4.9744   -0.4541    0.8023 H   0  0  0  0  0  0  0  0  0  0  0  0
   -4.2025    0.8411   -0.7119 H   0  0  0  0  0  0  0  0  0  0  0  0
   -3.3002    0.7029    0.9853 H   0  0  0  0  0  0  0  0  0  0  0  0
   -1.4164    0.2140   -0.2175 C   0  0  0  0  0  0  0  0  0  0  0  0
   -2.9758   -1.3389   -1.2788 H   0  0  0  0  0  0  0  0  0  0  0  0
   -2.5394   -0.9905    0.5247 H   0  0  0  0  0  0  0  0  0  0  0  0
   -0.1487   -0.7424    0.1897 C   0  0  0  0  0  0  0  0  0  0  0  0
   -1.5411    1.1762    0.7844 H   0  0  0  0  0  0  0  0  0  0  0  0
   -1.2923    0.8854   -1.1494 H   0  0  0  0  0  0  0  0  0  0  0  0
   -0.4891   -1.5260    1.4027 H   0  0  0  0  0  0  0  0  0  0  0  0
    0.6157   -0.2638    0.6081 H   0  0  0  0  0  0  0  0  0  0  0  0
    0.2179   -1.1634   -0.4761 H   0  0  0  0  0  0  0  0  0  0  0  0
  1  3  1  0  0  0  0
  1  5  1  0  0  0  0
  2  1  1  0  0  0  0
  2  8  1  0  0  0  0
  4  1  1  0  0  0  0
  6  2  1  0  0  0  0
  6  9  1  0  0  0  0
  6 10  1  0  0  0  0
  7  2  1  0  0  0  0
  9 13  1  0  0  0  0
  9 12  1  0  0  0  0
 11  6  1  0  0  0  0
 14  9  1  0  0  0  0
M  END
$$$$
