butane_opt
 OpenBabel08242015393D

 14 12  0  0  0  0  0  0  0  0999 V2000
   -4.0553    0.3604    0.1692 C   0  0  0  0  0  0  0  0  0  0  0  0
   -2.6900   -0.6955   -0.0432 C   0  0  0  0  0  0  0  0  0  0  0  0
   -4.7192   -0.0805   -0.0738 H   0  0  0  0  0  0  0  0  0  0  0  0
   -3.9067    0.6846   -0.6181 H   0  0  0  0  0  0  0  0  0  0  0  0
   -4.1361    1.0504    1.0695 H   0  0  0  0  0  0  0  0  0  0  0  0
   -1.3255    0.0915   -0.2160 C   0  0  0  0  0  0  0  0  0  0  0  0
   -3.0223   -1.3030   -0.8149 H   0  0  0  0  0  0  0  0  0  0  0  0
   -2.5760   -1.4773    0.8817 H   0  0  0  0  0  0  0  0  0  0  0  0
   -0.1752   -0.6040    0.1293 C   0  0  0  0  0  0  0  0  0  0  0  0
   -1.4718    0.7545    0.7192 H   0  0  0  0  0  0  0  0  0  0  0  0
   -0.9485    0.8237   -1.0903 H   0  0  0  0  0  0  0  0  0  0  0  0
   -0.6095   -0.9882    1.0488 H   0  0  0  0  0  0  0  0  0  0  0  0
    0.7501   -0.1350    0.6605 H   0  0  0  0  0  0  0  0  0  0  0  0
    0.4791   -1.5986   -0.8804 H   0  0  0  0  0  0  0  0  0  0  0  0
  1  5  1  0  0  0  0
  2  1  1  0  0  0  0
  2  8  1  0  0  0  0
  3  1  1  0  0  0  0
  4  1  1  0  0  0  0
  6  2  1  0  0  0  0
  6  9  1  0  0  0  0
  6 10  1  0  0  0  0
  7  2  1  0  0  0  0
  9 13  1  0  0  0  0
  9 12  1  0  0  0  0
 11  6  1  0  0  0  0
M  RAD  2   9   2  14   2
M  END
$$$$
