14
butane_opt
C  -3.884338   0.170014   0.149178
C  -2.695093  -0.534750  -0.193707
H  -4.742783  -0.478442   0.359585
H  -4.193109   0.576299  -0.597017
H  -3.904999   1.031094   1.218331
C  -1.491733   0.258968  -0.116680
H  -2.712574  -1.230932  -1.119192
H  -2.775660  -1.083424   0.634846
C  -0.136332  -0.765694   0.205458
H  -1.563745   1.187468   0.879335
H  -1.158008   1.007759  -0.964462
H   0.204520  -1.825623   1.495135
H   0.734557  -0.342477  -0.601315
H  -0.345243  -0.895277  -0.315330
