14
butane_opt
C  -4.055269   0.360429   0.169216
C  -2.689994  -0.695452  -0.043150
H  -4.719189  -0.080500  -0.073813
H  -3.906715   0.684647  -0.618124
H  -4.136121   1.050394   1.069499
C  -1.325455   0.091462  -0.215983
H  -3.022309  -1.302994  -0.814937
H  -2.576024  -1.477331   0.881749
C  -0.175180  -0.604019   0.129324
H  -1.471790   0.754527   0.719172
H  -0.948459   0.823745  -1.090344
H  -0.609494  -0.988191   1.048806
H   0.750098  -0.134959   0.660496
H   0.479069  -1.598618  -0.880396
