14
butane_opt
C  -4.021194   0.317032   0.098665
C  -2.648340  -0.746867  -0.041812
H  -5.004717  -0.168610  -0.274270
H  -4.158346   0.380896  -0.449536
H  -4.140520   1.644128   1.463746
C  -1.356978   0.190912  -0.104542
H  -2.657771  -1.541461  -1.004523
H  -2.827970  -1.076776   0.800081
C  -0.139383  -0.625369   0.147533
H  -1.388417   0.454512   0.477008
H  -1.105943   1.073442  -1.170308
H  -0.183456  -1.546161   1.315548
H   0.583492  -0.218315  -0.290457
H  -0.127459  -1.134691  -0.547964
