butane_opt
 OpenBabel08242015393D

 14 13  0  0  0  0  0  0  0  0999 V2000
   -3.9173    0.2254   -0.1101 C   0  0  0  0  0  0  0  0  0  0  0  0
   -2.7464   -0.5899    0.2148 C   0  0  0  0  0  0  0  0  0  0  0  0
   -5.0089   -0.5611   -0.6665 H   0  0  0  0  0  0  0  0  0  0  0  0
   -3.4838    0.3933   -0.7600 H   0  0  0  0  0  0  0  0  0  0  0  0
   -4.2836    1.1895    0.8658 H   0  0  0  0  0  0  0  0  0  0  0  0
   -1.4298    0.2806    0.1163 C   0  0  0  0  0  0  0  0  0  0  0  0
   -2.7177   -1.0844   -0.4501 H   0  0  0  0  0  0  0  0  0  0  0  0
   -2.7610   -1.3680    1.3133 H   0  0  0  0  0  0  0  0  0  0  0  0
   -0.1002   -0.7278   -0.1132 C   0  0  0  0  0  0  0  0  0  0  0  0
   -1.3325    1.0625    1.1123 H   0  0  0  0  0  0  0  0  0  0  0  0
   -1.7842    0.9103   -0.8177 H   0  0  0  0  0  0  0  0  0  0  0  0
   -0.0698   -1.6287    0.8490 H   0  0  0  0  0  0  0  0  0  0  0  0
    0.5126   -0.2292   -0.1865 H   0  0  0  0  0  0  0  0  0  0  0  0
    0.2338   -1.4855   -1.0818 H   0  0  0  0  0  0  0  0  0  0  0  0
  1  2  1  0  0  0  0
  1  5  1  0  0  0  0
  2  8  1  0  0  0  0
  3  1  1  0  0  0  0
  4  1  1  0  0  0  0
  6  2  1  0  0  0  0
  6 10  1  0  0  0  0
  7  2  1  0  0  0  0
  9  6  1  0  0  0  0
  9 12  1  0  0  0  0
 11  6  1  0  0  0  0
 13  9  1  0  0  0  0
 14  9  1  0  0  0  0
M  END
$$$$
