14
butane_opt
C  -3.917713   0.332196   0.159963
C  -2.675676  -0.642255  -0.233942
H  -4.831211  -0.248292   1.126644
H  -4.502919   0.997512  -0.737037
H  -3.359245   0.883211   0.962973
C  -1.423061   0.108044  -0.113401
H  -2.673058  -1.535649  -1.335516
H  -2.604552  -1.258941   0.649297
C  -0.215431  -0.660776   0.203573
H  -1.542208   0.738434   0.653631
H  -1.145018   0.628997  -1.057475
H  -0.507863  -1.444675   1.178893
H   0.989898   0.228934   0.117305
H  -0.102585  -1.022269  -0.282629
