14
butane_opt
C  -3.943173   0.259573   0.083981
C  -2.618927  -0.667173   0.058425
H  -4.720221  -0.295042  -0.690261
H  -3.532957   0.541469  -0.504768
H  -4.143355   1.410904   1.281313
C  -1.437617   0.201538  -0.062822
H  -2.391898  -1.417698  -0.828607
H  -2.695101  -1.018546   0.773875
C  -0.256619  -0.700537   0.065549
H  -1.284562   0.578315   0.699171
H  -1.338473   1.112675  -1.221236
H  -0.438347  -1.410315   1.092593
H   0.656037   0.019350  -0.145066
H  -0.067529  -1.129100  -0.698434
