14
butane_opt
C  -3.951822   0.271291   0.145277
C  -2.764251  -0.685354  -0.169603
H  -4.585091  -0.076034   0.872424
H  -4.478103   0.987731  -0.699713
H  -3.813770   0.897658   0.893515
C  -1.415481   0.193038  -0.104966
H  -2.861898  -1.694374  -1.190110
H  -2.430138  -0.883202   0.272818
C  -0.086208  -0.657415   0.193421
H  -1.484968   0.681388   0.701114
H  -1.241807   0.974129  -1.024159
H  -0.196147  -1.552615   1.360999
H   0.775343  -0.233402  -0.073406
H  -0.109482  -0.996480  -0.413512
