14
butane_opt
C  -4.058865   0.291729  -0.063272
C  -2.712396  -0.637658   0.201972
H  -4.860925  -0.203915  -0.078496
H  -3.985436   1.025286  -1.122130
H  -4.029302   0.846227   0.880544
C  -1.295322   0.128546   0.045050
H  -2.475789  -1.182821  -0.519432
H  -2.940750  -1.207442   0.864157
C  -0.158279  -0.658823  -0.037495
H  -1.246642   0.730970   0.847540
H  -1.372643   0.860821  -0.961753
H  -0.150853  -0.895522   0.518848
H   0.767457  -0.108917   0.527316
H  -0.063420  -1.806717  -1.289641
