14
butane_opt
C  -3.854448   0.244442  -0.105379
C  -2.751707  -0.586344   0.256228
H  -4.842561  -0.553579   0.164663
H  -3.635103   1.189388  -1.348836
H  -3.848078   0.615609   0.522815
C  -1.434480   0.221093   0.107094
H  -2.686575  -1.114229  -0.562881
H  -2.874495  -1.058219   1.113341
C  -0.188699  -0.755465  -0.127055
H  -1.527018   0.822584   0.956808
H  -1.658755   0.900585  -0.704909
H  -0.543193  -0.737693   0.394654
H   0.918956  -0.030309   0.614910
H   0.403570  -2.002172  -1.391117
