butane_opt
 OpenBabel08242015393D

 14 12  0  0  0  0  0  0  0  0999 V2000
   -3.9975    0.1969   -0.1271 C   0  0  0  0  0  0  0  0  0  0  0  0
   -2.7318   -0.5372    0.2641 C   0  0  0  0  0  0  0  0  0  0  0  0
   -5.1013   -0.4338   -0.9018 H   0  0  0  0  0  0  0  0  0  0  0  0
   -3.3992    0.5911   -0.9559 H   0  0  0  0  0  0  0  0  0  0  0  0
   -4.3916    1.1237    0.9261 H   0  0  0  0  0  0  0  0  0  0  0  0
   -1.4138    0.2893    0.1698 C   0  0  0  0  0  0  0  0  0  0  0  0
   -2.4533   -1.1099   -0.4992 H   0  0  0  0  0  0  0  0  0  0  0  0
   -2.9502   -1.5615    1.4371 H   0  0  0  0  0  0  0  0  0  0  0  0
   -0.0912   -0.7715   -0.0993 C   0  0  0  0  0  0  0  0  0  0  0  0
   -1.4203    0.8632    0.9691 H   0  0  0  0  0  0  0  0  0  0  0  0
   -1.4615    0.8761   -0.9005 H   0  0  0  0  0  0  0  0  0  0  0  0
    0.2875   -1.1394    0.4893 H   0  0  0  0  0  0  0  0  0  0  0  0
    0.9093   -0.1523   -0.4028 H   0  0  0  0  0  0  0  0  0  0  0  0
   -0.2134   -1.6622   -1.2142 H   0  0  0  0  0  0  0  0  0  0  0  0
  1  2  1  0  0  0  0
  1  5  1  0  0  0  0
  3  1  1  0  0  0  0
  4  1  1  0  0  0  0
  6  2  1  0  0  0  0
  6 10  1  0  0  0  0
  7  2  1  0  0  0  0
  9  6  1  0  0  0  0
  9 12  1  0  0  0  0
 11  6  1  0  0  0  0
 13  9  1  0  0  0  0
 14  9  1  0  0  0  0
M  RAD  2   2   2   8   2
M  END
$$$$
