14
butane_opt
C  -3.976420   0.339804   0.030438
C  -2.629002  -0.697683  -0.049321
H  -4.974865  -0.326710   0.073930
H  -3.970082   0.741362  -0.599302
H  -4.051865   1.298342   1.007320
C  -1.418028   0.100874   0.007088
H  -2.637959  -1.332978  -1.051057
H  -2.654757  -1.245096   0.778600
C  -0.192717  -0.611436   0.087480
H  -1.157617   0.814499   0.871845
H  -1.621931   0.429973  -0.628458
H   0.060178  -1.879335   1.363741
H   0.928301   0.158565  -0.754927
H  -0.397017  -0.668618  -0.402568
