butane_opt
 OpenBabel08242015393D

 14 13  0  0  0  0  0  0  0  0999 V2000
   -3.9402    0.2781   -0.1555 C   0  0  0  0  0  0  0  0  0  0  0  0
   -2.6793   -0.6213    0.1933 C   0  0  0  0  0  0  0  0  0  0  0  0
   -4.7006   -0.1957   -0.2346 H   0  0  0  0  0  0  0  0  0  0  0  0
   -4.0206    1.1925   -1.3467 H   0  0  0  0  0  0  0  0  0  0  0  0
   -4.1713    0.7520    0.4617 H   0  0  0  0  0  0  0  0  0  0  0  0
   -1.4431    0.0737    0.3243 C   0  0  0  0  0  0  0  0  0  0  0  0
   -2.4700   -1.2921   -0.6724 H   0  0  0  0  0  0  0  0  0  0  0  0
   -2.7968   -1.2896    1.1591 H   0  0  0  0  0  0  0  0  0  0  0  0
   -0.1393   -0.6413   -0.1641 C   0  0  0  0  0  0  0  0  0  0  0  0
   -1.4103    1.0551    1.2591 H   0  0  0  0  0  0  0  0  0  0  0  0
   -1.1990    0.7031   -0.5889 H   0  0  0  0  0  0  0  0  0  0  0  0
    0.2045   -1.3456    0.7954 H   0  0  0  0  0  0  0  0  0  0  0  0
    0.8928   -0.0965   -0.8663 H   0  0  0  0  0  0  0  0  0  0  0  0
   -0.9078   -1.0077   -0.9364 H   0  0  0  0  0  0  0  0  0  0  0  0
  1  2  1  0  0  0  0
  1  5  1  0  0  0  0
  2  6  1  0  0  0  0
  2  8  1  0  0  0  0
  3  1  1  0  0  0  0
  4  1  1  0  0  0  0
  6 10  1  0  0  0  0
  7  2  1  0  0  0  0
  9  6  1  0  0  0  0
  9 12  1  0  0  0  0
 11  6  1  0  0  0  0
 13  9  1  0  0  0  0
 14  9  1  0  0  0  0
M  END
$$$$
