butane_opt
 OpenBabel08242015393D

 14 11  0  0  0  0  0  0  0  0999 V2000
   -3.8674    0.2203    0.1805 C   0  0  0  0  0  0  0  0  0  0  0  0
   -2.7178   -0.5505   -0.0509 C   0  0  0  0  0  0  0  0  0  0  0  0
   -5.1353   -0.5773   -0.2030 H   0  0  0  0  0  0  0  0  0  0  0  0
   -3.9344    0.4044   -0.3720 H   0  0  0  0  0  0  0  0  0  0  0  0
   -3.6466    1.1329    1.2673 H   0  0  0  0  0  0  0  0  0  0  0  0
   -1.4762    0.2229   -0.2553 C   0  0  0  0  0  0  0  0  0  0  0  0
   -2.6727   -1.2652   -0.9508 H   0  0  0  0  0  0  0  0  0  0  0  0
   -2.3744   -1.0755    0.6561 H   0  0  0  0  0  0  0  0  0  0  0  0
   -0.1661   -0.7485    0.2120 C   0  0  0  0  0  0  0  0  0  0  0  0
   -1.3725    0.8489    0.4254 H   0  0  0  0  0  0  0  0  0  0  0  0
   -1.6308    1.1363   -1.3467 H   0  0  0  0  0  0  0  0  0  0  0  0
   -0.4944   -1.2198    0.9979 H   0  0  0  0  0  0  0  0  0  0  0  0
    0.6886   -0.2089    0.6681 H   0  0  0  0  0  0  0  0  0  0  0  0
    0.3222   -1.4697   -0.7007 H   0  0  0  0  0  0  0  0  0  0  0  0
  1  5  1  0  0  0  0
  2  1  1  0  0  0  0
  2  8  1  0  0  0  0
  6  2  1  0  0  0  0
  6  9  1  0  0  0  0
  6 10  1  0  0  0  0
  7  2  1  0  0  0  0
  9 13  1  0  0  0  0
  9 12  1  0  0  0  0
 11  6  1  0  0  0  0
 14  9  1  0  0  0  0
M  RAD  3   1   3   3   2   4   2
M  END
$$$$
