14
butane_opt
C  -3.915426   0.196360   0.062022
C  -2.763274  -0.505859  -0.068020
H  -4.826449  -0.479046   0.327867
H  -3.965212   0.977675  -0.884954
H  -3.826094   0.854517   0.849879
C  -1.390561   0.200555  -0.016785
H  -3.147079  -1.337543  -1.113410
H  -2.623545  -1.067664   0.875101
C  -0.133904  -0.769198   0.096228
H  -1.548527   1.334155   1.051968
H  -1.516766   0.600585  -0.807759
H   0.161134  -1.773319   1.084270
H   0.889873  -0.206645  -0.432011
H  -0.164747  -0.814927  -0.361078
