14
butane_opt
C  -4.067775   0.333790   0.151895
C  -2.666320  -0.671438  -0.198660
H  -5.000408  -0.217225   0.847206
H  -4.618278   0.920350  -0.759261
H  -3.387448   0.704713   0.952597
C  -1.324867   0.162572  -0.128841
H  -2.716710  -1.504745  -1.134922
H  -2.793792  -1.134159   0.701896
C  -0.126230  -0.669277   0.197238
H  -1.326665   0.852708   0.813350
H  -1.133439   0.813994  -1.120626
H  -0.311943  -1.549469   1.310993
H   0.699056  -0.021807   0.291769
H  -0.225045  -1.203048  -0.698229
