butane_opt
 OpenBabel08242015393D

 14 11  0  0  0  0  0  0  0  0999 V2000
   -4.0171    0.3189    0.0005 C   0  0  0  0  0  0  0  0  0  0  0  0
   -2.7319   -0.6419   -0.0076 C   0  0  0  0  0  0  0  0  0  0  0  0
   -4.8740   -0.3496    0.8445 H   0  0  0  0  0  0  0  0  0  0  0  0
   -4.3641    1.5706   -1.2837 H   0  0  0  0  0  0  0  0  0  0  0  0
   -3.7742    0.5902    0.4735 H   0  0  0  0  0  0  0  0  0  0  0  0
   -1.3599    0.0708    0.1245 C   0  0  0  0  0  0  0  0  0  0  0  0
   -2.6876   -1.5202   -0.9273 H   0  0  0  0  0  0  0  0  0  0  0  0
   -2.5128   -1.2169    0.6871 H   0  0  0  0  0  0  0  0  0  0  0  0
   -0.1700   -0.6239   -0.0068 C   0  0  0  0  0  0  0  0  0  0  0  0
   -1.0861    0.8236    0.9795 H   0  0  0  0  0  0  0  0  0  0  0  0
   -1.3314    0.8207   -0.9126 H   0  0  0  0  0  0  0  0  0  0  0  0
   -0.1604   -1.2151    0.9176 H   0  0  0  0  0  0  0  0  0  0  0  0
    0.9541    0.0562    0.1699 H   0  0  0  0  0  0  0  0  0  0  0  0
    0.1018   -1.4588   -0.8818 H   0  0  0  0  0  0  0  0  0  0  0  0
  1  3  1  0  0  0  0
  2  1  1  0  0  0  0
  2  6  1  0  0  0  0
  2  8  1  0  0  0  0
  6 10  1  0  0  0  0
  7  2  1  0  0  0  0
  9  6  1  0  0  0  0
  9 13  1  0  0  0  0
  9 12  1  0  0  0  0
 11  6  1  0  0  0  0
 14  9  1  0  0  0  0
M  RAD  3   1   3   4   2   5   2
M  END
$$$$
