14
butane_opt
C  -4.047133   0.370341   0.158940
C  -2.741463  -0.694794  -0.103933
H  -4.940412  -0.320896  -0.162966
H  -3.930326   0.761118  -0.649718
H  -4.145816   1.236025   1.212150
C  -1.320790   0.139977  -0.054021
H  -2.576101  -1.918293  -1.135242
H  -2.686999  -0.985688   0.487640
C  -0.098853  -0.632926   0.115084
H  -1.172953   0.482356   0.556558
H  -1.344124   0.740775  -0.981113
H  -0.122507  -2.011288   1.509909
H   0.785760   0.001287  -0.379836
H  -0.412990  -0.581930  -0.265311
