14
butane_opt
C  -4.011767   0.226761   0.115052
C  -2.699546  -0.578724  -0.164551
H  -4.753687  -0.239627   0.189720
H  -4.126697   0.623997  -0.552332
H  -3.940653   1.469388   1.340302
C  -1.385901   0.112325  -0.082194
H  -2.673676  -1.465997  -1.086322
H  -2.523703  -1.133057   0.769171
C  -0.122521  -0.676453   0.166078
H  -1.725495   0.997136   0.803715
H  -1.052694   0.817907  -0.945393
H   0.062744  -1.869392   1.442578
H   0.841855  -0.071711  -0.728374
H  -0.468016  -0.585434  -0.121400
