butane_opt
 OpenBabel08242015393D

 14 13  0  0  0  0  0  0  0  0999 V2000
   -3.9381    0.2578    0.0367 C   0  0  0  0  0  0  0  0  0  0  0  0
   -2.6943   -0.6046    0.0141 C   0  0  0  0  0  0  0  0  0  0  0  0
   -4.8453   -0.3224   -0.0501 H   0  0  0  0  0  0  0  0  0  0  0  0
   -3.9632    0.7848   -0.7953 H   0  0  0  0  0  0  0  0  0  0  0  0
   -3.9604    0.9698    0.9089 H   0  0  0  0  0  0  0  0  0  0  0  0
   -1.4122    0.1869   -0.0029 C   0  0  0  0  0  0  0  0  0  0  0  0
   -2.7457   -1.2777   -0.8183 H   0  0  0  0  0  0  0  0  0  0  0  0
   -2.7203   -1.2122    0.9137 H   0  0  0  0  0  0  0  0  0  0  0  0
   -0.1630   -0.6993    0.0447 C   0  0  0  0  0  0  0  0  0  0  0  0
   -1.3739    0.8630    0.8692 H   0  0  0  0  0  0  0  0  0  0  0  0
   -1.4328    0.8040   -0.8942 H   0  0  0  0  0  0  0  0  0  0  0  0
   -0.1195   -1.4123    1.0106 H   0  0  0  0  0  0  0  0  0  0  0  0
    0.7586   -0.0857   -0.0852 H   0  0  0  0  0  0  0  0  0  0  0  0
   -0.1344   -1.2695   -0.7199 H   0  0  0  0  0  0  0  0  0  0  0  0
  1  5  1  0  0  0  0
  2  1  1  0  0  0  0
  2  8  1  0  0  0  0
  3  1  1  0  0  0  0
  4  1  1  0  0  0  0
  6  2  1  0  0  0  0
  6  9  1  0  0  0  0
  6 10  1  0  0  0  0
  7  2  1  0  0  0  0
  9 12  1  0  0  0  0
 11  6  1  0  0  0  0
 13  9  1  0  0  0  0
 14  9  1  0  0  0  0
M  END
$$$$
