butane_opt
 OpenBabel08242015393D

 14 12  0  0  0  0  0  0  0  0999 V2000
   -3.8976    0.2410    0.1564 C   0  0  0  0  0  0  0  0  0  0  0  0
   -2.6535   -0.5725   -0.0382 C   0  0  0  0  0  0  0  0  0  0  0  0
   -4.9444   -0.5318   -0.0255 H   0  0  0  0  0  0  0  0  0  0  0  0
   -3.9368    0.3331   -0.4515 H   0  0  0  0  0  0  0  0  0  0  0  0
   -3.8105    1.1048    1.0299 H   0  0  0  0  0  0  0  0  0  0  0  0
   -1.4437    0.2457   -0.2140 C   0  0  0  0  0  0  0  0  0  0  0  0
   -2.7128   -1.0967   -0.9019 H   0  0  0  0  0  0  0  0  0  0  0  0
   -2.5686   -1.1487    0.9167 H   0  0  0  0  0  0  0  0  0  0  0  0
   -0.2178   -0.7251    0.1022 C   0  0  0  0  0  0  0  0  0  0  0  0
   -1.5158    0.7481    0.5865 H   0  0  0  0  0  0  0  0  0  0  0  0
   -1.3282    0.8753   -1.0497 H   0  0  0  0  0  0  0  0  0  0  0  0
   -0.6383   -1.4169    1.1069 H   0  0  0  0  0  0  0  0  0  0  0  0
    0.7076   -0.2101    0.9231 H   0  0  0  0  0  0  0  0  0  0  0  0
    0.3104   -1.4591   -0.7260 H   0  0  0  0  0  0  0  0  0  0  0  0
  1  5  1  0  0  0  0
  2  1  1  0  0  0  0
  2  8  1  0  0  0  0
  3  1  1  0  0  0  0
  6  2  1  0  0  0  0
  6  9  1  0  0  0  0
  6 10  1  0  0  0  0
  7  2  1  0  0  0  0
  9 13  1  0  0  0  0
  9 12  1  0  0  0  0
 11  6  1  0  0  0  0
 14  9  1  0  0  0  0
M  RAD  2   1   2   4   2
M  END
$$$$
