14
butane_opt
C  -3.953257   0.235610  -0.130735
C  -2.739958  -0.556101   0.199448
H  -5.136312  -0.704154   0.099414
H  -3.980877   1.091473  -1.119583
H  -3.949201   0.827765   0.582513
C  -1.382017   0.233717   0.154691
H  -2.844940  -1.051816  -0.479014
H  -2.922420  -1.191152   1.173315
C  -0.105579  -0.731090  -0.089574
H  -1.273351   0.625203   0.930063
H  -1.481422   0.885929  -0.793087
H  -0.179182  -0.880427   0.406907
H   0.739517  -0.367979   0.259873
H   0.216621  -1.933507  -1.316705
