14
butane_opt
C  -3.919688   0.225874  -0.046021
C  -2.701168  -0.564684   0.184519
H  -4.889823  -0.485691   0.258256
H  -3.532678   1.238463  -1.339348
H  -4.036084   0.525699   0.478221
C  -1.470314   0.230222   0.064178
H  -2.936326  -1.158415  -0.648448
H  -2.887846  -1.424564   1.067608
C  -0.087778  -0.747956  -0.051458
H  -1.414674   0.846692   0.942920
H  -1.759782   0.981924  -0.907295
H  -0.262625  -0.482312   0.239796
H   0.722265  -0.103940   0.760400
H   0.111138  -2.131677  -1.308518
