14
butane_opt
C  -3.954419   0.274666   0.046838
C  -2.698355  -0.630560   0.018061
H  -4.861682  -0.319259   0.087909
H  -4.039154   0.875702  -0.845561
H  -3.978669   0.947212   0.918913
C  -1.393172   0.185110  -0.028929
H  -2.745694  -1.304897  -0.827850
H  -2.740958  -1.216878   0.876206
C  -0.151745  -0.692497   0.066153
H  -1.424393   0.804014   0.771088
H  -1.353162   0.850254  -0.986549
H  -0.172585  -1.235192   0.905856
H   0.786464  -0.061984   0.174420
H  -0.124486  -1.449200  -0.859638
