14
butane_opt
C  -3.954183   0.328658  -0.090072
C  -2.609323  -0.667904   0.211771
H  -4.817117  -0.166411  -0.008886
H  -3.787564   1.279549  -1.271965
H  -3.910792   0.562481   0.624492
C  -1.438886   0.079159   0.059400
H  -2.547949  -1.214552  -0.475476
H  -2.912182  -1.528560   1.314716
C  -0.211342  -0.620994  -0.118896
H  -1.299045   1.055295   1.175129
H  -1.584095   0.601351  -0.569584
H  -0.581767  -0.841868   0.598813
H   0.907198   0.276490   0.623441
H  -0.008627  -1.891197  -1.416475
