butane_opt
 OpenBabel08242015393D

 14 13  0  0  0  0  0  0  0  0999 V2000
   -3.8704    0.2390    0.1805 C   0  0  0  0  0  0  0  0  0  0  0  0
   -2.7179   -0.5481   -0.1710 C   0  0  0  0  0  0  0  0  0  0  0  0
   -4.8587   -0.4785    0.6402 H   0  0  0  0  0  0  0  0  0  0  0  0
   -4.2874    1.0983   -0.8159 H   0  0  0  0  0  0  0  0  0  0  0  0
   -3.2471    0.7269    1.0177 H   0  0  0  0  0  0  0  0  0  0  0  0
   -1.4438    0.1608   -0.1410 C   0  0  0  0  0  0  0  0  0  0  0  0
   -3.1494   -1.2635   -1.0917 H   0  0  0  0  0  0  0  0  0  0  0  0
   -2.6994   -0.9460    0.4623 H   0  0  0  0  0  0  0  0  0  0  0  0
   -0.1739   -0.7330    0.1561 C   0  0  0  0  0  0  0  0  0  0  0  0
   -1.5801    0.7830    0.6695 H   0  0  0  0  0  0  0  0  0  0  0  0
   -1.4248    0.9725   -1.0597 H   0  0  0  0  0  0  0  0  0  0  0  0
   -0.5296   -1.3966    1.1749 H   0  0  0  0  0  0  0  0  0  0  0  0
    0.8881   -0.0244    0.5006 H   0  0  0  0  0  0  0  0  0  0  0  0
    0.3100   -1.3471   -0.3979 H   0  0  0  0  0  0  0  0  0  0  0  0
  1  3  1  0  0  0  0
  1  5  1  0  0  0  0
  2  6  1  0  0  0  0
  2  1  1  0  0  0  0
  2  8  1  0  0  0  0
  4  1  1  0  0  0  0
  6  9  1  0  0  0  0
  6 10  1  0  0  0  0
  7  2  1  0  0  0  0
  9 13  1  0  0  0  0
  9 12  1  0  0  0  0
 11  6  1  0  0  0  0
 14  9  1  0  0  0  0
M  END
$$$$
