butane_opt
 OpenBabel08242015393D

 14 11  0  0  0  0  0  0  0  0999 V2000
   -3.9176    0.3114    0.1870 C   0  0  0  0  0  0  0  0  0  0  0  0
   -2.6648   -0.6562   -0.0891 C   0  0  0  0  0  0  0  0  0  0  0  0
   -4.8153   -0.3383   -0.7029 H   0  0  0  0  0  0  0  0  0  0  0  0
   -3.8406    0.3639   -0.2937 H   0  0  0  0  0  0  0  0  0  0  0  0
   -4.3784    1.7862    1.5231 H   0  0  0  0  0  0  0  0  0  0  0  0
   -1.4554    0.0391   -0.1981 C   0  0  0  0  0  0  0  0  0  0  0  0
   -2.5804   -1.2093   -0.8868 H   0  0  0  0  0  0  0  0  0  0  0  0
   -2.5486   -1.3370    0.9042 H   0  0  0  0  0  0  0  0  0  0  0  0
   -0.1870   -0.6101    0.2016 C   0  0  0  0  0  0  0  0  0  0  0  0
   -1.4947    0.7004    0.6612 H   0  0  0  0  0  0  0  0  0  0  0  0
   -1.1051    0.9558   -1.3090 H   0  0  0  0  0  0  0  0  0  0  0  0
   -0.4552   -1.5213    1.1835 H   0  0  0  0  0  0  0  0  0  0  0  0
    1.0237    0.1842   -0.2465 H   0  0  0  0  0  0  0  0  0  0  0  0
   -0.1436   -1.0671   -0.5440 H   0  0  0  0  0  0  0  0  0  0  0  0
  2  1  1  0  0  0  0
  2  8  1  0  0  0  0
  3  1  1  0  0  0  0
  6  2  1  0  0  0  0
  6  9  1  0  0  0  0
  6 10  1  0  0  0  0
  7  2  1  0  0  0  0
  9 12  1  0  0  0  0
 11  6  1  0  0  0  0
 13  9  1  0  0  0  0
 14  9  1  0  0  0  0
M  RAD  3   1   3   4   2   5   2
M  END
$$$$
