butane_opt
 OpenBabel08242015393D

 14 11  0  0  0  0  0  0  0  0999 V2000
   -3.9631    0.3208    0.1648 C   0  0  0  0  0  0  0  0  0  0  0  0
   -2.6406   -0.6228   -0.1493 C   0  0  0  0  0  0  0  0  0  0  0  0
   -4.9470   -0.3473   -0.2417 H   0  0  0  0  0  0  0  0  0  0  0  0
   -3.6982    0.5658   -0.4202 H   0  0  0  0  0  0  0  0  0  0  0  0
   -3.7953    1.0779    1.2318 H   0  0  0  0  0  0  0  0  0  0  0  0
   -1.4256    0.1228   -0.0705 C   0  0  0  0  0  0  0  0  0  0  0  0
   -2.8405   -1.5483   -1.1788 H   0  0  0  0  0  0  0  0  0  0  0  0
   -2.4912   -1.1332    0.4456 H   0  0  0  0  0  0  0  0  0  0  0  0
   -0.1803   -0.6632    0.1846 C   0  0  0  0  0  0  0  0  0  0  0  0
   -1.5435    0.5312    0.5834 H   0  0  0  0  0  0  0  0  0  0  0  0
   -1.4459    0.8843   -1.0376 H   0  0  0  0  0  0  0  0  0  0  0  0
    0.1897   -1.8180    1.4183 H   0  0  0  0  0  0  0  0  0  0  0  0
    0.6654    0.0687   -0.5801 H   0  0  0  0  0  0  0  0  0  0  0  0
   -0.6564   -0.6016   -0.2331 H   0  0  0  0  0  0  0  0  0  0  0  0
  1  5  1  0  0  0  0
  2  6  1  0  0  0  0
  2  1  1  0  0  0  0
  2  8  1  0  0  0  0
  3  1  1  0  0  0  0
  4  1  1  0  0  0  0
  6 10  1  0  0  0  0
  7  2  1  0  0  0  0
 11  6  1  0  0  0  0
 13  9  1  0  0  0  0
 14  9  1  0  0  0  0
M  RAD  3   6   2   9   3  12   2
M  END
$$$$
