butane_opt
 OpenBabel08242015393D

 14 10  0  0  0  0  0  0  0  0999 V2000
   -3.9533    0.2356   -0.1307 C   0  0  0  0  0  0  0  0  0  0  0  0
   -2.7400   -0.5561    0.1994 C   0  0  0  0  0  0  0  0  0  0  0  0
   -5.1363   -0.7042    0.0994 H   0  0  0  0  0  0  0  0  0  0  0  0
   -3.9809    1.0915   -1.1196 H   0  0  0  0  0  0  0  0  0  0  0  0
   -3.9492    0.8278    0.5825 H   0  0  0  0  0  0  0  0  0  0  0  0
   -1.3820    0.2337    0.1547 C   0  0  0  0  0  0  0  0  0  0  0  0
   -2.8449   -1.0518   -0.4790 H   0  0  0  0  0  0  0  0  0  0  0  0
   -2.9224   -1.1912    1.1733 H   0  0  0  0  0  0  0  0  0  0  0  0
   -0.1056   -0.7311   -0.0896 C   0  0  0  0  0  0  0  0  0  0  0  0
   -1.2734    0.6252    0.9301 H   0  0  0  0  0  0  0  0  0  0  0  0
   -1.4814    0.8859   -0.7931 H   0  0  0  0  0  0  0  0  0  0  0  0
   -0.1792   -0.8804    0.4069 H   0  0  0  0  0  0  0  0  0  0  0  0
    0.7395   -0.3680    0.2599 H   0  0  0  0  0  0  0  0  0  0  0  0
    0.2166   -1.9335   -1.3167 H   0  0  0  0  0  0  0  0  0  0  0  0
  1  2  1  0  0  0  0
  1  5  1  0  0  0  0
  2  8  1  0  0  0  0
  4  1  1  0  0  0  0
  6  2  1  0  0  0  0
  6 10  1  0  0  0  0
  7  2  1  0  0  0  0
  9  6  1  0  0  0  0
  9 13  1  0  0  0  0
 11  6  1  0  0  0  0
M  RAD  5   1   2   3   2   9   3  12   2  14   2
M  END
$$$$
