butane_opt
 OpenBabel08242015393D

 14 12  0  0  0  0  0  0  0  0999 V2000
   -4.0725    0.2975    0.0889 C   0  0  0  0  0  0  0  0  0  0  0  0
   -2.6820   -0.6495    0.0240 C   0  0  0  0  0  0  0  0  0  0  0  0
   -4.9265   -0.3173   -0.1952 H   0  0  0  0  0  0  0  0  0  0  0  0
   -3.7960    0.4808   -0.7106 H   0  0  0  0  0  0  0  0  0  0  0  0
   -4.2098    1.2988    1.1513 H   0  0  0  0  0  0  0  0  0  0  0  0
   -1.3503    0.1669   -0.0961 C   0  0  0  0  0  0  0  0  0  0  0  0
   -2.7735   -1.5693   -1.0487 H   0  0  0  0  0  0  0  0  0  0  0  0
   -2.4800   -1.0809    0.7111 H   0  0  0  0  0  0  0  0  0  0  0  0
   -0.1181   -0.6512    0.1128 C   0  0  0  0  0  0  0  0  0  0  0  0
   -1.5664    0.7308    0.8340 H   0  0  0  0  0  0  0  0  0  0  0  0
   -1.2521    0.9443   -1.1445 H   0  0  0  0  0  0  0  0  0  0  0  0
   -0.0830   -1.6564    1.2549 H   0  0  0  0  0  0  0  0  0  0  0  0
    0.8820    0.0039   -0.1987 H   0  0  0  0  0  0  0  0  0  0  0  0
   -0.1841   -1.2417   -0.7113 H   0  0  0  0  0  0  0  0  0  0  0  0
  1  5  1  0  0  0  0
  2  1  1  0  0  0  0
  2  8  1  0  0  0  0
  3  1  1  0  0  0  0
  4  1  1  0  0  0  0
  6  2  1  0  0  0  0
  6  9  1  0  0  0  0
  6 10  1  0  0  0  0
  7  2  1  0  0  0  0
 11  6  1  0  0  0  0
 13  9  1  0  0  0  0
 14  9  1  0  0  0  0
M  RAD  2   9   2  12   2
M  END
$$$$
