butane_opt
 OpenBabel08242015393D

 14  8  0  0  0  0  0  0  0  0999 V2000
   -3.9709    0.3309   -0.0855 C   0  0  0  0  0  0  0  0  0  0  0  0
   -2.6987   -0.7160    0.2626 C   0  0  0  0  0  0  0  0  0  0  0  0
   -4.9483   -0.2087   -0.0680 H   0  0  0  0  0  0  0  0  0  0  0  0
   -3.8513    1.3968   -1.3812 H   0  0  0  0  0  0  0  0  0  0  0  0
   -4.1565    0.5658    0.3903 H   0  0  0  0  0  0  0  0  0  0  0  0
   -1.3852    0.1397    0.1029 C   0  0  0  0  0  0  0  0  0  0  0  0
   -2.7356   -1.1515   -0.4211 H   0  0  0  0  0  0  0  0  0  0  0  0
   -2.7409   -1.2960    1.1302 H   0  0  0  0  0  0  0  0  0  0  0  0
   -0.1290   -0.6324   -0.1264 C   0  0  0  0  0  1  0  0  0  0  0  0
   -1.4310    0.7342    1.0514 H   0  0  0  0  0  0  0  0  0  0  0  0
   -1.2606    0.7673   -0.7852 H   0  0  0  0  0  0  0  0  0  0  0  0
   -0.4891   -0.5547    0.3434 H   0  0  0  0  0  0  0  0  0  0  0  0
    0.8369   -0.0593    0.7526 H   0  0  0  0  0  0  0  0  0  0  0  0
   -0.0710   -2.1462   -1.5719 H   0  0  0  0  0  0  0  0  0  0  0  0
  1  3  1  0  0  0  0
  1  2  1  0  0  0  0
  2  8  1  0  0  0  0
  6 12  1  0  0  0  0
  6 10  1  0  0  0  0
  7  2  1  0  0  0  0
  9 13  1  0  0  0  0
 11  6  1  0  0  0  0
M  RAD  6   1   3   2   2   4   2   5   2   6   2  14   2
M  END
$$$$
