butane_opt
 OpenBabel08242015393D

 14 13  0  0  0  0  0  0  0  0999 V2000
   -4.0400    0.3209    0.1638 C   0  0  0  0  0  0  0  0  0  0  0  0
   -2.6886   -0.7034   -0.0259 C   0  0  0  0  0  0  0  0  0  0  0  0
   -4.8728   -0.3300   -0.3755 H   0  0  0  0  0  0  0  0  0  0  0  0
   -3.9205    0.8938   -0.6952 H   0  0  0  0  0  0  0  0  0  0  0  0
   -4.0852    1.3651    1.2137 H   0  0  0  0  0  0  0  0  0  0  0  0
   -1.3195    0.1032   -0.1719 C   0  0  0  0  0  0  0  0  0  0  0  0
   -2.9627   -1.3127   -0.9550 H   0  0  0  0  0  0  0  0  0  0  0  0
   -2.4313   -1.1456    0.8368 H   0  0  0  0  0  0  0  0  0  0  0  0
   -0.1641   -0.6205    0.1556 C   0  0  0  0  0  0  0  0  0  0  0  0
   -1.3724    0.4794    0.5066 H   0  0  0  0  0  0  0  0  0  0  0  0
   -1.3229    0.9664   -1.1623 H   0  0  0  0  0  0  0  0  0  0  0  0
   -0.3287   -1.1152    0.9089 H   0  0  0  0  0  0  0  0  0  0  0  0
    0.6836   -0.0527    0.5035 H   0  0  0  0  0  0  0  0  0  0  0  0
    0.1144   -1.4349   -0.8134 H   0  0  0  0  0  0  0  0  0  0  0  0
  1  5  1  0  0  0  0
  2  1  1  0  0  0  0
  2  8  1  0  0  0  0
  3  1  1  0  0  0  0
  4  1  1  0  0  0  0
  6  2  1  0  0  0  0
  6  9  1  0  0  0  0
  6 10  1  0  0  0  0
  7  2  1  0  0  0  0
  9 13  1  0  0  0  0
  9 12  1  0  0  0  0
 11  6  1  0  0  0  0
 14  9  1  0  0  0  0
M  END
$$$$
