14
butane_opt
C  -3.919685   0.193486   0.157792
C  -2.743193  -0.528203   0.012677
H  -4.896836  -0.426351  -0.813625
H  -3.560419   0.057173  -0.399634
H  -4.332235   1.515823   1.341394
C  -1.451141   0.275528  -0.172433
H  -2.883681  -1.480458  -1.103756
H  -2.502859  -1.151457   0.854224
C  -0.082284  -0.755056   0.156719
H  -1.474981   0.815165   0.414328
H  -1.470506   1.087312  -1.273209
H  -0.005850  -1.672677   1.190897
H   0.815943  -0.266513  -0.035577
H  -0.293316  -1.210881  -0.465278
