butane_opt
 OpenBabel08242015393D

 14 11  0  0  0  0  0  0  0  0999 V2000
   -3.9387    0.2378    0.0343 C   0  0  0  0  0  0  0  0  0  0  0  0
   -2.7336   -0.5796    0.0612 C   0  0  0  0  0  0  0  0  0  0  0  0
   -4.9252   -0.5639    0.3621 H   0  0  0  0  0  0  0  0  0  0  0  0
   -3.9389    0.8719   -1.0281 H   0  0  0  0  0  0  0  0  0  0  0  0
   -3.9754    0.5284    0.5522 H   0  0  0  0  0  0  0  0  0  0  0  0
   -1.4816    0.3083    0.0079 C   0  0  0  0  0  0  0  0  0  0  0  0
   -2.6138   -1.4164   -0.7694 H   0  0  0  0  0  0  0  0  0  0  0  0
   -2.9234   -1.2444    0.9707 H   0  0  0  0  0  0  0  0  0  0  0  0
   -0.0889   -0.7476    0.0153 C   0  0  0  0  0  0  0  0  0  0  0  0
   -1.2314    0.8701    0.7744 H   0  0  0  0  0  0  0  0  0  0  0  0
   -1.4052    1.0724   -0.9910 H   0  0  0  0  0  0  0  0  0  0  0  0
   -0.1827   -1.0039    0.7383 H   0  0  0  0  0  0  0  0  0  0  0  0
    0.6599   -0.3586    0.5377 H   0  0  0  0  0  0  0  0  0  0  0  0
    0.4392   -1.8863   -1.1615 H   0  0  0  0  0  0  0  0  0  0  0  0
  1  2  1  0  0  0  0
  1  3  1  0  0  0  0
  2  8  1  0  0  0  0
  4  1  1  0  0  0  0
  6  9  1  0  0  0  0
  6  2  1  0  0  0  0
  6 10  1  0  0  0  0
  7  2  1  0  0  0  0
  9 13  1  0  0  0  0
  9 12  1  0  0  0  0
 11  6  1  0  0  0  0
M  RAD  4   1   2   5   2   9   2  14   2
M  END
$$$$
