14
butane_opt
C  -3.929691   0.190240  -0.184021
C  -2.713785  -0.502648   0.169311
H  -5.035506  -0.519583  -0.045555
H  -3.856777   0.957772  -1.165745
H  -3.807089   0.760358   0.598296
C  -1.417574   0.225589   0.257506
H  -2.489237  -0.980672  -0.560177
H  -2.869388  -1.246477   1.076801
C  -0.138278  -0.761275  -0.136008
H  -1.061092   1.099753   1.236273
H  -1.511789   0.601286  -0.289917
H   0.454958  -1.558156   0.817110
H   0.502583  -0.341680  -0.746725
H  -0.859091  -1.122140  -0.726527
