butane_opt
 OpenBabel08242015393D

 14 13  0  0  0  0  0  0  0  0999 V2000
   -3.9489    0.2572   -0.0264 C   0  0  0  0  0  0  0  0  0  0  0  0
   -2.7106   -0.6002    0.0872 C   0  0  0  0  0  0  0  0  0  0  0  0
   -4.8798   -0.3559   -0.0877 H   0  0  0  0  0  0  0  0  0  0  0  0
   -3.8974    0.7744   -0.8528 H   0  0  0  0  0  0  0  0  0  0  0  0
   -4.0527    0.9592    0.8613 H   0  0  0  0  0  0  0  0  0  0  0  0
   -1.4090    0.1962    0.0475 C   0  0  0  0  0  0  0  0  0  0  0  0
   -2.6763   -1.2060   -0.7212 H   0  0  0  0  0  0  0  0  0  0  0  0
   -2.7173   -1.3198    1.0255 H   0  0  0  0  0  0  0  0  0  0  0  0
   -0.1448   -0.6984   -0.0090 C   0  0  0  0  0  0  0  0  0  0  0  0
   -1.3364    0.8620    0.9114 H   0  0  0  0  0  0  0  0  0  0  0  0
   -1.4375    0.8061   -0.8416 H   0  0  0  0  0  0  0  0  0  0  0  0
   -0.0930   -1.3067    0.8529 H   0  0  0  0  0  0  0  0  0  0  0  0
    0.7483   -0.1391   -0.0076 H   0  0  0  0  0  0  0  0  0  0  0  0
   -0.1173   -1.4089   -0.8850 H   0  0  0  0  0  0  0  0  0  0  0  0
  1  2  1  0  0  0  0
  1  5  1  0  0  0  0
  2  8  1  0  0  0  0
  3  1  1  0  0  0  0
  4  1  1  0  0  0  0
  6  2  1  0  0  0  0
  6 10  1  0  0  0  0
  7  2  1  0  0  0  0
  9 13  1  0  0  0  0
  9  6  1  0  0  0  0
  9 12  1  0  0  0  0
 11  6  1  0  0  0  0
 14  9  1  0  0  0  0
M  END
$$$$
