14
butane_opt
C  -3.957419   0.248151  -0.033792
C  -2.677820  -0.654777   0.127692
H  -4.821433  -0.107410   0.160553
H  -4.037291   1.139783  -1.105017
H  -4.150289   0.682004   0.734245
C  -1.421848   0.223281   0.016985
H  -2.968679  -1.385215  -0.666647
H  -2.503394  -1.284670   1.085267
C  -0.174346  -0.710361   0.007257
H  -1.313441   0.950442   0.842380
H  -1.374072   1.006755  -0.902939
H  -0.303825  -0.857107   0.571474
H   0.973114   0.114003   0.447341
H   0.229562  -2.000909  -1.266092
