butane_opt
 OpenBabel08242015393D

 14  9  0  0  0  0  0  0  0  0999 V2000
   -3.9197    0.2259   -0.0460 C   0  0  0  0  0  0  0  0  0  0  0  0
   -2.7012   -0.5647    0.1845 C   0  0  0  0  0  0  0  0  0  0  0  0
   -4.8898   -0.4857    0.2583 H   0  0  0  0  0  0  0  0  0  0  0  0
   -3.5327    1.2385   -1.3393 H   0  0  0  0  0  0  0  0  0  0  0  0
   -4.0361    0.5257    0.4782 H   0  0  0  0  0  0  0  0  0  0  0  0
   -1.4703    0.2302    0.0642 C   0  0  0  0  0  0  0  0  0  0  0  0
   -2.9363   -1.1584   -0.6484 H   0  0  0  0  0  0  0  0  0  0  0  0
   -2.8878   -1.4246    1.0676 H   0  0  0  0  0  0  0  0  0  0  0  0
   -0.0878   -0.7480   -0.0515 C   0  0  0  0  0  1  0  0  0  0  0  0
   -1.4147    0.8467    0.9429 H   0  0  0  0  0  0  0  0  0  0  0  0
   -1.7598    0.9819   -0.9073 H   0  0  0  0  0  0  0  0  0  0  0  0
   -0.2626   -0.4823    0.2398 H   0  0  0  0  0  0  0  0  0  0  0  0
    0.7223   -0.1039    0.7604 H   0  0  0  0  0  0  0  0  0  0  0  0
    0.1111   -2.1317   -1.3085 H   0  0  0  0  0  0  0  0  0  0  0  0
  1  2  1  0  0  0  0
  1  3  1  0  0  0  0
  2  8  1  0  0  0  0
  6  2  1  0  0  0  0
  6 12  1  0  0  0  0
  6 10  1  0  0  0  0
  7  2  1  0  0  0  0
  9 13  1  0  0  0  0
 11  6  1  0  0  0  0
M  RAD  4   1   3   4   2   5   2  14   2
M  END
$$$$
