butane_opt
 OpenBabel08242015393D

 14  9  0  0  0  0  0  0  0  0999 V2000
   -4.0207    0.3157    0.0975 C   0  0  0  0  0  0  0  0  0  0  0  0
   -2.7276   -0.6414   -0.1374 C   0  0  0  0  0  0  0  0  0  0  0  0
   -4.7836   -0.1030    0.0361 H   0  0  0  0  0  0  0  0  0  0  0  0
   -4.3513    0.6419   -0.5257 H   0  0  0  0  0  0  0  0  0  0  0  0
   -3.8685    1.1522    1.0418 H   0  0  0  0  0  0  0  0  0  0  0  0
   -1.3056    0.1229   -0.0389 C   0  0  0  0  0  0  0  0  0  0  0  0
   -3.0345   -1.4139   -1.1335 H   0  0  0  0  0  0  0  0  0  0  0  0
   -2.4965   -1.3320    0.7382 H   0  0  0  0  0  0  0  0  0  0  0  0
   -0.1172   -0.6560    0.1548 C   0  0  0  0  0  1  0  0  0  0  0  0
   -1.5224    0.9428    1.0085 H   0  0  0  0  0  0  0  0  0  0  0  0
   -1.2321    0.7024   -0.9251 H   0  0  0  0  0  0  0  0  0  0  0  0
   -0.0272   -2.0143    1.4840 H   0  0  0  0  0  0  0  0  0  0  0  0
    0.9652   -0.0272   -0.7294 H   0  0  0  0  0  0  0  0  0  0  0  0
   -0.6474   -0.6638   -0.4160 H   0  0  0  0  0  0  0  0  0  0  0  0
  1  5  1  0  0  0  0
  2  1  1  0  0  0  0
  2  8  1  0  0  0  0
  3  1  1  0  0  0  0
  4  1  1  0  0  0  0
  6 10  1  0  0  0  0
  7  2  1  0  0  0  0
 11  6  1  0  0  0  0
 14  9  1  0  0  0  0
M  RAD  4   2   2   6   3  12   2  13   2
M  END
$$$$
