14
butane_opt
C  -3.963077   0.320811   0.164807
C  -2.640582  -0.622835  -0.149252
H  -4.947025  -0.347270  -0.241655
H  -3.698180   0.565811  -0.420173
H  -3.795270   1.077901   1.231769
C  -1.425597   0.122777  -0.070470
H  -2.840492  -1.548260  -1.178824
H  -2.491158  -1.133219   0.445642
C  -0.180329  -0.663244   0.184637
H  -1.543530   0.531198   0.583372
H  -1.445940   0.884346  -1.037596
H   0.189664  -1.818002   1.418303
H   0.665412   0.068699  -0.580116
H  -0.656353  -0.601647  -0.233147
