14
butane_opt
C  -3.993197   0.245546   0.201440
C  -2.735841  -0.588042  -0.149548
H  -5.098037  -0.533843   0.014355
H  -3.914193   0.569945  -0.460912
H  -3.727566   1.231331   1.333923
C  -1.390487   0.281667  -0.221096
H  -2.880530  -1.109944  -0.893424
H  -2.843057  -1.371213   0.858625
C  -0.114853  -0.749464   0.220523
H  -1.558658   0.648702   0.450834
H  -1.166723   0.887138  -1.286205
H  -0.229233  -1.170180   1.020919
H   0.770508  -0.228732   0.368527
H   0.427705  -1.670168  -0.587005
