butane_opt
 OpenBabel08242015393D

 14 11  0  0  0  0  0  0  0  0999 V2000
   -3.9759    0.2883    0.1883 C   0  0  0  0  0  0  0  0  0  0  0  0
   -2.6315   -0.6047   -0.1735 C   0  0  0  0  0  0  0  0  0  0  0  0
   -4.9261   -0.2149    0.7815 H   0  0  0  0  0  0  0  0  0  0  0  0
   -4.0540    1.1435   -0.7871 H   0  0  0  0  0  0  0  0  0  0  0  0
   -3.7002    0.8639    0.9569 H   0  0  0  0  0  0  0  0  0  0  0  0
   -1.3696    0.0603   -0.1455 C   0  0  0  0  0  0  0  0  0  0  0  0
   -2.8589   -1.7385   -1.1870 H   0  0  0  0  0  0  0  0  0  0  0  0
   -2.6603   -0.7891    0.3935 H   0  0  0  0  0  0  0  0  0  0  0  0
   -0.2382   -0.6509    0.2170 C   0  0  0  0  0  0  0  0  0  0  0  0
   -1.2036    0.7493    0.7033 H   0  0  0  0  0  0  0  0  0  0  0  0
   -1.3498    0.9633   -1.2695 H   0  0  0  0  0  0  0  0  0  0  0  0
   -0.4494   -1.4834    1.2117 H   0  0  0  0  0  0  0  0  0  0  0  0
    0.7824    0.0789    0.2013 H   0  0  0  0  0  0  0  0  0  0  0  0
   -0.0658   -1.1398   -0.5501 H   0  0  0  0  0  0  0  0  0  0  0  0
  1  3  1  0  0  0  0
  1  5  1  0  0  0  0
  2  6  1  0  0  0  0
  2  1  1  0  0  0  0
  4  1  1  0  0  0  0
  6  9  1  0  0  0  0
  6 10  1  0  0  0  0
  9 12  1  0  0  0  0
 11  6  1  0  0  0  0
 13  9  1  0  0  0  0
 14  9  1  0  0  0  0
M  RAD  3   2   3   7   2   8   2
M  END
$$$$
