14
butane_opt
C  -4.002778   0.231576  -0.086180
C  -2.728694  -0.585371   0.189180
H  -4.858818  -0.368345  -0.082907
H  -4.147920   0.872130  -1.065567
H  -3.889726   0.632779   0.742788
C  -1.389198   0.241552   0.025618
H  -2.798815  -1.109963  -0.460307
H  -2.571900  -1.246432   1.038399
C  -0.098697  -0.761828  -0.065890
H  -1.332479   1.105772   1.132245
H  -1.714114   0.801443  -0.689707
H  -0.243562  -0.970809   0.575313
H   0.941565  -0.084238   0.448215
H   0.225205  -1.610097  -1.034862
