butane_opt
 OpenBabel08242015393D

 14 13  0  0  0  0  0  0  0  0999 V2000
   -3.9297    0.1902   -0.1840 C   0  0  0  0  0  0  0  0  0  0  0  0
   -2.7138   -0.5026    0.1693 C   0  0  0  0  0  0  0  0  0  0  0  0
   -5.0355   -0.5196   -0.0456 H   0  0  0  0  0  0  0  0  0  0  0  0
   -3.8568    0.9578   -1.1657 H   0  0  0  0  0  0  0  0  0  0  0  0
   -3.8071    0.7604    0.5983 H   0  0  0  0  0  0  0  0  0  0  0  0
   -1.4176    0.2256    0.2575 C   0  0  0  0  0  0  0  0  0  0  0  0
   -2.4892   -0.9807   -0.5602 H   0  0  0  0  0  0  0  0  0  0  0  0
   -2.8694   -1.2465    1.0768 H   0  0  0  0  0  0  0  0  0  0  0  0
   -0.1383   -0.7613   -0.1360 C   0  0  0  0  0  0  0  0  0  0  0  0
   -1.0611    1.0998    1.2363 H   0  0  0  0  0  0  0  0  0  0  0  0
   -1.5118    0.6013   -0.2899 H   0  0  0  0  0  0  0  0  0  0  0  0
    0.4550   -1.5582    0.8171 H   0  0  0  0  0  0  0  0  0  0  0  0
    0.5026   -0.3417   -0.7467 H   0  0  0  0  0  0  0  0  0  0  0  0
   -0.8591   -1.1221   -0.7265 H   0  0  0  0  0  0  0  0  0  0  0  0
  1  3  1  0  0  0  0
  1  2  1  0  0  0  0
  1  5  1  0  0  0  0
  2  6  1  0  0  0  0
  2  8  1  0  0  0  0
  4  1  1  0  0  0  0
  6 10  1  0  0  0  0
  7  2  1  0  0  0  0
  9  6  1  0  0  0  0
  9 12  1  0  0  0  0
 11  6  1  0  0  0  0
 13  9  1  0  0  0  0
 14  9  1  0  0  0  0
M  END
$$$$
