butane_opt
 OpenBabel08242015393D

 14 10  0  0  0  0  0  0  0  0999 V2000
   -3.9158    0.1705    0.0418 C   0  0  0  0  0  0  0  0  0  0  0  0
   -2.7733   -0.5545    0.0533 C   0  0  0  0  0  0  0  0  0  0  0  0
   -4.8991   -0.4833   -0.6086 H   0  0  0  0  0  0  0  0  0  0  0  0
   -3.7191    0.2332   -0.5201 H   0  0  0  0  0  0  0  0  0  0  0  0
   -4.2816    1.6731    1.5757 H   0  0  0  0  0  0  0  0  0  0  0  0
   -1.4514    0.2872   -0.0801 C   0  0  0  0  0  0  0  0  0  0  0  0
   -2.7611   -1.3333   -0.8066 H   0  0  0  0  0  0  0  0  0  0  0  0
   -2.6541   -1.2262    0.9444 H   0  0  0  0  0  0  0  0  0  0  0  0
   -0.0592   -0.7243    0.0989 C   0  0  0  0  0  0  0  0  0  0  0  0
   -1.4495    0.6868    0.6065 H   0  0  0  0  0  0  0  0  0  0  0  0
   -1.4490    1.1367   -1.3010 H   0  0  0  0  0  0  0  0  0  0  0  0
    0.1463   -1.5284    1.1177 H   0  0  0  0  0  0  0  0  0  0  0  0
    0.4876   -0.4639   -0.1283 H   0  0  0  0  0  0  0  0  0  0  0  0
    0.0109   -1.3594   -0.7097 H   0  0  0  0  0  0  0  0  0  0  0  0
  1  2  1  0  0  0  0
  2  8  1  0  0  0  0
  3  1  1  0  0  0  0
  6  9  1  0  0  0  0
  6 10  1  0  0  0  0
  7  2  1  0  0  0  0
  9 12  1  0  0  0  0
 11  6  1  0  0  0  0
 13  9  1  0  0  0  0
 14  9  1  0  0  0  0
M  RAD  5   1   3   2   2   4   2   5   2   6   2
M  END
$$$$
