butane_opt
 OpenBabel08242015393D

 14 11  0  0  0  0  0  0  0  0999 V2000
   -3.8483    0.2008    0.0869 C   0  0  0  0  0  0  0  0  0  0  0  0
   -2.7315   -0.5421   -0.1177 C   0  0  0  0  0  0  0  0  0  0  0  0
   -5.0022   -0.5154    0.1218 H   0  0  0  0  0  0  0  0  0  0  0  0
   -3.9896    0.5464   -0.6672 H   0  0  0  0  0  0  0  0  0  0  0  0
   -3.8969    1.2453    1.0564 H   0  0  0  0  0  0  0  0  0  0  0  0
   -1.4035    0.2526    0.0511 C   0  0  0  0  0  0  0  0  0  0  0  0
   -2.7040   -1.3461   -1.0753 H   0  0  0  0  0  0  0  0  0  0  0  0
   -2.4721   -0.8631    0.6185 H   0  0  0  0  0  0  0  0  0  0  0  0
   -0.2395   -0.7563    0.0984 C   0  0  0  0  0  0  0  0  0  0  0  0
   -1.3655    0.6232    0.6864 H   0  0  0  0  0  0  0  0  0  0  0  0
   -1.3411    1.0238   -1.0681 H   0  0  0  0  0  0  0  0  0  0  0  0
    0.1622   -2.0733    1.4963 H   0  0  0  0  0  0  0  0  0  0  0  0
    0.6831   -0.2211   -0.6093 H   0  0  0  0  0  0  0  0  0  0  0  0
   -0.3640   -0.7927   -0.4236 H   0  0  0  0  0  0  0  0  0  0  0  0
  1  3  1  0  0  0  0
  1  5  1  0  0  0  0
  2  6  1  0  0  0  0
  2  1  1  0  0  0  0
  2  8  1  0  0  0  0
  4  1  1  0  0  0  0
  6  9  1  0  0  0  0
  6 10  1  0  0  0  0
  7  2  1  0  0  0  0
 11  6  1  0  0  0  0
 13  9  1  0  0  0  0
M  RAD  3   9   3  12   2  14   2
M  END
$$$$
