14
butane_opt
C  -3.947923   0.268197   0.034014
C  -2.683464  -0.615973   0.012583
H  -4.853373  -0.317817  -0.018228
H  -3.992831   0.785812  -0.784746
H  -3.903101   1.006475   0.951008
C  -1.403842   0.170488   0.000962
H  -2.714416  -1.318465  -0.853749
H  -2.680419  -1.173854   0.843901
C  -0.175727  -0.684455   0.055215
H  -1.391409   0.816065   0.825682
H  -1.372877   0.835395  -0.941291
H  -0.103871  -1.414786   1.040268
H   0.743342  -0.108187  -0.126739
H  -0.227618  -1.238421  -0.711796
