14
butane_opt
C  -4.072519   0.297502   0.088864
C  -2.681973  -0.649502   0.024022
H  -4.926523  -0.317318  -0.195173
H  -3.795964   0.480813  -0.710595
H  -4.209843   1.298754   1.151279
C  -1.350319   0.166867  -0.096138
H  -2.773479  -1.569257  -1.048690
H  -2.479988  -1.080861   0.711116
C  -0.118122  -0.651158   0.112840
H  -1.566363   0.730798   0.833988
H  -1.252085   0.944326  -1.144510
H  -0.083037  -1.656372   1.254928
H   0.882032   0.003916  -0.198736
H  -0.184067  -1.241681  -0.711339
