14
butane_opt
C  -3.962809   0.271223  -0.139355
C  -2.720742  -0.637249   0.261209
H  -4.977262  -0.418752  -0.342096
H  -3.662199   1.015973  -1.078884
H  -4.360889   0.791978   0.660339
C  -1.393843   0.234151   0.110096
H  -2.536946  -1.209084  -0.386007
H  -2.864802  -1.476313   1.241265
C  -0.114371  -0.664184  -0.114558
H  -1.438769   1.003169   1.128063
H  -1.616049   0.488821  -0.491195
H   0.093123  -1.083092   0.480188
H   0.688087  -0.258238  -0.072596
H  -0.058559  -1.755349  -1.160645
