butane_opt
 OpenBabel08242015393D

 14 12  0  0  0  0  0  0  0  0999 V2000
   -3.9996    0.3417    0.2248 C   0  0  0  0  0  0  0  0  0  0  0  0
   -2.7520   -0.6576   -0.1581 C   0  0  0  0  0  0  0  0  0  0  0  0
   -4.9874   -0.3435    0.4678 H   0  0  0  0  0  0  0  0  0  0  0  0
   -4.3183    1.1241   -0.7467 H   0  0  0  0  0  0  0  0  0  0  0  0
   -3.8248    0.6122    0.8128 H   0  0  0  0  0  0  0  0  0  0  0  0
   -1.3560    0.1298   -0.1319 C   0  0  0  0  0  0  0  0  0  0  0  0
   -2.6264   -1.6438   -1.3347 H   0  0  0  0  0  0  0  0  0  0  0  0
   -2.5701   -0.8464    0.4355 H   0  0  0  0  0  0  0  0  0  0  0  0
   -0.1279   -0.6558    0.1673 C   0  0  0  0  0  0  0  0  0  0  0  0
   -1.2737    0.5585    0.5472 H   0  0  0  0  0  0  0  0  0  0  0  0
   -1.1186    0.8290   -1.0988 H   0  0  0  0  0  0  0  0  0  0  0  0
   -0.3496   -1.4736    1.4165 H   0  0  0  0  0  0  0  0  0  0  0  0
    0.7901    0.0128    0.2925 H   0  0  0  0  0  0  0  0  0  0  0  0
    0.0698   -1.2095   -0.5717 H   0  0  0  0  0  0  0  0  0  0  0  0
  1  3  1  0  0  0  0
  1  5  1  0  0  0  0
  2  6  1  0  0  0  0
  2  1  1  0  0  0  0
  2  8  1  0  0  0  0
  4  1  1  0  0  0  0
  6  9  1  0  0  0  0
  6 10  1  0  0  0  0
  9 13  1  0  0  0  0
  9 12  1  0  0  0  0
 11  6  1  0  0  0  0
 14  9  1  0  0  0  0
M  RAD  2   2   2   7   2
M  END
$$$$
