butane_opt
 OpenBabel08242015393D

 14 11  0  0  0  0  0  0  0  0999 V2000
   -3.9942    0.2975    0.1615 C   0  0  0  0  0  0  0  0  0  0  0  0
   -2.6442   -0.6594   -0.1012 C   0  0  0  0  0  0  0  0  0  0  0  0
   -4.9287   -0.2003    0.6133 H   0  0  0  0  0  0  0  0  0  0  0  0
   -4.5491    1.2987   -0.9746 H   0  0  0  0  0  0  0  0  0  0  0  0
   -3.6354    0.6566    0.7189 H   0  0  0  0  0  0  0  0  0  0  0  0
   -1.3632    0.1191   -0.1058 C   0  0  0  0  0  0  0  0  0  0  0  0
   -2.9147   -1.5306   -1.1664 H   0  0  0  0  0  0  0  0  0  0  0  0
   -2.6045   -0.9569    0.4488 H   0  0  0  0  0  0  0  0  0  0  0  0
   -0.1758   -0.6677    0.1357 C   0  0  0  0  0  0  0  0  0  0  0  0
   -1.5295    0.7930    0.8067 H   0  0  0  0  0  0  0  0  0  0  0  0
   -1.3113    0.6360   -1.0212 H   0  0  0  0  0  0  0  0  0  0  0  0
   -0.4075   -1.1990    0.9912 H   0  0  0  0  0  0  0  0  0  0  0  0
    0.7989    0.0557    0.3175 H   0  0  0  0  0  0  0  0  0  0  0  0
    0.1618   -1.0569   -0.4249 H   0  0  0  0  0  0  0  0  0  0  0  0
  1  3  1  0  0  0  0
  1  5  1  0  0  0  0
  2  1  1  0  0  0  0
  6  2  1  0  0  0  0
  6  9  1  0  0  0  0
  6 10  1  0  0  0  0
  7  2  1  0  0  0  0
  9 13  1  0  0  0  0
  9 12  1  0  0  0  0
 11  6  1  0  0  0  0
 14  9  1  0  0  0  0
M  RAD  4   1   2   2   2   4   2   8   2
M  END
$$$$
