butane_opt
 OpenBabel08242015393D

 14 10  0  0  0  0  0  0  0  0999 V2000
   -4.0198    0.1973    0.0185 C   0  0  0  0  0  0  0  0  0  0  0  0
   -2.7257   -0.5764   -0.0693 C   0  0  0  0  0  0  0  0  0  0  0  0
   -4.7392   -0.3458    0.0076 H   0  0  0  0  0  0  0  0  0  0  0  0
   -3.9212    0.3384   -0.5277 H   0  0  0  0  0  0  0  0  0  0  0  0
   -3.8429    1.2174    1.0843 H   0  0  0  0  0  0  0  0  0  0  0  0
   -1.4098    0.2969    0.0398 C   0  0  0  0  0  0  0  0  0  0  0  0
   -2.7920   -1.0718   -0.8728 H   0  0  0  0  0  0  0  0  0  0  0  0
   -2.6567   -1.2129    0.9546 H   0  0  0  0  0  0  0  0  0  0  0  0
   -0.0971   -0.7595    0.0443 C   0  0  0  0  0  0  0  0  0  0  0  0
   -1.3498    0.8673    0.8734 H   0  0  0  0  0  0  0  0  0  0  0  0
   -1.3606    0.9585   -0.8052 H   0  0  0  0  0  0  0  0  0  0  0  0
    0.1476   -1.8946    1.2889 H   0  0  0  0  0  0  0  0  0  0  0  0
    0.7308   -0.3306   -0.5129 H   0  0  0  0  0  0  0  0  0  0  0  0
   -0.1852   -0.9061   -0.3601 H   0  0  0  0  0  0  0  0  0  0  0  0
  1  5  1  0  0  0  0
  2  1  1  0  0  0  0
  2  6  1  0  0  0  0
  2  8  1  0  0  0  0
  3  1  1  0  0  0  0
  6  9  1  0  0  0  0
  6 10  1  0  0  0  0
  7  2  1  0  0  0  0
 11  6  1  0  0  0  0
 13  9  1  0  0  0  0
M  RAD  5   1   2   4   2   9   3  12   2  14   2
M  END
$$$$
