butane_opt
 OpenBabel08242015393D

 14 11  0  0  0  0  0  0  0  0999 V2000
   -3.8377    0.2446   -0.0131 C   0  0  0  0  0  0  0  0  0  0  0  0
   -2.7329   -0.6054    0.1189 C   0  0  0  0  0  0  0  0  0  0  0  0
   -4.8908   -0.4622    0.1551 H   0  0  0  0  0  0  0  0  0  0  0  0
   -4.0519    0.9010   -1.0008 H   0  0  0  0  0  0  0  0  0  0  0  0
   -3.8063    0.6123    0.6008 H   0  0  0  0  0  0  0  0  0  0  0  0
   -1.4519    0.2626   -0.0028 C   0  0  0  0  0  0  0  0  0  0  0  0
   -2.9445   -1.2247   -0.7930 H   0  0  0  0  0  0  0  0  0  0  0  0
   -2.6296   -1.3018    1.1930 H   0  0  0  0  0  0  0  0  0  0  0  0
   -0.1540   -0.7326    0.0352 C   0  0  0  0  0  0  0  0  0  0  0  0
   -1.7150    0.9398    0.7333 H   0  0  0  0  0  0  0  0  0  0  0  0
   -1.5350    1.0594   -1.0468 H   0  0  0  0  0  0  0  0  0  0  0  0
   -0.1011   -0.7652    0.6045 H   0  0  0  0  0  0  0  0  0  0  0  0
    0.7096   -0.1828    0.6272 H   0  0  0  0  0  0  0  0  0  0  0  0
    0.0634   -2.1369   -1.4006 H   0  0  0  0  0  0  0  0  0  0  0  0
  1  2  1  0  0  0  0
  1  3  1  0  0  0  0
  1  5  1  0  0  0  0
  2  8  1  0  0  0  0
  4  1  1  0  0  0  0
  6  9  1  0  0  0  0
  6  2  1  0  0  0  0
  6 10  1  0  0  0  0
  7  2  1  0  0  0  0
  9 13  1  0  0  0  0
 11  6  1  0  0  0  0
M  RAD  3   9   3  12   2  14   2
M  END
$$$$
