14
butane_opt
C  -3.931783   0.311767  -0.031328
C  -2.620842  -0.657529   0.150420
H  -4.671108  -0.049100   0.045069
H  -3.738652   0.999783  -0.979705
H  -4.336206   0.780984   0.721133
C  -1.371425   0.086154   0.009419
H  -2.603417  -1.591736  -0.751921
H  -2.624810  -1.242254   1.084935
C  -0.257871  -0.604767  -0.000637
H  -1.460709   0.804570   0.950888
H  -1.383918   0.791105  -0.940623
H  -0.360099  -0.932141   0.725604
H   0.611823   0.026872   0.231952
H  -0.310427  -1.671178  -1.223398
