butane_opt
 OpenBabel08242015393D

 14 10  0  0  0  0  0  0  0  0999 V2000
   -3.9145    0.2690    0.2053 C   0  0  0  0  0  1  0  0  0  0  0  0
   -2.6130   -0.6545   -0.0728 C   0  0  0  0  0  0  0  0  0  0  0  0
   -4.7388   -0.3634   -0.8701 H   0  0  0  0  0  0  0  0  0  0  0  0
   -3.6788    0.3187   -0.3704 H   0  0  0  0  0  0  0  0  0  0  0  0
   -4.1880    1.5444    1.4419 H   0  0  0  0  0  0  0  0  0  0  0  0
   -1.4670    0.1943   -0.1564 C   0  0  0  0  0  0  0  0  0  0  0  0
   -2.8264   -1.5088   -0.9539 H   0  0  0  0  0  0  0  0  0  0  0  0
   -2.4674   -1.0563    0.6362 H   0  0  0  0  0  0  0  0  0  0  0  0
   -0.2480   -0.6984    0.1879 C   0  0  0  0  0  0  0  0  0  0  0  0
   -1.3493    0.6296    0.4894 H   0  0  0  0  0  0  0  0  0  0  0  0
   -1.3730    1.2349   -1.4057 H   0  0  0  0  0  0  0  0  0  0  0  0
   -0.2243   -1.7404    1.2558 H   0  0  0  0  0  0  0  0  0  0  0  0
    0.8300    0.1620   -0.1991 H   0  0  0  0  0  0  0  0  0  0  0  0
   -0.1249   -1.0059   -0.4669 H   0  0  0  0  0  0  0  0  0  0  0  0
  2  8  1  0  0  0  0
  3  1  1  0  0  0  0
  4  2  1  0  0  0  0
  6  2  1  0  0  0  0
  6  9  1  0  0  0  0
  6 10  1  0  0  0  0
  7  2  1  0  0  0  0
  9 12  1  0  0  0  0
 13  9  1  0  0  0  0
 14  9  1  0  0  0  0
M  RAD  3   5   2   6   2  11   2
M  END
$$$$
