14
butane_opt
C  -3.989761   0.252319  -0.121630
C  -2.744133  -0.644528   0.132266
H  -4.791116  -0.221399   0.450198
H  -4.190424   1.782939  -1.505040
H  -3.987180   0.238248   0.305466
C  -1.384856   0.171913   0.215337
H  -2.654994  -1.239896  -0.621644
H  -2.575629  -1.116556   0.948826
C  -0.083238  -0.704318  -0.084509
H  -1.245728   1.035142   1.354152
H  -1.531901   0.634027  -0.489498
H   0.045826  -0.984637   0.670315
H   0.876190  -0.016419  -0.246487
H  -0.529240  -1.485384  -1.250912
