butane_opt
 OpenBabel08242015393D

 14 11  0  0  0  0  0  0  0  0999 V2000
   -3.8556    0.2401   -0.0991 C   0  0  0  0  0  0  0  0  0  0  0  0
   -2.7124   -0.5668    0.2376 C   0  0  0  0  0  0  0  0  0  0  0  0
   -4.6730   -0.3791    0.0180 H   0  0  0  0  0  0  0  0  0  0  0  0
   -3.5662    1.1580   -1.2167 H   0  0  0  0  0  0  0  0  0  0  0  0
   -4.4031    0.3404    0.4152 H   0  0  0  0  0  0  0  0  0  0  0  0
   -1.4937    0.2123    0.1357 C   0  0  0  0  0  0  0  0  0  0  0  0
   -2.6682   -1.2346   -0.6211 H   0  0  0  0  0  0  0  0  0  0  0  0
   -2.8398   -1.2729    1.2799 H   0  0  0  0  0  0  0  0  0  0  0  0
   -0.1551   -0.7118   -0.1321 C   0  0  0  0  0  0  0  0  0  0  0  0
   -1.3246    0.9708    1.0022 H   0  0  0  0  0  0  0  0  0  0  0  0
   -1.4022    0.7833   -0.7651 H   0  0  0  0  0  0  0  0  0  0  0  0
   -0.1926   -0.7846    0.4566 H   0  0  0  0  0  0  0  0  0  0  0  0
    0.7226   -0.2090    0.4703 H   0  0  0  0  0  0  0  0  0  0  0  0
   -0.0577   -1.9487   -1.3822 H   0  0  0  0  0  0  0  0  0  0  0  0
  1  3  1  0  0  0  0
  1  2  1  0  0  0  0
  1  5  1  0  0  0  0
  2  8  1  0  0  0  0
  4  1  1  0  0  0  0
  6  2  1  0  0  0  0
  6 10  1  0  0  0  0
  7  2  1  0  0  0  0
  9  6  1  0  0  0  0
  9 13  1  0  0  0  0
 11  6  1  0  0  0  0
M  RAD  3   9   3  12   2  14   2
M  END
$$$$
