14
butane_opt
C  -3.907630   0.289890   0.140658
C  -2.627626  -0.654865  -0.153253
H  -4.789551  -0.408817   0.013086
H  -4.313524   0.627326  -0.559119
H  -3.995539   1.353614   1.306241
C  -1.408479   0.139377  -0.080840
H  -2.607997  -1.459055  -1.093030
H  -2.286434  -1.093179   0.572751
C  -0.267243  -0.638960   0.126549
H  -1.311676   0.713773   0.849483
H  -1.303988   0.725133  -0.968046
H  -0.160657  -2.102992   1.447697
H   0.574137  -0.018584  -0.313928
H  -0.262514  -0.410477  -0.088302
