14
butane_opt
C  -3.936331   0.190498   0.146794
C  -2.742138  -0.585476  -0.083956
H  -4.738064  -0.237265  -0.094123
H  -3.807413   0.608160  -0.570907
H  -4.120587   1.155524   1.273249
C  -1.411392   0.245519  -0.112357
H  -3.018529  -1.199695  -0.903528
H  -2.660244  -0.925247   0.655545
C  -0.131991  -0.760069   0.124870
H  -1.531540   0.923846   0.535546
H  -1.116316   1.065955  -1.155016
H  -0.107618  -1.608909   1.310195
H   0.692467  -0.233697   0.102638
H   0.072884  -1.161014  -0.569949
