14
butane_opt
C  -3.962246   0.188201  -0.104991
C  -2.743702  -0.602151   0.210436
H  -4.894809  -0.441664  -0.558332
H  -3.536230   0.753938  -1.065019
H  -4.408267   0.944634   0.732140
C  -1.456371   0.286643   0.188670
H  -2.656559  -0.952006  -0.487403
H  -2.813673  -1.113043   1.134473
C  -0.064170  -0.733257  -0.102271
H  -1.069986   0.965300   0.978623
H  -1.570557   0.909256  -0.766160
H   0.250203  -1.359340   0.791604
H   0.465390  -0.444363  -0.395307
H  -0.022358  -1.506032  -1.214837
