butane_opt
 OpenBabel08242015393D

 14 12  0  0  0  0  0  0  0  0999 V2000
   -4.0064    0.3068   -0.1503 C   0  0  0  0  0  0  0  0  0  0  0  0
   -2.6947   -0.6722    0.2190 C   0  0  0  0  0  0  0  0  0  0  0  0
   -4.8602   -0.1190   -0.0644 H   0  0  0  0  0  0  0  0  0  0  0  0
   -3.8040    1.0500   -1.2298 H   0  0  0  0  0  0  0  0  0  0  0  0
   -4.5135    0.9089    0.5576 H   0  0  0  0  0  0  0  0  0  0  0  0
   -1.3545    0.1285    0.2459 C   0  0  0  0  0  0  0  0  0  0  0  0
   -2.4038   -1.3602   -0.6782 H   0  0  0  0  0  0  0  0  0  0  0  0
   -2.6612   -1.2415    1.0692 H   0  0  0  0  0  0  0  0  0  0  0  0
   -0.1824   -0.6643   -0.1763 C   0  0  0  0  0  0  0  0  0  0  0  0
   -1.2291    0.8461    1.1078 H   0  0  0  0  0  0  0  0  0  0  0  0
   -1.4872    0.6168   -0.4122 H   0  0  0  0  0  0  0  0  0  0  0  0
   -0.0200   -1.4746    0.8604 H   0  0  0  0  0  0  0  0  0  0  0  0
    1.1570    0.2766   -0.4278 H   0  0  0  0  0  0  0  0  0  0  0  0
   -0.3746   -1.1104   -0.9704 H   0  0  0  0  0  0  0  0  0  0  0  0
  1  3  1  0  0  0  0
  1  2  1  0  0  0  0
  1  5  1  0  0  0  0
  2  6  1  0  0  0  0
  2  8  1  0  0  0  0
  4  1  1  0  0  0  0
  6 10  1  0  0  0  0
  7  2  1  0  0  0  0
  9  6  1  0  0  0  0
  9 12  1  0  0  0  0
 11  6  1  0  0  0  0
 14  9  1  0  0  0  0
M  RAD  2   9   2  13   2
M  END
$$$$
