14
butane_opt
C  -3.917873   0.273567  -0.082930
C  -2.668524  -0.581842   0.211261
H  -4.730890  -0.323815  -0.661989
H  -3.568416   0.501265  -0.728326
H  -4.216886   1.384906   0.936884
C  -1.400277   0.109806   0.079920
H  -2.593627  -1.184356  -0.654096
H  -2.775292  -1.456009   1.151875
C  -0.214110  -0.671351  -0.050103
H  -1.732571   0.713650   0.730028
H  -1.470201   0.785306  -0.761886
H   0.112299  -1.207275   0.697605
H   0.936809   0.108838  -0.178945
H  -0.608473  -1.320326  -0.940370
