butane_opt
 OpenBabel08242015393D

 14 13  0  0  0  0  0  0  0  0999 V2000
   -3.9742    0.3111    0.1334 C   0  0  0  0  0  0  0  0  0  0  0  0
   -2.6733   -0.7205   -0.1723 C   0  0  0  0  0  0  0  0  0  0  0  0
   -4.8622   -0.1530    0.5853 H   0  0  0  0  0  0  0  0  0  0  0  0
   -4.6467    1.0086   -0.6863 H   0  0  0  0  0  0  0  0  0  0  0  0
   -3.5200    1.0036    1.0877 H   0  0  0  0  0  0  0  0  0  0  0  0
   -1.4283    0.1415   -0.1194 C   0  0  0  0  0  0  0  0  0  0  0  0
   -2.7926   -1.3691   -1.0060 H   0  0  0  0  0  0  0  0  0  0  0  0
   -2.5159   -1.2190    0.6422 H   0  0  0  0  0  0  0  0  0  0  0  0
   -0.1690   -0.6558    0.1766 C   0  0  0  0  0  0  0  0  0  0  0  0
   -1.3742    0.9543    0.7053 H   0  0  0  0  0  0  0  0  0  0  0  0
   -1.0892    0.8674   -1.1092 H   0  0  0  0  0  0  0  0  0  0  0  0
   -0.1400   -1.3912    1.1625 H   0  0  0  0  0  0  0  0  0  0  0  0
    0.9086    0.1455    0.1957 H   0  0  0  0  0  0  0  0  0  0  0  0
   -0.0852   -1.2117   -0.3615 H   0  0  0  0  0  0  0  0  0  0  0  0
  1  3  1  0  0  0  0
  1  5  1  0  0  0  0
  2  6  1  0  0  0  0
  2  1  1  0  0  0  0
  2  8  1  0  0  0  0
  4  1  1  0  0  0  0
  6  9  1  0  0  0  0
  6 10  1  0  0  0  0
  7  2  1  0  0  0  0
  9 13  1  0  0  0  0
  9 12  1  0  0  0  0
 11  6  1  0  0  0  0
 14  9  1  0  0  0  0
M  END
$$$$
