butane_opt
 OpenBabel08242015393D

 14 10  0  0  0  0  0  0  0  0999 V2000
   -3.9514    0.3144   -0.0468 C   0  0  0  0  0  1  0  0  0  0  0  0
   -2.6540   -0.6788    0.0495 C   0  0  0  0  0  0  0  0  0  0  0  0
   -4.7813   -0.2814    0.6814 H   0  0  0  0  0  0  0  0  0  0  0  0
   -4.0354    1.7423   -1.4162 H   0  0  0  0  0  0  0  0  0  0  0  0
   -3.6531    0.3151    0.3243 H   0  0  0  0  0  0  0  0  0  0  0  0
   -1.4195    0.0935    0.1401 C   0  0  0  0  0  0  0  0  0  0  0  0
   -2.5625   -1.1284   -0.5340 H   0  0  0  0  0  0  0  0  0  0  0  0
   -2.7260   -1.4110    0.9688 H   0  0  0  0  0  0  0  0  0  0  0  0
   -0.1912   -0.6260   -0.0386 C   0  0  0  0  0  0  0  0  0  0  0  0
   -1.5281    1.1210    1.1549 H   0  0  0  0  0  0  0  0  0  0  0  0
   -1.5991    0.4062   -0.6089 H   0  0  0  0  0  0  0  0  0  0  0  0
   -0.3784   -0.8700    0.5729 H   0  0  0  0  0  0  0  0  0  0  0  0
    0.9524    0.0935    0.1027 H   0  0  0  0  0  0  0  0  0  0  0  0
   -0.1958   -1.6313   -1.1790 H   0  0  0  0  0  0  0  0  0  0  0  0
  1  3  1  0  0  0  0
  2  6  1  0  0  0  0
  2  5  1  0  0  0  0
  2  8  1  0  0  0  0
  6 10  1  0  0  0  0
  7  2  1  0  0  0  0
  9 13  1  0  0  0  0
  9  6  1  0  0  0  0
  9 12  1  0  0  0  0
 11  6  1  0  0  0  0
M  RAD  3   4   2   9   2  14   2
M  END
$$$$
