butane_opt
 OpenBabel08242015393D

 14 12  0  0  0  0  0  0  0  0999 V2000
   -3.9523    0.2921    0.0716 C   0  0  0  0  0  0  0  0  0  0  0  0
   -2.7434   -0.6301   -0.0203 C   0  0  0  0  0  0  0  0  0  0  0  0
   -4.9079   -0.2949   -0.4759 H   0  0  0  0  0  0  0  0  0  0  0  0
   -3.9299    0.4479   -0.6126 H   0  0  0  0  0  0  0  0  0  0  0  0
   -4.2699    1.3309    1.2267 H   0  0  0  0  0  0  0  0  0  0  0  0
   -1.3476    0.1890   -0.0430 C   0  0  0  0  0  0  0  0  0  0  0  0
   -2.7048   -1.2031   -0.7174 H   0  0  0  0  0  0  0  0  0  0  0  0
   -2.5561   -1.4660    0.8693 H   0  0  0  0  0  0  0  0  0  0  0  0
   -0.1925   -0.6793    0.0989 C   0  0  0  0  0  0  0  0  0  0  0  0
   -1.1837    0.8301    0.7542 H   0  0  0  0  0  0  0  0  0  0  0  0
   -1.3007    0.8467   -1.0081 H   0  0  0  0  0  0  0  0  0  0  0  0
    0.0428   -1.5675    1.2080 H   0  0  0  0  0  0  0  0  0  0  0  0
    0.8085   -0.0976   -0.4128 H   0  0  0  0  0  0  0  0  0  0  0  0
   -0.1979   -1.3457   -0.6284 H   0  0  0  0  0  0  0  0  0  0  0  0
  2  1  1  0  0  0  0
  2  8  1  0  0  0  0
  3  1  1  0  0  0  0
  4  1  1  0  0  0  0
  6  2  1  0  0  0  0
  6  9  1  0  0  0  0
  6 10  1  0  0  0  0
  7  2  1  0  0  0  0
  9 12  1  0  0  0  0
 11  6  1  0  0  0  0
 13  9  1  0  0  0  0
 14  9  1  0  0  0  0
M  RAD  2   1   2   5   2
M  END
$$$$
