butane_opt
 OpenBabel08242015393D

 14  9  0  0  0  0  0  0  0  0999 V2000
   -3.9574    0.2978    0.0851 C   0  0  0  0  0  0  0  0  0  0  0  0
   -2.6074   -0.6704   -0.0871 C   0  0  0  0  0  0  0  0  0  0  0  0
   -4.7421   -0.2492   -0.1794 H   0  0  0  0  0  0  0  0  0  0  0  0
   -3.9056    0.6874   -0.6317 H   0  0  0  0  0  0  0  0  0  0  0  0
   -4.1933    1.1070    1.1014 H   0  0  0  0  0  0  0  0  0  0  0  0
   -1.3854    0.1454   -0.0004 C   0  0  0  0  0  0  0  0  0  0  0  0
   -2.9455   -1.3883   -0.9847 H   0  0  0  0  0  0  0  0  0  0  0  0
   -2.4272   -1.2201    0.6985 H   0  0  0  0  0  0  0  0  0  0  0  0
   -0.2601   -0.6616    0.0905 C   0  0  0  0  0  1  0  0  0  0  0  0
   -1.3912    1.1222    1.0802 H   0  0  0  0  0  0  0  0  0  0  0  0
   -1.2985    0.6629   -0.9456 H   0  0  0  0  0  0  0  0  0  0  0  0
    0.0216   -1.9351    1.3831 H   0  0  0  0  0  0  0  0  0  0  0  0
    0.6034    0.0102   -0.8858 H   0  0  0  0  0  0  0  0  0  0  0  0
   -0.2501   -0.5690   -0.2013 H   0  0  0  0  0  0  0  0  0  0  0  0
  1  5  1  0  0  0  0
  2  1  1  0  0  0  0
  2  8  1  0  0  0  0
  3  1  1  0  0  0  0
  4  1  1  0  0  0  0
  7  2  1  0  0  0  0
 11  6  1  0  0  0  0
 13  9  1  0  0  0  0
 14  6  1  0  0  0  0
M  RAD  4   2   2   6   3  10   2  12   2
M  END
$$$$
