14
butane_opt
C  -4.056862   0.343433   0.101112
C  -2.701312  -0.706639   0.019767
H  -4.906410  -0.257211  -0.728185
H  -3.936777   0.420922  -0.481170
H  -4.359424   1.331781   1.340684
C  -1.339925   0.085071  -0.117712
H  -2.506622  -1.135134  -0.684307
H  -2.630690  -1.230792   0.931198
C  -0.142769  -0.615477   0.059018
H  -1.291523   0.863389   0.777078
H  -1.388324   0.739316  -1.061069
H  -0.196861  -1.469795   1.112904
H   0.765130   0.047444   0.065409
H   0.271889  -1.065603  -0.520786
