butane_opt
 OpenBabel08242015393D

 14 13  0  0  0  0  0  0  0  0999 V2000
   -3.9165    0.2049    0.0020 C   0  0  0  0  0  0  0  0  0  0  0  0
   -2.7389   -0.5773    0.0883 C   0  0  0  0  0  0  0  0  0  0  0  0
   -4.8977   -0.3602   -0.0842 H   0  0  0  0  0  0  0  0  0  0  0  0
   -4.0305    0.9624   -0.9872 H   0  0  0  0  0  0  0  0  0  0  0  0
   -4.0526    0.5046    0.5640 H   0  0  0  0  0  0  0  0  0  0  0  0
   -1.4031    0.3192    0.0673 C   0  0  0  0  0  0  0  0  0  0  0  0
   -2.7497   -1.5242   -0.8938 H   0  0  0  0  0  0  0  0  0  0  0  0
   -2.8863   -0.9089    0.8669 H   0  0  0  0  0  0  0  0  0  0  0  0
   -0.1072   -0.7707   -0.0014 C   0  0  0  0  0  0  0  0  0  0  0  0
   -1.5088    1.0612    0.9496 H   0  0  0  0  0  0  0  0  0  0  0  0
   -1.5507    0.8137   -0.7346 H   0  0  0  0  0  0  0  0  0  0  0  0
    0.2596   -1.5556    0.9907 H   0  0  0  0  0  0  0  0  0  0  0  0
    0.6603   -0.2111   -0.3696 H   0  0  0  0  0  0  0  0  0  0  0  0
   -0.2450   -1.3912   -0.7614 H   0  0  0  0  0  0  0  0  0  0  0  0
  1  2  1  0  0  0  0
  1  5  1  0  0  0  0
  2  8  1  0  0  0  0
  3  1  1  0  0  0  0
  4  1  1  0  0  0  0
  6  2  1  0  0  0  0
  6 10  1  0  0  0  0
  7  2  1  0  0  0  0
  9  6  1  0  0  0  0
  9 12  1  0  0  0  0
 11  6  1  0  0  0  0
 13  9  1  0  0  0  0
 14  9  1  0  0  0  0
M  END
$$$$
