14
butane_opt
C  -4.052884   0.314380   0.107797
C  -2.651887  -0.671228  -0.015909
H  -4.948965  -0.288624  -0.681849
H  -4.092664   0.056717  -0.193549
H  -4.200353   1.579289   1.419850
C  -1.384896   0.169914  -0.114042
H  -2.570172  -1.439452  -0.996817
H  -2.594608  -1.031587   0.753399
C  -0.138259  -0.657651   0.152811
H  -1.131140   0.411131   0.374310
H  -1.248586   1.063218  -1.282531
H  -0.065726  -1.621615   1.321400
H   0.810060   0.067936  -0.305663
H  -0.239961  -1.151064  -0.423357
