butane_opt
 OpenBabel08242015393D

 14 13  0  0  0  0  0  0  0  0999 V2000
   -4.0061    0.3172    0.0720 C   0  0  0  0  0  0  0  0  0  0  0  0
   -2.7363   -0.6799    0.0266 C   0  0  0  0  0  0  0  0  0  0  0  0
   -4.7586   -0.0984    0.1523 H   0  0  0  0  0  0  0  0  0  0  0  0
   -4.1393    1.0581   -0.7574 H   0  0  0  0  0  0  0  0  0  0  0  0
   -3.9142    1.0352    1.0681 H   0  0  0  0  0  0  0  0  0  0  0  0
   -1.3480    0.0717   -0.1119 C   0  0  0  0  0  0  0  0  0  0  0  0
   -2.8951   -1.4363   -0.8234 H   0  0  0  0  0  0  0  0  0  0  0  0
   -2.5551   -1.0299    0.5868 H   0  0  0  0  0  0  0  0  0  0  0  0
   -0.1256   -0.6113    0.0955 C   0  0  0  0  0  0  0  0  0  0  0  0
   -1.3942    0.6610    0.6017 H   0  0  0  0  0  0  0  0  0  0  0  0
   -1.4137    0.8215   -1.1146 H   0  0  0  0  0  0  0  0  0  0  0  0
   -0.3646   -1.1788    0.9072 H   0  0  0  0  0  0  0  0  0  0  0  0
    0.9306    0.1089    0.6292 H   0  0  0  0  0  0  0  0  0  0  0  0
   -0.0001   -1.5421   -0.8018 H   0  0  0  0  0  0  0  0  0  0  0  0
  1  3  1  0  0  0  0
  1  5  1  0  0  0  0
  2  1  1  0  0  0  0
  2  8  1  0  0  0  0
  4  1  1  0  0  0  0
  6  2  1  0  0  0  0
  6  9  1  0  0  0  0
  6 10  1  0  0  0  0
  7  2  1  0  0  0  0
  9 13  1  0  0  0  0
  9 12  1  0  0  0  0
 11  6  1  0  0  0  0
 14  9  1  0  0  0  0
M  END
$$$$
