14
butane_opt
C  -3.815486   0.251046   0.143819
C  -2.725454  -0.557104  -0.069469
H  -4.869979  -0.546748  -0.274625
H  -3.773791   0.562865  -0.635110
H  -3.901013   0.877908   0.938144
C  -1.426616   0.218624  -0.035164
H  -2.958193  -1.473686  -1.174942
H  -2.618003  -0.922647   0.670864
C  -0.236245  -0.729607   0.110219
H  -1.683030   1.023866   0.867282
H  -1.255442   0.912962  -1.102878
H   0.078549  -1.964993   1.446626
H   0.528506  -0.356753  -0.591965
H  -0.121334  -0.815482  -0.461830
