14
butane_opt
C  -3.976986   0.308799  -0.135703
C  -2.772478  -0.649725   0.178068
H  -4.756535  -0.098908  -0.224589
H  -3.861249   0.934893  -1.012295
H  -4.323307   0.991114   0.671255
C  -1.356706   0.115247   0.195559
H  -2.536193  -1.220237  -0.579678
H  -2.881520  -1.459069   1.128060
C  -0.088202  -0.647355  -0.143963
H  -1.033016   0.879036   1.182595
H  -1.653849   0.558974  -0.465369
H  -0.087555  -1.310475   0.937995
H   0.864439  -0.185396  -0.434694
H  -0.431869  -1.055660  -0.851771
