14
butane_opt
C  -3.955266   0.172918   0.125391
C  -2.761920  -0.587863  -0.098244
H  -4.717945  -0.328590  -0.052100
H  -3.743457   0.720751  -0.596778
H  -4.056834   1.146921   1.201141
C  -1.419595   0.328659  -0.041338
H  -2.701219  -1.644783  -1.222217
H  -2.717339  -0.917018   0.588326
C  -0.104100  -0.786296   0.142850
H  -1.464525   0.954216   0.574969
H  -1.475270   1.064791  -0.944952
H   0.316714  -2.025807   1.449265
H   0.713891  -0.177482  -0.651507
H  -0.258737  -0.800352  -0.326350
