butane_opt
 OpenBabel08242015393D

 14 13  0  0  0  0  0  0  0  0999 V2000
   -3.9341    0.3351   -0.0951 C   0  0  0  0  0  0  0  0  0  0  0  0
   -2.6910   -0.6614    0.2085 C   0  0  0  0  0  0  0  0  0  0  0  0
   -4.7967   -0.2189   -0.5847 H   0  0  0  0  0  0  0  0  0  0  0  0
   -3.8167    0.8270   -0.9635 H   0  0  0  0  0  0  0  0  0  0  0  0
   -4.1855    1.1876    0.8100 H   0  0  0  0  0  0  0  0  0  0  0  0
   -1.3743    0.0398    0.1174 C   0  0  0  0  0  0  0  0  0  0  0  0
   -2.4099   -1.3181   -0.5878 H   0  0  0  0  0  0  0  0  0  0  0  0
   -2.9229   -1.3463    1.3178 H   0  0  0  0  0  0  0  0  0  0  0  0
   -0.1768   -0.6128   -0.0721 C   0  0  0  0  0  0  0  0  0  0  0  0
   -1.3975    0.7756    0.9775 H   0  0  0  0  0  0  0  0  0  0  0  0
   -1.3493    0.8194   -0.8213 H   0  0  0  0  0  0  0  0  0  0  0  0
   -0.0612   -0.9444    0.6405 H   0  0  0  0  0  0  0  0  0  0  0  0
    0.7897   -0.1227   -0.2328 H   0  0  0  0  0  0  0  0  0  0  0  0
   -0.7550   -1.3441   -1.0272 H   0  0  0  0  0  0  0  0  0  0  0  0
  1  2  1  0  0  0  0
  1  5  1  0  0  0  0
  2  8  1  0  0  0  0
  3  1  1  0  0  0  0
  4  1  1  0  0  0  0
  6  2  1  0  0  0  0
  6 10  1  0  0  0  0
  7  2  1  0  0  0  0
  9  6  1  0  0  0  0
  9 12  1  0  0  0  0
 11  6  1  0  0  0  0
 13  9  1  0  0  0  0
 14  9  1  0  0  0  0
M  END
$$$$
