14
butane_opt
C  -3.973452   0.196256  -0.098918
C  -2.721294  -0.500766   0.222381
H  -4.799311  -0.335264  -0.286691
H  -3.897707   0.594522  -0.945181
H  -4.114540   0.977635   0.750810
C  -1.448339   0.225887   0.027567
H  -2.676408  -1.098693  -0.549649
H  -2.975731  -1.583960   1.406060
C  -0.079803  -0.756398  -0.055432
H  -1.146604   0.929555   1.102539
H  -1.681678   0.766687  -0.755699
H  -0.196436  -0.875623   0.446914
H   0.815509   0.006164   0.256443
H   0.320310  -1.819120  -1.168024
