14
butane_opt
C  -3.951739   0.246025   0.020382
C  -2.705176  -0.598984   0.047542
H  -4.871046  -0.343259  -0.071780
H  -3.880024   0.780400  -0.842027
H  -4.020297   1.023614   0.962698
C  -1.403147   0.195555  -0.004255
H  -2.714341  -1.247725  -0.803242
H  -2.694392  -1.249553   0.959828
C  -0.152777  -0.701968   0.026097
H  -1.405240   0.906612   0.877283
H  -1.382022   0.833150  -0.901325
H  -0.135087  -1.377210   0.967029
H   0.731459  -0.140094   0.021278
H  -0.089799  -1.355426  -0.794430
