butane_opt
 OpenBabel08242015393D

 14 10  0  0  0  0  0  0  0  0999 V2000
   -4.0423    0.3231   -0.0341 C   0  0  0  0  0  0  0  0  0  0  0  0
   -2.7231   -0.6648    0.1616 C   0  0  0  0  0  0  0  0  0  0  0  0
   -4.7808   -0.1053    0.0898 H   0  0  0  0  0  0  0  0  0  0  0  0
   -3.9014    1.2186   -1.0325 H   0  0  0  0  0  0  0  0  0  0  0  0
   -4.1428    0.7037    0.7009 H   0  0  0  0  0  0  0  0  0  0  0  0
   -1.2956    0.1034    0.0298 C   0  0  0  0  0  0  0  0  0  0  0  0
   -2.7569   -1.3605   -0.5660 H   0  0  0  0  0  0  0  0  0  0  0  0
   -2.7914   -1.4011    1.0271 H   0  0  0  0  0  0  0  0  0  0  0  0
   -0.1284   -0.6537   -0.0818 C   0  0  0  0  0  0  0  0  0  0  0  0
   -1.4308    0.9812    0.9472 H   0  0  0  0  0  0  0  0  0  0  0  0
   -1.3530    0.8488   -1.0104 H   0  0  0  0  0  0  0  0  0  0  0  0
   -0.5825   -0.8534    0.5170 H   0  0  0  0  0  0  0  0  0  0  0  0
    0.9320    0.0219    0.8780 H   0  0  0  0  0  0  0  0  0  0  0  0
    0.0097   -1.7835   -1.0780 H   0  0  0  0  0  0  0  0  0  0  0  0
  1  3  1  0  0  0  0
  1  2  1  0  0  0  0
  1  5  1  0  0  0  0
  2  8  1  0  0  0  0
  4  1  1  0  0  0  0
  6 10  1  0  0  0  0
  7  2  1  0  0  0  0
  9 12  1  0  0  0  0
 11  6  1  0  0  0  0
 14  9  1  0  0  0  0
M  RAD  4   2   2   6   3   9   3  13   2
M  END
$$$$
