butane_opt
 OpenBabel08242015393D

 14 11  0  0  0  0  0  0  0  0999 V2000
   -3.8659    0.1886   -0.1250 C   0  0  0  0  0  0  0  0  0  0  0  0
   -2.6968   -0.5093    0.2635 C   0  0  0  0  0  0  0  0  0  0  0  0
   -5.0673   -0.7377   -0.1274 H   0  0  0  0  0  0  0  0  0  0  0  0
   -3.5262    0.9575   -1.1094 H   0  0  0  0  0  0  0  0  0  0  0  0
   -3.9330    1.0349    0.7074 H   0  0  0  0  0  0  0  0  0  0  0  0
   -1.4741    0.2099    0.0507 C   0  0  0  0  0  0  0  0  0  0  0  0
   -2.5761   -1.0358   -0.4849 H   0  0  0  0  0  0  0  0  0  0  0  0
   -2.8223   -1.4813    1.2413 H   0  0  0  0  0  0  0  0  0  0  0  0
   -0.1846   -0.7428   -0.0969 C   0  0  0  0  0  0  0  0  0  0  0  0
   -1.1881    1.1615    1.0930 H   0  0  0  0  0  0  0  0  0  0  0  0
   -2.0014    0.7089   -0.7151 H   0  0  0  0  0  0  0  0  0  0  0  0
   -0.1780   -0.8778    0.5074 H   0  0  0  0  0  0  0  0  0  0  0  0
    0.6452   -0.1370    0.4504 H   0  0  0  0  0  0  0  0  0  0  0  0
    0.2916   -1.8692   -1.2385 H   0  0  0  0  0  0  0  0  0  0  0  0
  1  2  1  0  0  0  0
  1  5  1  0  0  0  0
  2  8  1  0  0  0  0
  3  1  1  0  0  0  0
  4  1  1  0  0  0  0
  6  2  1  0  0  0  0
  6 10  1  0  0  0  0
  7  2  1  0  0  0  0
  9  6  1  0  0  0  0
  9 13  1  0  0  0  0
 11  6  1  0  0  0  0
M  RAD  3   9   3  12   2  14   2
M  END
$$$$
