14
butane_opt
C  -4.006147   0.317238   0.071982
C  -2.736307  -0.679878   0.026631
H  -4.758618  -0.098358   0.152259
H  -4.139336   1.058065  -0.757394
H  -3.914241   1.035168   1.068088
C  -1.348028   0.071698  -0.111925
H  -2.895061  -1.436308  -0.823429
H  -2.555095  -1.029876   0.586813
C  -0.125645  -0.611253   0.095526
H  -1.394240   0.660999   0.601650
H  -1.413672   0.821491  -1.114635
H  -0.364561  -1.178835   0.907218
H   0.930627   0.108858   0.629191
H  -0.000140  -1.542062  -0.801771
