14
butane_opt
C  -3.916537   0.204895   0.002016
C  -2.738902  -0.577309   0.088340
H  -4.897656  -0.360225  -0.084190
H  -4.030484   0.962389  -0.987185
H  -4.052639   0.504583   0.564013
C  -1.403095   0.319209   0.067324
H  -2.749703  -1.524197  -0.893779
H  -2.886334  -0.908878   0.866883
C  -0.107204  -0.770694  -0.001398
H  -1.508826   1.061169   0.949589
H  -1.550662   0.813687  -0.734629
H   0.259595  -1.555645   0.990658
H   0.660284  -0.211144  -0.369638
H  -0.244972  -1.391224  -0.761389
