14
butane_opt
C  -3.939500   0.245673   0.194350
C  -2.770717  -0.644808  -0.079212
H  -4.929452  -0.440065   0.147645
H  -3.916525   0.827288  -0.550655
H  -3.858436   1.120974   1.234709
C  -1.392758   0.282320  -0.280366
H  -3.030156  -1.487345  -0.963958
H  -2.243578  -1.004788   0.652044
C  -0.122804  -0.710084   0.226252
H  -1.445927   0.608989   0.439383
H  -1.237346   1.023419  -1.380533
H  -0.376047  -1.097473   0.907459
H   0.523012  -0.417503   0.948656
H   0.233685  -1.721027  -0.744686
