14
butane_opt
C  -3.977290   0.226669   0.064482
C  -2.759216  -0.622430   0.022503
H  -4.879642  -0.432360  -0.518823
H  -3.820937   0.329331  -0.529895
H  -4.127910   1.493620   1.212393
C  -1.410824   0.277112  -0.029746
H  -2.700967  -1.380695  -0.947689
H  -2.575369  -1.330281   0.943423
C  -0.114862  -0.750073   0.033385
H  -1.224444   0.975882   0.639946
H  -1.522153   1.088740  -1.069924
H   0.223285  -1.699776   1.157109
H   0.614526  -0.290382   0.007974
H   0.162122  -0.839349  -0.402466
