butane_opt
 OpenBabel08242015393D

 14 12  0  0  0  0  0  0  0  0999 V2000
   -3.8280    0.1807   -0.1325 C   0  0  0  0  0  0  0  0  0  0  0  0
   -2.7260   -0.4829    0.2222 C   0  0  0  0  0  0  0  0  0  0  0  0
   -4.9170   -0.5165   -0.3080 H   0  0  0  0  0  0  0  0  0  0  0  0
   -3.6157    0.8767   -1.0262 H   0  0  0  0  0  0  0  0  0  0  0  0
   -4.0947    0.7613    0.6519 H   0  0  0  0  0  0  0  0  0  0  0  0
   -1.4988    0.2047    0.1736 C   0  0  0  0  0  0  0  0  0  0  0  0
   -2.7655   -1.0140   -0.5056 H   0  0  0  0  0  0  0  0  0  0  0  0
   -2.7071   -1.3565    1.3429 H   0  0  0  0  0  0  0  0  0  0  0  0
   -0.1501   -0.7323   -0.1255 C   0  0  0  0  0  0  0  0  0  0  0  0
   -1.4873    0.9062    0.8965 H   0  0  0  0  0  0  0  0  0  0  0  0
   -1.5033    0.9808   -0.8149 H   0  0  0  0  0  0  0  0  0  0  0  0
    0.0913   -1.1267    0.6754 H   0  0  0  0  0  0  0  0  0  0  0  0
    0.7841   -0.1711    0.2724 H   0  0  0  0  0  0  0  0  0  0  0  0
   -0.3424   -1.9196   -1.4438 H   0  0  0  0  0  0  0  0  0  0  0  0
  1  2  1  0  0  0  0
  1  5  1  0  0  0  0
  2  8  1  0  0  0  0
  3  1  1  0  0  0  0
  4  1  1  0  0  0  0
  6  2  1  0  0  0  0
  6 10  1  0  0  0  0
  7  2  1  0  0  0  0
  9  6  1  0  0  0  0
  9 13  1  0  0  0  0
  9 12  1  0  0  0  0
 11  6  1  0  0  0  0
M  RAD  2   9   2  14   2
M  END
$$$$
