butane_opt
 OpenBabel08242015393D

 14 10  0  0  0  0  0  0  0  0999 V2000
   -3.9739    0.2807   -0.1204 C   0  0  0  0  0  0  0  0  0  0  0  0
   -2.6620   -0.7022    0.2144 C   0  0  0  0  0  0  0  0  0  0  0  0
   -4.6996   -0.1881    0.2097 H   0  0  0  0  0  0  0  0  0  0  0  0
   -3.8460    1.5030   -1.2593 H   0  0  0  0  0  0  0  0  0  0  0  0
   -4.2411    0.8350    0.6805 H   0  0  0  0  0  0  0  0  0  0  0  0
   -1.4447    0.1611    0.1177 C   0  0  0  0  0  0  0  0  0  0  0  0
   -2.6822   -1.2309   -0.5265 H   0  0  0  0  0  0  0  0  0  0  0  0
   -2.8694   -1.6439    1.2028 H   0  0  0  0  0  0  0  0  0  0  0  0
   -0.1270   -0.6364   -0.0817 C   0  0  0  0  0  1  0  0  0  0  0  0
   -1.3142    0.7264    0.9129 H   0  0  0  0  0  0  0  0  0  0  0  0
   -1.4114    0.9190   -0.8532 H   0  0  0  0  0  0  0  0  0  0  0  0
   -0.2299   -0.4380    0.2268 H   0  0  0  0  0  0  0  0  0  0  0  0
    0.8863   -0.0346    0.6640 H   0  0  0  0  0  0  0  0  0  0  0  0
   -0.1527   -2.1167   -1.4657 H   0  0  0  0  0  0  0  0  0  0  0  0
  1  3  1  0  0  0  0
  1  2  1  0  0  0  0
  1  5  1  0  0  0  0
  2  8  1  0  0  0  0
  6  2  1  0  0  0  0
  6 12  1  0  0  0  0
  6 10  1  0  0  0  0
  7  2  1  0  0  0  0
  9 13  1  0  0  0  0
 11  6  1  0  0  0  0
M  RAD  3   1   2   4   2  14   2
M  END
$$$$
