14
butane_opt
C  -4.035952   0.280488  -0.056813
C  -2.695597  -0.648763   0.130636
H  -4.678806  -0.142892   0.503821
H  -4.068692   1.381829  -1.356146
H  -4.137788   0.543180   0.497500
C  -1.333201   0.147287   0.144130
H  -2.656457  -1.521673  -0.873556
H  -2.831815  -1.245180   0.815708
C  -0.120461  -0.664936  -0.077518
H  -1.327541   0.857129   1.028495
H  -1.655982   0.862386  -0.758507
H  -0.309064  -0.979643   0.700498
H   0.842419  -0.098970   0.167472
H  -0.003940  -1.438430  -1.003076
