14
butane_opt
C  -3.982068   0.241590  -0.141038
C  -2.801821  -0.557779   0.118173
H  -5.125405  -0.472002   0.229584
H  -4.037952   1.002471  -1.022982
H  -3.618743   0.585248   0.490232
C  -1.358010   0.273331   0.195335
H  -2.662026  -1.215810  -0.523972
H  -2.881790  -1.287344   1.125281
C  -0.056198  -0.748180  -0.098779
H  -1.384032   0.987310   1.092556
H  -1.525567   0.628360  -0.463751
H   0.308744  -1.459837   0.860493
H   0.655692  -0.395857  -0.239955
H  -0.358092  -1.376693  -1.016245
