butane_opt
 OpenBabel08242015393D

 14 12  0  0  0  0  0  0  0  0999 V2000
   -3.9960    0.2326   -0.1039 C   0  0  0  0  0  0  0  0  0  0  0  0
   -2.7349   -0.5583    0.2104 C   0  0  0  0  0  0  0  0  0  0  0  0
   -5.0245   -0.5079   -0.9135 H   0  0  0  0  0  0  0  0  0  0  0  0
   -3.4578    0.4119   -0.7903 H   0  0  0  0  0  0  0  0  0  0  0  0
   -4.1694    1.0934    0.8647 H   0  0  0  0  0  0  0  0  0  0  0  0
   -1.3460    0.2397    0.1362 C   0  0  0  0  0  0  0  0  0  0  0  0
   -2.7725   -0.8523   -0.2451 H   0  0  0  0  0  0  0  0  0  0  0  0
   -2.6170   -1.3855    1.1553 H   0  0  0  0  0  0  0  0  0  0  0  0
   -0.1132   -0.7618   -0.1224 C   0  0  0  0  0  0  0  0  0  0  0  0
   -1.3837    1.0810    1.0524 H   0  0  0  0  0  0  0  0  0  0  0  0
   -1.5729    0.8149   -0.7726 H   0  0  0  0  0  0  0  0  0  0  0  0
    0.0326   -1.3659    0.8293 H   0  0  0  0  0  0  0  0  0  0  0  0
    0.5369   -0.2416   -0.3021 H   0  0  0  0  0  0  0  0  0  0  0  0
   -0.2836   -1.4132   -0.8883 H   0  0  0  0  0  0  0  0  0  0  0  0
  1  2  1  0  0  0  0
  1  5  1  0  0  0  0
  2  8  1  0  0  0  0
  3  1  1  0  0  0  0
  4  1  1  0  0  0  0
  6  2  1  0  0  0  0
  6 10  1  0  0  0  0
  9  6  1  0  0  0  0
  9 12  1  0  0  0  0
 11  6  1  0  0  0  0
 13  9  1  0  0  0  0
 14  9  1  0  0  0  0
M  RAD  2   2   2   7   2
M  END
$$$$
