14
butane_opt
C  -3.956837   0.310113   0.182993
C  -2.672615  -0.637125  -0.115683
H  -4.789801  -0.115351   0.419719
H  -4.182403   0.603123  -0.447314
H  -3.583201   1.087413   1.188839
C  -1.376624   0.123006  -0.275434
H  -2.759258  -1.422859  -1.041367
H  -2.162191  -1.234236   0.687232
C  -0.229002  -0.668639   0.199149
H  -1.388301   0.651659   0.338196
H  -1.342638   0.797043  -1.176299
H  -0.892827  -1.045980   1.098618
H   0.809688   0.156006   1.022299
H   0.076334  -1.465802  -0.527898
