butane_opt
 OpenBabel08242015393D

 14  7  0  0  0  0  0  0  0  0999 V2000
   -3.8891    0.3036   -0.1119 C   0  0  0  0  0  1  0  0  0  0  0  0
   -2.6690   -0.6438    0.0889 C   0  0  0  0  0  0  0  0  0  0  0  0
   -4.8850   -0.1684    0.9390 H   0  0  0  0  0  0  0  0  0  0  0  0
   -4.3054    1.6369   -1.3969 H   0  0  0  0  0  0  0  0  0  0  0  0
   -3.8280    0.3828    0.4202 H   0  0  0  0  0  0  0  0  0  0  0  0
   -1.3664    0.0961    0.1209 C   0  0  0  0  0  0  0  0  0  0  0  0
   -2.4285   -1.3817   -0.6613 H   0  0  0  0  0  0  0  0  0  0  0  0
   -2.5782   -1.4382    1.0158 H   0  0  0  0  0  0  0  0  0  0  0  0
   -0.2720   -0.6424   -0.0485 C   0  0  0  0  0  0  0  0  0  0  0  0
   -0.9820    1.0311    1.3250 H   0  0  0  0  0  0  0  0  0  0  0  0
   -1.5464    0.5287   -0.5366 H   0  0  0  0  0  0  0  0  0  0  0  0
   -0.3794   -0.8116    0.5218 H   0  0  0  0  0  0  0  0  0  0  0  0
    0.5810   -0.0847    0.2320 H   0  0  0  0  0  0  0  0  0  0  0  0
   -0.2861   -1.5135   -1.0871 H   0  0  0  0  0  0  0  0  0  0  0  0
  1  2  1  0  0  0  0
  2  8  1  0  0  0  0
  7  2  1  0  0  0  0
  9  6  1  0  0  0  0
  9 13  1  0  0  0  0
 11  6  1  0  0  0  0
 14  9  1  0  0  0  0
M  RAD  8   2   2   3   2   4   2   5   2   6   3   9   2  10   2  12   2
M  END
$$$$
