14
butane_opt
C  -3.934330   0.320534  -0.179765
C  -2.614072  -0.683834   0.325884
H  -4.706135  -0.314939  -0.865004
H  -3.754938   0.561725  -0.845949
H  -4.381980   1.396435   0.855640
C  -1.439500   0.145777   0.182091
H  -2.242360  -1.307294  -0.372682
H  -2.880505  -1.390623   1.360861
C  -0.272256  -0.610581  -0.151080
H  -1.154782   0.459097   0.849806
H  -1.302224   0.684170  -0.773587
H   0.085487  -1.152882   0.541982
H   0.724093   0.016225  -0.133314
H  -0.326381  -1.447781  -1.267763
