butane_opt
 OpenBabel08242015393D

 14 13  0  0  0  0  0  0  0  0999 V2000
   -3.8973    0.1961    0.2001 C   0  0  0  0  0  0  0  0  0  0  0  0
   -2.7296   -0.5852   -0.2133 C   0  0  0  0  0  0  0  0  0  0  0  0
   -5.0196   -0.5032    0.8770 H   0  0  0  0  0  0  0  0  0  0  0  0
   -4.4685    1.1994   -0.7695 H   0  0  0  0  0  0  0  0  0  0  0  0
   -3.4934    0.6144    0.9074 H   0  0  0  0  0  0  0  0  0  0  0  0
   -1.4611    0.2993   -0.1425 C   0  0  0  0  0  0  0  0  0  0  0  0
   -2.8691   -1.3894   -1.2494 H   0  0  0  0  0  0  0  0  0  0  0  0
   -2.6058   -1.0681    0.5250 H   0  0  0  0  0  0  0  0  0  0  0  0
   -0.0986   -0.7714    0.1573 C   0  0  0  0  0  0  0  0  0  0  0  0
   -1.7042    0.9389    0.7598 H   0  0  0  0  0  0  0  0  0  0  0  0
   -1.2373    0.9085   -1.0635 H   0  0  0  0  0  0  0  0  0  0  0  0
   -0.2880   -1.4399    1.2652 H   0  0  0  0  0  0  0  0  0  0  0  0
    0.6841   -0.3767    0.5532 H   0  0  0  0  0  0  0  0  0  0  0  0
    0.2801   -1.0573   -0.3959 H   0  0  0  0  0  0  0  0  0  0  0  0
  1  3  1  0  0  0  0
  1  5  1  0  0  0  0
  2  6  1  0  0  0  0
  2  1  1  0  0  0  0
  2  8  1  0  0  0  0
  4  1  1  0  0  0  0
  6  9  1  0  0  0  0
  6 10  1  0  0  0  0
  7  2  1  0  0  0  0
  9 13  1  0  0  0  0
  9 12  1  0  0  0  0
 11  6  1  0  0  0  0
 14  9  1  0  0  0  0
M  END
$$$$
