butane_opt
 OpenBabel08242015393D

 14 12  0  0  0  0  0  0  0  0999 V2000
   -3.8582    0.1945    0.2027 C   0  0  0  0  0  0  0  0  0  0  0  0
   -2.7163   -0.5445   -0.1516 C   0  0  0  0  0  0  0  0  0  0  0  0
   -4.6771   -0.5077   -0.1776 H   0  0  0  0  0  0  0  0  0  0  0  0
   -3.6768    0.5703   -0.5188 H   0  0  0  0  0  0  0  0  0  0  0  0
   -4.0744    1.0264    1.1886 H   0  0  0  0  0  0  0  0  0  0  0  0
   -1.4886    0.2638   -0.1207 C   0  0  0  0  0  0  0  0  0  0  0  0
   -2.8701   -1.4863   -1.0446 H   0  0  0  0  0  0  0  0  0  0  0  0
   -2.7017   -0.8769    0.5155 H   0  0  0  0  0  0  0  0  0  0  0  0
   -0.1255   -0.7066    0.1766 C   0  0  0  0  0  0  0  0  0  0  0  0
   -1.7174    0.7593    0.5983 H   0  0  0  0  0  0  0  0  0  0  0  0
   -1.4851    0.9959   -1.0341 H   0  0  0  0  0  0  0  0  0  0  0  0
    0.0202   -2.0912    1.5721 H   0  0  0  0  0  0  0  0  0  0  0  0
    0.6193   -0.2715   -0.3945 H   0  0  0  0  0  0  0  0  0  0  0  0
   -0.1986   -1.0789   -0.4681 H   0  0  0  0  0  0  0  0  0  0  0  0
  1  5  1  0  0  0  0
  2  6  1  0  0  0  0
  2  1  1  0  0  0  0
  2  8  1  0  0  0  0
  3  1  1  0  0  0  0
  4  1  1  0  0  0  0
  6  9  1  0  0  0  0
  6 10  1  0  0  0  0
  7  2  1  0  0  0  0
 11  6  1  0  0  0  0
 13  9  1  0  0  0  0
 14  9  1  0  0  0  0
M  RAD  2   9   2  12   2
M  END
$$$$
