butane_opt
 OpenBabel08242015393D

 14 13  0  0  0  0  0  0  0  0999 V2000
   -3.9578    0.2600   -0.0153 C   0  0  0  0  0  0  0  0  0  0  0  0
   -2.6983   -0.6167    0.0537 C   0  0  0  0  0  0  0  0  0  0  0  0
   -4.8813   -0.3379    0.1321 H   0  0  0  0  0  0  0  0  0  0  0  0
   -3.9722    0.9726   -0.9584 H   0  0  0  0  0  0  0  0  0  0  0  0
   -3.9106    0.8373    0.7910 H   0  0  0  0  0  0  0  0  0  0  0  0
   -1.4076    0.1997    0.0449 C   0  0  0  0  0  0  0  0  0  0  0  0
   -2.7242   -1.2476   -0.7648 H   0  0  0  0  0  0  0  0  0  0  0  0
   -2.7489   -1.2935    1.0050 H   0  0  0  0  0  0  0  0  0  0  0  0
   -0.1490   -0.6947    0.0101 C   0  0  0  0  0  0  0  0  0  0  0  0
   -1.3663    0.9199    0.9353 H   0  0  0  0  0  0  0  0  0  0  0  0
   -1.4235    0.7444   -0.8012 H   0  0  0  0  0  0  0  0  0  0  0  0
   -0.0281   -1.2773    0.8805 H   0  0  0  0  0  0  0  0  0  0  0  0
    0.7417   -0.1334   -0.0027 H   0  0  0  0  0  0  0  0  0  0  0  0
   -0.1642   -1.4345   -0.9102 H   0  0  0  0  0  0  0  0  0  0  0  0
  1  2  1  0  0  0  0
  1  3  1  0  0  0  0
  1  5  1  0  0  0  0
  2  8  1  0  0  0  0
  4  1  1  0  0  0  0
  6  2  1  0  0  0  0
  6 10  1  0  0  0  0
  7  2  1  0  0  0  0
  9  6  1  0  0  0  0
  9 12  1  0  0  0  0
 11  6  1  0  0  0  0
 13  9  1  0  0  0  0
 14  9  1  0  0  0  0
M  END
$$$$
