butane_opt
 OpenBabel08242015393D

 14 13  0  0  0  0  0  0  0  0999 V2000
   -3.9920    0.2391   -0.1228 C   0  0  0  0  0  0  0  0  0  0  0  0
   -2.7622   -0.5446    0.2018 C   0  0  0  0  0  0  0  0  0  0  0  0
   -4.9868   -0.3432   -0.4569 H   0  0  0  0  0  0  0  0  0  0  0  0
   -3.6447    0.5297   -0.8072 H   0  0  0  0  0  0  0  0  0  0  0  0
   -4.2464    0.8517    0.8187 H   0  0  0  0  0  0  0  0  0  0  0  0
   -1.3268    0.2423    0.1729 C   0  0  0  0  0  0  0  0  0  0  0  0
   -2.6422   -1.1306   -0.4601 H   0  0  0  0  0  0  0  0  0  0  0  0
   -2.9460   -1.3894    1.2068 H   0  0  0  0  0  0  0  0  0  0  0  0
   -0.1407   -0.7598   -0.1181 C   0  0  0  0  0  0  0  0  0  0  0  0
   -1.4552    0.9045    0.8773 H   0  0  0  0  0  0  0  0  0  0  0  0
   -1.3335    1.0096   -0.9027 H   0  0  0  0  0  0  0  0  0  0  0  0
    0.4103   -1.3160    0.7247 H   0  0  0  0  0  0  0  0  0  0  0  0
    0.6533   -0.1869   -0.0012 H   0  0  0  0  0  0  0  0  0  0  0  0
   -0.1817   -1.5588   -1.1419 H   0  0  0  0  0  0  0  0  0  0  0  0
  1  2  1  0  0  0  0
  1  5  1  0  0  0  0
  2  8  1  0  0  0  0
  3  1  1  0  0  0  0
  4  1  1  0  0  0  0
  6  2  1  0  0  0  0
  6 10  1  0  0  0  0
  7  2  1  0  0  0  0
  9 13  1  0  0  0  0
  9  6  1  0  0  0  0
  9 12  1  0  0  0  0
 11  6  1  0  0  0  0
 14  9  1  0  0  0  0
M  END
$$$$
