butane_opt
 OpenBabel08242015393D

 14 12  0  0  0  0  0  0  0  0999 V2000
   -3.9476    0.1595    0.0906 C   0  0  0  0  0  0  0  0  0  0  0  0
   -2.7981   -0.5466   -0.0597 C   0  0  0  0  0  0  0  0  0  0  0  0
   -4.7031   -0.2426    0.7397 H   0  0  0  0  0  0  0  0  0  0  0  0
   -4.2775    1.3322   -1.2523 H   0  0  0  0  0  0  0  0  0  0  0  0
   -3.6402    0.4824    0.7712 H   0  0  0  0  0  0  0  0  0  0  0  0
   -1.4027    0.3018   -0.0362 C   0  0  0  0  0  0  0  0  0  0  0  0
   -2.7366   -1.4255   -1.0405 H   0  0  0  0  0  0  0  0  0  0  0  0
   -2.8928   -0.9777    0.6976 H   0  0  0  0  0  0  0  0  0  0  0  0
   -0.0686   -0.7858    0.1316 C   0  0  0  0  0  0  0  0  0  0  0  0
   -1.6566    0.8231    0.8188 H   0  0  0  0  0  0  0  0  0  0  0  0
   -1.2692    0.9343   -0.9641 H   0  0  0  0  0  0  0  0  0  0  0  0
    0.2534   -1.1115    0.7212 H   0  0  0  0  0  0  0  0  0  0  0  0
    0.6684   -0.3283    0.2924 H   0  0  0  0  0  0  0  0  0  0  0  0
   -0.1340   -1.4832   -0.8968 H   0  0  0  0  0  0  0  0  0  0  0  0
  1  3  1  0  0  0  0
  1  5  1  0  0  0  0
  2  6  1  0  0  0  0
  2  1  1  0  0  0  0
  2  8  1  0  0  0  0
  6  9  1  0  0  0  0
  6 10  1  0  0  0  0
  7  2  1  0  0  0  0
  9 13  1  0  0  0  0
  9 12  1  0  0  0  0
 11  6  1  0  0  0  0
 14  9  1  0  0  0  0
M  RAD  2   1   2   4   2
M  END
$$$$
