butane_opt
 OpenBabel08242015393D

 14 13  0  0  0  0  0  0  0  0999 V2000
   -3.9642    0.2548    0.1968 C   0  0  0  0  0  0  0  0  0  0  0  0
   -2.7142   -0.6356   -0.2343 C   0  0  0  0  0  0  0  0  0  0  0  0
   -4.7881   -0.1218    0.6712 H   0  0  0  0  0  0  0  0  0  0  0  0
   -4.3897    0.9878   -0.6628 H   0  0  0  0  0  0  0  0  0  0  0  0
   -3.6366    0.8131    1.1927 H   0  0  0  0  0  0  0  0  0  0  0  0
   -1.3978    0.1838   -0.1641 C   0  0  0  0  0  0  0  0  0  0  0  0
   -2.7967   -1.6157   -1.2449 H   0  0  0  0  0  0  0  0  0  0  0  0
   -2.7169   -1.1961    0.6169 H   0  0  0  0  0  0  0  0  0  0  0  0
   -0.1244   -0.6686    0.2442 C   0  0  0  0  0  0  0  0  0  0  0  0
   -1.7306    0.9300    0.5520 H   0  0  0  0  0  0  0  0  0  0  0  0
   -1.3051    0.8415   -1.0965 H   0  0  0  0  0  0  0  0  0  0  0  0
    0.1262   -1.4650    1.3163 H   0  0  0  0  0  0  0  0  0  0  0  0
    0.5931   -0.2092    0.0474 H   0  0  0  0  0  0  0  0  0  0  0  0
   -0.0009   -1.0225   -0.4319 H   0  0  0  0  0  0  0  0  0  0  0  0
  1  3  1  0  0  0  0
  1  5  1  0  0  0  0
  2  6  1  0  0  0  0
  2  1  1  0  0  0  0
  2  8  1  0  0  0  0
  4  1  1  0  0  0  0
  6  9  1  0  0  0  0
  6 10  1  0  0  0  0
  7  2  1  0  0  0  0
  9 12  1  0  0  0  0
 11  6  1  0  0  0  0
 13  9  1  0  0  0  0
 14  9  1  0  0  0  0
M  END
$$$$
