butane_opt
 OpenBabel08242015393D

 14 10  0  0  0  0  0  0  0  0999 V2000
   -4.0233    0.3004   -0.1038 C   0  0  0  0  0  0  0  0  0  0  0  0
   -2.7340   -0.6438    0.1502 C   0  0  0  0  0  0  0  0  0  0  0  0
   -4.7062   -0.0625    0.0823 H   0  0  0  0  0  0  0  0  0  0  0  0
   -4.1417    0.8574   -0.9062 H   0  0  0  0  0  0  0  0  0  0  0  0
   -4.1801    1.0403    0.9050 H   0  0  0  0  0  0  0  0  0  0  0  0
   -1.3858    0.0989    0.0311 C   0  0  0  0  0  0  0  0  0  0  0  0
   -2.3402   -1.2220   -0.5479 H   0  0  0  0  0  0  0  0  0  0  0  0
   -2.9058   -1.6052    1.4857 H   0  0  0  0  0  0  0  0  0  0  0  0
   -0.0942   -0.6443   -0.0251 C   0  0  0  0  0  0  0  0  0  0  0  0
   -1.2594    0.8175    0.9094 H   0  0  0  0  0  0  0  0  0  0  0  0
   -1.5101    0.6041   -0.7541 H   0  0  0  0  0  0  0  0  0  0  0  0
   -0.1693   -0.7242    0.4606 H   0  0  0  0  0  0  0  0  0  0  0  0
    0.9313    0.2316    0.3064 H   0  0  0  0  0  0  0  0  0  0  0  0
    0.0615   -1.6954   -1.1498 H   0  0  0  0  0  0  0  0  0  0  0  0
  1  3  1  0  0  0  0
  1  2  1  0  0  0  0
  1  5  1  0  0  0  0
  4  1  1  0  0  0  0
  6  2  1  0  0  0  0
  6 10  1  0  0  0  0
  7  2  1  0  0  0  0
  9  6  1  0  0  0  0
  9 13  1  0  0  0  0
 11  6  1  0  0  0  0
M  RAD  5   2   2   8   2   9   3  12   2  14   2
M  END
$$$$
