14
butane_opt
C  -3.994639   0.236109  -0.121705
C  -2.678547  -0.643949   0.096387
H  -4.951296  -0.336186   0.543210
H  -4.223715   1.544974  -1.377476
H  -3.810592   0.283814   0.172039
C  -1.392009   0.294405   0.238669
H  -2.704520  -1.175734  -0.573021
H  -2.889377  -1.439096   1.174137
C  -0.119029  -0.717998  -0.124587
H  -1.194409   1.156972   1.225522
H  -1.742957   0.477364  -0.271016
H  -0.024720  -1.261923   0.652552
H   0.673868  -0.234647  -0.184726
H   0.064006  -1.503575  -1.080445
