butane_opt
 OpenBabel08242015393D

 14  9  0  0  0  0  0  0  0  0999 V2000
   -3.8516    0.1964   -0.1585 C   0  0  0  0  0  0  0  0  0  0  0  0
   -2.7044   -0.5539    0.1218 C   0  0  0  0  0  1  0  0  0  0  0  0
   -4.7678   -0.4119    0.4988 H   0  0  0  0  0  0  0  0  0  0  0  0
   -4.0840    1.3826   -1.3179 H   0  0  0  0  0  0  0  0  0  0  0  0
   -3.3856    0.2633    0.4176 H   0  0  0  0  0  0  0  0  0  0  0  0
   -1.4717    0.2658    0.2395 C   0  0  0  0  0  0  0  0  0  0  0  0
   -2.6421   -1.0009   -0.5732 H   0  0  0  0  0  0  0  0  0  0  0  0
   -2.8542   -1.4576    1.1948 H   0  0  0  0  0  0  0  0  0  0  0  0
   -0.1567   -0.7319   -0.1256 C   0  0  0  0  0  0  0  0  0  0  0  0
   -1.5900    1.0128    1.2235 H   0  0  0  0  0  0  0  0  0  0  0  0
   -1.8198    0.6593   -0.4615 H   0  0  0  0  0  0  0  0  0  0  0  0
   -0.0509   -1.0608    0.4614 H   0  0  0  0  0  0  0  0  0  0  0  0
    0.6111   -0.3123   -0.0185 H   0  0  0  0  0  0  0  0  0  0  0  0
   -0.2207   -1.6350   -1.0223 H   0  0  0  0  0  0  0  0  0  0  0  0
  1  5  1  0  0  0  0
  1  3  1  0  0  0  0
  6 10  1  0  0  0  0
  7  2  1  0  0  0  0
  9 13  1  0  0  0  0
  9  6  1  0  0  0  0
  9 12  1  0  0  0  0
 11  6  1  0  0  0  0
 14  9  1  0  0  0  0
M  RAD  4   1   3   4   2   6   2   8   2
M  END
$$$$
