butane_opt
 OpenBabel08242015393D

 14  9  0  0  0  0  0  0  0  0999 V2000
   -3.9738    0.2665   -0.0740 C   0  0  0  0  0  0  0  0  0  0  0  0
   -2.7224   -0.5920    0.2421 C   0  0  0  0  0  0  0  0  0  0  0  0
   -5.0587   -0.4929    0.0635 H   0  0  0  0  0  0  0  0  0  0  0  0
   -3.5890    1.2982   -1.3158 H   0  0  0  0  0  0  0  0  0  0  0  0
   -4.1483    0.3476    0.3180 H   0  0  0  0  0  0  0  0  0  0  0  0
   -1.3951    0.1673    0.0725 C   0  0  0  0  0  0  0  0  0  0  0  0
   -2.6848   -1.0455   -0.3425 H   0  0  0  0  0  0  0  0  0  0  0  0
   -2.7941   -1.2497    1.0857 H   0  0  0  0  0  0  0  0  0  0  0  0
   -0.1239   -0.6992   -0.1071 C   0  0  0  0  0  1  0  0  0  0  0  0
   -1.3908    0.9375    1.1018 H   0  0  0  0  0  0  0  0  0  0  0  0
   -1.4889    0.8607   -0.7391 H   0  0  0  0  0  0  0  0  0  0  0  0
   -0.2214   -0.5111    0.2514 H   0  0  0  0  0  0  0  0  0  0  0  0
    0.5912   -0.1279    0.7595 H   0  0  0  0  0  0  0  0  0  0  0  0
    0.3183   -2.2572   -1.4900 H   0  0  0  0  0  0  0  0  0  0  0  0
  1  3  1  0  0  0  0
  1  2  1  0  0  0  0
  2  8  1  0  0  0  0
  6  2  1  0  0  0  0
  6 12  1  0  0  0  0
  6 10  1  0  0  0  0
  7  2  1  0  0  0  0
  9 13  1  0  0  0  0
 11  6  1  0  0  0  0
M  RAD  4   1   3   4   2   5   2  14   2
M  END
$$$$
