butane_opt
 OpenBabel08242015393D

 14 10  0  0  0  0  0  0  0  0999 V2000
   -4.0016    0.3176   -0.0476 C   0  0  0  0  0  0  0  0  0  0  0  0
   -2.7059   -0.6708    0.0518 C   0  0  0  0  0  0  0  0  0  0  0  0
   -4.7673   -0.0195    0.8525 H   0  0  0  0  0  0  0  0  0  0  0  0
   -4.4887    1.7268   -1.4461 H   0  0  0  0  0  0  0  0  0  0  0  0
   -3.9970    0.2735    0.2054 H   0  0  0  0  0  0  0  0  0  0  0  0
   -1.3361    0.1174    0.1059 C   0  0  0  0  0  0  0  0  0  0  0  0
   -2.7242   -1.2959   -0.7805 H   0  0  0  0  0  0  0  0  0  0  0  0
   -2.7753   -1.4663    1.0816 H   0  0  0  0  0  0  0  0  0  0  0  0
   -0.1328   -0.6637   -0.0462 C   0  0  0  0  0  0  0  0  0  0  0  0
   -1.2105    1.2356    1.1172 H   0  0  0  0  0  0  0  0  0  0  0  0
   -1.2626    0.1797   -0.3507 H   0  0  0  0  0  0  0  0  0  0  0  0
   -0.1766   -0.9005    0.7269 H   0  0  0  0  0  0  0  0  0  0  0  0
    0.9523    0.0748    0.2023 H   0  0  0  0  0  0  0  0  0  0  0  0
   -0.4479   -1.4448   -1.0243 H   0  0  0  0  0  0  0  0  0  0  0  0
  1  2  1  0  0  0  0
  1  3  1  0  0  0  0
  2  6  1  0  0  0  0
  2  8  1  0  0  0  0
  6 10  1  0  0  0  0
  7  2  1  0  0  0  0
  9 13  1  0  0  0  0
  9 12  1  0  0  0  0
 11  9  1  0  0  0  0
 14  9  1  0  0  0  0
M  RAD  4   1   3   4   2   5   2   6   3
M  END
$$$$
