14
butane_opt
C  -3.967665   0.333227   0.163104
C  -2.685719  -0.704958  -0.136530
H  -4.870621  -0.337761  -0.099788
H  -3.884558   0.643133  -0.475817
H  -4.197162   1.291274   1.233698
C  -1.377560   0.156624  -0.128407
H  -2.747875  -1.572951  -1.221680
H  -2.447190  -1.376170   0.819720
C  -0.154707  -0.626262   0.141349
H  -1.634008   0.973019   0.878733
H  -1.216706   0.696469  -0.895961
H  -0.187530  -1.942153   1.481939
H   0.595961  -0.145853  -0.430745
H  -0.204266  -0.595363  -0.241797
