14
butane_opt
C  -3.996302   0.289912  -0.061192
C  -2.705783  -0.643662   0.141099
H  -4.949530  -0.222646   0.161976
H  -3.936680   1.017611  -0.864189
H  -4.087377   0.972630   0.820872
C  -1.336093   0.158037   0.072724
H  -2.597598  -1.290329  -0.695658
H  -2.956910  -1.364268   1.080567
C  -0.115609  -0.673161  -0.045315
H  -1.515953   0.626846   0.813884
H  -1.278903   1.074332  -1.132873
H  -0.536819  -0.976671   0.676402
H   0.881514   0.067870   0.533054
H  -0.205663  -1.964528  -1.273234
