butane_opt
 OpenBabel08242015393D

 14  9  0  0  0  0  0  0  0  0999 V2000
   -3.9821    0.2273    0.1470 C   0  0  0  0  0  0  0  0  0  0  0  0
   -2.7962   -0.5604   -0.1248 C   0  0  0  0  0  0  0  0  0  0  0  0
   -4.7862   -0.1748   -0.0953 H   0  0  0  0  0  0  0  0  0  0  0  0
   -3.9887    0.3543   -0.4122 H   0  0  0  0  0  0  0  0  0  0  0  0
   -3.7596    1.2948    1.2317 H   0  0  0  0  0  0  0  0  0  0  0  0
   -1.4055    0.1874   -0.1279 C   0  0  0  0  0  0  0  0  0  0  0  0
   -2.7662   -1.1229   -1.0624 H   0  0  0  0  0  0  0  0  0  0  0  0
   -2.9451   -1.0930    0.6336 H   0  0  0  0  0  0  0  0  0  0  0  0
   -0.0589   -0.7245    0.1772 C   0  0  0  0  0  1  0  0  0  0  0  0
   -1.5450    0.9271    0.6684 H   0  0  0  0  0  0  0  0  0  0  0  0
   -1.1747    0.7266   -0.9316 H   0  0  0  0  0  0  0  0  0  0  0  0
    0.2521   -1.9756    1.4640 H   0  0  0  0  0  0  0  0  0  0  0  0
    0.8951   -0.1597   -0.4266 H   0  0  0  0  0  0  0  0  0  0  0  0
   -0.3191   -0.8020   -0.3567 H   0  0  0  0  0  0  0  0  0  0  0  0
  2  1  1  0  0  0  0
  2  8  1  0  0  0  0
  3  1  1  0  0  0  0
  6  2  1  0  0  0  0
  6 10  1  0  0  0  0
  7  2  1  0  0  0  0
 11  6  1  0  0  0  0
 13  9  1  0  0  0  0
 14  6  1  0  0  0  0
M  RAD  4   1   3   4   2   5   2  12   2
M  END
$$$$
