14
butane_opt
C  -3.866211   0.190659   0.053729
C  -2.680387  -0.560132  -0.056861
H  -4.794345  -0.619846   0.719044
H  -4.089544   1.450575  -1.265852
H  -3.475161   0.448660   0.638362
C  -1.464398   0.233105   0.031930
H  -2.680782  -1.218682  -0.857855
H  -2.637665  -1.066048   0.791523
C  -0.193104  -0.700299   0.014597
H  -1.342593   1.059576   0.900523
H  -1.782602   0.713182  -0.700981
H  -0.192532  -1.355583   1.030020
H   0.407513  -0.398269   0.397997
H   0.053453  -1.474890  -0.759610
