butane_opt
 OpenBabel08242015393D

 14 13  0  0  0  0  0  0  0  0999 V2000
   -3.9395    0.2457    0.1943 C   0  0  0  0  0  0  0  0  0  0  0  0
   -2.7707   -0.6448   -0.0792 C   0  0  0  0  0  0  0  0  0  0  0  0
   -4.9295   -0.4401    0.1476 H   0  0  0  0  0  0  0  0  0  0  0  0
   -3.9165    0.8273   -0.5507 H   0  0  0  0  0  0  0  0  0  0  0  0
   -3.8584    1.1210    1.2347 H   0  0  0  0  0  0  0  0  0  0  0  0
   -1.3928    0.2823   -0.2804 C   0  0  0  0  0  0  0  0  0  0  0  0
   -3.0302   -1.4873   -0.9640 H   0  0  0  0  0  0  0  0  0  0  0  0
   -2.2436   -1.0048    0.6520 H   0  0  0  0  0  0  0  0  0  0  0  0
   -0.1228   -0.7101    0.2263 C   0  0  0  0  0  0  0  0  0  0  0  0
   -1.4459    0.6090    0.4394 H   0  0  0  0  0  0  0  0  0  0  0  0
   -1.2373    1.0234   -1.3805 H   0  0  0  0  0  0  0  0  0  0  0  0
   -0.3760   -1.0975    0.9075 H   0  0  0  0  0  0  0  0  0  0  0  0
    0.5230   -0.4175    0.9487 H   0  0  0  0  0  0  0  0  0  0  0  0
    0.2337   -1.7210   -0.7447 H   0  0  0  0  0  0  0  0  0  0  0  0
  1  5  1  0  0  0  0
  2  1  1  0  0  0  0
  2  8  1  0  0  0  0
  3  1  1  0  0  0  0
  4  1  1  0  0  0  0
  6  2  1  0  0  0  0
  6  9  1  0  0  0  0
  6 10  1  0  0  0  0
  7  2  1  0  0  0  0
  9 12  1  0  0  0  0
  9 13  1  0  0  0  0
 11  6  1  0  0  0  0
 14  9  1  0  0  0  0
M  END
$$$$
