butane_opt
 OpenBabel08242015393D

 14 11  0  0  0  0  0  0  0  0999 V2000
   -4.0015    0.2293   -0.0485 C   0  0  0  0  0  0  0  0  0  0  0  0
   -2.7506   -0.5728    0.1919 C   0  0  0  0  0  0  0  0  0  0  0  0
   -5.0982   -0.5180   -0.0421 H   0  0  0  0  0  0  0  0  0  0  0  0
   -3.9323    0.8242   -0.8826 H   0  0  0  0  0  0  0  0  0  0  0  0
   -3.8684    0.6242    0.7329 H   0  0  0  0  0  0  0  0  0  0  0  0
   -1.3870    0.2675    0.0059 C   0  0  0  0  0  0  0  0  0  0  0  0
   -2.5246   -1.2140   -0.5632 H   0  0  0  0  0  0  0  0  0  0  0  0
   -2.9601   -1.0943    0.9919 H   0  0  0  0  0  0  0  0  0  0  0  0
   -0.0379   -0.7458   -0.0141 C   0  0  0  0  0  0  0  0  0  0  0  0
   -1.4692    0.8312    0.7528 H   0  0  0  0  0  0  0  0  0  0  0  0
   -1.5484    1.0194   -1.1109 H   0  0  0  0  0  0  0  0  0  0  0  0
   -0.1240   -0.7582    0.5065 H   0  0  0  0  0  0  0  0  0  0  0  0
    0.5450   -0.3793    0.6924 H   0  0  0  0  0  0  0  0  0  0  0  0
    0.1133   -2.0262   -1.3055 H   0  0  0  0  0  0  0  0  0  0  0  0
  1  3  1  0  0  0  0
  1  2  1  0  0  0  0
  1  5  1  0  0  0  0
  2  8  1  0  0  0  0
  4  1  1  0  0  0  0
  6  2  1  0  0  0  0
  6 10  1  0  0  0  0
  7  2  1  0  0  0  0
  9  6  1  0  0  0  0
  9 13  1  0  0  0  0
 11  6  1  0  0  0  0
M  RAD  3   9   3  12   2  14   2
M  END
$$$$
