butane_opt
 OpenBabel08242015393D

 14 11  0  0  0  0  0  0  0  0999 V2000
   -3.9496    0.2930   -0.0968 C   0  0  0  0  0  0  0  0  0  0  0  0
   -2.6082   -0.6119    0.1074 C   0  0  0  0  0  0  0  0  0  0  0  0
   -4.9235   -0.3493    0.8302 H   0  0  0  0  0  0  0  0  0  0  0  0
   -4.1659    1.6557   -1.4165 H   0  0  0  0  0  0  0  0  0  0  0  0
   -3.9959    0.3097    0.3717 H   0  0  0  0  0  0  0  0  0  0  0  0
   -1.4086    0.0786    0.1614 C   0  0  0  0  0  0  0  0  0  0  0  0
   -2.4248   -1.4654   -0.8860 H   0  0  0  0  0  0  0  0  0  0  0  0
   -2.5558   -1.2516    1.0162 H   0  0  0  0  0  0  0  0  0  0  0  0
   -0.2457   -0.6522   -0.0487 C   0  0  0  0  0  0  0  0  0  0  0  0
   -1.3810    0.9743    1.2220 H   0  0  0  0  0  0  0  0  0  0  0  0
   -1.1593    0.5254   -0.7249 H   0  0  0  0  0  0  0  0  0  0  0  0
   -0.0480   -0.7701    0.5663 H   0  0  0  0  0  0  0  0  0  0  0  0
    0.6786    0.0459   -0.0157 H   0  0  0  0  0  0  0  0  0  0  0  0
   -0.4770   -1.4226   -1.0929 H   0  0  0  0  0  0  0  0  0  0  0  0
  1  2  1  0  0  0  0
  1  3  1  0  0  0  0
  2  6  1  0  0  0  0
  2  8  1  0  0  0  0
  6 10  1  0  0  0  0
  7  2  1  0  0  0  0
  9 13  1  0  0  0  0
  9  6  1  0  0  0  0
  9 12  1  0  0  0  0
 11  6  1  0  0  0  0
 14  9  1  0  0  0  0
M  RAD  3   1   3   4   2   5   2
M  END
$$$$
