butane_opt
 OpenBabel08242015393D

 14 12  0  0  0  0  0  0  0  0999 V2000
   -4.0191    0.2591    0.0936 C   0  0  0  0  0  0  0  0  0  0  0  0
   -2.7311   -0.6742   -0.0630 C   0  0  0  0  0  0  0  0  0  0  0  0
   -4.7617    0.0213   -0.0563 H   0  0  0  0  0  0  0  0  0  0  0  0
   -3.9540    0.7268   -0.7864 H   0  0  0  0  0  0  0  0  0  0  0  0
   -4.2058    1.3388    1.1033 H   0  0  0  0  0  0  0  0  0  0  0  0
   -1.3735    0.1352    0.0108 C   0  0  0  0  0  0  0  0  0  0  0  0
   -2.6730   -1.5265   -0.9951 H   0  0  0  0  0  0  0  0  0  0  0  0
   -2.5299   -1.1431    0.7902 H   0  0  0  0  0  0  0  0  0  0  0  0
   -0.1186   -0.6443    0.0995 C   0  0  0  0  0  0  0  0  0  0  0  0
   -1.6178    0.7517    0.7255 H   0  0  0  0  0  0  0  0  0  0  0  0
   -1.0285    1.1203   -1.1379 H   0  0  0  0  0  0  0  0  0  0  0  0
    0.1180   -1.5700    1.2392 H   0  0  0  0  0  0  0  0  0  0  0  0
    0.7861   -0.1189   -0.4773 H   0  0  0  0  0  0  0  0  0  0  0  0
   -0.2706   -0.9781   -0.6131 H   0  0  0  0  0  0  0  0  0  0  0  0
  1  5  1  0  0  0  0
  2  6  1  0  0  0  0
  2  1  1  0  0  0  0
  2  8  1  0  0  0  0
  3  1  1  0  0  0  0
  4  1  1  0  0  0  0
  6  9  1  0  0  0  0
  6 10  1  0  0  0  0
  7  2  1  0  0  0  0
  9 12  1  0  0  0  0
 13  9  1  0  0  0  0
 14  9  1  0  0  0  0
M  RAD  2   6   2  11   2
M  END
$$$$
