butane_opt
 OpenBabel08242015393D

 14 12  0  0  0  0  0  0  0  0999 V2000
   -3.8157    0.1905   -0.1443 C   0  0  0  0  0  0  0  0  0  0  0  0
   -2.7068   -0.5621    0.2376 C   0  0  0  0  0  0  0  0  0  0  0  0
   -4.8092   -0.4904   -0.6812 H   0  0  0  0  0  0  0  0  0  0  0  0
   -3.5798    0.4116   -0.7551 H   0  0  0  0  0  0  0  0  0  0  0  0
   -4.1107    1.4213    1.1114 H   0  0  0  0  0  0  0  0  0  0  0  0
   -1.4687    0.2262    0.1432 C   0  0  0  0  0  0  0  0  0  0  0  0
   -2.7272   -1.0901   -0.5753 H   0  0  0  0  0  0  0  0  0  0  0  0
   -2.8631   -1.1390    1.2208 H   0  0  0  0  0  0  0  0  0  0  0  0
   -0.2031   -0.7327   -0.0909 C   0  0  0  0  0  0  0  0  0  0  0  0
   -1.5715    0.7154    0.7430 H   0  0  0  0  0  0  0  0  0  0  0  0
   -1.8237    1.0797   -0.9112 H   0  0  0  0  0  0  0  0  0  0  0  0
    0.4197   -1.3921    0.7871 H   0  0  0  0  0  0  0  0  0  0  0  0
    0.6296   -0.1125   -0.1311 H   0  0  0  0  0  0  0  0  0  0  0  0
   -0.2606   -1.3832   -1.0372 H   0  0  0  0  0  0  0  0  0  0  0  0
  1  2  1  0  0  0  0
  2  8  1  0  0  0  0
  3  1  1  0  0  0  0
  4  1  1  0  0  0  0
  6  2  1  0  0  0  0
  6 10  1  0  0  0  0
  7  2  1  0  0  0  0
  9  6  1  0  0  0  0
  9 12  1  0  0  0  0
 11  6  1  0  0  0  0
 13  9  1  0  0  0  0
 14  9  1  0  0  0  0
M  RAD  2   1   2   5   2
M  END
$$$$
