14
butane_opt
C  -3.929997   0.260164   0.038828
C  -2.697963  -0.616035   0.018419
H  -4.860472  -0.345941   0.104331
H  -3.990140   0.856212  -0.821667
H  -3.933889   0.944538   0.893199
C  -1.405196   0.197683  -0.018117
H  -2.754061  -1.314383  -0.862872
H  -2.732122  -1.205930   0.900535
C  -0.164234  -0.704356   0.058823
H  -1.392829   0.847995   0.803021
H  -1.405317   0.903109  -0.973089
H  -0.203703  -1.267816   0.936289
H   0.733869  -0.119435   0.105103
H  -0.107688  -1.432331  -0.818695
