butane_opt
 OpenBabel08242015393D

 14 10  0  0  0  0  0  0  0  0999 V2000
   -4.0163    0.3256   -0.0562 C   0  0  0  0  0  0  0  0  0  0  0  0
   -2.6531   -0.7139    0.1012 C   0  0  0  0  0  0  0  0  0  0  0  0
   -4.7528   -0.2746    0.4038 H   0  0  0  0  0  0  0  0  0  0  0  0
   -4.5457    1.4085   -1.0944 H   0  0  0  0  0  0  0  0  0  0  0  0
   -4.0585    0.4096    0.4600 H   0  0  0  0  0  0  0  0  0  0  0  0
   -1.3422    0.1436    0.0551 C   0  0  0  0  0  0  0  0  0  0  0  0
   -2.5098   -1.3677   -0.6970 H   0  0  0  0  0  0  0  0  0  0  0  0
   -2.7755   -1.2911    0.9797 H   0  0  0  0  0  0  0  0  0  0  0  0
   -0.1775   -0.6215   -0.0527 C   0  0  0  0  0  0  0  0  0  0  0  0
   -1.2281    1.2029    1.2125 H   0  0  0  0  0  0  0  0  0  0  0  0
   -1.4118    0.5324   -0.4793 H   0  0  0  0  0  0  0  0  0  0  0  0
   -0.1375   -1.1662    0.7804 H   0  0  0  0  0  0  0  0  0  0  0  0
    0.6438   -0.1353    0.1969 H   0  0  0  0  0  0  0  0  0  0  0  0
    0.0204   -1.3947   -0.9637 H   0  0  0  0  0  0  0  0  0  0  0  0
  1  2  1  0  0  0  0
  1  3  1  0  0  0  0
  2  8  1  0  0  0  0
  6  2  1  0  0  0  0
  7  2  1  0  0  0  0
  9  6  1  0  0  0  0
  9 13  1  0  0  0  0
  9 12  1  0  0  0  0
 11  6  1  0  0  0  0
 14  9  1  0  0  0  0
M  RAD  5   1   3   4   2   5   2   6   2  10   2
M  END
$$$$
