14
butane_opt
C  -3.952331   0.292093   0.071593
C  -2.743382  -0.630148  -0.020326
H  -4.907916  -0.294941  -0.475917
H  -3.929914   0.447858  -0.612581
H  -4.269861   1.330888   1.226673
C  -1.347563   0.189046  -0.043017
H  -2.704809  -1.203078  -0.717439
H  -2.556060  -1.466002   0.869321
C  -0.192450  -0.679268   0.098857
H  -1.183737   0.830137   0.754208
H  -1.300654   0.846748  -1.008072
H   0.042766  -1.567476   1.207965
H   0.808524  -0.097558  -0.412791
H  -0.197877  -1.345706  -0.628419
