butane_opt
 OpenBabel08242015393D

 14 13  0  0  0  0  0  0  0  0999 V2000
   -3.9265    0.3397   -0.1702 C   0  0  0  0  0  0  0  0  0  0  0  0
   -2.6507   -0.6906    0.2705 C   0  0  0  0  0  0  0  0  0  0  0  0
   -4.7790   -0.1832   -0.2730 H   0  0  0  0  0  0  0  0  0  0  0  0
   -3.6642    0.8853   -1.1514 H   0  0  0  0  0  0  0  0  0  0  0  0
   -4.0508    0.9941    0.6585 H   0  0  0  0  0  0  0  0  0  0  0  0
   -1.3841    0.1095    0.1516 C   0  0  0  0  0  0  0  0  0  0  0  0
   -2.4431   -1.3470   -0.5523 H   0  0  0  0  0  0  0  0  0  0  0  0
   -2.7533   -1.6502    1.3892 H   0  0  0  0  0  0  0  0  0  0  0  0
   -0.2614   -0.5956   -0.1476 C   0  0  0  0  0  0  0  0  0  0  0  0
   -1.1149    0.9950    1.1555 H   0  0  0  0  0  0  0  0  0  0  0  0
   -1.7897    0.6597   -0.5350 H   0  0  0  0  0  0  0  0  0  0  0  0
   -0.0665   -1.1390    0.5290 H   0  0  0  0  0  0  0  0  0  0  0  0
    0.6431   -0.0529    0.0984 H   0  0  0  0  0  0  0  0  0  0  0  0
   -0.3877   -1.5492   -1.1083 H   0  0  0  0  0  0  0  0  0  0  0  0
  1  2  1  0  0  0  0
  1  5  1  0  0  0  0
  2  8  1  0  0  0  0
  3  1  1  0  0  0  0
  4  1  1  0  0  0  0
  6  2  1  0  0  0  0
  6 10  1  0  0  0  0
  7  2  1  0  0  0  0
  9 13  1  0  0  0  0
  9  6  1  0  0  0  0
  9 12  1  0  0  0  0
 11  6  1  0  0  0  0
 14  9  1  0  0  0  0
M  END
$$$$
