butane_opt
 OpenBabel08242015393D

 14 12  0  0  0  0  0  0  0  0999 V2000
   -3.9568    0.3101    0.1830 C   0  0  0  0  0  0  0  0  0  0  0  0
   -2.6726   -0.6371   -0.1157 C   0  0  0  0  0  0  0  0  0  0  0  0
   -4.7898   -0.1154    0.4197 H   0  0  0  0  0  0  0  0  0  0  0  0
   -4.1824    0.6031   -0.4473 H   0  0  0  0  0  0  0  0  0  0  0  0
   -3.5832    1.0874    1.1888 H   0  0  0  0  0  0  0  0  0  0  0  0
   -1.3766    0.1230   -0.2754 C   0  0  0  0  0  0  0  0  0  0  0  0
   -2.7593   -1.4229   -1.0414 H   0  0  0  0  0  0  0  0  0  0  0  0
   -2.1622   -1.2342    0.6872 H   0  0  0  0  0  0  0  0  0  0  0  0
   -0.2290   -0.6686    0.1991 C   0  0  0  0  0  0  0  0  0  0  0  0
   -1.3883    0.6517    0.3382 H   0  0  0  0  0  0  0  0  0  0  0  0
   -1.3426    0.7970   -1.1763 H   0  0  0  0  0  0  0  0  0  0  0  0
   -0.8928   -1.0460    1.0986 H   0  0  0  0  0  0  0  0  0  0  0  0
    0.8097    0.1560    1.0223 H   0  0  0  0  0  0  0  0  0  0  0  0
    0.0763   -1.4658   -0.5279 H   0  0  0  0  0  0  0  0  0  0  0  0
  1  3  1  0  0  0  0
  1  5  1  0  0  0  0
  2  1  1  0  0  0  0
  2  8  1  0  0  0  0
  4  1  1  0  0  0  0
  6  2  1  0  0  0  0
  6  9  1  0  0  0  0
  6 10  1  0  0  0  0
  7  2  1  0  0  0  0
  9 12  1  0  0  0  0
 11  6  1  0  0  0  0
 14  9  1  0  0  0  0
M  RAD  2   9   2  13   2
M  END
$$$$
