butane_opt
 OpenBabel08242015393D

 14 11  0  0  0  0  0  0  0  0999 V2000
   -4.0026    0.3152   -0.1049 C   0  0  0  0  0  0  0  0  0  0  0  0
   -2.6721   -0.7205    0.1024 C   0  0  0  0  0  0  0  0  0  0  0  0
   -4.6662    0.0234    0.6732 H   0  0  0  0  0  0  0  0  0  0  0  0
   -4.5081    1.4319   -1.2734 H   0  0  0  0  0  0  0  0  0  0  0  0
   -4.0001    0.3946    0.2144 H   0  0  0  0  0  0  0  0  0  0  0  0
   -1.3721    0.1583    0.2341 C   0  0  0  0  0  0  0  0  0  0  0  0
   -2.4567   -1.4728   -0.9133 H   0  0  0  0  0  0  0  0  0  0  0  0
   -2.9713   -1.2240    1.0246 H   0  0  0  0  0  0  0  0  0  0  0  0
   -0.1576   -0.6584   -0.1024 C   0  0  0  0  0  0  0  0  0  0  0  0
   -1.2686    0.8027    1.1452 H   0  0  0  0  0  0  0  0  0  0  0  0
   -1.3037    0.8528   -0.6378 H   0  0  0  0  0  0  0  0  0  0  0  0
    0.0845   -1.1486    0.6944 H   0  0  0  0  0  0  0  0  0  0  0  0
    0.9450    0.1064   -0.0242 H   0  0  0  0  0  0  0  0  0  0  0  0
   -0.4532   -1.3307   -1.0427 H   0  0  0  0  0  0  0  0  0  0  0  0
  1  2  1  0  0  0  0
  1  3  1  0  0  0  0
  2  6  1  0  0  0  0
  2  8  1  0  0  0  0
  6 10  1  0  0  0  0
  7  2  1  0  0  0  0
  9 13  1  0  0  0  0
  9  6  1  0  0  0  0
  9 12  1  0  0  0  0
 11  6  1  0  0  0  0
 14  9  1  0  0  0  0
M  RAD  3   1   3   4   2   5   2
M  END
$$$$
