butane_opt
 OpenBabel08242015393D

 14 11  0  0  0  0  0  0  0  0999 V2000
   -3.9935    0.2224   -0.1134 C   0  0  0  0  0  0  0  0  0  0  0  0
   -2.7264   -0.5534    0.1879 C   0  0  0  0  0  0  0  0  0  0  0  0
   -5.1669   -0.6070    0.3366 H   0  0  0  0  0  0  0  0  0  0  0  0
   -4.1217    1.1546   -1.3015 H   0  0  0  0  0  0  0  0  0  0  0  0
   -4.0235    0.5422    0.4648 H   0  0  0  0  0  0  0  0  0  0  0  0
   -1.3728    0.2033    0.0958 C   0  0  0  0  0  0  0  0  0  0  0  0
   -2.4787   -0.8418   -0.3319 H   0  0  0  0  0  0  0  0  0  0  0  0
   -2.9986   -1.3996    1.2318 H   0  0  0  0  0  0  0  0  0  0  0  0
   -0.0793   -0.7221   -0.0622 C   0  0  0  0  0  0  0  0  0  0  0  0
   -1.4512    1.1099    1.0350 H   0  0  0  0  0  0  0  0  0  0  0  0
   -1.4554    0.7906   -0.6351 H   0  0  0  0  0  0  0  0  0  0  0  0
    0.0059   -0.6743    0.3025 H   0  0  0  0  0  0  0  0  0  0  0  0
    0.5976   -0.1782    0.4183 H   0  0  0  0  0  0  0  0  0  0  0  0
    0.1831   -2.2595   -1.4886 H   0  0  0  0  0  0  0  0  0  0  0  0
  1  2  1  0  0  0  0
  1  3  1  0  0  0  0
  1  5  1  0  0  0  0
  2  8  1  0  0  0  0
  4  1  1  0  0  0  0
  6  2  1  0  0  0  0
  6 10  1  0  0  0  0
  7  2  1  0  0  0  0
  9  6  1  0  0  0  0
  9 13  1  0  0  0  0
 11  6  1  0  0  0  0
M  RAD  3   9   3  12   2  14   2
M  END
$$$$
