14
butane_opt
C  -3.882363   0.319748   0.162508
C  -2.656547  -0.674716  -0.100101
H  -4.725432  -0.220577  -0.338743
H  -3.972443   0.551727  -0.506716
H  -4.156932   1.561972   1.293955
C  -1.404502   0.150735  -0.132372
H  -2.756117  -1.582786  -1.141932
H  -2.587923  -1.400136   0.638637
C  -0.261082  -0.668640   0.170649
H  -1.396052   0.907920   0.761316
H  -1.079983   0.630653  -0.951405
H  -0.222972  -1.944019   1.537473
H   0.773998   0.252373  -0.700361
H  -0.458546  -0.704688  -0.263777
