butane_opt
 OpenBabel08242015393D

 14 10  0  0  0  0  0  0  0  0999 V2000
   -3.8946    0.2064   -0.0944 C   0  0  0  0  0  0  0  0  0  0  0  0
   -2.7267   -0.5334    0.1911 C   0  0  0  0  0  0  0  0  0  0  0  0
   -4.9016   -0.5812   -0.0775 H   0  0  0  0  0  0  0  0  0  0  0  0
   -3.7080    1.0688   -1.2015 H   0  0  0  0  0  0  0  0  0  0  0  0
   -3.8513    0.8300    0.8661 H   0  0  0  0  0  0  0  0  0  0  0  0
   -1.4680    0.1957    0.0585 C   0  0  0  0  0  0  0  0  0  0  0  0
   -2.3786   -0.9632   -0.3707 H   0  0  0  0  0  0  0  0  0  0  0  0
   -2.8677   -1.4764    1.4687 H   0  0  0  0  0  0  0  0  0  0  0  0
   -0.1550   -0.7238   -0.1086 C   0  0  0  0  0  0  0  0  0  0  0  0
   -1.3417    0.9932    0.9801 H   0  0  0  0  0  0  0  0  0  0  0  0
   -1.5166    0.7849   -0.7036 H   0  0  0  0  0  0  0  0  0  0  0  0
   -0.2970   -0.7736    0.4501 H   0  0  0  0  0  0  0  0  0  0  0  0
    0.6539   -0.2386    0.7651 H   0  0  0  0  0  0  0  0  0  0  0  0
    0.1567   -1.9006   -1.3561 H   0  0  0  0  0  0  0  0  0  0  0  0
  1  3  1  0  0  0  0
  1  2  1  0  0  0  0
  1  5  1  0  0  0  0
  4  1  1  0  0  0  0
  6  2  1  0  0  0  0
  6 10  1  0  0  0  0
  7  2  1  0  0  0  0
  9  6  1  0  0  0  0
  9 13  1  0  0  0  0
 11  6  1  0  0  0  0
M  RAD  5   2   2   8   2   9   3  12   2  14   2
M  END
$$$$
