butane_opt
 OpenBabel08242015393D

 14 12  0  0  0  0  0  0  0  0999 V2000
   -3.9276    0.3280   -0.0654 C   0  0  0  0  0  0  0  0  0  0  0  0
   -2.6584   -0.6366    0.2027 C   0  0  0  0  0  0  0  0  0  0  0  0
   -4.8254   -0.2591   -0.5760 H   0  0  0  0  0  0  0  0  0  0  0  0
   -3.7079    0.8913   -0.9587 H   0  0  0  0  0  0  0  0  0  0  0  0
   -4.3124    1.1630    0.9018 H   0  0  0  0  0  0  0  0  0  0  0  0
   -1.4064    0.0454    0.0075 C   0  0  0  0  0  0  0  0  0  0  0  0
   -2.7790   -1.1106   -0.5367 H   0  0  0  0  0  0  0  0  0  0  0  0
   -2.8182   -1.6126    1.3588 H   0  0  0  0  0  0  0  0  0  0  0  0
   -0.2094   -0.6409   -0.0459 C   0  0  0  0  0  0  0  0  0  0  0  0
   -1.2311    1.0459    0.9865 H   0  0  0  0  0  0  0  0  0  0  0  0
   -1.5089    0.4834   -0.6069 H   0  0  0  0  0  0  0  0  0  0  0  0
   -0.2642   -0.8698    0.7593 H   0  0  0  0  0  0  0  0  0  0  0  0
    0.9836    0.2587    0.0099 H   0  0  0  0  0  0  0  0  0  0  0  0
   -0.1852   -1.5943   -1.1315 H   0  0  0  0  0  0  0  0  0  0  0  0
  1  2  1  0  0  0  0
  1  5  1  0  0  0  0
  3  1  1  0  0  0  0
  4  1  1  0  0  0  0
  6  2  1  0  0  0  0
  6 10  1  0  0  0  0
  7  2  1  0  0  0  0
  9  6  1  0  0  0  0
  9 13  1  0  0  0  0
  9 12  1  0  0  0  0
 11  6  1  0  0  0  0
 14  9  1  0  0  0  0
M  RAD  2   2   2   8   2
M  END
$$$$
