butane_opt
 OpenBabel08242015393D

 14 11  0  0  0  0  0  0  0  0999 V2000
   -3.9504    0.2784    0.1235 C   0  0  0  0  0  0  0  0  0  0  0  0
   -2.6424   -0.6448   -0.0936 C   0  0  0  0  0  0  0  0  0  0  0  0
   -4.7266    0.0328    0.5704 H   0  0  0  0  0  0  0  0  0  0  0  0
   -4.5008    1.2988   -1.0129 H   0  0  0  0  0  0  0  0  0  0  0  0
   -3.7790    0.3564    0.5874 H   0  0  0  0  0  0  0  0  0  0  0  0
   -1.4156    0.1273   -0.0224 C   0  0  0  0  0  0  0  0  0  0  0  0
   -2.7174   -1.6277   -1.0308 H   0  0  0  0  0  0  0  0  0  0  0  0
   -2.7064   -0.9552    0.5257 H   0  0  0  0  0  0  0  0  0  0  0  0
   -0.1476   -0.6321    0.0973 C   0  0  0  0  0  0  0  0  0  0  0  0
   -1.3210    0.7943    0.8579 H   0  0  0  0  0  0  0  0  0  0  0  0
   -1.5009    0.7376   -0.8954 H   0  0  0  0  0  0  0  0  0  0  0  0
   -0.4621   -1.3969    1.1472 H   0  0  0  0  0  0  0  0  0  0  0  0
    0.7530   -0.0745    0.1436 H   0  0  0  0  0  0  0  0  0  0  0  0
   -0.2059   -1.1542   -0.7426 H   0  0  0  0  0  0  0  0  0  0  0  0
  1  3  1  0  0  0  0
  2  6  1  0  0  0  0
  2  1  1  0  0  0  0
  2  8  1  0  0  0  0
  6  9  1  0  0  0  0
  6 10  1  0  0  0  0
  7  2  1  0  0  0  0
  9 13  1  0  0  0  0
  9 12  1  0  0  0  0
 11  6  1  0  0  0  0
 14  9  1  0  0  0  0
M  RAD  3   1   3   4   2   5   2
M  END
$$$$
