butane_opt
 OpenBabel08242015393D

 14 12  0  0  0  0  0  0  0  0999 V2000
   -3.9343    0.3205   -0.1798 C   0  0  0  0  0  0  0  0  0  0  0  0
   -2.6141   -0.6838    0.3259 C   0  0  0  0  0  0  0  0  0  0  0  0
   -4.7061   -0.3149   -0.8650 H   0  0  0  0  0  0  0  0  0  0  0  0
   -3.7549    0.5617   -0.8459 H   0  0  0  0  0  0  0  0  0  0  0  0
   -4.3820    1.3964    0.8556 H   0  0  0  0  0  0  0  0  0  0  0  0
   -1.4395    0.1458    0.1821 C   0  0  0  0  0  0  0  0  0  0  0  0
   -2.2424   -1.3073   -0.3727 H   0  0  0  0  0  0  0  0  0  0  0  0
   -2.8805   -1.3906    1.3609 H   0  0  0  0  0  0  0  0  0  0  0  0
   -0.2723   -0.6106   -0.1511 C   0  0  0  0  0  0  0  0  0  0  0  0
   -1.1548    0.4591    0.8498 H   0  0  0  0  0  0  0  0  0  0  0  0
   -1.3022    0.6842   -0.7736 H   0  0  0  0  0  0  0  0  0  0  0  0
    0.0855   -1.1529    0.5420 H   0  0  0  0  0  0  0  0  0  0  0  0
    0.7241    0.0162   -0.1333 H   0  0  0  0  0  0  0  0  0  0  0  0
   -0.3264   -1.4478   -1.2678 H   0  0  0  0  0  0  0  0  0  0  0  0
  1  2  1  0  0  0  0
  2  8  1  0  0  0  0
  3  1  1  0  0  0  0
  4  1  1  0  0  0  0
  6  2  1  0  0  0  0
  6 10  1  0  0  0  0
  7  2  1  0  0  0  0
  9 13  1  0  0  0  0
  9  6  1  0  0  0  0
  9 12  1  0  0  0  0
 11  6  1  0  0  0  0
 14  9  1  0  0  0  0
M  RAD  2   1   2   5   2
M  END
$$$$
