14
butane_opt
C  -3.895399   0.313035  -0.131501
C  -2.659846  -0.653362   0.156605
H  -5.054618  -0.317679   0.120713
H  -4.073345   1.226791  -1.293172
H  -3.927585   0.363085   0.307373
C  -1.455530   0.128295   0.247698
H  -2.490943  -1.158809  -0.544334
H  -3.005242  -1.205846   0.984567
C  -0.141307  -0.685651  -0.101279
H  -1.478857   1.157577   1.223079
H  -1.530549   0.566420  -0.515710
H   0.213542  -1.105478   0.639349
H   0.888066   0.032071  -0.637783
H  -0.743861  -1.264539  -0.957272
