14
butane_opt
C  -3.926228   0.335095   0.192400
C  -2.626760  -0.707550  -0.038735
H  -4.934847  -0.450357   0.006224
H  -3.898130   0.814001  -0.673811
H  -4.019351   1.184338   1.013641
C  -1.425437   0.112120  -0.217936
H  -2.952405  -1.580142  -1.009934
H  -2.198433  -1.110467   0.698762
C  -0.224451  -0.619859   0.172004
H  -1.560182   0.691907   0.420499
H  -1.209425   1.151199  -1.317008
H  -0.519616  -1.102463   1.023265
H   0.640586   0.059134   0.892748
H   0.048431  -1.621008  -0.920852
