butane_opt
 OpenBabel08242015393D

 14 11  0  0  0  0  0  0  0  0999 V2000
   -3.8981    0.2390   -0.1594 C   0  0  0  0  0  0  0  0  0  0  0  0
   -2.6322   -0.6163    0.2364 C   0  0  0  0  0  0  0  0  0  0  0  0
   -5.0363   -0.4716   -0.2991 H   0  0  0  0  0  0  0  0  0  0  0  0
   -3.7608    1.2127   -1.3943 H   0  0  0  0  0  0  0  0  0  0  0  0
   -3.9587    0.7791    0.5355 H   0  0  0  0  0  0  0  0  0  0  0  0
   -1.4257    0.2157    0.2735 C   0  0  0  0  0  0  0  0  0  0  0  0
   -2.4174   -1.5130   -0.7825 H   0  0  0  0  0  0  0  0  0  0  0  0
   -2.8265   -1.1702    1.1177 H   0  0  0  0  0  0  0  0  0  0  0  0
   -0.2569   -0.7076   -0.1684 C   0  0  0  0  0  0  0  0  0  0  0  0
   -1.1095    1.2257    1.2551 H   0  0  0  0  0  0  0  0  0  0  0  0
   -1.9134    0.6652   -0.4581 H   0  0  0  0  0  0  0  0  0  0  0  0
    0.3215   -1.6034    0.9365 H   0  0  0  0  0  0  0  0  0  0  0  0
    0.7218   -0.1160   -0.7659 H   0  0  0  0  0  0  0  0  0  0  0  0
   -0.4751   -1.0534   -0.8634 H   0  0  0  0  0  0  0  0  0  0  0  0
  1  2  1  0  0  0  0
  1  5  1  0  0  0  0
  2  6  1  0  0  0  0
  2  8  1  0  0  0  0
  3  1  1  0  0  0  0
  6 10  1  0  0  0  0
  7  2  1  0  0  0  0
  9  6  1  0  0  0  0
 11  6  1  0  0  0  0
 13  9  1  0  0  0  0
 14  9  1  0  0  0  0
M  RAD  4   1   2   4   2   9   2  12   2
M  END
$$$$
