14
butane_opt
C  -4.019108   0.259133   0.093574
C  -2.731137  -0.674233  -0.062964
H  -4.761660   0.021312  -0.056349
H  -3.953987   0.726782  -0.786361
H  -4.205773   1.338778   1.103340
C  -1.373512   0.135204   0.010785
H  -2.672957  -1.526519  -0.995132
H  -2.529897  -1.143121   0.790193
C  -0.118611  -0.644272   0.099522
H  -1.617780   0.751671   0.725495
H  -1.028513   1.120297  -1.137886
H   0.117974  -1.569977   1.239178
H   0.786133  -0.118871  -0.477298
H  -0.270593  -0.978118  -0.613146
