butane_opt
 OpenBabel08242015393D

 14 12  0  0  0  0  0  0  0  0999 V2000
   -3.9606    0.2099   -0.1373 C   0  0  0  0  0  0  0  0  0  0  0  0
   -2.7347   -0.5907    0.2620 C   0  0  0  0  0  0  0  0  0  0  0  0
   -4.8939   -0.3189   -0.2187 H   0  0  0  0  0  0  0  0  0  0  0  0
   -3.7184    0.8491   -0.9909 H   0  0  0  0  0  0  0  0  0  0  0  0
   -4.1618    0.8391    0.6138 H   0  0  0  0  0  0  0  0  0  0  0  0
   -1.4378    0.2232    0.1148 C   0  0  0  0  0  0  0  0  0  0  0  0
   -2.5114   -0.9895   -0.5363 H   0  0  0  0  0  0  0  0  0  0  0  0
   -2.7629   -1.4695    1.3910 H   0  0  0  0  0  0  0  0  0  0  0  0
   -0.0959   -0.6958   -0.1504 C   0  0  0  0  0  0  0  0  0  0  0  0
   -1.2183    1.2003    1.1864 H   0  0  0  0  0  0  0  0  0  0  0  0
   -1.4479    0.7756   -0.7006 H   0  0  0  0  0  0  0  0  0  0  0  0
   -0.3781   -1.0675    0.5386 H   0  0  0  0  0  0  0  0  0  0  0  0
    0.4757   -0.4080    0.2755 H   0  0  0  0  0  0  0  0  0  0  0  0
    0.3815   -1.7306   -1.2404 H   0  0  0  0  0  0  0  0  0  0  0  0
  1  2  1  0  0  0  0
  1  5  1  0  0  0  0
  2  8  1  0  0  0  0
  3  1  1  0  0  0  0
  4  1  1  0  0  0  0
  6  2  1  0  0  0  0
  6 10  1  0  0  0  0
  7  2  1  0  0  0  0
  9  6  1  0  0  0  0
  9 13  1  0  0  0  0
  9 12  1  0  0  0  0
 11  6  1  0  0  0  0
M  RAD  2   9   2  14   2
M  END
$$$$
