14
butane_opt
C  -3.976015   0.224009  -0.122306
C  -2.785129  -0.586956   0.265913
H  -4.710908  -0.289459  -0.805801
H  -3.544974   0.646125  -0.922761
H  -4.154740   1.036722   0.814337
C  -1.420026   0.240156   0.110098
H  -2.746062  -1.031837  -0.505933
H  -2.929628  -1.390910   1.359024
C  -0.096649  -0.725875  -0.052990
H  -1.075044   0.850277   1.001350
H  -1.332531   1.115335  -0.862298
H   0.376429  -0.983802   0.402255
H   0.648909  -0.432197  -0.125180
H  -0.224181  -1.845753  -1.359166
