butane_opt
 OpenBabel08242015393D

 14 10  0  0  0  0  0  0  0  0999 V2000
   -3.9677    0.3332    0.1631 C   0  0  0  0  0  0  0  0  0  0  0  0
   -2.6857   -0.7050   -0.1365 C   0  0  0  0  0  0  0  0  0  0  0  0
   -4.8706   -0.3378   -0.0998 H   0  0  0  0  0  0  0  0  0  0  0  0
   -3.8846    0.6431   -0.4758 H   0  0  0  0  0  0  0  0  0  0  0  0
   -4.1972    1.2913    1.2337 H   0  0  0  0  0  0  0  0  0  0  0  0
   -1.3776    0.1566   -0.1284 C   0  0  0  0  0  0  0  0  0  0  0  0
   -2.7479   -1.5730   -1.2217 H   0  0  0  0  0  0  0  0  0  0  0  0
   -2.4472   -1.3762    0.8197 H   0  0  0  0  0  0  0  0  0  0  0  0
   -0.1547   -0.6263    0.1413 C   0  0  0  0  0  1  0  0  0  0  0  0
   -1.6340    0.9730    0.8787 H   0  0  0  0  0  0  0  0  0  0  0  0
   -1.2167    0.6965   -0.8960 H   0  0  0  0  0  0  0  0  0  0  0  0
   -0.1875   -1.9422    1.4819 H   0  0  0  0  0  0  0  0  0  0  0  0
    0.5960   -0.1459   -0.4307 H   0  0  0  0  0  0  0  0  0  0  0  0
   -0.2043   -0.5954   -0.2418 H   0  0  0  0  0  0  0  0  0  0  0  0
  1  5  1  0  0  0  0
  2  1  1  0  0  0  0
  2  8  1  0  0  0  0
  3  1  1  0  0  0  0
  4  1  1  0  0  0  0
  6 10  1  0  0  0  0
  7  2  1  0  0  0  0
 11  6  1  0  0  0  0
 13  9  1  0  0  0  0
 14  6  1  0  0  0  0
M  RAD  3   2   2   6   2  12   2
M  END
$$$$
