14
butane_opt
C  -3.886636   0.261883   0.067467
C  -2.673501  -0.674308  -0.068396
H  -4.793215  -0.174374   0.132172
H  -4.124124   0.884277  -0.797698
H  -3.995317   1.066895   1.059783
C  -1.430128   0.198035   0.021407
H  -2.543876  -1.380462  -0.992530
H  -2.590838  -1.305525   0.898175
C  -0.194446  -0.663407   0.078141
H  -1.712212   0.824915   0.812821
H  -1.229952   0.980190  -1.054146
H  -0.257722  -1.540369   1.225392
H   0.811868   0.026446  -0.359062
H  -0.359891  -1.315749  -0.673448
