14
butane_opt
C  -3.938136   0.250558  -0.014938
C  -2.709413  -0.607980   0.063071
H  -4.867168  -0.361136   0.058268
H  -3.994876   0.968421  -0.957958
H  -3.976457   0.869556   0.781525
C  -1.408249   0.200437   0.055213
H  -2.746594  -1.287933  -0.766016
H  -2.739170  -1.226656   0.949805
C  -0.141764  -0.701574   0.008494
H  -1.412624   0.883750   0.919395
H  -1.445091   0.808043  -0.810108
H  -0.004275  -1.285660   0.873875
H   0.733397  -0.149589  -0.092002
H  -0.193127  -1.390786  -0.874013
