butane_opt
 OpenBabel08242015393D

 14 11  0  0  0  0  0  0  0  0999 V2000
   -3.9227    0.2210   -0.0602 C   0  0  0  0  0  0  0  0  0  0  0  0
   -2.7852   -0.5674    0.1445 C   0  0  0  0  0  0  0  0  0  0  0  0
   -4.8022   -0.3837    0.1430 H   0  0  0  0  0  0  0  0  0  0  0  0
   -3.9216    1.0933   -1.1379 H   0  0  0  0  0  0  0  0  0  0  0  0
   -3.9125    0.5816    0.6070 H   0  0  0  0  0  0  0  0  0  0  0  0
   -1.4331    0.2953    0.1077 C   0  0  0  0  0  0  0  0  0  0  0  0
   -2.6836   -1.1657   -0.5893 H   0  0  0  0  0  0  0  0  0  0  0  0
   -3.1120   -1.4971    1.0929 H   0  0  0  0  0  0  0  0  0  0  0  0
   -0.0405   -0.7634   -0.0653 C   0  0  0  0  0  0  0  0  0  0  0  0
   -1.3434    0.8644    0.8665 H   0  0  0  0  0  0  0  0  0  0  0  0
   -1.3987    0.8941   -0.8067 H   0  0  0  0  0  0  0  0  0  0  0  0
   -0.1671   -0.9107    0.3975 H   0  0  0  0  0  0  0  0  0  0  0  0
    0.5913   -0.3909    0.5068 H   0  0  0  0  0  0  0  0  0  0  0  0
   -0.0528   -1.7936   -1.2005 H   0  0  0  0  0  0  0  0  0  0  0  0
  1  3  1  0  0  0  0
  1  2  1  0  0  0  0
  1  5  1  0  0  0  0
  2  8  1  0  0  0  0
  4  1  1  0  0  0  0
  6  2  1  0  0  0  0
  6 10  1  0  0  0  0
  7  2  1  0  0  0  0
  9  6  1  0  0  0  0
  9 13  1  0  0  0  0
 11  6  1  0  0  0  0
M  RAD  3   9   3  12   2  14   2
M  END
$$$$
