butane_opt
 OpenBabel08242015393D

 14 10  0  0  0  0  0  0  0  0999 V2000
   -4.0671    0.3460    0.1921 C   0  0  0  0  0  0  0  0  0  0  0  0
   -2.6791   -0.7046   -0.1527 C   0  0  0  0  0  0  0  0  0  0  0  0
   -4.9829   -0.3578    0.0282 H   0  0  0  0  0  0  0  0  0  0  0  0
   -4.2935    0.9549   -0.6097 H   0  0  0  0  0  0  0  0  0  0  0  0
   -4.0447    1.0394    0.9900 H   0  0  0  0  0  0  0  0  0  0  0  0
   -1.3002    0.1072   -0.0884 C   0  0  0  0  0  0  0  0  0  0  0  0
   -2.8655   -1.7215   -1.2461 H   0  0  0  0  0  0  0  0  0  0  0  0
   -2.2313   -0.9186    0.3693 H   0  0  0  0  0  0  0  0  0  0  0  0
   -0.1243   -0.6426    0.1589 C   0  0  0  0  0  1  0  0  0  0  0  0
   -1.4755    0.6124    0.6195 H   0  0  0  0  0  0  0  0  0  0  0  0
   -1.2575    0.9385   -0.9151 H   0  0  0  0  0  0  0  0  0  0  0  0
   -0.2061   -1.6960    1.4658 H   0  0  0  0  0  0  0  0  0  0  0  0
    0.6968   -0.0225   -0.3424 H   0  0  0  0  0  0  0  0  0  0  0  0
   -0.2911   -0.5848   -0.2146 H   0  0  0  0  0  0  0  0  0  0  0  0
  1  5  1  0  0  0  0
  2  1  1  0  0  0  0
  2  8  1  0  0  0  0
  3  1  1  0  0  0  0
  4  1  1  0  0  0  0
  6 10  1  0  0  0  0
  7  2  1  0  0  0  0
 11  6  1  0  0  0  0
 13  9  1  0  0  0  0
 14  6  1  0  0  0  0
M  RAD  3   2   2   6   2  12   2
M  END
$$$$
