butane_opt
 OpenBabel08242015393D

 14 13  0  0  0  0  0  0  0  0999 V2000
   -3.9583    0.3008    0.2185 C   0  0  0  0  0  0  0  0  0  0  0  0
   -2.6667   -0.6589   -0.1971 C   0  0  0  0  0  0  0  0  0  0  0  0
   -4.8448   -0.1121    0.3116 H   0  0  0  0  0  0  0  0  0  0  0  0
   -4.1903    0.8077   -0.6886 H   0  0  0  0  0  0  0  0  0  0  0  0
   -3.9218    1.1476    1.2178 H   0  0  0  0  0  0  0  0  0  0  0  0
   -1.4504    0.0904   -0.2259 C   0  0  0  0  0  0  0  0  0  0  0  0
   -2.8864   -1.3956   -1.1698 H   0  0  0  0  0  0  0  0  0  0  0  0
   -2.4335   -1.2395    0.7068 H   0  0  0  0  0  0  0  0  0  0  0  0
   -0.1714   -0.6287    0.2351 C   0  0  0  0  0  0  0  0  0  0  0  0
   -1.3093    0.8217    0.8027 H   0  0  0  0  0  0  0  0  0  0  0  0
   -1.3244    0.7174   -1.0574 H   0  0  0  0  0  0  0  0  0  0  0  0
   -0.3810   -1.5111    1.3732 H   0  0  0  0  0  0  0  0  0  0  0  0
    1.0386    0.2668    0.0300 H   0  0  0  0  0  0  0  0  0  0  0  0
    0.1274   -1.1661   -0.4329 H   0  0  0  0  0  0  0  0  0  0  0  0
  1  3  1  0  0  0  0
  1  5  1  0  0  0  0
  2  1  1  0  0  0  0
  2  8  1  0  0  0  0
  4  1  1  0  0  0  0
  6  2  1  0  0  0  0
  6  9  1  0  0  0  0
  6 10  1  0  0  0  0
  7  2  1  0  0  0  0
  9 12  1  0  0  0  0
 11  6  1  0  0  0  0
 13  9  1  0  0  0  0
 14  9  1  0  0  0  0
M  END
$$$$
