butane_opt
 OpenBabel08242015393D

 14  9  0  0  0  0  0  0  0  0999 V2000
   -3.9471    0.3081    0.0145 C   0  0  0  0  0  1  0  0  0  0  0  0
   -2.7505   -0.6735    0.0278 C   0  0  0  0  0  0  0  0  0  0  0  0
   -4.7560   -0.2557    0.5734 H   0  0  0  0  0  0  0  0  0  0  0  0
   -4.3165    1.6452   -1.3304 H   0  0  0  0  0  0  0  0  0  0  0  0
   -3.7393    0.3560    0.2996 H   0  0  0  0  0  0  0  0  0  0  0  0
   -1.3628    0.1903    0.1254 C   0  0  0  0  0  0  0  0  0  0  0  0
   -2.7339   -1.4550   -0.9996 H   0  0  0  0  0  0  0  0  0  0  0  0
   -2.9958   -1.4301    0.9715 H   0  0  0  0  0  0  0  0  0  0  0  0
   -0.0958   -0.6861    0.0005 C   0  0  0  0  0  0  0  0  0  0  0  0
   -1.5298    0.8547    0.9371 H   0  0  0  0  0  0  0  0  0  0  0  0
   -1.3102    0.8309   -0.8615 H   0  0  0  0  0  0  0  0  0  0  0  0
   -0.1079   -0.8868    0.6966 H   0  0  0  0  0  0  0  0  0  0  0  0
    0.6951   -0.0969    0.2102 H   0  0  0  0  0  0  0  0  0  0  0  0
   -0.3631   -1.6822   -1.1754 H   0  0  0  0  0  0  0  0  0  0  0  0
  1  3  1  0  0  0  0
  2  5  1  0  0  0  0
  2  8  1  0  0  0  0
  6 10  1  0  0  0  0
  7  2  1  0  0  0  0
  9  6  1  0  0  0  0
  9 13  1  0  0  0  0
  9 12  1  0  0  0  0
 11  6  1  0  0  0  0
M  RAD  5   2   2   4   2   6   2   9   2  14   2
M  END
$$$$
