14
butane_opt
C  -3.957121   0.194919   0.086174
C  -2.760305  -0.541277   0.006761
H  -4.797267  -0.427045  -0.637898
H  -3.726481   0.222333  -0.551807
H  -4.148556   1.550646   1.461476
C  -1.362058   0.228888  -0.115784
H  -2.950088  -1.259815  -0.888667
H  -2.830335  -0.941040   0.930470
C  -0.111939  -0.755230   0.104922
H  -1.318801   0.956700   0.788241
H  -1.766225   1.026522  -1.068933
H  -0.133232  -1.850246   1.401166
H   0.837168  -0.110234  -0.427466
H   0.116198  -1.187075  -0.460415
