butane_opt
 OpenBabel08242015393D

 14 12  0  0  0  0  0  0  0  0999 V2000
   -3.9262    0.3351    0.1924 C   0  0  0  0  0  0  0  0  0  0  0  0
   -2.6268   -0.7076   -0.0387 C   0  0  0  0  0  0  0  0  0  0  0  0
   -4.9348   -0.4504    0.0062 H   0  0  0  0  0  0  0  0  0  0  0  0
   -3.8981    0.8140   -0.6738 H   0  0  0  0  0  0  0  0  0  0  0  0
   -4.0194    1.1843    1.0136 H   0  0  0  0  0  0  0  0  0  0  0  0
   -1.4254    0.1121   -0.2179 C   0  0  0  0  0  0  0  0  0  0  0  0
   -2.9524   -1.5801   -1.0099 H   0  0  0  0  0  0  0  0  0  0  0  0
   -2.1984   -1.1105    0.6988 H   0  0  0  0  0  0  0  0  0  0  0  0
   -0.2245   -0.6199    0.1720 C   0  0  0  0  0  0  0  0  0  0  0  0
   -1.5602    0.6919    0.4205 H   0  0  0  0  0  0  0  0  0  0  0  0
   -1.2094    1.1512   -1.3170 H   0  0  0  0  0  0  0  0  0  0  0  0
   -0.5196   -1.1025    1.0233 H   0  0  0  0  0  0  0  0  0  0  0  0
    0.6406    0.0591    0.8927 H   0  0  0  0  0  0  0  0  0  0  0  0
    0.0484   -1.6210   -0.9209 H   0  0  0  0  0  0  0  0  0  0  0  0
  1  5  1  0  0  0  0
  2  1  1  0  0  0  0
  2  8  1  0  0  0  0
  3  1  1  0  0  0  0
  4  1  1  0  0  0  0
  6  2  1  0  0  0  0
  6  9  1  0  0  0  0
  6 10  1  0  0  0  0
  7  2  1  0  0  0  0
  9 13  1  0  0  0  0
  9 12  1  0  0  0  0
 14  9  1  0  0  0  0
M  RAD  2   6   2  11   2
M  END
$$$$
