14
butane_opt
C  -3.876419   0.222861   0.168771
C  -2.720821  -0.481859  -0.010389
H  -4.952009  -0.569658  -0.837639
H  -3.530262   0.048964  -0.441190
H  -3.934842   1.404610   1.403235
C  -1.483367   0.185591  -0.148399
H  -2.896420  -1.301509  -1.158777
H  -2.516963  -0.995727   0.794045
C  -0.171115  -0.731686   0.129577
H  -1.219794   0.543786   0.549966
H  -1.374959   1.159098  -1.274390
H  -0.306449  -1.838686   1.400966
H   0.709231  -0.148060  -0.002898
H   0.041807  -1.162367  -0.573460
