butane_opt
 OpenBabel08242015393D

 14 10  0  0  0  0  0  0  0  0999 V2000
   -3.9272    0.3103   -0.0032 C   0  0  0  0  0  0  0  0  0  0  0  0
   -2.6310   -0.6562    0.0848 C   0  0  0  0  0  0  0  0  0  0  0  0
   -4.7770   -0.2171    0.4503 H   0  0  0  0  0  0  0  0  0  0  0  0
   -3.9391    1.4303   -1.3504 H   0  0  0  0  0  0  0  0  0  0  0  0
   -4.0834    0.5391    0.4161 H   0  0  0  0  0  0  0  0  0  0  0  0
   -1.4020    0.0908    0.0927 C   0  0  0  0  0  0  0  0  0  0  0  0
   -2.6221   -1.5329   -0.7820 H   0  0  0  0  0  0  0  0  0  0  0  0
   -2.6321   -1.2290    0.9053 H   0  0  0  0  0  0  0  0  0  0  0  0
   -0.2438   -0.6307   -0.0390 C   0  0  0  0  0  0  0  0  0  0  0  0
   -1.6299    0.9163    1.0257 H   0  0  0  0  0  0  0  0  0  0  0  0
   -1.5071    0.7161   -0.8034 H   0  0  0  0  0  0  0  0  0  0  0  0
   -0.3043   -1.0853    0.6467 H   0  0  0  0  0  0  0  0  0  0  0  0
    1.0801    0.2914    0.2493 H   0  0  0  0  0  0  0  0  0  0  0  0
   -0.2316   -1.5866   -1.0046 H   0  0  0  0  0  0  0  0  0  0  0  0
  1  2  1  0  0  0  0
  1  3  1  0  0  0  0
  2  6  1  0  0  0  0
  2  8  1  0  0  0  0
  6 10  1  0  0  0  0
  7  2  1  0  0  0  0
  9  6  1  0  0  0  0
  9 12  1  0  0  0  0
 11  6  1  0  0  0  0
 14  9  1  0  0  0  0
M  RAD  5   1   3   4   2   5   2   9   2  13   2
M  END
$$$$
