butane_opt
 OpenBabel08242015393D

 14 10  0  0  0  0  0  0  0  0999 V2000
   -3.9735    0.1963   -0.0989 C   0  0  0  0  0  0  0  0  0  0  0  0
   -2.7213   -0.5008    0.2224 C   0  0  0  0  0  0  0  0  0  0  0  0
   -4.7993   -0.3353   -0.2867 H   0  0  0  0  0  0  0  0  0  0  0  0
   -3.8977    0.5945   -0.9452 H   0  0  0  0  0  0  0  0  0  0  0  0
   -4.1145    0.9776    0.7508 H   0  0  0  0  0  0  0  0  0  0  0  0
   -1.4483    0.2259    0.0276 C   0  0  0  0  0  0  0  0  0  0  0  0
   -2.6764   -1.0987   -0.5496 H   0  0  0  0  0  0  0  0  0  0  0  0
   -2.9757   -1.5840    1.4061 H   0  0  0  0  0  0  0  0  0  0  0  0
   -0.0798   -0.7564   -0.0554 C   0  0  0  0  0  0  0  0  0  0  0  0
   -1.1466    0.9296    1.1025 H   0  0  0  0  0  0  0  0  0  0  0  0
   -1.6817    0.7667   -0.7557 H   0  0  0  0  0  0  0  0  0  0  0  0
   -0.1964   -0.8756    0.4469 H   0  0  0  0  0  0  0  0  0  0  0  0
    0.8155    0.0062    0.2564 H   0  0  0  0  0  0  0  0  0  0  0  0
    0.3203   -1.8191   -1.1680 H   0  0  0  0  0  0  0  0  0  0  0  0
  1  2  1  0  0  0  0
  1  5  1  0  0  0  0
  3  1  1  0  0  0  0
  4  1  1  0  0  0  0
  6  2  1  0  0  0  0
  6 10  1  0  0  0  0
  7  2  1  0  0  0  0
  9  6  1  0  0  0  0
  9 13  1  0  0  0  0
 11  6  1  0  0  0  0
M  RAD  5   2   2   8   2   9   3  12   2  14   2
M  END
$$$$
