14
butane_opt
C  -3.891870   0.226051   0.090595
C  -2.653370  -0.527153  -0.123526
H  -5.078944  -0.572461   0.587043
H  -4.202113   0.984905  -0.721900
H  -3.334570   0.819162   0.965360
C  -1.473642   0.186196  -0.083695
H  -2.775640  -1.415152  -1.018995
H  -2.748298  -1.139625   0.896721
C  -0.179645  -0.684457   0.144453
H  -1.438163   0.678292   0.722709
H  -1.587847   0.794940  -1.013979
H  -0.091926  -1.417401   1.199048
H   0.664109  -0.221140   0.335204
H  -0.054428  -1.400744  -0.831371
