butane_opt
 OpenBabel08242015393D

 14  7  0  0  0  0  0  0  0  0999 V2000
   -3.8583    0.2062   -0.1350 C   0  0  0  0  0  0  0  0  0  0  0  0
   -2.7104   -0.5064    0.2327 C   0  0  0  0  0  1  0  0  0  0  0  0
   -4.9350   -0.5792    0.2222 H   0  0  0  0  0  0  0  0  0  0  0  0
   -4.0523    1.2188   -1.3059 H   0  0  0  0  0  0  0  0  0  0  0  0
   -3.5706    0.5330    0.5320 H   0  0  0  0  0  0  0  0  0  0  0  0
   -1.4828    0.1684    0.0980 C   0  0  0  0  0  0  0  0  0  0  0  0
   -2.5812   -0.9329   -0.4169 H   0  0  0  0  0  0  0  0  0  0  0  0
   -2.9835   -1.4948    1.2510 H   0  0  0  0  0  0  0  0  0  0  0  0
   -0.1573   -0.7344   -0.1248 C   0  0  0  0  0  0  0  0  0  0  0  0
   -1.6525    1.2301    1.1906 H   0  0  0  0  0  0  0  0  0  0  0  0
   -1.6416    0.7113   -0.7097 H   0  0  0  0  0  0  0  0  0  0  0  0
   -0.2334   -0.6995    0.5370 H   0  0  0  0  0  0  0  0  0  0  0  0
    0.8781    0.0197    0.6359 H   0  0  0  0  0  0  0  0  0  0  0  0
    0.2244   -2.1023   -1.4760 H   0  0  0  0  0  0  0  0  0  0  0  0
  1  3  1  0  0  0  0
  1  5  1  0  0  0  0
  7  2  1  0  0  0  0
  9  6  1  0  0  0  0
  9 12  1  0  0  0  0
  9 13  1  0  0  0  0
 11  6  1  0  0  0  0
M  RAD  7   1   3   4   2   6   3   8   2   9   2  10   2  14   2
M  END
$$$$
