butane_opt
 OpenBabel08242015393D

 14 13  0  0  0  0  0  0  0  0999 V2000
   -3.9147    0.2331   -0.1467 C   0  0  0  0  0  0  0  0  0  0  0  0
   -2.7489   -0.5942    0.2729 C   0  0  0  0  0  0  0  0  0  0  0  0
   -4.8899   -0.4712   -0.7789 H   0  0  0  0  0  0  0  0  0  0  0  0
   -3.6501    0.5370   -0.9563 H   0  0  0  0  0  0  0  0  0  0  0  0
   -4.4216    1.0208    0.7492 H   0  0  0  0  0  0  0  0  0  0  0  0
   -1.4113    0.2980    0.1841 C   0  0  0  0  0  0  0  0  0  0  0  0
   -2.7254   -1.0243   -0.4613 H   0  0  0  0  0  0  0  0  0  0  0  0
   -3.0398   -1.4074    1.4183 H   0  0  0  0  0  0  0  0  0  0  0  0
   -0.0963   -0.7954   -0.1548 C   0  0  0  0  0  0  0  0  0  0  0  0
   -1.3048    1.0122    1.1381 H   0  0  0  0  0  0  0  0  0  0  0  0
   -1.3829    1.0744   -0.7862 H   0  0  0  0  0  0  0  0  0  0  0  0
    0.1829   -1.2768    0.4928 H   0  0  0  0  0  0  0  0  0  0  0  0
    0.6773   -0.1833   -0.1310 H   0  0  0  0  0  0  0  0  0  0  0  0
   -0.3483   -1.5151   -1.1035 H   0  0  0  0  0  0  0  0  0  0  0  0
  1  2  1  0  0  0  0
  1  5  1  0  0  0  0
  2  8  1  0  0  0  0
  3  1  1  0  0  0  0
  4  1  1  0  0  0  0
  6  2  1  0  0  0  0
  6 10  1  0  0  0  0
  7  2  1  0  0  0  0
  9 13  1  0  0  0  0
  9  6  1  0  0  0  0
  9 12  1  0  0  0  0
 11  6  1  0  0  0  0
 14  9  1  0  0  0  0
M  END
$$$$
