14
butane_opt
C  -3.889130   0.303630  -0.111878
C  -2.669029  -0.643847   0.088945
H  -4.885032  -0.168366   0.938957
H  -4.305365   1.636920  -1.396936
H  -3.828019   0.382751   0.420151
C  -1.366443   0.096051   0.120933
H  -2.428463  -1.381653  -0.661289
H  -2.578201  -1.438224   1.015819
C  -0.272047  -0.642389  -0.048517
H  -0.981955   1.031068   1.324954
H  -1.546362   0.528671  -0.536635
H  -0.379448  -0.811644   0.521756
H   0.581043  -0.084727   0.232001
H  -0.286111  -1.513463  -1.087076
