butane_opt
 OpenBabel08242015393D

 14 10  0  0  0  0  0  0  0  0999 V2000
   -3.9424    0.2956    0.1306 C   0  0  0  0  0  1  0  0  0  0  0  0
   -2.6562   -0.6119   -0.0431 C   0  0  0  0  0  0  0  0  0  0  0  0
   -5.0194   -0.4587   -0.5848 H   0  0  0  0  0  0  0  0  0  0  0  0
   -3.7338    0.2492   -0.2744 H   0  0  0  0  0  0  0  0  0  0  0  0
   -3.8944    1.6068    1.3122 H   0  0  0  0  0  0  0  0  0  0  0  0
   -1.4428    0.1162   -0.1708 C   0  0  0  0  0  0  0  0  0  0  0  0
   -2.7728   -1.3021   -0.9573 H   0  0  0  0  0  0  0  0  0  0  0  0
   -2.4760   -1.3515    0.8834 H   0  0  0  0  0  0  0  0  0  0  0  0
   -0.1519   -0.6560    0.1665 C   0  0  0  0  0  0  0  0  0  0  0  0
   -1.5168    0.7327    0.6514 H   0  0  0  0  0  0  0  0  0  0  0  0
   -1.3030    0.8857   -1.1563 H   0  0  0  0  0  0  0  0  0  0  0  0
   -0.1416   -1.4499    1.2245 H   0  0  0  0  0  0  0  0  0  0  0  0
    0.6722   -0.1808   -0.1175 H   0  0  0  0  0  0  0  0  0  0  0  0
   -0.5042   -0.9655   -0.4529 H   0  0  0  0  0  0  0  0  0  0  0  0
  2  8  1  0  0  0  0
  3  1  1  0  0  0  0
  4  2  1  0  0  0  0
  6  2  1  0  0  0  0
  6 10  1  0  0  0  0
  7  2  1  0  0  0  0
  9 12  1  0  0  0  0
 11  6  1  0  0  0  0
 13  9  1  0  0  0  0
 14  9  1  0  0  0  0
M  RAD  3   5   2   6   2   9   2
M  END
$$$$
