14
butane_opt
C  -3.894041   0.260754   0.135339
C  -2.707514  -0.590638  -0.097901
H  -4.918466  -0.490531   0.384681
H  -3.801973   0.743244  -0.518796
H  -3.747768   0.869070   1.013312
C  -1.442866   0.187592  -0.117691
H  -2.763047  -1.565578  -1.186483
H  -2.860277  -0.586231   0.367776
C  -0.156954  -0.731280   0.164272
H  -1.544912   0.800030   0.775383
H  -1.570145   0.984776  -1.061891
H  -0.157821  -1.755627   1.267187
H   0.871684  -0.101558  -0.234623
H  -0.138538  -0.884159  -0.281660
