butane_opt
 OpenBabel08242015393D

 14 12  0  0  0  0  0  0  0  0999 V2000
   -4.0063    0.2998    0.1309 C   0  0  0  0  0  0  0  0  0  0  0  0
   -2.6952   -0.6176   -0.0731 C   0  0  0  0  0  0  0  0  0  0  0  0
   -4.8588   -0.3432    0.5574 H   0  0  0  0  0  0  0  0  0  0  0  0
   -4.1281    1.2547   -1.0045 H   0  0  0  0  0  0  0  0  0  0  0  0
   -3.9182    0.3476    0.5818 H   0  0  0  0  0  0  0  0  0  0  0  0
   -1.3722    0.1504   -0.0726 C   0  0  0  0  0  0  0  0  0  0  0  0
   -2.6977   -1.5216   -1.0578 H   0  0  0  0  0  0  0  0  0  0  0  0
   -2.6296   -1.0849    0.6982 H   0  0  0  0  0  0  0  0  0  0  0  0
   -0.1147   -0.6407    0.0874 C   0  0  0  0  0  0  0  0  0  0  0  0
   -1.5662    0.7694    0.9079 H   0  0  0  0  0  0  0  0  0  0  0  0
   -1.3242    0.6649   -0.8144 H   0  0  0  0  0  0  0  0  0  0  0  0
   -0.1676   -1.2330    1.1430 H   0  0  0  0  0  0  0  0  0  0  0  0
    0.6624   -0.2574    0.3736 H   0  0  0  0  0  0  0  0  0  0  0  0
   -0.1486   -1.3570   -0.8562 H   0  0  0  0  0  0  0  0  0  0  0  0
  1  3  1  0  0  0  0
  2  6  1  0  0  0  0
  2  1  1  0  0  0  0
  2  8  1  0  0  0  0
  4  1  1  0  0  0  0
  6  9  1  0  0  0  0
  6 10  1  0  0  0  0
  7  2  1  0  0  0  0
  9 13  1  0  0  0  0
  9 12  1  0  0  0  0
 11  6  1  0  0  0  0
 14  9  1  0  0  0  0
M  RAD  2   1   2   5   2
M  END
$$$$
