14
butane_opt
C  -3.840113   0.245669   0.244475
C  -2.709223  -0.544212  -0.184534
H  -4.955866  -0.647394   0.268760
H  -3.996397   0.735358  -0.596228
H  -3.642440   0.943830   1.110701
C  -1.433913   0.215871  -0.238919
H  -2.877508  -1.290470  -1.016636
H  -2.660161  -1.247481   0.824677
C  -0.228517  -0.729131   0.248577
H  -1.652342   0.704285   0.504387
H  -1.160875   1.083544  -1.438117
H  -0.192718  -1.113720   0.978490
H   0.547597  -0.345064   0.792324
H   0.128935  -1.592365  -0.823325
