butane_opt
 OpenBabel08242015393D

 14 11  0  0  0  0  0  0  0  0999 V2000
   -4.0190    0.2252   -0.1428 C   0  0  0  0  0  0  0  0  0  0  0  0
   -2.7203   -0.5991    0.2060 C   0  0  0  0  0  0  0  0  0  0  0  0
   -4.9259   -0.3812    0.4094 H   0  0  0  0  0  0  0  0  0  0  0  0
   -4.0738    1.2749   -1.2264 H   0  0  0  0  0  0  0  0  0  0  0  0
   -3.8307    0.5312    0.5199 H   0  0  0  0  0  0  0  0  0  0  0  0
   -1.3788    0.2254    0.1445 C   0  0  0  0  0  0  0  0  0  0  0  0
   -2.6421   -1.2058   -0.5033 H   0  0  0  0  0  0  0  0  0  0  0  0
   -2.9053   -1.1357    1.0057 H   0  0  0  0  0  0  0  0  0  0  0  0
   -0.0852   -0.7456   -0.0798 C   0  0  0  0  0  0  0  0  0  0  0  0
   -1.6233    0.9434    1.0378 H   0  0  0  0  0  0  0  0  0  0  0  0
   -1.5664    0.9357   -0.7532 H   0  0  0  0  0  0  0  0  0  0  0  0
   -0.1364   -0.7804    0.5138 H   0  0  0  0  0  0  0  0  0  0  0  0
    0.9533    0.0049    0.2131 H   0  0  0  0  0  0  0  0  0  0  0  0
    0.1376   -1.9367   -1.4310 H   0  0  0  0  0  0  0  0  0  0  0  0
  1  2  1  0  0  0  0
  1  3  1  0  0  0  0
  1  5  1  0  0  0  0
  2  8  1  0  0  0  0
  4  1  1  0  0  0  0
  6  2  1  0  0  0  0
  6 10  1  0  0  0  0
  7  2  1  0  0  0  0
  9  6  1  0  0  0  0
  9 13  1  0  0  0  0
 11  6  1  0  0  0  0
M  RAD  3   9   3  12   2  14   2
M  END
$$$$
