butane_opt
 OpenBabel08242015393D

 14 11  0  0  0  0  0  0  0  0999 V2000
   -3.9975    0.3153    0.0777 C   0  0  0  0  0  0  0  0  0  0  0  0
   -2.6763   -0.7148   -0.0121 C   0  0  0  0  0  0  0  0  0  0  0  0
   -4.5417    0.0365    0.0547 H   0  0  0  0  0  0  0  0  0  0  0  0
   -4.1586    0.9021   -0.7739 H   0  0  0  0  0  0  0  0  0  0  0  0
   -4.1111    1.1057    0.9950 H   0  0  0  0  0  0  0  0  0  0  0  0
   -1.3311    0.1030   -0.0406 C   0  0  0  0  0  0  0  0  0  0  0  0
   -2.8156   -1.5985   -1.1571 H   0  0  0  0  0  0  0  0  0  0  0  0
   -2.7929   -0.9846    0.6282 H   0  0  0  0  0  0  0  0  0  0  0  0
   -0.1840   -0.6342    0.1031 C   0  0  0  0  0  0  0  0  0  0  0  0
   -1.0285    0.8457    0.8692 H   0  0  0  0  0  0  0  0  0  0  0  0
   -1.4716    0.8878   -1.0441 H   0  0  0  0  0  0  0  0  0  0  0  0
   -0.1452   -1.6179    1.2091 H   0  0  0  0  0  0  0  0  0  0  0  0
    0.6409   -0.0173   -0.1823 H   0  0  0  0  0  0  0  0  0  0  0  0
   -0.3614   -0.8460   -0.5981 H   0  0  0  0  0  0  0  0  0  0  0  0
  1  5  1  0  0  0  0
  2  1  1  0  0  0  0
  2  8  1  0  0  0  0
  4  1  1  0  0  0  0
  6  9  1  0  0  0  0
  6 10  1  0  0  0  0
  7  2  1  0  0  0  0
  9 12  1  0  0  0  0
 11  6  1  0  0  0  0
 13  9  1  0  0  0  0
 14  9  1  0  0  0  0
M  RAD  4   1   2   2   2   3   2   6   2
M  END
$$$$
