butane_opt
 OpenBabel08242015393D

 14 13  0  0  0  0  0  0  0  0999 V2000
   -3.8878    0.2900   -0.2245 C   0  0  0  0  0  0  0  0  0  0  0  0
   -2.6798   -0.5937    0.2301 C   0  0  0  0  0  0  0  0  0  0  0  0
   -5.0766   -0.5048   -0.0149 H   0  0  0  0  0  0  0  0  0  0  0  0
   -3.7430    0.8517   -1.1220 H   0  0  0  0  0  0  0  0  0  0  0  0
   -4.0996    0.8013    0.5859 H   0  0  0  0  0  0  0  0  0  0  0  0
   -1.4202    0.1364    0.3321 C   0  0  0  0  0  0  0  0  0  0  0  0
   -2.3160   -1.3836   -0.6424 H   0  0  0  0  0  0  0  0  0  0  0  0
   -2.9290   -1.1611    1.1243 H   0  0  0  0  0  0  0  0  0  0  0  0
   -0.1899   -0.6820   -0.1700 C   0  0  0  0  0  0  0  0  0  0  0  0
   -1.4586    0.9970    1.2985 H   0  0  0  0  0  0  0  0  0  0  0  0
   -1.5550    0.8048   -0.7133 H   0  0  0  0  0  0  0  0  0  0  0  0
    0.3370   -1.5618    0.7640 H   0  0  0  0  0  0  0  0  0  0  0  0
    0.7387   -0.0944   -0.8673 H   0  0  0  0  0  0  0  0  0  0  0  0
   -0.7801   -1.0355   -0.9300 H   0  0  0  0  0  0  0  0  0  0  0  0
  1  3  1  0  0  0  0
  1  2  1  0  0  0  0
  1  5  1  0  0  0  0
  2  6  1  0  0  0  0
  2  8  1  0  0  0  0
  4  1  1  0  0  0  0
  6 10  1  0  0  0  0
  7  2  1  0  0  0  0
  9  6  1  0  0  0  0
  9 12  1  0  0  0  0
 11  6  1  0  0  0  0
 13  9  1  0  0  0  0
 14  9  1  0  0  0  0
M  END
$$$$
