butane_opt
 OpenBabel08242015393D

 14 13  0  0  0  0  0  0  0  0999 V2000
   -3.9275    0.2406    0.2365 C   0  0  0  0  0  0  0  0  0  0  0  0
   -2.7565   -0.6160   -0.1597 C   0  0  0  0  0  0  0  0  0  0  0  0
   -4.8672   -0.4291    0.2467 H   0  0  0  0  0  0  0  0  0  0  0  0
   -4.1166    0.7360   -0.5921 H   0  0  0  0  0  0  0  0  0  0  0  0
   -3.7286    0.8409    1.0750 H   0  0  0  0  0  0  0  0  0  0  0  0
   -1.4493    0.2738   -0.2560 C   0  0  0  0  0  0  0  0  0  0  0  0
   -2.9905   -1.3230   -1.0373 H   0  0  0  0  0  0  0  0  0  0  0  0
   -2.4350   -1.0060    0.5499 H   0  0  0  0  0  0  0  0  0  0  0  0
   -0.1085   -0.7621    0.2655 C   0  0  0  0  0  0  0  0  0  0  0  0
   -1.4765    0.9279    0.6441 H   0  0  0  0  0  0  0  0  0  0  0  0
   -1.3244    0.9575   -1.3271 H   0  0  0  0  0  0  0  0  0  0  0  0
   -0.3280   -1.2778    0.9711 H   0  0  0  0  0  0  0  0  0  0  0  0
    0.7487   -0.1327    0.3935 H   0  0  0  0  0  0  0  0  0  0  0  0
    0.3951   -1.4151   -0.5443 H   0  0  0  0  0  0  0  0  0  0  0  0
  1  3  1  0  0  0  0
  1  5  1  0  0  0  0
  2  1  1  0  0  0  0
  2  8  1  0  0  0  0
  4  1  1  0  0  0  0
  6  2  1  0  0  0  0
  6  9  1  0  0  0  0
  6 10  1  0  0  0  0
  7  2  1  0  0  0  0
  9 13  1  0  0  0  0
  9 12  1  0  0  0  0
 11  6  1  0  0  0  0
 14  9  1  0  0  0  0
M  END
$$$$
