butane_opt
 OpenBabel08242015393D

 14 10  0  0  0  0  0  0  0  0999 V2000
   -3.9411    0.2941   -0.1030 C   0  0  0  0  0  0  0  0  0  0  0  0
   -2.6974   -0.6454    0.0537 C   0  0  0  0  0  0  0  0  0  0  0  0
   -4.8650   -0.3296    0.8394 H   0  0  0  0  0  0  0  0  0  0  0  0
   -4.2594    1.3418   -1.2198 H   0  0  0  0  0  0  0  0  0  0  0  0
   -3.5015    0.3132    0.5457 H   0  0  0  0  0  0  0  0  0  0  0  0
   -1.3919    0.2431    0.1437 C   0  0  0  0  0  0  0  0  0  0  0  0
   -2.7878   -1.1597   -0.7363 H   0  0  0  0  0  0  0  0  0  0  0  0
   -2.8738   -1.3787    1.1259 H   0  0  0  0  0  0  0  0  0  0  0  0
   -0.1978   -0.7007   -0.0520 C   0  0  0  0  0  0  0  0  0  0  0  0
   -1.2883    0.8529    1.0603 H   0  0  0  0  0  0  0  0  0  0  0  0
   -1.3485    0.5760   -0.5174 H   0  0  0  0  0  0  0  0  0  0  0  0
   -0.2150   -1.0597    0.6300 H   0  0  0  0  0  0  0  0  0  0  0  0
    0.6672   -0.2150    0.1560 H   0  0  0  0  0  0  0  0  0  0  0  0
    0.1652   -1.6690   -1.0643 H   0  0  0  0  0  0  0  0  0  0  0  0
  1  5  1  0  0  0  0
  1  3  1  0  0  0  0
  2  8  1  0  0  0  0
  6 10  1  0  0  0  0
  7  2  1  0  0  0  0
  9  6  1  0  0  0  0
  9 13  1  0  0  0  0
  9 12  1  0  0  0  0
 11  6  1  0  0  0  0
 14  9  1  0  0  0  0
M  RAD  4   1   3   2   3   4   2   6   2
M  END
$$$$
