14
butane_opt
C  -3.954367   0.222833  -0.111327
C  -2.695087  -0.616163   0.291211
H  -4.803533  -0.433494   0.113075
H  -3.937724   1.209534  -1.306347
H  -4.118937   0.591788   0.408383
C  -1.422081   0.297480   0.080098
H  -2.641514  -1.350049  -0.586816
H  -3.158261  -1.279203   1.137238
C  -0.119214  -0.750651  -0.109722
H  -1.293311   1.007158   0.944034
H  -1.738522   0.960393  -0.795449
H  -0.088308  -0.717012   0.377960
H   0.868328  -0.066743   0.804411
H   0.166229  -2.240841  -1.513466
