14
butane_opt
C  -3.946489   0.276234   0.187628
C  -2.613436  -0.599503  -0.120845
H  -4.904387  -0.416261   0.184540
H  -4.141508   0.739376  -0.508977
H  -3.824327   1.237920   1.241983
C  -1.394924   0.120309  -0.214895
H  -2.686220  -1.413250  -1.127676
H  -2.523705  -1.276122   0.737833
C  -0.201755  -0.621232   0.141972
H  -1.644369   0.639094   0.636131
H  -1.355154   0.681721  -1.122807
H  -0.662889  -1.563061   1.438469
H   0.586144   0.021641   0.623869
H   0.017429  -1.232869  -0.536255
