14
butane_opt
C  -3.904577   0.207762  -0.125440
C  -2.702142  -0.508739   0.187683
H  -4.928482  -0.650735   0.635102
H  -3.764831   1.393319  -1.429375
H  -3.780604   0.202168   0.251865
C  -1.447910   0.284503   0.183088
H  -2.444610  -1.511607  -0.911794
H  -3.015543  -1.034262   1.006194
C  -0.149143  -0.778990  -0.102906
H  -1.098428   1.122668   1.155661
H  -1.573200   0.697329  -0.387723
H  -0.189693  -1.271259   0.645004
H   0.603959  -0.324969  -0.141724
H  -0.301895  -1.579609  -1.122635
