butane_opt
 OpenBabel08242015393D

 14 10  0  0  0  0  0  0  0  0999 V2000
   -3.9232    0.2570    0.0308 C   0  0  0  0  0  1  0  0  0  0  0  0
   -2.7118   -0.5453    0.0288 C   0  0  0  0  0  0  0  0  0  0  0  0
   -5.0172   -0.4373   -0.4624 H   0  0  0  0  0  0  0  0  0  0  0  0
   -3.4823    0.1317   -0.3119 H   0  0  0  0  0  0  0  0  0  0  0  0
   -3.9074    1.5276    1.3833 H   0  0  0  0  0  0  0  0  0  0  0  0
   -1.4301    0.1742   -0.0773 C   0  0  0  0  0  0  0  0  0  0  0  0
   -2.5573   -1.0700   -0.7101 H   0  0  0  0  0  0  0  0  0  0  0  0
   -2.8067   -1.3607    1.1241 H   0  0  0  0  0  0  0  0  0  0  0  0
   -0.1954   -0.7338    0.0444 C   0  0  0  0  0  0  0  0  0  0  0  0
   -1.4588    0.6604    0.6470 H   0  0  0  0  0  0  0  0  0  0  0  0
   -1.1575    0.9165   -0.9331 H   0  0  0  0  0  0  0  0  0  0  0  0
   -0.2498   -1.4552    1.0580 H   0  0  0  0  0  0  0  0  0  0  0  0
    0.7938   -0.1779    0.0628 H   0  0  0  0  0  0  0  0  0  0  0  0
   -0.0474   -1.0654   -0.6453 H   0  0  0  0  0  0  0  0  0  0  0  0
  2  8  1  0  0  0  0
  3  1  1  0  0  0  0
  4  2  1  0  0  0  0
  6  9  1  0  0  0  0
  6 10  1  0  0  0  0
  7  2  1  0  0  0  0
  9 13  1  0  0  0  0
  9 12  1  0  0  0  0
 11  6  1  0  0  0  0
 14  9  1  0  0  0  0
M  RAD  3   2   2   5   2   6   2
M  END
$$$$
