14
butane_opt
C  -3.910964   0.203995   0.144635
C  -2.673086  -0.602780  -0.174359
H  -4.998956  -0.533575   0.370306
H  -4.291586   0.863748  -0.538718
H  -3.428081   0.878253   1.087309
C  -1.434546   0.303951  -0.114235
H  -2.963148  -1.122830  -1.031200
H  -2.603557  -1.007892   0.487643
C  -0.190289  -0.774659   0.204685
H  -1.564121   0.916309   0.758265
H  -1.318532   0.963435  -1.102705
H   0.060298  -1.622166   1.309510
H   0.658861  -0.228321  -0.128618
H  -0.047809  -1.189039  -0.501159
