butane_opt
 OpenBabel08242015393D

 14 13  0  0  0  0  0  0  0  0999 V2000
   -3.9880    0.1903   -0.1103 C   0  0  0  0  0  0  0  0  0  0  0  0
   -2.6878   -0.5413    0.1841 C   0  0  0  0  0  0  0  0  0  0  0  0
   -4.9181   -0.5174   -0.4283 H   0  0  0  0  0  0  0  0  0  0  0  0
   -3.6368    0.6008   -0.8051 H   0  0  0  0  0  0  0  0  0  0  0  0
   -4.4405    1.1110    0.8749 H   0  0  0  0  0  0  0  0  0  0  0  0
   -1.4276    0.2929    0.1260 C   0  0  0  0  0  0  0  0  0  0  0  0
   -2.5624   -1.2973   -0.5448 H   0  0  0  0  0  0  0  0  0  0  0  0
   -2.9704   -1.1923    1.1568 H   0  0  0  0  0  0  0  0  0  0  0  0
   -0.1195   -0.7442   -0.0497 C   0  0  0  0  0  0  0  0  0  0  0  0
   -1.2747    0.7045    0.8151 H   0  0  0  0  0  0  0  0  0  0  0  0
   -1.3889    0.8458   -0.6860 H   0  0  0  0  0  0  0  0  0  0  0  0
    0.5858   -1.3980    0.7675 H   0  0  0  0  0  0  0  0  0  0  0  0
    0.5899   -0.2345   -0.4412 H   0  0  0  0  0  0  0  0  0  0  0  0
   -0.2961   -1.4863   -1.0175 H   0  0  0  0  0  0  0  0  0  0  0  0
  1  2  1  0  0  0  0
  1  5  1  0  0  0  0
  2  8  1  0  0  0  0
  3  1  1  0  0  0  0
  4  1  1  0  0  0  0
  6  2  1  0  0  0  0
  6 10  1  0  0  0  0
  7  2  1  0  0  0  0
  9  6  1  0  0  0  0
  9 12  1  0  0  0  0
 11  6  1  0  0  0  0
 13  9  1  0  0  0  0
 14  9  1  0  0  0  0
M  END
$$$$
