14
butane_opt
C  -3.965652   0.310083   0.129423
C  -2.595307  -0.656022  -0.164514
H  -4.792653  -0.285369   0.943548
H  -4.441994   1.502753  -0.975505
H  -3.611992   0.547396   0.748261
C  -1.402648   0.056772  -0.055210
H  -2.841281  -1.492299  -1.052221
H  -2.639176  -1.030960   0.659380
C  -0.220529  -0.654306   0.098429
H  -1.559412   1.019948   0.859624
H  -1.300696   0.731087  -0.860354
H  -0.540329  -1.384253   1.185053
H   0.957368   0.318897   0.386958
H  -0.078050  -1.048501  -0.590404
