14
butane_opt
C  -4.011235   0.212010  -0.109367
C  -2.729742  -0.537430   0.071196
H  -5.157193  -0.520409   0.949239
H  -4.066868   1.547345  -1.574011
H  -3.541179   0.209957   0.410382
C  -1.371741   0.261000   0.176286
H  -2.947122  -1.057771  -0.574073
H  -2.888843  -1.274415   1.033027
C  -0.081961  -0.781899  -0.107483
H  -1.157207   1.213083   1.269809
H  -1.520270   0.609576  -0.448994
H  -0.148812  -1.083297   0.739344
H   0.647248  -0.257150   0.230780
H   0.127363  -1.728108  -1.070453
