butane_opt
 OpenBabel08242015393D

 14 10  0  0  0  0  0  0  0  0999 V2000
   -3.9772    0.2972   -0.0446 C   0  0  0  0  0  0  0  0  0  0  0  0
   -2.7624   -0.6357    0.1168 C   0  0  0  0  0  0  0  0  0  0  0  0
   -4.6200   -0.0915    0.2978 H   0  0  0  0  0  0  0  0  0  0  0  0
   -3.9212    1.1480   -1.0841 H   0  0  0  0  0  0  0  0  0  0  0  0
   -4.1981    0.6582    0.5868 H   0  0  0  0  0  0  0  0  0  0  0  0
   -1.3488    0.1512    0.0127 C   0  0  0  0  0  0  0  0  0  0  0  0
   -2.7257   -1.1291   -0.4435 H   0  0  0  0  0  0  0  0  0  0  0  0
   -2.5924   -1.6144    1.1533 H   0  0  0  0  0  0  0  0  0  0  0  0
   -0.1166   -0.6842   -0.0415 C   0  0  0  0  0  0  0  0  0  0  0  0
   -1.2117    0.9219    1.0332 H   0  0  0  0  0  0  0  0  0  0  0  0
   -1.4614    0.6656   -0.6804 H   0  0  0  0  0  0  0  0  0  0  0  0
   -0.6291   -0.7072    0.5256 H   0  0  0  0  0  0  0  0  0  0  0  0
    0.8094    0.0737    0.6906 H   0  0  0  0  0  0  0  0  0  0  0  0
   -0.0293   -1.9139   -1.2457 H   0  0  0  0  0  0  0  0  0  0  0  0
  1  2  1  0  0  0  0
  1  3  1  0  0  0  0
  1  5  1  0  0  0  0
  2  8  1  0  0  0  0
  4  1  1  0  0  0  0
  6 10  1  0  0  0  0
  7  2  1  0  0  0  0
  9 12  1  0  0  0  0
  9 13  1  0  0  0  0
 11  6  1  0  0  0  0
M  RAD  4   2   2   6   3   9   3  14   2
M  END
$$$$
