14
butane_opt
C  -4.034097   0.274975   0.134432
C  -2.674895  -0.665667  -0.085166
H  -4.867158  -0.272246  -0.566899
H  -3.829657   0.205990  -0.290722
H  -4.343049   1.898652   1.599578
C  -1.397598   0.160921  -0.159679
H  -2.824075  -1.303202  -0.919491
H  -2.526349  -1.480788   0.948080
C  -0.136998  -0.663354   0.186253
H  -1.324666   0.748813   0.616550
H  -1.141890   0.938769  -1.315604
H   0.164259  -1.459534   1.294643
H   0.628864  -0.089229  -0.348498
H  -0.046643  -0.945801  -0.376777
