butane_opt
 OpenBabel08242015393D

 14 10  0  0  0  0  0  0  0  0999 V2000
   -3.9544    0.2228   -0.1113 C   0  0  0  0  0  0  0  0  0  0  0  0
   -2.6951   -0.6162    0.2912 C   0  0  0  0  0  0  0  0  0  0  0  0
   -4.8035   -0.4335    0.1131 H   0  0  0  0  0  0  0  0  0  0  0  0
   -3.9377    1.2095   -1.3063 H   0  0  0  0  0  0  0  0  0  0  0  0
   -4.1189    0.5918    0.4084 H   0  0  0  0  0  0  0  0  0  0  0  0
   -1.4221    0.2975    0.0801 C   0  0  0  0  0  0  0  0  0  0  0  0
   -2.6415   -1.3500   -0.5868 H   0  0  0  0  0  0  0  0  0  0  0  0
   -3.1583   -1.2792    1.1372 H   0  0  0  0  0  0  0  0  0  0  0  0
   -0.1192   -0.7507   -0.1097 C   0  0  0  0  0  0  0  0  0  0  0  0
   -1.2933    1.0072    0.9440 H   0  0  0  0  0  0  0  0  0  0  0  0
   -1.7385    0.9604   -0.7954 H   0  0  0  0  0  0  0  0  0  0  0  0
   -0.0883   -0.7170    0.3780 H   0  0  0  0  0  0  0  0  0  0  0  0
    0.8683   -0.0667    0.8044 H   0  0  0  0  0  0  0  0  0  0  0  0
    0.1662   -2.2408   -1.5135 H   0  0  0  0  0  0  0  0  0  0  0  0
  1  3  1  0  0  0  0
  1  2  1  0  0  0  0
  1  5  1  0  0  0  0
  2  8  1  0  0  0  0
  6  2  1  0  0  0  0
  6 10  1  0  0  0  0
  7  2  1  0  0  0  0
  9  6  1  0  0  0  0
  9 13  1  0  0  0  0
 11  6  1  0  0  0  0
M  RAD  5   1   2   4   2   9   3  12   2  14   2
M  END
$$$$
