butane_opt
 OpenBabel08242015393D

 14 12  0  0  0  0  0  0  0  0999 V2000
   -3.9977    0.2946    0.2024 C   0  0  0  0  0  0  0  0  0  0  0  0
   -2.6247   -0.6842   -0.0685 C   0  0  0  0  0  0  0  0  0  0  0  0
   -4.8965   -0.1735    0.1056 H   0  0  0  0  0  0  0  0  0  0  0  0
   -4.2580    1.0286   -0.7478 H   0  0  0  0  0  0  0  0  0  0  0  0
   -4.1306    0.9675    0.9017 H   0  0  0  0  0  0  0  0  0  0  0  0
   -1.3506    0.1299   -0.1643 C   0  0  0  0  0  0  0  0  0  0  0  0
   -2.6935   -1.5377   -1.0927 H   0  0  0  0  0  0  0  0  0  0  0  0
   -2.5452   -1.2007    0.7001 H   0  0  0  0  0  0  0  0  0  0  0  0
   -0.2196   -0.6077    0.1598 C   0  0  0  0  0  0  0  0  0  0  0  0
   -1.5016    0.6864    0.5241 H   0  0  0  0  0  0  0  0  0  0  0  0
   -1.1851    0.9854   -1.3602 H   0  0  0  0  0  0  0  0  0  0  0  0
   -0.4306   -1.1153    1.0819 H   0  0  0  0  0  0  0  0  0  0  0  0
    0.7208   -0.0434    0.6575 H   0  0  0  0  0  0  0  0  0  0  0  0
    0.1893   -1.6748   -0.9078 H   0  0  0  0  0  0  0  0  0  0  0  0
  1  5  1  0  0  0  0
  2  1  1  0  0  0  0
  2  8  1  0  0  0  0
  3  1  1  0  0  0  0
  4  1  1  0  0  0  0
  6  2  1  0  0  0  0
  6  9  1  0  0  0  0
  6 10  1  0  0  0  0
  7  2  1  0  0  0  0
  9 13  1  0  0  0  0
  9 12  1  0  0  0  0
 11  6  1  0  0  0  0
M  RAD  2   9   2  14   2
M  END
$$$$
