14
butane_opt
C  -4.018994   0.225172  -0.142835
C  -2.720262  -0.599105   0.206041
H  -4.925917  -0.381213   0.409438
H  -4.073782   1.274905  -1.226395
H  -3.830743   0.531180   0.519944
C  -1.378831   0.225448   0.144482
H  -2.642131  -1.205778  -0.503314
H  -2.905270  -1.135721   1.005691
C  -0.085192  -0.745581  -0.079847
H  -1.623299   0.943423   1.037758
H  -1.566449   0.935678  -0.753234
H  -0.136422  -0.780410   0.513775
H   0.953265   0.004910   0.213116
H   0.137628  -1.936745  -1.431024
