butane_opt
 OpenBabel08242015393D

 14 12  0  0  0  0  0  0  0  0999 V2000
   -3.9760    0.2061   -0.0828 C   0  0  0  0  0  0  0  0  0  0  0  0
   -2.6957   -0.6002    0.1268 C   0  0  0  0  0  0  0  0  0  0  0  0
   -4.9095   -0.4300   -0.1001 H   0  0  0  0  0  0  0  0  0  0  0  0
   -4.0298    0.9752   -1.0672 H   0  0  0  0  0  0  0  0  0  0  0  0
   -4.1130    0.9722    0.7892 H   0  0  0  0  0  0  0  0  0  0  0  0
   -1.3721    0.2402    0.1296 C   0  0  0  0  0  0  0  0  0  0  0  0
   -2.5041   -1.2594   -0.8055 H   0  0  0  0  0  0  0  0  0  0  0  0
   -2.9323   -1.1885    1.0146 H   0  0  0  0  0  0  0  0  0  0  0  0
   -0.1191   -0.6961   -0.0821 C   0  0  0  0  0  0  0  0  0  0  0  0
   -1.2863    1.2783    1.2254 H   0  0  0  0  0  0  0  0  0  0  0  0
   -1.6364    0.5208   -0.4964 H   0  0  0  0  0  0  0  0  0  0  0  0
    0.1196   -1.7628    1.3046 H   0  0  0  0  0  0  0  0  0  0  0  0
    0.4646   -0.3621   -0.7189 H   0  0  0  0  0  0  0  0  0  0  0  0
   -0.1845   -1.0661   -0.7676 H   0  0  0  0  0  0  0  0  0  0  0  0
  1  2  1  0  0  0  0
  1  5  1  0  0  0  0
  2  6  1  0  0  0  0
  2  8  1  0  0  0  0
  3  1  1  0  0  0  0
  4  1  1  0  0  0  0
  6 10  1  0  0  0  0
  7  2  1  0  0  0  0
  9  6  1  0  0  0  0
 11  6  1  0  0  0  0
 13  9  1  0  0  0  0
 14  9  1  0  0  0  0
M  RAD  2   9   2  12   2
M  END
$$$$
