butane_opt
 OpenBabel08242015393D

 14  9  0  0  0  0  0  0  0  0999 V2000
   -3.8852    0.3060    0.1053 C   0  0  0  0  0  0  0  0  0  0  0  0
   -2.6806   -0.6713   -0.1694 C   0  0  0  0  0  0  0  0  0  0  0  0
   -4.8683   -0.2895    0.1772 H   0  0  0  0  0  0  0  0  0  0  0  0
   -4.2028    0.6627   -0.4037 H   0  0  0  0  0  0  0  0  0  0  0  0
   -4.0310    1.4174    1.2895 H   0  0  0  0  0  0  0  0  0  0  0  0
   -1.3613    0.1435   -0.0886 C   0  0  0  0  0  0  0  0  0  0  0  0
   -2.7034   -1.3356   -1.1391 H   0  0  0  0  0  0  0  0  0  0  0  0
   -2.4266   -1.3776    0.7856 H   0  0  0  0  0  0  0  0  0  0  0  0
   -0.2616   -0.6425    0.1944 C   0  0  0  0  0  0  0  0  0  0  0  0
   -1.4247    0.8615    0.7840 H   0  0  0  0  0  0  0  0  0  0  0  0
   -1.1893    0.7150   -0.9238 H   0  0  0  0  0  0  0  0  0  0  0  0
    0.0320   -1.9087    1.4344 H   0  0  0  0  0  0  0  0  0  0  0  0
    0.6909    0.0032   -0.6519 H   0  0  0  0  0  0  0  0  0  0  0  0
   -0.6090   -0.8478   -0.3168 H   0  0  0  0  0  0  0  0  0  0  0  0
  1  3  1  0  0  0  0
  2  1  1  0  0  0  0
  2  8  1  0  0  0  0
  4  1  1  0  0  0  0
  6 10  1  0  0  0  0
  7  2  1  0  0  0  0
 11  6  1  0  0  0  0
 13  9  1  0  0  0  0
 14  9  1  0  0  0  0
M  RAD  6   1   2   2   2   5   2   6   3   9   3  12   2
M  END
$$$$
