14
butane_opt
C  -3.839935   0.221553   0.094300
C  -2.733270  -0.575125   0.047439
H  -4.752258  -0.506675  -0.646772
H  -3.286097   0.477681  -0.689497
H  -4.325355   1.391511   1.288897
C  -1.439883   0.248402  -0.082382
H  -2.811961  -1.389109  -0.784492
H  -2.893852  -1.150459   0.920282
C  -0.161457  -0.749641   0.058603
H  -1.598611   0.842706   0.767046
H  -1.518851   1.099549  -1.084878
H  -0.207515  -1.489199   1.152640
H   0.681497  -0.302499  -0.091957
H  -0.191919  -1.208237  -0.731693
