butane_opt
 OpenBabel08242015393D

 14 10  0  0  0  0  0  0  0  0999 V2000
   -3.9327    0.2774   -0.0825 C   0  0  0  0  0  0  0  0  0  0  0  0
   -2.6527   -0.6109    0.1848 C   0  0  0  0  0  0  0  0  0  0  0  0
   -4.8441   -0.2787    0.2152 H   0  0  0  0  0  0  0  0  0  0  0  0
   -4.0315    1.1833   -1.1557 H   0  0  0  0  0  0  0  0  0  0  0  0
   -3.7548    0.7596    0.8023 H   0  0  0  0  0  0  0  0  0  0  0  0
   -1.4275    0.1508    0.0199 C   0  0  0  0  0  0  0  0  0  0  0  0
   -2.5842   -1.3657   -0.5856 H   0  0  0  0  0  0  0  0  0  0  0  0
   -2.5633   -1.4024    1.0905 H   0  0  0  0  0  0  0  0  0  0  0  0
   -0.1899   -0.6830   -0.0197 C   0  0  0  0  0 15  0  0  0  0  0  0
   -1.3849    0.4831    0.7431 H   0  0  0  0  0  0  0  0  0  0  0  0
   -1.6247    0.9126   -0.8282 H   0  0  0  0  0  0  0  0  0  0  0  0
   -0.5054   -0.5037    0.3925 H   0  0  0  0  0  0  0  0  0  0  0  0
    0.9277    0.2056    0.9099 H   0  0  0  0  0  0  0  0  0  0  0  0
   -0.2386   -2.0427   -1.4645 H   0  0  0  0  0  0  0  0  0  0  0  0
  1  2  1  0  0  0  0
  1  3  1  0  0  0  0
  1  5  1  0  0  0  0
  2  8  1  0  0  0  0
  4  1  1  0  0  0  0
  6  2  1  0  0  0  0
  6 12  1  0  0  0  0
  6 10  1  0  0  0  0
  7  2  1  0  0  0  0
 11  6  1  0  0  0  0
M  RAD  2  13   2  14   2
M  END
$$$$
