butane_opt
 OpenBabel08242015393D

 14 13  0  0  0  0  0  0  0  0999 V2000
   -3.9383    0.2579   -0.0034 C   0  0  0  0  0  0  0  0  0  0  0  0
   -2.7154   -0.6083    0.0437 C   0  0  0  0  0  0  0  0  0  0  0  0
   -4.8565   -0.3542    0.0396 H   0  0  0  0  0  0  0  0  0  0  0  0
   -3.9430    0.8938   -0.9168 H   0  0  0  0  0  0  0  0  0  0  0  0
   -3.9553    0.8743    0.8195 H   0  0  0  0  0  0  0  0  0  0  0  0
   -1.4018    0.2104    0.0483 C   0  0  0  0  0  0  0  0  0  0  0  0
   -2.7075   -1.2420   -0.7644 H   0  0  0  0  0  0  0  0  0  0  0  0
   -2.7162   -1.3018    0.9732 H   0  0  0  0  0  0  0  0  0  0  0  0
   -0.1600   -0.7104    0.0158 C   0  0  0  0  0  0  0  0  0  0  0  0
   -1.3704    0.9121    0.9018 H   0  0  0  0  0  0  0  0  0  0  0  0
   -1.4102    0.7736   -0.8030 H   0  0  0  0  0  0  0  0  0  0  0  0
   -0.0521   -1.3326    0.9086 H   0  0  0  0  0  0  0  0  0  0  0  0
    0.7236   -0.1459   -0.1141 H   0  0  0  0  0  0  0  0  0  0  0  0
   -0.1474   -1.3453   -0.8628 H   0  0  0  0  0  0  0  0  0  0  0  0
  1  3  1  0  0  0  0
  1  2  1  0  0  0  0
  1  5  1  0  0  0  0
  2  6  1  0  0  0  0
  2  8  1  0  0  0  0
  4  1  1  0  0  0  0
  6 10  1  0  0  0  0
  7  2  1  0  0  0  0
  9  6  1  0  0  0  0
  9 12  1  0  0  0  0
 11  6  1  0  0  0  0
 13  9  1  0  0  0  0
 14  9  1  0  0  0  0
M  END
$$$$
