butane_opt
 OpenBabel08242015393D

 14 11  0  0  0  0  0  0  0  0999 V2000
   -3.8992    0.2652   -0.0322 C   0  0  0  0  0  0  0  0  0  0  0  0
   -2.7367   -0.5497    0.1342 C   0  0  0  0  0  0  0  0  0  0  0  0
   -4.7933   -0.3861    0.3261 H   0  0  0  0  0  0  0  0  0  0  0  0
   -3.6835    1.0167   -1.1811 H   0  0  0  0  0  0  0  0  0  0  0  0
   -4.0434    0.4941    0.5491 H   0  0  0  0  0  0  0  0  0  0  0  0
   -1.4151    0.1513    0.0560 C   0  0  0  0  0  0  0  0  0  0  0  0
   -2.9788   -1.2482   -0.6789 H   0  0  0  0  0  0  0  0  0  0  0  0
   -2.5386   -1.1733    1.0747 H   0  0  0  0  0  0  0  0  0  0  0  0
   -0.1420   -0.6940   -0.0271 C   0  0  0  0  0  0  0  0  0  0  0  0
   -1.4566    0.7486    0.6964 H   0  0  0  0  0  0  0  0  0  0  0  0
   -1.5533    0.8963   -0.8499 H   0  0  0  0  0  0  0  0  0  0  0  0
   -0.4619   -0.7931    0.5147 H   0  0  0  0  0  0  0  0  0  0  0  0
    0.7675   -0.1885    0.7121 H   0  0  0  0  0  0  0  0  0  0  0  0
    0.0335   -1.9269   -1.3717 H   0  0  0  0  0  0  0  0  0  0  0  0
  1  2  1  0  0  0  0
  1  3  1  0  0  0  0
  1  5  1  0  0  0  0
  2  8  1  0  0  0  0
  4  1  1  0  0  0  0
  6  2  1  0  0  0  0
  6 10  1  0  0  0  0
  7  2  1  0  0  0  0
  9 12  1  0  0  0  0
  9 13  1  0  0  0  0
 11  6  1  0  0  0  0
M  RAD  3   6   2   9   3  14   2
M  END
$$$$
