14
butane_opt
C  -3.940424   0.289015   0.172771
C  -2.665863  -0.691393  -0.081864
H  -4.786657  -0.130215   0.146214
H  -3.946546   0.902550  -0.766397
H  -3.944818   1.119010   1.168634
C  -1.415797   0.122636  -0.160667
H  -2.600402  -1.228947  -0.905418
H  -2.326683  -1.124252   0.729056
C  -0.202494  -0.650508   0.205867
H  -1.551121   0.497702   0.394572
H  -1.310853   1.045450  -1.369714
H  -0.729123  -0.872069   0.822365
H   0.924894   0.198632   0.550790
H  -0.071031  -1.722761  -0.995006
