14
butane_opt
C  -3.988047   0.190254  -0.110334
C  -2.687795  -0.541270   0.184094
H  -4.918089  -0.517408  -0.428319
H  -3.636814   0.600803  -0.805086
H  -4.440463   1.111049   0.874940
C  -1.427643   0.292877   0.125963
H  -2.562440  -1.297288  -0.544765
H  -2.970382  -1.192324   1.156806
C  -0.119486  -0.744210  -0.049735
H  -1.274687   0.704541   0.815070
H  -1.388881   0.845832  -0.686016
H   0.585783  -1.397962   0.767547
H   0.589884  -0.234487  -0.441179
H  -0.296124  -1.486322  -1.017539
