butane_opt
 OpenBabel08242015393D

 14 12  0  0  0  0  0  0  0  0999 V2000
   -3.9283    0.2455   -0.1084 C   0  0  0  0  0  0  0  0  0  0  0  0
   -2.7847   -0.6450    0.2560 C   0  0  0  0  0  0  0  0  0  0  0  0
   -4.8493   -0.4418   -0.5723 H   0  0  0  0  0  0  0  0  0  0  0  0
   -3.4331    0.6873   -0.9906 H   0  0  0  0  0  0  0  0  0  0  0  0
   -4.4632    1.1414    0.8866 H   0  0  0  0  0  0  0  0  0  0  0  0
   -1.3793    0.2785    0.0506 C   0  0  0  0  0  0  0  0  0  0  0  0
   -2.7608   -1.0072   -0.2508 H   0  0  0  0  0  0  0  0  0  0  0  0
   -2.9762   -1.2909    1.2511 H   0  0  0  0  0  0  0  0  0  0  0  0
   -0.0823   -0.7384   -0.1131 C   0  0  0  0  0  0  0  0  0  0  0  0
   -1.4067    1.2560    1.0339 H   0  0  0  0  0  0  0  0  0  0  0  0
   -1.5249    0.7244   -0.6017 H   0  0  0  0  0  0  0  0  0  0  0  0
   -0.0535   -1.2348    0.7922 H   0  0  0  0  0  0  0  0  0  0  0  0
    0.6904   -0.3437    0.0726 H   0  0  0  0  0  0  0  0  0  0  0  0
   -0.1243   -1.7122   -1.2021 H   0  0  0  0  0  0  0  0  0  0  0  0
  1  2  1  0  0  0  0
  1  5  1  0  0  0  0
  2  8  1  0  0  0  0
  3  1  1  0  0  0  0
  4  1  1  0  0  0  0
  6  2  1  0  0  0  0
  6 10  1  0  0  0  0
  9  6  1  0  0  0  0
  9 13  1  0  0  0  0
  9 12  1  0  0  0  0
 11  6  1  0  0  0  0
 14  9  1  0  0  0  0
M  RAD  2   2   2   7   2
M  END
$$$$
