butane_opt
 OpenBabel08242015393D

 14 10  0  0  0  0  0  0  0  0999 V2000
   -4.0198    0.2179    0.1223 C   0  0  0  0  0  0  0  0  0  0  0  0
   -2.6839   -0.6203   -0.0747 C   0  0  0  0  0  0  0  0  0  0  0  0
   -4.8172   -0.3215   -0.3885 H   0  0  0  0  0  0  0  0  0  0  0  0
   -4.0049    0.6700   -0.5306 H   0  0  0  0  0  0  0  0  0  0  0  0
   -3.9746    1.1549    1.2133 H   0  0  0  0  0  0  0  0  0  0  0  0
   -1.3684    0.2061   -0.0722 C   0  0  0  0  0  0  0  0  0  0  0  0
   -2.6178   -1.2622   -1.0255 H   0  0  0  0  0  0  0  0  0  0  0  0
   -2.6750   -0.9010    0.6020 H   0  0  0  0  0  0  0  0  0  0  0  0
   -0.1407   -0.6885    0.1218 C   0  0  0  0  0  1  0  0  0  0  0  0
   -1.5327    1.0713    0.8699 H   0  0  0  0  0  0  0  0  0  0  0  0
   -1.3598    0.6913   -0.8825 H   0  0  0  0  0  0  0  0  0  0  0  0
    0.2474   -2.1042    1.5496 H   0  0  0  0  0  0  0  0  0  0  0  0
    0.5197   -0.1823   -0.7352 H   0  0  0  0  0  0  0  0  0  0  0  0
   -0.2475   -0.7053   -0.3188 H   0  0  0  0  0  0  0  0  0  0  0  0
  1  5  1  0  0  0  0
  2  1  1  0  0  0  0
  2  8  1  0  0  0  0
  3  1  1  0  0  0  0
  4  1  1  0  0  0  0
  6 10  1  0  0  0  0
  7  2  1  0  0  0  0
 11  6  1  0  0  0  0
 13  9  1  0  0  0  0
 14  6  1  0  0  0  0
M  RAD  3   2   2   6   2  12   2
M  END
$$$$
