14
butane_opt
C  -3.875943   0.303821   0.087442
C  -2.668723  -0.683238  -0.017780
H  -4.689967  -0.196016  -0.586611
H  -3.978159   0.349429  -0.384647
H  -4.000058   1.819730   1.524316
C  -1.432839   0.129327  -0.134746
H  -2.523338  -1.202030  -0.658368
H  -2.781256  -1.402204   0.894849
C  -0.232450  -0.631022   0.135729
H  -1.303026   0.663420   0.538227
H  -1.240546   0.655225  -1.100597
H  -0.302103  -1.454254   1.182301
H   0.754437  -0.130989  -0.080684
H  -0.441259  -0.980697  -0.620736
