14
butane_opt
C  -3.934062   0.228341   0.151182
C  -2.689255  -0.513946  -0.229926
H  -4.995101  -0.497856   0.805776
H  -3.952742   0.792228  -0.702194
H  -3.297732   0.477014   1.002816
C  -1.405401   0.239887  -0.074555
H  -3.013214  -1.038716  -1.052264
H  -2.620635  -1.097789   0.546907
C  -0.193342  -0.786797   0.193223
H  -1.619407   0.881393   0.631000
H  -1.259424   0.951144  -0.937590
H  -0.157762  -1.554428   1.229398
H   0.637011  -0.185050   0.017494
H  -0.073593  -1.238557  -0.584031
