14
butane_opt
C  -3.845127   0.271442   0.155024
C  -2.728545  -0.573400  -0.047010
H  -4.921580  -0.655748  -0.544477
H  -3.847792   0.199223  -0.295294
H  -3.858450   1.537256   1.304515
C  -1.467929   0.198392  -0.134865
H  -2.856669  -1.256894  -1.053759
H  -2.619744  -1.043489   0.656760
C  -0.162319  -0.754402   0.176498
H  -1.430258   0.340177   0.409276
H  -1.342936   1.227496  -1.358359
H  -0.303449  -1.386038   1.118396
H   0.816629  -0.076824  -0.019363
H  -0.176794  -1.097629  -0.495517
