14
butane_opt
C  -3.942420   0.295564   0.130608
C  -2.656174  -0.611884  -0.043130
H  -5.019412  -0.458691  -0.584780
H  -3.733790   0.249250  -0.274438
H  -3.894375   1.606772   1.312236
C  -1.442761   0.116176  -0.170839
H  -2.772839  -1.302126  -0.957295
H  -2.475966  -1.351505   0.883450
C  -0.151855  -0.656046   0.166518
H  -1.516773   0.732707   0.651381
H  -1.302968   0.885745  -1.156323
H  -0.141602  -1.449941   1.224480
H   0.672192  -0.180797  -0.117511
H  -0.504213  -0.965473  -0.452949
