14
butane_opt
C  -3.935573   0.237195  -0.070290
C  -2.649417  -0.527280   0.124591
H  -4.923341  -0.443395  -0.113397
H  -3.594501   0.703296  -1.086078
H  -3.903247   0.788850   0.801449
C  -1.417056   0.185150   0.064806
H  -2.631767  -1.265677  -0.754872
H  -2.616347  -1.440296   1.184159
C  -0.208382  -0.708354  -0.044393
H  -1.285059   1.167581   1.170608
H  -1.864725   0.623229  -0.418120
H  -0.073301  -1.395501   0.904863
H   0.637456  -0.178026  -0.381924
H  -0.232220  -1.261681  -0.756186
