14
butane_opt
C  -3.840855   0.259920   0.082261
C  -2.656403  -0.617900   0.010219
H  -4.672145  -0.417516  -0.475718
H  -3.797931   0.146142  -0.389890
H  -4.115159   1.315461   1.218733
C  -1.489323   0.236876  -0.132612
H  -2.887461  -0.996224  -0.724255
H  -2.751028  -1.340425   1.047765
C  -0.197092  -0.707483   0.069489
H  -1.756816   0.753889   0.697077
H  -1.355857   0.869847  -0.957961
H  -0.184826  -1.428982   1.181204
H   0.780614  -0.140953   0.281413
H  -0.090439  -1.303510  -0.739841
