butane_opt
 OpenBabel08242015393D

 14 13  0  0  0  0  0  0  0  0999 V2000
   -3.9191    0.3027    0.0992 C   0  0  0  0  0  0  0  0  0  0  0  0
   -2.6875   -0.7047   -0.1221 C   0  0  0  0  0  0  0  0  0  0  0  0
   -4.5886   -0.0968    0.5264 H   0  0  0  0  0  0  0  0  0  0  0  0
   -4.4523    1.1921   -0.8706 H   0  0  0  0  0  0  0  0  0  0  0  0
   -3.7815    0.8103    0.8434 H   0  0  0  0  0  0  0  0  0  0  0  0
   -1.4521    0.0924   -0.0505 C   0  0  0  0  0  0  0  0  0  0  0  0
   -2.7183   -1.1766   -0.8898 H   0  0  0  0  0  0  0  0  0  0  0  0
   -2.4621   -1.2744    0.8502 H   0  0  0  0  0  0  0  0  0  0  0  0
   -0.1555   -0.6163    0.1075 C   0  0  0  0  0  0  0  0  0  0  0  0
   -1.5437    0.8839    0.9447 H   0  0  0  0  0  0  0  0  0  0  0  0
   -1.0082    0.7304   -0.8685 H   0  0  0  0  0  0  0  0  0  0  0  0
   -0.4820   -1.2247    1.1040 H   0  0  0  0  0  0  0  0  0  0  0  0
    0.6790    0.0435    0.0731 H   0  0  0  0  0  0  0  0  0  0  0  0
   -0.1043   -1.2562   -0.7648 H   0  0  0  0  0  0  0  0  0  0  0  0
  1  3  1  0  0  0  0
  1  5  1  0  0  0  0
  2  6  1  0  0  0  0
  2  1  1  0  0  0  0
  2  8  1  0  0  0  0
  4  1  1  0  0  0  0
  6  9  1  0  0  0  0
  6 10  1  0  0  0  0
  7  2  1  0  0  0  0
  9 12  1  0  0  0  0
 11  6  1  0  0  0  0
 13  9  1  0  0  0  0
 14  9  1  0  0  0  0
M  END
$$$$
