butane_opt
 OpenBabel08242015393D

 14 13  0  0  0  0  0  0  0  0999 V2000
   -3.9424    0.3132    0.0966 C   0  0  0  0  0  0  0  0  0  0  0  0
   -2.6879   -0.6377   -0.0972 C   0  0  0  0  0  0  0  0  0  0  0  0
   -4.9697   -0.3350    0.6422 H   0  0  0  0  0  0  0  0  0  0  0  0
   -3.9070    1.1126   -0.9764 H   0  0  0  0  0  0  0  0  0  0  0  0
   -3.5625    0.5952    0.6995 H   0  0  0  0  0  0  0  0  0  0  0  0
   -1.3897    0.1259   -0.0370 C   0  0  0  0  0  0  0  0  0  0  0  0
   -2.8243   -1.1368   -0.9122 H   0  0  0  0  0  0  0  0  0  0  0  0
   -2.2880   -1.2904    0.7455 H   0  0  0  0  0  0  0  0  0  0  0  0
   -0.2210   -0.6642    0.0695 C   0  0  0  0  0  0  0  0  0  0  0  0
   -1.5357    0.9874    0.9881 H   0  0  0  0  0  0  0  0  0  0  0  0
   -1.3190    0.5812   -0.8779 H   0  0  0  0  0  0  0  0  0  0  0  0
   -0.3886   -1.3471    1.1347 H   0  0  0  0  0  0  0  0  0  0  0  0
    0.7341   -0.0598    0.3648 H   0  0  0  0  0  0  0  0  0  0  0  0
   -0.1146   -1.2236   -0.7776 H   0  0  0  0  0  0  0  0  0  0  0  0
  1  3  1  0  0  0  0
  1  5  1  0  0  0  0
  2  6  1  0  0  0  0
  2  1  1  0  0  0  0
  2  8  1  0  0  0  0
  4  1  1  0  0  0  0
  6  9  1  0  0  0  0
  6 10  1  0  0  0  0
  7  2  1  0  0  0  0
  9 13  1  0  0  0  0
  9 12  1  0  0  0  0
 11  6  1  0  0  0  0
 14  9  1  0  0  0  0
M  END
$$$$
