14
butane_opt
C  -3.986615   0.323638  -0.081863
C  -2.649436  -0.698077   0.233569
H  -4.787786  -0.319678   0.012945
H  -3.963011   1.446002  -1.270182
H  -4.497623   0.558399   0.423905
C  -1.360935   0.124200   0.116558
H  -2.698747  -1.198277  -0.570070
H  -2.723572  -1.369598   1.166791
C  -0.201752  -0.632553  -0.120589
H  -1.202717   0.902900   1.072249
H  -1.162045   0.814658  -0.912133
H  -0.249630  -0.733506   0.403313
H   0.761239  -0.006083   0.768281
H  -0.116419  -1.993255  -1.519761
