butane_opt
 OpenBabel08242015393D

 14 11  0  0  0  0  0  0  0  0999 V2000
   -3.9404    0.2890    0.1728 C   0  0  0  0  0  0  0  0  0  0  0  0
   -2.6659   -0.6914   -0.0819 C   0  0  0  0  0  0  0  0  0  0  0  0
   -4.7867   -0.1302    0.1462 H   0  0  0  0  0  0  0  0  0  0  0  0
   -3.9465    0.9025   -0.7664 H   0  0  0  0  0  0  0  0  0  0  0  0
   -3.9448    1.1190    1.1686 H   0  0  0  0  0  0  0  0  0  0  0  0
   -1.4158    0.1226   -0.1607 C   0  0  0  0  0  0  0  0  0  0  0  0
   -2.6004   -1.2289   -0.9054 H   0  0  0  0  0  0  0  0  0  0  0  0
   -2.3267   -1.1243    0.7291 H   0  0  0  0  0  0  0  0  0  0  0  0
   -0.2025   -0.6505    0.2059 C   0  0  0  0  0  0  0  0  0  0  0  0
   -1.5511    0.4977    0.3946 H   0  0  0  0  0  0  0  0  0  0  0  0
   -1.3109    1.0454   -1.3697 H   0  0  0  0  0  0  0  0  0  0  0  0
   -0.7291   -0.8721    0.8224 H   0  0  0  0  0  0  0  0  0  0  0  0
    0.9249    0.1986    0.5508 H   0  0  0  0  0  0  0  0  0  0  0  0
   -0.0710   -1.7228   -0.9950 H   0  0  0  0  0  0  0  0  0  0  0  0
  1  5  1  0  0  0  0
  2  1  1  0  0  0  0
  2  8  1  0  0  0  0
  3  1  1  0  0  0  0
  4  1  1  0  0  0  0
  6  2  1  0  0  0  0
  6  9  1  0  0  0  0
  6 10  1  0  0  0  0
  7  2  1  0  0  0  0
  9 13  1  0  0  0  0
  9 12  1  0  0  0  0
M  RAD  4   6   2   9   2  11   2  14   2
M  END
$$$$
