butane_opt
 OpenBabel08242015393D

 14 13  0  0  0  0  0  0  0  0999 V2000
   -3.8735    0.2753   -0.0857 C   0  0  0  0  0  0  0  0  0  0  0  0
   -2.6998   -0.6066    0.2096 C   0  0  0  0  0  0  0  0  0  0  0  0
   -4.5811   -0.2076   -0.4969 H   0  0  0  0  0  0  0  0  0  0  0  0
   -3.7031    0.6596   -0.9071 H   0  0  0  0  0  0  0  0  0  0  0  0
   -4.3723    1.0849    0.9036 H   0  0  0  0  0  0  0  0  0  0  0  0
   -1.3787    0.1352    0.0651 C   0  0  0  0  0  0  0  0  0  0  0  0
   -2.4448   -1.1224   -0.4673 H   0  0  0  0  0  0  0  0  0  0  0  0
   -3.0063   -1.5152    1.2980 H   0  0  0  0  0  0  0  0  0  0  0  0
   -0.2155   -0.6569   -0.0959 C   0  0  0  0  0  0  0  0  0  0  0  0
   -1.2327    1.0557    1.1637 H   0  0  0  0  0  0  0  0  0  0  0  0
   -1.6713    0.7207   -0.8022 H   0  0  0  0  0  0  0  0  0  0  0  0
   -0.5352   -1.3006    0.7491 H   0  0  0  0  0  0  0  0  0  0  0  0
    0.6529   -0.0416    0.0518 H   0  0  0  0  0  0  0  0  0  0  0  0
   -0.1278   -1.5647   -1.1459 H   0  0  0  0  0  0  0  0  0  0  0  0
  1  2  1  0  0  0  0
  1  5  1  0  0  0  0
  2  8  1  0  0  0  0
  3  1  1  0  0  0  0
  4  1  1  0  0  0  0
  6  2  1  0  0  0  0
  6 10  1  0  0  0  0
  7  2  1  0  0  0  0
  9 13  1  0  0  0  0
  9  6  1  0  0  0  0
  9 12  1  0  0  0  0
 11  6  1  0  0  0  0
 14  9  1  0  0  0  0
M  END
$$$$
