butane_opt
 OpenBabel08242015393D

 14 13  0  0  0  0  0  0  0  0999 V2000
   -3.9357    0.2734    0.0366 C   0  0  0  0  0  0  0  0  0  0  0  0
   -2.7033   -0.6166    0.0015 C   0  0  0  0  0  0  0  0  0  0  0  0
   -4.8477   -0.3388    0.2210 H   0  0  0  0  0  0  0  0  0  0  0  0
   -4.0699    0.9299   -0.8407 H   0  0  0  0  0  0  0  0  0  0  0  0
   -3.8991    0.9149    0.8851 H   0  0  0  0  0  0  0  0  0  0  0  0
   -1.4082    0.1700   -0.0112 C   0  0  0  0  0  0  0  0  0  0  0  0
   -2.7525   -1.3379   -0.8843 H   0  0  0  0  0  0  0  0  0  0  0  0
   -2.6850   -1.1975    0.8417 H   0  0  0  0  0  0  0  0  0  0  0  0
   -0.1589   -0.6931    0.0606 C   0  0  0  0  0  0  0  0  0  0  0  0
   -1.3762    0.7996    0.8173 H   0  0  0  0  0  0  0  0  0  0  0  0
   -1.3566    0.8219   -0.9108 H   0  0  0  0  0  0  0  0  0  0  0  0
   -0.1959   -1.2842    0.9644 H   0  0  0  0  0  0  0  0  0  0  0  0
    0.7671   -0.0616    0.0675 H   0  0  0  0  0  0  0  0  0  0  0  0
   -0.1332   -1.3186   -0.7702 H   0  0  0  0  0  0  0  0  0  0  0  0
  1  3  1  0  0  0  0
  1  5  1  0  0  0  0
  2  1  1  0  0  0  0
  2  8  1  0  0  0  0
  4  1  1  0  0  0  0
  6  2  1  0  0  0  0
  6  9  1  0  0  0  0
  6 10  1  0  0  0  0
  7  2  1  0  0  0  0
  9 13  1  0  0  0  0
  9 12  1  0  0  0  0
 11  6  1  0  0  0  0
 14  9  1  0  0  0  0
M  END
$$$$
