butane_opt
 OpenBabel08242015393D

 14 13  0  0  0  0  0  0  0  0999 V2000
   -3.9538    0.2457    0.0415 C   0  0  0  0  0  0  0  0  0  0  0  0
   -2.7134   -0.5948    0.0141 C   0  0  0  0  0  0  0  0  0  0  0  0
   -4.8371   -0.3314    0.0510 H   0  0  0  0  0  0  0  0  0  0  0  0
   -3.9834    0.8297   -0.8355 H   0  0  0  0  0  0  0  0  0  0  0  0
   -3.9263    0.9742    0.9258 H   0  0  0  0  0  0  0  0  0  0  0  0
   -1.4034    0.1982   -0.0147 C   0  0  0  0  0  0  0  0  0  0  0  0
   -2.7206   -1.2459   -0.8185 H   0  0  0  0  0  0  0  0  0  0  0  0
   -2.7615   -1.2433    0.9199 H   0  0  0  0  0  0  0  0  0  0  0  0
   -0.1411   -0.7139    0.0540 C   0  0  0  0  0  0  0  0  0  0  0  0
   -1.4016    0.8473    0.7795 H   0  0  0  0  0  0  0  0  0  0  0  0
   -1.3707    0.8413   -0.9192 H   0  0  0  0  0  0  0  0  0  0  0  0
   -0.1698   -1.2727    0.9297 H   0  0  0  0  0  0  0  0  0  0  0  0
    0.7468   -0.1223    0.0724 H   0  0  0  0  0  0  0  0  0  0  0  0
   -0.0497   -1.3767   -0.8007 H   0  0  0  0  0  0  0  0  0  0  0  0
  1  3  1  0  0  0  0
  1  5  1  0  0  0  0
  2  1  1  0  0  0  0
  2  8  1  0  0  0  0
  4  1  1  0  0  0  0
  6  2  1  0  0  0  0
  6  9  1  0  0  0  0
  6 10  1  0  0  0  0
  7  2  1  0  0  0  0
  9 13  1  0  0  0  0
  9 12  1  0  0  0  0
 11  6  1  0  0  0  0
 14  9  1  0  0  0  0
M  END
$$$$
