butane_opt
 OpenBabel08242015393D

 14 13  0  0  0  0  0  0  0  0999 V2000
   -3.9629    0.2705   -0.1807 C   0  0  0  0  0  0  0  0  0  0  0  0
   -2.6584   -0.5767    0.2681 C   0  0  0  0  0  0  0  0  0  0  0  0
   -4.9527   -0.5027   -0.6725 H   0  0  0  0  0  0  0  0  0  0  0  0
   -3.7468    0.3865   -0.8827 H   0  0  0  0  0  0  0  0  0  0  0  0
   -3.9386    1.2586    0.8523 H   0  0  0  0  0  0  0  0  0  0  0  0
   -1.3822    0.1651    0.1698 C   0  0  0  0  0  0  0  0  0  0  0  0
   -2.5120   -0.9009   -0.2944 H   0  0  0  0  0  0  0  0  0  0  0  0
   -2.9994   -1.5143    1.2635 H   0  0  0  0  0  0  0  0  0  0  0  0
   -0.1671   -0.7053   -0.1461 C   0  0  0  0  0  0  0  0  0  0  0  0
   -1.3465    1.0636    1.2617 H   0  0  0  0  0  0  0  0  0  0  0  0
   -1.4300    0.8043   -0.6861 H   0  0  0  0  0  0  0  0  0  0  0  0
   -0.1594   -1.3703    0.7006 H   0  0  0  0  0  0  0  0  0  0  0  0
    0.6307   -0.1923   -0.4033 H   0  0  0  0  0  0  0  0  0  0  0  0
   -0.4951   -1.3838   -1.0168 H   0  0  0  0  0  0  0  0  0  0  0  0
  1  2  1  0  0  0  0
  1  5  1  0  0  0  0
  2  8  1  0  0  0  0
  3  1  1  0  0  0  0
  4  1  1  0  0  0  0
  6  2  1  0  0  0  0
  6 10  1  0  0  0  0
  7  2  1  0  0  0  0
  9  6  1  0  0  0  0
  9 12  1  0  0  0  0
 11  6  1  0  0  0  0
 13  9  1  0  0  0  0
 14  9  1  0  0  0  0
M  END
$$$$
