14
butane_opt
C  -3.928959   0.341234   0.103116
C  -2.678732  -0.698796  -0.006462
H  -4.829785  -0.201994   0.239977
H  -3.809935   0.957162  -0.709311
H  -4.046992   0.968353   0.974276
C  -1.407745   0.078344  -0.104695
H  -2.853385  -1.405967  -0.957154
H  -2.693917  -1.079365   0.808159
C  -0.165323  -0.648934   0.103594
H  -1.167796   0.627709   0.586968
H  -1.550791   1.108819  -1.327924
H  -0.753600  -0.871146   0.778032
H   0.778196   0.145858   0.749257
H   0.044349  -1.606935  -0.834501
