14
butane_opt
C  -3.977942   0.318721   0.156167
C  -2.724705  -0.700156  -0.118691
H  -4.802852  -0.383767   0.039090
H  -4.111809   0.820963  -0.621752
H  -3.982108   1.408416   1.293824
C  -1.357880   0.155489  -0.112726
H  -2.838090  -1.443499  -1.098213
H  -2.697212  -1.166250   0.540627
C  -0.134532  -0.669577   0.121357
H  -1.667095   0.815467   0.783392
H  -1.369011   0.660349  -0.970176
H  -0.386592  -1.763255   1.477409
H   0.941049   0.101195  -0.337131
H   0.183298  -0.707134  -0.164816
