14
butane_opt
C  -4.011729   0.325448   0.045887
C  -2.641962  -0.729042   0.055832
H  -4.860515  -0.199049   0.215256
H  -4.072007   1.300320  -1.144432
H  -4.230051   0.775374   0.772436
C  -1.355967   0.182634  -0.067427
H  -2.511720  -1.316160  -0.667626
H  -2.586938  -1.694729   1.216648
C  -0.182898  -0.612602   0.024921
H  -1.422600   0.863578   1.002755
H  -1.244423   0.602569  -0.847405
H  -0.699755  -0.727129   0.646091
H   0.772372  -0.063185   0.655766
H   0.139954  -1.977170  -1.236466
