butane_opt
 OpenBabel08242015393D

 14 13  0  0  0  0  0  0  0  0999 V2000
   -3.8711    0.1953    0.1074 C   0  0  0  0  0  0  0  0  0  0  0  0
   -2.7167   -0.4906   -0.1412 C   0  0  0  0  0  0  0  0  0  0  0  0
   -4.7711   -0.4720    0.5984 H   0  0  0  0  0  0  0  0  0  0  0  0
   -4.0964    0.8691   -0.8096 H   0  0  0  0  0  0  0  0  0  0  0  0
   -3.6765    0.7076    0.9977 H   0  0  0  0  0  0  0  0  0  0  0  0
   -1.4792    0.1975   -0.0735 C   0  0  0  0  0  0  0  0  0  0  0  0
   -2.7014   -1.3078   -1.0003 H   0  0  0  0  0  0  0  0  0  0  0  0
   -2.6003   -1.1671    0.7183 H   0  0  0  0  0  0  0  0  0  0  0  0
   -0.1479   -0.7337    0.1335 C   0  0  0  0  0  0  0  0  0  0  0  0
   -1.4092    0.9579    0.8723 H   0  0  0  0  0  0  0  0  0  0  0  0
   -1.6521    0.8893   -0.8781 H   0  0  0  0  0  0  0  0  0  0  0  0
   -0.2971   -1.6560    1.2707 H   0  0  0  0  0  0  0  0  0  0  0  0
    0.8816   -0.0952    0.0778 H   0  0  0  0  0  0  0  0  0  0  0  0
   -0.1040   -1.2087   -0.6790 H   0  0  0  0  0  0  0  0  0  0  0  0
  1  3  1  0  0  0  0
  1  5  1  0  0  0  0
  2  6  1  0  0  0  0
  2  1  1  0  0  0  0
  2  8  1  0  0  0  0
  4  1  1  0  0  0  0
  6  9  1  0  0  0  0
  6 10  1  0  0  0  0
  7  2  1  0  0  0  0
  9 12  1  0  0  0  0
 11  6  1  0  0  0  0
 13  9  1  0  0  0  0
 14  9  1  0  0  0  0
M  END
$$$$
