14
butane_opt
C  -3.941144   0.294082  -0.103000
C  -2.697382  -0.645388   0.053749
H  -4.864997  -0.329586   0.839403
H  -4.259386   1.341845  -1.219786
H  -3.501493   0.313188   0.545673
C  -1.391946   0.243122   0.143727
H  -2.787780  -1.159709  -0.736285
H  -2.873755  -1.378665   1.125922
C  -0.197815  -0.700747  -0.051980
H  -1.288336   0.852905   1.060251
H  -1.348498   0.575960  -0.517390
H  -0.215002  -1.059686   0.629969
H   0.667199  -0.214999   0.156029
H   0.165196  -1.668980  -1.064286
