butane_opt
 OpenBabel08242015393D

 14 13  0  0  0  0  0  0  0  0999 V2000
   -3.9436    0.3165   -0.1284 C   0  0  0  0  0  0  0  0  0  0  0  0
   -2.6471   -0.7303    0.1870 C   0  0  0  0  0  0  0  0  0  0  0  0
   -4.8760   -0.2110   -0.2890 H   0  0  0  0  0  0  0  0  0  0  0  0
   -3.8185    0.8749   -0.9638 H   0  0  0  0  0  0  0  0  0  0  0  0
   -4.2909    1.1024    0.9364 H   0  0  0  0  0  0  0  0  0  0  0  0
   -1.4312    0.1859    0.1368 C   0  0  0  0  0  0  0  0  0  0  0  0
   -2.3631   -1.0359   -0.4858 H   0  0  0  0  0  0  0  0  0  0  0  0
   -2.6397   -1.6460    1.3481 H   0  0  0  0  0  0  0  0  0  0  0  0
   -0.1779   -0.6403   -0.1124 C   0  0  0  0  0  0  0  0  0  0  0  0
   -1.3923    0.7459    0.9357 H   0  0  0  0  0  0  0  0  0  0  0  0
   -1.1802    0.6096   -0.6333 H   0  0  0  0  0  0  0  0  0  0  0  0
   -0.1234   -1.0539    0.6239 H   0  0  0  0  0  0  0  0  0  0  0  0
    0.6014   -0.0157    0.0962 H   0  0  0  0  0  0  0  0  0  0  0  0
   -0.5107   -1.4432   -1.1305 H   0  0  0  0  0  0  0  0  0  0  0  0
  1  2  1  0  0  0  0
  1  5  1  0  0  0  0
  2  8  1  0  0  0  0
  3  1  1  0  0  0  0
  4  1  1  0  0  0  0
  6  2  1  0  0  0  0
  6 10  1  0  0  0  0
  7  2  1  0  0  0  0
  9 13  1  0  0  0  0
  9  6  1  0  0  0  0
  9 12  1  0  0  0  0
 11  6  1  0  0  0  0
 14  9  1  0  0  0  0
M  END
$$$$
