butane_opt
 OpenBabel08242015393D

 14  9  0  0  0  0  0  0  0  0999 V2000
   -4.0117    0.3254    0.0459 C   0  0  0  0  0  0  0  0  0  0  0  0
   -2.6420   -0.7290    0.0558 C   0  0  0  0  0  0  0  0  0  0  0  0
   -4.8605   -0.1990    0.2153 H   0  0  0  0  0  0  0  0  0  0  0  0
   -4.0720    1.3003   -1.1444 H   0  0  0  0  0  0  0  0  0  0  0  0
   -4.2301    0.7754    0.7724 H   0  0  0  0  0  0  0  0  0  0  0  0
   -1.3560    0.1826   -0.0674 C   0  0  0  0  0  0  0  0  0  0  0  0
   -2.5117   -1.3162   -0.6676 H   0  0  0  0  0  0  0  0  0  0  0  0
   -2.5869   -1.6947    1.2166 H   0  0  0  0  0  0  0  0  0  0  0  0
   -0.1829   -0.6126    0.0249 C   0  0  0  0  0  0  0  0  0  0  0  0
   -1.4226    0.8636    1.0028 H   0  0  0  0  0  0  0  0  0  0  0  0
   -1.2444    0.6026   -0.8474 H   0  0  0  0  0  0  0  0  0  0  0  0
   -0.6998   -0.7271    0.6461 H   0  0  0  0  0  0  0  0  0  0  0  0
    0.7724   -0.0632    0.6558 H   0  0  0  0  0  0  0  0  0  0  0  0
    0.1400   -1.9772   -1.2365 H   0  0  0  0  0  0  0  0  0  0  0  0
  1  2  1  0  0  0  0
  1  3  1  0  0  0  0
  1  5  1  0  0  0  0
  2  8  1  0  0  0  0
  6 10  1  0  0  0  0
  7  2  1  0  0  0  0
  9 12  1  0  0  0  0
  9 13  1  0  0  0  0
 11  6  1  0  0  0  0
M  RAD  6   1   2   2   2   4   2   6   3   9   3  14   2
M  END
$$$$
