14
butane_opt
C  -4.019774   0.217884   0.122338
C  -2.683861  -0.620345  -0.074662
H  -4.817167  -0.321542  -0.388493
H  -4.004869   0.670039  -0.530613
H  -3.974580   1.154897   1.213256
C  -1.368418   0.206145  -0.072213
H  -2.617807  -1.262183  -1.025538
H  -2.675037  -0.901017   0.602003
C  -0.140703  -0.688491   0.121794
H  -1.532721   1.071266   0.869892
H  -1.359766   0.691251  -0.882506
H   0.247358  -2.104236   1.549581
H   0.519727  -0.182318  -0.735163
H  -0.247469  -0.705308  -0.318777
