butane_opt
 OpenBabel08242015393D

 14  9  0  0  0  0  0  0  0  0999 V2000
   -3.9866    0.3236   -0.0819 C   0  0  0  0  0  0  0  0  0  0  0  0
   -2.6494   -0.6981    0.2336 C   0  0  0  0  0  0  0  0  0  0  0  0
   -4.7878   -0.3197    0.0129 H   0  0  0  0  0  0  0  0  0  0  0  0
   -3.9630    1.4460   -1.2702 H   0  0  0  0  0  0  0  0  0  0  0  0
   -4.4976    0.5584    0.4239 H   0  0  0  0  0  0  0  0  0  0  0  0
   -1.3609    0.1242    0.1166 C   0  0  0  0  0  0  0  0  0  0  0  0
   -2.6987   -1.1983   -0.5701 H   0  0  0  0  0  0  0  0  0  0  0  0
   -2.7236   -1.3696    1.1668 H   0  0  0  0  0  0  0  0  0  0  0  0
   -0.2018   -0.6326   -0.1206 C   0  0  0  0  0  0  0  0  0  0  0  0
   -1.2027    0.9029    1.0722 H   0  0  0  0  0  0  0  0  0  0  0  0
   -1.1620    0.8147   -0.9121 H   0  0  0  0  0  0  0  0  0  0  0  0
   -0.2496   -0.7335    0.4033 H   0  0  0  0  0  0  0  0  0  0  0  0
    0.7612   -0.0061    0.7683 H   0  0  0  0  0  0  0  0  0  0  0  0
   -0.1164   -1.9933   -1.5198 H   0  0  0  0  0  0  0  0  0  0  0  0
  1  3  1  0  0  0  0
  1  2  1  0  0  0  0
  1  5  1  0  0  0  0
  2  8  1  0  0  0  0
  6 10  1  0  0  0  0
  7  2  1  0  0  0  0
  9  6  1  0  0  0  0
  9 13  1  0  0  0  0
 11  6  1  0  0  0  0
M  RAD  7   1   2   2   2   4   2   6   2   9   3  12   2  14   2
M  END
$$$$
