butane_opt
 OpenBabel08242015393D

 14  9  0  0  0  0  0  0  0  0999 V2000
   -4.0112    0.2120   -0.1094 C   0  0  0  0  0  1  0  0  0  0  0  0
   -2.7297   -0.5374    0.0712 C   0  0  0  0  0  0  0  0  0  0  0  0
   -5.1572   -0.5204    0.9492 H   0  0  0  0  0  0  0  0  0  0  0  0
   -4.0669    1.5473   -1.5740 H   0  0  0  0  0  0  0  0  0  0  0  0
   -3.5412    0.2100    0.4104 H   0  0  0  0  0  0  0  0  0  0  0  0
   -1.3717    0.2610    0.1763 C   0  0  0  0  0  0  0  0  0  0  0  0
   -2.9471   -1.0578   -0.5741 H   0  0  0  0  0  0  0  0  0  0  0  0
   -2.8888   -1.2744    1.0330 H   0  0  0  0  0  0  0  0  0  0  0  0
   -0.0820   -0.7819   -0.1075 C   0  0  0  0  0  0  0  0  0  0  0  0
   -1.1572    1.2131    1.2698 H   0  0  0  0  0  0  0  0  0  0  0  0
   -1.5203    0.6096   -0.4490 H   0  0  0  0  0  0  0  0  0  0  0  0
   -0.1488   -1.0833    0.7393 H   0  0  0  0  0  0  0  0  0  0  0  0
    0.6472   -0.2571    0.2308 H   0  0  0  0  0  0  0  0  0  0  0  0
    0.1274   -1.7281   -1.0705 H   0  0  0  0  0  0  0  0  0  0  0  0
  1  5  1  0  0  0  0
  2  8  1  0  0  0  0
  6 10  1  0  0  0  0
  7  2  1  0  0  0  0
  9  6  1  0  0  0  0
  9 13  1  0  0  0  0
  9 12  1  0  0  0  0
 11  6  1  0  0  0  0
 14  9  1  0  0  0  0
M  RAD  4   2   3   3   2   4   2   6   2
M  END
$$$$
