14
butane_opt
C  -3.955856   0.269527   0.046562
C  -2.688922  -0.638838   0.009589
H  -4.815293  -0.283076   0.045860
H  -4.004477   0.880384  -0.831367
H  -3.974467   0.996069   0.936222
C  -1.396007   0.181032  -0.017743
H  -2.749473  -1.318243  -0.850181
H  -2.686504  -1.237197   0.911445
C  -0.159636  -0.686461   0.062304
H  -1.443391   0.795807   0.779869
H  -1.372663   0.884233  -0.969732
H  -0.167399  -1.251892   0.922653
H   0.742318  -0.088706   0.106769
H  -0.148699  -1.351686  -0.818600
