butane_opt
 OpenBabel08242015393D

 14 12  0  0  0  0  0  0  0  0999 V2000
   -3.9356    0.2372   -0.0703 C   0  0  0  0  0  0  0  0  0  0  0  0
   -2.6494   -0.5273    0.1246 C   0  0  0  0  0  0  0  0  0  0  0  0
   -4.9233   -0.4434   -0.1134 H   0  0  0  0  0  0  0  0  0  0  0  0
   -3.5945    0.7033   -1.0861 H   0  0  0  0  0  0  0  0  0  0  0  0
   -3.9032    0.7889    0.8014 H   0  0  0  0  0  0  0  0  0  0  0  0
   -1.4171    0.1852    0.0648 C   0  0  0  0  0  0  0  0  0  0  0  0
   -2.6318   -1.2657   -0.7549 H   0  0  0  0  0  0  0  0  0  0  0  0
   -2.6163   -1.4403    1.1842 H   0  0  0  0  0  0  0  0  0  0  0  0
   -0.2084   -0.7084   -0.0444 C   0  0  0  0  0  0  0  0  0  0  0  0
   -1.2851    1.1676    1.1706 H   0  0  0  0  0  0  0  0  0  0  0  0
   -1.8647    0.6232   -0.4181 H   0  0  0  0  0  0  0  0  0  0  0  0
   -0.0733   -1.3955    0.9049 H   0  0  0  0  0  0  0  0  0  0  0  0
    0.6375   -0.1780   -0.3819 H   0  0  0  0  0  0  0  0  0  0  0  0
   -0.2322   -1.2617   -0.7562 H   0  0  0  0  0  0  0  0  0  0  0  0
  1  5  1  0  0  0  0
  2  8  1  0  0  0  0
  3  1  1  0  0  0  0
  4  1  1  0  0  0  0
  6  2  1  0  0  0  0
  6 10  1  0  0  0  0
  7  2  1  0  0  0  0
  9  6  1  0  0  0  0
  9 12  1  0  0  0  0
 11  6  1  0  0  0  0
 13  9  1  0  0  0  0
 14  9  1  0  0  0  0
M  RAD  2   1   2   2   2
M  END
$$$$
