butane_opt
 OpenBabel08242015393D

 14 13  0  0  0  0  0  0  0  0999 V2000
   -3.9586    0.2422    0.1732 C   0  0  0  0  0  0  0  0  0  0  0  0
   -2.7795   -0.5885   -0.0597 C   0  0  0  0  0  0  0  0  0  0  0  0
   -5.0634   -0.5381   -0.4190 H   0  0  0  0  0  0  0  0  0  0  0  0
   -3.8785    0.5168   -0.4488 H   0  0  0  0  0  0  0  0  0  0  0  0
   -4.0109    1.1703    1.0668 H   0  0  0  0  0  0  0  0  0  0  0  0
   -1.4188    0.2294   -0.1507 C   0  0  0  0  0  0  0  0  0  0  0  0
   -2.8747   -1.4842   -0.9525 H   0  0  0  0  0  0  0  0  0  0  0  0
   -2.3940   -0.9121    0.5839 H   0  0  0  0  0  0  0  0  0  0  0  0
   -0.0674   -0.7436    0.1876 C   0  0  0  0  0  0  0  0  0  0  0  0
   -1.4650    0.7983    0.5726 H   0  0  0  0  0  0  0  0  0  0  0  0
   -1.4735    1.1172   -1.2137 H   0  0  0  0  0  0  0  0  0  0  0  0
   -0.0074   -1.5621    1.1199 H   0  0  0  0  0  0  0  0  0  0  0  0
    0.8315   -0.2187   -0.0828 H   0  0  0  0  0  0  0  0  0  0  0  0
    0.0225   -1.0827   -0.5504 H   0  0  0  0  0  0  0  0  0  0  0  0
  1  5  1  0  0  0  0
  2  1  1  0  0  0  0
  2  8  1  0  0  0  0
  3  1  1  0  0  0  0
  4  1  1  0  0  0  0
  6  2  1  0  0  0  0
  6  9  1  0  0  0  0
  6 10  1  0  0  0  0
  7  2  1  0  0  0  0
  9 12  1  0  0  0  0
 11  6  1  0  0  0  0
 13  9  1  0  0  0  0
 14  9  1  0  0  0  0
M  END
$$$$
