butane_opt
 OpenBabel08242015393D

 14 10  0  0  0  0  0  0  0  0999 V2000
   -3.9654    0.3347    0.1098 C   0  0  0  0  0  0  0  0  0  0  0  0
   -2.6156   -0.6655   -0.0284 C   0  0  0  0  0  0  0  0  0  0  0  0
   -4.9150   -0.3471    0.3951 H   0  0  0  0  0  0  0  0  0  0  0  0
   -3.9066    0.9240   -0.8686 H   0  0  0  0  0  0  0  0  0  0  0  0
   -3.8411    0.9807    1.1354 H   0  0  0  0  0  0  0  0  0  0  0  0
   -1.4153    0.0613   -0.1327 C   0  0  0  0  0  0  0  0  0  0  0  0
   -2.7529   -1.3633   -1.0283 H   0  0  0  0  0  0  0  0  0  0  0  0
   -2.4551   -1.2812    0.8593 H   0  0  0  0  0  0  0  0  0  0  0  0
   -0.2112   -0.6037    0.1506 C   0  0  0  0  0  0  0  0  0  0  0  0
   -1.7160    0.5105    0.5566 H   0  0  0  0  0  0  0  0  0  0  0  0
   -1.0622    1.0500   -1.3283 H   0  0  0  0  0  0  0  0  0  0  0  0
   -0.4602   -0.6902    0.7254 H   0  0  0  0  0  0  0  0  0  0  0  0
    0.6582   -0.0303    0.7286 H   0  0  0  0  0  0  0  0  0  0  0  0
   -0.1050   -1.7467   -0.9744 H   0  0  0  0  0  0  0  0  0  0  0  0
  1  3  1  0  0  0  0
  1  5  1  0  0  0  0
  2  1  1  0  0  0  0
  2  8  1  0  0  0  0
  4  1  1  0  0  0  0
  6  2  1  0  0  0  0
  6  9  1  0  0  0  0
  6 10  1  0  0  0  0
  7  2  1  0  0  0  0
  9 13  1  0  0  0  0
M  RAD  5   6   2   9   3  11   2  12   2  14   2
M  END
$$$$
