butane_opt
 OpenBabel08242015393D

 14  9  0  0  0  0  0  0  0  0999 V2000
   -3.9247    0.2806   -0.0887 C   0  0  0  0  0  1  0  0  0  0  0  0
   -2.7132   -0.6285    0.0991 C   0  0  0  0  0  0  0  0  0  0  0  0
   -4.7987   -0.2897    0.6962 H   0  0  0  0  0  0  0  0  0  0  0  0
   -4.0237    1.6260   -1.4896 H   0  0  0  0  0  0  0  0  0  0  0  0
   -3.7650    0.2161    0.2213 H   0  0  0  0  0  0  0  0  0  0  0  0
   -1.3910    0.1403    0.1542 C   0  0  0  0  0  0  0  0  0  0  0  0
   -2.5724   -1.3237   -0.6947 H   0  0  0  0  0  0  0  0  0  0  0  0
   -2.5352   -1.1844    1.0530 H   0  0  0  0  0  0  0  0  0  0  0  0
   -0.2050   -0.6577   -0.0707 C   0  0  0  0  0  0  0  0  0  0  0  0
   -1.0382    1.2501    1.3883 H   0  0  0  0  0  0  0  0  0  0  0  0
   -1.5287    0.5045   -0.5662 H   0  0  0  0  0  0  0  0  0  0  0  0
   -0.0621   -1.1535    0.5739 H   0  0  0  0  0  0  0  0  0  0  0  0
    0.5821   -0.2361    0.1093 H   0  0  0  0  0  0  0  0  0  0  0  0
   -0.4626   -1.4951   -1.0414 H   0  0  0  0  0  0  0  0  0  0  0  0
  1  3  1  0  0  0  0
  2  5  1  0  0  0  0
  2  8  1  0  0  0  0
  7  2  1  0  0  0  0
  9 13  1  0  0  0  0
  9  6  1  0  0  0  0
  9 12  1  0  0  0  0
 11  6  1  0  0  0  0
 14  9  1  0  0  0  0
M  RAD  4   2   2   4   2   6   3  10   2
M  END
$$$$
