14
butane_opt
C  -3.953457   0.263176   0.028047
C  -2.703523  -0.626235   0.029654
H  -4.818117  -0.269461  -0.005190
H  -3.969338   0.774659  -0.771085
H  -3.986268   1.073969   0.959103
C  -1.395049   0.194167  -0.012952
H  -2.714636  -1.323606  -0.821999
H  -2.721996  -1.259723   0.910692
C  -0.157769  -0.695250   0.051273
H  -1.402768   0.823049   0.778089
H  -1.384400   0.830147  -0.929800
H  -0.156966  -1.337044   0.958446
H   0.762579  -0.090720   0.013804
H  -0.119238  -1.316877  -0.783811
