butane_opt
 OpenBabel08242015393D

 14  9  0  0  0  0  0  0  0  0999 V2000
   -3.8528    0.2303    0.1367 C   0  0  0  0  0  1  0  0  0  0  0  0
   -2.7141   -0.5789    0.0186 C   0  0  0  0  0  0  0  0  0  0  0  0
   -4.7148   -0.2277   -0.8373 H   0  0  0  0  0  0  0  0  0  0  0  0
   -3.7673    0.1766   -0.3860 H   0  0  0  0  0  0  0  0  0  0  0  0
   -4.1189    1.4041    1.3704 H   0  0  0  0  0  0  0  0  0  0  0  0
   -1.4731    0.1999   -0.1876 C   0  0  0  0  0  0  0  0  0  0  0  0
   -2.5709   -1.5131   -0.9266 H   0  0  0  0  0  0  0  0  0  0  0  0
   -2.6521   -1.2010    0.9119 H   0  0  0  0  0  0  0  0  0  0  0  0
   -0.1732   -0.6874    0.1286 C   0  0  0  0  0  0  0  0  0  0  0  0
   -1.5173    0.8849    0.6424 H   0  0  0  0  0  0  0  0  0  0  0  0
   -1.4930    0.9093   -1.0793 H   0  0  0  0  0  0  0  0  0  0  0  0
   -0.1834   -1.6060    1.3627 H   0  0  0  0  0  0  0  0  0  0  0  0
    0.6048   -0.1484   -0.1444 H   0  0  0  0  0  0  0  0  0  0  0  0
   -0.0520   -1.1370   -0.5586 H   0  0  0  0  0  0  0  0  0  0  0  0
  2  8  1  0  0  0  0
  3  1  1  0  0  0  0
  4  2  1  0  0  0  0
  6  9  1  0  0  0  0
  6 10  1  0  0  0  0
  7  2  1  0  0  0  0
 11  6  1  0  0  0  0
 13  9  1  0  0  0  0
 14  9  1  0  0  0  0
M  RAD  5   2   2   5   2   6   2   9   2  12   2
M  END
$$$$
