14
butane_opt
C  -3.924626   0.211559   0.181806
C  -2.750009  -0.591609  -0.119861
H  -4.870765  -0.258931  -0.313623
H  -4.071439   0.612129  -0.431470
H  -4.077977   1.031827   1.175807
C  -1.435039   0.241927  -0.107944
H  -2.973092  -1.587403  -1.284542
H  -2.774754  -0.825970   0.376863
C  -0.046978  -0.695568   0.183625
H  -1.745843   0.920742   0.633146
H  -1.414079   0.844561  -0.899511
H   0.363023  -2.276250   1.581282
H   0.662463  -0.248595  -0.805211
H  -0.239282  -0.687536  -0.156759
