butane_opt
 OpenBabel08242015393D

 14 13  0  0  0  0  0  0  0  0999 V2000
   -3.9440    0.2662   -0.0069 C   0  0  0  0  0  0  0  0  0  0  0  0
   -2.7011   -0.6204    0.0504 C   0  0  0  0  0  0  0  0  0  0  0  0
   -4.8192   -0.3007    0.1478 H   0  0  0  0  0  0  0  0  0  0  0  0
   -4.0446    0.9924   -0.9882 H   0  0  0  0  0  0  0  0  0  0  0  0
   -3.9376    0.8573    0.7968 H   0  0  0  0  0  0  0  0  0  0  0  0
   -1.4018    0.1717    0.0536 C   0  0  0  0  0  0  0  0  0  0  0  0
   -2.6942   -1.2646   -0.8072 H   0  0  0  0  0  0  0  0  0  0  0  0
   -2.6985   -1.2261    0.9230 H   0  0  0  0  0  0  0  0  0  0  0  0
   -0.1604   -0.6862    0.0083 C   0  0  0  0  0  0  0  0  0  0  0  0
   -1.3596    0.8507    0.9113 H   0  0  0  0  0  0  0  0  0  0  0  0
   -1.3883    0.8067   -0.8440 H   0  0  0  0  0  0  0  0  0  0  0  0
   -0.1337   -1.2980    0.8862 H   0  0  0  0  0  0  0  0  0  0  0  0
    0.7790   -0.0645    0.0076 H   0  0  0  0  0  0  0  0  0  0  0  0
   -0.2364   -1.3949   -0.8672 H   0  0  0  0  0  0  0  0  0  0  0  0
  1  2  1  0  0  0  0
  1  3  1  0  0  0  0
  1  5  1  0  0  0  0
  2  6  1  0  0  0  0
  2  8  1  0  0  0  0
  4  1  1  0  0  0  0
  6 10  1  0  0  0  0
  7  2  1  0  0  0  0
  9  6  1  0  0  0  0
  9 12  1  0  0  0  0
 11  6  1  0  0  0  0
 13  9  1  0  0  0  0
 14  9  1  0  0  0  0
M  END
$$$$
