14
butane_opt
C  -3.997485   0.315348   0.077702
C  -2.676257  -0.714774  -0.012078
H  -4.541711   0.036456   0.054705
H  -4.158623   0.902146  -0.773916
H  -4.111145   1.105715   0.994988
C  -1.331125   0.103028  -0.040561
H  -2.815609  -1.598512  -1.157133
H  -2.792915  -0.984568   0.628220
C  -0.184002  -0.634157   0.103131
H  -1.028540   0.845723   0.869165
H  -1.471630   0.887813  -1.044068
H  -0.145220  -1.617930   1.209099
H   0.640944  -0.017336  -0.182304
H  -0.361390  -0.846029  -0.598134
