butane_opt
 OpenBabel08242015393D

 14 13  0  0  0  0  0  0  0  0999 V2000
   -3.9591    0.2138    0.1638 C   0  0  0  0  0  0  0  0  0  0  0  0
   -2.7157   -0.5829   -0.0610 C   0  0  0  0  0  0  0  0  0  0  0  0
   -4.9051   -0.3777    0.1092 H   0  0  0  0  0  0  0  0  0  0  0  0
   -4.1342    0.9946   -0.8267 H   0  0  0  0  0  0  0  0  0  0  0  0
   -3.8651    0.8736    1.0498 H   0  0  0  0  0  0  0  0  0  0  0  0
   -1.3771    0.2365   -0.1248 C   0  0  0  0  0  0  0  0  0  0  0  0
   -2.8469   -1.3604   -1.0183 H   0  0  0  0  0  0  0  0  0  0  0  0
   -2.6829   -0.9207    0.5817 H   0  0  0  0  0  0  0  0  0  0  0  0
   -0.1743   -0.7441    0.1372 C   0  0  0  0  0  0  0  0  0  0  0  0
   -1.2307    0.7628    0.4585 H   0  0  0  0  0  0  0  0  0  0  0  0
   -1.3871    0.9562   -1.0996 H   0  0  0  0  0  0  0  0  0  0  0  0
   -0.3064   -1.2573    0.9896 H   0  0  0  0  0  0  0  0  0  0  0  0
    0.7241   -0.3057    0.4659 H   0  0  0  0  0  0  0  0  0  0  0  0
    0.3660   -1.3424   -0.6484 H   0  0  0  0  0  0  0  0  0  0  0  0
  1  5  1  0  0  0  0
  2  1  1  0  0  0  0
  2  8  1  0  0  0  0
  3  1  1  0  0  0  0
  4  1  1  0  0  0  0
  6  2  1  0  0  0  0
  6  9  1  0  0  0  0
  6 10  1  0  0  0  0
  7  2  1  0  0  0  0
  9 13  1  0  0  0  0
  9 12  1  0  0  0  0
 11  6  1  0  0  0  0
 14  9  1  0  0  0  0
M  END
$$$$
