butane_opt
 OpenBabel08242015393D

 14 10  0  0  0  0  0  0  0  0999 V2000
   -3.8809    0.2230    0.1751 C   0  0  0  0  0  1  0  0  0  0  0  0
   -2.7846   -0.5802   -0.0734 C   0  0  0  0  0  0  0  0  0  0  0  0
   -4.7949   -0.2907   -0.3181 H   0  0  0  0  0  0  0  0  0  0  0  0
   -3.8030    0.2521   -0.3828 H   0  0  0  0  0  0  0  0  0  0  0  0
   -4.0401    1.4057    1.2850 H   0  0  0  0  0  0  0  0  0  0  0  0
   -1.3847    0.2710   -0.2324 C   0  0  0  0  0  0  0  0  0  0  0  0
   -3.2974   -1.3245   -1.0275 H   0  0  0  0  0  0  0  0  0  0  0  0
   -2.5439   -1.1442    0.8101 H   0  0  0  0  0  0  0  0  0  0  0  0
   -0.1549   -0.7463    0.2089 C   0  0  0  0  0  0  0  0  0  0  0  0
   -1.6315    0.7942    0.5872 H   0  0  0  0  0  0  0  0  0  0  0  0
   -1.5042    0.8322   -1.1485 H   0  0  0  0  0  0  0  0  0  0  0  0
   -0.0996   -1.4951    1.2099 H   0  0  0  0  0  0  0  0  0  0  0  0
    0.7042   -0.3414    0.0106 H   0  0  0  0  0  0  0  0  0  0  0  0
    0.4204   -1.1635   -0.4899 H   0  0  0  0  0  0  0  0  0  0  0  0
  2  8  1  0  0  0  0
  3  1  1  0  0  0  0
  4  2  1  0  0  0  0
  6  9  1  0  0  0  0
  6 10  1  0  0  0  0
  7  2  1  0  0  0  0
  9 12  1  0  0  0  0
 11  6  1  0  0  0  0
 13  9  1  0  0  0  0
 14  9  1  0  0  0  0
M  RAD  3   2   2   5   2   6   2
M  END
$$$$
