butane_opt
 OpenBabel08242015393D

 14  9  0  0  0  0  0  0  0  0999 V2000
   -3.9246    0.2116    0.1818 C   0  0  0  0  0  0  0  0  0  0  0  0
   -2.7500   -0.5916   -0.1199 C   0  0  0  0  0  0  0  0  0  0  0  0
   -4.8708   -0.2589   -0.3136 H   0  0  0  0  0  0  0  0  0  0  0  0
   -4.0714    0.6121   -0.4315 H   0  0  0  0  0  0  0  0  0  0  0  0
   -4.0780    1.0318    1.1758 H   0  0  0  0  0  0  0  0  0  0  0  0
   -1.4350    0.2419   -0.1079 C   0  0  0  0  0  0  0  0  0  0  0  0
   -2.9731   -1.5874   -1.2845 H   0  0  0  0  0  0  0  0  0  0  0  0
   -2.7748   -0.8260    0.3769 H   0  0  0  0  0  0  0  0  0  0  0  0
   -0.0470   -0.6956    0.1836 C   0  0  0  0  0  1  0  0  0  0  0  0
   -1.7458    0.9207    0.6331 H   0  0  0  0  0  0  0  0  0  0  0  0
   -1.4141    0.8446   -0.8995 H   0  0  0  0  0  0  0  0  0  0  0  0
    0.3630   -2.2763    1.5813 H   0  0  0  0  0  0  0  0  0  0  0  0
    0.6625   -0.2486   -0.8052 H   0  0  0  0  0  0  0  0  0  0  0  0
   -0.2393   -0.6875   -0.1568 H   0  0  0  0  0  0  0  0  0  0  0  0
  1  5  1  0  0  0  0
  2  6  1  0  0  0  0
  2  1  1  0  0  0  0
  3  1  1  0  0  0  0
  4  1  1  0  0  0  0
  6 10  1  0  0  0  0
 11  6  1  0  0  0  0
 13  9  1  0  0  0  0
 14  6  1  0  0  0  0
M  RAD  4   2   3   7   2   8   2  12   2
M  END
$$$$
