butane_opt
 OpenBabel08242015393D

 14 12  0  0  0  0  0  0  0  0999 V2000
   -3.9417    0.2589    0.1383 C   0  0  0  0  0  0  0  0  0  0  0  0
   -2.7355   -0.5588   -0.1244 C   0  0  0  0  0  0  0  0  0  0  0  0
   -5.0360   -0.6215    0.9042 H   0  0  0  0  0  0  0  0  0  0  0  0
   -4.2289    1.0802   -0.7833 H   0  0  0  0  0  0  0  0  0  0  0  0
   -3.5863    0.4758    0.6407 H   0  0  0  0  0  0  0  0  0  0  0  0
   -1.3977    0.2536   -0.0952 C   0  0  0  0  0  0  0  0  0  0  0  0
   -2.8735   -1.5779   -1.2221 H   0  0  0  0  0  0  0  0  0  0  0  0
   -2.9231   -1.0600    0.5147 H   0  0  0  0  0  0  0  0  0  0  0  0
   -0.1087   -0.7626    0.1930 C   0  0  0  0  0  0  0  0  0  0  0  0
   -1.5415    0.8689    0.6835 H   0  0  0  0  0  0  0  0  0  0  0  0
   -1.2309    1.0958   -1.1119 H   0  0  0  0  0  0  0  0  0  0  0  0
   -0.0231   -1.2177    1.0931 H   0  0  0  0  0  0  0  0  0  0  0  0
    0.6405   -0.2059    0.1564 H   0  0  0  0  0  0  0  0  0  0  0  0
   -0.0041   -1.6364   -0.7999 H   0  0  0  0  0  0  0  0  0  0  0  0
  1  5  1  0  0  0  0
  2  6  1  0  0  0  0
  2  1  1  0  0  0  0
  2  8  1  0  0  0  0
  4  1  1  0  0  0  0
  6  9  1  0  0  0  0
  6 10  1  0  0  0  0
  7  2  1  0  0  0  0
  9 12  1  0  0  0  0
 11  6  1  0  0  0  0
 13  9  1  0  0  0  0
 14  9  1  0  0  0  0
M  RAD  2   1   2   3   2
M  END
$$$$
