butane_opt
 OpenBabel08242015393D

 14 13  0  0  0  0  0  0  0  0999 V2000
   -4.0120    0.2958   -0.0671 C   0  0  0  0  0  0  0  0  0  0  0  0
   -2.6478   -0.7020    0.1360 C   0  0  0  0  0  0  0  0  0  0  0  0
   -4.6361    0.1188    0.0775 H   0  0  0  0  0  0  0  0  0  0  0  0
   -4.2781    0.8793   -0.8277 H   0  0  0  0  0  0  0  0  0  0  0  0
   -3.9696    1.0722    0.8472 H   0  0  0  0  0  0  0  0  0  0  0  0
   -1.3444    0.1392    0.0585 C   0  0  0  0  0  0  0  0  0  0  0  0
   -2.7703   -1.4726   -0.7873 H   0  0  0  0  0  0  0  0  0  0  0  0
   -2.7562   -1.4340    1.0131 H   0  0  0  0  0  0  0  0  0  0  0  0
   -0.1895   -0.6372   -0.0018 C   0  0  0  0  0  0  0  0  0  0  0  0
   -1.3558    0.6721    0.7347 H   0  0  0  0  0  0  0  0  0  0  0  0
   -1.5125    1.0214   -1.1021 H   0  0  0  0  0  0  0  0  0  0  0  0
   -0.1230   -0.9183    0.7070 H   0  0  0  0  0  0  0  0  0  0  0  0
    0.8539   -0.0102    0.4485 H   0  0  0  0  0  0  0  0  0  0  0  0
   -0.2136   -1.5067   -1.1711 H   0  0  0  0  0  0  0  0  0  0  0  0
  1  3  1  0  0  0  0
  1  2  1  0  0  0  0
  1  5  1  0  0  0  0
  2  8  1  0  0  0  0
  4  1  1  0  0  0  0
  6  2  1  0  0  0  0
  6 10  1  0  0  0  0
  7  2  1  0  0  0  0
  9  6  1  0  0  0  0
  9 13  1  0  0  0  0
  9 12  1  0  0  0  0
 11  6  1  0  0  0  0
 14  9  1  0  0  0  0
M  END
$$$$
