butane_opt
 OpenBabel08242015393D

 14 12  0  0  0  0  0  0  0  0999 V2000
   -3.9314    0.1956   -0.1098 C   0  0  0  0  0  0  0  0  0  0  0  0
   -2.6677   -0.4931    0.2331 C   0  0  0  0  0  0  0  0  0  0  0  0
   -4.8886   -0.5656    0.2309 H   0  0  0  0  0  0  0  0  0  0  0  0
   -3.7164    1.1647   -1.2146 H   0  0  0  0  0  0  0  0  0  0  0  0
   -3.7892    0.5152    0.5277 H   0  0  0  0  0  0  0  0  0  0  0  0
   -1.4091    0.1939    0.0560 C   0  0  0  0  0  0  0  0  0  0  0  0
   -2.4256   -1.0651   -0.5918 H   0  0  0  0  0  0  0  0  0  0  0  0
   -2.8689   -1.3586    1.2335 H   0  0  0  0  0  0  0  0  0  0  0  0
   -0.2104   -0.7045   -0.0861 C   0  0  0  0  0  0  0  0  0  0  0  0
   -1.4084    1.1009    1.1795 H   0  0  0  0  0  0  0  0  0  0  0  0
   -1.6552    0.7021   -0.7648 H   0  0  0  0  0  0  0  0  0  0  0  0
   -0.4089   -0.8304    0.5975 H   0  0  0  0  0  0  0  0  0  0  0  0
    0.6270   -0.1541    0.5054 H   0  0  0  0  0  0  0  0  0  0  0  0
    0.1340   -2.3146   -1.4824 H   0  0  0  0  0  0  0  0  0  0  0  0
  1  3  1  0  0  0  0
  1  2  1  0  0  0  0
  1  5  1  0  0  0  0
  2  8  1  0  0  0  0
  4  1  1  0  0  0  0
  6  2  1  0  0  0  0
  6 10  1  0  0  0  0
  7  2  1  0  0  0  0
  9  6  1  0  0  0  0
  9 13  1  0  0  0  0
  9 12  1  0  0  0  0
 11  6  1  0  0  0  0
M  RAD  2   9   2  14   2
M  END
$$$$
