14
butane_opt
C  -3.960315   0.242932   0.184292
C  -2.653191  -0.544304  -0.015887
H  -4.885217  -0.464529  -0.797473
H  -3.346501  -0.133835  -0.198575
H  -4.110808   1.428906   1.430018
C  -1.420407   0.230484  -0.245537
H  -2.819105  -1.366394  -0.908733
H  -2.606942  -1.005775   0.651809
C  -0.183734  -0.733445   0.202577
H  -1.529107   0.684678   0.446677
H  -1.506797   0.992233  -1.193544
H  -0.296392  -1.669909   1.307795
H   0.699887  -0.215675  -0.069545
H  -0.023625  -1.091646  -0.618091
