14
butane_opt
C  -3.944465   0.274254  -0.009418
C  -2.693374  -0.626872   0.051189
H  -4.870476  -0.296176   0.206494
H  -3.995383   1.012587  -0.987310
H  -3.913640   0.826652   0.788814
C  -1.400953   0.161758   0.037034
H  -2.677894  -1.266089  -0.766171
H  -2.694283  -1.242295   0.944185
C  -0.172824  -0.678318   0.011986
H  -1.336591   0.913060   0.951415
H  -1.462385   0.731038  -0.832386
H  -0.166947  -1.248536   0.870400
H   0.760106  -0.064797   0.059398
H  -0.138903  -1.401402  -0.894999
