14
butane_opt
C  -3.960205   0.352521   0.102705
C  -2.729221  -0.665002  -0.131258
H  -4.799688  -0.204392   0.077635
H  -4.342479   0.690593  -0.571048
H  -4.009667   1.196398   1.259593
C  -1.342655   0.106352  -0.069607
H  -2.824291  -1.539870  -1.114427
H  -2.764951  -1.444656   0.760580
C  -0.138253  -0.632297   0.171162
H  -1.587393   0.846787   0.844039
H  -1.118903   0.645439  -0.878963
H  -0.017789  -1.770617   1.405763
H   0.857810   0.011046  -0.746089
H  -0.402960  -0.771195  -0.430439
