14
butane_opt
C  -3.991595   0.327482   0.161919
C  -2.740267  -0.683529  -0.106445
H  -4.785828  -0.043865   0.483131
H  -4.182749   0.582822  -0.639905
H  -3.719705   1.321221   1.276370
C  -1.347294   0.117393  -0.247813
H  -2.901240  -1.323129  -0.880187
H  -2.678937  -1.391205   0.792656
C  -0.130388  -0.652322   0.198284
H  -1.687629   0.670100   0.530238
H  -1.190259   0.946601  -1.235154
H  -0.643025  -1.060451   1.040944
H   0.905631   0.160604   0.875837
H   0.292486  -1.606861  -0.866315
