14
butane_opt
C  -3.938223   0.269504   0.034866
C  -2.700506  -0.617452   0.031963
H  -4.836178  -0.326392  -0.046419
H  -3.930752   0.774576  -0.788871
H  -3.960787   1.031696   0.970961
C  -1.407471   0.170889  -0.018444
H  -2.744976  -1.314522  -0.853474
H  -2.654737  -1.229621   0.889419
C  -0.161958  -0.688322   0.055616
H  -1.428483   0.824854   0.818188
H  -1.400225   0.890224  -0.992813
H  -0.161671  -1.316673   0.972051
H   0.763794  -0.097221   0.047998
H  -0.177393  -1.325550  -0.810874
