butane_opt
 OpenBabel08242015393D

 14  7  0  0  0  0  0  0  0  0999 V2000
   -3.8451    0.2714    0.1550 C   0  0  0  0  0 15  0  0  0  0  0  0
   -2.7285   -0.5734   -0.0470 C   0  0  0  0  0  0  0  0  0  0  0  0
   -4.9216   -0.6557   -0.5445 H   0  0  0  0  0  0  0  0  0  0  0  0
   -3.8478    0.1992   -0.2953 H   0  0  0  0  0  0  0  0  0  0  0  0
   -3.8584    1.5373    1.3045 H   0  0  0  0  0  0  0  0  0  0  0  0
   -1.4679    0.1984   -0.1349 C   0  0  0  0  0  1  0  0  0  0  0  0
   -2.8567   -1.2569   -1.0538 H   0  0  0  0  0  0  0  0  0  0  0  0
   -2.6197   -1.0435    0.6568 H   0  0  0  0  0  0  0  0  0  0  0  0
   -0.1623   -0.7544    0.1765 C   0  0  0  0  0  0  0  0  0  0  0  0
   -1.4303    0.3402    0.4093 H   0  0  0  0  0  0  0  0  0  0  0  0
   -1.3429    1.2275   -1.3584 H   0  0  0  0  0  0  0  0  0  0  0  0
   -0.3034   -1.3860    1.1184 H   0  0  0  0  0  0  0  0  0  0  0  0
    0.8166   -0.0768   -0.0194 H   0  0  0  0  0  0  0  0  0  0  0  0
   -0.1768   -1.0976   -0.4955 H   0  0  0  0  0  0  0  0  0  0  0  0
  2  8  1  0  0  0  0
  4  2  1  0  0  0  0
  6  9  1  0  0  0  0
  7  2  1  0  0  0  0
  9 12  1  0  0  0  0
 13  9  1  0  0  0  0
 14  9  1  0  0  0  0
M  RAD  5   2   2   3   2   5   2  10   2  11   2
M  END
$$$$
