14
butane_opt
C  -4.004872   0.303051  -0.153529
C  -2.603863  -0.688538   0.323424
H  -4.757136  -0.222103  -0.619582
H  -3.542291   0.656253  -0.996840
H  -4.209236   1.067794   0.760254
C  -1.403350   0.184277   0.117520
H  -2.488821  -1.225640  -0.434314
H  -2.822015  -1.284225   1.236309
C  -0.209373  -0.651216  -0.128083
H  -1.337606   0.788495   1.066824
H  -1.479412   0.678036  -0.703160
H  -0.295595  -1.064174   0.455066
H   0.719171  -0.039602  -0.055037
H  -0.193180  -1.571365  -1.206037
