butane_opt
 OpenBabel08242015393D

 14  9  0  0  0  0  0  0  0  0999 V2000
   -4.0569    0.3512   -0.0401 C   0  0  0  0  0  0  0  0  0  0  0  0
   -2.6822   -0.7345    0.1452 C   0  0  0  0  0  0  0  0  0  0  0  0
   -4.8962   -0.3424    0.0580 H   0  0  0  0  0  0  0  0  0  0  0  0
   -4.0997    1.0698   -0.9810 H   0  0  0  0  0  0  0  0  0  0  0  0
   -4.0781    0.9988    0.7983 H   0  0  0  0  0  0  0  0  0  0  0  0
   -1.3048    0.1449   -0.0073 C   0  0  0  0  0  0  0  0  0  0  0  0
   -2.6922   -1.1521   -0.5109 H   0  0  0  0  0  0  0  0  0  0  0  0
   -2.4701   -1.3468    1.0065 H   0  0  0  0  0  0  0  0  0  0  0  0
   -0.2036   -0.6497    0.0209 C   0  0  0  0  0  1  0  0  0  0  0  0
   -1.3571    0.6299    0.7832 H   0  0  0  0  0  0  0  0  0  0  0  0
   -1.1927    0.8287   -1.0143 H   0  0  0  0  0  0  0  0  0  0  0  0
   -0.1191   -0.6826    0.4306 H   0  0  0  0  0  0  0  0  0  0  0  0
    0.9200    0.1064    0.7217 H   0  0  0  0  0  0  0  0  0  0  0  0
   -0.1126   -1.9058   -1.3441 H   0  0  0  0  0  0  0  0  0  0  0  0
  1  3  1  0  0  0  0
  1  2  1  0  0  0  0
  1  5  1  0  0  0  0
  2  8  1  0  0  0  0
  4  1  1  0  0  0  0
  6  9  1  0  0  0  0
  6 10  1  0  0  0  0
  7  2  1  0  0  0  0
 11  6  1  0  0  0  0
M  RAD  5   2   2   6   2  12   2  13   2  14   2
M  END
$$$$
