14
butane_opt
C  -3.915838   0.178126   0.152777
C  -2.727448  -0.470641  -0.138765
H  -4.938374  -0.475397  -0.072333
H  -3.809230   0.363934  -0.545092
H  -3.557607   1.240982   1.333211
C  -1.480392   0.201115  -0.106399
H  -2.511523  -1.383593  -1.192638
H  -2.704268  -1.089845   0.671732
C  -0.147818  -0.711801   0.137141
H  -1.432406   1.033420   0.742392
H  -1.438165   0.797122  -0.937401
H   0.153665  -2.352289   1.667961
H   0.673107  -0.209357  -0.424305
H  -0.197208  -0.761358  -0.175835
