butane_opt
 OpenBabel08242015393D

 14 12  0  0  0  0  0  0  0  0999 V2000
   -3.9510    0.2159    0.1976 C   0  0  0  0  0  0  0  0  0  0  0  0
   -2.6909   -0.5818    0.0019 C   0  0  0  0  0  0  0  0  0  0  0  0
   -4.9468   -0.3651   -0.2763 H   0  0  0  0  0  0  0  0  0  0  0  0
   -3.7259    0.7526   -0.7025 H   0  0  0  0  0  0  0  0  0  0  0  0
   -3.9039    1.0457    1.0584 H   0  0  0  0  0  0  0  0  0  0  0  0
   -1.4607    0.2730   -0.2392 C   0  0  0  0  0  0  0  0  0  0  0  0
   -2.9694   -1.6097   -1.0656 H   0  0  0  0  0  0  0  0  0  0  0  0
   -2.7269   -1.2196    0.7591 H   0  0  0  0  0  0  0  0  0  0  0  0
   -0.1073   -0.7175    0.1836 C   0  0  0  0  0  0  0  0  0  0  0  0
   -1.5845    0.7236    0.5057 H   0  0  0  0  0  0  0  0  0  0  0  0
   -1.3210    1.0664   -1.1869 H   0  0  0  0  0  0  0  0  0  0  0  0
   -0.3063   -1.1802    0.8694 H   0  0  0  0  0  0  0  0  0  0  0  0
    0.6288   -0.2061    0.6106 H   0  0  0  0  0  0  0  0  0  0  0  0
    0.3389   -1.7641   -0.8884 H   0  0  0  0  0  0  0  0  0  0  0  0
  1  5  1  0  0  0  0
  2  1  1  0  0  0  0
  2  8  1  0  0  0  0
  3  1  1  0  0  0  0
  4  1  1  0  0  0  0
  6  2  1  0  0  0  0
  6  9  1  0  0  0  0
  6 10  1  0  0  0  0
  7  2  1  0  0  0  0
  9 13  1  0  0  0  0
  9 12  1  0  0  0  0
 11  6  1  0  0  0  0
M  RAD  2   9   2  14   2
M  END
$$$$
