14
butane_opt
C  -3.914854   0.286276   0.132497
C  -2.643197  -0.681399  -0.054436
H  -4.605261  -0.093632  -0.614279
H  -3.838399   0.223147  -0.114419
H  -4.271415   1.760218   1.528028
C  -1.398688   0.166811  -0.160015
H  -2.437670  -1.425141  -0.971153
H  -2.692921  -1.494490   1.060649
C  -0.254006  -0.676516   0.133044
H  -1.536199   0.665698   0.489341
H  -1.452196   0.976358  -1.257555
H  -0.416811  -1.476544   1.183121
H   0.874740   0.181587   0.060396
H  -0.137799  -0.898656  -0.402311
