butane_opt
 OpenBabel08242015393D

 14 12  0  0  0  0  0  0  0  0999 V2000
   -3.9577    0.3287    0.2073 C   0  0  0  0  0  0  0  0  0  0  0  0
   -2.6975   -0.6960   -0.1862 C   0  0  0  0  0  0  0  0  0  0  0  0
   -4.6645   -0.1197    0.6099 H   0  0  0  0  0  0  0  0  0  0  0  0
   -4.5234    0.6931   -0.6163 H   0  0  0  0  0  0  0  0  0  0  0  0
   -3.8383    1.0435    1.1660 H   0  0  0  0  0  0  0  0  0  0  0  0
   -1.3360    0.1756   -0.1977 C   0  0  0  0  0  0  0  0  0  0  0  0
   -2.8633   -1.4896   -1.1619 H   0  0  0  0  0  0  0  0  0  0  0  0
   -2.5929   -1.2542    0.6293 H   0  0  0  0  0  0  0  0  0  0  0  0
   -0.1505   -0.6674    0.2389 C   0  0  0  0  0  0  0  0  0  0  0  0
   -1.5164    0.2865    0.2366 H   0  0  0  0  0  0  0  0  0  0  0  0
   -1.3714    1.1924   -1.2089 H   0  0  0  0  0  0  0  0  0  0  0  0
   -0.7097   -1.0221    0.9584 H   0  0  0  0  0  0  0  0  0  0  0  0
    0.7641   -0.0363    0.7819 H   0  0  0  0  0  0  0  0  0  0  0  0
    0.0107   -1.4307   -0.6795 H   0  0  0  0  0  0  0  0  0  0  0  0
  1  3  1  0  0  0  0
  1  5  1  0  0  0  0
  2  1  1  0  0  0  0
  2  8  1  0  0  0  0
  4  1  1  0  0  0  0
  6  2  1  0  0  0  0
  6  9  1  0  0  0  0
  7  2  1  0  0  0  0
  9 13  1  0  0  0  0
  9 12  1  0  0  0  0
 11  6  1  0  0  0  0
 14  9  1  0  0  0  0
M  RAD  2   6   2  10   2
M  END
$$$$
