butane_opt
 OpenBabel08242015393D

 14 13  0  0  0  0  0  0  0  0999 V2000
   -3.9791    0.2677    0.1403 C   0  0  0  0  0  0  0  0  0  0  0  0
   -2.7057   -0.6696   -0.1848 C   0  0  0  0  0  0  0  0  0  0  0  0
   -4.7471   -0.1354    0.7647 H   0  0  0  0  0  0  0  0  0  0  0  0
   -4.4446    1.0808   -0.8025 H   0  0  0  0  0  0  0  0  0  0  0  0
   -3.7376    1.0992    1.2588 H   0  0  0  0  0  0  0  0  0  0  0  0
   -1.4002    0.1576   -0.0975 C   0  0  0  0  0  0  0  0  0  0  0  0
   -2.8482   -1.7639   -1.2112 H   0  0  0  0  0  0  0  0  0  0  0  0
   -2.5285   -1.1266    0.5617 H   0  0  0  0  0  0  0  0  0  0  0  0
   -0.1156   -0.6493    0.1971 C   0  0  0  0  0  0  0  0  0  0  0  0
   -1.5758    0.6111    0.5709 H   0  0  0  0  0  0  0  0  0  0  0  0
   -1.2963    1.0902   -1.1661 H   0  0  0  0  0  0  0  0  0  0  0  0
   -0.1604   -1.4932    1.2746 H   0  0  0  0  0  0  0  0  0  0  0  0
    0.7388    0.0088    0.1392 H   0  0  0  0  0  0  0  0  0  0  0  0
   -0.0391   -1.0749   -0.5790 H   0  0  0  0  0  0  0  0  0  0  0  0
  1  3  1  0  0  0  0
  1  5  1  0  0  0  0
  2  6  1  0  0  0  0
  2  1  1  0  0  0  0
  2  8  1  0  0  0  0
  4  1  1  0  0  0  0
  6  9  1  0  0  0  0
  6 10  1  0  0  0  0
  7  2  1  0  0  0  0
  9 12  1  0  0  0  0
 11  6  1  0  0  0  0
 13  9  1  0  0  0  0
 14  9  1  0  0  0  0
M  END
$$$$
