14
butane_opt
C  -3.939096   0.240894  -0.089149
C  -2.767277  -0.570066   0.064355
H  -4.762764  -0.403971   0.726697
H  -4.431231   1.381965  -1.266608
H  -3.834690   0.403896   0.399467
C  -1.350818   0.179276   0.109890
H  -2.966733  -1.055871  -0.605165
H  -2.726530  -1.389818   1.213007
C  -0.095636  -0.733258  -0.044834
H  -1.490137   1.164906   1.278835
H  -1.432235   0.794766  -0.773215
H   0.025108  -0.812980   0.581161
H   0.752367  -0.188038   0.429250
H  -0.287783  -1.786117  -1.140648
