14
butane_opt
C  -3.928270   0.245476  -0.108355
C  -2.784695  -0.645031   0.255992
H  -4.849270  -0.441844  -0.572349
H  -3.433069   0.687264  -0.990550
H  -4.463215   1.141398   0.886556
C  -1.379323   0.278469   0.050616
H  -2.760751  -1.007166  -0.250816
H  -2.976188  -1.290908   1.251085
C  -0.082265  -0.738423  -0.113085
H  -1.406716   1.255951   1.033939
H  -1.524885   0.724424  -0.601715
H  -0.053457  -1.234778   0.792186
H   0.690401  -0.343658   0.072630
H  -0.124260  -1.712197  -1.202134
