14
butane_opt
C  -3.979104   0.267696   0.140330
C  -2.705712  -0.669601  -0.184776
H  -4.747133  -0.135355   0.764714
H  -4.444630   1.080789  -0.802502
H  -3.737637   1.099180   1.258844
C  -1.400178   0.157624  -0.097471
H  -2.848226  -1.763925  -1.211211
H  -2.528491  -1.126650   0.561740
C  -0.115619  -0.649294   0.197084
H  -1.575837   0.611114   0.570860
H  -1.296283   1.090156  -1.166126
H  -0.160407  -1.493219   1.274642
H   0.738771   0.008824   0.139199
H  -0.039125  -1.074941  -0.579025
