butane_opt
 OpenBabel08242015393D

 14 11  0  0  0  0  0  0  0  0999 V2000
   -3.9196    0.1874   -0.1804 C   0  0  0  0  0  0  0  0  0  0  0  0
   -2.7116   -0.5543    0.1504 C   0  0  0  0  0  0  0  0  0  0  0  0
   -4.7674   -0.4450    0.4001 H   0  0  0  0  0  0  0  0  0  0  0  0
   -3.9873    1.1156   -1.1841 H   0  0  0  0  0  0  0  0  0  0  0  0
   -3.4877    0.6076    0.4825 H   0  0  0  0  0  0  0  0  0  0  0  0
   -1.4285    0.2958    0.2168 C   0  0  0  0  0  0  0  0  0  0  0  0
   -2.6903   -1.1911   -0.6238 H   0  0  0  0  0  0  0  0  0  0  0  0
   -2.9041   -1.3581    1.3152 H   0  0  0  0  0  0  0  0  0  0  0  0
   -0.1294   -0.7726   -0.1103 C   0  0  0  0  0  0  0  0  0  0  0  0
   -1.5927    1.0904    1.2304 H   0  0  0  0  0  0  0  0  0  0  0  0
   -1.7407    0.7502   -0.4984 H   0  0  0  0  0  0  0  0  0  0  0  0
    0.0571   -1.1324    0.7093 H   0  0  0  0  0  0  0  0  0  0  0  0
    0.5981   -0.2311   -0.3330 H   0  0  0  0  0  0  0  0  0  0  0  0
   -0.2295   -1.5566   -1.0581 H   0  0  0  0  0  0  0  0  0  0  0  0
  1  3  1  0  0  0  0
  1  5  1  0  0  0  0
  2  8  1  0  0  0  0
  4  1  1  0  0  0  0
  6 10  1  0  0  0  0
  7  2  1  0  0  0  0
  9  6  1  0  0  0  0
  9 12  1  0  0  0  0
 11  6  1  0  0  0  0
 13  9  1  0  0  0  0
 14  9  1  0  0  0  0
M  RAD  3   1   2   2   3   6   2
M  END
$$$$
