butane_opt
 OpenBabel08242015393D

 14 11  0  0  0  0  0  0  0  0999 V2000
   -3.9577    0.3159   -0.0795 C   0  0  0  0  0  0  0  0  0  0  0  0
   -2.6347   -0.6644    0.2082 C   0  0  0  0  0  0  0  0  0  0  0  0
   -4.7893   -0.2651   -0.0146 H   0  0  0  0  0  0  0  0  0  0  0  0
   -3.8016    1.1497   -1.2830 H   0  0  0  0  0  0  0  0  0  0  0  0
   -3.9386    0.8755    0.8362 H   0  0  0  0  0  0  0  0  0  0  0  0
   -1.4619    0.0966    0.0713 C   0  0  0  0  0  0  0  0  0  0  0  0
   -2.4540   -1.3216   -0.4947 H   0  0  0  0  0  0  0  0  0  0  0  0
   -2.8806   -1.4622    1.2026 H   0  0  0  0  0  0  0  0  0  0  0  0
   -0.1794   -0.6440   -0.0418 C   0  0  0  0  0  1  0  0  0  0  0  0
   -1.2640    0.6679    0.7936 H   0  0  0  0  0  0  0  0  0  0  0  0
   -1.5018    0.9185   -0.9414 H   0  0  0  0  0  0  0  0  0  0  0  0
   -0.5791   -0.4330    0.2259 H   0  0  0  0  0  0  0  0  0  0  0  0
    0.9229    0.1535    0.5480 H   0  0  0  0  0  0  0  0  0  0  0  0
    0.0221   -1.9578   -1.4154 H   0  0  0  0  0  0  0  0  0  0  0  0
  1  3  1  0  0  0  0
  1  2  1  0  0  0  0
  1  5  1  0  0  0  0
  2  8  1  0  0  0  0
  4  1  1  0  0  0  0
  6  2  1  0  0  0  0
  6 12  1  0  0  0  0
  6 10  1  0  0  0  0
  7  2  1  0  0  0  0
  9 13  1  0  0  0  0
 11  6  1  0  0  0  0
M  RAD  1  14   2
M  END
$$$$
