14
butane_opt
C  -3.955402   0.188389   0.098989
C  -2.734913  -0.590266  -0.005135
H  -4.685554  -0.389570  -0.631376
H  -3.967388   0.067061  -0.210208
H  -4.122093   1.578317   1.444897
C  -1.398371   0.294382  -0.115805
H  -2.884167  -1.285788  -0.964168
H  -2.819780  -1.008564   0.726480
C  -0.101834  -0.750836   0.156299
H  -1.552247   0.608207   0.483482
H  -1.621307   1.366212  -1.385908
H   0.098120  -1.559537   1.242788
H   0.672780  -0.313116  -0.256408
H   0.150093  -1.266522  -0.529399
