butane_opt
 OpenBabel08242015393D

 14 10  0  0  0  0  0  0  0  0999 V2000
   -3.9790    0.2870   -0.0320 C   0  0  0  0  0  1  0  0  0  0  0  0
   -2.7346   -0.6241    0.1202 C   0  0  0  0  0  0  0  0  0  0  0  0
   -4.8740   -0.3899    0.5143 H   0  0  0  0  0  0  0  0  0  0  0  0
   -3.9286    1.3355   -1.2676 H   0  0  0  0  0  0  0  0  0  0  0  0
   -3.6611    0.3786    0.4585 H   0  0  0  0  0  0  0  0  0  0  0  0
   -1.3822    0.1883    0.0684 C   0  0  0  0  0  0  0  0  0  0  0  0
   -2.6680   -1.4348   -0.8687 H   0  0  0  0  0  0  0  0  0  0  0  0
   -2.9228   -1.1408    0.8192 H   0  0  0  0  0  0  0  0  0  0  0  0
   -0.1229   -0.7028   -0.0450 C   0  0  0  0  0  0  0  0  0  0  0  0
   -1.3788    1.0975    1.1580 H   0  0  0  0  0  0  0  0  0  0  0  0
   -1.4892    0.8109   -0.8501 H   0  0  0  0  0  0  0  0  0  0  0  0
   -0.1066   -1.1638    0.7511 H   0  0  0  0  0  0  0  0  0  0  0  0
    0.6872   -0.1192    0.3999 H   0  0  0  0  0  0  0  0  0  0  0  0
   -0.1009   -1.6167   -1.0495 H   0  0  0  0  0  0  0  0  0  0  0  0
  1  3  1  0  0  0  0
  2  5  1  0  0  0  0
  2  8  1  0  0  0  0
  6 10  1  0  0  0  0
  7  2  1  0  0  0  0
  9  6  1  0  0  0  0
  9 13  1  0  0  0  0
  9 12  1  0  0  0  0
 11  6  1  0  0  0  0
 14  9  1  0  0  0  0
M  RAD  3   2   2   4   2   6   2
M  END
$$$$
