14
butane_opt
C  -3.944382   0.287200   0.175406
C  -2.659944  -0.604626  -0.167209
H  -4.984882  -0.315028   0.581164
H  -4.151962   0.780118  -0.532770
H  -3.607380   0.837511   0.979342
C  -1.399916   0.148864  -0.226222
H  -2.499369  -1.193593  -0.999342
H  -2.328522  -1.347323   0.870046
C  -0.208990  -0.670634   0.224447
H  -1.591326   0.709963   0.654888
H  -1.177849   0.755606  -1.042284
H  -0.561961  -1.107350   0.949862
H   0.709375   0.000780   0.632898
H  -0.242735  -1.549249  -0.745186
