butane_opt
 OpenBabel08242015393D

 14 12  0  0  0  0  0  0  0  0999 V2000
   -3.9805    0.2451   -0.1750 C   0  0  0  0  0  0  0  0  0  0  0  0
   -2.7189   -0.6424    0.2620 C   0  0  0  0  0  0  0  0  0  0  0  0
   -4.7842   -0.3378   -0.4709 H   0  0  0  0  0  0  0  0  0  0  0  0
   -3.9564    0.5619   -0.9570 H   0  0  0  0  0  0  0  0  0  0  0  0
   -4.1928    1.2627    0.8994 H   0  0  0  0  0  0  0  0  0  0  0  0
   -1.4225    0.2937    0.1598 C   0  0  0  0  0  0  0  0  0  0  0  0
   -2.5275   -1.0559   -0.3771 H   0  0  0  0  0  0  0  0  0  0  0  0
   -3.0657   -1.6123    1.3868 H   0  0  0  0  0  0  0  0  0  0  0  0
   -0.0976   -0.7444   -0.1462 C   0  0  0  0  0  0  0  0  0  0  0  0
   -1.3211    1.0093    0.8545 H   0  0  0  0  0  0  0  0  0  0  0  0
   -1.4242    0.6774   -0.5794 H   0  0  0  0  0  0  0  0  0  0  0  0
    0.1538   -1.2017    0.6926 H   0  0  0  0  0  0  0  0  0  0  0  0
    0.8818   -0.1089   -0.0315 H   0  0  0  0  0  0  0  0  0  0  0  0
   -0.1416   -1.4846   -1.1526 H   0  0  0  0  0  0  0  0  0  0  0  0
  1  2  1  0  0  0  0
  1  5  1  0  0  0  0
  3  1  1  0  0  0  0
  4  1  1  0  0  0  0
  6  2  1  0  0  0  0
  6 10  1  0  0  0  0
  7  2  1  0  0  0  0
  9 13  1  0  0  0  0
  9  6  1  0  0  0  0
  9 12  1  0  0  0  0
 11  6  1  0  0  0  0
 14  9  1  0  0  0  0
M  RAD  2   2   2   8   2
M  END
$$$$
