14
butane_opt
C  -3.896674   0.263057   0.027063
C  -2.715412  -0.623462   0.029544
H  -4.806152  -0.356322  -0.589204
H  -3.908818   0.326574  -0.499729
H  -4.330223   1.319481   1.093842
C  -1.428601   0.214142  -0.014411
H  -2.860594  -1.108319  -0.681502
H  -2.832040  -1.506091   1.127946
C  -0.134227  -0.676051   0.041921
H  -1.502570   0.773398   0.927582
H  -1.501735   1.014018  -0.995219
H   0.219719  -1.494570   1.099777
H   0.767443  -0.291030  -0.179705
H  -0.186046  -1.288933  -0.818599
