butane_opt
 OpenBabel08242015393D

 14 11  0  0  0  0  0  0  0  0999 V2000
   -4.0693    0.3173    0.1208 C   0  0  0  0  0  1  0  0  0  0  0  0
   -2.6897   -0.6624    0.0143 C   0  0  0  0  0  0  0  0  0  0  0  0
   -4.9697   -0.2888   -0.6352 H   0  0  0  0  0  0  0  0  0  0  0  0
   -3.8140    0.0849   -0.2157 H   0  0  0  0  0  0  0  0  0  0  0  0
   -4.1957    1.5944    1.4104 H   0  0  0  0  0  0  0  0  0  0  0  0
   -1.3221    0.1711   -0.1694 C   0  0  0  0  0  0  0  0  0  0  0  0
   -2.8021   -1.5469   -1.1739 H   0  0  0  0  0  0  0  0  0  0  0  0
   -2.4244   -1.0774    0.7499 H   0  0  0  0  0  0  0  0  0  0  0  0
   -0.1410   -0.6772    0.1702 C   0  0  0  0  0  0  0  0  0  0  0  0
   -1.3675    0.4542    0.3950 H   0  0  0  0  0  0  0  0  0  0  0  0
   -1.5499    0.9442   -1.1717 H   0  0  0  0  0  0  0  0  0  0  0  0
   -0.2344   -1.4871    1.2399 H   0  0  0  0  0  0  0  0  0  0  0  0
    0.8022   -0.0405   -0.1909 H   0  0  0  0  0  0  0  0  0  0  0  0
    0.1690   -0.8930   -0.4979 H   0  0  0  0  0  0  0  0  0  0  0  0
  2  8  1  0  0  0  0
  3  1  1  0  0  0  0
  4  2  1  0  0  0  0
  6  2  1  0  0  0  0
  6  9  1  0  0  0  0
  6 10  1  0  0  0  0
  7  2  1  0  0  0  0
  9 12  1  0  0  0  0
 11  6  1  0  0  0  0
 13  9  1  0  0  0  0
 14  9  1  0  0  0  0
M  RAD  1   5   2
M  END
$$$$
