14
butane_opt
C  -3.968745   0.325342   0.162044
C  -2.650507  -0.648245  -0.198431
H  -4.846541  -0.456944  -0.085818
H  -4.066180   0.504609  -0.444881
H  -3.778200   1.373029   1.220405
C  -1.383986   0.128585  -0.061051
H  -2.652472  -1.294612  -0.891076
H  -2.504643  -1.175362   0.625958
C  -0.221030  -0.677087   0.155603
H  -1.487035   0.857602   0.775634
H  -0.841960   0.777418  -1.048088
H  -0.205760  -2.103988   1.547997
H   0.766353  -0.006416  -0.565048
H  -0.697617  -0.488609  -0.291451
