14
butane_opt
C  -3.862824   0.334561  -0.102396
C  -2.697211  -0.694209   0.095273
H  -4.613864  -0.189179   0.714467
H  -4.271406   1.426595  -1.212303
H  -3.881579   0.240976   0.392080
C  -1.405015   0.168617   0.111196
H  -2.807309  -1.116378  -0.730215
H  -2.490665  -1.424285   1.102316
C  -0.240878  -0.692552  -0.047929
H  -1.235761   1.142353   1.189545
H  -1.411950   0.439788  -0.505467
H  -0.464283  -0.819915   0.651428
H   0.894748   0.063342   0.155422
H  -0.271965  -1.605830  -1.118925
