butane_opt
 OpenBabel08242015393D

 14 13  0  0  0  0  0  0  0  0999 V2000
   -3.9428    0.2746    0.0465 C   0  0  0  0  0  0  0  0  0  0  0  0
   -2.6929   -0.6279    0.0215 C   0  0  0  0  0  0  0  0  0  0  0  0
   -4.8496   -0.3058    0.0674 H   0  0  0  0  0  0  0  0  0  0  0  0
   -4.0160    0.9088   -0.8547 H   0  0  0  0  0  0  0  0  0  0  0  0
   -3.9917    0.9223    0.9059 H   0  0  0  0  0  0  0  0  0  0  0  0
   -1.4001    0.1712   -0.0347 C   0  0  0  0  0  0  0  0  0  0  0  0
   -2.7221   -1.3285   -0.8192 H   0  0  0  0  0  0  0  0  0  0  0  0
   -2.6309   -1.2128    0.8765 H   0  0  0  0  0  0  0  0  0  0  0  0
   -0.1722   -0.6833    0.0617 C   0  0  0  0  0  0  0  0  0  0  0  0
   -1.3763    0.8300    0.8013 H   0  0  0  0  0  0  0  0  0  0  0  0
   -1.3893    0.8249   -0.9362 H   0  0  0  0  0  0  0  0  0  0  0  0
   -0.2283   -1.2355    0.9225 H   0  0  0  0  0  0  0  0  0  0  0  0
    0.8000   -0.0601    0.1751 H   0  0  0  0  0  0  0  0  0  0  0  0
   -0.1248   -1.4268   -0.8470 H   0  0  0  0  0  0  0  0  0  0  0  0
  1  3  1  0  0  0  0
  1  5  1  0  0  0  0
  2  1  1  0  0  0  0
  2  8  1  0  0  0  0
  4  1  1  0  0  0  0
  6  2  1  0  0  0  0
  6  9  1  0  0  0  0
  6 10  1  0  0  0  0
  7  2  1  0  0  0  0
  9 13  1  0  0  0  0
  9 12  1  0  0  0  0
 11  6  1  0  0  0  0
 14  9  1  0  0  0  0
M  END
$$$$
