14
butane_opt
C  -3.931184   0.193110  -0.053638
C  -2.699875  -0.569824   0.039112
H  -4.886444  -0.392903  -0.135056
H  -3.910363   0.898756  -0.863282
H  -3.824670   0.999047   0.834187
C  -1.436373   0.290621   0.186146
H  -2.694530  -1.304437  -0.782063
H  -3.166021  -1.173779   0.893226
C  -0.143714  -0.727205  -0.027071
H  -1.252644   0.818862   0.837045
H  -1.631690   0.701521  -0.646015
H   0.500321  -1.908837   1.127742
H   0.623425  -0.301589  -0.823329
H  -0.259692  -1.025798  -0.661155
