14
butane_opt
C  -3.962033   0.318341  -0.004485
C  -2.741771  -0.666868   0.053693
H  -4.909366  -0.300388   0.338935
H  -4.235317   1.581045  -1.322947
H  -3.986704   0.402350   0.525580
C  -1.370618   0.130215   0.105484
H  -2.671322  -1.564663  -0.919076
H  -2.722859  -1.082529   0.999146
C  -0.105843  -0.704949  -0.034958
H  -1.113353   0.903597   1.066360
H  -1.584474   0.816679  -0.774393
H  -0.275797  -0.959625   0.761383
H   0.901742   0.063067   0.165030
H  -0.238139  -1.250186  -0.904826
