butane_opt
 OpenBabel08242015393D

 14  8  0  0  0  0  0  0  0  0999 V2000
   -3.9750    0.1453    0.1138 C   0  0  0  0  0  1  0  0  0  0  0  0
   -2.7291   -0.5430    0.0305 C   0  0  0  0  0  0  0  0  0  0  0  0
   -4.7610   -0.1998   -0.5789 H   0  0  0  0  0  0  0  0  0  0  0  0
   -3.7890    0.2795   -0.4086 H   0  0  0  0  0  0  0  0  0  0  0  0
   -4.0803    1.3824    1.3503 H   0  0  0  0  0  0  0  0  0  0  0  0
   -1.4660    0.2973   -0.1251 C   0  0  0  0  0  0  0  0  0  0  0  0
   -2.8495   -1.6175   -1.1274 H   0  0  0  0  0  0  0  0  0  0  0  0
   -2.8014   -0.7863    0.6943 H   0  0  0  0  0  0  0  0  0  0  0  0
   -0.0762   -0.7609    0.1300 C   0  0  0  0  0  0  0  0  0  0  0  0
   -1.4034    0.8484    0.6309 H   0  0  0  0  0  0  0  0  0  0  0  0
   -1.2583    1.1422   -1.3466 H   0  0  0  0  0  0  0  0  0  0  0  0
    0.0135   -1.8193    1.3541 H   0  0  0  0  0  0  0  0  0  0  0  0
    0.7084   -0.3814   -0.2729 H   0  0  0  0  0  0  0  0  0  0  0  0
    0.1686   -1.0168   -0.5539 H   0  0  0  0  0  0  0  0  0  0  0  0
  2  8  1  0  0  0  0
  3  1  1  0  0  0  0
  4  2  1  0  0  0  0
  6  9  1  0  0  0  0
  6 10  1  0  0  0  0
 11  6  1  0  0  0  0
 13  9  1  0  0  0  0
 14  9  1  0  0  0  0
M  RAD  6   2   3   5   2   6   2   7   2   9   2  12   2
M  END
$$$$
