14
butane_opt
C  -3.947163   0.266641   0.003983
C  -2.687189  -0.621710   0.064438
H  -4.867161  -0.334038   0.036020
H  -3.941040   0.941794  -0.939578
H  -3.987687   0.885653   0.826576
C  -1.408653   0.178301   0.022372
H  -2.688856  -1.242634  -0.735337
H  -2.722599  -1.257671   0.959603
C  -0.158679  -0.692864   0.017832
H  -1.396209   0.855966   0.855744
H  -1.384518   0.843859  -0.884179
H  -0.215381  -1.154245   0.825675
H   0.757079  -0.056440   0.102563
H  -0.152714  -1.527628  -0.935564
