14
butane_opt
C  -3.899065   0.204331  -0.028630
C  -2.692748  -0.512985   0.124360
H  -4.885588  -0.337714  -0.608318
H  -3.718609   0.088800  -0.380244
H  -3.968051   1.405837   1.177002
C  -1.461335   0.208615   0.000018
H  -2.625340  -1.383133  -0.777281
H  -2.592971  -1.192220   0.993323
C  -0.169754  -0.756320   0.041450
H  -1.504925   0.686276   0.627568
H  -1.525754   1.248415  -1.182710
H  -0.142248  -1.377227   0.930339
H   0.906508   0.079441  -0.261134
H  -0.282297  -1.430567  -0.674675
