butane_opt
 OpenBabel08242015393D

 14 11  0  0  0  0  0  0  0  0999 V2000
   -3.9135    0.2300   -0.1403 C   0  0  0  0  0  0  0  0  0  0  0  0
   -2.6687   -0.5454    0.2970 C   0  0  0  0  0  0  0  0  0  0  0  0
   -4.9879   -0.5843    0.0817 H   0  0  0  0  0  0  0  0  0  0  0  0
   -3.6822    1.0804   -1.2469 H   0  0  0  0  0  0  0  0  0  0  0  0
   -3.8804    0.7076    0.5016 H   0  0  0  0  0  0  0  0  0  0  0  0
   -1.4174    0.1753    0.1029 C   0  0  0  0  0  0  0  0  0  0  0  0
   -2.8025   -1.0440   -0.5554 H   0  0  0  0  0  0  0  0  0  0  0  0
   -2.7972   -1.1083    1.1671 H   0  0  0  0  0  0  0  0  0  0  0  0
   -0.2317   -0.7445   -0.1107 C   0  0  0  0  0  1  0  0  0  0  0  0
   -1.0253    0.9875    0.9580 H   0  0  0  0  0  0  0  0  0  0  0  0
   -1.6413    0.9717   -0.9136 H   0  0  0  0  0  0  0  0  0  0  0  0
   -0.4141   -0.6701    0.3435 H   0  0  0  0  0  0  0  0  0  0  0  0
    0.7606   -0.0303    0.6943 H   0  0  0  0  0  0  0  0  0  0  0  0
    0.2332   -2.2353   -1.4560 H   0  0  0  0  0  0  0  0  0  0  0  0
  1  3  1  0  0  0  0
  1  2  1  0  0  0  0
  1  5  1  0  0  0  0
  2  8  1  0  0  0  0
  4  1  1  0  0  0  0
  6  2  1  0  0  0  0
  6 12  1  0  0  0  0
  6 10  1  0  0  0  0
  7  2  1  0  0  0  0
  9 13  1  0  0  0  0
 11  6  1  0  0  0  0
M  RAD  1  14   2
M  END
$$$$
