butane_opt
 OpenBabel08242015393D

 14  9  0  0  0  0  0  0  0  0999 V2000
   -3.9554    0.1884    0.0990 C   0  0  0  0  0  1  0  0  0  0  0  0
   -2.7349   -0.5903   -0.0051 C   0  0  0  0  0  0  0  0  0  0  0  0
   -4.6856   -0.3896   -0.6314 H   0  0  0  0  0  0  0  0  0  0  0  0
   -3.9674    0.0671   -0.2102 H   0  0  0  0  0  0  0  0  0  0  0  0
   -4.1221    1.5783    1.4449 H   0  0  0  0  0  0  0  0  0  0  0  0
   -1.3984    0.2944   -0.1158 C   0  0  0  0  0  0  0  0  0  0  0  0
   -2.8842   -1.2858   -0.9642 H   0  0  0  0  0  0  0  0  0  0  0  0
   -2.8198   -1.0086    0.7265 H   0  0  0  0  0  0  0  0  0  0  0  0
   -0.1018   -0.7508    0.1563 C   0  0  0  0  0  0  0  0  0  0  0  0
   -1.5522    0.6082    0.4835 H   0  0  0  0  0  0  0  0  0  0  0  0
   -1.6213    1.3662   -1.3859 H   0  0  0  0  0  0  0  0  0  0  0  0
    0.0981   -1.5595    1.2428 H   0  0  0  0  0  0  0  0  0  0  0  0
    0.6728   -0.3131   -0.2564 H   0  0  0  0  0  0  0  0  0  0  0  0
    0.1501   -1.2665   -0.5294 H   0  0  0  0  0  0  0  0  0  0  0  0
  2  8  1  0  0  0  0
  3  1  1  0  0  0  0
  4  2  1  0  0  0  0
  6  9  1  0  0  0  0
  6 10  1  0  0  0  0
  7  2  1  0  0  0  0
  9 12  1  0  0  0  0
 13  9  1  0  0  0  0
 14  9  1  0  0  0  0
M  RAD  4   2   2   5   2   6   3  11   2
M  END
$$$$
