butane_opt
 OpenBabel08242015393D

 14 13  0  0  0  0  0  0  0  0999 V2000
   -3.9946    0.2307    0.1869 C   0  0  0  0  0  0  0  0  0  0  0  0
   -2.7634   -0.6304   -0.0604 C   0  0  0  0  0  0  0  0  0  0  0  0
   -4.9125   -0.4403    0.0719 H   0  0  0  0  0  0  0  0  0  0  0  0
   -3.6622    0.8518   -0.6358 H   0  0  0  0  0  0  0  0  0  0  0  0
   -3.9462    1.1260    1.1840 H   0  0  0  0  0  0  0  0  0  0  0  0
   -1.3557    0.3062   -0.2000 C   0  0  0  0  0  0  0  0  0  0  0  0
   -2.9164   -1.4494   -0.9997 H   0  0  0  0  0  0  0  0  0  0  0  0
   -2.6804   -1.0624    0.5418 H   0  0  0  0  0  0  0  0  0  0  0  0
   -0.1235   -0.7520    0.1814 C   0  0  0  0  0  0  0  0  0  0  0  0
   -1.4732    0.6333    0.3594 H   0  0  0  0  0  0  0  0  0  0  0  0
   -1.3131    1.1255   -1.1939 H   0  0  0  0  0  0  0  0  0  0  0  0
   -0.2057   -1.2198    1.0242 H   0  0  0  0  0  0  0  0  0  0  0  0
    0.5489   -0.3173    0.5948 H   0  0  0  0  0  0  0  0  0  0  0  0
    0.3830   -1.6039   -0.7788 H   0  0  0  0  0  0  0  0  0  0  0  0
  1  5  1  0  0  0  0
  2  1  1  0  0  0  0
  2  8  1  0  0  0  0
  3  1  1  0  0  0  0
  4  1  1  0  0  0  0
  6  2  1  0  0  0  0
  6  9  1  0  0  0  0
  6 10  1  0  0  0  0
  7  2  1  0  0  0  0
  9 13  1  0  0  0  0
  9 12  1  0  0  0  0
 11  6  1  0  0  0  0
 14  9  1  0  0  0  0
M  END
$$$$
