butane_opt
 OpenBabel08242015393D

 14 13  0  0  0  0  0  0  0  0999 V2000
   -3.9459    0.2639   -0.0065 C   0  0  0  0  0  0  0  0  0  0  0  0
   -2.7012   -0.6239    0.0675 C   0  0  0  0  0  0  0  0  0  0  0  0
   -4.8379   -0.3051   -0.0738 H   0  0  0  0  0  0  0  0  0  0  0  0
   -3.9665    0.9298   -0.9338 H   0  0  0  0  0  0  0  0  0  0  0  0
   -4.0359    0.9601    0.8649 H   0  0  0  0  0  0  0  0  0  0  0  0
   -1.3909    0.1840    0.0534 C   0  0  0  0  0  0  0  0  0  0  0  0
   -2.7247   -1.3231   -0.8004 H   0  0  0  0  0  0  0  0  0  0  0  0
   -2.7315   -1.2581    0.9450 H   0  0  0  0  0  0  0  0  0  0  0  0
   -0.1603   -0.6892    0.0021 C   0  0  0  0  0  0  0  0  0  0  0  0
   -1.3635    0.8734    0.9179 H   0  0  0  0  0  0  0  0  0  0  0  0
   -1.4108    0.8293   -0.8486 H   0  0  0  0  0  0  0  0  0  0  0  0
   -0.0926   -1.3699    0.9288 H   0  0  0  0  0  0  0  0  0  0  0  0
    0.7443   -0.1263   -0.1101 H   0  0  0  0  0  0  0  0  0  0  0  0
   -0.2207   -1.2973   -0.8468 H   0  0  0  0  0  0  0  0  0  0  0  0
  1  2  1  0  0  0  0
  1  5  1  0  0  0  0
  2  8  1  0  0  0  0
  3  1  1  0  0  0  0
  4  1  1  0  0  0  0
  6  2  1  0  0  0  0
  6 10  1  0  0  0  0
  7  2  1  0  0  0  0
  9  6  1  0  0  0  0
  9 12  1  0  0  0  0
 11  6  1  0  0  0  0
 13  9  1  0  0  0  0
 14  9  1  0  0  0  0
M  END
$$$$
