butane_opt
 OpenBabel08242015393D

 14 12  0  0  0  0  0  0  0  0999 V2000
   -3.8310    0.2206   -0.1458 C   0  0  0  0  0  0  0  0  0  0  0  0
   -2.7357   -0.5662    0.2248 C   0  0  0  0  0  0  0  0  0  0  0  0
   -4.7716   -0.4482   -0.3040 H   0  0  0  0  0  0  0  0  0  0  0  0
   -3.5851    0.7827   -0.8958 H   0  0  0  0  0  0  0  0  0  0  0  0
   -4.2438    0.8840    0.7259 H   0  0  0  0  0  0  0  0  0  0  0  0
   -1.4793    0.2703    0.1789 C   0  0  0  0  0  0  0  0  0  0  0  0
   -2.6805   -1.2570   -0.5915 H   0  0  0  0  0  0  0  0  0  0  0  0
   -2.6364   -1.6009    1.4084 H   0  0  0  0  0  0  0  0  0  0  0  0
   -0.1736   -0.7551   -0.1220 C   0  0  0  0  0  0  0  0  0  0  0  0
   -1.4753    0.9078    0.8004 H   0  0  0  0  0  0  0  0  0  0  0  0
   -1.6035    1.0459   -0.7923 H   0  0  0  0  0  0  0  0  0  0  0  0
   -0.0343   -0.9370    0.4701 H   0  0  0  0  0  0  0  0  0  0  0  0
    0.8130   -0.1969    0.1126 H   0  0  0  0  0  0  0  0  0  0  0  0
   -0.1380   -1.7001   -1.1583 H   0  0  0  0  0  0  0  0  0  0  0  0
  1  2  1  0  0  0  0
  1  5  1  0  0  0  0
  3  1  1  0  0  0  0
  4  1  1  0  0  0  0
  6  2  1  0  0  0  0
  6 10  1  0  0  0  0
  7  2  1  0  0  0  0
  9 13  1  0  0  0  0
  9  6  1  0  0  0  0
  9 12  1  0  0  0  0
 11  6  1  0  0  0  0
 14  9  1  0  0  0  0
M  RAD  2   2   2   8   2
M  END
$$$$
