14
butane_opt
C  -3.994628   0.230697   0.186898
C  -2.763418  -0.630409  -0.060356
H  -4.912504  -0.440337   0.071877
H  -3.662195   0.851754  -0.635802
H  -3.946168   1.126028   1.184028
C  -1.355668   0.306207  -0.199997
H  -2.916410  -1.449379  -0.999656
H  -2.680382  -1.062392   0.541789
C  -0.123510  -0.751956   0.181367
H  -1.473248   0.633324   0.359364
H  -1.313138   1.125526  -1.193919
H  -0.205722  -1.219841   1.024167
H   0.548887  -0.317320   0.594850
H   0.383024  -1.603943  -0.778750
