butane_opt
 OpenBabel08242015393D

 14 12  0  0  0  0  0  0  0  0999 V2000
   -3.9455    0.1920    0.0679 C   0  0  0  0  0  0  0  0  0  0  0  0
   -2.7938   -0.5816   -0.0656 C   0  0  0  0  0  0  0  0  0  0  0  0
   -4.6726   -0.2908    0.0962 H   0  0  0  0  0  0  0  0  0  0  0  0
   -3.9233    0.7638   -0.8334 H   0  0  0  0  0  0  0  0  0  0  0  0
   -3.7732    0.8106    0.9844 H   0  0  0  0  0  0  0  0  0  0  0  0
   -1.3969    0.3050    0.0443 C   0  0  0  0  0  0  0  0  0  0  0  0
   -2.8194   -1.2260   -0.9472 H   0  0  0  0  0  0  0  0  0  0  0  0
   -2.6643   -1.0359    0.5756 H   0  0  0  0  0  0  0  0  0  0  0  0
   -0.1108   -0.7894    0.0648 C   0  0  0  0  0  0  0  0  0  0  0  0
   -1.7135    0.9407    0.8604 H   0  0  0  0  0  0  0  0  0  0  0  0
   -1.1780    1.1344   -0.9562 H   0  0  0  0  0  0  0  0  0  0  0  0
    0.4040   -1.7019    1.2317 H   0  0  0  0  0  0  0  0  0  0  0  0
    0.7208   -0.3741   -0.3880 H   0  0  0  0  0  0  0  0  0  0  0  0
   -0.4277   -1.0057   -0.4864 H   0  0  0  0  0  0  0  0  0  0  0  0
  1  3  1  0  0  0  0
  1  5  1  0  0  0  0
  2  6  1  0  0  0  0
  2  1  1  0  0  0  0
  2  8  1  0  0  0  0
  4  1  1  0  0  0  0
  6  9  1  0  0  0  0
  6 10  1  0  0  0  0
  7  2  1  0  0  0  0
 11  6  1  0  0  0  0
 13  9  1  0  0  0  0
 14  9  1  0  0  0  0
M  RAD  2   9   2  12   2
M  END
$$$$
