14
butane_opt
C  -3.972143   0.199599  -0.206673
C  -2.727916  -0.582361   0.309529
H  -4.771658  -0.129755  -0.817925
H  -3.791856   0.455949  -0.863294
H  -4.263754   1.090304   0.763488
C  -1.397431   0.266099   0.152745
H  -2.584595  -0.892839  -0.182455
H  -2.655430  -1.628120   1.436888
C  -0.152339  -0.722369  -0.161182
H  -1.328055   1.023535   1.165510
H  -1.506731   0.690046  -0.450562
H   0.387013  -1.162729   0.513807
H   0.675215  -0.205603  -0.194891
H  -0.190297  -1.649543  -1.100440
