butane_opt
 OpenBabel08242015393D

 14 13  0  0  0  0  0  0  0  0999 V2000
   -3.9579    0.2671    0.0478 C   0  0  0  0  0  0  0  0  0  0  0  0
   -2.6951   -0.6251   -0.0084 C   0  0  0  0  0  0  0  0  0  0  0  0
   -4.8368   -0.3085    0.1863 H   0  0  0  0  0  0  0  0  0  0  0  0
   -4.1332    0.9154   -0.8434 H   0  0  0  0  0  0  0  0  0  0  0  0
   -3.8754    0.9144    0.9011 H   0  0  0  0  0  0  0  0  0  0  0  0
   -1.3963    0.1779   -0.0207 C   0  0  0  0  0  0  0  0  0  0  0  0
   -2.7021   -1.3298   -0.8766 H   0  0  0  0  0  0  0  0  0  0  0  0
   -2.6760   -1.2376    0.8704 H   0  0  0  0  0  0  0  0  0  0  0  0
   -0.1583   -0.6858    0.0636 C   0  0  0  0  0  0  0  0  0  0  0  0
   -1.3976    0.8928    0.8324 H   0  0  0  0  0  0  0  0  0  0  0  0
   -1.3167    0.8408   -0.9355 H   0  0  0  0  0  0  0  0  0  0  0  0
   -0.1968   -1.3168    0.9966 H   0  0  0  0  0  0  0  0  0  0  0  0
    0.7079   -0.1179    0.0774 H   0  0  0  0  0  0  0  0  0  0  0  0
   -0.0987   -1.3396   -0.7634 H   0  0  0  0  0  0  0  0  0  0  0  0
  1  3  1  0  0  0  0
  1  5  1  0  0  0  0
  2  1  1  0  0  0  0
  2  8  1  0  0  0  0
  4  1  1  0  0  0  0
  6  2  1  0  0  0  0
  6  9  1  0  0  0  0
  6 10  1  0  0  0  0
  7  2  1  0  0  0  0
  9 13  1  0  0  0  0
  9 12  1  0  0  0  0
 11  6  1  0  0  0  0
 14  9  1  0  0  0  0
M  END
$$$$
