butane_opt
 OpenBabel08242015393D

 14  8  0  0  0  0  0  0  0  0999 V2000
   -3.9404    0.2292   -0.0558 C   0  0  0  0  0  1  0  0  0  0  0  0
   -2.7305   -0.6121    0.1074 C   0  0  0  0  0  0  0  0  0  0  0  0
   -4.7704   -0.4175    0.5736 H   0  0  0  0  0  0  0  0  0  0  0  0
   -4.0510    1.4914   -1.4629 H   0  0  0  0  0  0  0  0  0  0  0  0
   -3.9612   -0.0235    0.2481 H   0  0  0  0  0  0  0  0  0  0  0  0
   -1.3895    0.3143    0.1576 C   0  0  0  0  0  0  0  0  0  0  0  0
   -2.8817   -1.0585   -0.6806 H   0  0  0  0  0  0  0  0  0  0  0  0
   -3.1062   -1.1089    1.0496 H   0  0  0  0  0  0  0  0  0  0  0  0
   -0.1130   -0.7939   -0.0621 C   0  0  0  0  0  0  0  0  0  0  0  0
   -1.3854    1.1357    1.1032 H   0  0  0  0  0  0  0  0  0  0  0  0
   -1.4853    0.8589   -0.6938 H   0  0  0  0  0  0  0  0  0  0  0  0
    0.0595   -0.8948    0.3017 H   0  0  0  0  0  0  0  0  0  0  0  0
    0.6891   -0.2651    0.3387 H   0  0  0  0  0  0  0  0  0  0  0  0
   -0.0185   -1.8582   -1.2116 H   0  0  0  0  0  0  0  0  0  0  0  0
  1  3  1  0  0  0  0
  2  5  1  0  0  0  0
  2  8  1  0  0  0  0
  6 10  1  0  0  0  0
  7  2  1  0  0  0  0
  9  6  1  0  0  0  0
  9 13  1  0  0  0  0
 11  6  1  0  0  0  0
M  RAD  6   2   2   4   2   6   2   9   3  12   2  14   2
M  END
$$$$
