butane_opt
 OpenBabel08242015393D

 14 12  0  0  0  0  0  0  0  0999 V2000
   -3.9445    0.2524    0.1399 C   0  0  0  0  0  0  0  0  0  0  0  0
   -2.7134   -0.6025   -0.0784 C   0  0  0  0  0  0  0  0  0  0  0  0
   -5.0286   -0.6101   -0.2838 H   0  0  0  0  0  0  0  0  0  0  0  0
   -3.9586    0.3274   -0.5496 H   0  0  0  0  0  0  0  0  0  0  0  0
   -3.9304    1.4173    1.3529 H   0  0  0  0  0  0  0  0  0  0  0  0
   -1.4457    0.2344   -0.1815 C   0  0  0  0  0  0  0  0  0  0  0  0
   -3.0051   -1.1379   -0.8584 H   0  0  0  0  0  0  0  0  0  0  0  0
   -2.7137   -1.3091    0.8527 H   0  0  0  0  0  0  0  0  0  0  0  0
   -0.0602   -0.7326    0.2039 C   0  0  0  0  0  0  0  0  0  0  0  0
   -1.5482    0.8548    0.6047 H   0  0  0  0  0  0  0  0  0  0  0  0
   -1.5315    0.9865   -0.9906 H   0  0  0  0  0  0  0  0  0  0  0  0
   -0.1601   -1.3413    1.1086 H   0  0  0  0  0  0  0  0  0  0  0  0
    0.7846   -0.2733   -0.1544 H   0  0  0  0  0  0  0  0  0  0  0  0
    0.0694   -1.2450   -0.6176 H   0  0  0  0  0  0  0  0  0  0  0  0
  2  1  1  0  0  0  0
  2  8  1  0  0  0  0
  3  1  1  0  0  0  0
  4  1  1  0  0  0  0
  6  2  1  0  0  0  0
  6  9  1  0  0  0  0
  6 10  1  0  0  0  0
  7  2  1  0  0  0  0
  9 12  1  0  0  0  0
 11  6  1  0  0  0  0
 13  9  1  0  0  0  0
 14  9  1  0  0  0  0
M  RAD  2   1   2   5   2
M  END
$$$$
