butane_opt
 OpenBabel08242015393D

 14 13  0  0  0  0  0  0  0  0999 V2000
   -3.9815    0.2542    0.1811 C   0  0  0  0  0  0  0  0  0  0  0  0
   -2.7427   -0.5621   -0.1658 C   0  0  0  0  0  0  0  0  0  0  0  0
   -5.1594   -0.5461    0.3482 H   0  0  0  0  0  0  0  0  0  0  0  0
   -3.9642    0.8828   -0.6772 H   0  0  0  0  0  0  0  0  0  0  0  0
   -3.6883    0.6935    1.1209 H   0  0  0  0  0  0  0  0  0  0  0  0
   -1.3682    0.2562   -0.1703 C   0  0  0  0  0  0  0  0  0  0  0  0
   -2.9651   -1.1480   -0.9727 H   0  0  0  0  0  0  0  0  0  0  0  0
   -2.5706   -1.3570    0.7103 H   0  0  0  0  0  0  0  0  0  0  0  0
   -0.1361   -0.7518    0.1861 C   0  0  0  0  0  0  0  0  0  0  0  0
   -1.4804    0.8660    0.6811 H   0  0  0  0  0  0  0  0  0  0  0  0
   -1.4663    0.7974   -1.0356 H   0  0  0  0  0  0  0  0  0  0  0  0
   -0.1542   -1.4051    1.2112 H   0  0  0  0  0  0  0  0  0  0  0  0
    0.7610   -0.0638    0.4159 H   0  0  0  0  0  0  0  0  0  0  0  0
    0.3782   -1.5551   -0.7537 H   0  0  0  0  0  0  0  0  0  0  0  0
  1  3  1  0  0  0  0
  1  5  1  0  0  0  0
  2  1  1  0  0  0  0
  2  8  1  0  0  0  0
  4  1  1  0  0  0  0
  6  2  1  0  0  0  0
  6  9  1  0  0  0  0
  6 10  1  0  0  0  0
  7  2  1  0  0  0  0
  9 13  1  0  0  0  0
  9 12  1  0  0  0  0
 11  6  1  0  0  0  0
 14  9  1  0  0  0  0
M  END
$$$$
