14
butane_opt
C  -3.943854   0.279864   0.034301
C  -2.691358  -0.621873   0.028458
H  -4.855927  -0.341855  -0.049465
H  -3.933927   0.753517  -0.754572
H  -4.003709   1.053851   0.983998
C  -1.400464   0.170757  -0.020538
H  -2.752692  -1.343364  -0.868632
H  -2.686106  -1.208840   0.879193
C  -0.173419  -0.684712   0.053900
H  -1.351813   0.798934   0.808574
H  -1.402652   0.808920  -0.936643
H  -0.155060  -1.389768   1.006467
H   0.744945  -0.067165  -0.025539
H  -0.125689  -1.258107  -0.730796
