butane_opt
 OpenBabel08242015393D

 14 12  0  0  0  0  0  0  0  0999 V2000
   -3.8867    0.3223    0.1749 C   0  0  0  0  0  0  0  0  0  0  0  0
   -2.7388   -0.6181   -0.0441 C   0  0  0  0  0  0  0  0  0  0  0  0
   -4.7986   -0.2228   -0.0966 H   0  0  0  0  0  0  0  0  0  0  0  0
   -3.9759    0.5943   -0.4060 H   0  0  0  0  0  0  0  0  0  0  0  0
   -4.0165    1.0058    1.1506 H   0  0  0  0  0  0  0  0  0  0  0  0
   -1.4160    0.0997   -0.2185 C   0  0  0  0  0  0  0  0  0  0  0  0
   -2.8112   -1.6260   -1.1273 H   0  0  0  0  0  0  0  0  0  0  0  0
   -2.3450   -1.1436    0.7483 H   0  0  0  0  0  0  0  0  0  0  0  0
   -0.1734   -0.6570    0.2011 C   0  0  0  0  0  0  0  0  0  0  0  0
   -1.6007    0.6929    0.3996 H   0  0  0  0  0  0  0  0  0  0  0  0
   -1.2234    1.0687   -1.3807 H   0  0  0  0  0  0  0  0  0  0  0  0
   -0.6494   -1.1061    0.9696 H   0  0  0  0  0  0  0  0  0  0  0  0
    0.9722    0.1164    0.4638 H   0  0  0  0  0  0  0  0  0  0  0  0
   -0.0154   -1.6059   -0.6679 H   0  0  0  0  0  0  0  0  0  0  0  0
  1  5  1  0  0  0  0
  2  1  1  0  0  0  0
  2  8  1  0  0  0  0
  3  1  1  0  0  0  0
  4  1  1  0  0  0  0
  6  2  1  0  0  0  0
  6  9  1  0  0  0  0
  6 10  1  0  0  0  0
  7  2  1  0  0  0  0
  9 13  1  0  0  0  0
  9 12  1  0  0  0  0
 14  9  1  0  0  0  0
M  RAD  2   6   2  11   2
M  END
$$$$
