14
butane_opt
C  -3.989677   0.256074  -0.198527
C  -2.708815  -0.602206   0.292759
H  -4.899673  -0.355999  -0.382523
H  -3.891802   0.818245  -1.015318
H  -4.341581   1.244364   0.855688
C  -1.369247   0.167191   0.165397
H  -2.611065  -1.019992  -0.284937
H  -3.231577  -1.465284   1.356383
C  -0.081830  -0.697176  -0.137867
H  -1.182999   0.882823   0.992469
H  -1.523545   0.628578  -0.657987
H  -0.154931  -0.948963   0.549423
H   0.782838  -0.140692  -0.070504
H  -0.148740  -1.622321  -1.365554
