14
butane_opt
C  -3.981832   0.350212  -0.073167
C  -2.706486  -0.746551   0.186669
H  -5.055524  -0.201600  -0.572705
H  -4.007138   0.710647  -0.813981
H  -4.331167   1.074868   0.850251
C  -1.328988   0.156318   0.131024
H  -2.554712  -1.360096  -0.705157
H  -2.753957  -1.270861   1.109845
C  -0.165389  -0.637052  -0.085157
H  -1.335192   0.791997   0.904374
H  -1.319244   1.051289  -1.019178
H   0.014601  -1.262172   0.863251
H   0.689303  -0.065705  -0.168569
H  -0.188248  -1.461236  -0.929782
