butane_opt
 OpenBabel08242015393D

 14 13  0  0  0  0  0  0  0  0999 V2000
   -3.9818    0.3502   -0.0732 C   0  0  0  0  0  0  0  0  0  0  0  0
   -2.7065   -0.7466    0.1867 C   0  0  0  0  0  0  0  0  0  0  0  0
   -5.0555   -0.2016   -0.5727 H   0  0  0  0  0  0  0  0  0  0  0  0
   -4.0071    0.7106   -0.8140 H   0  0  0  0  0  0  0  0  0  0  0  0
   -4.3312    1.0749    0.8503 H   0  0  0  0  0  0  0  0  0  0  0  0
   -1.3290    0.1563    0.1310 C   0  0  0  0  0  0  0  0  0  0  0  0
   -2.5547   -1.3601   -0.7052 H   0  0  0  0  0  0  0  0  0  0  0  0
   -2.7540   -1.2709    1.1098 H   0  0  0  0  0  0  0  0  0  0  0  0
   -0.1654   -0.6371   -0.0852 C   0  0  0  0  0  0  0  0  0  0  0  0
   -1.3352    0.7920    0.9044 H   0  0  0  0  0  0  0  0  0  0  0  0
   -1.3192    1.0513   -1.0192 H   0  0  0  0  0  0  0  0  0  0  0  0
    0.0146   -1.2622    0.8633 H   0  0  0  0  0  0  0  0  0  0  0  0
    0.6893   -0.0657   -0.1686 H   0  0  0  0  0  0  0  0  0  0  0  0
   -0.1882   -1.4612   -0.9298 H   0  0  0  0  0  0  0  0  0  0  0  0
  1  2  1  0  0  0  0
  1  5  1  0  0  0  0
  2  8  1  0  0  0  0
  3  1  1  0  0  0  0
  4  1  1  0  0  0  0
  6  2  1  0  0  0  0
  6 10  1  0  0  0  0
  7  2  1  0  0  0  0
  9  6  1  0  0  0  0
  9 12  1  0  0  0  0
 11  6  1  0  0  0  0
 13  9  1  0  0  0  0
 14  9  1  0  0  0  0
M  END
$$$$
