butane_opt
 OpenBabel08242015393D

 14 13  0  0  0  0  0  0  0  0999 V2000
   -3.9728    0.3095    0.1557 C   0  0  0  0  0  0  0  0  0  0  0  0
   -2.6671   -0.7010   -0.1767 C   0  0  0  0  0  0  0  0  0  0  0  0
   -4.7528   -0.0748    0.6218 H   0  0  0  0  0  0  0  0  0  0  0  0
   -4.2884    0.9443   -0.7384 H   0  0  0  0  0  0  0  0  0  0  0  0
   -3.9232    0.9857    1.1209 H   0  0  0  0  0  0  0  0  0  0  0  0
   -1.3745    0.1337   -0.1120 C   0  0  0  0  0  0  0  0  0  0  0  0
   -2.8653   -1.4102   -1.1134 H   0  0  0  0  0  0  0  0  0  0  0  0
   -2.3838   -1.3028    0.5029 H   0  0  0  0  0  0  0  0  0  0  0  0
   -0.1663   -0.6122    0.1624 C   0  0  0  0  0  0  0  0  0  0  0  0
   -1.4136    0.7773    0.7032 H   0  0  0  0  0  0  0  0  0  0  0  0
   -1.4189    0.6028   -0.9409 H   0  0  0  0  0  0  0  0  0  0  0  0
   -0.4499   -1.5659    1.2982 H   0  0  0  0  0  0  0  0  0  0  0  0
    0.5676   -0.1541    0.1327 H   0  0  0  0  0  0  0  0  0  0  0  0
    0.0570   -0.7968   -0.4426 H   0  0  0  0  0  0  0  0  0  0  0  0
  1  3  1  0  0  0  0
  1  5  1  0  0  0  0
  2  6  1  0  0  0  0
  2  1  1  0  0  0  0
  2  8  1  0  0  0  0
  4  1  1  0  0  0  0
  6  9  1  0  0  0  0
  6 10  1  0  0  0  0
  7  2  1  0  0  0  0
  9 12  1  0  0  0  0
 11  6  1  0  0  0  0
 13  9  1  0  0  0  0
 14  9  1  0  0  0  0
M  END
$$$$
