butane_opt
 OpenBabel08242015393D

 14 13  0  0  0  0  0  0  0  0999 V2000
   -3.9821    0.2514    0.0262 C   0  0  0  0  0  0  0  0  0  0  0  0
   -2.7309   -0.6577    0.0168 C   0  0  0  0  0  0  0  0  0  0  0  0
   -4.9266   -0.4337    0.2596 H   0  0  0  0  0  0  0  0  0  0  0  0
   -3.9722    0.6455   -0.6877 H   0  0  0  0  0  0  0  0  0  0  0  0
   -3.8984    1.0146    0.9302 H   0  0  0  0  0  0  0  0  0  0  0  0
   -1.4016    0.2960   -0.0245 C   0  0  0  0  0  0  0  0  0  0  0  0
   -2.6407   -1.3430   -0.9274 H   0  0  0  0  0  0  0  0  0  0  0  0
   -2.7723   -1.1394    0.9122 H   0  0  0  0  0  0  0  0  0  0  0  0
   -0.1235   -0.7258    0.0667 C   0  0  0  0  0  0  0  0  0  0  0  0
   -1.6787    0.7753    0.7343 H   0  0  0  0  0  0  0  0  0  0  0  0
   -1.2876    1.0418   -0.9620 H   0  0  0  0  0  0  0  0  0  0  0  0
    0.1068   -1.3334    0.7912 H   0  0  0  0  0  0  0  0  0  0  0  0
    0.6693   -0.3610    0.1106 H   0  0  0  0  0  0  0  0  0  0  0  0
    0.2324   -1.3212   -0.7177 H   0  0  0  0  0  0  0  0  0  0  0  0
  1  3  1  0  0  0  0
  1  5  1  0  0  0  0
  2  1  1  0  0  0  0
  2  8  1  0  0  0  0
  4  1  1  0  0  0  0
  6  2  1  0  0  0  0
  6  9  1  0  0  0  0
  6 10  1  0  0  0  0
  7  2  1  0  0  0  0
  9 13  1  0  0  0  0
  9 12  1  0  0  0  0
 11  6  1  0  0  0  0
 14  9  1  0  0  0  0
M  END
$$$$
