butane_opt
 OpenBabel08242015393D

 14 11  0  0  0  0  0  0  0  0999 V2000
   -3.9253    0.2148    0.2010 C   0  0  0  0  0  0  0  0  0  0  0  0
   -2.7440   -0.5901   -0.1241 C   0  0  0  0  0  0  0  0  0  0  0  0
   -4.9715   -0.5030    0.1554 H   0  0  0  0  0  0  0  0  0  0  0  0
   -4.0914    0.5894   -0.5239 H   0  0  0  0  0  0  0  0  0  0  0  0
   -3.7791    1.0909    1.2495 H   0  0  0  0  0  0  0  0  0  0  0  0
   -1.4735    0.3323   -0.2053 C   0  0  0  0  0  0  0  0  0  0  0  0
   -3.0661   -1.3346   -1.0951 H   0  0  0  0  0  0  0  0  0  0  0  0
   -2.4568   -1.1863    0.7580 H   0  0  0  0  0  0  0  0  0  0  0  0
   -0.0941   -0.7343    0.2289 C   0  0  0  0  0  0  0  0  0  0  0  0
   -1.5630    0.4104    0.1436 H   0  0  0  0  0  0  0  0  0  0  0  0
   -1.0205    1.1880   -1.3694 H   0  0  0  0  0  0  0  0  0  0  0  0
   -0.2687   -1.1313    0.9231 H   0  0  0  0  0  0  0  0  0  0  0  0
    0.6189   -0.3706    0.6664 H   0  0  0  0  0  0  0  0  0  0  0  0
    0.4606   -1.9298   -0.7164 H   0  0  0  0  0  0  0  0  0  0  0  0
  1  5  1  0  0  0  0
  2  1  1  0  0  0  0
  2  8  1  0  0  0  0
  3  1  1  0  0  0  0
  4  1  1  0  0  0  0
  6  2  1  0  0  0  0
  6  9  1  0  0  0  0
  7  2  1  0  0  0  0
  9 13  1  0  0  0  0
  9 12  1  0  0  0  0
 11  6  1  0  0  0  0
M  RAD  4   6   2   9   2  10   2  14   2
M  END
$$$$
