14
butane_opt
C  -3.960300   0.277114   0.035705
C  -2.709100  -0.629558   0.028721
H  -4.853742  -0.280343  -0.064422
H  -3.925989   0.744218  -0.753014
H  -4.037006   1.072818   0.976341
C  -1.386518   0.168869  -0.025725
H  -2.728568  -1.292240  -0.787712
H  -2.698403  -1.245841   0.901925
C  -0.150700  -0.680069   0.045061
H  -1.386798   0.835646   0.829324
H  -1.376668   0.821293  -0.918591
H  -0.195858  -1.368923   0.989915
H   0.736629  -0.101227   0.037727
H  -0.086597  -1.295022  -0.756534
