14
butane_opt
C  -4.031394   0.363943   0.076667
C  -2.710926  -0.742582  -0.008105
H  -4.776262  -0.196403  -0.612929
H  -3.947924   0.247906  -0.269449
H  -4.241811   1.708210   1.549222
C  -1.345665   0.131909  -0.103420
H  -2.747375  -1.155441  -0.702770
H  -2.854928  -1.341818   0.851363
C  -0.124827  -0.653126   0.074608
H  -1.407188   0.530254   0.670482
H  -1.256570   0.918283  -1.200390
H  -0.192771  -1.610127   1.148637
H   0.985700   0.235219   0.129096
H  -0.105378  -0.959223  -0.477150
