butane_opt
 OpenBabel08242015393D

 14 13  0  0  0  0  0  0  0  0999 V2000
   -3.9079    0.3455   -0.1164 C   0  0  0  0  0  0  0  0  0  0  0  0
   -2.7054   -0.6457    0.1596 C   0  0  0  0  0  0  0  0  0  0  0  0
   -4.6693   -0.2142   -0.4352 H   0  0  0  0  0  0  0  0  0  0  0  0
   -3.7486    0.5581   -0.7736 H   0  0  0  0  0  0  0  0  0  0  0  0
   -4.2758    1.1947    0.9189 H   0  0  0  0  0  0  0  0  0  0  0  0
   -1.3785    0.0649    0.1198 C   0  0  0  0  0  0  0  0  0  0  0  0
   -2.4355   -1.2606   -0.5133 H   0  0  0  0  0  0  0  0  0  0  0  0
   -3.0600   -1.4763    1.3752 H   0  0  0  0  0  0  0  0  0  0  0  0
   -0.2253   -0.6277   -0.0691 C   0  0  0  0  0  0  0  0  0  0  0  0
   -1.3222    0.9553    1.0744 H   0  0  0  0  0  0  0  0  0  0  0  0
   -1.5263    0.6859   -0.6840 H   0  0  0  0  0  0  0  0  0  0  0  0
    0.0391   -1.3965    0.8465 H   0  0  0  0  0  0  0  0  0  0  0  0
    0.9020    0.1999   -0.5431 H   0  0  0  0  0  0  0  0  0  0  0  0
   -0.3966   -1.3107   -0.9099 H   0  0  0  0  0  0  0  0  0  0  0  0
  1  2  1  0  0  0  0
  1  5  1  0  0  0  0
  2  8  1  0  0  0  0
  3  1  1  0  0  0  0
  4  1  1  0  0  0  0
  6  2  1  0  0  0  0
  6 10  1  0  0  0  0
  7  2  1  0  0  0  0
  9  6  1  0  0  0  0
  9 12  1  0  0  0  0
 11  6  1  0  0  0  0
 13  9  1  0  0  0  0
 14  9  1  0  0  0  0
M  END
$$$$
