butane_opt
 OpenBabel08242015393D

 14 10  0  0  0  0  0  0  0  0999 V2000
   -3.9737    0.1777    0.1198 C   0  0  0  0  0  0  0  0  0  0  0  0
   -2.7679   -0.5182   -0.0600 C   0  0  0  0  0  0  0  0  0  0  0  0
   -4.8605   -0.4518   -0.2513 H   0  0  0  0  0  0  0  0  0  0  0  0
   -3.9840    0.2191   -0.4452 H   0  0  0  0  0  0  0  0  0  0  0  0
   -3.9439    1.4780    1.5969 H   0  0  0  0  0  0  0  0  0  0  0  0
   -1.4178    0.2364   -0.1952 C   0  0  0  0  0  0  0  0  0  0  0  0
   -2.9968   -0.9897   -0.8886 H   0  0  0  0  0  0  0  0  0  0  0  0
   -2.5151   -1.2806    0.8966 H   0  0  0  0  0  0  0  0  0  0  0  0
   -0.0816   -0.7676    0.2007 C   0  0  0  0  0  0  0  0  0  0  0  0
   -1.5928    0.9013    0.6101 H   0  0  0  0  0  0  0  0  0  0  0  0
   -1.2957    1.1655   -1.3440 H   0  0  0  0  0  0  0  0  0  0  0  0
   -0.1498   -1.4757    1.0490 H   0  0  0  0  0  0  0  0  0  0  0  0
    0.9387   -0.0642    0.1768 H   0  0  0  0  0  0  0  0  0  0  0  0
    0.2844   -1.5367   -0.7123 H   0  0  0  0  0  0  0  0  0  0  0  0
  2  1  1  0  0  0  0
  2  8  1  0  0  0  0
  3  1  1  0  0  0  0
  6  9  1  0  0  0  0
  6 10  1  0  0  0  0
  7  2  1  0  0  0  0
  9 12  1  0  0  0  0
 11  6  1  0  0  0  0
 13  9  1  0  0  0  0
 14  9  1  0  0  0  0
M  RAD  5   1   3   2   2   4   2   5   2   6   2
M  END
$$$$
