butane_opt
 OpenBabel08242015393D

 14  9  0  0  0  0  0  0  0  0999 V2000
   -3.9822    0.3202    0.0406 C   0  0  0  0  0  0  0  0  0  0  0  0
   -2.6336   -0.6769   -0.0196 C   0  0  0  0  0  0  0  0  0  0  0  0
   -4.7764   -0.1850   -0.1381 H   0  0  0  0  0  0  0  0  0  0  0  0
   -4.0305    0.7741   -0.6386 H   0  0  0  0  0  0  0  0  0  0  0  0
   -4.1304    1.2287    1.1182 H   0  0  0  0  0  0  0  0  0  0  0  0
   -1.3642    0.1068    0.0124 C   0  0  0  0  0  0  0  0  0  0  0  0
   -2.5104   -1.6008   -1.0258 H   0  0  0  0  0  0  0  0  0  0  0  0
   -2.7282   -1.3103    0.9010 H   0  0  0  0  0  0  0  0  0  0  0  0
   -0.2043   -0.6615    0.0086 C   0  0  0  0  0 15  0  0  0  0  0  0
   -1.5539    0.8683    0.9049 H   0  0  0  0  0  0  0  0  0  0  0  0
   -1.5094    0.7650   -0.6910 H   0  0  0  0  0  0  0  0  0  0  0  0
   -0.1707   -1.8309    1.2498 H   0  0  0  0  0  0  0  0  0  0  0  0
    0.9540    0.3339   -0.3423 H   0  0  0  0  0  0  0  0  0  0  0  0
   -0.3849   -0.5148   -0.3001 H   0  0  0  0  0  0  0  0  0  0  0  0
  1  5  1  0  0  0  0
  2  1  1  0  0  0  0
  2  8  1  0  0  0  0
  3  1  1  0  0  0  0
  4  1  1  0  0  0  0
  6 10  1  0  0  0  0
  7  2  1  0  0  0  0
 11  6  1  0  0  0  0
 14  6  1  0  0  0  0
M  RAD  4   2   2   6   2  12   2  13   2
M  END
$$$$
