butane_opt
 OpenBabel08242015393D

 14  8  0  0  0  0  0  0  0  0999 V2000
   -3.9013    0.2475    0.0939 C   0  0  0  0  0  1  0  0  0  0  0  0
   -2.7005   -0.5235    0.0231 C   0  0  0  0  0  0  0  0  0  0  0  0
   -4.9998   -0.6339   -0.6059 H   0  0  0  0  0  0  0  0  0  0  0  0
   -3.7789    0.1995   -0.4522 H   0  0  0  0  0  0  0  0  0  0  0  0
   -3.8779    1.2016    1.2010 H   0  0  0  0  0  0  0  0  0  0  0  0
   -1.4124    0.2195   -0.0872 C   0  0  0  0  0  0  0  0  0  0  0  0
   -2.8193   -1.5011   -0.9547 H   0  0  0  0  0  0  0  0  0  0  0  0
   -2.8883   -0.9107    0.6851 H   0  0  0  0  0  0  0  0  0  0  0  0
   -0.1737   -0.7687    0.0916 C   0  0  0  0  0  0  0  0  0  0  0  0
   -1.3986    0.9742    0.8011 H   0  0  0  0  0  0  0  0  0  0  0  0
   -1.4477    1.0711   -1.2116 H   0  0  0  0  0  0  0  0  0  0  0  0
   -0.0295   -1.7866    1.3784 H   0  0  0  0  0  0  0  0  0  0  0  0
    0.7056   -0.2374   -0.3882 H   0  0  0  0  0  0  0  0  0  0  0  0
   -0.2146   -0.9813   -0.3799 H   0  0  0  0  0  0  0  0  0  0  0  0
  1  5  1  0  0  0  0
  2  8  1  0  0  0  0
  4  2  1  0  0  0  0
  6  9  1  0  0  0  0
  6 10  1  0  0  0  0
  7  2  1  0  0  0  0
 11  6  1  0  0  0  0
 13  9  1  0  0  0  0
M  RAD  6   2   2   3   2   6   2   9   3  12   2  14   2
M  END
$$$$
