14
butane_opt
C  -3.864566   0.246702  -0.179198
C  -2.678676  -0.551108   0.281057
H  -4.891211  -0.645753  -0.583651
H  -3.399071   0.596425  -0.835344
H  -4.237840   1.023695   0.781796
C  -1.505683   0.170883   0.130170
H  -2.526496  -0.752852  -0.245898
H  -3.123798  -1.643243   1.513705
C  -0.147203  -0.742995  -0.137385
H  -1.470949   1.214037   1.181691
H  -1.628946   0.835908  -0.719045
H   0.128985  -0.876853   0.401947
H   0.880556  -0.030930   0.059256
H  -0.400003  -1.716591  -1.243009
