14
butane_opt
C  -3.953235   0.307339  -0.190772
C  -2.609731  -0.668147   0.266834
H  -4.824628  -0.228032  -0.338203
H  -3.686774   0.869210  -1.195133
H  -4.142029   1.158532   0.686975
C  -1.410362   0.094811   0.250912
H  -2.505617  -1.316281  -0.601620
H  -2.970162  -1.113553   1.223290
C  -0.212646  -0.645627  -0.139653
H  -1.347034   0.741020   1.106464
H  -1.637236   0.719132  -0.620896
H  -0.028264  -1.244790   0.644266
H   1.009985   0.218594  -0.740510
H  -0.698111  -1.287505  -0.961166
