butane_opt
 OpenBabel08242015393D

 14 13  0  0  0  0  0  0  0  0999 V2000
   -4.0691    0.3206    0.1303 C   0  0  0  0  0  0  0  0  0  0  0  0
   -2.6518   -0.7047   -0.0700 C   0  0  0  0  0  0  0  0  0  0  0  0
   -4.8237   -0.0994    0.5015 H   0  0  0  0  0  0  0  0  0  0  0  0
   -4.1206    0.9898   -0.7480 H   0  0  0  0  0  0  0  0  0  0  0  0
   -4.1033    0.8217    0.9182 H   0  0  0  0  0  0  0  0  0  0  0  0
   -1.3687    0.1613   -0.1631 C   0  0  0  0  0  0  0  0  0  0  0  0
   -3.0153   -1.2885   -0.9469 H   0  0  0  0  0  0  0  0  0  0  0  0
   -2.4941   -1.2646    0.6793 H   0  0  0  0  0  0  0  0  0  0  0  0
   -0.0990   -0.6355    0.1687 C   0  0  0  0  0  0  0  0  0  0  0  0
   -1.3949    0.7897    0.6876 H   0  0  0  0  0  0  0  0  0  0  0  0
   -1.3324    0.5928   -1.0635 H   0  0  0  0  0  0  0  0  0  0  0  0
   -0.5672   -1.1252    1.0024 H   0  0  0  0  0  0  0  0  0  0  0  0
    1.0427    0.0223    0.5440 H   0  0  0  0  0  0  0  0  0  0  0  0
    0.0026   -1.5650   -0.9410 H   0  0  0  0  0  0  0  0  0  0  0  0
  1  3  1  0  0  0  0
  1  5  1  0  0  0  0
  2  1  1  0  0  0  0
  2  8  1  0  0  0  0
  4  1  1  0  0  0  0
  6  2  1  0  0  0  0
  6  9  1  0  0  0  0
  6 10  1  0  0  0  0
  7  2  1  0  0  0  0
  9 13  1  0  0  0  0
  9 12  1  0  0  0  0
 11  6  1  0  0  0  0
 14  9  1  0  0  0  0
M  END
$$$$
