butane_opt
 OpenBabel08242015393D

 14 13  0  0  0  0  0  0  0  0999 V2000
   -4.0825    0.3160    0.0977 C   0  0  0  0  0  0  0  0  0  0  0  0
   -2.6587   -0.6771   -0.0314 C   0  0  0  0  0  0  0  0  0  0  0  0
   -4.8932   -0.1701    0.1984 H   0  0  0  0  0  0  0  0  0  0  0  0
   -4.2376    0.6556   -0.6833 H   0  0  0  0  0  0  0  0  0  0  0  0
   -3.7938    1.2441    1.1432 H   0  0  0  0  0  0  0  0  0  0  0  0
   -1.3660    0.1261   -0.1568 C   0  0  0  0  0  0  0  0  0  0  0  0
   -2.5843   -1.2349   -0.7189 H   0  0  0  0  0  0  0  0  0  0  0  0
   -2.5766   -1.5130    0.8756 H   0  0  0  0  0  0  0  0  0  0  0  0
   -0.1403   -0.6500    0.1200 C   0  0  0  0  0  0  0  0  0  0  0  0
   -1.4145    0.7934    0.7329 H   0  0  0  0  0  0  0  0  0  0  0  0
   -1.0137    0.8804   -1.2149 H   0  0  0  0  0  0  0  0  0  0  0  0
   -0.4879   -1.0022    0.7734 H   0  0  0  0  0  0  0  0  0  0  0  0
    0.9031    0.0075    0.7498 H   0  0  0  0  0  0  0  0  0  0  0  0
    0.0203   -1.4814   -0.7613 H   0  0  0  0  0  0  0  0  0  0  0  0
  1  3  1  0  0  0  0
  1  5  1  0  0  0  0
  2  1  1  0  0  0  0
  2  8  1  0  0  0  0
  4  1  1  0  0  0  0
  6  2  1  0  0  0  0
  6  9  1  0  0  0  0
  6 10  1  0  0  0  0
  7  2  1  0  0  0  0
  9 13  1  0  0  0  0
  9 12  1  0  0  0  0
 11  6  1  0  0  0  0
 14  9  1  0  0  0  0
M  END
$$$$
