14
butane_opt
C  -3.874488   0.175307   0.171209
C  -2.680678  -0.535472  -0.097858
H  -4.707024  -0.397647   0.129789
H  -3.952368   0.527942  -0.627879
H  -3.846369   1.181896   1.143907
C  -1.473465   0.291151  -0.206904
H  -2.838524  -1.047085  -0.769379
H  -2.786696  -1.329621   0.971959
C  -0.190136  -0.773904   0.189504
H  -1.636928   0.667224   0.440591
H  -1.276518   0.878529  -1.197024
H  -0.331949  -0.960548   0.901749
H   0.720059  -0.158767   0.675289
H   0.275894  -1.725516  -0.901239
