14
butane_opt
C  -4.055018   0.337468   0.090320
C  -2.664564  -0.765402  -0.049197
H  -4.745207  -0.110461   0.294675
H  -4.271483   1.000344  -0.825404
H  -3.727058   1.038692   0.982955
C  -1.378711   0.159254  -0.114373
H  -2.679181  -1.372250  -0.782896
H  -2.476411  -1.358690   0.896103
C  -0.154073  -0.608234   0.124621
H  -1.617249   0.752182   0.762965
H  -0.934321   0.644520  -1.029852
H  -0.213527  -0.901302   0.790397
H   0.640656  -0.173201   0.327017
H  -0.016207  -1.418784  -0.664057
