14
butane_opt
C  -3.816973   0.255659   0.083106
C  -2.757439  -0.562433   0.011544
H  -4.882123  -0.686837  -0.789390
H  -3.619114   0.119894  -0.225091
H  -3.947307   1.282822   1.220196
C  -1.435229   0.284793  -0.086193
H  -2.692746  -1.111777  -0.583881
H  -2.650930  -1.349221   1.029749
C  -0.219634  -0.752699   0.077358
H  -1.739642   0.778452   0.565758
H  -1.197320   1.034524  -1.136074
H  -0.061198  -1.584005   1.098461
H   0.540271  -0.274789   0.027103
H  -0.012806  -1.439348  -0.774227
