butane_opt
 OpenBabel08242015393D

 14  9  0  0  0  0  0  0  0  0999 V2000
   -3.8935    0.2710    0.1009 C   0  0  0  0  0 15  0  0  0  0  0  0
   -2.6742   -0.5778   -0.0168 C   0  0  0  0  0  0  0  0  0  0  0  0
   -5.2121   -0.6660   -0.4452 H   0  0  0  0  0  0  0  0  0  0  0  0
   -3.5998    0.0153   -0.1297 H   0  0  0  0  0  0  0  0  0  0  0  0
   -4.0604    1.7576    1.4768 H   0  0  0  0  0  0  0  0  0  0  0  0
   -1.4398    0.1867   -0.1875 C   0  0  0  0  0  0  0  0  0  0  0  0
   -2.6791   -1.3684   -0.8313 H   0  0  0  0  0  0  0  0  0  0  0  0
   -2.6284   -1.1915    0.9039 H   0  0  0  0  0  0  0  0  0  0  0  0
   -0.1707   -0.6876    0.1204 C   0  0  0  0  0  0  0  0  0  0  0  0
   -1.6356    0.7459    0.5216 H   0  0  0  0  0  0  0  0  0  0  0  0
   -1.4931    0.8056   -1.0616 H   0  0  0  0  0  0  0  0  0  0  0  0
   -0.3753   -1.7915    1.3382 H   0  0  0  0  0  0  0  0  0  0  0  0
    0.7221   -0.1494    0.0315 H   0  0  0  0  0  0  0  0  0  0  0  0
    0.0938   -0.9835   -0.4308 H   0  0  0  0  0  0  0  0  0  0  0  0
  2  8  1  0  0  0  0
  4  2  1  0  0  0  0
  6  2  1  0  0  0  0
  6  9  1  0  0  0  0
  6 10  1  0  0  0  0
  7  2  1  0  0  0  0
 11  6  1  0  0  0  0
 13  9  1  0  0  0  0
 14  9  1  0  0  0  0
M  RAD  4   3   2   5   2   9   2  12   2
M  END
$$$$
