14
butane_opt
C  -3.982165   0.320210   0.040599
C  -2.633608  -0.676947  -0.019583
H  -4.776401  -0.184998  -0.138070
H  -4.030507   0.774097  -0.638569
H  -4.130380   1.228718   1.118218
C  -1.364229   0.106784   0.012380
H  -2.510400  -1.600832  -1.025796
H  -2.728160  -1.310350   0.901036
C  -0.204335  -0.661536   0.008573
H  -1.553894   0.868253   0.904884
H  -1.509355   0.764979  -0.691040
H  -0.170749  -1.830861   1.249764
H   0.954002   0.333941  -0.342285
H  -0.384934  -0.514849  -0.300145
