butane_opt
 OpenBabel08242015393D

 14 12  0  0  0  0  0  0  0  0999 V2000
   -3.9004    0.2016   -0.1633 C   0  0  0  0  0  0  0  0  0  0  0  0
   -2.6809   -0.5394    0.1720 C   0  0  0  0  0  0  0  0  0  0  0  0
   -4.8371   -0.4450   -0.1661 H   0  0  0  0  0  0  0  0  0  0  0  0
   -3.6077    0.8099   -1.0505 H   0  0  0  0  0  0  0  0  0  0  0  0
   -3.7710    0.6467    0.6399 H   0  0  0  0  0  0  0  0  0  0  0  0
   -1.4891    0.2287    0.2702 C   0  0  0  0  0  0  0  0  0  0  0  0
   -2.5944   -1.0728   -0.5923 H   0  0  0  0  0  0  0  0  0  0  0  0
   -2.9620   -1.0877    0.9462 H   0  0  0  0  0  0  0  0  0  0  0  0
   -0.1284   -0.7541   -0.1607 C   0  0  0  0  0  0  0  0  0  0  0  0
   -1.4069    1.2185    1.2826 H   0  0  0  0  0  0  0  0  0  0  0  0
   -1.7532    0.7051   -0.4085 H   0  0  0  0  0  0  0  0  0  0  0  0
    0.1190   -1.8577    0.9749 H   0  0  0  0  0  0  0  0  0  0  0  0
    0.6301   -0.1182   -0.8883 H   0  0  0  0  0  0  0  0  0  0  0  0
   -0.4520   -0.9314   -0.6852 H   0  0  0  0  0  0  0  0  0  0  0  0
  1  2  1  0  0  0  0
  1  5  1  0  0  0  0
  2  6  1  0  0  0  0
  2  8  1  0  0  0  0
  3  1  1  0  0  0  0
  4  1  1  0  0  0  0
  6 10  1  0  0  0  0
  7  2  1  0  0  0  0
  9  6  1  0  0  0  0
 11  6  1  0  0  0  0
 13  9  1  0  0  0  0
 14  9  1  0  0  0  0
M  RAD  2   9   2  12   2
M  END
$$$$
