butane_opt
 OpenBabel08242015393D

 14  9  0  0  0  0  0  0  0  0999 V2000
   -3.9270    0.3236   -0.1113 C   0  0  0  0  0  0  0  0  0  0  0  0
   -2.6559   -0.6989    0.1362 C   0  0  0  0  0  0  0  0  0  0  0  0
   -4.6699   -0.2441    0.4214 H   0  0  0  0  0  0  0  0  0  0  0  0
   -4.2293    1.6029   -1.3962 H   0  0  0  0  0  0  0  0  0  0  0  0
   -3.8838    0.3379    0.3074 H   0  0  0  0  0  0  0  0  0  0  0  0
   -1.4110    0.0799    0.1857 C   0  0  0  0  0  0  0  0  0  0  0  0
   -2.4548   -1.0875   -0.6248 H   0  0  0  0  0  0  0  0  0  0  0  0
   -2.4096   -1.5781    1.2025 H   0  0  0  0  0  0  0  0  0  0  0  0
   -0.2720   -0.6151   -0.1107 C   0  0  0  0  0  0  0  0  0  0  0  0
   -1.1805    1.1666    1.3418 H   0  0  0  0  0  0  0  0  0  0  0  0
   -1.4548    0.5878   -0.5834 H   0  0  0  0  0  0  0  0  0  0  0  0
   -0.2283   -0.8131    0.4237 H   0  0  0  0  0  0  0  0  0  0  0  0
    0.6590    0.0381    0.2145 H   0  0  0  0  0  0  0  0  0  0  0  0
   -0.0121   -1.5405   -1.1945 H   0  0  0  0  0  0  0  0  0  0  0  0
  1  2  1  0  0  0  0
  1  3  1  0  0  0  0
  2  6  1  0  0  0  0
  2  8  1  0  0  0  0
  7  2  1  0  0  0  0
  9  6  1  0  0  0  0
  9 13  1  0  0  0  0
 11  6  1  0  0  0  0
 14  9  1  0  0  0  0
M  RAD  7   1   3   4   2   5   2   6   2   9   2  10   2  12   2
M  END
$$$$
