butane_opt
 OpenBabel08242015393D

 14 12  0  0  0  0  0  0  0  0999 V2000
   -3.8994    0.1938    0.2192 C   0  0  0  0  0  0  0  0  0  0  0  0
   -2.6975   -0.5020   -0.2227 C   0  0  0  0  0  0  0  0  0  0  0  0
   -4.7437   -0.4700    0.7581 H   0  0  0  0  0  0  0  0  0  0  0  0
   -4.0287    1.0932   -1.0410 H   0  0  0  0  0  0  0  0  0  0  0  0
   -3.4309    0.3191    0.7608 H   0  0  0  0  0  0  0  0  0  0  0  0
   -1.4867    0.1873   -0.1209 C   0  0  0  0  0  0  0  0  0  0  0  0
   -3.1197   -1.1689   -1.1581 H   0  0  0  0  0  0  0  0  0  0  0  0
   -2.5875   -0.8702    0.6367 H   0  0  0  0  0  0  0  0  0  0  0  0
   -0.1196   -0.7430    0.1893 C   0  0  0  0  0  0  0  0  0  0  0  0
   -1.7083    1.0664    0.8601 H   0  0  0  0  0  0  0  0  0  0  0  0
   -1.5018    0.8106   -1.0009 H   0  0  0  0  0  0  0  0  0  0  0  0
   -0.4225   -1.3673    1.2314 H   0  0  0  0  0  0  0  0  0  0  0  0
    0.7436   -0.2543    0.1091 H   0  0  0  0  0  0  0  0  0  0  0  0
    0.2119   -1.2720   -0.5668 H   0  0  0  0  0  0  0  0  0  0  0  0
  1  3  1  0  0  0  0
  1  5  1  0  0  0  0
  2  6  1  0  0  0  0
  2  1  1  0  0  0  0
  2  8  1  0  0  0  0
  6  9  1  0  0  0  0
  6 10  1  0  0  0  0
  7  2  1  0  0  0  0
  9 12  1  0  0  0  0
 11  6  1  0  0  0  0
 13  9  1  0  0  0  0
 14  9  1  0  0  0  0
M  RAD  2   1   2   4   2
M  END
$$$$
