14
butane_opt
C  -4.018483   0.327888  -0.086731
C  -2.663550  -0.709476   0.128118
H  -4.954261  -0.289817   0.012493
H  -3.880610   0.985147  -1.002256
H  -4.439026   0.902070   0.658777
C  -1.319485   0.189979   0.209264
H  -2.650758  -1.618088  -0.978996
H  -2.943096  -1.138720   0.859278
C  -0.170074  -0.687149  -0.091706
H  -1.138287   1.053708   1.067867
H  -1.290034   0.760421  -0.622363
H   0.170455  -1.733748   1.110663
H   0.609367  -0.187304  -0.804976
H  -0.420027  -0.678745  -0.685064
