butane_opt
 OpenBabel08242015393D

 14 11  0  0  0  0  0  0  0  0999 V2000
   -3.9578    0.2054    0.1240 C   0  0  0  0  0  0  0  0  0  0  0  0
   -2.7123   -0.5704   -0.1155 C   0  0  0  0  0  0  0  0  0  0  0  0
   -4.6417   -0.1024    0.1004 H   0  0  0  0  0  0  0  0  0  0  0  0
   -4.0535    0.4362   -0.6436 H   0  0  0  0  0  0  0  0  0  0  0  0
   -3.9412    1.3831    1.2830 H   0  0  0  0  0  0  0  0  0  0  0  0
   -1.4056    0.2233   -0.0859 C   0  0  0  0  0  0  0  0  0  0  0  0
   -2.8010   -1.4284   -1.0406 H   0  0  0  0  0  0  0  0  0  0  0  0
   -2.8847   -1.2153    0.8768 H   0  0  0  0  0  0  0  0  0  0  0  0
   -0.1390   -0.7454    0.1258 C   0  0  0  0  0  0  0  0  0  0  0  0
   -1.3829    0.8363    0.6050 H   0  0  0  0  0  0  0  0  0  0  0  0
   -1.2170    0.9319   -0.9590 H   0  0  0  0  0  0  0  0  0  0  0  0
   -0.2043   -1.6844    1.3081 H   0  0  0  0  0  0  0  0  0  0  0  0
    0.6692   -0.1292   -0.2075 H   0  0  0  0  0  0  0  0  0  0  0  0
    0.0355   -0.8425   -0.3652 H   0  0  0  0  0  0  0  0  0  0  0  0
  2  6  1  0  0  0  0
  2  1  1  0  0  0  0
  2  8  1  0  0  0  0
  3  1  1  0  0  0  0
  4  1  1  0  0  0  0
  6  9  1  0  0  0  0
  6 10  1  0  0  0  0
  7  2  1  0  0  0  0
  9 12  1  0  0  0  0
 11  6  1  0  0  0  0
 13  9  1  0  0  0  0
M  RAD  4   1   2   5   2   9   2  14   2
M  END
$$$$
