butane_opt
 OpenBabel08242015393D

 14 11  0  0  0  0  0  0  0  0999 V2000
   -3.8967    0.2631    0.0271 C   0  0  0  0  0  0  0  0  0  0  0  0
   -2.7154   -0.6235    0.0295 C   0  0  0  0  0  0  0  0  0  0  0  0
   -4.8062   -0.3563   -0.5892 H   0  0  0  0  0  0  0  0  0  0  0  0
   -3.9088    0.3266   -0.4997 H   0  0  0  0  0  0  0  0  0  0  0  0
   -4.3302    1.3195    1.0938 H   0  0  0  0  0  0  0  0  0  0  0  0
   -1.4286    0.2141   -0.0144 C   0  0  0  0  0  0  0  0  0  0  0  0
   -2.8606   -1.1083   -0.6815 H   0  0  0  0  0  0  0  0  0  0  0  0
   -2.8320   -1.5061    1.1279 H   0  0  0  0  0  0  0  0  0  0  0  0
   -0.1342   -0.6761    0.0419 C   0  0  0  0  0  0  0  0  0  0  0  0
   -1.5026    0.7734    0.9276 H   0  0  0  0  0  0  0  0  0  0  0  0
   -1.5017    1.0140   -0.9952 H   0  0  0  0  0  0  0  0  0  0  0  0
    0.2197   -1.4946    1.0998 H   0  0  0  0  0  0  0  0  0  0  0  0
    0.7674   -0.2910   -0.1797 H   0  0  0  0  0  0  0  0  0  0  0  0
   -0.1860   -1.2889   -0.8186 H   0  0  0  0  0  0  0  0  0  0  0  0
  1  2  1  0  0  0  0
  2  8  1  0  0  0  0
  3  1  1  0  0  0  0
  6  2  1  0  0  0  0
  6  9  1  0  0  0  0
  6 10  1  0  0  0  0
  7  2  1  0  0  0  0
  9 12  1  0  0  0  0
 11  6  1  0  0  0  0
 13  9  1  0  0  0  0
 14  9  1  0  0  0  0
M  RAD  3   1   3   4   2   5   2
M  END
$$$$
