14
butane_opt
C  -3.980458   0.245057  -0.174962
C  -2.718872  -0.642376   0.262023
H  -4.784218  -0.337821  -0.470934
H  -3.956407   0.561876  -0.957017
H  -4.192773   1.262651   0.899363
C  -1.422514   0.293722   0.159771
H  -2.527534  -1.055927  -0.377056
H  -3.065729  -1.612291   1.386845
C  -0.097566  -0.744351  -0.146175
H  -1.321057   1.009331   0.854541
H  -1.424175   0.677416  -0.579442
H   0.153787  -1.201653   0.692563
H   0.881838  -0.108867  -0.031464
H  -0.141631  -1.484565  -1.152603
