butane_opt
 OpenBabel08242015393D

 14 13  0  0  0  0  0  0  0  0999 V2000
   -4.0550    0.3375    0.0903 C   0  0  0  0  0  0  0  0  0  0  0  0
   -2.6646   -0.7654   -0.0492 C   0  0  0  0  0  0  0  0  0  0  0  0
   -4.7452   -0.1105    0.2947 H   0  0  0  0  0  0  0  0  0  0  0  0
   -4.2715    1.0003   -0.8254 H   0  0  0  0  0  0  0  0  0  0  0  0
   -3.7271    1.0387    0.9830 H   0  0  0  0  0  0  0  0  0  0  0  0
   -1.3787    0.1593   -0.1144 C   0  0  0  0  0  0  0  0  0  0  0  0
   -2.6792   -1.3722   -0.7829 H   0  0  0  0  0  0  0  0  0  0  0  0
   -2.4764   -1.3587    0.8961 H   0  0  0  0  0  0  0  0  0  0  0  0
   -0.1541   -0.6082    0.1246 C   0  0  0  0  0  0  0  0  0  0  0  0
   -1.6172    0.7522    0.7630 H   0  0  0  0  0  0  0  0  0  0  0  0
   -0.9343    0.6445   -1.0299 H   0  0  0  0  0  0  0  0  0  0  0  0
   -0.2135   -0.9013    0.7904 H   0  0  0  0  0  0  0  0  0  0  0  0
    0.6407   -0.1732    0.3270 H   0  0  0  0  0  0  0  0  0  0  0  0
   -0.0162   -1.4188   -0.6641 H   0  0  0  0  0  0  0  0  0  0  0  0
  1  3  1  0  0  0  0
  1  5  1  0  0  0  0
  2  1  1  0  0  0  0
  2  8  1  0  0  0  0
  4  1  1  0  0  0  0
  6  2  1  0  0  0  0
  6  9  1  0  0  0  0
  6 10  1  0  0  0  0
  7  2  1  0  0  0  0
  9 13  1  0  0  0  0
  9 12  1  0  0  0  0
 11  6  1  0  0  0  0
 14  9  1  0  0  0  0
M  END
$$$$
