14
butane_opt
C  -3.849351   0.258624   0.106286
C  -2.712684  -0.569448  -0.148502
H  -4.957052  -0.503462   0.798960
H  -4.323568   1.187206  -0.877927
H  -3.337444   0.388249   0.867256
C  -1.490816   0.211896  -0.086269
H  -2.779807  -1.105170  -1.014562
H  -2.674549  -1.141126   0.675711
C  -0.165998  -0.743867   0.171928
H  -1.464765   0.877394   0.809638
H  -1.346093   0.674444  -0.881764
H  -0.119951  -1.301918   1.061122
H   0.880913   0.092101   0.247779
H  -0.275285  -1.525027  -0.809504
