14
butane_opt
C  -3.988544   0.214510  -0.175803
C  -2.676043  -0.549438   0.194418
H  -5.033837  -0.595449  -0.015891
H  -3.950035   1.066519  -1.235817
H  -4.136572   0.649500   0.421307
C  -1.405866   0.264630   0.241678
H  -2.524180  -1.222145  -0.617374
H  -3.113896  -1.219183   1.300767
C  -0.105835  -0.745705  -0.187291
H  -1.043333   1.305950   1.388048
H  -1.727134   0.314640  -0.200596
H   0.461753  -1.738802   1.011084
H   0.631302  -0.220720  -0.587924
H  -0.415907  -1.045806  -0.847285
