14
butane_opt
C  -3.946506   0.256659   0.011167
C  -2.713160  -0.600737   0.037573
H  -4.878120  -0.331061  -0.005384
H  -3.940052   0.829313  -0.854916
H  -3.934644   0.965498   0.882227
C  -1.406838   0.186368   0.030989
H  -2.702705  -1.303212  -0.804055
H  -2.698402  -1.211772   0.911244
C  -0.152513  -0.696251   0.028233
H  -1.376538   0.830228   0.854866
H  -1.386693   0.833580  -0.875838
H  -0.096958  -1.408840   0.986181
H   0.759121  -0.120497  -0.111197
H  -0.143951  -1.309243  -0.831894
