butane_opt
 OpenBabel08242015393D

 14 13  0  0  0  0  0  0  0  0999 V2000
   -3.8494    0.2586    0.1063 C   0  0  0  0  0  0  0  0  0  0  0  0
   -2.7127   -0.5694   -0.1485 C   0  0  0  0  0  0  0  0  0  0  0  0
   -4.9571   -0.5035    0.7990 H   0  0  0  0  0  0  0  0  0  0  0  0
   -4.3236    1.1872   -0.8779 H   0  0  0  0  0  0  0  0  0  0  0  0
   -3.3374    0.3882    0.8673 H   0  0  0  0  0  0  0  0  0  0  0  0
   -1.4908    0.2119   -0.0863 C   0  0  0  0  0  0  0  0  0  0  0  0
   -2.7798   -1.1052   -1.0146 H   0  0  0  0  0  0  0  0  0  0  0  0
   -2.6745   -1.1411    0.6757 H   0  0  0  0  0  0  0  0  0  0  0  0
   -0.1660   -0.7439    0.1719 C   0  0  0  0  0  0  0  0  0  0  0  0
   -1.4648    0.8774    0.8096 H   0  0  0  0  0  0  0  0  0  0  0  0
   -1.3461    0.6744   -0.8818 H   0  0  0  0  0  0  0  0  0  0  0  0
   -0.1200   -1.3019    1.0611 H   0  0  0  0  0  0  0  0  0  0  0  0
    0.8809    0.0921    0.2478 H   0  0  0  0  0  0  0  0  0  0  0  0
   -0.2753   -1.5250   -0.8095 H   0  0  0  0  0  0  0  0  0  0  0  0
  1  3  1  0  0  0  0
  1  5  1  0  0  0  0
  2  6  1  0  0  0  0
  2  1  1  0  0  0  0
  2  8  1  0  0  0  0
  4  1  1  0  0  0  0
  6  9  1  0  0  0  0
  6 10  1  0  0  0  0
  7  2  1  0  0  0  0
  9 13  1  0  0  0  0
  9 12  1  0  0  0  0
 11  6  1  0  0  0  0
 14  9  1  0  0  0  0
M  END
$$$$
