butane_opt
 OpenBabel08242015393D

 14 12  0  0  0  0  0  0  0  0999 V2000
   -3.9331    0.3298    0.0350 C   0  0  0  0  0  0  0  0  0  0  0  0
   -2.6470   -0.6734    0.0764 C   0  0  0  0  0  0  0  0  0  0  0  0
   -4.9247   -0.4244   -0.6270 H   0  0  0  0  0  0  0  0  0  0  0  0
   -3.7191    0.6089   -0.7152 H   0  0  0  0  0  0  0  0  0  0  0  0
   -4.4467    1.4181    1.1365 H   0  0  0  0  0  0  0  0  0  0  0  0
   -1.3291    0.1664    0.0323 C   0  0  0  0  0  0  0  0  0  0  0  0
   -2.5405   -1.5171   -0.8431 H   0  0  0  0  0  0  0  0  0  0  0  0
   -2.7888   -1.4332    0.9087 H   0  0  0  0  0  0  0  0  0  0  0  0
   -0.2578   -0.6633    0.0065 C   0  0  0  0  0  0  0  0  0  0  0  0
   -1.4820    0.6274    0.7077 H   0  0  0  0  0  0  0  0  0  0  0  0
   -1.3129    0.9936   -0.9947 H   0  0  0  0  0  0  0  0  0  0  0  0
    0.0611   -1.5147    1.1892 H   0  0  0  0  0  0  0  0  0  0  0  0
    0.7318    0.0028   -0.2451 H   0  0  0  0  0  0  0  0  0  0  0  0
   -0.5918   -1.1362   -0.7869 H   0  0  0  0  0  0  0  0  0  0  0  0
  1  2  1  0  0  0  0
  2  8  1  0  0  0  0
  3  1  1  0  0  0  0
  4  1  1  0  0  0  0
  6  2  1  0  0  0  0
  6 10  1  0  0  0  0
  7  2  1  0  0  0  0
  9  6  1  0  0  0  0
  9 12  1  0  0  0  0
 11  6  1  0  0  0  0
 13  9  1  0  0  0  0
 14  9  1  0  0  0  0
M  RAD  2   1   2   5   2
M  END
$$$$
