butane_opt
 OpenBabel08242015393D

 14 10  0  0  0  0  0  0  0  0999 V2000
   -3.9032    0.3174   -0.1120 C   0  0  0  0  0  0  0  0  0  0  0  0
   -2.6749   -0.6736    0.2336 C   0  0  0  0  0  0  0  0  0  0  0  0
   -4.9185   -0.3265    0.0811 H   0  0  0  0  0  0  0  0  0  0  0  0
   -4.1521    1.0188   -1.2042 H   0  0  0  0  0  0  0  0  0  0  0  0
   -3.9122    0.8438    0.6867 H   0  0  0  0  0  0  0  0  0  0  0  0
   -1.4266    0.1578    0.0843 C   0  0  0  0  0  0  0  0  0  0  0  0
   -2.3305   -1.2677   -0.6847 H   0  0  0  0  0  0  0  0  0  0  0  0
   -2.6210   -1.5683    1.2785 H   0  0  0  0  0  0  0  0  0  0  0  0
   -0.2070   -0.6481   -0.0753 C   0  0  0  0  0  1  0  0  0  0  0  0
   -1.3738    0.6565    0.8127 H   0  0  0  0  0  0  0  0  0  0  0  0
   -1.4159    0.8143   -0.8376 H   0  0  0  0  0  0  0  0  0  0  0  0
   -0.3111   -0.5716    0.4086 H   0  0  0  0  0  0  0  0  0  0  0  0
    0.6983    0.0682    0.6846 H   0  0  0  0  0  0  0  0  0  0  0  0
   -0.1369   -1.9910   -1.4227 H   0  0  0  0  0  0  0  0  0  0  0  0
  1  3  1  0  0  0  0
  1  2  1  0  0  0  0
  1  5  1  0  0  0  0
  2  8  1  0  0  0  0
  4  1  1  0  0  0  0
  6 12  1  0  0  0  0
  6 10  1  0  0  0  0
  7  2  1  0  0  0  0
  9 13  1  0  0  0  0
 11  6  1  0  0  0  0
M  RAD  3   2   2   6   2  14   2
M  END
$$$$
