14
butane_opt
C  -3.913508   0.230033  -0.140266
C  -2.668699  -0.545423   0.296959
H  -4.987947  -0.584269   0.081721
H  -3.682175   1.080425  -1.246924
H  -3.880358   0.707585   0.501551
C  -1.417390   0.175307   0.102902
H  -2.802516  -1.043972  -0.555431
H  -2.797216  -1.108348   1.167123
C  -0.231716  -0.744489  -0.110746
H  -1.025264   0.987457   0.958043
H  -1.641311   0.971653  -0.913614
H  -0.414105  -0.670085   0.343519
H   0.760622  -0.030348   0.694340
H   0.233234  -2.235296  -1.456029
