14
butane_opt
C  -3.940421   0.229243  -0.055798
C  -2.730481  -0.612138   0.107428
H  -4.770419  -0.417539   0.573607
H  -4.050978   1.491357  -1.462912
H  -3.961215  -0.023461   0.248082
C  -1.389539   0.314346   0.157645
H  -2.881666  -1.058481  -0.680560
H  -3.106179  -1.108949   1.049602
C  -0.113009  -0.793908  -0.062093
H  -1.385431   1.135730   1.103160
H  -1.485338   0.858868  -0.693812
H   0.059501  -0.894759   0.301710
H   0.689137  -0.265091   0.338716
H  -0.018533  -1.858224  -1.211563
