butane_opt
 OpenBabel08242015393D

 14 10  0  0  0  0  0  0  0  0999 V2000
   -3.9967    0.3032    0.1104 C   0  0  0  0  0  0  0  0  0  0  0  0
   -2.6963   -0.6984   -0.1117 C   0  0  0  0  0  0  0  0  0  0  0  0
   -4.6260    0.1132    0.2836 H   0  0  0  0  0  0  0  0  0  0  0  0
   -4.1850    0.7579   -0.6607 H   0  0  0  0  0  0  0  0  0  0  0  0
   -4.2127    1.1102    0.9512 H   0  0  0  0  0  0  0  0  0  0  0  0
   -1.3156    0.1263   -0.0831 C   0  0  0  0  0  0  0  0  0  0  0  0
   -2.8766   -1.3522   -1.0374 H   0  0  0  0  0  0  0  0  0  0  0  0
   -2.5200   -1.2540    0.5970 H   0  0  0  0  0  0  0  0  0  0  0  0
   -0.1708   -0.6295    0.1479 C   0  0  0  0  0  0  0  0  0  0  0  0
   -1.4019    1.0434    0.8978 H   0  0  0  0  0  0  0  0  0  0  0  0
   -1.3214    0.5336   -0.7953 H   0  0  0  0  0  0  0  0  0  0  0  0
   -0.0860   -1.7094    1.4531 H   0  0  0  0  0  0  0  0  0  0  0  0
    0.7916   -0.0976   -0.4941 H   0  0  0  0  0  0  0  0  0  0  0  0
   -0.4593   -0.8023   -0.4425 H   0  0  0  0  0  0  0  0  0  0  0  0
  1  3  1  0  0  0  0
  1  5  1  0  0  0  0
  2  1  1  0  0  0  0
  2  8  1  0  0  0  0
  4  1  1  0  0  0  0
  6 10  1  0  0  0  0
  7  2  1  0  0  0  0
 11  6  1  0  0  0  0
 13  9  1  0  0  0  0
 14  9  1  0  0  0  0
M  RAD  4   2   2   6   3   9   3  12   2
M  END
$$$$
