14
butane_opt
C  -3.965553   0.237085   0.081366
C  -2.737330  -0.623722  -0.006094
H  -4.764828  -0.467814  -0.329326
H  -3.758373   0.352073  -0.446851
H  -3.834432   1.334922   1.305736
C  -1.407914   0.310571  -0.107983
H  -2.727558  -1.110133  -0.837018
H  -3.096908  -1.297156   0.890984
C  -0.120933  -0.741064   0.104970
H  -1.500349   0.932152   0.598433
H  -1.333601   0.993622  -1.001802
H   0.098241  -1.763353   1.166039
H   0.660764  -0.280257   0.085478
H  -0.003903  -1.381295  -0.754086
