butane_opt
 OpenBabel08242015393D

 14 10  0  0  0  0  0  0  0  0999 V2000
   -4.0191    0.3571    0.1820 C   0  0  0  0  0  1  0  0  0  0  0  0
   -2.6842   -0.6674   -0.0484 C   0  0  0  0  0  0  0  0  0  0  0  0
   -4.9018   -0.3536   -0.6286 H   0  0  0  0  0  0  0  0  0  0  0  0
   -3.7582    0.1929   -0.2945 H   0  0  0  0  0  0  0  0  0  0  0  0
   -4.6435    1.6347    1.4181 H   0  0  0  0  0  0  0  0  0  0  0  0
   -1.2899    0.0894   -0.1793 C   0  0  0  0  0  0  0  0  0  0  0  0
   -2.8230   -1.5131   -1.1272 H   0  0  0  0  0  0  0  0  0  0  0  0
   -2.5536   -1.1386    0.7349 H   0  0  0  0  0  0  0  0  0  0  0  0
   -0.1897   -0.6199    0.1756 C   0  0  0  0  0  0  0  0  0  0  0  0
   -1.2756    0.5667    0.4638 H   0  0  0  0  0  0  0  0  0  0  0  0
   -1.3183    0.9986   -1.3506 H   0  0  0  0  0  0  0  0  0  0  0  0
   -0.2592   -1.7280    1.4005 H   0  0  0  0  0  0  0  0  0  0  0  0
    0.8156    0.1632   -0.1651 H   0  0  0  0  0  0  0  0  0  0  0  0
   -0.1307   -1.2033   -0.4395 H   0  0  0  0  0  0  0  0  0  0  0  0
  2  8  1  0  0  0  0
  3  1  1  0  0  0  0
  4  2  1  0  0  0  0
  6  2  1  0  0  0  0
  6  9  1  0  0  0  0
  6 10  1  0  0  0  0
  7  2  1  0  0  0  0
 11  6  1  0  0  0  0
 13  9  1  0  0  0  0
 14  9  1  0  0  0  0
M  RAD  3   5   2   9   2  12   2
M  END
$$$$
