14
butane_opt
C  -3.944485   0.252441   0.139949
C  -2.713352  -0.602496  -0.078378
H  -5.028619  -0.610148  -0.283807
H  -3.958572   0.327373  -0.549617
H  -3.930423   1.417278   1.352857
C  -1.445731   0.234375  -0.181515
H  -3.005113  -1.137908  -0.858434
H  -2.713659  -1.309103   0.852681
C  -0.060235  -0.732591   0.203863
H  -1.548178   0.854823   0.604690
H  -1.531549   0.986469  -0.990576
H  -0.160126  -1.341311   1.108650
H   0.784636  -0.273291  -0.154440
H   0.069420  -1.245000  -0.617616
