14
butane_opt
C  -3.991038   0.282501   0.161698
C  -2.685104  -0.635707  -0.051855
H  -4.836892  -0.213890   0.079259
H  -4.383634   0.672248  -0.679410
H  -3.745898   1.128378   1.194619
C  -1.437878   0.176261  -0.197529
H  -2.617387  -1.458366  -0.937490
H  -2.796721  -1.205952   0.738560
C  -0.139109  -0.674371   0.193506
H  -1.392136   0.368390   0.338366
H  -1.166097   0.983468  -1.228038
H  -0.310492  -0.944987   0.858101
H   0.837469   0.109067   0.675629
H   0.383349  -1.658252  -0.882427
