butane_opt
 OpenBabel08242015393D

 14 12  0  0  0  0  0  0  0  0999 V2000
   -3.9621    0.2755    0.1971 C   0  0  0  0  0  0  0  0  0  0  0  0
   -2.7509   -0.6451   -0.0582 C   0  0  0  0  0  0  0  0  0  0  0  0
   -5.0407   -0.5867   -0.1531 H   0  0  0  0  0  0  0  0  0  0  0  0
   -4.0583    0.6259   -0.6658 H   0  0  0  0  0  0  0  0  0  0  0  0
   -3.9422    1.0883    1.1577 H   0  0  0  0  0  0  0  0  0  0  0  0
   -1.3867    0.2563   -0.2111 C   0  0  0  0  0  0  0  0  0  0  0  0
   -2.9254   -1.4078   -0.9735 H   0  0  0  0  0  0  0  0  0  0  0  0
   -2.5620   -1.1734    0.8477 H   0  0  0  0  0  0  0  0  0  0  0  0
   -0.1059   -0.7119    0.1613 C   0  0  0  0  0  0  0  0  0  0  0  0
   -1.6694    0.8342    0.5850 H   0  0  0  0  0  0  0  0  0  0  0  0
   -1.2547    1.1942   -1.3595 H   0  0  0  0  0  0  0  0  0  0  0  0
   -0.3704   -1.2475    1.0250 H   0  0  0  0  0  0  0  0  0  0  0  0
    0.6964   -0.2601    0.6608 H   0  0  0  0  0  0  0  0  0  0  0  0
    0.5764   -1.6838   -0.7942 H   0  0  0  0  0  0  0  0  0  0  0  0
  1  5  1  0  0  0  0
  2  1  1  0  0  0  0
  2  8  1  0  0  0  0
  3  1  1  0  0  0  0
  4  1  1  0  0  0  0
  6  2  1  0  0  0  0
  6  9  1  0  0  0  0
  6 10  1  0  0  0  0
  7  2  1  0  0  0  0
  9 13  1  0  0  0  0
  9 12  1  0  0  0  0
 11  6  1  0  0  0  0
M  RAD  2   9   2  14   2
M  END
$$$$
