14
butane_opt
C  -4.019057   0.290395   0.192908
C  -2.700782  -0.724634  -0.159356
H  -4.599241  -0.109888   0.533451
H  -4.321592   1.030109  -0.754794
H  -3.711877   0.883662   1.013324
C  -1.434478   0.227307  -0.198333
H  -2.966465  -1.327908  -1.103734
H  -2.480669  -1.188750   0.626032
C  -0.104122  -0.667757   0.246848
H  -1.455393   0.587096   0.515268
H  -1.133616   0.947096  -1.101261
H  -0.306379  -1.077358   1.044896
H   0.932764   0.086946   0.407731
H   0.066151  -1.759889  -0.788986
