butane_opt
 OpenBabel08242015393D

 14 11  0  0  0  0  0  0  0  0999 V2000
   -3.9678    0.2942   -0.1252 C   0  0  0  0  0  0  0  0  0  0  0  0
   -2.7328   -0.6868    0.1283 C   0  0  0  0  0  0  0  0  0  0  0  0
   -4.8290   -0.0696    0.4593 H   0  0  0  0  0  0  0  0  0  0  0  0
   -4.3938    1.5439   -1.3198 H   0  0  0  0  0  0  0  0  0  0  0  0
   -3.8773    0.4642    0.4499 H   0  0  0  0  0  0  0  0  0  0  0  0
   -1.3294    0.1934    0.2135 C   0  0  0  0  0  0  0  0  0  0  0  0
   -2.6777   -1.3721   -0.6327 H   0  0  0  0  0  0  0  0  0  0  0  0
   -2.8880   -1.3404    1.0476 H   0  0  0  0  0  0  0  0  0  0  0  0
   -0.1048   -0.6649   -0.1102 C   0  0  0  0  0  0  0  0  0  0  0  0
   -1.3369    0.7210    1.0181 H   0  0  0  0  0  0  0  0  0  0  0  0
   -1.5820    0.7181   -0.4991 H   0  0  0  0  0  0  0  0  0  0  0  0
   -0.2939   -1.0500    0.6503 H   0  0  0  0  0  0  0  0  0  0  0  0
    0.7904   -0.1114    0.1129 H   0  0  0  0  0  0  0  0  0  0  0  0
   -0.3109   -1.5809   -1.2183 H   0  0  0  0  0  0  0  0  0  0  0  0
  1  2  1  0  0  0  0
  1  3  1  0  0  0  0
  2  6  1  0  0  0  0
  2  8  1  0  0  0  0
  6 10  1  0  0  0  0
  7  2  1  0  0  0  0
  9 13  1  0  0  0  0
  9  6  1  0  0  0  0
  9 12  1  0  0  0  0
 11  6  1  0  0  0  0
 14  9  1  0  0  0  0
M  RAD  3   1   3   4   2   5   2
M  END
$$$$
