butane_opt
 OpenBabel08242015393D

 14 12  0  0  0  0  0  0  0  0999 V2000
   -3.8845    0.1990   -0.1158 C   0  0  0  0  0  0  0  0  0  0  0  0
   -2.6738   -0.5620    0.2139 C   0  0  0  0  0  0  0  0  0  0  0  0
   -4.9714   -0.4710    0.0077 H   0  0  0  0  0  0  0  0  0  0  0  0
   -3.7488    0.9867   -1.2186 H   0  0  0  0  0  0  0  0  0  0  0  0
   -3.8718    0.9076    0.8407 H   0  0  0  0  0  0  0  0  0  0  0  0
   -1.4919    0.2424    0.0543 C   0  0  0  0  0  0  0  0  0  0  0  0
   -2.6316   -1.1449   -0.5332 H   0  0  0  0  0  0  0  0  0  0  0  0
   -2.6673   -1.4165    1.2333 H   0  0  0  0  0  0  0  0  0  0  0  0
   -0.1762   -0.7020   -0.0672 C   0  0  0  0  0  0  0  0  0  0  0  0
   -1.0281    1.0030    1.1669 H   0  0  0  0  0  0  0  0  0  0  0  0
   -1.6555    0.7159   -0.7286 H   0  0  0  0  0  0  0  0  0  0  0  0
   -0.4141   -1.0003    0.5101 H   0  0  0  0  0  0  0  0  0  0  0  0
    0.5659   -0.4101    0.3357 H   0  0  0  0  0  0  0  0  0  0  0  0
    0.1630   -1.7986   -1.2437 H   0  0  0  0  0  0  0  0  0  0  0  0
  1  3  1  0  0  0  0
  1  2  1  0  0  0  0
  1  5  1  0  0  0  0
  2  8  1  0  0  0  0
  4  1  1  0  0  0  0
  6  2  1  0  0  0  0
  6 10  1  0  0  0  0
  7  2  1  0  0  0  0
  9  6  1  0  0  0  0
  9 13  1  0  0  0  0
  9 12  1  0  0  0  0
 11  6  1  0  0  0  0
M  RAD  2   9   2  14   2
M  END
$$$$
