14
butane_opt
C  -3.832166   0.263423  -0.008107
C  -2.707571  -0.620002   0.120098
H  -4.811368  -0.307884   0.064437
H  -4.065131   1.093693  -1.136102
H  -3.843063   0.587503   0.535895
C  -1.461333   0.256524  -0.002022
H  -2.671800  -1.015133  -0.462670
H  -2.822874  -1.582050   1.150997
C  -0.204918  -0.740963  -0.012345
H  -1.450211   0.841247   0.915286
H  -1.308825   0.691318  -0.723659
H  -0.360097  -0.568244   0.339791
H   0.837035  -0.129662   0.702938
H  -0.042794  -1.976716  -1.239431
