14
butane_opt
C  -3.909934   0.301675   0.108726
C  -2.676993  -0.661022  -0.024860
H  -4.676989  -0.060592   0.169818
H  -4.296344   0.868682  -0.863587
H  -3.961953   0.858779   0.907571
C  -1.416157   0.103487  -0.061926
H  -2.516498  -1.270484  -0.892170
H  -2.508104  -1.320679   0.784151
C  -0.238498  -0.627174   0.122975
H  -1.363806   0.461825   0.434823
H  -1.458544   1.084295  -1.167223
H  -0.445806  -0.812528   0.727392
H   0.949529   0.152500   0.549147
H   0.111521  -1.802867  -0.985438
