14
butane_opt
C  -3.899850   0.212840   0.006162
C  -2.644790  -0.566199   0.016495
H  -4.857685  -0.332826  -0.010456
H  -3.730481   0.659919  -0.863081
H  -4.030918   0.923273   1.006851
C  -1.448829   0.223922   0.072111
H  -2.716516  -1.287343  -0.878137
H  -2.776011  -1.075338   0.914870
C  -0.212674  -0.700349   0.025269
H  -1.582867   0.787595   0.888105
H  -1.107697   1.024578  -0.915159
H   0.145300  -1.722037   1.175773
H   0.486105  -0.202644  -0.427876
H  -0.361027  -1.327165  -0.869116
