14
butane_opt
C  -3.945920   0.275573   0.029939
C  -2.691334  -0.628049   0.008020
H  -4.855470  -0.329210   0.215570
H  -4.039734   0.945135  -0.906317
H  -3.895232   0.902151   0.866821
C  -1.406501   0.178151   0.000314
H  -2.704066  -1.335167  -0.865516
H  -2.651429  -1.283686   0.901085
C  -0.172705  -0.684911   0.052913
H  -1.437291   0.878500   0.863788
H  -1.340388   0.782304  -0.904489
H  -0.142107  -1.289208   0.958498
H   0.774655  -0.056433   0.030713
H  -0.144313  -1.362481  -0.821399
