butane_opt
 OpenBabel08242015403D

 14 11  0  0  0  0  0  0  0  0999 V2000
   -3.9249    0.2915    0.1633 C   0  0  0  0  0  0  0  0  0  0  0  0
   -2.6248   -0.6389   -0.1797 C   0  0  0  0  0  0  0  0  0  0  0  0
   -4.7412   -0.3295    0.2742 H   0  0  0  0  0  0  0  0  0  0  0  0
   -4.2341    0.8006   -0.5556 H   0  0  0  0  0  0  0  0  0  0  0  0
   -3.9904    1.1701    1.2464 H   0  0  0  0  0  0  0  0  0  0  0  0
   -1.3933    0.0837   -0.0967 C   0  0  0  0  0  0  0  0  0  0  0  0
   -2.7014   -1.5320   -1.0679 H   0  0  0  0  0  0  0  0  0  0  0  0
   -2.5200   -1.1188    0.5372 H   0  0  0  0  0  0  0  0  0  0  0  0
   -0.2433   -0.6219    0.1554 C   0  0  0  0  0  0  0  0  0  0  0  0
   -1.6194    1.0071    0.8020 H   0  0  0  0  0  0  0  0  0  0  0  0
   -1.2145    0.8290   -1.1501 H   0  0  0  0  0  0  0  0  0  0  0  0
   -0.4229   -1.8977    1.6128 H   0  0  0  0  0  0  0  0  0  0  0  0
    0.7555   -0.0295   -0.3372 H   0  0  0  0  0  0  0  0  0  0  0  0
   -0.1104   -0.7250   -0.3665 H   0  0  0  0  0  0  0  0  0  0  0  0
  1  3  1  0  0  0  0
  1  5  1  0  0  0  0
  2  6  1  0  0  0  0
  2  1  1  0  0  0  0
  2  8  1  0  0  0  0
  4  1  1  0  0  0  0
  6  9  1  0  0  0  0
  6 10  1  0  0  0  0
  7  2  1  0  0  0  0
 11  6  1  0  0  0  0
 13  9  1  0  0  0  0
M  RAD  3   9   3  12   2  14   2
M  END
$$$$
