butane_opt
 OpenBabel08242015403D

 14 12  0  0  0  0  0  0  0  0999 V2000
   -3.8850    0.1972    0.0984 C   0  0  0  0  0  0  0  0  0  0  0  0
   -2.6920   -0.5186   -0.0305 C   0  0  0  0  0  0  0  0  0  0  0  0
   -5.0857   -0.5418   -0.1913 H   0  0  0  0  0  0  0  0  0  0  0  0
   -3.6798    0.4288   -0.4934 H   0  0  0  0  0  0  0  0  0  0  0  0
   -3.8487    1.4648    1.4283 H   0  0  0  0  0  0  0  0  0  0  0  0
   -1.4528    0.1617   -0.1276 C   0  0  0  0  0  0  0  0  0  0  0  0
   -2.7457   -1.1709   -0.9916 H   0  0  0  0  0  0  0  0  0  0  0  0
   -2.6451   -1.2267    0.9253 H   0  0  0  0  0  0  0  0  0  0  0  0
   -0.1479   -0.6968    0.0905 C   0  0  0  0  0  0  0  0  0  0  0  0
   -1.7228    0.8623    0.6986 H   0  0  0  0  0  0  0  0  0  0  0  0
   -1.5048    0.9186   -1.1283 H   0  0  0  0  0  0  0  0  0  0  0  0
   -0.3852   -1.5899    1.2849 H   0  0  0  0  0  0  0  0  0  0  0  0
    0.6320   -0.3196    0.1766 H   0  0  0  0  0  0  0  0  0  0  0  0
    0.1316   -1.0824   -0.5573 H   0  0  0  0  0  0  0  0  0  0  0  0
  2  1  1  0  0  0  0
  2  8  1  0  0  0  0
  3  1  1  0  0  0  0
  4  1  1  0  0  0  0
  6  2  1  0  0  0  0
  6  9  1  0  0  0  0
  6 10  1  0  0  0  0
  7  2  1  0  0  0  0
  9 13  1  0  0  0  0
  9 12  1  0  0  0  0
 11  6  1  0  0  0  0
 14  9  1  0  0  0  0
M  RAD  2   1   2   5   2
M  END
$$$$
