butane_opt
 OpenBabel08242015393D

 14 10  0  0  0  0  0  0  0  0999 V2000
   -4.0187    0.2229    0.0770 C   0  0  0  0  0  0  0  0  0  0  0  0
   -2.6931   -0.5852    0.0401 C   0  0  0  0  0  0  0  0  0  0  0  0
   -4.7761   -0.3750   -0.5872 H   0  0  0  0  0  0  0  0  0  0  0  0
   -3.6819    0.3688   -0.5120 H   0  0  0  0  0  0  0  0  0  0  0  0
   -4.1464    1.3516    1.2315 H   0  0  0  0  0  0  0  0  0  0  0  0
   -1.3692    0.2178   -0.0989 C   0  0  0  0  0  0  0  0  0  0  0  0
   -2.8872   -1.2069   -0.7711 H   0  0  0  0  0  0  0  0  0  0  0  0
   -2.9303   -1.2224    0.9936 H   0  0  0  0  0  0  0  0  0  0  0  0
   -0.1318   -0.7283    0.0456 C   0  0  0  0  0  0  0  0  0  0  0  0
   -1.0746    1.0579    0.7077 H   0  0  0  0  0  0  0  0  0  0  0  0
   -1.5321    1.0783   -1.0780 H   0  0  0  0  0  0  0  0  0  0  0  0
   -0.0975   -1.4709    1.1413 H   0  0  0  0  0  0  0  0  0  0  0  0
    0.5167   -0.3939    0.2085 H   0  0  0  0  0  0  0  0  0  0  0  0
    0.1618   -1.2459   -0.5650 H   0  0  0  0  0  0  0  0  0  0  0  0
  2  8  1  0  0  0  0
  3  1  1  0  0  0  0
  4  1  1  0  0  0  0
  6  9  1  0  0  0  0
  6 10  1  0  0  0  0
  7  2  1  0  0  0  0
  9 13  1  0  0  0  0
  9 12  1  0  0  0  0
 11  6  1  0  0  0  0
 14  9  1  0  0  0  0
M  RAD  4   1   3   2   3   5   2   6   2
M  END
$$$$
