butane_opt
 OpenBabel08242015403D

 14 12  0  0  0  0  0  0  0  0999 V2000
   -3.9883    0.3488    0.1465 C   0  0  0  0  0  0  0  0  0  0  0  0
   -2.6438   -0.6798   -0.0126 C   0  0  0  0  0  0  0  0  0  0  0  0
   -4.8736   -0.2799   -0.4197 H   0  0  0  0  0  0  0  0  0  0  0  0
   -3.8472    0.3770   -0.3433 H   0  0  0  0  0  0  0  0  0  0  0  0
   -3.9720    1.2450    1.0536 H   0  0  0  0  0  0  0  0  0  0  0  0
   -1.3629    0.1067   -0.1278 C   0  0  0  0  0  0  0  0  0  0  0  0
   -2.6830   -1.4270   -1.0365 H   0  0  0  0  0  0  0  0  0  0  0  0
   -2.3608   -1.1392    0.6559 H   0  0  0  0  0  0  0  0  0  0  0  0
   -0.2373   -0.6434    0.1181 C   0  0  0  0  0  0  0  0  0  0  0  0
   -1.5234    0.4290    0.5065 H   0  0  0  0  0  0  0  0  0  0  0  0
   -1.5315    1.0075   -1.2551 H   0  0  0  0  0  0  0  0  0  0  0  0
   -0.3952   -1.3600    1.1555 H   0  0  0  0  0  0  0  0  0  0  0  0
    0.8267    0.2168    0.3015 H   0  0  0  0  0  0  0  0  0  0  0  0
    0.0437   -1.1128   -0.6109 H   0  0  0  0  0  0  0  0  0  0  0  0
  1  5  1  0  0  0  0
  2  1  1  0  0  0  0
  2  8  1  0  0  0  0
  3  1  1  0  0  0  0
  6  2  1  0  0  0  0
  6  9  1  0  0  0  0
  6 10  1  0  0  0  0
  7  2  1  0  0  0  0
  9 13  1  0  0  0  0
  9 12  1  0  0  0  0
 11  6  1  0  0  0  0
 14  9  1  0  0  0  0
M  RAD  2   1   2   4   2
M  END
$$$$
