14
butane_opt
C  -3.834385   0.212683  -0.123614
C  -2.701182  -0.547271   0.266173
H  -4.854406  -0.551620  -0.530797
H  -3.602148   0.682725  -1.078657
H  -4.293719   0.985794   0.690060
C  -1.423572   0.286029   0.131014
H  -2.737991  -1.165589  -0.463615
H  -3.184570  -1.404583   1.266985
C  -0.180859  -0.799364  -0.090274
H  -1.438626   0.973561   1.030431
H  -1.568494   1.065424  -0.810671
H   0.192871  -0.915407   0.424571
H   0.707757  -0.332478  -0.034688
H  -0.502039  -1.670381  -1.251135
