butane_opt
 OpenBabel08242015403D

 14 11  0  0  0  0  0  0  0  0999 V2000
   -3.8725    0.1675   -0.0338 C   0  0  0  0  0  0  0  0  0  0  0  0
   -2.7320   -0.4727    0.1297 C   0  0  0  0  0  0  0  0  0  0  0  0
   -4.8740   -0.4596    0.1303 H   0  0  0  0  0  0  0  0  0  0  0  0
   -3.8293    0.9701   -1.0102 H   0  0  0  0  0  0  0  0  0  0  0  0
   -3.9610    0.5660    0.6111 H   0  0  0  0  0  0  0  0  0  0  0  0
   -1.4734    0.2361    0.0567 C   0  0  0  0  0  0  0  0  0  0  0  0
   -2.6203   -1.0911   -0.6435 H   0  0  0  0  0  0  0  0  0  0  0  0
   -2.7264   -1.3313    1.2621 H   0  0  0  0  0  0  0  0  0  0  0  0
   -0.1337   -0.7643   -0.0340 C   0  0  0  0  0  1  0  0  0  0  0  0
   -1.7336    0.8453    0.8729 H   0  0  0  0  0  0  0  0  0  0  0  0
   -1.3263    0.9830   -1.0465 H   0  0  0  0  0  0  0  0  0  0  0  0
   -0.3545   -0.7255    0.4136 H   0  0  0  0  0  0  0  0  0  0  0  0
    0.8055   -0.1081    0.5083 H   0  0  0  0  0  0  0  0  0  0  0  0
    0.1709   -2.1475   -1.2060 H   0  0  0  0  0  0  0  0  0  0  0  0
  1  2  1  0  0  0  0
  1  3  1  0  0  0  0
  1  5  1  0  0  0  0
  2  8  1  0  0  0  0
  4  1  1  0  0  0  0
  6  2  1  0  0  0  0
  6 12  1  0  0  0  0
  6 10  1  0  0  0  0
  7  2  1  0  0  0  0
  9 13  1  0  0  0  0
 11  6  1  0  0  0  0
M  RAD  1  14   2
M  END
$$$$
