14
butane_opt
C  -3.941870   0.210727  -0.099490
C  -2.699150  -0.508690   0.191098
H  -4.816682  -0.387487   0.244907
H  -3.796057   0.969896  -1.236871
H  -3.703868   0.681658   0.718333
C  -1.417591   0.202315   0.078403
H  -2.549801  -1.114952  -0.659302
H  -2.889937  -1.326202   1.129066
C  -0.191551  -0.750888  -0.041190
H  -1.126767   0.719430   0.937987
H  -1.444931   0.937601  -0.918155
H  -0.110802  -0.586309   0.359567
H   0.619850  -0.270373   0.541983
H  -0.175748  -1.940459  -1.261283
