14
butane_opt
C  -3.962212   0.251927   0.141574
C  -2.703579  -0.642164  -0.144127
H  -4.890470  -0.353466   0.009160
H  -4.064242   0.488767  -0.427946
H  -3.914957   1.170724   1.256421
C  -1.431281   0.279322  -0.130373
H  -3.202506  -1.361645  -1.013868
H  -2.558407  -1.098527   0.536884
C  -0.115875  -0.728823   0.168457
H  -1.545936   1.053601   0.715581
H  -1.415605   0.697822  -0.936229
H   0.222206  -2.061194   1.561198
H   0.925192  -0.186600  -0.341864
H  -0.059766  -0.712180  -0.249429
