butane_opt
 OpenBabel08242015403D

 14 12  0  0  0  0  0  0  0  0999 V2000
   -4.0429    0.2784   -0.0134 C   0  0  0  0  0  0  0  0  0  0  0  0
   -2.7251   -0.6045    0.1042 C   0  0  0  0  0  0  0  0  0  0  0  0
   -4.8664   -0.4154    0.1589 H   0  0  0  0  0  0  0  0  0  0  0  0
   -4.0755    1.3007   -1.2148 H   0  0  0  0  0  0  0  0  0  0  0  0
   -3.9014    0.6586    0.5533 H   0  0  0  0  0  0  0  0  0  0  0  0
   -1.4006    0.1597    0.1316 C   0  0  0  0  0  0  0  0  0  0  0  0
   -2.5071   -1.5588   -0.9049 H   0  0  0  0  0  0  0  0  0  0  0  0
   -2.7196   -1.1724    0.7907 H   0  0  0  0  0  0  0  0  0  0  0  0
   -0.1119   -0.6625   -0.0617 C   0  0  0  0  0  0  0  0  0  0  0  0
   -1.3294    0.7362    0.8511 H   0  0  0  0  0  0  0  0  0  0  0  0
   -1.2784    0.6878   -0.7654 H   0  0  0  0  0  0  0  0  0  0  0  0
    0.0730   -1.3270    0.8655 H   0  0  0  0  0  0  0  0  0  0  0  0
    0.8694   -0.0337    0.0207 H   0  0  0  0  0  0  0  0  0  0  0  0
    0.0356   -1.3383   -0.8694 H   0  0  0  0  0  0  0  0  0  0  0  0
  1  2  1  0  0  0  0
  1  3  1  0  0  0  0
  1  5  1  0  0  0  0
  2  6  1  0  0  0  0
  2  8  1  0  0  0  0
  6 10  1  0  0  0  0
  7  2  1  0  0  0  0
  9 13  1  0  0  0  0
  9  6  1  0  0  0  0
  9 12  1  0  0  0  0
 11  6  1  0  0  0  0
 14  9  1  0  0  0  0
M  RAD  2   1   2   4   2
M  END
$$$$
