butane_opt
 OpenBabel08242015393D

 14 13  0  0  0  0  0  0  0  0999 V2000
   -3.9833    0.2213    0.2163 C   0  0  0  0  0  0  0  0  0  0  0  0
   -2.7044   -0.5711   -0.1416 C   0  0  0  0  0  0  0  0  0  0  0  0
   -4.9095   -0.2908    0.3093 H   0  0  0  0  0  0  0  0  0  0  0  0
   -4.0499    1.0720   -0.8058 H   0  0  0  0  0  0  0  0  0  0  0  0
   -3.6139    0.8590    1.0111 H   0  0  0  0  0  0  0  0  0  0  0  0
   -1.4458    0.1647   -0.1746 C   0  0  0  0  0  0  0  0  0  0  0  0
   -2.8999   -1.4263   -1.1580 H   0  0  0  0  0  0  0  0  0  0  0  0
   -2.4461   -0.9045    0.6412 H   0  0  0  0  0  0  0  0  0  0  0  0
   -0.1179   -0.6969    0.1870 C   0  0  0  0  0  0  0  0  0  0  0  0
   -1.3196    0.4388    0.4820 H   0  0  0  0  0  0  0  0  0  0  0  0
   -1.3708    0.9632   -1.1781 H   0  0  0  0  0  0  0  0  0  0  0  0
   -0.4478   -1.0249    1.0718 H   0  0  0  0  0  0  0  0  0  0  0  0
    0.7396   -0.1914    0.5854 H   0  0  0  0  0  0  0  0  0  0  0  0
    0.3144   -1.3916   -0.6036 H   0  0  0  0  0  0  0  0  0  0  0  0
  1  3  1  0  0  0  0
  1  5  1  0  0  0  0
  2  1  1  0  0  0  0
  2  8  1  0  0  0  0
  4  1  1  0  0  0  0
  6  2  1  0  0  0  0
  6  9  1  0  0  0  0
  6 10  1  0  0  0  0
  7  2  1  0  0  0  0
  9 13  1  0  0  0  0
  9 12  1  0  0  0  0
 11  6  1  0  0  0  0
 14  9  1  0  0  0  0
M  END
$$$$
