butane_opt
 OpenBabel08242015403D

 14 12  0  0  0  0  0  0  0  0999 V2000
   -3.9184    0.2774   -0.1003 C   0  0  0  0  0  0  0  0  0  0  0  0
   -2.6994   -0.5938    0.1665 C   0  0  0  0  0  0  0  0  0  0  0  0
   -4.6374   -0.1899   -0.0494 H   0  0  0  0  0  0  0  0  0  0  0  0
   -3.7097    0.6747   -0.7400 H   0  0  0  0  0  0  0  0  0  0  0  0
   -3.9727    0.9682    0.8393 H   0  0  0  0  0  0  0  0  0  0  0  0
   -1.3765    0.1434    0.0574 C   0  0  0  0  0  0  0  0  0  0  0  0
   -2.4840   -0.9925   -0.4420 H   0  0  0  0  0  0  0  0  0  0  0  0
   -2.6340   -1.5371    1.1418 H   0  0  0  0  0  0  0  0  0  0  0  0
   -0.2548   -0.6753   -0.0670 C   0  0  0  0  0  0  0  0  0  0  0  0
   -1.2158    0.7308    0.8326 H   0  0  0  0  0  0  0  0  0  0  0  0
   -1.4893    0.7545   -0.7778 H   0  0  0  0  0  0  0  0  0  0  0  0
   -0.4234   -0.9471    0.6644 H   0  0  0  0  0  0  0  0  0  0  0  0
    0.5916   -0.0235    0.4690 H   0  0  0  0  0  0  0  0  0  0  0  0
   -0.0886   -1.7338   -1.1792 H   0  0  0  0  0  0  0  0  0  0  0  0
  1  3  1  0  0  0  0
  1  2  1  0  0  0  0
  1  5  1  0  0  0  0
  2  8  1  0  0  0  0
  4  1  1  0  0  0  0
  6  2  1  0  0  0  0
  6 10  1  0  0  0  0
  7  2  1  0  0  0  0
  9  6  1  0  0  0  0
  9 13  1  0  0  0  0
  9 12  1  0  0  0  0
 11  6  1  0  0  0  0
M  RAD  2   9   2  14   2
M  END
$$$$
