14
butane_opt
C  -3.919453   0.219458  -0.045000
C  -2.718953  -0.598209   0.180878
H  -4.849992  -0.361661  -0.678224
H  -3.533572   0.658887  -0.983505
H  -4.419356   1.098703   0.818571
C  -1.418089   0.332240   0.058516
H  -2.768506  -1.130953  -0.424018
H  -3.026565  -1.455157   1.236972
C  -0.104400  -0.771773  -0.097480
H  -1.281407   1.090748   0.965627
H  -1.478329   0.498764  -0.488831
H   0.009300  -1.504425   0.855343
H   0.650119  -0.224439  -0.057484
H  -0.341521  -1.336991  -0.922633
