14
butane_opt
C  -4.009623   0.314748  -0.028950
C  -2.631520  -0.680732   0.048598
H  -4.940557  -0.201502   0.788865
H  -4.138104   1.758609  -1.530174
H  -4.024401   0.143442   0.339735
C  -1.362592   0.146936   0.154170
H  -2.791940  -1.372378  -0.833470
H  -2.616792  -1.302815   0.779713
C  -0.175727  -0.671453  -0.038825
H  -1.275130   0.921190   1.086264
H  -1.567547   0.583399  -0.629759
H  -0.223291  -0.857782   0.518869
H   0.946177   0.009300   0.194445
H  -0.251557  -1.400297  -0.979957
