butane_opt
 OpenBabel08242015403D

 14  9  0  0  0  0  0  0  0  0999 V2000
   -3.9785    0.2758    0.0556 C   0  0  0  0  0  0  0  0  0  0  0  0
   -2.7079   -0.6114    0.0547 C   0  0  0  0  0  0  0  0  0  0  0  0
   -4.6386   -0.1601    0.1027 H   0  0  0  0  0  0  0  0  0  0  0  0
   -3.9339    1.3178   -1.1166 H   0  0  0  0  0  0  0  0  0  0  0  0
   -4.0054    0.7383    0.6764 H   0  0  0  0  0  0  0  0  0  0  0  0
   -1.4070    0.0971   -0.0505 C   0  0  0  0  0  0  0  0  0  0  0  0
   -2.6732   -1.3205   -0.6393 H   0  0  0  0  0  0  0  0  0  0  0  0
   -2.5505   -1.5985    1.1495 H   0  0  0  0  0  0  0  0  0  0  0  0
   -0.1517   -0.6462    0.0281 C   0  0  0  0  0  0  0  0  0  0  0  0
   -1.4710    0.9948    0.9335 H   0  0  0  0  0  0  0  0  0  0  0  0
   -1.4405    0.6211   -0.8566 H   0  0  0  0  0  0  0  0  0  0  0  0
   -0.6274   -0.7263    0.5481 H   0  0  0  0  0  0  0  0  0  0  0  0
    0.9965    0.0531    0.6181 H   0  0  0  0  0  0  0  0  0  0  0  0
    0.2083   -1.7073   -1.1434 H   0  0  0  0  0  0  0  0  0  0  0  0
  1  3  1  0  0  0  0
  1  5  1  0  0  0  0
  2  1  1  0  0  0  0
  2  8  1  0  0  0  0
  6 10  1  0  0  0  0
  7  2  1  0  0  0  0
  9 12  1  0  0  0  0
  9 13  1  0  0  0  0
 11  6  1  0  0  0  0
M  RAD  6   1   2   2   2   4   2   6   3   9   3  14   2
M  END
$$$$
