14
butane_opt
C  -3.859466   0.222443  -0.142297
C  -2.744137  -0.508297   0.120335
H  -4.993877  -0.633870   0.106004
H  -3.805521   1.039560  -1.216261
H  -4.147953   0.783430   0.633279
C  -1.399641   0.192246   0.277605
H  -2.868504  -1.266695  -0.740631
H  -2.939828  -1.207733   1.015078
C  -0.139548  -0.761354  -0.084843
H  -1.484675   1.061412   1.151210
H  -1.573012   0.862279  -0.669764
H   0.548584  -1.537855   0.948607
H   0.766451  -0.148582  -0.912268
H  -0.767510  -1.179334  -0.902343
