butane_opt
 OpenBabel08242015403D

 14 13  0  0  0  0  0  0  0  0999 V2000
   -4.0185    0.3069    0.2264 C   0  0  0  0  0  0  0  0  0  0  0  0
   -2.6856   -0.7234   -0.1030 C   0  0  0  0  0  0  0  0  0  0  0  0
   -4.6185    0.0526    0.1046 H   0  0  0  0  0  0  0  0  0  0  0  0
   -4.2000    0.6625   -0.5239 H   0  0  0  0  0  0  0  0  0  0  0  0
   -4.4227    1.1094    1.1468 H   0  0  0  0  0  0  0  0  0  0  0  0
   -1.3363    0.1523   -0.2677 C   0  0  0  0  0  0  0  0  0  0  0  0
   -2.8126   -1.5515   -1.0038 H   0  0  0  0  0  0  0  0  0  0  0  0
   -2.4746   -1.0094    0.6261 H   0  0  0  0  0  0  0  0  0  0  0  0
   -0.1382   -0.6145    0.2294 C   0  0  0  0  0  0  0  0  0  0  0  0
   -1.6390    0.5580    0.4366 H   0  0  0  0  0  0  0  0  0  0  0  0
   -1.1732    0.9726   -1.3339 H   0  0  0  0  0  0  0  0  0  0  0  0
   -0.4973   -1.0353    1.1135 H   0  0  0  0  0  0  0  0  0  0  0  0
    0.8552   -0.1319    0.5708 H   0  0  0  0  0  0  0  0  0  0  0  0
    0.0810   -1.5340   -0.7196 H   0  0  0  0  0  0  0  0  0  0  0  0
  1  5  1  0  0  0  0
  2  1  1  0  0  0  0
  2  8  1  0  0  0  0
  3  1  1  0  0  0  0
  4  1  1  0  0  0  0
  6  2  1  0  0  0  0
  6  9  1  0  0  0  0
  6 10  1  0  0  0  0
  7  2  1  0  0  0  0
  9 13  1  0  0  0  0
  9 12  1  0  0  0  0
 11  6  1  0  0  0  0
 14  9  1  0  0  0  0
M  END
$$$$
