14
butane_opt
C  -3.953983   0.350528  -0.094668
C  -2.639924  -0.664152   0.227288
H  -4.951786  -0.280996   0.096549
H  -3.745913   1.300010  -1.346830
H  -4.117282   0.467512   0.266772
C  -1.355105   0.085760   0.147405
H  -2.583948  -1.330680  -0.490600
H  -2.537442  -1.141468   1.074426
C  -0.281415  -0.671498  -0.124213
H  -1.316974   0.906469   1.051051
H  -1.195412   0.615569  -0.645972
H  -0.463502  -0.692836   0.275097
H   0.885405   0.148370   0.247427
H  -0.243545  -1.655652  -1.082162
