14
butane_opt
C  -3.983322   0.221333   0.216296
C  -2.704449  -0.571094  -0.141582
H  -4.909537  -0.290806   0.309341
H  -4.049911   1.071964  -0.805847
H  -3.613943   0.859005   1.011058
C  -1.445777   0.164707  -0.174632
H  -2.899917  -1.426308  -1.158031
H  -2.446132  -0.904527   0.641175
C  -0.117877  -0.696891   0.186968
H  -1.319600   0.438841   0.481981
H  -1.370814   0.963160  -1.178051
H  -0.447828  -1.024927   1.071811
H   0.739582  -0.191411   0.585436
H   0.314363  -1.391596  -0.603558
