14
butane_opt
C  -3.964653   0.338383  -0.135308
C  -2.704477  -0.733737   0.213357
H  -4.659490  -0.138103  -0.787340
H  -4.081221   0.601791  -0.748260
H  -4.467658   1.299948   0.934191
C  -1.380572   0.144204   0.145806
H  -2.630696  -0.953934  -0.326142
H  -3.079180  -1.567213   1.372343
C  -0.141481  -0.620375  -0.130987
H  -1.118508   0.816014   0.970679
H  -1.534261   0.612299  -0.649719
H   0.032382  -1.291845   0.904770
H   0.865249   0.050472  -0.220789
H  -0.112288  -1.425861  -1.106348
