14
butane_opt
C  -3.978462   0.275816   0.055631
C  -2.707888  -0.611409   0.054658
H  -4.638625  -0.160105   0.102700
H  -3.933937   1.317812  -1.116572
H  -4.005416   0.738274   0.676424
C  -1.407015   0.097094  -0.050451
H  -2.673177  -1.320468  -0.639288
H  -2.550464  -1.598476   1.149472
C  -0.151670  -0.646187   0.028124
H  -1.470961   0.994770   0.933507
H  -1.440546   0.621085  -0.856617
H  -0.627412  -0.726322   0.548130
H   0.996526   0.053051   0.618140
H   0.208329  -1.707338  -1.143423
