butane_opt
 OpenBabel08242015403D

 14 13  0  0  0  0  0  0  0  0999 V2000
   -3.9317    0.2523    0.0218 C   0  0  0  0  0  0  0  0  0  0  0  0
   -2.7010   -0.5892    0.0343 C   0  0  0  0  0  0  0  0  0  0  0  0
   -4.8637   -0.3470   -0.0129 H   0  0  0  0  0  0  0  0  0  0  0  0
   -3.9530    0.8255   -0.8491 H   0  0  0  0  0  0  0  0  0  0  0  0
   -3.9363    0.9443    0.8890 H   0  0  0  0  0  0  0  0  0  0  0  0
   -1.4119    0.1866    0.0171 C   0  0  0  0  0  0  0  0  0  0  0  0
   -2.7602   -1.3636   -0.9029 H   0  0  0  0  0  0  0  0  0  0  0  0
   -2.7382   -1.1693    0.9059 H   0  0  0  0  0  0  0  0  0  0  0  0
   -0.1608   -0.7069    0.0338 C   0  0  0  0  0  0  0  0  0  0  0  0
   -1.3831    0.8659    0.8607 H   0  0  0  0  0  0  0  0  0  0  0  0
   -1.4429    0.8331   -0.8804 H   0  0  0  0  0  0  0  0  0  0  0  0
   -0.0765   -1.4273    1.0172 H   0  0  0  0  0  0  0  0  0  0  0  0
    0.7724   -0.1037   -0.1270 H   0  0  0  0  0  0  0  0  0  0  0  0
   -0.1744   -1.2411   -0.7288 H   0  0  0  0  0  0  0  0  0  0  0  0
  1  2  1  0  0  0  0
  1  5  1  0  0  0  0
  2  8  1  0  0  0  0
  3  1  1  0  0  0  0
  4  1  1  0  0  0  0
  6  9  1  0  0  0  0
  6  2  1  0  0  0  0
  6 10  1  0  0  0  0
  7  2  1  0  0  0  0
  9 12  1  0  0  0  0
 11  6  1  0  0  0  0
 13  9  1  0  0  0  0
 14  9  1  0  0  0  0
M  END
$$$$
