14
butane_opt
C  -3.945978   0.264733   0.029821
C  -2.693524  -0.625109   0.017635
H  -4.830549  -0.328278   0.084974
H  -3.975616   0.905890  -0.881245
H  -3.933861   0.904630   0.893806
C  -1.404891   0.192318   0.004258
H  -2.676247  -1.307364  -0.854885
H  -2.683675  -1.201748   0.889244
C  -0.173810  -0.692110   0.036360
H  -1.382159   0.895293   0.883523
H  -1.386865   0.778236  -0.842044
H  -0.128391  -1.419698   1.019328
H   0.740928  -0.103636  -0.026177
H  -0.149710  -1.270449  -0.773542
