butane_opt
 OpenBabel08242015403D

 14 12  0  0  0  0  0  0  0  0999 V2000
   -3.8305    0.2132   -0.1329 C   0  0  0  0  0  0  0  0  0  0  0  0
   -2.6908   -0.5722    0.1515 C   0  0  0  0  0  0  0  0  0  0  0  0
   -4.9562   -0.5657    0.0184 H   0  0  0  0  0  0  0  0  0  0  0  0
   -3.7471    0.8580   -1.0623 H   0  0  0  0  0  0  0  0  0  0  0  0
   -4.0060    1.0037    0.7971 H   0  0  0  0  0  0  0  0  0  0  0  0
   -1.4666    0.2265    0.2314 C   0  0  0  0  0  0  0  0  0  0  0  0
   -2.5034   -1.3455   -0.7082 H   0  0  0  0  0  0  0  0  0  0  0  0
   -2.9441   -1.2266    0.8900 H   0  0  0  0  0  0  0  0  0  0  0  0
   -0.1814   -0.7285   -0.1049 C   0  0  0  0  0  0  0  0  0  0  0  0
   -1.6388    1.1274    1.1663 H   0  0  0  0  0  0  0  0  0  0  0  0
   -1.6361    0.9475   -0.7600 H   0  0  0  0  0  0  0  0  0  0  0  0
    0.1997   -1.7716    0.9731 H   0  0  0  0  0  0  0  0  0  0  0  0
    0.6243   -0.1058   -0.7267 H   0  0  0  0  0  0  0  0  0  0  0  0
   -0.3705   -1.0787   -0.8280 H   0  0  0  0  0  0  0  0  0  0  0  0
  1  3  1  0  0  0  0
  1  2  1  0  0  0  0
  1  5  1  0  0  0  0
  2  6  1  0  0  0  0
  2  8  1  0  0  0  0
  4  1  1  0  0  0  0
  6 10  1  0  0  0  0
  7  2  1  0  0  0  0
  9  6  1  0  0  0  0
 11  6  1  0  0  0  0
 13  9  1  0  0  0  0
 14  9  1  0  0  0  0
M  RAD  2   9   2  12   2
M  END
$$$$
