14
butane_opt
C  -3.935458   0.302306   0.096352
C  -2.685052  -0.630245  -0.112887
H  -4.767823  -0.156781   0.253979
H  -4.050003   0.883182  -0.777142
H  -3.792145   1.091223   1.142277
C  -1.382002   0.062972   0.009529
H  -2.720496  -1.503524  -1.147789
H  -2.465512  -1.017529   0.493939
C  -0.234166  -0.661153   0.083081
H  -1.348250   0.740341   0.969122
H  -1.359560   0.906051  -1.094429
H  -0.279002  -1.862318   1.511137
H   0.913682   0.231297  -0.400408
H  -0.366244  -0.618031  -0.343272
