butane_opt
 OpenBabel08242015393D

 14 10  0  0  0  0  0  0  0  0999 V2000
   -3.9599    0.3296   -0.0535 C   0  0  0  0  0  0  0  0  0  0  0  0
   -2.6855   -0.6866    0.1354 C   0  0  0  0  0  0  0  0  0  0  0  0
   -4.9071   -0.4419    0.0733 H   0  0  0  0  0  0  0  0  0  0  0  0
   -4.0205    0.9803   -0.9871 H   0  0  0  0  0  0  0  0  0  0  0  0
   -3.9104    0.8194    0.7625 H   0  0  0  0  0  0  0  0  0  0  0  0
   -1.3932    0.1250    0.0032 C   0  0  0  0  0  0  0  0  0  0  0  0
   -2.7283   -1.0684   -0.4242 H   0  0  0  0  0  0  0  0  0  0  0  0
   -2.4412   -1.3033    1.0782 H   0  0  0  0  0  0  0  0  0  0  0  0
   -0.1499   -0.6248    0.0055 C   0  0  0  0  0  0  0  0  0  0  0  0
   -1.5981    0.7360    0.9211 H   0  0  0  0  0  0  0  0  0  0  0  0
   -1.4116    0.8245   -0.9727 H   0  0  0  0  0  0  0  0  0  0  0  0
   -0.3026   -0.6995    0.5217 H   0  0  0  0  0  0  0  0  0  0  0  0
    0.6897   -0.0103    0.5617 H   0  0  0  0  0  0  0  0  0  0  0  0
   -0.1601   -2.0462   -1.2957 H   0  0  0  0  0  0  0  0  0  0  0  0
  1  3  1  0  0  0  0
  1  2  1  0  0  0  0
  1  5  1  0  0  0  0
  2  8  1  0  0  0  0
  4  1  1  0  0  0  0
  6  9  1  0  0  0  0
  6 10  1  0  0  0  0
  7  2  1  0  0  0  0
  9 13  1  0  0  0  0
 11  6  1  0  0  0  0
M  RAD  5   2   2   6   2   9   3  12   2  14   2
M  END
$$$$
