butane_opt
 OpenBabel08242015403D

 14 12  0  0  0  0  0  0  0  0999 V2000
   -3.9724    0.1849   -0.0828 C   0  0  0  0  0  0  0  0  0  0  0  0
   -2.6975   -0.5488    0.2211 C   0  0  0  0  0  0  0  0  0  0  0  0
   -4.8410   -0.4328   -0.7468 H   0  0  0  0  0  0  0  0  0  0  0  0
   -3.6325    0.3742   -0.7242 H   0  0  0  0  0  0  0  0  0  0  0  0
   -4.4498    1.2298    0.9569 H   0  0  0  0  0  0  0  0  0  0  0  0
   -1.4244    0.2758    0.0703 C   0  0  0  0  0  0  0  0  0  0  0  0
   -2.8798   -1.2354   -0.6551 H   0  0  0  0  0  0  0  0  0  0  0  0
   -2.9395   -1.2275    1.1685 H   0  0  0  0  0  0  0  0  0  0  0  0
   -0.1053   -0.7555   -0.0466 C   0  0  0  0  0  0  0  0  0  0  0  0
   -1.5571    0.8987    1.0365 H   0  0  0  0  0  0  0  0  0  0  0  0
   -1.3707    1.1213   -0.9382 H   0  0  0  0  0  0  0  0  0  0  0  0
    0.2914   -1.2717    0.7926 H   0  0  0  0  0  0  0  0  0  0  0  0
    0.7492   -0.3740   -0.4449 H   0  0  0  0  0  0  0  0  0  0  0  0
    0.0175   -1.4578   -0.9545 H   0  0  0  0  0  0  0  0  0  0  0  0
  1  2  1  0  0  0  0
  2  8  1  0  0  0  0
  3  1  1  0  0  0  0
  4  1  1  0  0  0  0
  6  2  1  0  0  0  0
  6 10  1  0  0  0  0
  7  2  1  0  0  0  0
  9  6  1  0  0  0  0
  9 12  1  0  0  0  0
 11  6  1  0  0  0  0
 13  9  1  0  0  0  0
 14  9  1  0  0  0  0
M  RAD  2   1   2   5   2
M  END
$$$$
