14
butane_opt
C  -4.042895   0.278386  -0.013448
C  -2.725107  -0.604505   0.104194
H  -4.866353  -0.415396   0.158941
H  -4.075473   1.300712  -1.214753
H  -3.901374   0.658554   0.553259
C  -1.400605   0.159722   0.131608
H  -2.507126  -1.558829  -0.904886
H  -2.719615  -1.172356   0.790679
C  -0.111862  -0.662538  -0.061707
H  -1.329449   0.736166   0.851108
H  -1.278442   0.687827  -0.765414
H   0.072966  -1.326978   0.865517
H   0.869382  -0.033744   0.020705
H   0.035596  -1.338345  -0.869364
