butane_opt
 OpenBabel08242015403D

 14 11  0  0  0  0  0  0  0  0999 V2000
   -3.9338    0.2032   -0.1895 C   0  0  0  0  0  0  0  0  0  0  0  0
   -2.7276   -0.5479    0.2460 C   0  0  0  0  0  0  0  0  0  0  0  0
   -5.0021   -0.5548   -0.0840 H   0  0  0  0  0  0  0  0  0  0  0  0
   -3.8300    1.0918   -1.2634 H   0  0  0  0  0  0  0  0  0  0  0  0
   -4.1182    0.7522    0.5629 H   0  0  0  0  0  0  0  0  0  0  0  0
   -1.4084    0.2755    0.2461 C   0  0  0  0  0  0  0  0  0  0  0  0
   -2.6972   -1.3488   -0.6762 H   0  0  0  0  0  0  0  0  0  0  0  0
   -2.9975   -1.3817    1.1488 H   0  0  0  0  0  0  0  0  0  0  0  0
   -0.1106   -0.7158   -0.1679 C   0  0  0  0  0  0  0  0  0  0  0  0
   -1.3343    1.3545    1.3702 H   0  0  0  0  0  0  0  0  0  0  0  0
   -1.5789    0.4250   -0.3674 H   0  0  0  0  0  0  0  0  0  0  0  0
    0.2992   -1.7857    0.8736 H   0  0  0  0  0  0  0  0  0  0  0  0
    0.4357   -0.3512   -0.7769 H   0  0  0  0  0  0  0  0  0  0  0  0
   -0.0103   -1.2607   -0.9750 H   0  0  0  0  0  0  0  0  0  0  0  0
  1  3  1  0  0  0  0
  1  2  1  0  0  0  0
  1  5  1  0  0  0  0
  2  6  1  0  0  0  0
  2  8  1  0  0  0  0
  4  1  1  0  0  0  0
  7  2  1  0  0  0  0
  9  6  1  0  0  0  0
 11  6  1  0  0  0  0
 13  9  1  0  0  0  0
 14  9  1  0  0  0  0
M  RAD  4   6   2   9   2  10   2  12   2
M  END
$$$$
