14
butane_opt
C  -3.866379   0.241871  -0.144738
C  -2.740309  -0.594683   0.185131
H  -4.937190  -0.363949  -0.264349
H  -3.669330   0.953001  -1.178495
H  -4.214826   0.685260   0.590417
C  -1.383876   0.258231   0.231698
H  -2.705151  -1.085596  -0.530055
H  -2.616623  -1.438037   1.219433
C  -0.215457  -0.762875  -0.169429
H  -1.314461   1.367955   1.246916
H  -1.472700   0.515900  -0.373196
H   0.275969  -1.608011   0.740911
H   0.616837  -0.231010  -0.433398
H  -0.461256  -1.003210  -0.799357
