14
butane_opt
C  -3.954241   0.221549  -0.111477
C  -2.758130  -0.594916   0.254568
H  -4.943211  -0.440359  -0.874113
H  -3.444995   0.732420  -1.040391
H  -4.553516   1.221620   0.864644
C  -1.347240   0.270081   0.147104
H  -2.719530  -1.127243  -0.363173
H  -2.726930  -1.306325   1.249813
C  -0.159760  -0.753518  -0.090375
H  -1.125642   0.845915   0.922987
H  -1.570974   0.858708  -0.714194
H   0.165742  -1.239867   0.515618
H   0.624506  -0.159757  -0.385794
H  -0.060981  -1.608203  -1.146591
