butane_opt
 OpenBabel08242015403D

 14 12  0  0  0  0  0  0  0  0999 V2000
   -3.9542    0.2215   -0.1115 C   0  0  0  0  0  0  0  0  0  0  0  0
   -2.7581   -0.5949    0.2546 C   0  0  0  0  0  0  0  0  0  0  0  0
   -4.9432   -0.4404   -0.8741 H   0  0  0  0  0  0  0  0  0  0  0  0
   -3.4450    0.7324   -1.0404 H   0  0  0  0  0  0  0  0  0  0  0  0
   -4.5535    1.2216    0.8646 H   0  0  0  0  0  0  0  0  0  0  0  0
   -1.3472    0.2701    0.1471 C   0  0  0  0  0  0  0  0  0  0  0  0
   -2.7195   -1.1272   -0.3632 H   0  0  0  0  0  0  0  0  0  0  0  0
   -2.7269   -1.3063    1.2498 H   0  0  0  0  0  0  0  0  0  0  0  0
   -0.1598   -0.7535   -0.0904 C   0  0  0  0  0  0  0  0  0  0  0  0
   -1.1256    0.8459    0.9230 H   0  0  0  0  0  0  0  0  0  0  0  0
   -1.5710    0.8587   -0.7142 H   0  0  0  0  0  0  0  0  0  0  0  0
    0.1657   -1.2399    0.5156 H   0  0  0  0  0  0  0  0  0  0  0  0
    0.6245   -0.1598   -0.3858 H   0  0  0  0  0  0  0  0  0  0  0  0
   -0.0610   -1.6082   -1.1466 H   0  0  0  0  0  0  0  0  0  0  0  0
  1  2  1  0  0  0  0
  2  8  1  0  0  0  0
  3  1  1  0  0  0  0
  4  1  1  0  0  0  0
  6  2  1  0  0  0  0
  6 10  1  0  0  0  0
  7  2  1  0  0  0  0
  9  6  1  0  0  0  0
  9 12  1  0  0  0  0
 11  6  1  0  0  0  0
 13  9  1  0  0  0  0
 14  9  1  0  0  0  0
M  RAD  2   1   2   5   2
M  END
$$$$
