14
butane_opt
C  -4.068070   0.354971  -0.057183
C  -2.653878  -0.672898   0.138307
H  -4.822590  -0.305621   0.201948
H  -4.282161   1.193266  -1.036487
H  -3.940345   0.624569   0.541783
C  -1.371706   0.070959   0.056008
H  -2.406720  -1.154656  -0.590151
H  -2.994079  -1.751980   1.409020
C  -0.113913  -0.585590  -0.063164
H  -1.231440   0.903588   0.917625
H  -1.331293   0.617906  -0.837498
H  -0.449898  -0.585276   0.417740
H   0.713472  -0.082305   0.793939
H   0.178255  -1.928506  -1.350137
