butane_opt
 OpenBabel08242015403D

 14 12  0  0  0  0  0  0  0  0999 V2000
   -3.9199    0.3008   -0.1234 C   0  0  0  0  0  0  0  0  0  0  0  0
   -2.7066   -0.6304    0.1494 C   0  0  0  0  0  0  0  0  0  0  0  0
   -4.9052   -0.3554   -0.1373 H   0  0  0  0  0  0  0  0  0  0  0  0
   -3.9668    0.9923   -1.1343 H   0  0  0  0  0  0  0  0  0  0  0  0
   -4.1814    0.8619    0.5878 H   0  0  0  0  0  0  0  0  0  0  0  0
   -1.3974    0.1596    0.2660 C   0  0  0  0  0  0  0  0  0  0  0  0
   -2.7589   -1.3178   -0.8550 H   0  0  0  0  0  0  0  0  0  0  0  0
   -2.9448   -1.0704    1.0043 H   0  0  0  0  0  0  0  0  0  0  0  0
   -0.1494   -0.6927   -0.1376 C   0  0  0  0  0  0  0  0  0  0  0  0
   -1.1526    0.6461    1.0841 H   0  0  0  0  0  0  0  0  0  0  0  0
   -1.6239    0.6910   -0.4625 H   0  0  0  0  0  0  0  0  0  0  0  0
    0.2550   -1.7391    0.9784 H   0  0  0  0  0  0  0  0  0  0  0  0
    0.9694   -0.0003   -0.5835 H   0  0  0  0  0  0  0  0  0  0  0  0
   -0.6321   -0.7979   -0.8242 H   0  0  0  0  0  0  0  0  0  0  0  0
  1  2  1  0  0  0  0
  1  5  1  0  0  0  0
  2  6  1  0  0  0  0
  2  8  1  0  0  0  0
  3  1  1  0  0  0  0
  4  1  1  0  0  0  0
  6 10  1  0  0  0  0
  7  2  1  0  0  0  0
  9  6  1  0  0  0  0
 11  6  1  0  0  0  0
 13  9  1  0  0  0  0
 14  9  1  0  0  0  0
M  RAD  2   9   2  12   2
M  END
$$$$
