butane_opt
 OpenBabel08242015403D

 14 10  0  0  0  0  0  0  0  0999 V2000
   -3.9091    0.3339    0.0370 C   0  0  0  0  0  0  0  0  0  0  0  0
   -2.6097   -0.6831    0.1087 C   0  0  0  0  0  0  0  0  0  0  0  0
   -4.8280   -0.1839    0.1219 H   0  0  0  0  0  0  0  0  0  0  0  0
   -3.8393    1.1137   -1.0606 H   0  0  0  0  0  0  0  0  0  0  0  0
   -4.3332    0.6466    0.5992 H   0  0  0  0  0  0  0  0  0  0  0  0
   -1.3785    0.0827   -0.0271 C   0  0  0  0  0  0  0  0  0  0  0  0
   -2.6092   -1.2368   -0.5108 H   0  0  0  0  0  0  0  0  0  0  0  0
   -2.6113   -1.3052    0.9243 H   0  0  0  0  0  0  0  0  0  0  0  0
   -0.2794   -0.6242   -0.0148 C   0  0  0  0  0  0  0  0  0  0  0  0
   -1.4154    0.7872    0.7788 H   0  0  0  0  0  0  0  0  0  0  0  0
   -1.2808    0.7388   -0.9928 H   0  0  0  0  0  0  0  0  0  0  0  0
   -0.5332   -0.5597    0.5798 H   0  0  0  0  0  0  0  0  0  0  0  0
    0.5574    0.0422    0.8594 H   0  0  0  0  0  0  0  0  0  0  0  0
   -0.0272   -1.8499   -1.1742 H   0  0  0  0  0  0  0  0  0  0  0  0
  1  2  1  0  0  0  0
  1  3  1  0  0  0  0
  1  5  1  0  0  0  0
  2  8  1  0  0  0  0
  4  1  1  0  0  0  0
  6 10  1  0  0  0  0
  7  2  1  0  0  0  0
  9 12  1  0  0  0  0
  9 13  1  0  0  0  0
 11  6  1  0  0  0  0
M  RAD  4   2   2   6   3   9   3  14   2
M  END
$$$$
