14
butane_opt
C  -3.899124   0.231298  -0.082685
C  -2.802523  -0.600972   0.162526
H  -4.960990  -0.522954   0.153916
H  -3.854447   0.984666  -1.214296
H  -4.112115   0.652579   0.690874
C  -1.406267   0.311469   0.142201
H  -2.436069  -1.104679  -0.584125
H  -3.042399  -1.260864   1.134241
C  -0.088244  -0.776789  -0.071367
H  -1.270700   0.868868   0.809439
H  -1.507232   0.932663  -0.863243
H  -0.062227  -0.874671   0.424208
H   0.531882  -0.392866   0.251663
H   0.117808  -1.792735  -1.188936
