butane_opt
 OpenBabel08242015403D

 14 13  0  0  0  0  0  0  0  0999 V2000
   -3.9503    0.2578    0.2244 C   0  0  0  0  0  0  0  0  0  0  0  0
   -2.6569   -0.5781   -0.2413 C   0  0  0  0  0  0  0  0  0  0  0  0
   -4.8537   -0.3913    0.5357 H   0  0  0  0  0  0  0  0  0  0  0  0
   -4.3636    0.8065   -0.5785 H   0  0  0  0  0  0  0  0  0  0  0  0
   -3.5930    1.0718    1.0612 H   0  0  0  0  0  0  0  0  0  0  0  0
   -1.4068    0.1316   -0.1851 C   0  0  0  0  0  0  0  0  0  0  0  0
   -2.6093   -1.1841   -1.0162 H   0  0  0  0  0  0  0  0  0  0  0  0
   -2.2953   -1.2790    0.6775 H   0  0  0  0  0  0  0  0  0  0  0  0
   -0.2004   -0.6586    0.2377 C   0  0  0  0  0  0  0  0  0  0  0  0
   -1.4379    0.5583    0.4976 H   0  0  0  0  0  0  0  0  0  0  0  0
   -1.2962    0.8104   -1.1901 H   0  0  0  0  0  0  0  0  0  0  0  0
   -0.7069   -1.3261    1.3001 H   0  0  0  0  0  0  0  0  0  0  0  0
    0.7470    0.0263    0.4138 H   0  0  0  0  0  0  0  0  0  0  0  0
   -0.0167   -1.4080   -0.6868 H   0  0  0  0  0  0  0  0  0  0  0  0
  1  3  1  0  0  0  0
  1  5  1  0  0  0  0
  2  6  1  0  0  0  0
  2  1  1  0  0  0  0
  2  8  1  0  0  0  0
  4  1  1  0  0  0  0
  6  9  1  0  0  0  0
  6 10  1  0  0  0  0
  7  2  1  0  0  0  0
  9 13  1  0  0  0  0
  9 12  1  0  0  0  0
 11  6  1  0  0  0  0
 14  9  1  0  0  0  0
M  END
$$$$
