14
butane_opt
C  -3.976063   0.209139   0.147599
C  -2.712453  -0.591182  -0.155374
H  -5.009481  -0.433083   1.016068
H  -4.409405   1.190306  -1.016903
H  -3.378290   0.731975   1.113718
C  -1.434117   0.237959  -0.121841
H  -2.821999  -1.620674  -1.328873
H  -2.754207  -0.876266   0.511874
C  -0.091920  -0.710682   0.176943
H  -1.667317   0.804386   0.688369
H  -1.154131   1.033390  -1.191680
H   0.041776  -1.403814   1.256786
H   0.517808  -0.299607   0.391381
H   0.200450  -1.355920  -0.570230
