butane_opt
 OpenBabel08242015403D

 14 13  0  0  0  0  0  0  0  0999 V2000
   -3.9561    0.2765    0.0539 C   0  0  0  0  0  0  0  0  0  0  0  0
   -2.6809   -0.6224   -0.0037 C   0  0  0  0  0  0  0  0  0  0  0  0
   -4.8507   -0.3135    0.1446 H   0  0  0  0  0  0  0  0  0  0  0  0
   -4.0560    0.9229   -0.8455 H   0  0  0  0  0  0  0  0  0  0  0  0
   -3.9243    0.8920    0.9016 H   0  0  0  0  0  0  0  0  0  0  0  0
   -1.3987    0.1661   -0.0258 C   0  0  0  0  0  0  0  0  0  0  0  0
   -2.7120   -1.3720   -0.8998 H   0  0  0  0  0  0  0  0  0  0  0  0
   -2.6908   -1.2259    0.8607 H   0  0  0  0  0  0  0  0  0  0  0  0
   -0.1732   -0.6840    0.0769 C   0  0  0  0  0  0  0  0  0  0  0  0
   -1.4350    0.8187    0.8119 H   0  0  0  0  0  0  0  0  0  0  0  0
   -1.3193    0.8513   -0.9418 H   0  0  0  0  0  0  0  0  0  0  0  0
   -0.1733   -1.2512    0.9535 H   0  0  0  0  0  0  0  0  0  0  0  0
    0.7728   -0.0677    0.0289 H   0  0  0  0  0  0  0  0  0  0  0  0
   -0.1335   -1.3513   -0.8015 H   0  0  0  0  0  0  0  0  0  0  0  0
  1  3  1  0  0  0  0
  1  5  1  0  0  0  0
  2  1  1  0  0  0  0
  2  8  1  0  0  0  0
  4  1  1  0  0  0  0
  6  2  1  0  0  0  0
  6  9  1  0  0  0  0
  6 10  1  0  0  0  0
  7  2  1  0  0  0  0
  9 12  1  0  0  0  0
 11  6  1  0  0  0  0
 13  9  1  0  0  0  0
 14  9  1  0  0  0  0
M  END
$$$$
