14
butane_opt
C  -3.972449   0.184893  -0.082799
C  -2.697498  -0.548820   0.221106
H  -4.840991  -0.432750  -0.746801
H  -3.632464   0.374238  -0.724219
H  -4.449822   1.229809   0.956888
C  -1.424412   0.275813   0.070285
H  -2.879844  -1.235423  -0.655059
H  -2.939516  -1.227499   1.168462
C  -0.105293  -0.755467  -0.046603
H  -1.557134   0.898730   1.036474
H  -1.370731   1.121285  -0.938209
H   0.291386  -1.271726   0.792565
H   0.749187  -0.374023  -0.444897
H   0.017528  -1.457811  -0.954530
