butane_opt
 OpenBabel08242015403D

 14 13  0  0  0  0  0  0  0  0999 V2000
   -3.9340    0.2761    0.0103 C   0  0  0  0  0  0  0  0  0  0  0  0
   -2.6966   -0.6235    0.0457 C   0  0  0  0  0  0  0  0  0  0  0  0
   -4.8828   -0.3129    0.1269 H   0  0  0  0  0  0  0  0  0  0  0  0
   -4.0099    1.0196   -0.9619 H   0  0  0  0  0  0  0  0  0  0  0  0
   -3.9604    0.8141    0.7989 H   0  0  0  0  0  0  0  0  0  0  0  0
   -1.3970    0.1753    0.0257 C   0  0  0  0  0  0  0  0  0  0  0  0
   -2.6693   -1.3299   -0.8190 H   0  0  0  0  0  0  0  0  0  0  0  0
   -2.7102   -1.2331    0.9209 H   0  0  0  0  0  0  0  0  0  0  0  0
   -0.1736   -0.6903    0.0199 C   0  0  0  0  0  0  0  0  0  0  0  0
   -1.3753    0.8605    0.8866 H   0  0  0  0  0  0  0  0  0  0  0  0
   -1.4039    0.7631   -0.8043 H   0  0  0  0  0  0  0  0  0  0  0  0
   -0.2162   -1.2640    0.8949 H   0  0  0  0  0  0  0  0  0  0  0  0
    0.7868   -0.0398    0.0250 H   0  0  0  0  0  0  0  0  0  0  0  0
   -0.1662   -1.3979   -0.8682 H   0  0  0  0  0  0  0  0  0  0  0  0
  1  2  1  0  0  0  0
  1  3  1  0  0  0  0
  1  5  1  0  0  0  0
  2  8  1  0  0  0  0
  4  1  1  0  0  0  0
  6  2  1  0  0  0  0
  6 10  1  0  0  0  0
  7  2  1  0  0  0  0
  9 13  1  0  0  0  0
  9  6  1  0  0  0  0
  9 12  1  0  0  0  0
 11  6  1  0  0  0  0
 14  9  1  0  0  0  0
M  END
$$$$
