14
butane_opt
C  -3.850966   0.185051   0.176358
C  -2.754499  -0.538520  -0.079413
H  -4.941365  -0.549443  -0.453336
H  -3.591169   0.287443  -0.327805
H  -3.938206   1.623685   1.413781
C  -1.453031   0.222841  -0.225147
H  -2.845481  -1.202268  -0.869601
H  -2.482644  -0.942185   0.728743
C  -0.168265  -0.722723   0.213441
H  -1.218509   0.868886   0.519790
H  -1.512968   0.983516  -1.179600
H  -0.363558  -1.795547   1.311444
H   0.492905  -0.375619  -0.062723
H   0.153249  -1.229500  -0.567002
