14
butane_opt
C  -3.981243   0.178295   0.123223
C  -2.731408  -0.556727  -0.075869
H  -4.878707  -0.252285   0.212902
H  -4.026896   0.872454  -0.785910
H  -3.729198   0.971846   1.092903
C  -1.398821   0.255103  -0.151046
H  -3.003274  -0.891780  -0.674662
H  -2.805828  -1.446869   0.997041
C  -0.113531  -0.746715   0.132855
H  -1.375192   0.983854   0.608898
H  -1.150359   1.007883  -1.158393
H  -0.133099  -1.036581   0.832476
H   0.615829  -0.240880   0.874410
H   0.181683  -2.051243  -0.945876
