14
butane_opt
C  -3.904657   0.263864   0.104707
C  -2.691146  -0.614054  -0.024997
H  -4.679771  -0.251055   0.282546
H  -3.920009   0.951715  -0.863567
H  -3.788081   0.884103   0.978278
C  -1.386895   0.205264  -0.127010
H  -2.566966  -1.210479  -0.819697
H  -2.626744  -1.404526   0.975162
C  -0.227640  -0.714659   0.071099
H  -1.470968   0.783892   0.712042
H  -1.402427   0.647523  -1.004105
H  -0.686859  -0.936129   0.817761
H   0.683689  -0.034551   0.842934
H  -0.028184  -1.560304  -0.775129
