butane_opt
 OpenBabel08242015403D

 14 11  0  0  0  0  0  0  0  0999 V2000
   -3.8819    0.2739    0.0015 C   0  0  0  0  0  1  0  0  0  0  0  0
   -2.6713   -0.5809   -0.0520 C   0  0  0  0  0  0  0  0  0  0  0  0
   -5.0494   -0.5397    0.9755 H   0  0  0  0  0  0  0  0  0  0  0  0
   -4.0713    1.0877   -1.0536 H   0  0  0  0  0  0  0  0  0  0  0  0
   -3.5238    0.2640    0.5035 H   0  0  0  0  0  0  0  0  0  0  0  0
   -1.4546    0.2081    0.1032 C   0  0  0  0  0  0  0  0  0  0  0  0
   -2.7555   -1.2966   -0.9113 H   0  0  0  0  0  0  0  0  0  0  0  0
   -2.6006   -0.9735    0.7779 H   0  0  0  0  0  0  0  0  0  0  0  0
   -0.1864   -0.7286    0.0372 C   0  0  0  0  0  0  0  0  0  0  0  0
   -1.4654    0.7454    0.8600 H   0  0  0  0  0  0  0  0  0  0  0  0
   -1.5638    0.8687   -0.9241 H   0  0  0  0  0  0  0  0  0  0  0  0
   -0.1938   -1.2463    0.8283 H   0  0  0  0  0  0  0  0  0  0  0  0
    0.6265   -0.0929    0.1920 H   0  0  0  0  0  0  0  0  0  0  0  0
   -0.0941   -1.3826   -0.9121 H   0  0  0  0  0  0  0  0  0  0  0  0
  2  6  1  0  0  0  0
  2  5  1  0  0  0  0
  2  8  1  0  0  0  0
  4  1  1  0  0  0  0
  6 10  1  0  0  0  0
  7  2  1  0  0  0  0
  9  6  1  0  0  0  0
  9 13  1  0  0  0  0
  9 12  1  0  0  0  0
 11  6  1  0  0  0  0
 14  9  1  0  0  0  0
M  RAD  1   3   2
M  END
$$$$
