14
butane_opt
C  -3.950333   0.257800   0.224439
C  -2.656934  -0.578139  -0.241319
H  -4.853677  -0.391341   0.535711
H  -4.363637   0.806495  -0.578494
H  -3.593033   1.071820   1.061233
C  -1.406830   0.131634  -0.185082
H  -2.609345  -1.184122  -1.016195
H  -2.295273  -1.279000   0.677550
C  -0.200397  -0.658636   0.237723
H  -1.437868   0.558323   0.497617
H  -1.296239   0.810361  -1.190088
H  -0.706907  -1.326089   1.300148
H   0.746956   0.026298   0.413831
H  -0.016732  -1.408005  -0.686786
