butane_opt
 OpenBabel08242015403D

 14 10  0  0  0  0  0  0  0  0999 V2000
   -3.8920    0.2849    0.1431 C   0  0  0  0  0  0  0  0  0  0  0  0
   -2.7091   -0.6842   -0.1432 C   0  0  0  0  0  0  0  0  0  0  0  0
   -4.4999   -0.1115    0.2111 H   0  0  0  0  0  0  0  0  0  0  0  0
   -3.8300    1.0167   -0.7993 H   0  0  0  0  0  0  0  0  0  0  0  0
   -4.0526    1.0509    1.1514 H   0  0  0  0  0  0  0  0  0  0  0  0
   -1.3998    0.1217   -0.0761 C   0  0  0  0  0  0  0  0  0  0  0  0
   -2.8609   -1.4618   -1.1147 H   0  0  0  0  0  0  0  0  0  0  0  0
   -2.4804   -0.8543    0.4682 H   0  0  0  0  0  0  0  0  0  0  0  0
   -0.2315   -0.6519    0.1718 C   0  0  0  0  0  1  0  0  0  0  0  0
   -1.3660    0.8455    0.8845 H   0  0  0  0  0  0  0  0  0  0  0  0
   -1.3747    0.8131   -0.8703 H   0  0  0  0  0  0  0  0  0  0  0  0
   -0.0357   -1.8768    1.3565 H   0  0  0  0  0  0  0  0  0  0  0  0
    0.6956    0.0952   -0.6055 H   0  0  0  0  0  0  0  0  0  0  0  0
   -0.4685   -0.7928   -0.3252 H   0  0  0  0  0  0  0  0  0  0  0  0
  1  3  1  0  0  0  0
  1  5  1  0  0  0  0
  2  1  1  0  0  0  0
  2  8  1  0  0  0  0
  4  1  1  0  0  0  0
  6 10  1  0  0  0  0
  7  2  1  0  0  0  0
 11  6  1  0  0  0  0
 13  9  1  0  0  0  0
 14  6  1  0  0  0  0
M  RAD  3   2   2   6   2  12   2
M  END
$$$$
