14
butane_opt
C  -3.850922   0.169775   0.001585
C  -2.662516  -0.520963  -0.019202
H  -4.863257  -0.358174   0.776441
H  -4.036251   1.431348  -1.247304
H  -3.733661   0.228696   0.562841
C  -1.486042   0.216725   0.110800
H  -2.904739  -1.303159  -0.868180
H  -2.875105  -1.047511   0.895917
C  -0.127970  -0.733818   0.010529
H  -1.786571   1.015442   0.894499
H  -1.367534   0.961784  -0.838844
H  -0.043405  -1.113889   0.689856
H   0.533478  -0.355617   0.162018
H  -0.353313  -1.550555  -0.912819
