butane_opt
 OpenBabel08242015403D

 14 11  0  0  0  0  0  0  0  0999 V2000
   -3.8509    0.1698    0.0016 C   0  0  0  0  0  0  0  0  0  0  0  0
   -2.6625   -0.5210   -0.0192 C   0  0  0  0  0  0  0  0  0  0  0  0
   -4.8633   -0.3582    0.7764 H   0  0  0  0  0  0  0  0  0  0  0  0
   -4.0363    1.4313   -1.2473 H   0  0  0  0  0  0  0  0  0  0  0  0
   -3.7337    0.2287    0.5628 H   0  0  0  0  0  0  0  0  0  0  0  0
   -1.4860    0.2167    0.1108 C   0  0  0  0  0  0  0  0  0  0  0  0
   -2.9047   -1.3032   -0.8682 H   0  0  0  0  0  0  0  0  0  0  0  0
   -2.8751   -1.0475    0.8959 H   0  0  0  0  0  0  0  0  0  0  0  0
   -0.1280   -0.7338    0.0105 C   0  0  0  0  0  0  0  0  0  0  0  0
   -1.7866    1.0154    0.8945 H   0  0  0  0  0  0  0  0  0  0  0  0
   -1.3675    0.9618   -0.8388 H   0  0  0  0  0  0  0  0  0  0  0  0
   -0.0434   -1.1139    0.6899 H   0  0  0  0  0  0  0  0  0  0  0  0
    0.5335   -0.3556    0.1620 H   0  0  0  0  0  0  0  0  0  0  0  0
   -0.3533   -1.5506   -0.9128 H   0  0  0  0  0  0  0  0  0  0  0  0
  1  3  1  0  0  0  0
  2  1  1  0  0  0  0
  2  6  1  0  0  0  0
  2  8  1  0  0  0  0
  6 10  1  0  0  0  0
  7  2  1  0  0  0  0
  9  6  1  0  0  0  0
  9 13  1  0  0  0  0
  9 12  1  0  0  0  0
 11  6  1  0  0  0  0
 14  9  1  0  0  0  0
M  RAD  3   1   3   4   2   5   2
M  END
$$$$
