14
butane_opt
C  -3.918412   0.277449  -0.100331
C  -2.699375  -0.593770   0.166465
H  -4.637387  -0.189943  -0.049354
H  -3.709663   0.674698  -0.739990
H  -3.972738   0.968206   0.839251
C  -1.376549   0.143388   0.057360
H  -2.484017  -0.992461  -0.441955
H  -2.633971  -1.537132   1.141845
C  -0.254779  -0.675252  -0.066964
H  -1.215756   0.730850   0.832565
H  -1.489326   0.754539  -0.777824
H  -0.423383  -0.947077   0.664444
H   0.591598  -0.023535   0.468991
H  -0.088573  -1.733752  -1.179183
