14
butane_opt
C  -3.892841   0.309365   0.160671
C  -2.690665  -0.665517  -0.111489
H  -4.812987  -0.415927  -0.244685
H  -3.972139   0.739959  -0.687146
H  -3.804553   1.281083   1.331099
C  -1.435707   0.154623  -0.091463
H  -2.861192  -1.328151  -1.104142
H  -2.526859  -1.065591   0.592707
C  -0.184305  -0.688118   0.123349
H  -1.554958   0.798507   0.694080
H  -1.073635   0.695010  -0.939093
H  -0.363177  -1.778351   1.527357
H   0.809975  -0.027090  -0.422267
H  -0.400715  -0.684548  -0.242941
