butane_opt
 OpenBabel08242015393D

 14 12  0  0  0  0  0  0  0  0999 V2000
   -3.9812    0.1783    0.1232 C   0  0  0  0  0  0  0  0  0  0  0  0
   -2.7314   -0.5567   -0.0759 C   0  0  0  0  0  0  0  0  0  0  0  0
   -4.8787   -0.2523    0.2129 H   0  0  0  0  0  0  0  0  0  0  0  0
   -4.0269    0.8725   -0.7859 H   0  0  0  0  0  0  0  0  0  0  0  0
   -3.7292    0.9718    1.0929 H   0  0  0  0  0  0  0  0  0  0  0  0
   -1.3988    0.2551   -0.1510 C   0  0  0  0  0  0  0  0  0  0  0  0
   -3.0033   -0.8918   -0.6747 H   0  0  0  0  0  0  0  0  0  0  0  0
   -2.8058   -1.4469    0.9970 H   0  0  0  0  0  0  0  0  0  0  0  0
   -0.1135   -0.7467    0.1329 C   0  0  0  0  0  0  0  0  0  0  0  0
   -1.3752    0.9839    0.6089 H   0  0  0  0  0  0  0  0  0  0  0  0
   -1.1504    1.0079   -1.1584 H   0  0  0  0  0  0  0  0  0  0  0  0
   -0.1331   -1.0366    0.8325 H   0  0  0  0  0  0  0  0  0  0  0  0
    0.6158   -0.2409    0.8744 H   0  0  0  0  0  0  0  0  0  0  0  0
    0.1817   -2.0512   -0.9459 H   0  0  0  0  0  0  0  0  0  0  0  0
  1  3  1  0  0  0  0
  1  5  1  0  0  0  0
  2  1  1  0  0  0  0
  2  8  1  0  0  0  0
  4  1  1  0  0  0  0
  6  2  1  0  0  0  0
  6  9  1  0  0  0  0
  6 10  1  0  0  0  0
  7  2  1  0  0  0  0
  9 12  1  0  0  0  0
  9 13  1  0  0  0  0
 11  6  1  0  0  0  0
M  RAD  2   9   2  14   2
M  END
$$$$
