butane_opt
 OpenBabel08242015403D

 14 10  0  0  0  0  0  0  0  0999 V2000
   -3.8480    0.2487    0.1372 C   0  0  0  0  0  0  0  0  0  0  0  0
   -2.7300   -0.5508   -0.0466 C   0  0  0  0  0  0  0  0  0  0  0  0
   -5.0029   -0.6305   -0.4593 H   0  0  0  0  0  0  0  0  0  0  0  0
   -3.8689    0.3119   -0.2666 H   0  0  0  0  0  0  0  0  0  0  0  0
   -3.8053    1.2440    1.1783 H   0  0  0  0  0  0  0  0  0  0  0  0
   -1.4539    0.2522   -0.1369 C   0  0  0  0  0  0  0  0  0  0  0  0
   -3.0979   -1.1403   -1.0800 H   0  0  0  0  0  0  0  0  0  0  0  0
   -2.7195   -1.1921    0.8319 H   0  0  0  0  0  0  0  0  0  0  0  0
   -0.1198   -0.7605    0.1219 C   0  0  0  0  0  0  0  0  0  0  0  0
   -1.5423    0.7246    0.5429 H   0  0  0  0  0  0  0  0  0  0  0  0
   -1.6354    0.8116   -0.9823 H   0  0  0  0  0  0  0  0  0  0  0  0
   -0.4592   -1.7214    1.1752 H   0  0  0  0  0  0  0  0  0  0  0  0
    0.8204   -0.2115    0.0721 H   0  0  0  0  0  0  0  0  0  0  0  0
    0.1415   -0.9764   -0.4153 H   0  0  0  0  0  0  0  0  0  0  0  0
  1  5  1  0  0  0  0
  2  1  1  0  0  0  0
  2  8  1  0  0  0  0
  6  9  1  0  0  0  0
  6 10  1  0  0  0  0
  7  2  1  0  0  0  0
  9 12  1  0  0  0  0
 11  6  1  0  0  0  0
 13  9  1  0  0  0  0
 14  9  1  0  0  0  0
M  RAD  5   1   3   2   2   3   2   4   2   6   2
M  END
$$$$
