14
butane_opt
C  -3.903138   0.336996   0.101690
C  -2.730974  -0.666545  -0.036780
H  -4.720525  -0.124047  -0.719759
H  -3.839128   0.449485  -0.351093
H  -4.013299   1.431957   1.258677
C  -1.399893   0.080125  -0.086137
H  -2.642432  -1.132386  -0.841222
H  -2.542854  -1.571080   1.068372
C  -0.176978  -0.635213   0.101059
H  -1.306772   0.722654   0.789457
H  -1.386058   0.848873  -1.100569
H  -0.432545  -1.501673   1.135099
H   0.861117   0.150571  -0.119918
H  -0.498073  -1.120171  -0.585191
