butane_opt
 OpenBabel08242015403D

 14 10  0  0  0  0  0  0  0  0999 V2000
   -3.8928    0.3094    0.1607 C   0  0  0  0  0  0  0  0  0  0  0  0
   -2.6907   -0.6655   -0.1115 C   0  0  0  0  0  0  0  0  0  0  0  0
   -4.8130   -0.4159   -0.2447 H   0  0  0  0  0  0  0  0  0  0  0  0
   -3.9721    0.7400   -0.6871 H   0  0  0  0  0  0  0  0  0  0  0  0
   -3.8046    1.2811    1.3311 H   0  0  0  0  0  0  0  0  0  0  0  0
   -1.4357    0.1546   -0.0915 C   0  0  0  0  0  0  0  0  0  0  0  0
   -2.8612   -1.3282   -1.1041 H   0  0  0  0  0  0  0  0  0  0  0  0
   -2.5269   -1.0656    0.5927 H   0  0  0  0  0  0  0  0  0  0  0  0
   -0.1843   -0.6881    0.1233 C   0  0  0  0  0  1  0  0  0  0  0  0
   -1.5550    0.7985    0.6941 H   0  0  0  0  0  0  0  0  0  0  0  0
   -1.0736    0.6950   -0.9391 H   0  0  0  0  0  0  0  0  0  0  0  0
   -0.3632   -1.7784    1.5274 H   0  0  0  0  0  0  0  0  0  0  0  0
    0.8100   -0.0271   -0.4223 H   0  0  0  0  0  0  0  0  0  0  0  0
   -0.4007   -0.6845   -0.2429 H   0  0  0  0  0  0  0  0  0  0  0  0
  2  6  1  0  0  0  0
  2  1  1  0  0  0  0
  2  8  1  0  0  0  0
  3  1  1  0  0  0  0
  4  1  1  0  0  0  0
  6 10  1  0  0  0  0
  7  2  1  0  0  0  0
 11  6  1  0  0  0  0
 13  9  1  0  0  0  0
 14  6  1  0  0  0  0
M  RAD  3   1   2   5   2  12   2
M  END
$$$$
