14
butane_opt
C  -3.909703   0.289567   0.080627
C  -2.642595  -0.679478  -0.086314
H  -4.602749  -0.292193   0.691421
H  -4.455441   1.121671  -0.797499
H  -3.636605   0.878128   0.955585
C  -1.431240   0.157117  -0.071815
H  -2.690819  -1.576592  -1.039822
H  -2.481488  -1.060015   0.633049
C  -0.220312  -0.666104   0.161386
H  -1.366679   0.637541   0.710992
H  -1.258558   1.225800  -1.179742
H  -0.564063  -1.118555   1.009589
H   0.787724   0.044591   0.278579
H  -0.293908  -1.540250  -0.868516
