butane_opt
 OpenBabel08242015403D

 14 11  0  0  0  0  0  0  0  0999 V2000
   -4.0688    0.3311    0.1316 C   0  0  0  0  0  0  0  0  0  0  0  0
   -2.6835   -0.6714   -0.1039 C   0  0  0  0  0  0  0  0  0  0  0  0
   -4.7880   -0.0747   -0.1050 H   0  0  0  0  0  0  0  0  0  0  0  0
   -4.2056    0.5610   -0.5119 H   0  0  0  0  0  0  0  0  0  0  0  0
   -4.1853    1.1855    1.1791 H   0  0  0  0  0  0  0  0  0  0  0  0
   -1.3005    0.1095   -0.0695 C   0  0  0  0  0  0  0  0  0  0  0  0
   -2.5406   -1.4289   -1.1156 H   0  0  0  0  0  0  0  0  0  0  0  0
   -2.7201   -1.2895    0.6845 H   0  0  0  0  0  0  0  0  0  0  0  0
   -0.1674   -0.6245    0.1212 C   0  0  0  0  0  0  0  0  0  0  0  0
   -1.3331    0.8204    0.8707 H   0  0  0  0  0  0  0  0  0  0  0  0
   -1.3251    0.5825   -0.9661 H   0  0  0  0  0  0  0  0  0  0  0  0
   -0.2473   -1.9062    1.4171 H   0  0  0  0  0  0  0  0  0  0  0  0
    0.8873    0.0430   -0.5521 H   0  0  0  0  0  0  0  0  0  0  0  0
    0.0256   -0.6294   -0.3151 H   0  0  0  0  0  0  0  0  0  0  0  0
  1  5  1  0  0  0  0
  2  6  1  0  0  0  0
  2  1  1  0  0  0  0
  2  8  1  0  0  0  0
  3  1  1  0  0  0  0
  4  1  1  0  0  0  0
  6  9  1  0  0  0  0
  6 10  1  0  0  0  0
  7  2  1  0  0  0  0
 11  6  1  0  0  0  0
 13  9  1  0  0  0  0
M  RAD  3   9   3  12   2  14   2
M  END
$$$$
