butane_opt
 OpenBabel08242015393D

 14 10  0  0  0  0  0  0  0  0999 V2000
   -4.0031    0.2991   -0.1241 C   0  0  0  0  0  0  0  0  0  0  0  0
   -2.7270   -0.6589    0.2378 C   0  0  0  0  0  0  0  0  0  0  0  0
   -4.8606   -0.0907    0.0624 H   0  0  0  0  0  0  0  0  0  0  0  0
   -4.0181    1.1612   -1.0718 H   0  0  0  0  0  0  0  0  0  0  0  0
   -4.2089    0.5474    0.4998 H   0  0  0  0  0  0  0  0  0  0  0  0
   -1.3806    0.1197    0.0816 C   0  0  0  0  0  0  0  0  0  0  0  0
   -2.6035   -1.1076   -0.5489 H   0  0  0  0  0  0  0  0  0  0  0  0
   -2.7512   -1.3437    1.2743 H   0  0  0  0  0  0  0  0  0  0  0  0
   -0.1162   -0.6411   -0.0446 C   0  0  0  0  0  1  0  0  0  0  0  0
   -1.3689    0.6159    0.9095 H   0  0  0  0  0  0  0  0  0  0  0  0
   -1.5587    0.8119   -0.7631 H   0  0  0  0  0  0  0  0  0  0  0  0
   -0.0351   -0.3435    0.2400 H   0  0  0  0  0  0  0  0  0  0  0  0
    0.9428    0.0398    0.4699 H   0  0  0  0  0  0  0  0  0  0  0  0
    0.0988   -2.1839   -1.5734 H   0  0  0  0  0  0  0  0  0  0  0  0
  1  3  1  0  0  0  0
  1  2  1  0  0  0  0
  1  5  1  0  0  0  0
  2  8  1  0  0  0  0
  4  1  1  0  0  0  0
  6 12  1  0  0  0  0
  6 10  1  0  0  0  0
  7  2  1  0  0  0  0
  9 13  1  0  0  0  0
 11  6  1  0  0  0  0
M  RAD  3   2   2   6   2  14   2
M  END
$$$$
