14
butane_opt
C  -3.982477   0.228115  -0.147797
C  -2.741855  -0.524370   0.259317
H  -4.998198  -0.519472  -0.699936
H  -3.666771   0.609810  -0.970148
H  -4.111605   1.035838   0.737563
C  -1.422366   0.191516   0.159426
H  -2.485839  -0.966693  -0.600752
H  -2.802612  -1.659374   1.506090
C  -0.120813  -0.718272  -0.139348
H  -1.472661   1.105962   1.177070
H  -1.340096   0.601394  -0.569420
H   0.460018  -1.233247   0.727510
H   0.685892  -0.164375  -0.371544
H  -0.085808  -1.431424  -1.098667
