butane_opt
 OpenBabel08242015393D

 14 11  0  0  0  0  0  0  0  0999 V2000
   -3.9440    0.3578   -0.1364 C   0  0  0  0  0  0  0  0  0  0  0  0
   -2.7257   -0.7549    0.2099 C   0  0  0  0  0  0  0  0  0  0  0  0
   -4.7963   -0.2540   -0.3407 H   0  0  0  0  0  0  0  0  0  0  0  0
   -3.9371    1.0617   -1.0665 H   0  0  0  0  0  0  0  0  0  0  0  0
   -4.4535    0.9309    0.6878 H   0  0  0  0  0  0  0  0  0  0  0  0
   -1.3637    0.1553    0.1738 C   0  0  0  0  0  0  0  0  0  0  0  0
   -2.6481   -1.2774   -0.6163 H   0  0  0  0  0  0  0  0  0  0  0  0
   -2.8028   -1.3423    1.0555 H   0  0  0  0  0  0  0  0  0  0  0  0
   -0.1469   -0.6403   -0.1302 C   0  0  0  0  0  0  0  0  0  0  0  0
   -1.4025    1.2075    1.1948 H   0  0  0  0  0  0  0  0  0  0  0  0
   -1.4291    0.3920   -0.3726 H   0  0  0  0  0  0  0  0  0  0  0  0
    0.2706   -1.6000    1.0045 H   0  0  0  0  0  0  0  0  0  0  0  0
    0.9516    0.0738   -0.6003 H   0  0  0  0  0  0  0  0  0  0  0  0
   -0.6430   -1.0496   -0.8927 H   0  0  0  0  0  0  0  0  0  0  0  0
  1  2  1  0  0  0  0
  1  5  1  0  0  0  0
  2  8  1  0  0  0  0
  3  1  1  0  0  0  0
  4  1  1  0  0  0  0
  6  2  1  0  0  0  0
  6 10  1  0  0  0  0
  7  2  1  0  0  0  0
  9  6  1  0  0  0  0
 13  9  1  0  0  0  0
 14  9  1  0  0  0  0
M  RAD  4   6   2   9   2  11   2  12   2
M  END
$$$$
