butane_opt
 OpenBabel08242015403D

 14 12  0  0  0  0  0  0  0  0999 V2000
   -3.9761    0.3342    0.1520 C   0  0  0  0  0  0  0  0  0  0  0  0
   -2.5980   -0.6717   -0.0900 C   0  0  0  0  0  0  0  0  0  0  0  0
   -5.0288   -0.4342   -0.4607 H   0  0  0  0  0  0  0  0  0  0  0  0
   -3.8653    0.6553   -0.5765 H   0  0  0  0  0  0  0  0  0  0  0  0
   -3.9067    1.5184    1.3348 H   0  0  0  0  0  0  0  0  0  0  0  0
   -1.4183    0.0658   -0.1462 C   0  0  0  0  0  0  0  0  0  0  0  0
   -2.7640   -1.1635   -0.8174 H   0  0  0  0  0  0  0  0  0  0  0  0
   -2.4887   -1.5526    0.9893 H   0  0  0  0  0  0  0  0  0  0  0  0
   -0.2366   -0.6303    0.1694 C   0  0  0  0  0  0  0  0  0  0  0  0
   -1.3727    0.6366    0.7367 H   0  0  0  0  0  0  0  0  0  0  0  0
   -1.2942    0.8849   -1.1850 H   0  0  0  0  0  0  0  0  0  0  0  0
   -0.2676   -1.1556    1.0927 H   0  0  0  0  0  0  0  0  0  0  0  0
    0.8027    0.1737    0.0424 H   0  0  0  0  0  0  0  0  0  0  0  0
   -0.1337   -1.2066   -0.7296 H   0  0  0  0  0  0  0  0  0  0  0  0
  2  1  1  0  0  0  0
  2  8  1  0  0  0  0
  3  1  1  0  0  0  0
  4  1  1  0  0  0  0
  6  2  1  0  0  0  0
  6  9  1  0  0  0  0
  6 10  1  0  0  0  0
  7  2  1  0  0  0  0
  9 12  1  0  0  0  0
 11  6  1  0  0  0  0
 13  9  1  0  0  0  0
 14  9  1  0  0  0  0
M  RAD  2   1   2   5   2
M  END
$$$$
