14
butane_opt
C  -3.990838   0.323185  -0.063230
C  -2.637456  -0.646299   0.145647
H  -4.910473  -0.146047  -0.567785
H  -3.760995   0.696587  -0.728985
H  -3.968873   1.375180   1.091898
C  -1.374999   0.046358   0.050877
H  -2.616155  -1.189175  -0.542837
H  -2.783470  -1.562807   1.396565
C  -0.231252  -0.603616  -0.071521
H  -1.272783   0.777008   0.835440
H  -1.250713   0.721198  -0.819554
H  -0.356080  -1.267966   0.906012
H   0.827348   0.066851   0.205970
H  -0.168903  -1.374984  -1.074924
