14
butane_opt
C  -3.883311   0.214937  -0.161287
C  -2.663621  -0.558896   0.214754
H  -4.974976  -0.526066  -0.152239
H  -3.677735   0.879786  -1.221974
H  -4.083409   0.465038   0.333190
C  -1.425566   0.299600   0.263814
H  -2.646692  -1.290515  -0.723743
H  -2.742172  -1.125561   1.032621
C  -0.209289  -0.745294  -0.109958
H  -1.290781   1.102742   1.201789
H  -1.861289   0.723914  -0.332328
H   0.391382  -1.553083   0.670606
H   0.557489  -0.379768  -1.002444
H  -0.467793  -1.311081  -0.870040
