butane_opt
 OpenBabel08242015403D

 14  9  0  0  0  0  0  0  0  0999 V2000
   -4.0681    0.3550   -0.0572 C   0  0  0  0  0  0  0  0  0  0  0  0
   -2.6539   -0.6729    0.1383 C   0  0  0  0  0  0  0  0  0  0  0  0
   -4.8226   -0.3056    0.2019 H   0  0  0  0  0  0  0  0  0  0  0  0
   -4.2822    1.1933   -1.0365 H   0  0  0  0  0  0  0  0  0  0  0  0
   -3.9403    0.6246    0.5418 H   0  0  0  0  0  0  0  0  0  0  0  0
   -1.3717    0.0710    0.0560 C   0  0  0  0  0  0  0  0  0  0  0  0
   -2.4067   -1.1547   -0.5902 H   0  0  0  0  0  0  0  0  0  0  0  0
   -2.9941   -1.7520    1.4090 H   0  0  0  0  0  0  0  0  0  0  0  0
   -0.1139   -0.5856   -0.0632 C   0  0  0  0  0  1  0  0  0  0  0  0
   -1.2314    0.9036    0.9176 H   0  0  0  0  0  0  0  0  0  0  0  0
   -1.3313    0.6179   -0.8375 H   0  0  0  0  0  0  0  0  0  0  0  0
   -0.4499   -0.5853    0.4177 H   0  0  0  0  0  0  0  0  0  0  0  0
    0.7135   -0.0823    0.7939 H   0  0  0  0  0  0  0  0  0  0  0  0
    0.1783   -1.9285   -1.3501 H   0  0  0  0  0  0  0  0  0  0  0  0
  1  2  1  0  0  0  0
  1  3  1  0  0  0  0
  1  5  1  0  0  0  0
  4  1  1  0  0  0  0
  6 12  1  0  0  0  0
  6 10  1  0  0  0  0
  7  2  1  0  0  0  0
  9 13  1  0  0  0  0
 11  6  1  0  0  0  0
M  RAD  4   2   3   6   2   8   2  14   2
M  END
$$$$
