14
butane_opt
C  -4.018712   0.222895   0.076951
C  -2.693088  -0.585204   0.040131
H  -4.776115  -0.374959  -0.587221
H  -3.681892   0.368823  -0.511998
H  -4.146438   1.351645   1.231486
C  -1.369242   0.217817  -0.098913
H  -2.887178  -1.206879  -0.771143
H  -2.930305  -1.222360   0.993562
C  -0.131788  -0.728283   0.045637
H  -1.074558   1.057900   0.707662
H  -1.532130   1.078333  -1.077964
H  -0.097463  -1.470873   1.141274
H   0.516701  -0.393948   0.208544
H   0.161788  -1.245911  -0.564997
