14
butane_opt
C  -3.937034   0.249660   0.020153
C  -2.709624  -0.611886   0.045494
H  -4.859556  -0.343349  -0.045151
H  -3.963887   0.809628  -0.825380
H  -3.943888   1.016103   0.934808
C  -1.411457   0.205986   0.000663
H  -2.727313  -1.318050  -0.852961
H  -2.743785  -1.232244   0.938314
C  -0.141597  -0.702673   0.038492
H  -1.442902   0.840427   0.825670
H  -1.430970   0.905705  -0.934711
H  -0.097704  -1.321219   0.937053
H   0.723117  -0.156606   0.012943
H  -0.132332  -1.374216  -0.800445
