butane_opt
 OpenBabel08242015393D

 14 11  0  0  0  0  0  0  0  0999 V2000
   -4.0232    0.3383    0.0066 C   0  0  0  0  0  0  0  0  0  0  0  0
   -2.7249   -0.6552   -0.0666 C   0  0  0  0  0  0  0  0  0  0  0  0
   -5.0858   -0.3874    0.5959 H   0  0  0  0  0  0  0  0  0  0  0  0
   -4.4243    1.3004   -1.1154 H   0  0  0  0  0  0  0  0  0  0  0  0
   -3.8135    0.4791    0.4929 H   0  0  0  0  0  0  0  0  0  0  0  0
   -1.3166    0.1564    0.1073 C   0  0  0  0  0  0  0  0  0  0  0  0
   -2.5636   -1.3287   -0.6994 H   0  0  0  0  0  0  0  0  0  0  0  0
   -2.6887   -1.5112    1.0007 H   0  0  0  0  0  0  0  0  0  0  0  0
   -0.1414   -0.6551    0.0047 C   0  0  0  0  0  0  0  0  0  0  0  0
   -1.2723    0.9699    1.1064 H   0  0  0  0  0  0  0  0  0  0  0  0
   -1.3418    0.7105   -0.6823 H   0  0  0  0  0  0  0  0  0  0  0  0
    0.0374   -1.3684    0.9349 H   0  0  0  0  0  0  0  0  0  0  0  0
    0.8860   -0.0134   -0.0561 H   0  0  0  0  0  0  0  0  0  0  0  0
   -0.2991   -1.5011   -0.8130 H   0  0  0  0  0  0  0  0  0  0  0  0
  1  3  1  0  0  0  0
  2  1  1  0  0  0  0
  2  6  1  0  0  0  0
  2  8  1  0  0  0  0
  6 10  1  0  0  0  0
  7  2  1  0  0  0  0
  9  6  1  0  0  0  0
  9 12  1  0  0  0  0
 11  6  1  0  0  0  0
 13  9  1  0  0  0  0
 14  9  1  0  0  0  0
M  RAD  3   1   3   4   2   5   2
M  END
$$$$
