butane_opt
 OpenBabel08242015403D

 14  9  0  0  0  0  0  0  0  0999 V2000
   -3.9540    0.3505   -0.0947 C   0  0  0  0  0  0  0  0  0  0  0  0
   -2.6399   -0.6642    0.2273 C   0  0  0  0  0  0  0  0  0  0  0  0
   -4.9518   -0.2810    0.0965 H   0  0  0  0  0  0  0  0  0  0  0  0
   -3.7459    1.3000   -1.3468 H   0  0  0  0  0  0  0  0  0  0  0  0
   -4.1173    0.4675    0.2668 H   0  0  0  0  0  0  0  0  0  0  0  0
   -1.3551    0.0858    0.1474 C   0  0  0  0  0  0  0  0  0  0  0  0
   -2.5839   -1.3307   -0.4906 H   0  0  0  0  0  0  0  0  0  0  0  0
   -2.5374   -1.1415    1.0744 H   0  0  0  0  0  0  0  0  0  0  0  0
   -0.2814   -0.6715   -0.1242 C   0  0  0  0  0  0  0  0  0  0  0  0
   -1.3170    0.9065    1.0511 H   0  0  0  0  0  0  0  0  0  0  0  0
   -1.1954    0.6156   -0.6460 H   0  0  0  0  0  0  0  0  0  0  0  0
   -0.4635   -0.6928    0.2751 H   0  0  0  0  0  0  0  0  0  0  0  0
    0.8854    0.1484    0.2474 H   0  0  0  0  0  0  0  0  0  0  0  0
   -0.2435   -1.6557   -1.0822 H   0  0  0  0  0  0  0  0  0  0  0  0
  1  3  1  0  0  0  0
  1  2  1  0  0  0  0
  2  8  1  0  0  0  0
  6 12  1  0  0  0  0
  6 10  1  0  0  0  0
  7  2  1  0  0  0  0
  9 13  1  0  0  0  0
 11  6  1  0  0  0  0
 14  9  1  0  0  0  0
M  RAD  6   1   3   2   2   4   2   5   2   6   2   9   3
M  END
$$$$
