14
butane_opt
C  -4.018493   0.306867   0.226385
C  -2.685596  -0.723437  -0.102987
H  -4.618481   0.052585   0.104593
H  -4.199964   0.662451  -0.523894
H  -4.422731   1.109394   1.146768
C  -1.336270   0.152309  -0.267651
H  -2.812608  -1.551528  -1.003806
H  -2.474594  -1.009355   0.626084
C  -0.138163  -0.614459   0.229421
H  -1.639033   0.557979   0.436568
H  -1.173249   0.972594  -1.333863
H  -0.497294  -1.035317   1.113490
H   0.855217  -0.131879   0.570831
H   0.080999  -1.534022  -0.719612
