butane_opt
 OpenBabel08242015403D

 14 11  0  0  0  0  0  0  0  0999 V2000
   -3.9496    0.2214   -0.0786 C   0  0  0  0  0  0  0  0  0  0  0  0
   -2.6882   -0.6037    0.1741 C   0  0  0  0  0  0  0  0  0  0  0  0
   -4.8199   -0.2699    0.3211 H   0  0  0  0  0  0  0  0  0  0  0  0
   -4.0212    1.0560   -1.1109 H   0  0  0  0  0  0  0  0  0  0  0  0
   -4.0347    0.6328    0.6752 H   0  0  0  0  0  0  0  0  0  0  0  0
   -1.4465    0.2879    0.0459 C   0  0  0  0  0  0  0  0  0  0  0  0
   -2.7534   -1.5069   -0.8126 H   0  0  0  0  0  0  0  0  0  0  0  0
   -2.8308   -1.2175    1.2687 H   0  0  0  0  0  0  0  0  0  0  0  0
   -0.1326   -0.7548   -0.0467 C   0  0  0  0  0  0  0  0  0  0  0  0
   -1.3398    0.8813    0.8614 H   0  0  0  0  0  0  0  0  0  0  0  0
   -1.4443    0.9177   -0.8616 H   0  0  0  0  0  0  0  0  0  0  0  0
   -0.2618   -0.8033    0.3910 H   0  0  0  0  0  0  0  0  0  0  0  0
    0.8700   -0.0821    0.5566 H   0  0  0  0  0  0  0  0  0  0  0  0
    0.2381   -1.8718   -1.0584 H   0  0  0  0  0  0  0  0  0  0  0  0
  1  2  1  0  0  0  0
  1  3  1  0  0  0  0
  1  5  1  0  0  0  0
  2  8  1  0  0  0  0
  4  1  1  0  0  0  0
  6  2  1  0  0  0  0
  6 10  1  0  0  0  0
  7  2  1  0  0  0  0
  9  6  1  0  0  0  0
  9 13  1  0  0  0  0
 11  6  1  0  0  0  0
M  RAD  3   9   3  12   2  14   2
M  END
$$$$
