14
butane_opt
C  -3.924924   0.291482   0.163281
C  -2.624840  -0.638927  -0.179700
H  -4.741234  -0.329545   0.274223
H  -4.234054   0.800562  -0.555583
H  -3.990447   1.170109   1.246406
C  -1.393282   0.083654  -0.096710
H  -2.701404  -1.531997  -1.067897
H  -2.520031  -1.118763   0.537204
C  -0.243318  -0.621947   0.155404
H  -1.619359   1.007094   0.801975
H  -1.214529   0.829049  -1.150081
H  -0.422906  -1.897680   1.612834
H   0.755472  -0.029494  -0.337227
H  -0.110388  -0.724972  -0.366481
