butane_opt
 OpenBabel08242015403D

 14 11  0  0  0  0  0  0  0  0999 V2000
   -3.9427    0.3432   -0.0915 C   0  0  0  0  0  0  0  0  0  0  0  0
   -2.6656   -0.6241    0.1084 C   0  0  0  0  0  0  0  0  0  0  0  0
   -4.8606   -0.2044    0.6870 H   0  0  0  0  0  0  0  0  0  0  0  0
   -3.8916    1.6116   -1.4768 H   0  0  0  0  0  0  0  0  0  0  0  0
   -3.9548    0.2198    0.3192 H   0  0  0  0  0  0  0  0  0  0  0  0
   -1.3884    0.0546    0.2195 C   0  0  0  0  0  0  0  0  0  0  0  0
   -2.6770   -1.4647   -0.9332 H   0  0  0  0  0  0  0  0  0  0  0  0
   -2.3572   -1.2864    0.9239 H   0  0  0  0  0  0  0  0  0  0  0  0
   -0.2733   -0.6203   -0.0863 C   0  0  0  0  0  0  0  0  0  0  0  0
   -1.1679    0.7348    1.0213 H   0  0  0  0  0  0  0  0  0  0  0  0
   -1.2942    0.4419   -0.4960 H   0  0  0  0  0  0  0  0  0  0  0  0
   -0.1748   -0.9866    0.5582 H   0  0  0  0  0  0  0  0  0  0  0  0
    0.8651    0.0688   -0.0946 H   0  0  0  0  0  0  0  0  0  0  0  0
   -0.3077   -1.3622   -0.9610 H   0  0  0  0  0  0  0  0  0  0  0  0
  1  2  1  0  0  0  0
  1  3  1  0  0  0  0
  2  6  1  0  0  0  0
  2  8  1  0  0  0  0
  6 10  1  0  0  0  0
  7  2  1  0  0  0  0
  9  6  1  0  0  0  0
  9 12  1  0  0  0  0
 11  6  1  0  0  0  0
 13  9  1  0  0  0  0
 14  9  1  0  0  0  0
M  RAD  3   1   3   4   2   5   2
M  END
$$$$
