butane_opt
 OpenBabel08242015403D

 14 13  0  0  0  0  0  0  0  0999 V2000
   -3.9543    0.2752    0.0429 C   0  0  0  0  0  0  0  0  0  0  0  0
   -2.6998   -0.6269   -0.0076 C   0  0  0  0  0  0  0  0  0  0  0  0
   -4.8593   -0.3020    0.1781 H   0  0  0  0  0  0  0  0  0  0  0  0
   -4.0406    0.9372   -0.8849 H   0  0  0  0  0  0  0  0  0  0  0  0
   -3.9094    0.8975    0.8953 H   0  0  0  0  0  0  0  0  0  0  0  0
   -1.3947    0.1810   -0.0065 C   0  0  0  0  0  0  0  0  0  0  0  0
   -2.7820   -1.3059   -0.8797 H   0  0  0  0  0  0  0  0  0  0  0  0
   -2.7067   -1.2944    0.9057 H   0  0  0  0  0  0  0  0  0  0  0  0
   -0.1595   -0.6850    0.0585 C   0  0  0  0  0  0  0  0  0  0  0  0
   -1.3814    0.8408    0.8443 H   0  0  0  0  0  0  0  0  0  0  0  0
   -1.3373    0.8099   -0.9086 H   0  0  0  0  0  0  0  0  0  0  0  0
   -0.1206   -1.3004    0.9851 H   0  0  0  0  0  0  0  0  0  0  0  0
    0.7193   -0.1074    0.0532 H   0  0  0  0  0  0  0  0  0  0  0  0
   -0.1136   -1.3721   -0.8023 H   0  0  0  0  0  0  0  0  0  0  0  0
  1  3  1  0  0  0  0
  1  5  1  0  0  0  0
  2  6  1  0  0  0  0
  2  1  1  0  0  0  0
  2  8  1  0  0  0  0
  4  1  1  0  0  0  0
  6  9  1  0  0  0  0
  6 10  1  0  0  0  0
  7  2  1  0  0  0  0
  9 12  1  0  0  0  0
 11  6  1  0  0  0  0
 13  9  1  0  0  0  0
 14  9  1  0  0  0  0
M  END
$$$$
