14
butane_opt
C  -3.986691   0.305020   0.160845
C  -2.710331  -0.703893  -0.039735
H  -4.732613   0.031588  -0.582361
H  -3.833955   0.143406  -0.253175
H  -4.423907   1.855017   1.422564
C  -1.353896   0.193006  -0.229340
H  -2.945338  -1.537467  -1.090238
H  -2.533495  -1.405584   0.898308
C  -0.135124  -0.672912   0.162078
H  -1.447114   0.763006   0.702251
H  -0.999236   0.781567  -1.107043
H  -0.382008  -1.663929   1.429747
H   0.784041  -0.127898  -0.115343
H  -0.266989  -0.757599  -0.396691
