14
butane_opt
C  -4.026081   0.185409  -0.094018
C  -2.709758  -0.527833   0.191380
H  -4.944676  -0.332355  -0.009174
H  -3.794652   1.056808  -1.326026
H  -4.010944   0.570446   0.483607
C  -1.422325   0.256837   0.127123
H  -2.694816  -0.843309  -0.304015
H  -2.811399  -1.544007   1.368351
C  -0.070150  -0.734857  -0.074988
H  -1.267279   0.752182   0.836679
H  -1.478567   0.825203  -0.707762
H  -0.123776  -0.550958   0.274645
H   0.717495  -0.199789   0.537721
H   0.140414  -2.389826  -1.640229
