14
butane_opt
C  -3.941730   0.318611  -0.024801
C  -2.641068  -0.700835   0.117980
H  -4.876548  -0.131578   0.219779
H  -3.944820   1.187239  -1.072159
H  -4.293116   0.979059   0.748433
C  -1.369572   0.155141   0.007750
H  -2.580874  -1.507559  -0.659593
H  -2.689278  -1.525547   1.168452
C  -0.257347  -0.644479   0.008351
H  -1.313700   0.662021   0.750791
H  -1.142603   0.833537  -0.918344
H  -0.244453  -0.647483   0.499058
H   0.764101   0.144386   0.521348
H  -0.196843  -1.979909  -1.190555
