14
butane_opt
C  -3.996442   0.317191  -0.050070
C  -2.666766  -0.691097   0.064498
H  -4.945082  -0.154941   0.466507
H  -4.293261   1.428497  -1.222197
H  -4.039159   0.459659   0.404825
C  -1.349257   0.147257   0.169426
H  -2.423824  -1.434841  -0.740760
H  -2.933159  -1.306221   1.072427
C  -0.151730  -0.642937  -0.056503
H  -1.469850   0.863593   1.082618
H  -1.464279   0.775415  -0.852584
H  -0.042350  -1.266232   0.702815
H   0.980258   0.215925   0.158808
H  -0.460988  -1.580693  -1.190141
