butane_opt
 OpenBabel08242015403D

 14 13  0  0  0  0  0  0  0  0999 V2000
   -3.9302    0.3093   -0.1244 C   0  0  0  0  0  0  0  0  0  0  0  0
   -2.7100   -0.6629    0.1287 C   0  0  0  0  0  0  0  0  0  0  0  0
   -4.7824   -0.2945   -0.1348 H   0  0  0  0  0  0  0  0  0  0  0  0
   -3.9393    1.0975   -1.0301 H   0  0  0  0  0  0  0  0  0  0  0  0
   -4.1676    1.0990    0.8208 H   0  0  0  0  0  0  0  0  0  0  0  0
   -1.3978    0.0780    0.1702 C   0  0  0  0  0  0  0  0  0  0  0  0
   -2.4784   -0.9631   -0.5131 H   0  0  0  0  0  0  0  0  0  0  0  0
   -2.7814   -1.4140    1.2310 H   0  0  0  0  0  0  0  0  0  0  0  0
   -0.1862   -0.6366   -0.0939 C   0  0  0  0  0  0  0  0  0  0  0  0
   -1.1600    0.7048    1.1190 H   0  0  0  0  0  0  0  0  0  0  0  0
   -1.5493    0.6246   -0.5313 H   0  0  0  0  0  0  0  0  0  0  0  0
    0.0852   -1.2375    0.6493 H   0  0  0  0  0  0  0  0  0  0  0  0
    0.9642    0.1381   -0.2031 H   0  0  0  0  0  0  0  0  0  0  0  0
   -0.5414   -1.2447   -0.9136 H   0  0  0  0  0  0  0  0  0  0  0  0
  1  2  1  0  0  0  0
  1  5  1  0  0  0  0
  2  6  1  0  0  0  0
  2  8  1  0  0  0  0
  3  1  1  0  0  0  0
  4  1  1  0  0  0  0
  6 10  1  0  0  0  0
  7  2  1  0  0  0  0
  9  6  1  0  0  0  0
  9 12  1  0  0  0  0
 11  6  1  0  0  0  0
 13  9  1  0  0  0  0
 14  9  1  0  0  0  0
M  END
$$$$
