butane_opt
 OpenBabel08242015403D

 14 11  0  0  0  0  0  0  0  0999 V2000
   -3.9908    0.3232   -0.0632 C   0  0  0  0  0  0  0  0  0  0  0  0
   -2.6375   -0.6463    0.1456 C   0  0  0  0  0  0  0  0  0  0  0  0
   -4.9105   -0.1460   -0.5678 H   0  0  0  0  0  0  0  0  0  0  0  0
   -3.7610    0.6966   -0.7290 H   0  0  0  0  0  0  0  0  0  0  0  0
   -3.9689    1.3752    1.0919 H   0  0  0  0  0  0  0  0  0  0  0  0
   -1.3750    0.0464    0.0509 C   0  0  0  0  0  0  0  0  0  0  0  0
   -2.6162   -1.1892   -0.5428 H   0  0  0  0  0  0  0  0  0  0  0  0
   -2.7835   -1.5628    1.3966 H   0  0  0  0  0  0  0  0  0  0  0  0
   -0.2313   -0.6036   -0.0715 C   0  0  0  0  0  0  0  0  0  0  0  0
   -1.2728    0.7770    0.8354 H   0  0  0  0  0  0  0  0  0  0  0  0
   -1.2507    0.7212   -0.8196 H   0  0  0  0  0  0  0  0  0  0  0  0
   -0.3561   -1.2680    0.9060 H   0  0  0  0  0  0  0  0  0  0  0  0
    0.8273    0.0669    0.2060 H   0  0  0  0  0  0  0  0  0  0  0  0
   -0.1689   -1.3750   -1.0749 H   0  0  0  0  0  0  0  0  0  0  0  0
  1  2  1  0  0  0  0
  3  1  1  0  0  0  0
  4  1  1  0  0  0  0
  6  2  1  0  0  0  0
  6 10  1  0  0  0  0
  7  2  1  0  0  0  0
  9  6  1  0  0  0  0
  9 13  1  0  0  0  0
  9 12  1  0  0  0  0
 11  6  1  0  0  0  0
 14  9  1  0  0  0  0
M  RAD  4   1   2   2   2   5   2   8   2
M  END
$$$$
