butane_opt
 OpenBabel08242015393D

 14 11  0  0  0  0  0  0  0  0999 V2000
   -3.8957    0.2325    0.0574 C   0  0  0  0  0  0  0  0  0  0  0  0
   -2.7005   -0.6049    0.0098 C   0  0  0  0  0  0  0  0  0  0  0  0
   -4.8199   -0.4634    0.2056 H   0  0  0  0  0  0  0  0  0  0  0  0
   -4.0042    0.6610   -0.7234 H   0  0  0  0  0  0  0  0  0  0  0  0
   -3.6214    0.9605    1.0783 H   0  0  0  0  0  0  0  0  0  0  0  0
   -1.4408    0.2448   -0.1187 C   0  0  0  0  0  0  0  0  0  0  0  0
   -2.8187   -1.0954   -0.6851 H   0  0  0  0  0  0  0  0  0  0  0  0
   -2.5212   -1.3546    0.9372 H   0  0  0  0  0  0  0  0  0  0  0  0
   -0.1585   -0.7029    0.1116 C   0  0  0  0  0  0  0  0  0  0  0  0
   -1.6514    0.8308    0.4603 H   0  0  0  0  0  0  0  0  0  0  0  0
   -1.5265    1.0177   -1.0980 H   0  0  0  0  0  0  0  0  0  0  0  0
   -0.2641   -0.9581    0.6187 H   0  0  0  0  0  0  0  0  0  0  0  0
    0.4310   -0.3386    0.9153 H   0  0  0  0  0  0  0  0  0  0  0  0
    0.1396   -1.8144   -1.0042 H   0  0  0  0  0  0  0  0  0  0  0  0
  1  3  1  0  0  0  0
  1  5  1  0  0  0  0
  2  1  1  0  0  0  0
  2  8  1  0  0  0  0
  4  1  1  0  0  0  0
  6  2  1  0  0  0  0
  6  9  1  0  0  0  0
  6 10  1  0  0  0  0
  7  2  1  0  0  0  0
  9 13  1  0  0  0  0
 11  6  1  0  0  0  0
M  RAD  3   9   3  12   2  14   2
M  END
$$$$
