butane_opt
 OpenBabel08242015393D

 14 11  0  0  0  0  0  0  0  0999 V2000
   -3.9209    0.1915   -0.1108 C   0  0  0  0  0  0  0  0  0  0  0  0
   -2.7648   -0.5649    0.2227 C   0  0  0  0  0  0  0  0  0  0  0  0
   -4.7843   -0.4009    0.0366 H   0  0  0  0  0  0  0  0  0  0  0  0
   -3.8662    1.1315   -1.2478 H   0  0  0  0  0  0  0  0  0  0  0  0
   -4.0923    0.7017    0.4956 H   0  0  0  0  0  0  0  0  0  0  0  0
   -1.4358    0.2582    0.1625 C   0  0  0  0  0  0  0  0  0  0  0  0
   -2.8043   -1.3102   -0.7339 H   0  0  0  0  0  0  0  0  0  0  0  0
   -2.6990   -1.2949    1.1285 H   0  0  0  0  0  0  0  0  0  0  0  0
   -0.1194   -0.7512   -0.1189 C   0  0  0  0  0  0  0  0  0  0  0  0
   -1.2504    0.8612    1.0654 H   0  0  0  0  0  0  0  0  0  0  0  0
   -1.6765    1.0311   -0.7741 H   0  0  0  0  0  0  0  0  0  0  0  0
   -0.0487   -0.8765    0.4965 H   0  0  0  0  0  0  0  0  0  0  0  0
    0.5891   -0.2694    0.2042 H   0  0  0  0  0  0  0  0  0  0  0  0
    0.5059   -1.6680   -1.1773 H   0  0  0  0  0  0  0  0  0  0  0  0
  1  3  1  0  0  0  0
  1  2  1  0  0  0  0
  1  5  1  0  0  0  0
  2  8  1  0  0  0  0
  4  1  1  0  0  0  0
  6  2  1  0  0  0  0
  6 10  1  0  0  0  0
  7  2  1  0  0  0  0
  9  6  1  0  0  0  0
  9 13  1  0  0  0  0
 11  6  1  0  0  0  0
M  RAD  3   9   3  12   2  14   2
M  END
$$$$
