14
butane_opt
C  -3.941176   0.272736   0.048599
C  -2.690779  -0.629484   0.000518
H  -4.818007  -0.285293   0.177347
H  -4.024048   0.963649  -0.867962
H  -3.913567   0.936545   0.885173
C  -1.402915   0.169091  -0.013768
H  -2.782408  -1.398669  -0.897532
H  -2.688583  -1.206534   0.855336
C  -0.169315  -0.679875   0.060458
H  -1.392699   0.816187   0.806952
H  -1.368815   0.844648  -0.939375
H  -0.238943  -1.317690   0.976603
H   0.740452  -0.078867   0.089988
H  -0.095431  -1.327155  -0.798488
