butane_opt
 OpenBabel08242015403D

 14 11  0  0  0  0  0  0  0  0999 V2000
   -4.0612    0.3157    0.1297 C   0  0  0  0  0  0  0  0  0  0  0  0
   -2.6146   -0.7203   -0.1910 C   0  0  0  0  0  0  0  0  0  0  0  0
   -4.6694   -0.1370    0.5343 H   0  0  0  0  0  0  0  0  0  0  0  0
   -4.5254    1.0759   -0.7956 H   0  0  0  0  0  0  0  0  0  0  0  0
   -3.7145    0.9719    0.9654 H   0  0  0  0  0  0  0  0  0  0  0  0
   -1.3608    0.1704   -0.0673 C   0  0  0  0  0  0  0  0  0  0  0  0
   -2.8780   -1.5291   -1.0670 H   0  0  0  0  0  0  0  0  0  0  0  0
   -2.7004   -1.4300    0.7160 H   0  0  0  0  0  0  0  0  0  0  0  0
   -0.1520   -0.6374    0.1933 C   0  0  0  0  0  0  0  0  0  0  0  0
   -1.3804    0.9417    0.8235 H   0  0  0  0  0  0  0  0  0  0  0  0
   -1.3000    0.7001   -0.9254 H   0  0  0  0  0  0  0  0  0  0  0  0
    0.0859   -1.5838    1.1911 H   0  0  0  0  0  0  0  0  0  0  0  0
    0.7853   -0.0367   -0.2211 H   0  0  0  0  0  0  0  0  0  0  0  0
   -0.4992   -0.9056   -0.5145 H   0  0  0  0  0  0  0  0  0  0  0  0
  1  3  1  0  0  0  0
  1  5  1  0  0  0  0
  2  1  1  0  0  0  0
  2  8  1  0  0  0  0
  4  1  1  0  0  0  0
  6 10  1  0  0  0  0
  7  2  1  0  0  0  0
  9 12  1  0  0  0  0
 11  6  1  0  0  0  0
 13  9  1  0  0  0  0
 14  9  1  0  0  0  0
M  RAD  3   2   2   6   3   9   2
M  END
$$$$
