butane_opt
 OpenBabel08242015403D

 14 11  0  0  0  0  0  0  0  0999 V2000
   -4.0239    0.2935   -0.0399 C   0  0  0  0  0  0  0  0  0  0  0  0
   -2.7221   -0.7139    0.1536 C   0  0  0  0  0  0  0  0  0  0  0  0
   -4.7511   -0.1960    0.3141 H   0  0  0  0  0  0  0  0  0  0  0  0
   -4.1641    1.7172   -1.6174 H   0  0  0  0  0  0  0  0  0  0  0  0
   -3.9778    0.4350    0.4466 H   0  0  0  0  0  0  0  0  0  0  0  0
   -1.3139    0.1994    0.1390 C   0  0  0  0  0  0  0  0  0  0  0  0
   -2.4665   -1.3507   -0.8211 H   0  0  0  0  0  0  0  0  0  0  0  0
   -2.7611   -1.2455    0.9174 H   0  0  0  0  0  0  0  0  0  0  0  0
   -0.1733   -0.6630   -0.0958 C   0  0  0  0  0  0  0  0  0  0  0  0
   -1.0528    0.9389    1.0619 H   0  0  0  0  0  0  0  0  0  0  0  0
   -1.4106    0.6944   -0.6400 H   0  0  0  0  0  0  0  0  0  0  0  0
   -0.2583   -0.9878    0.5809 H   0  0  0  0  0  0  0  0  0  0  0  0
    0.6402   -0.1266    0.3497 H   0  0  0  0  0  0  0  0  0  0  0  0
   -0.0130   -1.7228   -1.1199 H   0  0  0  0  0  0  0  0  0  0  0  0
  1  2  1  0  0  0  0
  1  3  1  0  0  0  0
  2  8  1  0  0  0  0
  6  2  1  0  0  0  0
  6 10  1  0  0  0  0
  7  2  1  0  0  0  0
  9  6  1  0  0  0  0
  9 13  1  0  0  0  0
  9 12  1  0  0  0  0
 11  6  1  0  0  0  0
 14  9  1  0  0  0  0
M  RAD  3   1   3   4   2   5   2
M  END
$$$$
