14
butane_opt
C  -3.836673   0.203493   0.118362
C  -2.673896  -0.556293  -0.067695
H  -4.785635  -0.477055  -0.051199
H  -4.021052   0.748432  -0.822717
H  -4.041122   1.124104   1.156600
C  -1.455363   0.239226  -0.016497
H  -2.997395  -1.452435  -1.195176
H  -2.868366  -0.963012   0.625219
C  -0.179915  -0.737704   0.115886
H  -1.681785   0.755747   0.762094
H  -1.215911   1.005697  -1.103577
H  -0.036891  -1.799897   1.322814
H   0.653615  -0.153753  -0.575393
H  -0.233040  -1.042853  -0.445581
