14
butane_opt
C  -3.914226   0.239210   0.206861
C  -2.696650  -0.559747  -0.018968
H  -4.884008  -0.508915  -0.721060
H  -3.504285   0.226589  -0.291236
H  -4.051237   1.452307   1.293689
C  -1.412787   0.212439  -0.242518
H  -2.972834  -1.270745  -1.054665
H  -2.793454  -0.907134   0.606259
C  -0.133143  -0.755603   0.201952
H  -1.652803   0.714881   0.522469
H  -1.338967   0.950242  -1.325423
H  -0.402595  -1.419907   1.180650
H   0.762326  -0.277040  -0.034040
H  -0.267585  -1.107921  -0.428244
