14
butane_opt
C  -3.901368   0.219226  -0.136390
C  -2.740547  -0.545196   0.265176
H  -5.033943  -0.599265  -0.886473
H  -3.410019   0.503825  -0.817368
H  -4.385052   1.098308   0.825645
C  -1.449286   0.244083   0.143879
H  -2.357271  -0.789163  -0.292664
H  -2.852144  -1.612537   1.338476
C  -0.127262  -0.765529  -0.129832
H  -1.431188   1.114653   1.134330
H  -1.528313   0.731378  -0.673208
H   0.121965  -1.195085   0.631984
H   0.725570  -0.171934  -0.306180
H  -0.213460  -1.449893  -1.216104
