14
butane_opt
C  -3.899704   0.207952   0.234039
C  -2.710608  -0.581626  -0.105035
H  -4.752455  -0.394788  -0.119732
H  -3.696385   0.642435  -0.600436
H  -3.904332   0.981924   1.184511
C  -1.458679   0.222203  -0.218031
H  -2.936107  -1.393994  -1.170475
H  -2.591311  -0.908231   0.653616
C  -0.171664  -0.706245   0.222442
H  -1.752016   0.806099   0.558030
H  -1.317172   1.230179  -1.301979
H  -0.224009  -1.434186   1.123438
H   0.615151  -0.342891   0.232797
H   0.402988  -1.404387  -0.726934
