14
butane_opt
C  -3.949406   0.270948   0.001920
C  -2.701324  -0.635823   0.039087
H  -4.825708  -0.267137   0.180954
H  -4.036936   0.973124  -0.942799
H  -3.942083   0.865952   0.804754
C  -1.410867   0.177475   0.037237
H  -2.659622  -1.336796  -0.812099
H  -2.751788  -1.207541   0.912668
C  -0.148790  -0.686097   0.027325
H  -1.347672   0.873076   0.890028
H  -1.385541   0.819145  -0.864715
H  -0.112724  -1.270008   0.889526
H   0.763618  -0.096871  -0.026624
H  -0.202964  -1.339595  -0.859018
