butane_opt
 OpenBabel08242015403D

 14 13  0  0  0  0  0  0  0  0999 V2000
   -3.9858    0.2162   -0.1156 C   0  0  0  0  0  0  0  0  0  0  0  0
   -2.7197   -0.5772    0.2705 C   0  0  0  0  0  0  0  0  0  0  0  0
   -4.9432   -0.5865   -0.7371 H   0  0  0  0  0  0  0  0  0  0  0  0
   -3.3370    0.5146   -0.8390 H   0  0  0  0  0  0  0  0  0  0  0  0
   -4.6068    0.9697    0.8103 H   0  0  0  0  0  0  0  0  0  0  0  0
   -1.4327    0.2718    0.0900 C   0  0  0  0  0  0  0  0  0  0  0  0
   -2.8224   -0.9539   -0.4008 H   0  0  0  0  0  0  0  0  0  0  0  0
   -2.9267   -1.1073    1.1486 H   0  0  0  0  0  0  0  0  0  0  0  0
   -0.0589   -0.7803   -0.1009 C   0  0  0  0  0  0  0  0  0  0  0  0
   -1.3229    1.0358    1.0213 H   0  0  0  0  0  0  0  0  0  0  0  0
   -1.7324    0.9561   -0.6640 H   0  0  0  0  0  0  0  0  0  0  0  0
    0.2639   -1.2004    0.6401 H   0  0  0  0  0  0  0  0  0  0  0  0
    0.8686   -0.1912   -0.1319 H   0  0  0  0  0  0  0  0  0  0  0  0
   -0.0809   -1.5353   -1.1105 H   0  0  0  0  0  0  0  0  0  0  0  0
  1  2  1  0  0  0  0
  1  5  1  0  0  0  0
  2  8  1  0  0  0  0
  3  1  1  0  0  0  0
  4  1  1  0  0  0  0
  6  2  1  0  0  0  0
  6 10  1  0  0  0  0
  7  2  1  0  0  0  0
  9  6  1  0  0  0  0
  9 12  1  0  0  0  0
 11  6  1  0  0  0  0
 13  9  1  0  0  0  0
 14  9  1  0  0  0  0
M  END
$$$$
