14
butane_opt
C  -3.910171   0.335328   0.150440
C  -2.652500  -0.641102  -0.100918
H  -4.927498  -0.270673   0.281353
H  -4.267551   1.053266  -0.704826
H  -3.618495   0.886896   0.948951
C  -1.383305   0.087321  -0.083283
H  -3.003918  -1.735481  -1.156946
H  -2.567746  -1.065477   0.556916
C  -0.227434  -0.662933   0.127599
H  -1.480545   0.587810   0.581782
H  -1.400744   1.036179  -1.212436
H  -0.596515  -1.405025   1.218706
H   0.959439   0.341082   0.319373
H  -0.094704  -1.279999  -0.541567
