butane_opt
 OpenBabel08242015403D

 14 12  0  0  0  0  0  0  0  0999 V2000
   -3.9125    0.3608   -0.1425 C   0  0  0  0  0  0  0  0  0  0  0  0
   -2.6151   -0.6794    0.1925 C   0  0  0  0  0  0  0  0  0  0  0  0
   -4.8832   -0.4415   -0.1358 H   0  0  0  0  0  0  0  0  0  0  0  0
   -3.6495    1.0400   -1.0695 H   0  0  0  0  0  0  0  0  0  0  0  0
   -4.3484    0.7177    0.4406 H   0  0  0  0  0  0  0  0  0  0  0  0
   -1.4427    0.0726    0.2198 C   0  0  0  0  0  0  0  0  0  0  0  0
   -2.5881   -1.1987   -0.6439 H   0  0  0  0  0  0  0  0  0  0  0  0
   -2.7021   -1.4703    1.1506 H   0  0  0  0  0  0  0  0  0  0  0  0
   -0.2286   -0.6181   -0.1654 C   0  0  0  0  0  0  0  0  0  0  0  0
   -1.3710    1.2776    1.5501 H   0  0  0  0  0  0  0  0  0  0  0  0
   -1.3309    0.3958   -0.5125 H   0  0  0  0  0  0  0  0  0  0  0  0
   -0.0296   -1.4856    0.9671 H   0  0  0  0  0  0  0  0  0  0  0  0
    0.7551    0.0618   -0.6766 H   0  0  0  0  0  0  0  0  0  0  0  0
   -0.5287   -0.9880   -0.8938 H   0  0  0  0  0  0  0  0  0  0  0  0
  1  3  1  0  0  0  0
  1  2  1  0  0  0  0
  1  5  1  0  0  0  0
  2  6  1  0  0  0  0
  2  8  1  0  0  0  0
  4  1  1  0  0  0  0
  7  2  1  0  0  0  0
  9  6  1  0  0  0  0
  9 12  1  0  0  0  0
 11  6  1  0  0  0  0
 13  9  1  0  0  0  0
 14  9  1  0  0  0  0
M  RAD  2   6   2  10   2
M  END
$$$$
