butane_opt
 OpenBabel08242015403D

 14 10  0  0  0  0  0  0  0  0999 V2000
   -3.9731    0.2516    0.0427 C   0  0  0  0  0  0  0  0  0  0  0  0
   -2.7515   -0.6493    0.0651 C   0  0  0  0  0  0  0  0  0  0  0  0
   -4.9556   -0.4319    0.0921 H   0  0  0  0  0  0  0  0  0  0  0  0
   -3.9406    1.0536   -0.9741 H   0  0  0  0  0  0  0  0  0  0  0  0
   -3.9190    0.7523    0.7811 H   0  0  0  0  0  0  0  0  0  0  0  0
   -1.4200    0.2943   -0.0767 C   0  0  0  0  0  0  0  0  0  0  0  0
   -2.7373   -0.9620   -0.4500 H   0  0  0  0  0  0  0  0  0  0  0  0
   -2.7957   -1.4459    1.0342 H   0  0  0  0  0  0  0  0  0  0  0  0
   -0.0919   -0.7157    0.0194 C   0  0  0  0  0  0  0  0  0  0  0  0
   -1.3820    0.8143    0.8299 H   0  0  0  0  0  0  0  0  0  0  0  0
   -1.0890    0.9020   -0.9032 H   0  0  0  0  0  0  0  0  0  0  0  0
   -0.2151   -0.8216    0.5908 H   0  0  0  0  0  0  0  0  0  0  0  0
    0.6387   -0.3386    0.9655 H   0  0  0  0  0  0  0  0  0  0  0  0
    0.2226   -2.2071   -1.2271 H   0  0  0  0  0  0  0  0  0  0  0  0
  1  2  1  0  0  0  0
  1  3  1  0  0  0  0
  1  5  1  0  0  0  0
  2  8  1  0  0  0  0
  4  1  1  0  0  0  0
  6  9  1  0  0  0  0
  6  2  1  0  0  0  0
  6 10  1  0  0  0  0
  9 13  1  0  0  0  0
 11  6  1  0  0  0  0
M  RAD  5   2   2   7   2   9   3  12   2  14   2
M  END
$$$$
