14
butane_opt
C  -3.979073   0.359573   0.172926
C  -2.603866  -0.655932  -0.147391
H  -5.053919  -0.319064  -0.001870
H  -4.125413   0.870535  -0.619464
H  -3.806609   1.065472   1.150003
C  -1.345772   0.094903  -0.078207
H  -2.812923  -1.672634  -1.123827
H  -2.601159  -1.222884   0.644510
C  -0.265201  -0.657280   0.160837
H  -1.648873   0.566196   0.533074
H  -0.965226   0.771461  -1.111658
H  -0.189888  -1.509830   1.361450
H   0.849673   0.249143  -0.256524
H  -0.380884  -0.912623  -0.430001
