14
butane_opt
C  -3.954403   0.219976   0.114802
C  -2.707906  -0.630411  -0.060519
H  -4.834081  -0.349729  -0.302323
H  -4.123040   0.165492  -0.339018
H  -4.111421   1.491719   1.326340
C  -1.445893   0.331659  -0.134359
H  -2.767906  -1.201549  -0.803840
H  -2.741292  -1.244893   0.907103
C  -0.104377  -0.747050   0.127769
H  -1.517975   0.779582   0.583087
H  -1.116515   0.978480  -1.160064
H  -0.090654  -1.797280   1.265942
H   0.901270  -0.226130   0.149144
H  -0.036621  -1.176584  -0.656958
