butane_opt
 OpenBabel08242015403D

 14  9  0  0  0  0  0  0  0  0999 V2000
   -3.8893    0.1878   -0.0121 C   0  0  0  0  0  1  0  0  0  0  0  0
   -2.7150   -0.5194    0.0080 C   0  0  0  0  0  0  0  0  0  0  0  0
   -4.9852   -0.6756    0.8500 H   0  0  0  0  0  0  0  0  0  0  0  0
   -4.0142    1.3644   -1.3163 H   0  0  0  0  0  0  0  0  0  0  0  0
   -3.7588    0.2795    0.5209 H   0  0  0  0  0  0  0  0  0  0  0  0
   -1.4485    0.2302    0.0985 C   0  0  0  0  0  0  0  0  0  0  0  0
   -2.6662   -1.0951   -0.8527 H   0  0  0  0  0  0  0  0  0  0  0  0
   -2.5477   -0.8915    0.7911 H   0  0  0  0  0  0  0  0  0  0  0  0
   -0.1670   -0.7461   -0.0080 C   0  0  0  0  0  0  0  0  0  0  0  0
   -1.5581    1.2328    1.0640 H   0  0  0  0  0  0  0  0  0  0  0  0
   -1.3342    0.5655   -0.6778 H   0  0  0  0  0  0  0  0  0  0  0  0
   -0.0857   -1.4405    0.9334 H   0  0  0  0  0  0  0  0  0  0  0  0
    0.6107   -0.3039   -0.0196 H   0  0  0  0  0  0  0  0  0  0  0  0
    0.0169   -1.3945   -0.9448 H   0  0  0  0  0  0  0  0  0  0  0  0
  1  2  1  0  0  0  0
  2  8  1  0  0  0  0
  6 10  1  0  0  0  0
  7  2  1  0  0  0  0
  9  6  1  0  0  0  0
  9 12  1  0  0  0  0
 11  6  1  0  0  0  0
 13  9  1  0  0  0  0
 14  9  1  0  0  0  0
M  RAD  5   2   2   3   2   4   2   5   2   6   2
M  END
$$$$
