14
butane_opt
C  -3.901624   0.222490  -0.113749
C  -2.683660  -0.540688   0.231818
H  -5.018956  -0.619568  -0.434375
H  -3.423048   0.690270  -1.006473
H  -4.209184   0.898329   0.671948
C  -1.430731   0.225817   0.105653
H  -2.766048  -0.861665  -0.396921
H  -2.566956  -1.529437   1.445234
C  -0.160949  -0.721432  -0.146200
H  -1.495869   1.118666   1.081473
H  -1.646738   0.748911  -0.706276
H  -0.179486  -1.206982   0.724678
H   0.605432  -0.086516   0.388782
H  -0.168927  -1.934925  -1.293460
