butane_opt
 OpenBabel08242015403D

 14 11  0  0  0  0  0  0  0  0999 V2000
   -4.0257    0.2419    0.1741 C   0  0  0  0  0  0  0  0  0  0  0  0
   -2.7245   -0.5927   -0.1148 C   0  0  0  0  0  0  0  0  0  0  0  0
   -5.0417   -0.4641   -0.0045 H   0  0  0  0  0  0  0  0  0  0  0  0
   -3.8320    0.5765   -0.7323 H   0  0  0  0  0  0  0  0  0  0  0  0
   -3.9879    0.9303    1.0546 H   0  0  0  0  0  0  0  0  0  0  0  0
   -1.3698    0.2275   -0.0732 C   0  0  0  0  0  0  0  0  0  0  0  0
   -2.7820   -1.5815   -1.2262 H   0  0  0  0  0  0  0  0  0  0  0  0
   -2.4694   -0.7963    0.5202 H   0  0  0  0  0  0  0  0  0  0  0  0
   -0.0770   -0.7273    0.1401 C   0  0  0  0  0  1  0  0  0  0  0  0
   -1.6796    0.9530    0.8074 H   0  0  0  0  0  0  0  0  0  0  0  0
   -1.2588    1.1412   -1.1544 H   0  0  0  0  0  0  0  0  0  0  0  0
    0.1498   -1.9881    1.4100 H   0  0  0  0  0  0  0  0  0  0  0  0
    0.6204   -0.3009   -0.3422 H   0  0  0  0  0  0  0  0  0  0  0  0
   -0.3381   -0.7803   -0.3194 H   0  0  0  0  0  0  0  0  0  0  0  0
  1  5  1  0  0  0  0
  2  6  1  0  0  0  0
  2  1  1  0  0  0  0
  2  8  1  0  0  0  0
  3  1  1  0  0  0  0
  4  1  1  0  0  0  0
  6 10  1  0  0  0  0
  7  2  1  0  0  0  0
 11  6  1  0  0  0  0
 13  9  1  0  0  0  0
 14  6  1  0  0  0  0
M  RAD  1  12   2
M  END
$$$$
