14
butane_opt
C  -3.925677   0.326769   0.067505
C  -2.644326  -0.628583  -0.103951
H  -4.746260  -0.175922   0.094311
H  -3.686419   0.792199  -0.765516
H  -3.990152   1.036596   1.064733
C  -1.399780   0.085786   0.051553
H  -2.944591  -1.631709  -1.163160
H  -2.720281  -1.131707   0.787002
C  -0.202590  -0.664447   0.119846
H  -1.441868   0.660875   0.799209
H  -1.424891   0.848518  -0.886499
H   0.066405  -1.755956   1.274241
H   0.808033   0.188615  -0.868891
H  -0.915075  -0.672238  -0.429237
