butane_opt
 OpenBabel08242015403D

 14  8  0  0  0  0  0  0  0  0999 V2000
   -3.9261    0.1900    0.1706 C   0  0  0  0  0  1  0  0  0  0  0  0
   -2.7332   -0.5072   -0.0297 C   0  0  0  0  0  0  0  0  0  0  0  0
   -4.9724   -0.4389   -0.6342 H   0  0  0  0  0  0  0  0  0  0  0  0
   -3.8572    0.2038   -0.3472 H   0  0  0  0  0  0  0  0  0  0  0  0
   -3.9930    1.4287    1.4463 H   0  0  0  0  0  0  0  0  0  0  0  0
   -1.4102    0.2175   -0.1852 C   0  0  0  0  0  0  0  0  0  0  0  0
   -3.0150   -1.3403   -0.9758 H   0  0  0  0  0  0  0  0  0  0  0  0
   -2.6310   -1.0079    0.6198 H   0  0  0  0  0  0  0  0  0  0  0  0
   -0.0883   -0.7209    0.1582 C   0  0  0  0  0  0  0  0  0  0  0  0
   -1.6352    0.6014    0.4815 H   0  0  0  0  0  0  0  0  0  0  0  0
   -1.6321    1.2209   -1.3074 H   0  0  0  0  0  0  0  0  0  0  0  0
   -0.4434   -1.8225    1.3139 H   0  0  0  0  0  0  0  0  0  0  0  0
    0.8399   -0.2196    0.2188 H   0  0  0  0  0  0  0  0  0  0  0  0
    0.2195   -1.2816   -0.6713 H   0  0  0  0  0  0  0  0  0  0  0  0
  2  8  1  0  0  0  0
  3  1  1  0  0  0  0
  4  2  1  0  0  0  0
  6  9  1  0  0  0  0
  6 10  1  0  0  0  0
  7  2  1  0  0  0  0
  9 13  1  0  0  0  0
 14  9  1  0  0  0  0
M  RAD  6   2   2   5   2   6   3   9   2  11   2  12   2
M  END
$$$$
