butane_opt
 OpenBabel08242015403D

 14 10  0  0  0  0  0  0  0  0999 V2000
   -3.8663    0.2158   -0.1352 C   0  0  0  0  0  0  0  0  0  0  0  0
   -2.6685   -0.5625    0.1778 C   0  0  0  0  0  0  0  0  0  0  0  0
   -4.7787   -0.4903   -0.0404 H   0  0  0  0  0  0  0  0  0  0  0  0
   -3.8758    1.0339   -1.3696 H   0  0  0  0  0  0  0  0  0  0  0  0
   -3.9178    0.7126    0.5562 H   0  0  0  0  0  0  0  0  0  0  0  0
   -1.4869    0.2364    0.2041 C   0  0  0  0  0  0  0  0  0  0  0  0
   -2.7828   -1.3004   -0.7119 H   0  0  0  0  0  0  0  0  0  0  0  0
   -2.9468   -1.2696    1.2722 H   0  0  0  0  0  0  0  0  0  0  0  0
   -0.1821   -0.7172   -0.1444 C   0  0  0  0  0  0  0  0  0  0  0  0
   -1.4964    1.3794    1.3988 H   0  0  0  0  0  0  0  0  0  0  0  0
   -1.5421    0.4069   -0.4001 H   0  0  0  0  0  0  0  0  0  0  0  0
    0.3623   -1.7536    0.8915 H   0  0  0  0  0  0  0  0  0  0  0  0
    0.6656   -0.1043   -0.5947 H   0  0  0  0  0  0  0  0  0  0  0  0
   -0.2755   -1.1217   -0.7991 H   0  0  0  0  0  0  0  0  0  0  0  0
  1  3  1  0  0  0  0
  1  2  1  0  0  0  0
  1  5  1  0  0  0  0
  2  6  1  0  0  0  0
  2  8  1  0  0  0  0
  4  1  1  0  0  0  0
  7  2  1  0  0  0  0
  9  6  1  0  0  0  0
 13  9  1  0  0  0  0
 14  9  1  0  0  0  0
M  RAD  5   6   3   9   2  10   2  11   2  12   2
M  END
$$$$
