butane_opt
 OpenBabel08242015403D

 14 12  0  0  0  0  0  0  0  0999 V2000
   -3.9101    0.2434    0.1067 C   0  0  0  0  0  0  0  0  0  0  0  0
   -2.7100   -0.5427   -0.1381 C   0  0  0  0  0  0  0  0  0  0  0  0
   -4.8673   -0.4101    0.5112 H   0  0  0  0  0  0  0  0  0  0  0  0
   -3.9216    0.8188   -0.8144 H   0  0  0  0  0  0  0  0  0  0  0  0
   -3.5192    0.8628    0.9551 H   0  0  0  0  0  0  0  0  0  0  0  0
   -1.4035    0.1861    0.0304 C   0  0  0  0  0  0  0  0  0  0  0  0
   -2.9902   -1.4629   -1.2802 H   0  0  0  0  0  0  0  0  0  0  0  0
   -2.6707   -0.9980    0.5013 H   0  0  0  0  0  0  0  0  0  0  0  0
   -0.1756   -0.7211    0.1182 C   0  0  0  0  0  0  0  0  0  0  0  0
   -1.5839    0.7134    0.6561 H   0  0  0  0  0  0  0  0  0  0  0  0
   -1.4878    1.1266   -1.0110 H   0  0  0  0  0  0  0  0  0  0  0  0
   -0.0921   -2.0020    1.3938 H   0  0  0  0  0  0  0  0  0  0  0  0
    0.8746    0.0089   -0.3100 H   0  0  0  0  0  0  0  0  0  0  0  0
   -0.4007   -1.0908   -0.4953 H   0  0  0  0  0  0  0  0  0  0  0  0
  1  3  1  0  0  0  0
  1  5  1  0  0  0  0
  2  6  1  0  0  0  0
  2  1  1  0  0  0  0
  2  8  1  0  0  0  0
  4  1  1  0  0  0  0
  6  9  1  0  0  0  0
  6 10  1  0  0  0  0
  7  2  1  0  0  0  0
 11  6  1  0  0  0  0
 13  9  1  0  0  0  0
 14  9  1  0  0  0  0
M  RAD  2   9   2  12   2
M  END
$$$$
