butane_opt
 OpenBabel08242015403D

 14 10  0  0  0  0  0  0  0  0999 V2000
   -3.9645    0.1816   -0.0661 C   0  0  0  0  0  0  0  0  0  0  0  0
   -2.7243   -0.5086    0.0713 C   0  0  0  0  0  0  0  0  0  0  0  0
   -4.8915   -0.3949    0.6188 H   0  0  0  0  0  0  0  0  0  0  0  0
   -4.0825    1.2902   -1.2497 H   0  0  0  0  0  0  0  0  0  0  0  0
   -3.9976    0.3052    0.4876 H   0  0  0  0  0  0  0  0  0  0  0  0
   -1.4368    0.2041    0.0840 C   0  0  0  0  0  0  0  0  0  0  0  0
   -2.7554   -1.1602   -0.7258 H   0  0  0  0  0  0  0  0  0  0  0  0
   -2.7994   -1.1261    1.0121 H   0  0  0  0  0  0  0  0  0  0  0  0
   -0.0701   -0.7607   -0.0463 C   0  0  0  0  0  0  0  0  0  0  0  0
   -1.2976    1.4594    1.3231 H   0  0  0  0  0  0  0  0  0  0  0  0
   -1.4464    0.6057   -0.4390 H   0  0  0  0  0  0  0  0  0  0  0  0
   -0.0289   -1.3336    0.9175 H   0  0  0  0  0  0  0  0  0  0  0  0
    0.8016   -0.2071   -0.0783 H   0  0  0  0  0  0  0  0  0  0  0  0
   -0.1190   -1.3543   -0.9938 H   0  0  0  0  0  0  0  0  0  0  0  0
  1  2  1  0  0  0  0
  1  3  1  0  0  0  0
  2  6  1  0  0  0  0
  2  8  1  0  0  0  0
  7  2  1  0  0  0  0
  9  6  1  0  0  0  0
  9 12  1  0  0  0  0
 11  6  1  0  0  0  0
 13  9  1  0  0  0  0
 14  9  1  0  0  0  0
M  RAD  5   1   3   4   2   5   2   6   2  10   2
M  END
$$$$
