butane_opt
 OpenBabel08242015403D

 14 11  0  0  0  0  0  0  0  0999 V2000
   -3.8969    0.3159    0.0726 C   0  0  0  0  0  0  0  0  0  0  0  0
   -2.6205   -0.6851   -0.0262 C   0  0  0  0  0  0  0  0  0  0  0  0
   -4.7382   -0.1690   -0.4113 H   0  0  0  0  0  0  0  0  0  0  0  0
   -3.9968    0.0416   -0.0956 H   0  0  0  0  0  0  0  0  0  0  0  0
   -3.8444    1.6477    1.3985 H   0  0  0  0  0  0  0  0  0  0  0  0
   -1.4557    0.1501   -0.1430 C   0  0  0  0  0  0  0  0  0  0  0  0
   -2.8496   -1.2795   -0.9277 H   0  0  0  0  0  0  0  0  0  0  0  0
   -2.6549   -1.3768    0.8877 H   0  0  0  0  0  0  0  0  0  0  0  0
   -0.2328   -0.6512    0.1348 C   0  0  0  0  0  0  0  0  0  0  0  0
   -1.5475    0.5783    0.4829 H   0  0  0  0  0  0  0  0  0  0  0  0
   -1.4600    0.9202   -1.0877 H   0  0  0  0  0  0  0  0  0  0  0  0
   -0.1004   -1.4544    1.2590 H   0  0  0  0  0  0  0  0  0  0  0  0
    0.7974    0.0167    0.0351 H   0  0  0  0  0  0  0  0  0  0  0  0
   -0.2193   -0.9355   -0.4458 H   0  0  0  0  0  0  0  0  0  0  0  0
  2  1  1  0  0  0  0
  2  8  1  0  0  0  0
  3  1  1  0  0  0  0
  6  2  1  0  0  0  0
  6  9  1  0  0  0  0
  6 10  1  0  0  0  0
  7  2  1  0  0  0  0
  9 12  1  0  0  0  0
 11  6  1  0  0  0  0
 13  9  1  0  0  0  0
 14  9  1  0  0  0  0
M  RAD  3   1   3   4   2   5   2
M  END
$$$$
