butane_opt
 OpenBabel08242015403D

 14 10  0  0  0  0  0  0  0  0999 V2000
   -3.9017    0.3655   -0.1071 C   0  0  0  0  0  0  0  0  0  0  0  0
   -2.6414   -0.7303    0.0920 C   0  0  0  0  0  0  0  0  0  0  0  0
   -4.7841   -0.2723    0.4691 H   0  0  0  0  0  0  0  0  0  0  0  0
   -4.0645    1.4444   -1.3357 H   0  0  0  0  0  0  0  0  0  0  0  0
   -3.7231    0.5086    0.3639 H   0  0  0  0  0  0  0  0  0  0  0  0
   -1.4015    0.1253    0.1681 C   0  0  0  0  0  0  0  0  0  0  0  0
   -2.6008   -1.2386   -0.6313 H   0  0  0  0  0  0  0  0  0  0  0  0
   -2.7297   -1.5619    1.1925 H   0  0  0  0  0  0  0  0  0  0  0  0
   -0.2618   -0.5881   -0.0569 C   0  0  0  0  0  0  0  0  0  0  0  0
   -1.1870    1.0128    1.3579 H   0  0  0  0  0  0  0  0  0  0  0  0
   -1.4724    0.5497   -0.5141 H   0  0  0  0  0  0  0  0  0  0  0  0
   -0.2318   -1.1253    0.7740 H   0  0  0  0  0  0  0  0  0  0  0  0
    0.7081   -0.0279   -0.2666 H   0  0  0  0  0  0  0  0  0  0  0  0
   -0.5177   -1.7888   -1.2291 H   0  0  0  0  0  0  0  0  0  0  0  0
  1  2  1  0  0  0  0
  1  3  1  0  0  0  0
  2  6  1  0  0  0  0
  2  8  1  0  0  0  0
  6 10  1  0  0  0  0
  7  2  1  0  0  0  0
  9  6  1  0  0  0  0
  9 12  1  0  0  0  0
 11  6  1  0  0  0  0
 13  9  1  0  0  0  0
M  RAD  5   1   3   4   2   5   2   9   2  14   2
M  END
$$$$
