14
butane_opt
C  -3.826643   0.169896  -0.084617
C  -2.715364  -0.535768   0.159096
H  -4.840759  -0.386862  -0.376157
H  -3.801485   0.669377  -0.914828
H  -3.932383   0.988637   0.729862
C  -1.479830   0.296743   0.101437
H  -2.660759  -1.124855  -0.610385
H  -2.866235  -1.164883   1.085489
C  -0.156361  -0.796083  -0.078810
H  -1.257605   1.275418   1.102508
H  -1.585820   0.596555  -0.494153
H  -0.099091  -1.615075   0.985179
H   0.669731  -0.295166  -0.522816
H  -0.423602  -1.087323  -0.682659
