14
butane_opt
C  -3.912606   0.336605  -0.163482
C  -2.653094  -0.668657   0.302406
H  -5.050755  -0.353214  -0.486967
H  -3.666794   0.736666  -0.963799
H  -4.095121   1.318842   0.789536
C  -1.386998   0.077246   0.117197
H  -2.420703  -1.185271  -0.621071
H  -2.830098  -1.568443   1.436807
C  -0.258813  -0.640821  -0.160383
H  -1.350421   1.045179   1.133614
H  -1.557165   0.553977  -0.684545
H  -0.152048  -1.057679   0.684875
H   0.844860   0.081022   0.093903
H  -0.240392  -1.306070  -1.059990
