butane_opt
 OpenBabel08242015403D

 14  9  0  0  0  0  0  0  0  0999 V2000
   -3.9456    0.3067   -0.1285 C   0  0  0  0  0  0  0  0  0  0  0  0
   -2.7618   -0.6314    0.1802 C   0  0  0  0  0  0  0  0  0  0  0  0
   -4.8036   -0.1407    0.6738 H   0  0  0  0  0  0  0  0  0  0  0  0
   -4.3600    1.6239   -1.4179 H   0  0  0  0  0  0  0  0  0  0  0  0
   -4.1019    0.2735    0.2003 H   0  0  0  0  0  0  0  0  0  0  0  0
   -1.3531    0.0887    0.2066 C   0  0  0  0  0  0  0  0  0  0  0  0
   -2.4935   -1.3783   -0.7804 H   0  0  0  0  0  0  0  0  0  0  0  0
   -2.7980   -1.2717    1.1535 H   0  0  0  0  0  0  0  0  0  0  0  0
   -0.1405   -0.6599   -0.1414 C   0  0  0  0  0  0  0  0  0  0  0  0
   -1.2509    0.9109    1.1827 H   0  0  0  0  0  0  0  0  0  0  0  0
   -1.3298    0.7156   -0.6651 H   0  0  0  0  0  0  0  0  0  0  0  0
   -0.2592   -0.8946    0.5058 H   0  0  0  0  0  0  0  0  0  0  0  0
    0.9719    0.0787    0.5091 H   0  0  0  0  0  0  0  0  0  0  0  0
   -0.1872   -1.6309   -1.4073 H   0  0  0  0  0  0  0  0  0  0  0  0
  1  2  1  0  0  0  0
  1  3  1  0  0  0  0
  2  8  1  0  0  0  0
  6 10  1  0  0  0  0
  7  2  1  0  0  0  0
  9  6  1  0  0  0  0
  9 12  1  0  0  0  0
  9 13  1  0  0  0  0
 11  6  1  0  0  0  0
M  RAD  7   1   3   2   2   4   2   5   2   6   2   9   2  14   2
M  END
$$$$
