14
butane_opt
C  -3.961269   0.247912  -0.122409
C  -2.784191  -0.588929   0.189324
H  -4.962267  -0.401418  -0.250449
H  -3.660470   0.554783  -1.007753
H  -4.198555   1.134452   0.870721
C  -1.404202   0.219537   0.173859
H  -2.643015  -1.191177  -0.463931
H  -2.932135  -1.166372   1.099499
C  -0.097648  -0.751727  -0.092243
H  -1.354073   0.793686   0.882678
H  -1.440271   1.134041  -0.888910
H   0.238853  -1.249825   0.626408
H   0.989932  -0.101889  -0.220603
H  -0.108691  -1.498242  -0.957186
