butane_opt
 OpenBabel08242015403D

 14  9  0  0  0  0  0  0  0  0999 V2000
   -3.9963    0.2273   -0.1047 C   0  0  0  0  0  0  0  0  0  0  0  0
   -2.7186   -0.5764    0.1273 C   0  0  0  0  0  0  0  0  0  0  0  0
   -4.9170   -0.4140    0.5816 H   0  0  0  0  0  0  0  0  0  0  0  0
   -4.4641    1.5568   -1.3931 H   0  0  0  0  0  0  0  0  0  0  0  0
   -3.7275    0.3258    0.4649 H   0  0  0  0  0  0  0  0  0  0  0  0
   -1.3704    0.2361    0.1137 C   0  0  0  0  0  0  0  0  0  0  0  0
   -2.7217   -1.3387   -0.7023 H   0  0  0  0  0  0  0  0  0  0  0  0
   -2.8722   -1.3591    1.2473 H   0  0  0  0  0  0  0  0  0  0  0  0
   -0.0527   -0.7174   -0.0882 C   0  0  0  0  0  0  0  0  0  0  0  0
   -1.5239    1.2173    1.2804 H   0  0  0  0  0  0  0  0  0  0  0  0
   -1.6180    0.4664   -0.5665 H   0  0  0  0  0  0  0  0  0  0  0  0
   -0.2876   -1.0514    0.7291 H   0  0  0  0  0  0  0  0  0  0  0  0
    0.9051   -0.2145    0.3226 H   0  0  0  0  0  0  0  0  0  0  0  0
   -0.1029   -1.6742   -1.2246 H   0  0  0  0  0  0  0  0  0  0  0  0
  1  5  1  0  0  0  0
  1  3  1  0  0  0  0
  2  8  1  0  0  0  0
  7  2  1  0  0  0  0
  9  6  1  0  0  0  0
  9 13  1  0  0  0  0
  9 12  1  0  0  0  0
 11  6  1  0  0  0  0
 14  9  1  0  0  0  0
M  RAD  5   1   3   2   3   4   2   6   3  10   2
M  END
$$$$
