butane_opt
 OpenBabel08242015403D

 14 13  0  0  0  0  0  0  0  0999 V2000
   -3.8416    0.2069    0.1250 C   0  0  0  0  0  0  0  0  0  0  0  0
   -2.6732   -0.5694   -0.0701 C   0  0  0  0  0  0  0  0  0  0  0  0
   -4.7882   -0.4281    0.2713 H   0  0  0  0  0  0  0  0  0  0  0  0
   -4.1870    0.6999   -0.6636 H   0  0  0  0  0  0  0  0  0  0  0  0
   -3.9426    0.9603    1.0278 H   0  0  0  0  0  0  0  0  0  0  0  0
   -1.4362    0.2152   -0.1423 C   0  0  0  0  0  0  0  0  0  0  0  0
   -2.7772   -1.2076   -0.9367 H   0  0  0  0  0  0  0  0  0  0  0  0
   -2.6095   -1.1059    0.8518 H   0  0  0  0  0  0  0  0  0  0  0  0
   -0.2019   -0.7241    0.0967 C   0  0  0  0  0  0  0  0  0  0  0  0
   -1.7892    0.9128    0.8342 H   0  0  0  0  0  0  0  0  0  0  0  0
   -1.4658    0.9284   -1.0272 H   0  0  0  0  0  0  0  0  0  0  0  0
   -0.6061   -1.2477    1.0899 H   0  0  0  0  0  0  0  0  0  0  0  0
    0.7296   -0.2893    0.4112 H   0  0  0  0  0  0  0  0  0  0  0  0
    0.3001   -1.2712   -0.5478 H   0  0  0  0  0  0  0  0  0  0  0  0
  1  3  1  0  0  0  0
  1  5  1  0  0  0  0
  2  1  1  0  0  0  0
  2  8  1  0  0  0  0
  4  1  1  0  0  0  0
  6  2  1  0  0  0  0
  6  9  1  0  0  0  0
  6 10  1  0  0  0  0
  7  2  1  0  0  0  0
  9 13  1  0  0  0  0
  9 12  1  0  0  0  0
 11  6  1  0  0  0  0
 14  9  1  0  0  0  0
M  END
$$$$
