butane_opt
 OpenBabel08242015403D

 14 13  0  0  0  0  0  0  0  0999 V2000
   -3.9265    0.2539    0.0089 C   0  0  0  0  0  0  0  0  0  0  0  0
   -2.6941   -0.6118    0.0491 C   0  0  0  0  0  0  0  0  0  0  0  0
   -4.8383   -0.3388    0.0535 H   0  0  0  0  0  0  0  0  0  0  0  0
   -3.9704    0.9150   -0.8971 H   0  0  0  0  0  0  0  0  0  0  0  0
   -3.9482    0.8857    0.8640 H   0  0  0  0  0  0  0  0  0  0  0  0
   -1.4211    0.1913    0.0221 C   0  0  0  0  0  0  0  0  0  0  0  0
   -2.6919   -1.2445   -0.7770 H   0  0  0  0  0  0  0  0  0  0  0  0
   -2.7762   -1.2325    0.9268 H   0  0  0  0  0  0  0  0  0  0  0  0
   -0.1579   -0.6958    0.0254 C   0  0  0  0  0  0  0  0  0  0  0  0
   -1.4138    0.8402    0.8368 H   0  0  0  0  0  0  0  0  0  0  0  0
   -1.4215    0.8619   -0.8806 H   0  0  0  0  0  0  0  0  0  0  0  0
   -0.1605   -1.2438    0.8942 H   0  0  0  0  0  0  0  0  0  0  0  0
    0.7197   -0.1235    0.0630 H   0  0  0  0  0  0  0  0  0  0  0  0
   -0.1229   -1.4537   -0.9200 H   0  0  0  0  0  0  0  0  0  0  0  0
  1  2  1  0  0  0  0
  1  3  1  0  0  0  0
  1  5  1  0  0  0  0
  2  8  1  0  0  0  0
  4  1  1  0  0  0  0
  6  9  1  0  0  0  0
  6  2  1  0  0  0  0
  6 10  1  0  0  0  0
  7  2  1  0  0  0  0
  9 13  1  0  0  0  0
  9 12  1  0  0  0  0
 11  6  1  0  0  0  0
 14  9  1  0  0  0  0
M  END
$$$$
