butane_opt
 OpenBabel08242015403D

 14 13  0  0  0  0  0  0  0  0999 V2000
   -3.9632    0.2843    0.1445 C   0  0  0  0  0  0  0  0  0  0  0  0
   -2.6660   -0.5954   -0.1874 C   0  0  0  0  0  0  0  0  0  0  0  0
   -4.8881   -0.4132    1.0380 H   0  0  0  0  0  0  0  0  0  0  0  0
   -4.2019    1.2779   -0.9786 H   0  0  0  0  0  0  0  0  0  0  0  0
   -3.3846    0.6276    0.8742 H   0  0  0  0  0  0  0  0  0  0  0  0
   -1.3573    0.1314   -0.0424 C   0  0  0  0  0  0  0  0  0  0  0  0
   -2.5456   -1.4552   -1.3021 H   0  0  0  0  0  0  0  0  0  0  0  0
   -2.6830   -1.0966    0.5797 H   0  0  0  0  0  0  0  0  0  0  0  0
   -0.2172   -0.7002    0.1650 C   0  0  0  0  0  0  0  0  0  0  0  0
   -1.6209    0.7103    0.7526 H   0  0  0  0  0  0  0  0  0  0  0  0
   -1.2033    0.8735   -1.0551 H   0  0  0  0  0  0  0  0  0  0  0  0
   -0.4411   -1.2987    1.0877 H   0  0  0  0  0  0  0  0  0  0  0  0
    0.6588   -0.0495    0.0984 H   0  0  0  0  0  0  0  0  0  0  0  0
   -0.2535   -1.0735   -0.6089 H   0  0  0  0  0  0  0  0  0  0  0  0
  1  5  1  0  0  0  0
  1  3  1  0  0  0  0
  2  6  1  0  0  0  0
  2  1  1  0  0  0  0
  2  8  1  0  0  0  0
  4  1  1  0  0  0  0
  6  9  1  0  0  0  0
  6 10  1  0  0  0  0
  7  2  1  0  0  0  0
  9 12  1  0  0  0  0
 11  6  1  0  0  0  0
 13  9  1  0  0  0  0
 14  9  1  0  0  0  0
M  END
$$$$
