butane_opt
 OpenBabel08242015403D

 14 12  0  0  0  0  0  0  0  0999 V2000
   -4.0165    0.3021    0.1973 C   0  0  0  0  0  0  0  0  0  0  0  0
   -2.6992   -0.7149   -0.2380 C   0  0  0  0  0  0  0  0  0  0  0  0
   -4.6880   -0.0999    0.7972 H   0  0  0  0  0  0  0  0  0  0  0  0
   -4.5697    1.1399   -0.8787 H   0  0  0  0  0  0  0  0  0  0  0  0
   -3.9216    0.9002    1.1281 H   0  0  0  0  0  0  0  0  0  0  0  0
   -1.3511    0.1655   -0.0819 C   0  0  0  0  0  0  0  0  0  0  0  0
   -2.5946   -1.7207   -1.3493 H   0  0  0  0  0  0  0  0  0  0  0  0
   -2.5976   -1.2058    0.4566 H   0  0  0  0  0  0  0  0  0  0  0  0
   -0.1068   -0.6631    0.2123 C   0  0  0  0  0  0  0  0  0  0  0  0
   -1.4376    0.6429    0.6085 H   0  0  0  0  0  0  0  0  0  0  0  0
   -1.2608    1.2493   -1.2246 H   0  0  0  0  0  0  0  0  0  0  0  0
   -0.2876   -1.3575    1.2395 H   0  0  0  0  0  0  0  0  0  0  0  0
    0.7846   -0.0410    0.0253 H   0  0  0  0  0  0  0  0  0  0  0  0
   -0.3350   -1.0169   -0.3903 H   0  0  0  0  0  0  0  0  0  0  0  0
  1  3  1  0  0  0  0
  1  5  1  0  0  0  0
  2  6  1  0  0  0  0
  2  1  1  0  0  0  0
  2  8  1  0  0  0  0
  4  1  1  0  0  0  0
  6  9  1  0  0  0  0
  6 10  1  0  0  0  0
  7  2  1  0  0  0  0
  9 12  1  0  0  0  0
 13  9  1  0  0  0  0
 14  9  1  0  0  0  0
M  RAD  2   6   2  11   2
M  END
$$$$
