butane_opt
 OpenBabel08242015403D

 14 11  0  0  0  0  0  0  0  0999 V2000
   -3.9989    0.3505    0.1312 C   0  0  0  0  0  0  0  0  0  0  0  0
   -2.7175   -0.7673   -0.0749 C   0  0  0  0  0  0  0  0  0  0  0  0
   -4.5617   -0.0073    0.3137 H   0  0  0  0  0  0  0  0  0  0  0  0
   -4.2016    0.7317   -0.5990 H   0  0  0  0  0  0  0  0  0  0  0  0
   -3.8687    1.1968    1.2293 H   0  0  0  0  0  0  0  0  0  0  0  0
   -1.3756    0.1600   -0.1505 C   0  0  0  0  0  0  0  0  0  0  0  0
   -2.8822   -1.4359   -0.9893 H   0  0  0  0  0  0  0  0  0  0  0  0
   -2.5679   -1.1204    0.6697 H   0  0  0  0  0  0  0  0  0  0  0  0
   -0.1508   -0.6405    0.2044 C   0  0  0  0  0  0  0  0  0  0  0  0
   -1.3089    0.4512    0.3389 H   0  0  0  0  0  0  0  0  0  0  0  0
   -1.0449    1.0485   -1.4227 H   0  0  0  0  0  0  0  0  0  0  0  0
   -0.4507   -1.0093    0.7996 H   0  0  0  0  0  0  0  0  0  0  0  0
    0.7544    0.0194    0.5525 H   0  0  0  0  0  0  0  0  0  0  0  0
   -0.0254   -1.5392   -0.7615 H   0  0  0  0  0  0  0  0  0  0  0  0
  1  3  1  0  0  0  0
  1  5  1  0  0  0  0
  2  1  1  0  0  0  0
  2  8  1  0  0  0  0
  4  1  1  0  0  0  0
  6  2  1  0  0  0  0
  6  9  1  0  0  0  0
  7  2  1  0  0  0  0
  9 13  1  0  0  0  0
  9 12  1  0  0  0  0
 14  9  1  0  0  0  0
M  RAD  3   6   3  10   2  11   2
M  END
$$$$
