14
butane_opt
C  -3.889285   0.187791  -0.012134
C  -2.714951  -0.519353   0.008019
H  -4.985157  -0.675645   0.849984
H  -4.014211   1.364378  -1.316347
H  -3.758831   0.279524   0.520891
C  -1.448472   0.230174   0.098523
H  -2.666155  -1.095103  -0.852726
H  -2.547719  -0.891527   0.791084
C  -0.167007  -0.746139  -0.007979
H  -1.558086   1.232838   1.063995
H  -1.334200   0.565458  -0.677849
H  -0.085731  -1.440457   0.933434
H   0.610708  -0.303914  -0.019598
H   0.016938  -1.394497  -0.944786
