14
butane_opt
C  -3.945635   0.306680  -0.128469
C  -2.761789  -0.631431   0.180210
H  -4.803568  -0.140728   0.673838
H  -4.360017   1.623930  -1.417880
H  -4.101942   0.273534   0.200279
C  -1.353080   0.088697   0.206590
H  -2.493508  -1.378281  -0.780400
H  -2.797969  -1.271712   1.153501
C  -0.140549  -0.659885  -0.141376
H  -1.250925   0.910905   1.182673
H  -1.329769   0.715574  -0.665118
H  -0.259216  -0.894571   0.505813
H   0.971937   0.078666   0.509101
H  -0.187182  -1.630853  -1.407308
