butane_opt
 OpenBabel08242015403D

 14 12  0  0  0  0  0  0  0  0999 V2000
   -3.9353    0.2406   -0.0077 C   0  0  0  0  0  0  0  0  0  0  0  0
   -2.7180   -0.5508    0.1010 C   0  0  0  0  0  0  0  0  0  0  0  0
   -5.0024   -0.6162    0.4137 H   0  0  0  0  0  0  0  0  0  0  0  0
   -3.9404    1.0079   -1.0004 H   0  0  0  0  0  0  0  0  0  0  0  0
   -3.6760    0.4730    0.7889 H   0  0  0  0  0  0  0  0  0  0  0  0
   -1.4005    0.2921   -0.0116 C   0  0  0  0  0  0  0  0  0  0  0  0
   -2.8862   -1.4514   -0.9521 H   0  0  0  0  0  0  0  0  0  0  0  0
   -2.8664   -1.0722    0.8497 H   0  0  0  0  0  0  0  0  0  0  0  0
   -0.1285   -0.7494    0.0060 C   0  0  0  0  0  0  0  0  0  0  0  0
   -1.3929    0.9340    0.8462 H   0  0  0  0  0  0  0  0  0  0  0  0
   -1.3521    0.9810   -0.9907 H   0  0  0  0  0  0  0  0  0  0  0  0
   -0.3110   -1.3082    0.8977 H   0  0  0  0  0  0  0  0  0  0  0  0
    0.5773   -0.3495    0.6223 H   0  0  0  0  0  0  0  0  0  0  0  0
    0.0482   -1.8991   -1.1244 H   0  0  0  0  0  0  0  0  0  0  0  0
  1  2  1  0  0  0  0
  1  3  1  0  0  0  0
  1  5  1  0  0  0  0
  2  8  1  0  0  0  0
  4  1  1  0  0  0  0
  6  9  1  0  0  0  0
  6  2  1  0  0  0  0
  6 10  1  0  0  0  0
  7  2  1  0  0  0  0
  9 13  1  0  0  0  0
  9 12  1  0  0  0  0
 11  6  1  0  0  0  0
M  RAD  2   9   2  14   2
M  END
$$$$
