butane_opt
 OpenBabel08242015403D

 14 12  0  0  0  0  0  0  0  0999 V2000
   -3.9791    0.3596    0.1729 C   0  0  0  0  0  0  0  0  0  0  0  0
   -2.6039   -0.6559   -0.1474 C   0  0  0  0  0  0  0  0  0  0  0  0
   -5.0539   -0.3191   -0.0019 H   0  0  0  0  0  0  0  0  0  0  0  0
   -4.1254    0.8705   -0.6195 H   0  0  0  0  0  0  0  0  0  0  0  0
   -3.8066    1.0655    1.1500 H   0  0  0  0  0  0  0  0  0  0  0  0
   -1.3458    0.0949   -0.0782 C   0  0  0  0  0  0  0  0  0  0  0  0
   -2.8129   -1.6726   -1.1238 H   0  0  0  0  0  0  0  0  0  0  0  0
   -2.6012   -1.2229    0.6445 H   0  0  0  0  0  0  0  0  0  0  0  0
   -0.2652   -0.6573    0.1608 C   0  0  0  0  0  0  0  0  0  0  0  0
   -1.6489    0.5662    0.5331 H   0  0  0  0  0  0  0  0  0  0  0  0
   -0.9652    0.7715   -1.1117 H   0  0  0  0  0  0  0  0  0  0  0  0
   -0.1899   -1.5098    1.3615 H   0  0  0  0  0  0  0  0  0  0  0  0
    0.8497    0.2491   -0.2565 H   0  0  0  0  0  0  0  0  0  0  0  0
   -0.3809   -0.9126   -0.4300 H   0  0  0  0  0  0  0  0  0  0  0  0
  1  5  1  0  0  0  0
  2  1  1  0  0  0  0
  2  8  1  0  0  0  0
  3  1  1  0  0  0  0
  4  1  1  0  0  0  0
  6  9  1  0  0  0  0
  6 10  1  0  0  0  0
  7  2  1  0  0  0  0
  9 12  1  0  0  0  0
 11  6  1  0  0  0  0
 13  9  1  0  0  0  0
 14  9  1  0  0  0  0
M  RAD  2   2   2   6   2
M  END
$$$$
