butane_opt
 OpenBabel08242015403D

 14 10  0  0  0  0  0  0  0  0999 V2000
   -3.9847    0.2808    0.0825 C   0  0  0  0  0  0  0  0  0  0  0  0
   -2.7344   -0.5869   -0.0161 C   0  0  0  0  0  0  0  0  0  0  0  0
   -5.1129   -0.5782    0.2889 H   0  0  0  0  0  0  0  0  0  0  0  0
   -4.2440    0.7624   -0.6937 H   0  0  0  0  0  0  0  0  0  0  0  0
   -3.8384    0.9600    0.9729 H   0  0  0  0  0  0  0  0  0  0  0  0
   -1.3853    0.1847   -0.0879 C   0  0  0  0  0  0  0  0  0  0  0  0
   -2.9436   -1.1772   -0.7523 H   0  0  0  0  0  0  0  0  0  0  0  0
   -2.7831   -1.1459    0.7329 H   0  0  0  0  0  0  0  0  0  0  0  0
   -0.0954   -0.6910    0.0898 C   0  0  0  0  0  0  0  0  0  0  0  0
   -1.3554    0.3167    0.4916 H   0  0  0  0  0  0  0  0  0  0  0  0
   -1.2387    1.2203   -1.2000 H   0  0  0  0  0  0  0  0  0  0  0  0
   -0.2097   -0.9944    0.8579 H   0  0  0  0  0  0  0  0  0  0  0  0
    0.7814   -0.2396    0.9730 H   0  0  0  0  0  0  0  0  0  0  0  0
    0.3174   -1.8850   -1.0667 H   0  0  0  0  0  0  0  0  0  0  0  0
  1  3  1  0  0  0  0
  1  5  1  0  0  0  0
  2  1  1  0  0  0  0
  2  8  1  0  0  0  0
  4  1  1  0  0  0  0
  6  2  1  0  0  0  0
  6  9  1  0  0  0  0
  7  2  1  0  0  0  0
  9 12  1  0  0  0  0
  9 13  1  0  0  0  0
M  RAD  5   6   3   9   2  10   2  11   2  14   2
M  END
$$$$
