butane_opt
 OpenBabel08242015403D

 14 10  0  0  0  0  0  0  0  0999 V2000
   -3.8745    0.3140   -0.1090 C   0  0  0  0  0  0  0  0  0  0  0  0
   -2.6595   -0.6589    0.2378 C   0  0  0  0  0  0  0  0  0  0  0  0
   -4.8343   -0.3192   -0.0378 H   0  0  0  0  0  0  0  0  0  0  0  0
   -3.9248    0.9623   -0.9523 H   0  0  0  0  0  0  0  0  0  0  0  0
   -4.1234    0.7472    0.5716 H   0  0  0  0  0  0  0  0  0  0  0  0
   -1.3957    0.1722    0.0477 C   0  0  0  0  0  0  0  0  0  0  0  0
   -2.5015   -1.0326   -0.4114 H   0  0  0  0  0  0  0  0  0  0  0  0
   -2.9274   -1.4084    1.2014 H   0  0  0  0  0  0  0  0  0  0  0  0
   -0.2673   -0.6712   -0.0806 C   0  0  0  0  0  0  0  0  0  0  0  0
   -1.2181    0.9620    1.0182 H   0  0  0  0  0  0  0  0  0  0  0  0
   -1.4803    0.4972   -0.7175 H   0  0  0  0  0  0  0  0  0  0  0  0
   -0.5846   -0.7969    0.5048 H   0  0  0  0  0  0  0  0  0  0  0  0
    0.8369   -0.0652    0.4541 H   0  0  0  0  0  0  0  0  0  0  0  0
    0.0805   -1.8997   -1.4071 H   0  0  0  0  0  0  0  0  0  0  0  0
  1  3  1  0  0  0  0
  1  2  1  0  0  0  0
  1  5  1  0  0  0  0
  2  8  1  0  0  0  0
  4  1  1  0  0  0  0
  6 10  1  0  0  0  0
  7  2  1  0  0  0  0
  9 13  1  0  0  0  0
  9 12  1  0  0  0  0
 11  6  1  0  0  0  0
M  RAD  4   2   2   6   3   9   3  14   2
M  END
$$$$
