butane_opt
 OpenBabel08242015403D

 14 10  0  0  0  0  0  0  0  0999 V2000
   -3.9544    0.2200    0.1148 C   0  0  0  0  0  0  0  0  0  0  0  0
   -2.7079   -0.6304   -0.0605 C   0  0  0  0  0  0  0  0  0  0  0  0
   -4.8341   -0.3497   -0.3023 H   0  0  0  0  0  0  0  0  0  0  0  0
   -4.1230    0.1655   -0.3390 H   0  0  0  0  0  0  0  0  0  0  0  0
   -4.1114    1.4917    1.3263 H   0  0  0  0  0  0  0  0  0  0  0  0
   -1.4459    0.3317   -0.1344 C   0  0  0  0  0  0  0  0  0  0  0  0
   -2.7679   -1.2015   -0.8038 H   0  0  0  0  0  0  0  0  0  0  0  0
   -2.7413   -1.2449    0.9071 H   0  0  0  0  0  0  0  0  0  0  0  0
   -0.1044   -0.7470    0.1278 C   0  0  0  0  0  0  0  0  0  0  0  0
   -1.5180    0.7796    0.5831 H   0  0  0  0  0  0  0  0  0  0  0  0
   -1.1165    0.9785   -1.1601 H   0  0  0  0  0  0  0  0  0  0  0  0
   -0.0907   -1.7973    1.2659 H   0  0  0  0  0  0  0  0  0  0  0  0
    0.9013   -0.2261    0.1491 H   0  0  0  0  0  0  0  0  0  0  0  0
   -0.0366   -1.1766   -0.6570 H   0  0  0  0  0  0  0  0  0  0  0  0
  2  1  1  0  0  0  0
  2  8  1  0  0  0  0
  3  1  1  0  0  0  0
  6  2  1  0  0  0  0
  6  9  1  0  0  0  0
  6 10  1  0  0  0  0
  7  2  1  0  0  0  0
  9 13  1  0  0  0  0
 11  6  1  0  0  0  0
 14  9  1  0  0  0  0
M  RAD  5   1   3   4   2   5   2   9   2  12   2
M  END
$$$$
