14
butane_opt
C  -4.009750   0.234849  -0.093018
C  -2.715797  -0.609441   0.262042
H  -4.872052  -0.340279  -0.939469
H  -3.353027   0.622737  -0.959214
H  -4.405761   1.026814   0.863863
C  -1.406046   0.299857   0.121342
H  -2.734341  -1.170703  -0.552902
H  -2.814003  -1.382380   1.383507
C  -0.135220  -0.740184  -0.111630
H  -1.049183   0.906844   0.926061
H  -1.390907   0.951311  -0.836209
H   0.112819  -1.331104   0.604370
H   0.792656  -0.153879  -0.073827
H  -0.106009  -1.832716  -1.131347
