14
butane_opt
C  -4.023864   0.293497  -0.039898
C  -2.722105  -0.713938   0.153604
H  -4.751129  -0.196047   0.314081
H  -4.164072   1.717198  -1.617415
H  -3.977771   0.435008   0.446589
C  -1.313909   0.199401   0.138998
H  -2.466523  -1.350719  -0.821071
H  -2.761059  -1.245508   0.917381
C  -0.173255  -0.662981  -0.095787
H  -1.052831   0.938932   1.061935
H  -1.410590   0.694438  -0.639989
H  -0.258285  -0.987757   0.580852
H   0.640182  -0.126566   0.349719
H  -0.013036  -1.722799  -1.119856
