butane_opt
 OpenBabel08242015403D

 14 12  0  0  0  0  0  0  0  0999 V2000
   -3.9775    0.2735   -0.0885 C   0  0  0  0  0  0  0  0  0  0  0  0
   -2.6691   -0.6380    0.1189 C   0  0  0  0  0  0  0  0  0  0  0  0
   -5.0421   -0.4107   -0.1969 H   0  0  0  0  0  0  0  0  0  0  0  0
   -3.9766    0.7377   -0.9493 H   0  0  0  0  0  0  0  0  0  0  0  0
   -4.0800    0.7999    0.5961 H   0  0  0  0  0  0  0  0  0  0  0  0
   -1.3901    0.2566    0.1865 C   0  0  0  0  0  0  0  0  0  0  0  0
   -2.7526   -1.1356   -0.5814 H   0  0  0  0  0  0  0  0  0  0  0  0
   -2.6999   -1.3332    0.9174 H   0  0  0  0  0  0  0  0  0  0  0  0
   -0.1567   -0.6985   -0.1058 C   0  0  0  0  0  0  0  0  0  0  0  0
   -1.2345    1.1120    1.1330 H   0  0  0  0  0  0  0  0  0  0  0  0
   -1.6109    0.5658   -0.5391 H   0  0  0  0  0  0  0  0  0  0  0  0
    0.0370   -1.8093    1.0750 H   0  0  0  0  0  0  0  0  0  0  0  0
    0.7435   -0.1782   -0.6044 H   0  0  0  0  0  0  0  0  0  0  0  0
   -0.0942   -1.1417   -0.7295 H   0  0  0  0  0  0  0  0  0  0  0  0
  1  2  1  0  0  0  0
  1  5  1  0  0  0  0
  2  6  1  0  0  0  0
  2  8  1  0  0  0  0
  3  1  1  0  0  0  0
  4  1  1  0  0  0  0
  6 10  1  0  0  0  0
  7  2  1  0  0  0  0
  9  6  1  0  0  0  0
 11  6  1  0  0  0  0
 13  9  1  0  0  0  0
 14  9  1  0  0  0  0
M  RAD  2   9   2  12   2
M  END
$$$$
