14
butane_opt
C  -3.906607   0.208795   0.087213
C  -2.677304  -0.498256   0.018097
H  -4.998469  -0.677939  -0.563648
H  -3.610207   0.546184  -0.691680
H  -4.106497   1.163641   1.095510
C  -1.416386   0.200741  -0.099665
H  -2.992048  -0.975332  -0.535249
H  -2.764912  -1.318582   1.035764
C  -0.178854  -0.741654   0.053510
H  -1.337888   1.043738   0.928728
H  -1.521292   0.905051  -0.997889
H  -0.159895  -1.499275   1.023047
H   0.717324  -0.200905   0.269856
H  -0.070619  -1.540578  -0.810724
