butane_opt
 OpenBabel08242015403D

 14 13  0  0  0  0  0  0  0  0999 V2000
   -4.0120    0.3133   -0.1208 C   0  0  0  0  0  0  0  0  0  0  0  0
   -2.7189   -0.7187    0.1565 C   0  0  0  0  0  0  0  0  0  0  0  0
   -4.7179   -0.0885   -0.2449 H   0  0  0  0  0  0  0  0  0  0  0  0
   -4.0363    1.1645   -1.1873 H   0  0  0  0  0  0  0  0  0  0  0  0
   -4.4181    0.7625    0.5757 H   0  0  0  0  0  0  0  0  0  0  0  0
   -1.3120    0.1436    0.2831 C   0  0  0  0  0  0  0  0  0  0  0  0
   -2.5250   -1.3179   -0.6764 H   0  0  0  0  0  0  0  0  0  0  0  0
   -2.5718   -1.1684    0.9566 H   0  0  0  0  0  0  0  0  0  0  0  0
   -0.1643   -0.6428   -0.1193 C   0  0  0  0  0  0  0  0  0  0  0  0
   -1.2269    0.9825    1.1049 H   0  0  0  0  0  0  0  0  0  0  0  0
   -1.1336    0.6303   -0.6209 H   0  0  0  0  0  0  0  0  0  0  0  0
    0.2777   -1.4937    0.9156 H   0  0  0  0  0  0  0  0  0  0  0  0
    0.5219   -0.2036   -0.8771 H   0  0  0  0  0  0  0  0  0  0  0  0
   -0.6773   -0.9015   -0.9135 H   0  0  0  0  0  0  0  0  0  0  0  0
  1  2  1  0  0  0  0
  1  5  1  0  0  0  0
  2  6  1  0  0  0  0
  2  8  1  0  0  0  0
  3  1  1  0  0  0  0
  4  1  1  0  0  0  0
  6 10  1  0  0  0  0
  7  2  1  0  0  0  0
  9  6  1  0  0  0  0
  9 12  1  0  0  0  0
 11  6  1  0  0  0  0
 13  9  1  0  0  0  0
 14  9  1  0  0  0  0
M  END
$$$$
