14
butane_opt
C  -3.963163   0.284259   0.144545
C  -2.665969  -0.595372  -0.187393
H  -4.888133  -0.413245   1.037954
H  -4.201914   1.277928  -0.978583
H  -3.384649   0.627639   0.874196
C  -1.357275   0.131413  -0.042368
H  -2.545552  -1.455222  -1.302062
H  -2.683039  -1.096616   0.579665
C  -0.217246  -0.700188   0.165037
H  -1.620889   0.710287   0.752554
H  -1.203315   0.873507  -1.055062
H  -0.441054  -1.298718   1.087710
H   0.658787  -0.049537   0.098366
H  -0.253516  -1.073528  -0.608935
