butane_opt
 OpenBabel08242015403D

 14  9  0  0  0  0  0  0  0  0999 V2000
   -4.0443    0.3625   -0.1544 C   0  0  0  0  0  0  0  0  0  0  0  0
   -2.6359   -0.7522    0.1896 C   0  0  0  0  0  0  0  0  0  0  0  0
   -4.8566   -0.3109    0.3738 H   0  0  0  0  0  0  0  0  0  0  0  0
   -4.1651    1.5625   -1.3547 H   0  0  0  0  0  0  0  0  0  0  0  0
   -4.2130    0.4949    0.3905 H   0  0  0  0  0  0  0  0  0  0  0  0
   -1.3631    0.1503    0.1956 C   0  0  0  0  0  0  0  0  0  0  0  0
   -2.4905   -1.5681   -0.7676 H   0  0  0  0  0  0  0  0  0  0  0  0
   -2.9352   -1.4590    1.1596 H   0  0  0  0  0  0  0  0  0  0  0  0
   -0.1546   -0.6021   -0.1382 C   0  0  0  0  0  0  0  0  0  0  0  0
   -0.9515    1.2142    1.2995 H   0  0  0  0  0  0  0  0  0  0  0  0
   -1.5046    0.4115   -0.3196 H   0  0  0  0  0  0  0  0  0  0  0  0
    0.1419   -1.2823    0.7479 H   0  0  0  0  0  0  0  0  0  0  0  0
    0.6747   -0.0785   -0.1703 H   0  0  0  0  0  0  0  0  0  0  0  0
   -0.3650   -1.3223   -1.0423 H   0  0  0  0  0  0  0  0  0  0  0  0
  1  2  1  0  0  0  0
  1  3  1  0  0  0  0
  2  6  1  0  0  0  0
  2  8  1  0  0  0  0
  7  2  1  0  0  0  0
  9  6  1  0  0  0  0
  9 12  1  0  0  0  0
 13  9  1  0  0  0  0
 14  9  1  0  0  0  0
M  RAD  6   1   3   4   2   5   2   6   3  10   2  11   2
M  END
$$$$
