butane_opt
 OpenBabel08242015403D

 14 12  0  0  0  0  0  0  0  0999 V2000
   -3.9331    0.1720   -0.1158 C   0  0  0  0  0  0  0  0  0  0  0  0
   -2.7573   -0.5044    0.2113 C   0  0  0  0  0  0  0  0  0  0  0  0
   -4.9947   -0.5063   -0.4831 H   0  0  0  0  0  0  0  0  0  0  0  0
   -3.5072    0.7756   -0.8850 H   0  0  0  0  0  0  0  0  0  0  0  0
   -4.1930    0.9181    0.6872 H   0  0  0  0  0  0  0  0  0  0  0  0
   -1.4542    0.2185    0.1425 C   0  0  0  0  0  0  0  0  0  0  0  0
   -2.5560   -1.0352   -0.4170 H   0  0  0  0  0  0  0  0  0  0  0  0
   -2.6725   -1.3542    1.3462 H   0  0  0  0  0  0  0  0  0  0  0  0
   -0.0773   -0.7238   -0.1078 C   0  0  0  0  0  0  0  0  0  0  0  0
   -1.2684    0.8598    1.0803 H   0  0  0  0  0  0  0  0  0  0  0  0
   -1.6259    1.1090   -0.9874 H   0  0  0  0  0  0  0  0  0  0  0  0
    0.2164   -1.0814    0.5419 H   0  0  0  0  0  0  0  0  0  0  0  0
    0.5554   -0.3912    0.2555 H   0  0  0  0  0  0  0  0  0  0  0  0
   -0.2719   -1.7976   -1.2657 H   0  0  0  0  0  0  0  0  0  0  0  0
  1  2  1  0  0  0  0
  1  5  1  0  0  0  0
  2  8  1  0  0  0  0
  3  1  1  0  0  0  0
  4  1  1  0  0  0  0
  6  2  1  0  0  0  0
  6 10  1  0  0  0  0
  7  2  1  0  0  0  0
  9  6  1  0  0  0  0
  9 13  1  0  0  0  0
  9 12  1  0  0  0  0
 11  6  1  0  0  0  0
M  RAD  2   9   2  14   2
M  END
$$$$
