butane_opt
 OpenBabel08242015403D

 14 13  0  0  0  0  0  0  0  0999 V2000
   -4.0352    0.3415    0.0859 C   0  0  0  0  0  0  0  0  0  0  0  0
   -2.7128   -0.6796   -0.0626 C   0  0  0  0  0  0  0  0  0  0  0  0
   -4.9773   -0.3488    0.4275 H   0  0  0  0  0  0  0  0  0  0  0  0
   -4.2224    0.9893   -0.7322 H   0  0  0  0  0  0  0  0  0  0  0  0
   -3.9382    0.9761    0.8840 H   0  0  0  0  0  0  0  0  0  0  0  0
   -1.3674    0.1474   -0.0981 C   0  0  0  0  0  0  0  0  0  0  0  0
   -2.8874   -1.3944   -0.7646 H   0  0  0  0  0  0  0  0  0  0  0  0
   -2.4991   -1.4530    0.8962 H   0  0  0  0  0  0  0  0  0  0  0  0
   -0.1313   -0.6419    0.0942 C   0  0  0  0  0  0  0  0  0  0  0  0
   -1.0222    0.8662    0.8107 H   0  0  0  0  0  0  0  0  0  0  0  0
   -1.1851    0.7848   -1.0063 H   0  0  0  0  0  0  0  0  0  0  0  0
   -0.6195   -1.2749    0.9679 H   0  0  0  0  0  0  0  0  0  0  0  0
    0.9194   -0.0571    0.5701 H   0  0  0  0  0  0  0  0  0  0  0  0
    0.3421   -1.5507   -0.8722 H   0  0  0  0  0  0  0  0  0  0  0  0
  1  3  1  0  0  0  0
  1  5  1  0  0  0  0
  2  1  1  0  0  0  0
  2  8  1  0  0  0  0
  4  1  1  0  0  0  0
  6  2  1  0  0  0  0
  6  9  1  0  0  0  0
  6 10  1  0  0  0  0
  7  2  1  0  0  0  0
  9 13  1  0  0  0  0
  9 12  1  0  0  0  0
 11  6  1  0  0  0  0
 14  9  1  0  0  0  0
M  END
$$$$
