14
butane_opt
C  -3.973654   0.216323  -0.166348
C  -2.699870  -0.596634   0.165206
H  -5.231370  -0.594998   0.520181
H  -4.115995   1.291851  -1.360347
H  -3.555802   0.518300   0.398208
C  -1.448044   0.286350   0.255392
H  -2.663164  -1.185867  -0.765834
H  -2.931768  -1.082012   0.965850
C  -0.049715  -0.725709  -0.117511
H  -1.304302   0.868455   1.092718
H  -1.590035   0.762320  -0.536156
H   0.331007  -1.339164   0.687317
H   0.527916  -0.391017  -0.177883
H  -0.380313  -1.538534  -1.049523
