14
butane_opt
C  -4.025732   0.241886   0.174050
C  -2.724543  -0.592741  -0.114788
H  -5.041658  -0.464141  -0.004454
H  -3.832007   0.576506  -0.732277
H  -3.987872   0.930285   1.054562
C  -1.369824   0.227493  -0.073223
H  -2.781969  -1.581474  -1.226242
H  -2.469380  -0.796273   0.520193
C  -0.076991  -0.727252   0.140114
H  -1.679638   0.952984   0.807360
H  -1.258816   1.141203  -1.154364
H   0.149848  -1.988051   1.410043
H   0.620419  -0.300919  -0.342165
H  -0.338071  -0.780271  -0.319428
