butane_opt
 OpenBabel08242015403D

 14  9  0  0  0  0  0  0  0  0999 V2000
   -3.8920    0.1798   -0.0734 C   0  0  0  0  0  1  0  0  0  0  0  0
   -2.6497   -0.5341    0.0542 C   0  0  0  0  0  0  0  0  0  0  0  0
   -4.9518   -0.5665    0.9099 H   0  0  0  0  0  0  0  0  0  0  0  0
   -4.1911    1.6098   -1.5679 H   0  0  0  0  0  0  0  0  0  0  0  0
   -3.5582    0.1613    0.5031 H   0  0  0  0  0  0  0  0  0  0  0  0
   -1.4650    0.2555    0.1865 C   0  0  0  0  0  0  0  0  0  0  0  0
   -2.4608   -1.3008   -0.8914 H   0  0  0  0  0  0  0  0  0  0  0  0
   -3.1318   -1.1322    1.0881 H   0  0  0  0  0  0  0  0  0  0  0  0
   -0.1595   -0.7066   -0.0652 C   0  0  0  0  0  0  0  0  0  0  0  0
   -1.3854    0.9195    1.0926 H   0  0  0  0  0  0  0  0  0  0  0  0
   -1.5232    0.9238   -0.6901 H   0  0  0  0  0  0  0  0  0  0  0  0
    0.0333   -1.1803    0.6296 H   0  0  0  0  0  0  0  0  0  0  0  0
    0.4250   -0.4751    0.2744 H   0  0  0  0  0  0  0  0  0  0  0  0
   -0.2095   -1.7991   -1.1901 H   0  0  0  0  0  0  0  0  0  0  0  0
  1  5  1  0  0  0  0
  2  6  1  0  0  0  0
  2  8  1  0  0  0  0
  6 10  1  0  0  0  0
  7  2  1  0  0  0  0
  9  6  1  0  0  0  0
  9 13  1  0  0  0  0
  9 12  1  0  0  0  0
 11  6  1  0  0  0  0
M  RAD  5   2   2   3   2   4   2   9   2  14   2
M  END
$$$$
