butane_opt
 OpenBabel08242015403D

 14 10  0  0  0  0  0  0  0  0999 V2000
   -3.9555    0.3604   -0.1120 C   0  0  0  0  0  0  0  0  0  0  0  0
   -2.6906   -0.7030    0.1581 C   0  0  0  0  0  0  0  0  0  0  0  0
   -4.8007   -0.2696    0.4744 H   0  0  0  0  0  0  0  0  0  0  0  0
   -4.0542    1.0743   -1.1612 H   0  0  0  0  0  0  0  0  0  0  0  0
   -3.9046    0.7233    0.6042 H   0  0  0  0  0  0  0  0  0  0  0  0
   -1.3889    0.1023    0.1015 C   0  0  0  0  0  0  0  0  0  0  0  0
   -2.3167   -1.1832   -0.6357 H   0  0  0  0  0  0  0  0  0  0  0  0
   -2.9141   -1.5227    1.1566 H   0  0  0  0  0  0  0  0  0  0  0  0
   -0.2264   -0.6482   -0.0476 C   0  0  0  0  0  0  0  0  0  0  0  0
   -1.1371    0.9932    1.1072 H   0  0  0  0  0  0  0  0  0  0  0  0
   -1.3556    0.7631   -0.8629 H   0  0  0  0  0  0  0  0  0  0  0  0
   -0.1649   -0.7196    0.3835 H   0  0  0  0  0  0  0  0  0  0  0  0
    0.8108    0.0966    0.2961 H   0  0  0  0  0  0  0  0  0  0  0  0
   -0.1021   -1.7356   -1.1429 H   0  0  0  0  0  0  0  0  0  0  0  0
  1  2  1  0  0  0  0
  1  3  1  0  0  0  0
  1  5  1  0  0  0  0
  2  8  1  0  0  0  0
  4  1  1  0  0  0  0
  6 10  1  0  0  0  0
  7  2  1  0  0  0  0
  9  6  1  0  0  0  0
  9 13  1  0  0  0  0
 11  6  1  0  0  0  0
M  RAD  5   2   2   6   2   9   3  12   2  14   2
M  END
$$$$
