14
butane_opt
C  -4.008393   0.301082  -0.131156
C  -2.707863  -0.670701   0.173985
H  -4.757118  -0.138231  -0.227010
H  -4.214791   1.098582  -1.131146
H  -4.332506   0.612736   0.490166
C  -1.354632   0.174270   0.169572
H  -2.459221  -1.164222  -0.427856
H  -2.648507  -1.578317   1.183986
C  -0.152251  -0.655964  -0.111490
H  -1.056307   1.162656   1.339793
H  -1.490849   0.460499  -0.333759
H   0.195191  -1.316520   0.836064
H   0.821733  -0.031828  -0.391295
H  -0.412780  -1.340198  -1.154973
