butane_opt
 OpenBabel08242015403D

 14 11  0  0  0  0  0  0  0  0999 V2000
   -3.9790    0.2867   -0.1702 C   0  0  0  0  0  0  0  0  0  0  0  0
   -2.7771   -0.6304    0.2834 C   0  0  0  0  0  0  0  0  0  0  0  0
   -4.5753   -0.0586   -0.6693 H   0  0  0  0  0  0  0  0  0  0  0  0
   -3.9315    0.6850   -0.9439 H   0  0  0  0  0  0  0  0  0  0  0  0
   -4.0979    1.1707    0.6850 H   0  0  0  0  0  0  0  0  0  0  0  0
   -1.3714    0.1305    0.1473 C   0  0  0  0  0  0  0  0  0  0  0  0
   -2.3407   -0.9357   -0.3062 H   0  0  0  0  0  0  0  0  0  0  0  0
   -3.0991   -1.5876    1.4494 H   0  0  0  0  0  0  0  0  0  0  0  0
   -0.1257   -0.6597   -0.1473 C   0  0  0  0  0  0  0  0  0  0  0  0
   -1.1018    0.8596    1.0788 H   0  0  0  0  0  0  0  0  0  0  0  0
   -1.5320    0.5726   -0.4575 H   0  0  0  0  0  0  0  0  0  0  0  0
   -0.0308   -1.0688    0.5419 H   0  0  0  0  0  0  0  0  0  0  0  0
    0.9437   -0.0139   -0.0978 H   0  0  0  0  0  0  0  0  0  0  0  0
   -0.2665   -1.5842   -1.2036 H   0  0  0  0  0  0  0  0  0  0  0  0
  1  2  1  0  0  0  0
  1  5  1  0  0  0  0
  3  1  1  0  0  0  0
  4  1  1  0  0  0  0
  6 10  1  0  0  0  0
  7  2  1  0  0  0  0
  9 13  1  0  0  0  0
  9  6  1  0  0  0  0
  9 12  1  0  0  0  0
 11  6  1  0  0  0  0
 14  9  1  0  0  0  0
M  RAD  3   2   3   6   2   8   2
M  END
$$$$
