butane_opt
 OpenBabel08242015403D

 14 13  0  0  0  0  0  0  0  0999 V2000
   -3.9397    0.2767    0.0415 C   0  0  0  0  0  0  0  0  0  0  0  0
   -2.6935   -0.6228    0.0257 C   0  0  0  0  0  0  0  0  0  0  0  0
   -4.8489   -0.3267   -0.0765 H   0  0  0  0  0  0  0  0  0  0  0  0
   -3.9306    0.7754   -0.7741 H   0  0  0  0  0  0  0  0  0  0  0  0
   -4.0128    1.0789    0.9833 H   0  0  0  0  0  0  0  0  0  0  0  0
   -1.4025    0.1740   -0.0276 C   0  0  0  0  0  0  0  0  0  0  0  0
   -2.7387   -1.3280   -0.8371 H   0  0  0  0  0  0  0  0  0  0  0  0
   -2.6748   -1.2270    0.8968 H   0  0  0  0  0  0  0  0  0  0  0  0
   -0.1743   -0.6914    0.0551 C   0  0  0  0  0  0  0  0  0  0  0  0
   -1.4108    0.8335    0.7952 H   0  0  0  0  0  0  0  0  0  0  0  0
   -1.3396    0.7780   -0.9114 H   0  0  0  0  0  0  0  0  0  0  0  0
   -0.2012   -1.3715    1.0033 H   0  0  0  0  0  0  0  0  0  0  0  0
    0.8201   -0.0227   -0.0416 H   0  0  0  0  0  0  0  0  0  0  0  0
   -0.1694   -1.2888   -0.7201 H   0  0  0  0  0  0  0  0  0  0  0  0
  1  5  1  0  0  0  0
  2  1  1  0  0  0  0
  2  8  1  0  0  0  0
  3  1  1  0  0  0  0
  4  1  1  0  0  0  0
  6  2  1  0  0  0  0
  6  9  1  0  0  0  0
  6 10  1  0  0  0  0
  7  2  1  0  0  0  0
  9 12  1  0  0  0  0
 11  6  1  0  0  0  0
 13  9  1  0  0  0  0
 14  9  1  0  0  0  0
M  END
$$$$
