butane_opt
 OpenBabel08242015403D

 14 11  0  0  0  0  0  0  0  0999 V2000
   -3.9688    0.2564   -0.1330 C   0  0  0  0  0  0  0  0  0  0  0  0
   -2.7731   -0.6098    0.2439 C   0  0  0  0  0  0  0  0  0  0  0  0
   -4.9712   -0.3780   -0.0364 H   0  0  0  0  0  0  0  0  0  0  0  0
   -4.0162    1.0227   -1.1913 H   0  0  0  0  0  0  0  0  0  0  0  0
   -4.1759    0.7381    0.6261 H   0  0  0  0  0  0  0  0  0  0  0  0
   -1.4038    0.1905    0.0635 C   0  0  0  0  0  0  0  0  0  0  0  0
   -2.5674   -1.0606   -0.4395 H   0  0  0  0  0  0  0  0  0  0  0  0
   -2.7319   -1.4376    1.4310 H   0  0  0  0  0  0  0  0  0  0  0  0
   -0.0622   -0.7031   -0.1048 C   0  0  0  0  0  1  0  0  0  0  0  0
   -1.1037    1.1279    1.1645 H   0  0  0  0  0  0  0  0  0  0  0  0
   -1.6471    0.6262   -0.6602 H   0  0  0  0  0  0  0  0  0  0  0  0
   -0.2625   -0.6653    0.4830 H   0  0  0  0  0  0  0  0  0  0  0  0
    0.6748   -0.1029    0.4063 H   0  0  0  0  0  0  0  0  0  0  0  0
    0.3004   -2.0038   -1.2781 H   0  0  0  0  0  0  0  0  0  0  0  0
  1  3  1  0  0  0  0
  1  2  1  0  0  0  0
  1  5  1  0  0  0  0
  2  8  1  0  0  0  0
  4  1  1  0  0  0  0
  6  2  1  0  0  0  0
  6 12  1  0  0  0  0
  6 10  1  0  0  0  0
  7  2  1  0  0  0  0
  9 13  1  0  0  0  0
 11  6  1  0  0  0  0
M  RAD  1  14   2
M  END
$$$$
