14
butane_opt
C  -3.919034   0.334329   0.128669
C  -2.632231  -0.725636  -0.063788
H  -4.839277  -0.201155   0.533813
H  -4.236651   1.117278  -0.811546
H  -3.649572   0.893907   1.078972
C  -1.454247   0.112351  -0.197059
H  -2.497498  -1.492271  -0.841200
H  -2.532492  -1.253257   0.707331
C  -0.228143  -0.593669   0.132335
H  -1.299660   1.029939   0.784581
H  -1.256710   0.648852  -1.139236
H  -0.767307  -1.181121   1.082138
H   0.784040  -0.022169   0.845923
H   0.040705  -1.522877  -0.805558
