14
butane_opt
C  -3.912503   0.360848  -0.142500
C  -2.615101  -0.679435   0.192518
H  -4.883240  -0.441538  -0.135791
H  -3.649539   1.039988  -1.069496
H  -4.348378   0.717654   0.440574
C  -1.442672   0.072574   0.219827
H  -2.588123  -1.198685  -0.643933
H  -2.702116  -1.470297   1.150644
C  -0.228594  -0.618113  -0.165369
H  -1.370980   1.277556   1.550128
H  -1.330859   0.395769  -0.512453
H  -0.029554  -1.485643   0.967140
H   0.755128   0.061796  -0.676598
H  -0.528687  -0.988028  -0.893783
