14
butane_opt
C  -3.920893   0.326863   0.155262
C  -2.645698  -0.675579  -0.040732
H  -4.631835  -0.098061  -0.529844
H  -3.965833   0.395160  -0.451279
H  -4.189905   1.556618   1.438535
C  -1.370033   0.112872  -0.208336
H  -3.064473  -1.395987  -0.892216
H  -2.660337  -1.296847   0.769947
C  -0.249056  -0.631234   0.183234
H  -1.415842   0.651083   0.433443
H  -1.373959   0.653512  -1.069428
H  -0.358586  -1.352612   1.250137
H   0.872425   0.104367  -0.050716
H  -0.066541  -1.214360  -0.488677
