14
butane_opt
C  -3.972062   0.281044  -0.120376
C  -2.703749  -0.589796   0.200990
H  -4.967235  -0.413097  -0.173121
H  -3.590619   0.839097  -1.140230
H  -4.322402   0.691073   0.626275
C  -1.381470   0.156161   0.191123
H  -2.810043  -1.286708  -0.752695
H  -2.754349  -0.866079   0.935756
C  -0.172460  -0.717970  -0.106141
H  -1.283711   1.100183   1.205957
H  -1.299258   0.629890  -0.677298
H   0.355895  -1.477756   0.911510
H   0.825584  -0.102489  -0.784783
H  -0.425959  -1.140422  -0.695192
