butane_opt
 OpenBabel08242015403D

 14 12  0  0  0  0  0  0  0  0999 V2000
   -4.0537    0.3087   -0.0853 C   0  0  0  0  0  0  0  0  0  0  0  0
   -2.7312   -0.7131    0.1558 C   0  0  0  0  0  0  0  0  0  0  0  0
   -4.6932   -0.0780   -0.5793 H   0  0  0  0  0  0  0  0  0  0  0  0
   -3.6988    0.4214   -0.6657 H   0  0  0  0  0  0  0  0  0  0  0  0
   -4.3349    1.6557    1.1204 H   0  0  0  0  0  0  0  0  0  0  0  0
   -1.3907    0.1366    0.0467 C   0  0  0  0  0  0  0  0  0  0  0  0
   -2.4211   -1.1736   -0.4094 H   0  0  0  0  0  0  0  0  0  0  0  0
   -2.7891   -1.5339    1.2653 H   0  0  0  0  0  0  0  0  0  0  0  0
   -0.0867   -0.6253   -0.0543 C   0  0  0  0  0  0  0  0  0  0  0  0
   -1.1802    0.8572    0.8723 H   0  0  0  0  0  0  0  0  0  0  0  0
   -1.6016    0.7828   -0.7352 H   0  0  0  0  0  0  0  0  0  0  0  0
   -0.0743   -1.4115    0.9588 H   0  0  0  0  0  0  0  0  0  0  0  0
    1.1133    0.1366   -0.1762 H   0  0  0  0  0  0  0  0  0  0  0  0
   -0.2674   -1.3658   -0.8737 H   0  0  0  0  0  0  0  0  0  0  0  0
  1  2  1  0  0  0  0
  2  8  1  0  0  0  0
  3  1  1  0  0  0  0
  4  1  1  0  0  0  0
  6  2  1  0  0  0  0
  6 10  1  0  0  0  0
  7  2  1  0  0  0  0
  9  6  1  0  0  0  0
  9 12  1  0  0  0  0
 11  6  1  0  0  0  0
 13  9  1  0  0  0  0
 14  9  1  0  0  0  0
M  RAD  2   1   2   5   2
M  END
$$$$
