14
butane_opt
C  -3.926958   0.228661   0.126461
C  -2.645644  -0.504011  -0.124605
H  -4.955782  -0.495630  -0.142571
H  -3.862021   0.222981  -0.416373
H  -3.736259   1.130471   1.257664
C  -1.429972   0.211697  -0.090165
H  -2.832070  -1.282274  -1.142325
H  -2.725166  -1.018987   0.614122
C  -0.218663  -0.730502   0.157248
H  -1.414313   0.789837   0.866720
H  -1.513994   0.730303  -0.962975
H   0.021546  -2.071940   1.604221
H   0.767006  -0.127609  -0.817439
H  -0.136740  -0.787942  -0.147318
