14
butane_opt
C  -3.980825   0.334799   0.142974
C  -2.744481  -0.716894   0.012565
H  -4.859066  -0.128699  -0.632260
H  -3.750547   0.426256  -0.556178
H  -4.561854   1.530742   1.343626
C  -1.317689   0.131473  -0.155826
H  -2.804845  -1.589307  -1.063937
H  -2.661854  -0.989257   0.675492
C  -0.129578  -0.610069   0.150025
H  -1.348188   0.599544   0.593076
H  -1.295725   0.828986  -1.049511
H   0.053880  -1.693557   1.189884
H   0.584939  -0.265196  -0.227452
H  -0.309131  -0.867930  -0.501314
