14
butane_opt
C  -4.032808   0.247495   0.118952
C  -2.737907  -0.595071  -0.098075
H  -4.856545  -0.282144  -0.034037
H  -3.926889   0.712152  -0.610556
H  -3.831637   0.947727   1.092591
C  -1.344293   0.239428  -0.034888
H  -2.679424  -1.522311  -1.263812
H  -2.660528  -1.087745   0.716120
C  -0.137573  -0.723383   0.160852
H  -1.513564   0.869139   0.742051
H  -1.121034   0.994464  -1.074659
H   0.175750  -1.829052   1.231460
H   0.778461  -0.175842  -0.706574
H  -0.355011  -1.098008  -0.378870
