butane_opt
 OpenBabel08242015403D

 14 13  0  0  0  0  0  0  0  0999 V2000
   -3.9218    0.2546    0.0355 C   0  0  0  0  0  0  0  0  0  0  0  0
   -2.7036   -0.6005    0.0188 C   0  0  0  0  0  0  0  0  0  0  0  0
   -4.8649   -0.3686    0.0682 H   0  0  0  0  0  0  0  0  0  0  0  0
   -4.0058    0.8492   -0.8364 H   0  0  0  0  0  0  0  0  0  0  0  0
   -3.8759    0.9204    0.8966 H   0  0  0  0  0  0  0  0  0  0  0  0
   -1.4206    0.1961   -0.0195 C   0  0  0  0  0  0  0  0  0  0  0  0
   -2.7318   -1.2428   -0.7804 H   0  0  0  0  0  0  0  0  0  0  0  0
   -2.7116   -1.2762    0.9332 H   0  0  0  0  0  0  0  0  0  0  0  0
   -0.1689   -0.7043    0.0482 C   0  0  0  0  0  0  0  0  0  0  0  0
   -1.3701    0.8644    0.8467 H   0  0  0  0  0  0  0  0  0  0  0  0
   -1.3708    0.8744   -0.9381 H   0  0  0  0  0  0  0  0  0  0  0  0
   -0.1858   -1.2485    0.8929 H   0  0  0  0  0  0  0  0  0  0  0  0
    0.7199   -0.1448    0.1756 H   0  0  0  0  0  0  0  0  0  0  0  0
   -0.0417   -1.4589   -0.8256 H   0  0  0  0  0  0  0  0  0  0  0  0
  1  3  1  0  0  0  0
  1  5  1  0  0  0  0
  2  1  1  0  0  0  0
  2  8  1  0  0  0  0
  4  1  1  0  0  0  0
  6  2  1  0  0  0  0
  6  9  1  0  0  0  0
  6 10  1  0  0  0  0
  7  2  1  0  0  0  0
  9 13  1  0  0  0  0
  9 12  1  0  0  0  0
 11  6  1  0  0  0  0
 14  9  1  0  0  0  0
M  END
$$$$
