14
butane_opt
C  -4.011983   0.313298  -0.120758
C  -2.718924  -0.718672   0.156465
H  -4.717898  -0.088530  -0.244910
H  -4.036273   1.164548  -1.187267
H  -4.418054   0.762538   0.575663
C  -1.311971   0.143564   0.283107
H  -2.525012  -1.317853  -0.676427
H  -2.571781  -1.168426   0.956633
C  -0.164294  -0.642799  -0.119285
H  -1.226858   0.982452   1.104866
H  -1.133635   0.630284  -0.620937
H   0.277716  -1.493678   0.915566
H   0.521854  -0.203572  -0.877137
H  -0.677335  -0.901520  -0.913483
