14
butane_opt
C  -3.892014   0.179813  -0.073429
C  -2.649738  -0.534072   0.054179
H  -4.951812  -0.566540   0.909868
H  -4.191087   1.609757  -1.567943
H  -3.558224   0.161264   0.503120
C  -1.465018   0.255507   0.186486
H  -2.460757  -1.300796  -0.891412
H  -3.131813  -1.132163   1.088126
C  -0.159515  -0.706604  -0.065181
H  -1.385354   0.919528   1.092593
H  -1.523250   0.923809  -0.690118
H   0.033251  -1.180280   0.629573
H   0.425049  -0.475058   0.274431
H  -0.209463  -1.799083  -1.190096
