butane_opt
 OpenBabel08242015403D

 14 13  0  0  0  0  0  0  0  0999 V2000
   -3.8266    0.1699   -0.0846 C   0  0  0  0  0  0  0  0  0  0  0  0
   -2.7154   -0.5358    0.1591 C   0  0  0  0  0  0  0  0  0  0  0  0
   -4.8408   -0.3869   -0.3762 H   0  0  0  0  0  0  0  0  0  0  0  0
   -3.8015    0.6694   -0.9148 H   0  0  0  0  0  0  0  0  0  0  0  0
   -3.9324    0.9886    0.7299 H   0  0  0  0  0  0  0  0  0  0  0  0
   -1.4798    0.2967    0.1014 C   0  0  0  0  0  0  0  0  0  0  0  0
   -2.6608   -1.1249   -0.6104 H   0  0  0  0  0  0  0  0  0  0  0  0
   -2.8662   -1.1649    1.0855 H   0  0  0  0  0  0  0  0  0  0  0  0
   -0.1564   -0.7961   -0.0788 C   0  0  0  0  0  0  0  0  0  0  0  0
   -1.2576    1.2754    1.1025 H   0  0  0  0  0  0  0  0  0  0  0  0
   -1.5858    0.5966   -0.4942 H   0  0  0  0  0  0  0  0  0  0  0  0
   -0.0991   -1.6151    0.9852 H   0  0  0  0  0  0  0  0  0  0  0  0
    0.6697   -0.2952   -0.5228 H   0  0  0  0  0  0  0  0  0  0  0  0
   -0.4236   -1.0873   -0.6827 H   0  0  0  0  0  0  0  0  0  0  0  0
  1  2  1  0  0  0  0
  1  5  1  0  0  0  0
  2  8  1  0  0  0  0
  3  1  1  0  0  0  0
  4  1  1  0  0  0  0
  6  2  1  0  0  0  0
  6 10  1  0  0  0  0
  7  2  1  0  0  0  0
  9  6  1  0  0  0  0
  9 12  1  0  0  0  0
 11  6  1  0  0  0  0
 13  9  1  0  0  0  0
 14  9  1  0  0  0  0
M  END
$$$$
