butane_opt
 OpenBabel08242015403D

 14 10  0  0  0  0  0  0  0  0999 V2000
   -3.8351    0.2210    0.1878 C   0  0  0  0  0  0  0  0  0  0  0  0
   -2.6791   -0.5126   -0.1633 C   0  0  0  0  0  0  0  0  0  0  0  0
   -4.8967   -0.5499    0.8651 H   0  0  0  0  0  0  0  0  0  0  0  0
   -4.3587    1.0582   -0.7206 H   0  0  0  0  0  0  0  0  0  0  0  0
   -3.3814    0.2825    0.8372 H   0  0  0  0  0  0  0  0  0  0  0  0
   -1.5090    0.2293   -0.1503 C   0  0  0  0  0  0  0  0  0  0  0  0
   -2.9118   -1.8289   -1.4177 H   0  0  0  0  0  0  0  0  0  0  0  0
   -2.6263   -0.7548    0.3542 H   0  0  0  0  0  0  0  0  0  0  0  0
   -0.1927   -0.7098    0.1900 C   0  0  0  0  0  0  0  0  0  0  0  0
   -1.5809    0.9536    0.6912 H   0  0  0  0  0  0  0  0  0  0  0  0
   -1.2880    0.9386   -1.1755 H   0  0  0  0  0  0  0  0  0  0  0  0
   -0.1892   -1.6972    1.3979 H   0  0  0  0  0  0  0  0  0  0  0  0
    0.6212   -0.3910    0.3391 H   0  0  0  0  0  0  0  0  0  0  0  0
    0.1833   -1.2193   -0.5062 H   0  0  0  0  0  0  0  0  0  0  0  0
  1  5  1  0  0  0  0
  1  3  1  0  0  0  0
  2  6  1  0  0  0  0
  2  1  1  0  0  0  0
  4  1  1  0  0  0  0
  6  9  1  0  0  0  0
  6 10  1  0  0  0  0
  9 13  1  0  0  0  0
 11  6  1  0  0  0  0
 14  9  1  0  0  0  0
M  RAD  5   2   3   7   2   8   2   9   2  12   2
M  END
$$$$
