butane_opt
 OpenBabel08242015403D

 14 12  0  0  0  0  0  0  0  0999 V2000
   -3.8355    0.1783    0.1131 C   0  0  0  0  0  0  0  0  0  0  0  0
   -2.6888   -0.5085   -0.1105 C   0  0  0  0  0  0  0  0  0  0  0  0
   -4.6916   -0.4435    0.1165 H   0  0  0  0  0  0  0  0  0  0  0  0
   -4.1822    0.5676   -0.7381 H   0  0  0  0  0  0  0  0  0  0  0  0
   -3.7177    1.0110    1.0885 H   0  0  0  0  0  0  0  0  0  0  0  0
   -1.4770    0.2381   -0.0393 C   0  0  0  0  0  0  0  0  0  0  0  0
   -2.9898   -1.3976   -1.1640 H   0  0  0  0  0  0  0  0  0  0  0  0
   -2.4823   -1.0648    0.6554 H   0  0  0  0  0  0  0  0  0  0  0  0
   -0.2146   -0.7487    0.1666 C   0  0  0  0  0  0  0  0  0  0  0  0
   -1.7309    0.9899    0.6573 H   0  0  0  0  0  0  0  0  0  0  0  0
   -1.3856    1.0179   -1.0637 H   0  0  0  0  0  0  0  0  0  0  0  0
    0.2167   -1.8629    1.4280 H   0  0  0  0  0  0  0  0  0  0  0  0
    0.8378   -0.0603   -0.5175 H   0  0  0  0  0  0  0  0  0  0  0  0
   -0.3004   -1.1288   -0.5474 H   0  0  0  0  0  0  0  0  0  0  0  0
  1  3  1  0  0  0  0
  1  5  1  0  0  0  0
  2  6  1  0  0  0  0
  2  1  1  0  0  0  0
  2  8  1  0  0  0  0
  4  1  1  0  0  0  0
  6  9  1  0  0  0  0
  6 10  1  0  0  0  0
  7  2  1  0  0  0  0
 11  6  1  0  0  0  0
 13  9  1  0  0  0  0
 14  9  1  0  0  0  0
M  RAD  2   9   2  12   2
M  END
$$$$
