butane_opt
 OpenBabel08242015403D

 14 11  0  0  0  0  0  0  0  0999 V2000
   -3.9808    0.3348    0.1430 C   0  0  0  0  0  0  0  0  0  0  0  0
   -2.7445   -0.7169    0.0126 C   0  0  0  0  0  0  0  0  0  0  0  0
   -4.8591   -0.1287   -0.6323 H   0  0  0  0  0  0  0  0  0  0  0  0
   -3.7505    0.4263   -0.5562 H   0  0  0  0  0  0  0  0  0  0  0  0
   -4.5619    1.5307    1.3436 H   0  0  0  0  0  0  0  0  0  0  0  0
   -1.3177    0.1315   -0.1558 C   0  0  0  0  0  0  0  0  0  0  0  0
   -2.8048   -1.5893   -1.0639 H   0  0  0  0  0  0  0  0  0  0  0  0
   -2.6619   -0.9893    0.6755 H   0  0  0  0  0  0  0  0  0  0  0  0
   -0.1296   -0.6101    0.1500 C   0  0  0  0  0  0  0  0  0  0  0  0
   -1.3482    0.5995    0.5931 H   0  0  0  0  0  0  0  0  0  0  0  0
   -1.2957    0.8290   -1.0495 H   0  0  0  0  0  0  0  0  0  0  0  0
    0.0539   -1.6936    1.1899 H   0  0  0  0  0  0  0  0  0  0  0  0
    0.5849   -0.2652   -0.2275 H   0  0  0  0  0  0  0  0  0  0  0  0
   -0.3091   -0.8679   -0.5013 H   0  0  0  0  0  0  0  0  0  0  0  0
  2  1  1  0  0  0  0
  2  8  1  0  0  0  0
  3  1  1  0  0  0  0
  4  1  1  0  0  0  0
  6  9  1  0  0  0  0
  6 10  1  0  0  0  0
  7  2  1  0  0  0  0
  9 12  1  0  0  0  0
 11  6  1  0  0  0  0
 13  9  1  0  0  0  0
 14  9  1  0  0  0  0
M  RAD  4   1   2   2   2   5   2   6   2
M  END
$$$$
