14
butane_opt
C  -3.935417   0.252528   0.030113
C  -2.694767  -0.594757   0.019268
H  -4.851336  -0.375181  -0.005375
H  -3.966622   0.828066  -0.841118
H  -3.936801   0.970331   0.924258
C  -1.410794   0.188225   0.000608
H  -2.778653  -1.294552  -0.856850
H  -2.671826  -1.209061   0.896659
C  -0.156756  -0.697813   0.045201
H  -1.431115   0.862088   0.846185
H  -1.425930   0.794310  -0.832531
H  -0.131270  -1.440434   1.022918
H   0.742504  -0.125654  -0.098052
H  -0.189187  -1.260892  -0.750890
