butane_opt
 OpenBabel08242015403D

 14  9  0  0  0  0  0  0  0  0999 V2000
   -3.8474    0.1892    0.1254 C   0  0  0  0  0  0  0  0  0  0  0  0
   -2.7599   -0.5144   -0.1039 C   0  0  0  0  0  1  0  0  0  0  0  0
   -4.8776   -0.5330    0.6373 H   0  0  0  0  0  0  0  0  0  0  0  0
   -4.1711    1.4408   -1.1289 H   0  0  0  0  0  0  0  0  0  0  0  0
   -3.3713    0.4043    0.8561 H   0  0  0  0  0  0  0  0  0  0  0  0
   -1.4805    0.2256   -0.0169 C   0  0  0  0  0  0  0  0  0  0  0  0
   -2.9480   -1.4578   -1.2084 H   0  0  0  0  0  0  0  0  0  0  0  0
   -2.7248   -0.6472    0.5122 H   0  0  0  0  0  0  0  0  0  0  0  0
   -0.1054   -0.7643    0.0861 C   0  0  0  0  0  0  0  0  0  0  0  0
   -1.5297    0.6776    0.7649 H   0  0  0  0  0  0  0  0  0  0  0  0
   -1.2777    0.9176   -0.8680 H   0  0  0  0  0  0  0  0  0  0  0  0
   -0.3523   -1.5301    1.0699 H   0  0  0  0  0  0  0  0  0  0  0  0
    0.5756   -0.2249    0.1988 H   0  0  0  0  0  0  0  0  0  0  0  0
    0.0315   -1.1765   -0.5456 H   0  0  0  0  0  0  0  0  0  0  0  0
  1  3  1  0  0  0  0
  1  5  1  0  0  0  0
  2  1  1  0  0  0  0
  6  9  1  0  0  0  0
  6 10  1  0  0  0  0
  9 13  1  0  0  0  0
  9 12  1  0  0  0  0
 11  6  1  0  0  0  0
 14  9  1  0  0  0  0
M  RAD  5   1   2   4   2   6   2   7   2   8   2
M  END
$$$$
