14
butane_opt
C  -3.905731   0.267783  -0.080815
C  -2.710882  -0.654974   0.155128
H  -4.653899   0.032417   0.303332
H  -4.041894   0.904210  -1.075916
H  -3.789191   0.877984   0.734661
C  -1.438817   0.125627   0.057405
H  -2.536421  -1.097341  -0.533537
H  -2.539294  -1.359036   1.085435
C  -0.204408  -0.646806  -0.014229
H  -1.335022   0.662590   0.672698
H  -1.528130   0.928006  -0.958591
H  -0.433835  -0.516771   0.414234
H   0.773002   0.014224   0.619885
H   0.130143  -2.012354  -1.306225
