14
butane_opt
C  -3.943427   0.306883  -0.089823
C  -2.622308  -0.694104   0.096384
H  -4.773915  -0.155814  -0.077188
H  -3.650706   0.956101  -1.198331
H  -4.114423   1.016164   0.696422
C  -1.396481   0.158888   0.167910
H  -2.496965  -1.215429  -0.582259
H  -2.629752  -1.390109   0.993788
C  -0.281844  -0.659525  -0.065272
H  -1.055104   1.175346   1.256990
H  -1.386930   0.327497  -0.346776
H   0.202687  -1.616234   0.890925
H   0.667802  -0.098772  -0.884990
H  -0.857337  -0.766967  -0.552591
