14
butane_opt
C  -3.947080   0.306377   0.172788
C  -2.584562  -0.657615  -0.100207
H  -4.721194  -0.128977   0.255935
H  -4.211784   0.815372  -0.750938
H  -3.850885   0.941954   1.033700
C  -1.411145   0.138067  -0.112368
H  -2.451985  -1.436632  -1.061677
H  -2.680425  -1.275345   0.644840
C  -0.299142  -0.634407   0.178462
H  -1.423327   0.316794   0.386080
H  -1.103147   0.933436  -1.208022
H  -0.478570  -0.923559   0.871876
H   0.740456  -0.034469   0.317755
H   0.038029  -1.451165  -0.720363
