14
butane_opt
C  -4.044871   0.223337  -0.161516
C  -2.693226  -0.576879   0.127532
H  -4.866466  -0.300523   0.224300
H  -3.982633   1.053722  -1.193476
H  -3.877705   0.626699   0.608872
C  -1.347817   0.214930   0.213689
H  -2.803387  -0.942307  -0.664115
H  -2.688371  -1.440993   1.219146
C  -0.118286  -0.717626  -0.095932
H  -1.434654   1.124304   1.262913
H  -1.519680   0.471869  -0.371061
H   0.468377  -1.360130   0.798376
H   0.592658  -0.282502  -0.446929
H  -0.450785  -1.149033  -1.025092
