14
butane_opt
C  -3.967457   0.224985   0.127445
C  -2.713998  -0.617484  -0.057246
H  -4.911385  -0.332506   0.196597
H  -4.266633   0.525998  -0.689799
H  -3.703862   0.959425   1.126459
C  -1.391265   0.270463  -0.175489
H  -2.765358  -1.046032  -0.776378
H  -2.720376  -1.204056   0.802734
C  -0.088254  -0.742236   0.146307
H  -1.736240   1.073453   0.581106
H  -1.208742   0.934160  -1.137732
H  -0.290961  -1.162953   1.001815
H   0.521375  -0.363317   0.619992
H   0.049925  -1.565496  -0.779415
