butane_opt
 OpenBabel08242015403D

 14 10  0  0  0  0  0  0  0  0999 V2000
   -4.0073    0.2136   -0.0616 C   0  0  0  0  0  1  0  0  0  0  0  0
   -2.7163   -0.5728    0.0487 C   0  0  0  0  0  0  0  0  0  0  0  0
   -5.0802   -0.5558    0.5206 H   0  0  0  0  0  0  0  0  0  0  0  0
   -4.0832    1.3977   -1.2836 H   0  0  0  0  0  0  0  0  0  0  0  0
   -3.8245    0.2970    0.4361 H   0  0  0  0  0  0  0  0  0  0  0  0
   -1.4216    0.2812    0.1813 C   0  0  0  0  0  0  0  0  0  0  0  0
   -2.5953   -1.3295   -0.7091 H   0  0  0  0  0  0  0  0  0  0  0  0
   -2.8211   -1.0753    0.9913 H   0  0  0  0  0  0  0  0  0  0  0  0
   -0.0571   -0.7478   -0.0485 C   0  0  0  0  0  0  0  0  0  0  0  0
   -1.4844    1.0566    1.2022 H   0  0  0  0  0  0  0  0  0  0  0  0
   -1.1601    0.8729   -0.7962 H   0  0  0  0  0  0  0  0  0  0  0  0
    0.2838   -1.3926    0.7395 H   0  0  0  0  0  0  0  0  0  0  0  0
    0.6981   -0.2608   -0.1663 H   0  0  0  0  0  0  0  0  0  0  0  0
   -0.4757   -1.5999   -1.0035 H   0  0  0  0  0  0  0  0  0  0  0  0
  1  3  1  0  0  0  0
  2  5  1  0  0  0  0
  2  8  1  0  0  0  0
  6 10  1  0  0  0  0
  7  2  1  0  0  0  0
  9  6  1  0  0  0  0
  9 12  1  0  0  0  0
 11  6  1  0  0  0  0
 13  9  1  0  0  0  0
 14  9  1  0  0  0  0
M  RAD  3   2   2   4   2   6   2
M  END
$$$$
