butane_opt
 OpenBabel08242015403D

 14 13  0  0  0  0  0  0  0  0999 V2000
   -3.8147    0.1711   -0.0955 C   0  0  0  0  0  0  0  0  0  0  0  0
   -2.7020   -0.5264    0.1272 C   0  0  0  0  0  0  0  0  0  0  0  0
   -4.8404   -0.5885   -0.2298 H   0  0  0  0  0  0  0  0  0  0  0  0
   -3.9157    0.8539   -0.9330 H   0  0  0  0  0  0  0  0  0  0  0  0
   -4.0113    1.1328    0.8632 H   0  0  0  0  0  0  0  0  0  0  0  0
   -1.5249    0.2373    0.1296 C   0  0  0  0  0  0  0  0  0  0  0  0
   -2.6883   -1.0709   -0.6533 H   0  0  0  0  0  0  0  0  0  0  0  0
   -2.9352   -1.3420    1.0173 H   0  0  0  0  0  0  0  0  0  0  0  0
   -0.1450   -0.7598   -0.0398 C   0  0  0  0  0  0  0  0  0  0  0  0
   -1.3486    1.0134    1.0312 H   0  0  0  0  0  0  0  0  0  0  0  0
   -1.5523    0.8226   -0.6420 H   0  0  0  0  0  0  0  0  0  0  0  0
    0.4379   -1.4186    0.9025 H   0  0  0  0  0  0  0  0  0  0  0  0
    0.6462   -0.1834   -0.4762 H   0  0  0  0  0  0  0  0  0  0  0  0
   -0.5172   -1.1969   -0.8540 H   0  0  0  0  0  0  0  0  0  0  0  0
  1  2  1  0  0  0  0
  1  5  1  0  0  0  0
  2  6  1  0  0  0  0
  2  8  1  0  0  0  0
  3  1  1  0  0  0  0
  4  1  1  0  0  0  0
  6 10  1  0  0  0  0
  7  2  1  0  0  0  0
  9  6  1  0  0  0  0
  9 12  1  0  0  0  0
 11  6  1  0  0  0  0
 13  9  1  0  0  0  0
 14  9  1  0  0  0  0
M  END
$$$$
