14
butane_opt
C  -3.935655   0.250459   0.036056
C  -2.697493  -0.603271   0.020164
H  -4.850714  -0.360243  -0.032310
H  -3.953353   0.839587  -0.822739
H  -3.907019   1.001140   0.968119
C  -1.414959   0.195334  -0.011429
H  -2.763111  -1.290998  -0.851994
H  -2.691443  -1.224579   0.926935
C  -0.167657  -0.699362   0.043942
H  -1.370546   0.852563   0.844148
H  -1.383767   0.845925  -0.907772
H  -0.156380  -1.397949   0.979456
H   0.719983  -0.146023   0.023983
H  -0.072373  -1.311952  -0.747635
