butane_opt
 OpenBabel08242015403D

 14 12  0  0  0  0  0  0  0  0999 V2000
   -3.9557    0.1820    0.2142 C   0  0  0  0  0  0  0  0  0  0  0  0
   -2.7671   -0.5065   -0.1898 C   0  0  0  0  0  0  0  0  0  0  0  0
   -4.9904   -0.4872    0.5152 H   0  0  0  0  0  0  0  0  0  0  0  0
   -4.4596    1.0387   -0.8368 H   0  0  0  0  0  0  0  0  0  0  0  0
   -3.7695    0.6518    1.0584 H   0  0  0  0  0  0  0  0  0  0  0  0
   -1.4211    0.2572   -0.1256 C   0  0  0  0  0  0  0  0  0  0  0  0
   -2.8353   -1.4445   -1.4009 H   0  0  0  0  0  0  0  0  0  0  0  0
   -2.6274   -1.0595    0.6033 H   0  0  0  0  0  0  0  0  0  0  0  0
   -0.0472   -0.7452    0.2256 C   0  0  0  0  0  0  0  0  0  0  0  0
   -1.7116    0.7686    0.5265 H   0  0  0  0  0  0  0  0  0  0  0  0
   -1.1909    1.0616   -1.2131 H   0  0  0  0  0  0  0  0  0  0  0  0
   -0.0645   -1.6156    1.1522 H   0  0  0  0  0  0  0  0  0  0  0  0
    0.9369   -0.1790    0.1798 H   0  0  0  0  0  0  0  0  0  0  0  0
    0.0435   -1.4594   -0.6489 H   0  0  0  0  0  0  0  0  0  0  0  0
  1  3  1  0  0  0  0
  1  5  1  0  0  0  0
  2  6  1  0  0  0  0
  2  1  1  0  0  0  0
  2  8  1  0  0  0  0
  4  1  1  0  0  0  0
  6  9  1  0  0  0  0
  6 10  1  0  0  0  0
  9 12  1  0  0  0  0
 11  6  1  0  0  0  0
 13  9  1  0  0  0  0
 14  9  1  0  0  0  0
M  RAD  2   2   2   7   2
M  END
$$$$
