butane_opt
 OpenBabel08242015403D

 14 13  0  0  0  0  0  0  0  0999 V2000
   -3.9526    0.2564    0.0297 C   0  0  0  0  0  0  0  0  0  0  0  0
   -2.7154   -0.6026    0.0035 C   0  0  0  0  0  0  0  0  0  0  0  0
   -4.8701   -0.3134    0.0506 H   0  0  0  0  0  0  0  0  0  0  0  0
   -4.0003    0.8247   -0.8200 H   0  0  0  0  0  0  0  0  0  0  0  0
   -3.8928    0.9362    0.9174 H   0  0  0  0  0  0  0  0  0  0  0  0
   -1.4021    0.1946    0.0139 C   0  0  0  0  0  0  0  0  0  0  0  0
   -2.7211   -1.3210   -0.8658 H   0  0  0  0  0  0  0  0  0  0  0  0
   -2.6885   -1.2349    0.9051 H   0  0  0  0  0  0  0  0  0  0  0  0
   -0.1513   -0.6998    0.0446 C   0  0  0  0  0  0  0  0  0  0  0  0
   -1.3710    0.8638    0.8746 H   0  0  0  0  0  0  0  0  0  0  0  0
   -1.3826    0.8388   -0.9044 H   0  0  0  0  0  0  0  0  0  0  0  0
   -0.0546   -1.4700    1.0330 H   0  0  0  0  0  0  0  0  0  0  0  0
    0.7420   -0.1254   -0.0949 H   0  0  0  0  0  0  0  0  0  0  0  0
   -0.1322   -1.2496   -0.7414 H   0  0  0  0  0  0  0  0  0  0  0  0
  1  3  1  0  0  0  0
  1  5  1  0  0  0  0
  2  6  1  0  0  0  0
  2  1  1  0  0  0  0
  2  8  1  0  0  0  0
  4  1  1  0  0  0  0
  6  9  1  0  0  0  0
  6 10  1  0  0  0  0
  7  2  1  0  0  0  0
  9 12  1  0  0  0  0
 11  6  1  0  0  0  0
 13  9  1  0  0  0  0
 14  9  1  0  0  0  0
M  END
$$$$
