butane_opt
 OpenBabel08242015403D

 14 12  0  0  0  0  0  0  0  0999 V2000
   -3.9688    0.3462    0.1769 C   0  0  0  0  0  0  0  0  0  0  0  0
   -2.6699   -0.7353   -0.2346 C   0  0  0  0  0  0  0  0  0  0  0  0
   -4.9894   -0.3725    0.4637 H   0  0  0  0  0  0  0  0  0  0  0  0
   -4.5439    1.0067   -0.5596 H   0  0  0  0  0  0  0  0  0  0  0  0
   -3.7710    0.9635    1.1167 H   0  0  0  0  0  0  0  0  0  0  0  0
   -1.3198    0.1590   -0.1109 C   0  0  0  0  0  0  0  0  0  0  0  0
   -2.6970   -1.2695   -1.0563 H   0  0  0  0  0  0  0  0  0  0  0  0
   -2.6085   -1.1884    0.5905 H   0  0  0  0  0  0  0  0  0  0  0  0
   -0.2066   -0.6625    0.1885 C   0  0  0  0  0  0  0  0  0  0  0  0
   -1.3475    0.7670    0.7077 H   0  0  0  0  0  0  0  0  0  0  0  0
   -1.2472    0.9099   -0.9978 H   0  0  0  0  0  0  0  0  0  0  0  0
   -0.2104   -1.6937    1.3567 H   0  0  0  0  0  0  0  0  0  0  0  0
    0.6366    0.0788    0.0640 H   0  0  0  0  0  0  0  0  0  0  0  0
   -0.2430   -0.9957   -0.4406 H   0  0  0  0  0  0  0  0  0  0  0  0
  1  3  1  0  0  0  0
  1  5  1  0  0  0  0
  2  6  1  0  0  0  0
  2  1  1  0  0  0  0
  2  8  1  0  0  0  0
  4  1  1  0  0  0  0
  6  9  1  0  0  0  0
  6 10  1  0  0  0  0
  7  2  1  0  0  0  0
 11  6  1  0  0  0  0
 13  9  1  0  0  0  0
 14  9  1  0  0  0  0
M  RAD  2   9   2  12   2
M  END
$$$$
