butane_opt
 OpenBabel08242015403D

 14 13  0  0  0  0  0  0  0  0999 V2000
   -3.9632    0.3506    0.1475 C   0  0  0  0  0  0  0  0  0  0  0  0
   -2.6864   -0.6722   -0.2153 C   0  0  0  0  0  0  0  0  0  0  0  0
   -4.9437   -0.3241    0.8398 H   0  0  0  0  0  0  0  0  0  0  0  0
   -4.3976    0.9278   -0.5707 H   0  0  0  0  0  0  0  0  0  0  0  0
   -3.6570    0.9086    1.0871 H   0  0  0  0  0  0  0  0  0  0  0  0
   -1.4056    0.1008   -0.1540 C   0  0  0  0  0  0  0  0  0  0  0  0
   -2.6555   -1.4680   -1.2349 H   0  0  0  0  0  0  0  0  0  0  0  0
   -2.1753   -1.4644    0.8746 H   0  0  0  0  0  0  0  0  0  0  0  0
   -0.1987   -0.6208    0.2234 C   0  0  0  0  0  0  0  0  0  0  0  0
   -1.4451    0.8223    0.6366 H   0  0  0  0  0  0  0  0  0  0  0  0
   -1.1988    0.6766   -1.1173 H   0  0  0  0  0  0  0  0  0  0  0  0
   -0.3491   -1.2448    1.1582 H   0  0  0  0  0  0  0  0  0  0  0  0
    0.9515    0.0214    0.2770 H   0  0  0  0  0  0  0  0  0  0  0  0
   -0.1206   -1.1875   -0.5201 H   0  0  0  0  0  0  0  0  0  0  0  0
  1  3  1  0  0  0  0
  1  5  1  0  0  0  0
  2  6  1  0  0  0  0
  2  1  1  0  0  0  0
  2  8  1  0  0  0  0
  4  1  1  0  0  0  0
  6  9  1  0  0  0  0
  6 10  1  0  0  0  0
  7  2  1  0  0  0  0
  9 13  1  0  0  0  0
  9 12  1  0  0  0  0
 11  6  1  0  0  0  0
 14  9  1  0  0  0  0
M  END
$$$$
