14
butane_opt
C  -3.935630   0.273988   0.007074
C  -2.704912  -0.631969   0.059787
H  -4.813769  -0.300750  -0.078449
H  -3.934990   0.871857  -0.866817
H  -4.063545   1.016582   0.880715
C  -1.402797   0.170047   0.021023
H  -2.683392  -1.295726  -0.762658
H  -2.708790  -1.269805   0.965182
C  -0.168787  -0.678588   0.013845
H  -1.319289   0.831489   0.892681
H  -1.409334   0.833035  -0.898710
H  -0.136640  -1.298564   0.916178
H   0.764109  -0.087557   0.024517
H  -0.177592  -1.370499  -0.844815
