butane_opt
 OpenBabel08242015403D

 14 10  0  0  0  0  0  0  0  0999 V2000
   -3.9790    0.3124   -0.1523 C   0  0  0  0  0  0  0  0  0  0  0  0
   -2.6771   -0.7233    0.2701 C   0  0  0  0  0  0  0  0  0  0  0  0
   -4.8811   -0.3198    0.0554 H   0  0  0  0  0  0  0  0  0  0  0  0
   -4.0968    1.2275   -1.1412 H   0  0  0  0  0  0  0  0  0  0  0  0
   -4.2624    0.7077    0.5302 H   0  0  0  0  0  0  0  0  0  0  0  0
   -1.4086    0.1863    0.0884 C   0  0  0  0  0  0  0  0  0  0  0  0
   -2.7595   -1.0075   -0.3263 H   0  0  0  0  0  0  0  0  0  0  0  0
   -2.7276   -1.5012    1.1861 H   0  0  0  0  0  0  0  0  0  0  0  0
   -0.1470   -0.6358   -0.1221 C   0  0  0  0  0  1  0  0  0  0  0  0
   -1.0949    1.0633    1.1540 H   0  0  0  0  0  0  0  0  0  0  0  0
   -1.4225    0.5548   -0.6398 H   0  0  0  0  0  0  0  0  0  0  0  0
   -0.4018   -0.6494    0.3939 H   0  0  0  0  0  0  0  0  0  0  0  0
    0.7592   -0.2461    0.5289 H   0  0  0  0  0  0  0  0  0  0  0  0
    0.3890   -1.9925   -1.4324 H   0  0  0  0  0  0  0  0  0  0  0  0
  1  3  1  0  0  0  0
  1  2  1  0  0  0  0
  1  5  1  0  0  0  0
  2  8  1  0  0  0  0
  4  1  1  0  0  0  0
  6 12  1  0  0  0  0
  6 10  1  0  0  0  0
  7  2  1  0  0  0  0
  9 13  1  0  0  0  0
 11  6  1  0  0  0  0
M  RAD  3   2   2   6   2  14   2
M  END
$$$$
