butane_opt
 OpenBabel08242015403D

 14 13  0  0  0  0  0  0  0  0999 V2000
   -3.9088    0.3017    0.2223 C   0  0  0  0  0  0  0  0  0  0  0  0
   -2.6710   -0.7134   -0.1997 C   0  0  0  0  0  0  0  0  0  0  0  0
   -4.7825   -0.1696    0.6238 H   0  0  0  0  0  0  0  0  0  0  0  0
   -4.2345    0.9245   -0.5744 H   0  0  0  0  0  0  0  0  0  0  0  0
   -3.9879    0.9602    1.0154 H   0  0  0  0  0  0  0  0  0  0  0  0
   -1.4033    0.1825   -0.1567 C   0  0  0  0  0  0  0  0  0  0  0  0
   -2.6616   -1.5291   -1.2672 H   0  0  0  0  0  0  0  0  0  0  0  0
   -2.3950   -1.0436    0.5430 H   0  0  0  0  0  0  0  0  0  0  0  0
   -0.2223   -0.6800    0.2450 C   0  0  0  0  0  0  0  0  0  0  0  0
   -1.7796    0.5706    0.3391 H   0  0  0  0  0  0  0  0  0  0  0  0
   -1.0135    1.0161   -1.3193 H   0  0  0  0  0  0  0  0  0  0  0  0
   -0.3540   -1.1638    1.0566 H   0  0  0  0  0  0  0  0  0  0  0  0
    0.7895   -0.0123    0.3025 H   0  0  0  0  0  0  0  0  0  0  0  0
   -0.1249   -1.1216   -0.5893 H   0  0  0  0  0  0  0  0  0  0  0  0
  1  3  1  0  0  0  0
  1  5  1  0  0  0  0
  2  6  1  0  0  0  0
  2  1  1  0  0  0  0
  2  8  1  0  0  0  0
  4  1  1  0  0  0  0
  6  9  1  0  0  0  0
  6 10  1  0  0  0  0
  7  2  1  0  0  0  0
  9 13  1  0  0  0  0
  9 12  1  0  0  0  0
 11  6  1  0  0  0  0
 14  9  1  0  0  0  0
M  END
$$$$
