14
butane_opt
C  -3.896380   0.332993   0.102621
C  -2.656610  -0.715600  -0.087583
H  -4.537252  -0.110446  -0.134044
H  -4.000926   0.200553  -0.205849
H  -3.935831   1.529311   1.283085
C  -1.465408   0.138490  -0.126898
H  -2.516402  -1.262256  -0.930101
H  -2.661678  -1.335596   0.889291
C  -0.194360  -0.639337   0.155061
H  -1.424213   0.640442   0.606884
H  -1.268238   0.862313  -1.078796
H  -0.462792  -1.606388   1.287163
H   0.758215   0.114369  -0.102216
H  -0.447429  -0.897363  -0.569548
