14
butane_opt
C  -3.937067   0.337733   0.142505
C  -2.696074  -0.632623  -0.013105
H  -4.852889  -0.356606   0.024094
H  -3.950381   0.849289  -0.653629
H  -3.678663   0.612821   0.908950
C  -1.412887   0.134117  -0.208181
H  -2.801992  -1.334976  -0.802455
H  -2.590214  -1.173835   0.832918
C  -0.163577  -0.651220   0.148346
H  -1.421046   0.914614   0.559144
H  -1.257530   0.637844  -1.000610
H  -0.696662  -1.020837   0.867647
H   0.667722  -0.088370   0.710989
H   0.050733  -1.783738  -0.917172
