butane_opt
 OpenBabel08242015403D

 14 10  0  0  0  0  0  0  0  0999 V2000
   -3.9803    0.3631    0.0012 C   0  0  0  0  0  0  0  0  0  0  0  0
   -2.6977   -0.6946    0.0643 C   0  0  0  0  0  0  0  0  0  0  0  0
   -4.8534   -0.3097    0.2262 H   0  0  0  0  0  0  0  0  0  0  0  0
   -4.0194    1.0900   -0.9561 H   0  0  0  0  0  0  0  0  0  0  0  0
   -3.8535    0.7498    0.6718 H   0  0  0  0  0  0  0  0  0  0  0  0
   -1.3839    0.1231   -0.0083 C   0  0  0  0  0  0  0  0  0  0  0  0
   -2.6737   -1.2582   -0.7519 H   0  0  0  0  0  0  0  0  0  0  0  0
   -2.4609   -1.3683    1.1297 H   0  0  0  0  0  0  0  0  0  0  0  0
   -0.2325   -0.6412    0.0860 C   0  0  0  0  0  0  0  0  0  0  0  0
   -1.1997    0.5984    0.7160 H   0  0  0  0  0  0  0  0  0  0  0  0
   -1.1551    0.7784   -0.9501 H   0  0  0  0  0  0  0  0  0  0  0  0
   -0.2242   -0.6902    0.4320 H   0  0  0  0  0  0  0  0  0  0  0  0
    0.9355    0.1543    0.3347 H   0  0  0  0  0  0  0  0  0  0  0  0
   -0.0440   -1.9873   -1.2372 H   0  0  0  0  0  0  0  0  0  0  0  0
  1  2  1  0  0  0  0
  1  3  1  0  0  0  0
  1  5  1  0  0  0  0
  2  8  1  0  0  0  0
  4  1  1  0  0  0  0
  6  9  1  0  0  0  0
  6 10  1  0  0  0  0
  7  2  1  0  0  0  0
  9 13  1  0  0  0  0
 11  6  1  0  0  0  0
M  RAD  5   2   2   6   2   9   3  12   2  14   2
M  END
$$$$
