butane_opt
 OpenBabel08242015403D

 14 11  0  0  0  0  0  0  0  0999 V2000
   -3.9408    0.3243   -0.0760 C   0  0  0  0  0  0  0  0  0  0  0  0
   -2.6095   -0.7351    0.1443 C   0  0  0  0  0  0  0  0  0  0  0  0
   -4.7517   -0.2129    0.3487 H   0  0  0  0  0  0  0  0  0  0  0  0
   -3.9463    1.1725   -1.0243 H   0  0  0  0  0  0  0  0  0  0  0  0
   -3.8494    0.9510    0.7663 H   0  0  0  0  0  0  0  0  0  0  0  0
   -1.4577    0.1260    0.0438 C   0  0  0  0  0  0  0  0  0  0  0  0
   -2.4734   -1.3030   -0.6792 H   0  0  0  0  0  0  0  0  0  0  0  0
   -2.7569   -1.4504    1.0148 H   0  0  0  0  0  0  0  0  0  0  0  0
   -0.2488   -0.6230   -0.0106 C   0  0  0  0  0  0  0  0  0  0  0  0
   -1.0933    0.7022    0.9567 H   0  0  0  0  0  0  0  0  0  0  0  0
   -1.5158    0.9968   -1.0577 H   0  0  0  0  0  0  0  0  0  0  0  0
   -0.2926   -0.6470    0.5903 H   0  0  0  0  0  0  0  0  0  0  0  0
    0.7500    0.1627    0.5583 H   0  0  0  0  0  0  0  0  0  0  0  0
   -0.0858   -1.9302   -1.2789 H   0  0  0  0  0  0  0  0  0  0  0  0
  1  2  1  0  0  0  0
  1  3  1  0  0  0  0
  1  5  1  0  0  0  0
  2  8  1  0  0  0  0
  4  1  1  0  0  0  0
  6  2  1  0  0  0  0
  6 10  1  0  0  0  0
  7  2  1  0  0  0  0
  9  6  1  0  0  0  0
  9 13  1  0  0  0  0
 11  6  1  0  0  0  0
M  RAD  3   9   3  12   2  14   2
M  END
$$$$
