14
butane_opt
C  -3.899296   0.296164  -0.065168
C  -2.659272  -0.628622   0.070602
H  -4.714231  -0.296773   0.709456
H  -4.569883   1.670569  -1.384311
H  -3.761228   0.397742   0.520600
C  -1.373315   0.140183   0.115738
H  -2.792831  -1.563304  -0.954551
H  -2.888071  -1.273161   1.002187
C  -0.218052  -0.660713  -0.002136
H  -1.144916   0.746762   0.994752
H  -1.522441   0.796434  -0.623701
H  -0.244649  -1.009871   0.608931
H   0.761248   0.125607   0.166463
H  -0.332460  -1.780164  -1.131921
