butane_opt
 OpenBabel08242015403D

 14 10  0  0  0  0  0  0  0  0999 V2000
   -3.9402    0.2554    0.0657 C   0  0  0  0  0  0  0  0  0  0  0  0
   -2.6267   -0.5940    0.0482 C   0  0  0  0  0  0  0  0  0  0  0  0
   -4.6961   -0.2645   -0.5658 H   0  0  0  0  0  0  0  0  0  0  0  0
   -3.7940    0.3556   -0.4780 H   0  0  0  0  0  0  0  0  0  0  0  0
   -4.1222    1.6927    1.3073 H   0  0  0  0  0  0  0  0  0  0  0  0
   -1.4572    0.0849   -0.0818 C   0  0  0  0  0  0  0  0  0  0  0  0
   -2.5382   -1.3755   -0.7699 H   0  0  0  0  0  0  0  0  0  0  0  0
   -2.7579   -1.1242    0.8088 H   0  0  0  0  0  0  0  0  0  0  0  0
   -0.1985   -0.6491    0.0935 C   0  0  0  0  0  0  0  0  0  0  0  0
   -1.2224    0.5542    0.5852 H   0  0  0  0  0  0  0  0  0  0  0  0
   -1.5344    1.0828   -1.3086 H   0  0  0  0  0  0  0  0  0  0  0  0
   -0.2524   -1.4347    1.0880 H   0  0  0  0  0  0  0  0  0  0  0  0
    1.0366    0.1590    0.0659 H   0  0  0  0  0  0  0  0  0  0  0  0
   -0.4980   -1.2539   -0.6664 H   0  0  0  0  0  0  0  0  0  0  0  0
  2  1  1  0  0  0  0
  2  8  1  0  0  0  0
  3  1  1  0  0  0  0
  6  2  1  0  0  0  0
  6  9  1  0  0  0  0
  6 10  1  0  0  0  0
  7  2  1  0  0  0  0
  9 12  1  0  0  0  0
 13  9  1  0  0  0  0
 14  9  1  0  0  0  0
M  RAD  5   1   3   4   2   5   2   6   2  11   2
M  END
$$$$
