butane_opt
 OpenBabel08242015403D

 14 12  0  0  0  0  0  0  0  0999 V2000
   -3.9272    0.3072    0.1588 C   0  0  0  0  0  0  0  0  0  0  0  0
   -2.7099   -0.7047   -0.0192 C   0  0  0  0  0  0  0  0  0  0  0  0
   -4.7952   -0.2084   -0.6469 H   0  0  0  0  0  0  0  0  0  0  0  0
   -3.7507    0.6093   -0.5291 H   0  0  0  0  0  0  0  0  0  0  0  0
   -4.1001    1.4949    1.3428 H   0  0  0  0  0  0  0  0  0  0  0  0
   -1.3967    0.1412   -0.1950 C   0  0  0  0  0  0  0  0  0  0  0  0
   -2.5771   -1.2864   -0.8888 H   0  0  0  0  0  0  0  0  0  0  0  0
   -2.4780   -1.2736    0.7735 H   0  0  0  0  0  0  0  0  0  0  0  0
   -0.2262   -0.6579    0.1320 C   0  0  0  0  0  0  0  0  0  0  0  0
   -1.4179    0.9695    0.7396 H   0  0  0  0  0  0  0  0  0  0  0  0
   -1.1871    0.7569   -0.9742 H   0  0  0  0  0  0  0  0  0  0  0  0
   -0.2952   -1.5385    1.3428 H   0  0  0  0  0  0  0  0  0  0  0  0
    0.8447    0.0557   -0.0655 H   0  0  0  0  0  0  0  0  0  0  0  0
   -0.1713   -1.0894   -0.5280 H   0  0  0  0  0  0  0  0  0  0  0  0
  2  1  1  0  0  0  0
  2  8  1  0  0  0  0
  3  1  1  0  0  0  0
  4  1  1  0  0  0  0
  6  2  1  0  0  0  0
  6  9  1  0  0  0  0
  6 10  1  0  0  0  0
  7  2  1  0  0  0  0
  9 12  1  0  0  0  0
 11  6  1  0  0  0  0
 13  9  1  0  0  0  0
 14  9  1  0  0  0  0
M  RAD  2   1   2   5   2
M  END
$$$$
