14
butane_opt
C  -4.017680   0.300593   0.165317
C  -2.626694  -0.642449  -0.158008
H  -5.109464  -0.352737  -0.025404
H  -4.181790   0.519760  -0.504452
H  -4.060397   1.356476   1.171889
C  -1.379012   0.100340  -0.104805
H  -2.922231  -1.275784  -1.049935
H  -2.479426  -1.207285   0.631832
C  -0.159489  -0.640298   0.170805
H  -1.427784   0.916798   0.876615
H  -1.144973   0.807780  -1.199108
H  -0.159163  -1.845264   1.574330
H   0.818540  -0.047937  -0.438944
H  -0.167483  -0.785586  -0.404300
