butane_opt
 OpenBabel08242015403D

 14 13  0  0  0  0  0  0  0  0999 V2000
   -3.9574    0.3043   -0.1656 C   0  0  0  0  0  0  0  0  0  0  0  0
   -2.7633   -0.6903    0.1619 C   0  0  0  0  0  0  0  0  0  0  0  0
   -4.7476   -0.2355    0.0320 H   0  0  0  0  0  0  0  0  0  0  0  0
   -4.0171    1.2545   -1.2027 H   0  0  0  0  0  0  0  0  0  0  0  0
   -4.1495    0.6969    0.4748 H   0  0  0  0  0  0  0  0  0  0  0  0
   -1.3554    0.2041    0.2324 C   0  0  0  0  0  0  0  0  0  0  0  0
   -2.7722   -1.1824   -0.5238 H   0  0  0  0  0  0  0  0  0  0  0  0
   -2.9573   -1.5124    1.1995 H   0  0  0  0  0  0  0  0  0  0  0  0
   -0.1080   -0.6661   -0.1056 C   0  0  0  0  0  0  0  0  0  0  0  0
   -1.1578    1.1003    1.3402 H   0  0  0  0  0  0  0  0  0  0  0  0
   -1.6199    0.6242   -0.3562 H   0  0  0  0  0  0  0  0  0  0  0  0
    0.1811   -1.3399    0.7754 H   0  0  0  0  0  0  0  0  0  0  0  0
    0.7831   -0.1757   -0.7008 H   0  0  0  0  0  0  0  0  0  0  0  0
   -0.3857   -1.4990   -1.1361 H   0  0  0  0  0  0  0  0  0  0  0  0
  1  3  1  0  0  0  0
  1  2  1  0  0  0  0
  1  5  1  0  0  0  0
  2  6  1  0  0  0  0
  2  8  1  0  0  0  0
  4  1  1  0  0  0  0
  6 10  1  0  0  0  0
  7  2  1  0  0  0  0
  9  6  1  0  0  0  0
  9 12  1  0  0  0  0
 11  6  1  0  0  0  0
 13  9  1  0  0  0  0
 14  9  1  0  0  0  0
M  END
$$$$
