14
butane_opt
C  -4.034648   0.241919   0.154063
C  -2.692814  -0.597968  -0.152021
H  -4.951028  -0.356849  -0.037907
H  -4.156217   0.616503  -0.489063
H  -4.059703   1.395509   1.355336
C  -1.374629   0.185498  -0.107908
H  -2.703218  -1.581901  -1.214880
H  -2.440224  -1.132296   0.668994
C  -0.111927  -0.653791   0.151610
H  -1.298768   0.735285   0.719110
H  -1.290168   0.791957  -0.883154
H  -0.276193  -2.125213   1.663898
H   0.743444  -0.280511  -0.519142
H   0.021184  -0.639195  -0.277975
