14
butane_opt
C  -4.052647   0.321513   0.084221
C  -2.730421  -0.679351  -0.021726
H  -4.706789  -0.046509  -0.728050
H  -3.946894   0.229061  -0.227416
H  -4.171899   1.594489   1.355950
C  -1.352314   0.129427  -0.084342
H  -2.856578  -1.237388  -0.718097
H  -2.573335  -1.347806   0.968884
C  -0.082095  -0.673151   0.105700
H  -1.448992   0.528680   0.430436
H  -1.118584   0.970638  -1.032300
H  -0.236556  -1.438254   1.181511
H   0.935479   0.138004  -0.137320
H  -0.317977  -1.038358  -0.612611
