14
butane_opt
C  -3.921435   0.173016  -0.043812
C  -2.740815  -0.558060   0.184244
H  -4.770492  -0.431181  -0.595924
H  -3.442197   0.676876  -0.912872
H  -4.236080   1.227661   0.915960
C  -1.446045   0.242566   0.090560
H  -2.614816  -1.330178  -0.565147
H  -3.151034  -1.078220   1.018490
C  -0.106686  -0.718075  -0.069355
H  -1.423595   1.023453   0.936025
H  -1.761040   1.139990  -0.978315
H   0.235685  -1.630176   0.876283
H   0.737875  -0.339363  -0.100628
H  -0.042861  -1.423577  -1.006151
