butane_opt
 OpenBabel08242015403D

 14 13  0  0  0  0  0  0  0  0999 V2000
   -3.9392    0.2789   -0.0048 C   0  0  0  0  0  0  0  0  0  0  0  0
   -2.6920   -0.6195    0.0658 C   0  0  0  0  0  0  0  0  0  0  0  0
   -4.8658   -0.3342    0.0010 H   0  0  0  0  0  0  0  0  0  0  0  0
   -3.9422    0.9464   -0.9376 H   0  0  0  0  0  0  0  0  0  0  0  0
   -4.0078    0.9069    0.7835 H   0  0  0  0  0  0  0  0  0  0  0  0
   -1.4027    0.1586    0.0487 C   0  0  0  0  0  0  0  0  0  0  0  0
   -2.6823   -1.3163   -0.7865 H   0  0  0  0  0  0  0  0  0  0  0  0
   -2.7084   -1.2707    0.9588 H   0  0  0  0  0  0  0  0  0  0  0  0
   -0.1752   -0.6800   -0.0008 C   0  0  0  0  0  0  0  0  0  0  0  0
   -1.3542    0.8830    0.9444 H   0  0  0  0  0  0  0  0  0  0  0  0
   -1.3527    0.7636   -0.8171 H   0  0  0  0  0  0  0  0  0  0  0  0
   -0.1472   -1.3112    0.8987 H   0  0  0  0  0  0  0  0  0  0  0  0
    0.7428   -0.0826   -0.0773 H   0  0  0  0  0  0  0  0  0  0  0  0
   -0.1973   -1.3106   -0.8448 H   0  0  0  0  0  0  0  0  0  0  0  0
  1  3  1  0  0  0  0
  1  2  1  0  0  0  0
  1  5  1  0  0  0  0
  2  8  1  0  0  0  0
  4  1  1  0  0  0  0
  6  2  1  0  0  0  0
  6 10  1  0  0  0  0
  7  2  1  0  0  0  0
  9  6  1  0  0  0  0
  9 12  1  0  0  0  0
 11  6  1  0  0  0  0
 13  9  1  0  0  0  0
 14  9  1  0  0  0  0
M  END
$$$$
