butane_opt
 OpenBabel08242015403D

 14 12  0  0  0  0  0  0  0  0999 V2000
   -3.9566    0.2713   -0.1228 C   0  0  0  0  0  0  0  0  0  0  0  0
   -2.7832   -0.5928    0.1698 C   0  0  0  0  0  0  0  0  0  0  0  0
   -4.9389   -0.4749    0.4907 H   0  0  0  0  0  0  0  0  0  0  0  0
   -4.2916    1.1239   -1.0921 H   0  0  0  0  0  0  0  0  0  0  0  0
   -3.8643    0.4315    0.5832 H   0  0  0  0  0  0  0  0  0  0  0  0
   -1.3515    0.2665    0.0866 C   0  0  0  0  0  0  0  0  0  0  0  0
   -2.5402   -1.1363   -0.6038 H   0  0  0  0  0  0  0  0  0  0  0  0
   -2.9143   -1.4321    1.1522 H   0  0  0  0  0  0  0  0  0  0  0  0
   -0.1112   -0.7207   -0.0772 C   0  0  0  0  0  0  0  0  0  0  0  0
   -1.3901    0.9083    1.0472 H   0  0  0  0  0  0  0  0  0  0  0  0
   -1.3544    0.5058   -0.6190 H   0  0  0  0  0  0  0  0  0  0  0  0
   -0.2512   -0.8527    0.5329 H   0  0  0  0  0  0  0  0  0  0  0  0
    0.5913   -0.3082    0.3569 H   0  0  0  0  0  0  0  0  0  0  0  0
    0.3812   -1.9280   -1.1959 H   0  0  0  0  0  0  0  0  0  0  0  0
  1  2  1  0  0  0  0
  1  3  1  0  0  0  0
  1  5  1  0  0  0  0
  2  8  1  0  0  0  0
  4  1  1  0  0  0  0
  6  2  1  0  0  0  0
  6 10  1  0  0  0  0
  7  2  1  0  0  0  0
  9  6  1  0  0  0  0
  9 13  1  0  0  0  0
  9 12  1  0  0  0  0
 11  6  1  0  0  0  0
M  RAD  2   9   2  14   2
M  END
$$$$
