14
butane_opt
C  -3.961190   0.285378  -0.098299
C  -2.794647  -0.614634   0.116151
H  -4.773387  -0.284001   0.070541
H  -3.823403   1.123148  -1.149110
H  -4.067799   0.593825   0.722740
C  -1.379358   0.225186   0.223311
H  -2.628475  -1.423129  -0.871758
H  -2.926495  -1.319352   0.997277
C  -0.085834  -0.719781  -0.093957
H  -1.562450   0.809744   1.105746
H  -1.277083   0.770605  -0.699646
H   0.343111  -1.533644   0.874527
H   0.888912  -0.039815  -0.484324
H  -0.575245  -1.211154  -0.891815
