butane_opt
 OpenBabel08242015403D

 14 13  0  0  0  0  0  0  0  0999 V2000
   -3.9214    0.1730   -0.0438 C   0  0  0  0  0  0  0  0  0  0  0  0
   -2.7408   -0.5581    0.1842 C   0  0  0  0  0  0  0  0  0  0  0  0
   -4.7705   -0.4312   -0.5959 H   0  0  0  0  0  0  0  0  0  0  0  0
   -3.4422    0.6769   -0.9129 H   0  0  0  0  0  0  0  0  0  0  0  0
   -4.2361    1.2277    0.9160 H   0  0  0  0  0  0  0  0  0  0  0  0
   -1.4460    0.2426    0.0906 C   0  0  0  0  0  0  0  0  0  0  0  0
   -2.6148   -1.3302   -0.5651 H   0  0  0  0  0  0  0  0  0  0  0  0
   -3.1510   -1.0782    1.0185 H   0  0  0  0  0  0  0  0  0  0  0  0
   -0.1067   -0.7181   -0.0694 C   0  0  0  0  0  0  0  0  0  0  0  0
   -1.4236    1.0235    0.9360 H   0  0  0  0  0  0  0  0  0  0  0  0
   -1.7610    1.1400   -0.9783 H   0  0  0  0  0  0  0  0  0  0  0  0
    0.2357   -1.6302    0.8763 H   0  0  0  0  0  0  0  0  0  0  0  0
    0.7379   -0.3394   -0.1006 H   0  0  0  0  0  0  0  0  0  0  0  0
   -0.0429   -1.4236   -1.0062 H   0  0  0  0  0  0  0  0  0  0  0  0
  1  2  1  0  0  0  0
  1  5  1  0  0  0  0
  2  8  1  0  0  0  0
  3  1  1  0  0  0  0
  4  1  1  0  0  0  0
  6  2  1  0  0  0  0
  6 10  1  0  0  0  0
  7  2  1  0  0  0  0
  9  6  1  0  0  0  0
  9 12  1  0  0  0  0
 11  6  1  0  0  0  0
 13  9  1  0  0  0  0
 14  9  1  0  0  0  0
M  END
$$$$
