butane_opt
 OpenBabel08242015403D

 14 10  0  0  0  0  0  0  0  0999 V2000
   -3.9773    0.2103    0.1014 C   0  0  0  0  0  0  0  0  0  0  0  0
   -2.7488   -0.5960   -0.0253 C   0  0  0  0  0  0  0  0  0  0  0  0
   -4.9269   -0.3374   -0.4391 H   0  0  0  0  0  0  0  0  0  0  0  0
   -3.6126    0.1666   -0.4542 H   0  0  0  0  0  0  0  0  0  0  0  0
   -4.1677    1.6320    1.5488 H   0  0  0  0  0  0  0  0  0  0  0  0
   -1.4139    0.2910   -0.1411 C   0  0  0  0  0  0  0  0  0  0  0  0
   -2.7127   -1.1742   -0.7498 H   0  0  0  0  0  0  0  0  0  0  0  0
   -2.6113   -1.4498    0.9639 H   0  0  0  0  0  0  0  0  0  0  0  0
   -0.1100   -0.6887    0.0970 C   0  0  0  0  0  0  0  0  0  0  0  0
   -1.6424    0.7059    0.4879 H   0  0  0  0  0  0  0  0  0  0  0  0
   -1.2119    0.8101   -1.0092 H   0  0  0  0  0  0  0  0  0  0  0  0
    0.0303   -1.6433    1.2664 H   0  0  0  0  0  0  0  0  0  0  0  0
    0.5770   -0.4264    0.0746 H   0  0  0  0  0  0  0  0  0  0  0  0
    0.2544   -1.3546   -0.5474 H   0  0  0  0  0  0  0  0  0  0  0  0
  2  8  1  0  0  0  0
  3  1  1  0  0  0  0
  4  1  1  0  0  0  0
  6  9  1  0  0  0  0
  6 10  1  0  0  0  0
  7  2  1  0  0  0  0
  9 12  1  0  0  0  0
 11  6  1  0  0  0  0
 13  9  1  0  0  0  0
 14  9  1  0  0  0  0
M  RAD  4   1   3   2   3   5   2   6   2
M  END
$$$$
