butane_opt
 OpenBabel08242015403D

 14 11  0  0  0  0  0  0  0  0999 V2000
   -3.9739    0.3315    0.0879 C   0  0  0  0  0  0  0  0  0  0  0  0
   -2.7113   -0.7252   -0.1295 C   0  0  0  0  0  0  0  0  0  0  0  0
   -4.7394   -0.0805    0.2839 H   0  0  0  0  0  0  0  0  0  0  0  0
   -4.2581    0.7428   -0.6218 H   0  0  0  0  0  0  0  0  0  0  0  0
   -4.1085    1.2858    1.0633 H   0  0  0  0  0  0  0  0  0  0  0  0
   -1.3665    0.1214    0.0201 C   0  0  0  0  0  0  0  0  0  0  0  0
   -2.6938   -1.2703   -0.9936 H   0  0  0  0  0  0  0  0  0  0  0  0
   -3.1533   -1.1162    0.6922 H   0  0  0  0  0  0  0  0  0  0  0  0
   -0.1534   -0.6362    0.0936 C   0  0  0  0  0  0  0  0  0  0  0  0
   -1.3510    0.7297    0.7434 H   0  0  0  0  0  0  0  0  0  0  0  0
   -1.2206    0.7357   -0.9702 H   0  0  0  0  0  0  0  0  0  0  0  0
    0.1231   -1.8474    1.4943 H   0  0  0  0  0  0  0  0  0  0  0  0
    0.9624    0.1043   -0.5321 H   0  0  0  0  0  0  0  0  0  0  0  0
   -0.1983   -0.8115   -0.4583 H   0  0  0  0  0  0  0  0  0  0  0  0
  1  3  1  0  0  0  0
  1  5  1  0  0  0  0
  2  6  1  0  0  0  0
  2  1  1  0  0  0  0
  2  8  1  0  0  0  0
  4  1  1  0  0  0  0
  6  9  1  0  0  0  0
  6 10  1  0  0  0  0
  7  2  1  0  0  0  0
 11  6  1  0  0  0  0
 13  9  1  0  0  0  0
M  RAD  3   9   3  12   2  14   2
M  END
$$$$
