butane_opt
 OpenBabel08242015403D

 14 12  0  0  0  0  0  0  0  0999 V2000
   -3.9072    0.3262   -0.0891 C   0  0  0  0  0  0  0  0  0  0  0  0
   -2.6496   -0.6517    0.1741 C   0  0  0  0  0  0  0  0  0  0  0  0
   -4.8644   -0.5188   -0.6021 H   0  0  0  0  0  0  0  0  0  0  0  0
   -3.9230    0.4705   -0.7173 H   0  0  0  0  0  0  0  0  0  0  0  0
   -4.2324    1.5937    1.0756 H   0  0  0  0  0  0  0  0  0  0  0  0
   -1.3532    0.1024    0.0557 C   0  0  0  0  0  0  0  0  0  0  0  0
   -2.4253   -0.9822   -0.3778 H   0  0  0  0  0  0  0  0  0  0  0  0
   -2.9583   -1.4420    1.2690 H   0  0  0  0  0  0  0  0  0  0  0  0
   -0.2288   -0.6688   -0.0420 C   0  0  0  0  0  0  0  0  0  0  0  0
   -1.4070    0.7634    0.8509 H   0  0  0  0  0  0  0  0  0  0  0  0
   -1.6066    0.6654   -0.7749 H   0  0  0  0  0  0  0  0  0  0  0  0
   -0.4556   -1.1107    0.7413 H   0  0  0  0  0  0  0  0  0  0  0  0
    0.8944    0.1597   -0.2568 H   0  0  0  0  0  0  0  0  0  0  0  0
   -0.3573   -1.3723   -0.9189 H   0  0  0  0  0  0  0  0  0  0  0  0
  1  2  1  0  0  0  0
  2  8  1  0  0  0  0
  3  1  1  0  0  0  0
  4  1  1  0  0  0  0
  6  2  1  0  0  0  0
  6 10  1  0  0  0  0
  7  2  1  0  0  0  0
  9  6  1  0  0  0  0
  9 12  1  0  0  0  0
 11  6  1  0  0  0  0
 13  9  1  0  0  0  0
 14  9  1  0  0  0  0
M  RAD  2   1   2   5   2
M  END
$$$$
