14
butane_opt
C  -3.941188   0.188365   0.163782
C  -2.707479  -0.515478  -0.213960
H  -4.918932  -0.449361   0.937261
H  -4.589566   0.878791  -0.692434
H  -3.457237   0.700663   0.973271
C  -1.409211   0.258327  -0.123111
H  -2.963940  -1.526351  -1.293527
H  -2.725116  -0.901161   0.467769
C  -0.067232  -0.749719   0.243684
H  -1.808429   0.662366   0.608899
H  -1.428852   0.933798  -1.058939
H  -0.203667  -1.570304   1.210771
H   0.584292  -0.239864  -0.059978
H   0.038939  -1.143186  -0.499440
