14
butane_opt
C  -3.930452   0.263266   0.158673
C  -2.747433  -0.642265  -0.031123
H  -4.724638  -0.154730  -0.465380
H  -3.760749   0.430435  -0.438386
H  -4.156860   1.392087   1.289623
C  -1.414970   0.181162  -0.183631
H  -2.913586  -1.306907  -1.013063
H  -2.536738  -1.027293   0.616081
C  -0.142626  -0.688313   0.167115
H  -1.201346   0.618585   0.585313
H  -1.235116   0.951118  -1.222421
H  -0.036319  -1.381975   1.240462
H   0.592250  -0.279618   0.090192
H  -0.220128  -1.108833  -0.489071
