butane_opt
 OpenBabel08242015403D

 14 13  0  0  0  0  0  0  0  0999 V2000
   -3.9512    0.2598    0.0508 C   0  0  0  0  0  0  0  0  0  0  0  0
   -2.7109   -0.6092    0.0136 C   0  0  0  0  0  0  0  0  0  0  0  0
   -4.8280   -0.3232   -0.0289 H   0  0  0  0  0  0  0  0  0  0  0  0
   -3.9486    0.7763   -0.8031 H   0  0  0  0  0  0  0  0  0  0  0  0
   -3.9325    0.9589    0.9477 H   0  0  0  0  0  0  0  0  0  0  0  0
   -1.4049    0.2021   -0.0182 C   0  0  0  0  0  0  0  0  0  0  0  0
   -2.7205   -1.3027   -0.8581 H   0  0  0  0  0  0  0  0  0  0  0  0
   -2.7518   -1.2110    0.8827 H   0  0  0  0  0  0  0  0  0  0  0  0
   -0.1537   -0.7002    0.0573 C   0  0  0  0  0  0  0  0  0  0  0  0
   -1.3774    0.8212    0.7878 H   0  0  0  0  0  0  0  0  0  0  0  0
   -1.3424    0.8572   -0.9594 H   0  0  0  0  0  0  0  0  0  0  0  0
   -0.1167   -1.3746    0.9861 H   0  0  0  0  0  0  0  0  0  0  0  0
    0.7052   -0.1506    0.0226 H   0  0  0  0  0  0  0  0  0  0  0  0
   -0.0672   -1.3522   -0.7672 H   0  0  0  0  0  0  0  0  0  0  0  0
  1  5  1  0  0  0  0
  2  1  1  0  0  0  0
  2  8  1  0  0  0  0
  3  1  1  0  0  0  0
  4  1  1  0  0  0  0
  6  2  1  0  0  0  0
  6  9  1  0  0  0  0
  6 10  1  0  0  0  0
  7  2  1  0  0  0  0
  9 12  1  0  0  0  0
 11  6  1  0  0  0  0
 13  9  1  0  0  0  0
 14  9  1  0  0  0  0
M  END
$$$$
