14
butane_opt
C  -3.861663   0.241385   0.126394
C  -2.663958  -0.580146  -0.149939
H  -4.799797  -0.475355   0.926446
H  -4.215306   1.012339  -0.850052
H  -3.425694   0.511070   0.935574
C  -1.481960   0.283623  -0.091840
H  -2.723945  -1.733427  -1.243563
H  -3.000969  -0.963161   0.711212
C  -0.193783  -0.744033   0.188425
H  -1.693327   0.702770   0.649149
H  -1.414028   0.981967  -1.123852
H  -0.019145  -1.300514   1.032656
H   0.694745  -0.181563   0.173872
H  -0.026820  -1.385349  -0.641673
