butane_opt
 OpenBabel08242015403D

 14 10  0  0  0  0  0  0  0  0999 V2000
   -3.9542    0.1752    0.1717 C   0  0  0  0  0  0  0  0  0  0  0  0
   -2.7343   -0.5509   -0.1408 C   0  0  0  0  0  0  0  0  0  0  0  0
   -4.9403   -0.4582    0.2862 H   0  0  0  0  0  0  0  0  0  0  0  0
   -4.0532    0.6769   -0.6525 H   0  0  0  0  0  0  0  0  0  0  0  0
   -3.8350    1.2590    1.2268 H   0  0  0  0  0  0  0  0  0  0  0  0
   -1.4069    0.2496   -0.1140 C   0  0  0  0  0  0  0  0  0  0  0  0
   -2.7666   -1.4836   -1.2599 H   0  0  0  0  0  0  0  0  0  0  0  0
   -2.9381   -0.7611    0.4116 H   0  0  0  0  0  0  0  0  0  0  0  0
   -0.0529   -0.7442    0.2134 C   0  0  0  0  0  0  0  0  0  0  0  0
   -1.7602    0.7560    0.4289 H   0  0  0  0  0  0  0  0  0  0  0  0
   -1.5420    0.9822   -1.0844 H   0  0  0  0  0  0  0  0  0  0  0  0
    0.0604   -1.7767    1.4596 H   0  0  0  0  0  0  0  0  0  0  0  0
    0.7521   -0.2982   -0.4411 H   0  0  0  0  0  0  0  0  0  0  0  0
   -0.1756   -0.9506   -0.3855 H   0  0  0  0  0  0  0  0  0  0  0  0
  1  3  1  0  0  0  0
  1  8  1  0  0  0  0
  2  6  1  0  0  0  0
  4  1  1  0  0  0  0
  6  9  1  0  0  0  0
  6 10  1  0  0  0  0
  7  2  1  0  0  0  0
 11  6  1  0  0  0  0
 13  9  1  0  0  0  0
 14  9  1  0  0  0  0
M  RAD  5   1   2   2   3   5   2   9   2  12   2
M  END
$$$$
