butane_opt
 OpenBabel08242015403D

 14  9  0  0  0  0  0  0  0  0999 V2000
   -3.9237    0.1954    0.0527 C   0  0  0  0  0  0  0  0  0  0  0  0
   -2.7555   -0.5874    0.0014 C   0  0  0  0  0  0  0  0  0  0  0  0
   -4.7960   -0.3585   -0.2397 H   0  0  0  0  0  0  0  0  0  0  0  0
   -3.6725    0.3489   -0.5997 H   0  0  0  0  0  0  0  0  0  0  0  0
   -4.1263    1.2984    1.2654 H   0  0  0  0  0  0  0  0  0  0  0  0
   -1.4182    0.3324   -0.0348 C   0  0  0  0  0  0  0  0  0  0  0  0
   -2.9468   -1.1187   -0.8238 H   0  0  0  0  0  0  0  0  0  0  0  0
   -2.7192   -1.0644    0.6865 H   0  0  0  0  0  0  0  0  0  0  0  0
   -0.1373   -0.8137    0.0425 C   0  0  0  0  0  0  0  0  0  0  0  0
   -1.2406    0.8982    0.8482 H   0  0  0  0  0  0  0  0  0  0  0  0
   -1.4545    0.9605   -1.0087 H   0  0  0  0  0  0  0  0  0  0  0  0
   -0.0534   -1.8111    1.3322 H   0  0  0  0  0  0  0  0  0  0  0  0
    0.7411   -0.1437   -0.2136 H   0  0  0  0  0  0  0  0  0  0  0  0
    0.0765   -1.0179   -0.4409 H   0  0  0  0  0  0  0  0  0  0  0  0
  2  1  1  0  0  0  0
  2  8  1  0  0  0  0
  3  1  1  0  0  0  0
  4  1  1  0  0  0  0
  6  9  1  0  0  0  0
  6 10  1  0  0  0  0
  7  2  1  0  0  0  0
 11  6  1  0  0  0  0
 13  9  1  0  0  0  0
M  RAD  7   1   2   2   2   5   2   6   2   9   3  12   2  14   2
M  END
$$$$
