14
butane_opt
C  -3.943535   0.239130   0.109166
C  -2.689505  -0.611347  -0.046126
H  -4.854107  -0.496199  -0.532792
H  -3.699961   0.010394  -0.321362
H  -4.126585   1.726158   1.573208
C  -1.407866   0.209429  -0.152361
H  -2.628151  -1.106235  -0.679346
H  -2.677845  -1.130080   0.846568
C  -0.199234  -0.707299   0.161132
H  -1.444400   0.735094   0.501073
H  -1.567631   1.124635  -1.195149
H   0.086772  -1.648924   1.192444
H   0.705196  -0.154906  -0.060182
H   0.053884  -1.123555  -0.598462
