14
butane_opt
C  -3.928661   0.226957   0.123851
C  -2.756699  -0.596784  -0.150679
H  -4.787432  -0.370843   0.033295
H  -4.054819   0.559777  -0.487230
H  -3.978454   1.437755   1.223224
C  -1.401357   0.225305  -0.018576
H  -2.770471  -1.407448  -1.126904
H  -3.164926  -1.106253   0.731868
C  -0.070844  -0.727932   0.143457
H  -1.445132   0.869431   0.740516
H  -1.271919   0.951848  -1.157481
H   0.120222  -1.987503   1.447225
H   0.575382  -0.369037  -0.716188
H  -0.314745  -0.599996  -0.271953
