14
butane_opt
C  -3.932243   0.291550  -0.109476
C  -2.649319  -0.690800   0.291708
H  -4.874914  -0.386661  -0.654179
H  -3.463825   0.545933  -0.836203
H  -4.594850   1.251237   0.879906
C  -1.386693   0.198473   0.090093
H  -2.384054  -1.252047  -0.669308
H  -2.941869  -1.162094   1.132387
C  -0.230289  -0.673551  -0.110903
H  -1.160640   0.871414   0.967638
H  -1.702793   1.012949  -0.885699
H  -0.143678  -1.197169   0.787059
H   0.780606  -0.157570  -0.089843
H  -0.148627  -1.550029  -1.055492
