butane_opt
 OpenBabel08242015403D

 14  9  0  0  0  0  0  0  0  0999 V2000
   -3.9963    0.3217   -0.1453 C   0  0  0  0  0  0  0  0  0  0  0  0
   -2.7123   -0.6752    0.1256 C   0  0  0  0  0  0  0  0  0  0  0  0
   -4.7949   -0.2569    0.5676 H   0  0  0  0  0  0  0  0  0  0  0  0
   -4.1598    1.3800   -1.3467 H   0  0  0  0  0  0  0  0  0  0  0  0
   -3.6591    0.4437    0.5086 H   0  0  0  0  0  0  0  0  0  0  0  0
   -1.3471    0.1773    0.2098 C   0  0  0  0  0  0  0  0  0  0  0  0
   -2.6487   -1.2221   -0.6463 H   0  0  0  0  0  0  0  0  0  0  0  0
   -2.7527   -1.7521    1.2412 H   0  0  0  0  0  0  0  0  0  0  0  0
   -0.1656   -0.6375   -0.1145 C   0  0  0  0  0  0  0  0  0  0  0  0
   -1.3126    0.9907    1.1070 H   0  0  0  0  0  0  0  0  0  0  0  0
   -1.5174    0.6732   -0.4695 H   0  0  0  0  0  0  0  0  0  0  0  0
   -0.1851   -1.0386    0.5125 H   0  0  0  0  0  0  0  0  0  0  0  0
    0.5592   -0.1723    0.1652 H   0  0  0  0  0  0  0  0  0  0  0  0
    0.0610   -1.7079   -1.2079 H   0  0  0  0  0  0  0  0  0  0  0  0
  1  5  1  0  0  0  0
  1  3  1  0  0  0  0
  2  6  1  0  0  0  0
  6 10  1  0  0  0  0
  7  2  1  0  0  0  0
  9 13  1  0  0  0  0
  9  6  1  0  0  0  0
  9 12  1  0  0  0  0
 11  6  1  0  0  0  0
M  RAD  6   1   3   2   3   4   2   8   2   9   2  14   2
M  END
$$$$
