14
butane_opt
C  -3.861361   0.194213  -0.058165
C  -2.708398  -0.552950   0.221224
H  -4.737259  -0.294949  -0.215843
H  -3.839223   1.052320  -0.969799
H  -3.970663   0.747262   0.698110
C  -1.392684   0.205879   0.010123
H  -2.903524  -1.260377  -0.585594
H  -2.753951  -0.980923   1.077593
C  -0.219328  -0.748819  -0.048281
H  -1.406871   0.857843   0.747212
H  -1.704303   0.979156  -0.862730
H  -0.328930  -0.720690   0.427439
H   0.691844  -0.221147   0.679740
H   0.134815  -1.853127  -1.142846
