butane_opt
 OpenBabel08242015403D

 14 10  0  0  0  0  0  0  0  0999 V2000
   -3.9435    0.2391    0.1092 C   0  0  0  0  0  1  0  0  0  0  0  0
   -2.6895   -0.6113   -0.0461 C   0  0  0  0  0  0  0  0  0  0  0  0
   -4.8541   -0.4962   -0.5328 H   0  0  0  0  0  0  0  0  0  0  0  0
   -3.7000    0.0104   -0.3214 H   0  0  0  0  0  0  0  0  0  0  0  0
   -4.1266    1.7262    1.5732 H   0  0  0  0  0  0  0  0  0  0  0  0
   -1.4079    0.2094   -0.1524 C   0  0  0  0  0  0  0  0  0  0  0  0
   -2.6282   -1.1062   -0.6793 H   0  0  0  0  0  0  0  0  0  0  0  0
   -2.6778   -1.1301    0.8466 H   0  0  0  0  0  0  0  0  0  0  0  0
   -0.1992   -0.7073    0.1611 C   0  0  0  0  0  0  0  0  0  0  0  0
   -1.4444    0.7351    0.5011 H   0  0  0  0  0  0  0  0  0  0  0  0
   -1.5676    1.1246   -1.1951 H   0  0  0  0  0  0  0  0  0  0  0  0
    0.0868   -1.6489    1.1924 H   0  0  0  0  0  0  0  0  0  0  0  0
    0.7052   -0.1549   -0.0602 H   0  0  0  0  0  0  0  0  0  0  0  0
    0.0539   -1.1236   -0.5985 H   0  0  0  0  0  0  0  0  0  0  0  0
  2  8  1  0  0  0  0
  3  1  1  0  0  0  0
  4  2  1  0  0  0  0
  6  9  1  0  0  0  0
  6 10  1  0  0  0  0
  7  2  1  0  0  0  0
  9 12  1  0  0  0  0
 11  6  1  0  0  0  0
 13  9  1  0  0  0  0
 14  9  1  0  0  0  0
M  RAD  3   2   2   5   2   6   2
M  END
$$$$
