butane_opt
 OpenBabel08242015403D

 14 11  0  0  0  0  0  0  0  0999 V2000
   -3.8640    0.2269    0.0643 C   0  0  0  0  0  0  0  0  0  0  0  0
   -2.6805   -0.5653   -0.0882 C   0  0  0  0  0  0  0  0  0  0  0  0
   -4.9479   -0.4565    0.1708 H   0  0  0  0  0  0  0  0  0  0  0  0
   -3.9178    0.6242   -0.7517 H   0  0  0  0  0  0  0  0  0  0  0  0
   -3.5389    1.1431    1.2103 H   0  0  0  0  0  0  0  0  0  0  0  0
   -1.4733    0.2537    0.0093 C   0  0  0  0  0  0  0  0  0  0  0  0
   -2.6557   -1.2936   -1.0497 H   0  0  0  0  0  0  0  0  0  0  0  0
   -2.7724   -1.2317    0.8751 H   0  0  0  0  0  0  0  0  0  0  0  0
   -0.2190   -0.7167    0.0598 C   0  0  0  0  0  0  0  0  0  0  0  0
   -1.4562    0.7893    0.7556 H   0  0  0  0  0  0  0  0  0  0  0  0
   -1.2240    0.7481   -0.8743 H   0  0  0  0  0  0  0  0  0  0  0  0
   -0.0830   -1.9513    1.3282 H   0  0  0  0  0  0  0  0  0  0  0  0
    0.6446   -0.3012   -0.2602 H   0  0  0  0  0  0  0  0  0  0  0  0
   -0.2042   -0.9130   -0.4182 H   0  0  0  0  0  0  0  0  0  0  0  0
  1  3  1  0  0  0  0
  1  5  1  0  0  0  0
  2  6  1  0  0  0  0
  2  1  1  0  0  0  0
  2  8  1  0  0  0  0
  4  1  1  0  0  0  0
  6  9  1  0  0  0  0
  6 10  1  0  0  0  0
  7  2  1  0  0  0  0
 11  6  1  0  0  0  0
 13  9  1  0  0  0  0
M  RAD  3   9   3  12   2  14   2
M  END
$$$$
