butane_opt
 OpenBabel08242015403D

 14 11  0  0  0  0  0  0  0  0999 V2000
   -3.9032    0.2421    0.1270 C   0  0  0  0  0  0  0  0  0  0  0  0
   -2.6983   -0.5490   -0.1744 C   0  0  0  0  0  0  0  0  0  0  0  0
   -4.8250   -0.4415    0.2721 H   0  0  0  0  0  0  0  0  0  0  0  0
   -4.1639    0.4571   -0.5796 H   0  0  0  0  0  0  0  0  0  0  0  0
   -3.3909    1.0382    1.0829 H   0  0  0  0  0  0  0  0  0  0  0  0
   -1.4353    0.2532   -0.0598 C   0  0  0  0  0  0  0  0  0  0  0  0
   -2.6854   -1.3799   -1.1509 H   0  0  0  0  0  0  0  0  0  0  0  0
   -2.7750   -1.2473    0.7508 H   0  0  0  0  0  0  0  0  0  0  0  0
   -0.2267   -0.7782    0.1856 C   0  0  0  0  0  0  0  0  0  0  0  0
   -1.2518    1.0569    0.7246 H   0  0  0  0  0  0  0  0  0  0  0  0
   -1.2964    0.9136   -0.9877 H   0  0  0  0  0  0  0  0  0  0  0  0
   -0.0434   -1.8758    1.3956 H   0  0  0  0  0  0  0  0  0  0  0  0
    0.7686   -0.0436   -0.6385 H   0  0  0  0  0  0  0  0  0  0  0  0
   -0.1898   -0.9544   -0.2961 H   0  0  0  0  0  0  0  0  0  0  0  0
  1  3  1  0  0  0  0
  1  5  1  0  0  0  0
  2  6  1  0  0  0  0
  2  1  1  0  0  0  0
  2  8  1  0  0  0  0
  4  1  1  0  0  0  0
  6  9  1  0  0  0  0
  6 10  1  0  0  0  0
  7  2  1  0  0  0  0
 11  6  1  0  0  0  0
 13  9  1  0  0  0  0
M  RAD  3   9   3  12   2  14   2
M  END
$$$$
