butane_opt
 OpenBabel08242015403D

 14 13  0  0  0  0  0  0  0  0999 V2000
   -3.9612    0.2854   -0.0983 C   0  0  0  0  0  0  0  0  0  0  0  0
   -2.7946   -0.6146    0.1162 C   0  0  0  0  0  0  0  0  0  0  0  0
   -4.7734   -0.2840    0.0705 H   0  0  0  0  0  0  0  0  0  0  0  0
   -3.8234    1.1231   -1.1491 H   0  0  0  0  0  0  0  0  0  0  0  0
   -4.0678    0.5938    0.7227 H   0  0  0  0  0  0  0  0  0  0  0  0
   -1.3794    0.2252    0.2233 C   0  0  0  0  0  0  0  0  0  0  0  0
   -2.6285   -1.4231   -0.8718 H   0  0  0  0  0  0  0  0  0  0  0  0
   -2.9265   -1.3194    0.9973 H   0  0  0  0  0  0  0  0  0  0  0  0
   -0.0858   -0.7198   -0.0940 C   0  0  0  0  0  0  0  0  0  0  0  0
   -1.5624    0.8097    1.1057 H   0  0  0  0  0  0  0  0  0  0  0  0
   -1.2771    0.7706   -0.6996 H   0  0  0  0  0  0  0  0  0  0  0  0
    0.3431   -1.5336    0.8745 H   0  0  0  0  0  0  0  0  0  0  0  0
    0.8889   -0.0398   -0.4843 H   0  0  0  0  0  0  0  0  0  0  0  0
   -0.5752   -1.2112   -0.8918 H   0  0  0  0  0  0  0  0  0  0  0  0
  1  3  1  0  0  0  0
  1  2  1  0  0  0  0
  1  5  1  0  0  0  0
  2  6  1  0  0  0  0
  2  8  1  0  0  0  0
  4  1  1  0  0  0  0
  6 10  1  0  0  0  0
  7  2  1  0  0  0  0
  9  6  1  0  0  0  0
  9 12  1  0  0  0  0
 11  6  1  0  0  0  0
 13  9  1  0  0  0  0
 14  9  1  0  0  0  0
M  END
$$$$
