butane_opt
 OpenBabel08242015403D

 14 10  0  0  0  0  0  0  0  0999 V2000
   -3.9057    0.2678   -0.0808 C   0  0  0  0  0  0  0  0  0  0  0  0
   -2.7109   -0.6550    0.1551 C   0  0  0  0  0  0  0  0  0  0  0  0
   -4.6539    0.0324    0.3033 H   0  0  0  0  0  0  0  0  0  0  0  0
   -4.0419    0.9042   -1.0759 H   0  0  0  0  0  0  0  0  0  0  0  0
   -3.7892    0.8780    0.7347 H   0  0  0  0  0  0  0  0  0  0  0  0
   -1.4388    0.1256    0.0574 C   0  0  0  0  0  0  0  0  0  0  0  0
   -2.5364   -1.0973   -0.5335 H   0  0  0  0  0  0  0  0  0  0  0  0
   -2.5393   -1.3590    1.0854 H   0  0  0  0  0  0  0  0  0  0  0  0
   -0.2044   -0.6468   -0.0142 C   0  0  0  0  0  1  0  0  0  0  0  0
   -1.3350    0.6626    0.6727 H   0  0  0  0  0  0  0  0  0  0  0  0
   -1.5281    0.9280   -0.9586 H   0  0  0  0  0  0  0  0  0  0  0  0
   -0.4338   -0.5168    0.4142 H   0  0  0  0  0  0  0  0  0  0  0  0
    0.7730    0.0142    0.6199 H   0  0  0  0  0  0  0  0  0  0  0  0
    0.1301   -2.0124   -1.3062 H   0  0  0  0  0  0  0  0  0  0  0  0
  1  2  1  0  0  0  0
  1  3  1  0  0  0  0
  1  5  1  0  0  0  0
  2  8  1  0  0  0  0
  4  1  1  0  0  0  0
  6 12  1  0  0  0  0
  6 10  1  0  0  0  0
  7  2  1  0  0  0  0
  9 13  1  0  0  0  0
 11  6  1  0  0  0  0
M  RAD  3   2   2   6   2  14   2
M  END
$$$$
