14
butane_opt
C  -3.941713   0.250205   0.158406
C  -2.622959  -0.575381   0.017138
H  -5.091129  -0.617515  -0.964360
H  -3.538795   0.183880  -0.455608
H  -4.062477   1.503931   1.350477
C  -1.451348   0.191018  -0.173747
H  -2.855677  -1.282825  -0.901641
H  -2.479351  -0.964872   0.699751
C  -0.152942  -0.703785   0.159165
H  -1.408361   0.554693   0.587824
H  -1.507118   0.994280  -1.175782
H  -0.287903  -1.593832   1.167490
H   0.563530  -0.143325  -0.144964
H  -0.283267  -1.113066  -0.583629
