14
butane_opt
C  -3.954193   0.175161   0.171721
C  -2.734342  -0.550884  -0.140800
H  -4.940261  -0.458192   0.286241
H  -4.053185   0.676929  -0.652473
H  -3.834953   1.258979   1.226772
C  -1.406919   0.249621  -0.114001
H  -2.766586  -1.483612  -1.259874
H  -2.938144  -0.761057   0.411645
C  -0.052929  -0.744208   0.213405
H  -1.760176   0.756021   0.428926
H  -1.541971   0.982189  -1.084420
H   0.060398  -1.776726   1.459649
H   0.752113  -0.298244  -0.441139
H  -0.175610  -0.950612  -0.385547
