14
butane_opt
C  -3.950839   0.251182  -0.094262
C  -2.751235  -0.607765   0.146557
H  -5.039715  -0.521921  -0.009537
H  -3.618811   0.946075  -1.062651
H  -4.134099   0.675462   0.638586
C  -1.378960   0.307725   0.171672
H  -2.881310  -1.612149  -0.827319
H  -2.906702  -0.982238   0.857544
C  -0.126543  -0.775903  -0.076109
H  -1.440544   1.149663   1.204726
H  -1.306276   0.841636  -0.611662
H   0.521479  -1.749744   0.917038
H   0.518303  -0.339089  -0.767993
H  -0.233959  -0.994579  -0.659742
