14
butane_opt
C  -3.908782   0.301669   0.222277
C  -2.670951  -0.713355  -0.199718
H  -4.782498  -0.169639   0.623778
H  -4.234533   0.924466  -0.574363
H  -3.987924   0.960191   1.015387
C  -1.403251   0.182511  -0.156656
H  -2.661650  -1.529095  -1.267191
H  -2.394964  -1.043574   0.543010
C  -0.222344  -0.680021   0.245010
H  -1.779571   0.570628   0.339054
H  -1.013493   1.016118  -1.319311
H  -0.354018  -1.163788   1.056602
H   0.789545  -0.012272   0.302538
H  -0.124887  -1.121567  -0.589346
