butane_opt
 OpenBabel08242015403D

 14 10  0  0  0  0  0  0  0  0999 V2000
   -3.9417    0.2502    0.1584 C   0  0  0  0  0  1  0  0  0  0  0  0
   -2.6230   -0.5754    0.0171 C   0  0  0  0  0  0  0  0  0  0  0  0
   -5.0911   -0.6175   -0.9644 H   0  0  0  0  0  0  0  0  0  0  0  0
   -3.5388    0.1839   -0.4556 H   0  0  0  0  0  0  0  0  0  0  0  0
   -4.0625    1.5039    1.3505 H   0  0  0  0  0  0  0  0  0  0  0  0
   -1.4513    0.1910   -0.1737 C   0  0  0  0  0  0  0  0  0  0  0  0
   -2.8557   -1.2828   -0.9016 H   0  0  0  0  0  0  0  0  0  0  0  0
   -2.4794   -0.9649    0.6998 H   0  0  0  0  0  0  0  0  0  0  0  0
   -0.1529   -0.7038    0.1592 C   0  0  0  0  0  0  0  0  0  0  0  0
   -1.4084    0.5547    0.5878 H   0  0  0  0  0  0  0  0  0  0  0  0
   -1.5071    0.9943   -1.1758 H   0  0  0  0  0  0  0  0  0  0  0  0
   -0.2879   -1.5938    1.1675 H   0  0  0  0  0  0  0  0  0  0  0  0
    0.5635   -0.1433   -0.1450 H   0  0  0  0  0  0  0  0  0  0  0  0
   -0.2833   -1.1131   -0.5836 H   0  0  0  0  0  0  0  0  0  0  0  0
  2  8  1  0  0  0  0
  4  1  1  0  0  0  0
  6  2  1  0  0  0  0
  6  9  1  0  0  0  0
  6 10  1  0  0  0  0
  7  2  1  0  0  0  0
  9 12  1  0  0  0  0
 11  6  1  0  0  0  0
 13  9  1  0  0  0  0
 14  9  1  0  0  0  0
M  RAD  3   2   2   3   2   5   2
M  END
$$$$
