14
butane_opt
C  -3.926611   0.258587   0.129922
C  -2.723929  -0.542528  -0.090454
H  -4.881068  -0.581903   0.100814
H  -3.799778   0.564606  -0.619801
H  -3.756388   1.039988   1.015742
C  -1.450017   0.145043  -0.055070
H  -2.552147  -1.571656  -1.194872
H  -2.718529  -0.809255   0.470496
C  -0.187753  -0.724368   0.140763
H  -1.231773   1.056747   0.806836
H  -1.310810   0.928614  -1.063252
H   0.111943  -1.970317   1.400286
H   0.705284  -0.118316  -0.648856
H  -0.139024  -0.661368  -0.200948
