butane_opt
 OpenBabel08242015403D

 14 13  0  0  0  0  0  0  0  0999 V2000
   -3.9400    0.2666    0.0277 C   0  0  0  0  0  0  0  0  0  0  0  0
   -2.6936   -0.6227    0.0336 C   0  0  0  0  0  0  0  0  0  0  0  0
   -4.8275   -0.2956    0.0826 H   0  0  0  0  0  0  0  0  0  0  0  0
   -4.0142    0.8673   -0.8888 H   0  0  0  0  0  0  0  0  0  0  0  0
   -3.9435    0.9199    0.8763 H   0  0  0  0  0  0  0  0  0  0  0  0
   -1.4069    0.1831   -0.0001 C   0  0  0  0  0  0  0  0  0  0  0  0
   -2.7093   -1.3115   -0.8253 H   0  0  0  0  0  0  0  0  0  0  0  0
   -2.6662   -1.2385    0.9228 H   0  0  0  0  0  0  0  0  0  0  0  0
   -0.1649   -0.6913    0.0418 C   0  0  0  0  0  0  0  0  0  0  0  0
   -1.3935    0.8132    0.8254 H   0  0  0  0  0  0  0  0  0  0  0  0
   -1.4033    0.8935   -0.9519 H   0  0  0  0  0  0  0  0  0  0  0  0
   -0.2624   -1.2189    0.8860 H   0  0  0  0  0  0  0  0  0  0  0  0
    0.7695   -0.0931    0.1285 H   0  0  0  0  0  0  0  0  0  0  0  0
   -0.1066   -1.4356   -0.8614 H   0  0  0  0  0  0  0  0  0  0  0  0
  1  2  1  0  0  0  0
  1  3  1  0  0  0  0
  1  5  1  0  0  0  0
  2  8  1  0  0  0  0
  4  1  1  0  0  0  0
  6  2  1  0  0  0  0
  6  9  1  0  0  0  0
  6 10  1  0  0  0  0
  7  2  1  0  0  0  0
  9 13  1  0  0  0  0
  9 12  1  0  0  0  0
 11  6  1  0  0  0  0
 14  9  1  0  0  0  0
M  END
$$$$
