butane_opt
 OpenBabel08242015403D

 14 13  0  0  0  0  0  0  0  0999 V2000
   -3.9367    0.2708    0.0311 C   0  0  0  0  0  0  0  0  0  0  0  0
   -2.6972   -0.6224    0.0153 C   0  0  0  0  0  0  0  0  0  0  0  0
   -4.8682   -0.3446    0.0289 H   0  0  0  0  0  0  0  0  0  0  0  0
   -4.0020    0.8495   -0.8515 H   0  0  0  0  0  0  0  0  0  0  0  0
   -3.8877    0.9832    0.9145 H   0  0  0  0  0  0  0  0  0  0  0  0
   -1.4114    0.1817    0.0048 C   0  0  0  0  0  0  0  0  0  0  0  0
   -2.6516   -1.3146   -0.8337 H   0  0  0  0  0  0  0  0  0  0  0  0
   -2.7336   -1.2355    0.9062 H   0  0  0  0  0  0  0  0  0  0  0  0
   -0.1680   -0.6883    0.0455 C   0  0  0  0  0  0  0  0  0  0  0  0
   -1.3708    0.8822    0.8846 H   0  0  0  0  0  0  0  0  0  0  0  0
   -1.3618    0.8077   -0.9176 H   0  0  0  0  0  0  0  0  0  0  0  0
   -0.1393   -1.4104    1.0173 H   0  0  0  0  0  0  0  0  0  0  0  0
    0.7540   -0.1102   -0.0772 H   0  0  0  0  0  0  0  0  0  0  0  0
   -0.2037   -1.2809   -0.7772 H   0  0  0  0  0  0  0  0  0  0  0  0
  1  5  1  0  0  0  0
  2  1  1  0  0  0  0
  2  8  1  0  0  0  0
  3  1  1  0  0  0  0
  4  1  1  0  0  0  0
  6  2  1  0  0  0  0
  6  9  1  0  0  0  0
  6 10  1  0  0  0  0
  7  2  1  0  0  0  0
  9 12  1  0  0  0  0
 11  6  1  0  0  0  0
 13  9  1  0  0  0  0
 14  9  1  0  0  0  0
M  END
$$$$
