14
butane_opt
C  -3.983070   0.212745   0.141363
C  -2.688214  -0.572109  -0.109975
H  -4.884133  -0.516967  -0.293019
H  -4.165793   0.300152  -0.272342
H  -4.013214   1.409456   1.436754
C  -1.398165   0.250060  -0.153061
H  -2.818874  -1.423107  -1.189366
H  -2.941486  -1.065278   0.802160
C  -0.094596  -0.727781   0.185202
H  -1.545853   0.914414   0.721277
H  -1.200950   1.041385  -1.131410
H   0.275320  -1.969283   1.387746
H   0.483887  -0.406223  -0.411892
H  -0.177991  -0.760245  -0.248103
