14
butane_opt
C  -3.957435   0.304295  -0.165553
C  -2.763268  -0.690323   0.161870
H  -4.747636  -0.235480   0.032040
H  -4.017116   1.254514  -1.202722
H  -4.149530   0.696937   0.474799
C  -1.355417   0.204145   0.232420
H  -2.772198  -1.182399  -0.523812
H  -2.957252  -1.512379   1.199487
C  -0.107959  -0.666115  -0.105636
H  -1.157797   1.100254   1.340161
H  -1.619929   0.624153  -0.356154
H   0.181076  -1.339899   0.775399
H   0.783067  -0.175686  -0.700814
H  -0.385733  -1.498955  -1.136076
