14
butane_opt
C  -3.994070   0.331121   0.124251
C  -2.768291  -0.676518  -0.132291
H  -4.764328  -0.153510   0.068362
H  -4.301928   0.975891  -0.791107
H  -4.067902   1.160706   1.264876
C  -1.348807   0.112709  -0.044847
H  -2.545956  -1.545998  -1.083785
H  -2.788941  -1.185111   0.666670
C  -0.096799  -0.627763   0.084943
H  -1.277281   0.682880   0.934260
H  -1.315452   0.458624  -0.753967
H  -0.118761  -2.045146   1.510788
H   0.938202   0.081121  -0.384822
H  -0.312730  -0.479613  -0.266049
