14
butane_opt
C  -3.940206   0.255391   0.065701
C  -2.626698  -0.594030   0.048187
H  -4.696136  -0.264523  -0.565770
H  -3.793982   0.355636  -0.478048
H  -4.122179   1.692695   1.307326
C  -1.457187   0.084875  -0.081752
H  -2.538187  -1.375486  -0.769851
H  -2.757888  -1.124190   0.808842
C  -0.198473  -0.649073   0.093547
H  -1.222434   0.554241   0.585170
H  -1.534369   1.082808  -1.308622
H  -0.252437  -1.434718   1.087966
H   1.036594   0.158987   0.065852
H  -0.498013  -1.253871  -0.666387
