butane_opt
 OpenBabel08242015403D

 14 11  0  0  0  0  0  0  0  0999 V2000
   -3.9599    0.3152    0.0535 C   0  0  0  0  0  0  0  0  0  0  0  0
   -2.6447   -0.6567    0.0561 C   0  0  0  0  0  0  0  0  0  0  0  0
   -4.7218   -0.2546    0.1204 H   0  0  0  0  0  0  0  0  0  0  0  0
   -4.2367    1.1850   -1.0972 H   0  0  0  0  0  0  0  0  0  0  0  0
   -3.9170    0.9434    0.8321 H   0  0  0  0  0  0  0  0  0  0  0  0
   -1.3602    0.1219   -0.0973 C   0  0  0  0  0  0  0  0  0  0  0  0
   -2.6380   -1.3505   -0.7095 H   0  0  0  0  0  0  0  0  0  0  0  0
   -2.5486   -1.4979    1.1043 H   0  0  0  0  0  0  0  0  0  0  0  0
   -0.2809   -0.6323    0.0425 C   0  0  0  0  0  0  0  0  0  0  0  0
   -0.9659    0.7854    0.8747 H   0  0  0  0  0  0  0  0  0  0  0  0
   -1.3700    0.5140   -0.8799 H   0  0  0  0  0  0  0  0  0  0  0  0
   -0.5647   -0.8492    0.6748 H   0  0  0  0  0  0  0  0  0  0  0  0
    0.7165    0.0716    0.8093 H   0  0  0  0  0  0  0  0  0  0  0  0
    0.1548   -1.7420   -1.0019 H   0  0  0  0  0  0  0  0  0  0  0  0
  1  2  1  0  0  0  0
  1  3  1  0  0  0  0
  1  5  1  0  0  0  0
  2  8  1  0  0  0  0
  4  1  1  0  0  0  0
  6  9  1  0  0  0  0
  6 10  1  0  0  0  0
  7  2  1  0  0  0  0
  9 12  1  0  0  0  0
  9 13  1  0  0  0  0
 11  6  1  0  0  0  0
M  RAD  4   2   2   6   2   9   2  14   2
M  END
$$$$
