14
butane_opt
C  -3.914200   0.237684  -0.126529
C  -2.695678  -0.522214   0.231319
H  -4.967628  -0.685710   0.098766
H  -3.821579   0.863956  -1.067109
H  -3.843912   0.556422   0.415561
C  -1.458799   0.195949   0.118890
H  -2.750874  -0.765998  -0.342558
H  -2.826402  -1.404261   1.123860
C  -0.144080  -0.734732  -0.133043
H  -1.324970   0.968238   1.056061
H  -1.655955   0.776219  -0.707407
H  -0.446601  -0.711074   0.415245
H   0.707853  -0.257534   0.581389
H   0.458871  -1.979684  -1.318746
