14
butane_opt
C  -3.896159   0.252188   0.083364
C  -2.687913  -0.539066  -0.023440
H  -4.987131  -0.554595   0.134555
H  -3.989267   0.676971  -0.824597
H  -3.709394   0.977042   1.104580
C  -1.432855   0.173751  -0.094247
H  -2.786564  -1.064877  -0.830001
H  -2.740184  -1.473271   1.159173
C  -0.165836  -0.691384   0.091218
H  -1.342811   0.666749   0.612577
H  -1.461562   0.989065  -1.221753
H  -0.432762  -0.979077   0.819098
H   0.554499  -0.262948   0.891652
H   0.100200  -1.838798  -1.087106
