butane_opt
 OpenBabel08242015403D

 14 10  0  0  0  0  0  0  0  0999 V2000
   -3.8993    0.2962   -0.0652 C   0  0  0  0  0  0  0  0  0  0  0  0
   -2.6593   -0.6286    0.0706 C   0  0  0  0  0  0  0  0  0  0  0  0
   -4.7142   -0.2968    0.7095 H   0  0  0  0  0  0  0  0  0  0  0  0
   -4.5699    1.6706   -1.3843 H   0  0  0  0  0  0  0  0  0  0  0  0
   -3.7612    0.3977    0.5206 H   0  0  0  0  0  0  0  0  0  0  0  0
   -1.3733    0.1402    0.1157 C   0  0  0  0  0  0  0  0  0  0  0  0
   -2.7928   -1.5633   -0.9546 H   0  0  0  0  0  0  0  0  0  0  0  0
   -2.8881   -1.2732    1.0022 H   0  0  0  0  0  0  0  0  0  0  0  0
   -0.2181   -0.6607   -0.0021 C   0  0  0  0  0  0  0  0  0  0  0  0
   -1.1449    0.7468    0.9948 H   0  0  0  0  0  0  0  0  0  0  0  0
   -1.5224    0.7964   -0.6237 H   0  0  0  0  0  0  0  0  0  0  0  0
   -0.2446   -1.0099    0.6089 H   0  0  0  0  0  0  0  0  0  0  0  0
    0.7612    0.1256    0.1665 H   0  0  0  0  0  0  0  0  0  0  0  0
   -0.3325   -1.7802   -1.1319 H   0  0  0  0  0  0  0  0  0  0  0  0
  1  2  1  0  0  0  0
  1  3  1  0  0  0  0
  2  6  1  0  0  0  0
  2  8  1  0  0  0  0
  6 10  1  0  0  0  0
  7  2  1  0  0  0  0
  9  6  1  0  0  0  0
  9 13  1  0  0  0  0
  9 12  1  0  0  0  0
 11  6  1  0  0  0  0
M  RAD  5   1   3   4   2   5   2   9   2  14   2
M  END
$$$$
