butane_opt
 OpenBabel08242015403D

 14 12  0  0  0  0  0  0  0  0999 V2000
   -3.8617    0.2414    0.1264 C   0  0  0  0  0  0  0  0  0  0  0  0
   -2.6640   -0.5801   -0.1499 C   0  0  0  0  0  0  0  0  0  0  0  0
   -4.7998   -0.4754    0.9264 H   0  0  0  0  0  0  0  0  0  0  0  0
   -4.2153    1.0123   -0.8501 H   0  0  0  0  0  0  0  0  0  0  0  0
   -3.4257    0.5111    0.9356 H   0  0  0  0  0  0  0  0  0  0  0  0
   -1.4820    0.2836   -0.0918 C   0  0  0  0  0  0  0  0  0  0  0  0
   -2.7239   -1.7334   -1.2436 H   0  0  0  0  0  0  0  0  0  0  0  0
   -3.0010   -0.9632    0.7112 H   0  0  0  0  0  0  0  0  0  0  0  0
   -0.1938   -0.7440    0.1884 C   0  0  0  0  0  0  0  0  0  0  0  0
   -1.6933    0.7028    0.6491 H   0  0  0  0  0  0  0  0  0  0  0  0
   -1.4140    0.9820   -1.1239 H   0  0  0  0  0  0  0  0  0  0  0  0
   -0.0191   -1.3005    1.0327 H   0  0  0  0  0  0  0  0  0  0  0  0
    0.6947   -0.1816    0.1739 H   0  0  0  0  0  0  0  0  0  0  0  0
   -0.0268   -1.3853   -0.6417 H   0  0  0  0  0  0  0  0  0  0  0  0
  1  3  1  0  0  0  0
  1  5  1  0  0  0  0
  2  6  1  0  0  0  0
  2  1  1  0  0  0  0
  2  8  1  0  0  0  0
  4  1  1  0  0  0  0
  6  9  1  0  0  0  0
  6 10  1  0  0  0  0
  9 12  1  0  0  0  0
 11  6  1  0  0  0  0
 13  9  1  0  0  0  0
 14  9  1  0  0  0  0
M  RAD  2   2   2   7   2
M  END
$$$$
