14
butane_opt
C  -3.927247   0.307193   0.158811
C  -2.709867  -0.704678  -0.019233
H  -4.795220  -0.208395  -0.646932
H  -3.750697   0.609316  -0.529096
H  -4.100084   1.494860   1.342770
C  -1.396664   0.141186  -0.194960
H  -2.577096  -1.286441  -0.888767
H  -2.478034  -1.273637   0.773524
C  -0.226208  -0.657944   0.131994
H  -1.417942   0.969500   0.739573
H  -1.187090   0.756865  -0.974240
H  -0.295188  -1.538486   1.342849
H   0.844749   0.055708  -0.065532
H  -0.171319  -1.089377  -0.527950
