butane_opt
 OpenBabel08242015403D

 14 11  0  0  0  0  0  0  0  0999 V2000
   -3.8813    0.2626    0.0419 C   0  0  0  0  0  0  0  0  0  0  0  0
   -2.6774   -0.6040   -0.0305 C   0  0  0  0  0  0  0  0  0  0  0  0
   -4.8063   -0.4458   -0.1542 H   0  0  0  0  0  0  0  0  0  0  0  0
   -3.7944    0.6874   -0.6059 H   0  0  0  0  0  0  0  0  0  0  0  0
   -3.7755    0.8672    0.8451 H   0  0  0  0  0  0  0  0  0  0  0  0
   -1.4502    0.2372    0.0300 C   0  0  0  0  0  0  0  0  0  0  0  0
   -2.8861   -1.2991   -0.9306 H   0  0  0  0  0  0  0  0  0  0  0  0
   -2.7139   -1.1420    0.7975 H   0  0  0  0  0  0  0  0  0  0  0  0
   -0.2396   -0.7257    0.0429 C   0  0  0  0  0  0  0  0  0  0  0  0
   -1.5260    1.1798    1.0725 H   0  0  0  0  0  0  0  0  0  0  0  0
   -1.2661    0.5312   -0.7636 H   0  0  0  0  0  0  0  0  0  0  0  0
    0.2699   -1.9769    1.3889 H   0  0  0  0  0  0  0  0  0  0  0  0
    0.6040   -0.1528   -0.7897 H   0  0  0  0  0  0  0  0  0  0  0  0
   -0.1935   -0.7488   -0.3997 H   0  0  0  0  0  0  0  0  0  0  0  0
  1  5  1  0  0  0  0
  2  6  1  0  0  0  0
  2  1  1  0  0  0  0
  2  8  1  0  0  0  0
  3  1  1  0  0  0  0
  4  1  1  0  0  0  0
  6  9  1  0  0  0  0
  6 10  1  0  0  0  0
  7  2  1  0  0  0  0
 11  6  1  0  0  0  0
 13  9  1  0  0  0  0
M  RAD  3   9   3  12   2  14   2
M  END
$$$$
