butane_opt
 OpenBabel08242015403D

 14 13  0  0  0  0  0  0  0  0999 V2000
   -3.9331    0.3439   -0.1563 C   0  0  0  0  0  0  0  0  0  0  0  0
   -2.6044   -0.6945    0.3366 C   0  0  0  0  0  0  0  0  0  0  0  0
   -4.7949   -0.2183   -0.6615 H   0  0  0  0  0  0  0  0  0  0  0  0
   -3.3493    0.7200   -1.0034 H   0  0  0  0  0  0  0  0  0  0  0  0
   -4.5519    1.1201    0.7868 H   0  0  0  0  0  0  0  0  0  0  0  0
   -1.4366    0.1050    0.1301 C   0  0  0  0  0  0  0  0  0  0  0  0
   -2.4053   -1.4845   -0.4925 H   0  0  0  0  0  0  0  0  0  0  0  0
   -2.9988   -1.4407    1.3257 H   0  0  0  0  0  0  0  0  0  0  0  0
   -0.2067   -0.5976   -0.1464 C   0  0  0  0  0  0  0  0  0  0  0  0
   -1.1530    0.7801    0.9848 H   0  0  0  0  0  0  0  0  0  0  0  0
   -1.6238    0.7622   -0.6519 H   0  0  0  0  0  0  0  0  0  0  0  0
   -0.2862   -1.0234    0.4795 H   0  0  0  0  0  0  0  0  0  0  0  0
    0.6261   -0.0186   -0.0260 H   0  0  0  0  0  0  0  0  0  0  0  0
   -0.3467   -1.5367   -1.2389 H   0  0  0  0  0  0  0  0  0  0  0  0
  1  2  1  0  0  0  0
  1  5  1  0  0  0  0
  2  8  1  0  0  0  0
  3  1  1  0  0  0  0
  4  1  1  0  0  0  0
  6  2  1  0  0  0  0
  6 10  1  0  0  0  0
  7  2  1  0  0  0  0
  9 13  1  0  0  0  0
  9  6  1  0  0  0  0
  9 12  1  0  0  0  0
 11  6  1  0  0  0  0
 14  9  1  0  0  0  0
M  END
$$$$
