14
butane_opt
C  -3.941739   0.348351   0.245976
C  -2.637170  -0.668772  -0.188824
H  -4.845569  -0.231660   0.288598
H  -4.165418   0.704859  -0.538910
H  -3.782556   1.033787   1.119509
C  -1.390079   0.054006  -0.244947
H  -2.632317  -1.189384  -0.917631
H  -2.430315  -1.418744   0.753681
C  -0.266345  -0.597965   0.248963
H  -1.684871   0.579165   0.301884
H  -1.100533   0.853735  -1.285168
H  -0.509015  -0.931547   0.967022
H   0.710318   0.209143   0.729901
H   0.177764  -1.697885  -0.741012
