14
butane_opt
C  -3.960930   0.221687   0.199539
C  -2.719405  -0.574541  -0.211947
H  -4.850464  -0.410832   0.452610
H  -4.066873   0.772766  -0.663095
H  -3.444424   0.841202   1.047349
C  -1.452306   0.244722  -0.112084
H  -3.107682  -1.415346  -1.252767
H  -2.620403  -0.886263   0.559988
C  -0.076351  -0.741945   0.234952
H  -1.875187   0.634233   0.494384
H  -1.337164   1.129897  -1.184955
H   0.057662  -1.670925   1.371469
H   0.840323  -0.067828  -0.032144
H  -0.148434  -1.197145  -0.666622
