14
butane_opt
C  -3.952758   0.273218   0.021059
C  -2.701348  -0.625724   0.023213
H  -4.850915  -0.327354  -0.014445
H  -4.037462   0.818782  -0.843070
H  -3.935882   1.022204   0.926601
C  -1.388417   0.174804   0.012134
H  -2.721548  -1.288944  -0.817543
H  -2.700628  -1.221541   0.909260
C  -0.155650  -0.689481   0.037656
H  -1.386883   0.876203   0.888177
H  -1.415556   0.798551  -0.886274
H  -0.143305  -1.425769   1.032223
H   0.772672  -0.084410  -0.111180
H  -0.224328  -1.231967  -0.757624
