14
butane_opt
C  -3.935879   0.260742   0.044663
C  -2.694927  -0.608005  -0.004920
H  -4.852532  -0.339661   0.012354
H  -3.934403   0.774434  -0.810114
H  -3.914617   0.949268   0.933412
C  -1.416427   0.191313  -0.002469
H  -2.717813  -1.269094  -0.854491
H  -2.720293  -1.220429   0.891836
C  -0.167014  -0.694563   0.053307
H  -1.433534   0.861442   0.844955
H  -1.375368   0.813473  -0.876701
H  -0.031891  -1.462982   1.056789
H   0.714024  -0.133825  -0.105033
H  -0.191335  -1.238494  -0.717974
