butane_opt
 OpenBabel08242015403D

 14 11  0  0  0  0  0  0  0  0999 V2000
   -3.8436    0.2370    0.1934 C   0  0  0  0  0  0  0  0  0  0  0  0
   -2.7047   -0.6039   -0.0967 C   0  0  0  0  0  0  0  0  0  0  0  0
   -4.8087   -0.4359    0.1579 H   0  0  0  0  0  0  0  0  0  0  0  0
   -4.0774    0.7648   -0.5738 H   0  0  0  0  0  0  0  0  0  0  0  0
   -3.6109    1.0016    1.2350 H   0  0  0  0  0  0  0  0  0  0  0  0
   -1.4601    0.2296   -0.2434 C   0  0  0  0  0  0  0  0  0  0  0  0
   -3.1690   -1.3036   -0.9002 H   0  0  0  0  0  0  0  0  0  0  0  0
   -2.6201   -0.9433    0.5719 H   0  0  0  0  0  0  0  0  0  0  0  0
   -0.1671   -0.7247    0.2268 C   0  0  0  0  0  0  0  0  0  0  0  0
   -1.7009    0.5778    0.3568 H   0  0  0  0  0  0  0  0  0  0  0  0
   -1.1117    1.2856   -1.3361 H   0  0  0  0  0  0  0  0  0  0  0  0
   -0.4713   -1.1083    0.9460 H   0  0  0  0  0  0  0  0  0  0  0  0
    0.5459   -0.1673    0.8409 H   0  0  0  0  0  0  0  0  0  0  0  0
    0.1235   -1.8577   -0.8794 H   0  0  0  0  0  0  0  0  0  0  0  0
  1  5  1  0  0  0  0
  2  1  1  0  0  0  0
  2  8  1  0  0  0  0
  3  1  1  0  0  0  0
  4  1  1  0  0  0  0
  6  2  1  0  0  0  0
  6  9  1  0  0  0  0
  6 10  1  0  0  0  0
  7  2  1  0  0  0  0
  9 13  1  0  0  0  0
  9 12  1  0  0  0  0
M  RAD  4   6   2   9   2  11   2  14   2
M  END
$$$$
