14
butane_opt
C  -3.962863   0.310890   0.116554
C  -2.657411  -0.638288  -0.140492
H  -4.756506  -0.250473  -0.113669
H  -4.386297   0.543731  -0.307093
H  -3.965663   1.205736   1.192479
C  -1.381853   0.083626  -0.077226
H  -2.466547  -1.374135  -1.053365
H  -2.353542  -1.196275   0.669398
C  -0.224773  -0.625412   0.162408
H  -1.641334   0.852116   0.862266
H  -0.987657   0.607033  -0.956981
H   0.004006  -1.955455   1.540876
H   0.771784   0.118853  -0.767784
H  -0.526573  -0.573257  -0.304627
