butane_opt
 OpenBabel08242015403D

 14  9  0  0  0  0  0  0  0  0999 V2000
   -4.0580    0.3195   -0.1547 C   0  0  0  0  0  0  0  0  0  0  0  0
   -2.6893   -0.6586    0.1613 C   0  0  0  0  0  0  0  0  0  0  0  0
   -5.0038   -0.2880    0.3536 H   0  0  0  0  0  0  0  0  0  0  0  0
   -4.2829    1.5520   -1.4850 H   0  0  0  0  0  0  0  0  0  0  0  0
   -3.8379    0.4415    0.5117 H   0  0  0  0  0  0  0  0  0  0  0  0
   -1.3553    0.1081    0.2101 C   0  0  0  0  0  0  0  0  0  0  0  0
   -2.4404   -1.2893   -0.7472 H   0  0  0  0  0  0  0  0  0  0  0  0
   -2.8437   -1.5106    1.2319 H   0  0  0  0  0  0  0  0  0  0  0  0
   -0.1045   -0.5897   -0.1336 C   0  0  0  0  0  0  0  0  0  0  0  0
   -1.0534    1.1441    1.3805 H   0  0  0  0  0  0  0  0  0  0  0  0
   -1.6290    0.2727   -0.3381 H   0  0  0  0  0  0  0  0  0  0  0  0
    0.0457   -1.3427    0.8104 H   0  0  0  0  0  0  0  0  0  0  0  0
    0.7547   -0.0996   -0.2307 H   0  0  0  0  0  0  0  0  0  0  0  0
   -0.2713   -1.4583   -1.0987 H   0  0  0  0  0  0  0  0  0  0  0  0
  1  3  1  0  0  0  0
  1  5  1  0  0  0  0
  2  8  1  0  0  0  0
  7  2  1  0  0  0  0
  9  6  1  0  0  0  0
  9 12  1  0  0  0  0
 11  6  1  0  0  0  0
 13  9  1  0  0  0  0
 14  9  1  0  0  0  0
M  RAD  5   1   3   2   3   4   2   6   3  10   2
M  END
$$$$
