butane_opt
 OpenBabel08242015403D

 14 11  0  0  0  0  0  0  0  0999 V2000
   -3.9110    0.2279   -0.1141 C   0  0  0  0  0  0  0  0  0  0  0  0
   -2.6868   -0.5316    0.2034 C   0  0  0  0  0  0  0  0  0  0  0  0
   -5.1312   -0.6809   -0.2846 H   0  0  0  0  0  0  0  0  0  0  0  0
   -3.7104    0.7307   -0.8536 H   0  0  0  0  0  0  0  0  0  0  0  0
   -3.8720    0.8300    0.5949 H   0  0  0  0  0  0  0  0  0  0  0  0
   -1.4224    0.2245    0.0886 C   0  0  0  0  0  0  0  0  0  0  0  0
   -2.5030   -0.8475   -0.3764 H   0  0  0  0  0  0  0  0  0  0  0  0
   -2.6852   -1.4885    1.3119 H   0  0  0  0  0  0  0  0  0  0  0  0
   -0.1770   -0.7314   -0.0743 C   0  0  0  0  0  0  0  0  0  0  0  0
   -1.6490    1.0535    0.9976 H   0  0  0  0  0  0  0  0  0  0  0  0
   -1.4578    0.7583   -0.5691 H   0  0  0  0  0  0  0  0  0  0  0  0
   -0.1563   -1.1649    0.5775 H   0  0  0  0  0  0  0  0  0  0  0  0
    0.7212   -0.1296    0.1131 H   0  0  0  0  0  0  0  0  0  0  0  0
   -0.1794   -1.8873   -1.3875 H   0  0  0  0  0  0  0  0  0  0  0  0
  1  2  1  0  0  0  0
  1  5  1  0  0  0  0
  2  8  1  0  0  0  0
  4  1  1  0  0  0  0
  6  2  1  0  0  0  0
  6 10  1  0  0  0  0
  7  2  1  0  0  0  0
  9  6  1  0  0  0  0
  9 13  1  0  0  0  0
  9 12  1  0  0  0  0
 11  6  1  0  0  0  0
M  RAD  4   1   2   3   2   9   2  14   2
M  END
$$$$
