14
butane_opt
C  -3.977694   0.305479   0.154130
C  -2.750969  -0.627155  -0.028653
H  -4.853307  -0.455063  -0.638469
H  -3.674351   0.186371  -0.168677
H  -4.070977   1.330255   1.333150
C  -1.404299   0.216934  -0.148108
H  -2.839079  -1.471182  -1.029483
H  -2.434927  -0.998109   0.698810
C  -0.116671  -0.710552   0.138009
H  -1.180001   0.521524   0.403821
H  -1.252815   1.088692  -1.356203
H  -0.504677  -1.592843   1.315069
H   0.680399  -0.235272   0.064951
H   0.113039  -1.099287  -0.495483
