14
butane_opt
C  -3.926103   0.299913  -0.103077
C  -2.700554  -0.606577   0.104818
H  -4.656231  -0.088348   0.557653
H  -4.009551   1.524740  -1.291945
H  -3.775217   0.491265   0.317562
C  -1.434873   0.058878   0.191881
H  -2.783272  -1.364213  -0.750435
H  -2.648495  -1.366465   1.196649
C  -0.190866  -0.636713  -0.101732
H  -1.084452   0.872010   1.261265
H  -1.448300   0.515383  -0.652964
H  -0.502851  -1.095171   0.671443
H   0.980954   0.165455   0.082894
H  -0.137216  -1.439085  -1.146436
