butane_opt
 OpenBabel08242015403D

 14 13  0  0  0  0  0  0  0  0999 V2000
   -3.8939    0.3035   -0.0471 C   0  0  0  0  0  0  0  0  0  0  0  0
   -2.6904   -0.6455    0.1044 C   0  0  0  0  0  0  0  0  0  0  0  0
   -4.5261   -0.1585   -0.0326 H   0  0  0  0  0  0  0  0  0  0  0  0
   -3.9126    1.0270   -1.0157 H   0  0  0  0  0  0  0  0  0  0  0  0
   -4.0611    0.8492    0.7729 H   0  0  0  0  0  0  0  0  0  0  0  0
   -1.4350    0.1524    0.0944 C   0  0  0  0  0  0  0  0  0  0  0  0
   -2.7236   -1.3788   -0.8828 H   0  0  0  0  0  0  0  0  0  0  0  0
   -2.6867   -1.4133    0.9797 H   0  0  0  0  0  0  0  0  0  0  0  0
   -0.1992   -0.6414    0.0127 C   0  0  0  0  0  0  0  0  0  0  0  0
   -1.1872    0.6140    0.9020 H   0  0  0  0  0  0  0  0  0  0  0  0
   -1.3649    0.6161   -0.8247 H   0  0  0  0  0  0  0  0  0  0  0  0
    0.1313   -1.1755    0.6683 H   0  0  0  0  0  0  0  0  0  0  0  0
    0.6175   -0.0661   -0.1468 H   0  0  0  0  0  0  0  0  0  0  0  0
   -0.7080   -1.3404   -0.9357 H   0  0  0  0  0  0  0  0  0  0  0  0
  1  3  1  0  0  0  0
  1  2  1  0  0  0  0
  1  5  1  0  0  0  0
  2  8  1  0  0  0  0
  4  1  1  0  0  0  0
  6  2  1  0  0  0  0
  6 10  1  0  0  0  0
  7  2  1  0  0  0  0
  9  6  1  0  0  0  0
  9 12  1  0  0  0  0
 11  6  1  0  0  0  0
 13  9  1  0  0  0  0
 14  9  1  0  0  0  0
M  END
$$$$
