butane_opt
 OpenBabel08242015403D

 14 13  0  0  0  0  0  0  0  0999 V2000
   -3.9813    0.3472    0.1698 C   0  0  0  0  0  0  0  0  0  0  0  0
   -2.6940   -0.6949   -0.1558 C   0  0  0  0  0  0  0  0  0  0  0  0
   -4.9508   -0.4068    0.1403 H   0  0  0  0  0  0  0  0  0  0  0  0
   -4.1214    0.7884   -0.6509 H   0  0  0  0  0  0  0  0  0  0  0  0
   -4.0044    1.0469    1.1423 H   0  0  0  0  0  0  0  0  0  0  0  0
   -1.3727    0.1711   -0.0861 C   0  0  0  0  0  0  0  0  0  0  0  0
   -2.8842   -1.5430   -1.1767 H   0  0  0  0  0  0  0  0  0  0  0  0
   -2.6587   -1.0746    0.6330 H   0  0  0  0  0  0  0  0  0  0  0  0
   -0.1347   -0.6515    0.1696 C   0  0  0  0  0  0  0  0  0  0  0  0
   -1.5618    0.4934    0.5449 H   0  0  0  0  0  0  0  0  0  0  0  0
   -1.1507    0.8718   -0.9725 H   0  0  0  0  0  0  0  0  0  0  0  0
    0.0066   -1.7046    1.2384 H   0  0  0  0  0  0  0  0  0  0  0  0
    0.7483   -0.0401   -0.1801 H   0  0  0  0  0  0  0  0  0  0  0  0
   -0.2632   -0.9341   -0.3969 H   0  0  0  0  0  0  0  0  0  0  0  0
  1  5  1  0  0  0  0
  2  6  1  0  0  0  0
  2  1  1  0  0  0  0
  2  8  1  0  0  0  0
  3  1  1  0  0  0  0
  4  1  1  0  0  0  0
  6  9  1  0  0  0  0
  6 10  1  0  0  0  0
  7  2  1  0  0  0  0
  9 12  1  0  0  0  0
 11  6  1  0  0  0  0
 13  9  1  0  0  0  0
 14  9  1  0  0  0  0
M  END
$$$$
