butane_opt
 OpenBabel08242015403D

 14 10  0  0  0  0  0  0  0  0999 V2000
   -3.9290    0.1930   -0.1240 C   0  0  0  0  0  1  0  0  0  0  0  0
   -2.7192   -0.5011    0.2010 C   0  0  0  0  0  0  0  0  0  0  0  0
   -4.7319   -0.3990    0.5802 H   0  0  0  0  0  0  0  0  0  0  0  0
   -4.1188    1.4997   -1.4286 H   0  0  0  0  0  0  0  0  0  0  0  0
   -3.7898   -0.0059    0.0647 H   0  0  0  0  0  0  0  0  0  0  0  0
   -1.4390    0.2002    0.2127 C   0  0  0  0  0  0  0  0  0  0  0  0
   -2.5050   -1.3936   -0.8871 H   0  0  0  0  0  0  0  0  0  0  0  0
   -2.8294   -0.9530    0.9160 H   0  0  0  0  0  0  0  0  0  0  0  0
   -0.0985   -0.7291   -0.1295 C   0  0  0  0  0  0  0  0  0  0  0  0
   -1.3400    1.1108    1.1733 H   0  0  0  0  0  0  0  0  0  0  0  0
   -1.7235    0.6661   -0.4868 H   0  0  0  0  0  0  0  0  0  0  0  0
   -0.1497   -1.2154    0.6771 H   0  0  0  0  0  0  0  0  0  0  0  0
    0.7339   -0.1576    0.0712 H   0  0  0  0  0  0  0  0  0  0  0  0
   -0.3039   -1.5989   -1.2320 H   0  0  0  0  0  0  0  0  0  0  0  0
  1  3  1  0  0  0  0
  2  8  1  0  0  0  0
  5  2  1  0  0  0  0
  6 10  1  0  0  0  0
  7  2  1  0  0  0  0
  9 13  1  0  0  0  0
  9  6  1  0  0  0  0
  9 12  1  0  0  0  0
 11  6  1  0  0  0  0
 14  9  1  0  0  0  0
M  RAD  3   2   2   4   2   6   2
M  END
$$$$
