butane_opt
 OpenBabel08242015403D

 14 10  0  0  0  0  0  0  0  0999 V2000
   -3.9501    0.2083    0.0581 C   0  0  0  0  0  0  0  0  0  0  0  0
   -2.8012   -0.5925   -0.0724 C   0  0  0  0  0  0  0  0  0  0  0  0
   -4.6209   -0.1927    0.1042 H   0  0  0  0  0  0  0  0  0  0  0  0
   -3.8566    0.6605   -0.6575 H   0  0  0  0  0  0  0  0  0  0  0  0
   -4.0073    1.0112    1.0046 H   0  0  0  0  0  0  0  0  0  0  0  0
   -1.3757    0.3087    0.0267 C   0  0  0  0  0  0  0  0  0  0  0  0
   -2.7911   -1.6149   -1.1754 H   0  0  0  0  0  0  0  0  0  0  0  0
   -2.7747   -1.0024    0.8264 H   0  0  0  0  0  0  0  0  0  0  0  0
   -0.1072   -0.7786    0.1068 C   0  0  0  0  0  0  0  0  0  0  0  0
   -1.5810    0.9999    0.8442 H   0  0  0  0  0  0  0  0  0  0  0  0
   -1.2131    0.9709   -0.9189 H   0  0  0  0  0  0  0  0  0  0  0  0
    0.4335   -2.0445    1.3088 H   0  0  0  0  0  0  0  0  0  0  0  0
    0.6999   -0.1563   -0.8100 H   0  0  0  0  0  0  0  0  0  0  0  0
   -0.4956   -0.8377   -0.4284 H   0  0  0  0  0  0  0  0  0  0  0  0
  1  3  1  0  0  0  0
  1  5  1  0  0  0  0
  2  1  1  0  0  0  0
  2  8  1  0  0  0  0
  4  1  1  0  0  0  0
  6 10  1  0  0  0  0
  7  2  1  0  0  0  0
 11  6  1  0  0  0  0
 13  9  1  0  0  0  0
 14  9  1  0  0  0  0
M  RAD  4   2   2   6   3   9   3  12   2
M  END
$$$$
