butane_opt
 OpenBabel08242015403D

 14 13  0  0  0  0  0  0  0  0999 V2000
   -3.9411    0.2610   -0.0098 C   0  0  0  0  0  0  0  0  0  0  0  0
   -2.7162   -0.6021    0.0742 C   0  0  0  0  0  0  0  0  0  0  0  0
   -4.8494   -0.3683   -0.0771 H   0  0  0  0  0  0  0  0  0  0  0  0
   -3.9030    0.7586   -0.8399 H   0  0  0  0  0  0  0  0  0  0  0  0
   -4.0291    1.0144    0.8797 H   0  0  0  0  0  0  0  0  0  0  0  0
   -1.4093    0.1961    0.0246 C   0  0  0  0  0  0  0  0  0  0  0  0
   -2.7366   -1.2718   -0.7721 H   0  0  0  0  0  0  0  0  0  0  0  0
   -2.7426   -1.2716    1.0191 H   0  0  0  0  0  0  0  0  0  0  0  0
   -0.1417   -0.7074    0.0081 C   0  0  0  0  0  0  0  0  0  0  0  0
   -1.3327    0.8884    0.8946 H   0  0  0  0  0  0  0  0  0  0  0  0
   -1.4328    0.8137   -0.8647 H   0  0  0  0  0  0  0  0  0  0  0  0
   -0.1352   -1.3385    0.9166 H   0  0  0  0  0  0  0  0  0  0  0  0
    0.7816   -0.1048   -0.0244 H   0  0  0  0  0  0  0  0  0  0  0  0
   -0.1378   -1.3675   -0.8438 H   0  0  0  0  0  0  0  0  0  0  0  0
  1  2  1  0  0  0  0
  1  5  1  0  0  0  0
  2  8  1  0  0  0  0
  3  1  1  0  0  0  0
  4  1  1  0  0  0  0
  6  2  1  0  0  0  0
  6 10  1  0  0  0  0
  7  2  1  0  0  0  0
  9  6  1  0  0  0  0
  9 12  1  0  0  0  0
 11  6  1  0  0  0  0
 13  9  1  0  0  0  0
 14  9  1  0  0  0  0
M  END
$$$$
