butane_opt
 OpenBabel08242015403D

 14 12  0  0  0  0  0  0  0  0999 V2000
   -3.8878    0.2827   -0.1435 C   0  0  0  0  0  0  0  0  0  0  0  0
   -2.6389   -0.6271    0.1488 C   0  0  0  0  0  0  0  0  0  0  0  0
   -4.7520   -0.1143    0.0934 H   0  0  0  0  0  0  0  0  0  0  0  0
   -4.3712    1.0821   -1.1216 H   0  0  0  0  0  0  0  0  0  0  0  0
   -4.0380    0.7777    0.6437 H   0  0  0  0  0  0  0  0  0  0  0  0
   -1.4166    0.1239    0.2023 C   0  0  0  0  0  0  0  0  0  0  0  0
   -2.4695   -1.3548   -0.6982 H   0  0  0  0  0  0  0  0  0  0  0  0
   -2.6325   -1.3909    1.0063 H   0  0  0  0  0  0  0  0  0  0  0  0
   -0.2278   -0.6604   -0.1043 C   0  0  0  0  0  0  0  0  0  0  0  0
   -1.2793    0.9968    1.1156 H   0  0  0  0  0  0  0  0  0  0  0  0
   -1.6215    0.3099   -0.4094 H   0  0  0  0  0  0  0  0  0  0  0  0
   -0.0820   -1.4487    0.9085 H   0  0  0  0  0  0  0  0  0  0  0  0
    0.8642    0.1913   -0.5218 H   0  0  0  0  0  0  0  0  0  0  0  0
   -0.5784   -0.8936   -0.8079 H   0  0  0  0  0  0  0  0  0  0  0  0
  1  3  1  0  0  0  0
  1  5  1  0  0  0  0
  2  6  1  0  0  0  0
  2  8  1  0  0  0  0
  4  1  1  0  0  0  0
  6 10  1  0  0  0  0
  7  2  1  0  0  0  0
  9  6  1  0  0  0  0
  9 12  1  0  0  0  0
 11  6  1  0  0  0  0
 13  9  1  0  0  0  0
 14  9  1  0  0  0  0
M  RAD  2   1   2   2   2
M  END
$$$$
