butane_opt
 OpenBabel08242015403D

 14 13  0  0  0  0  0  0  0  0999 V2000
   -3.9148    0.2516   -0.1561 C   0  0  0  0  0  0  0  0  0  0  0  0
   -2.6930   -0.5806    0.2318 C   0  0  0  0  0  0  0  0  0  0  0  0
   -5.0114   -0.4600   -0.4330 H   0  0  0  0  0  0  0  0  0  0  0  0
   -3.6279    0.6222   -1.0334 H   0  0  0  0  0  0  0  0  0  0  0  0
   -4.0408    1.1574    0.8535 H   0  0  0  0  0  0  0  0  0  0  0  0
   -1.3979    0.1773    0.1525 C   0  0  0  0  0  0  0  0  0  0  0  0
   -2.4437   -0.8508   -0.4564 H   0  0  0  0  0  0  0  0  0  0  0  0
   -2.7130   -1.5289    1.3547 H   0  0  0  0  0  0  0  0  0  0  0  0
   -0.1950   -0.7241   -0.0980 C   0  0  0  0  0  0  0  0  0  0  0  0
   -1.4545    1.2248    1.2288 H   0  0  0  0  0  0  0  0  0  0  0  0
   -1.1796    0.6773   -0.7136 H   0  0  0  0  0  0  0  0  0  0  0  0
   -0.1648   -1.2286    0.7690 H   0  0  0  0  0  0  0  0  0  0  0  0
    0.6391   -0.1057   -0.5254 H   0  0  0  0  0  0  0  0  0  0  0  0
   -0.5582   -1.5458   -1.1986 H   0  0  0  0  0  0  0  0  0  0  0  0
  1  2  1  0  0  0  0
  1  5  1  0  0  0  0
  2  8  1  0  0  0  0
  3  1  1  0  0  0  0
  4  1  1  0  0  0  0
  6  2  1  0  0  0  0
  6 10  1  0  0  0  0
  7  2  1  0  0  0  0
  9  6  1  0  0  0  0
  9 12  1  0  0  0  0
 11  6  1  0  0  0  0
 13  9  1  0  0  0  0
 14  9  1  0  0  0  0
M  END
$$$$
