butane_opt
 OpenBabel08242015403D

 14 11  0  0  0  0  0  0  0  0999 V2000
   -3.8822    0.1778   -0.0646 C   0  0  0  0  0  0  0  0  0  0  0  0
   -2.6646   -0.5135    0.0932 C   0  0  0  0  0  0  0  0  0  0  0  0
   -4.9174   -0.4064    0.7851 H   0  0  0  0  0  0  0  0  0  0  0  0
   -3.9642    1.3290   -1.3412 H   0  0  0  0  0  0  0  0  0  0  0  0
   -3.8518    0.3068    0.3069 H   0  0  0  0  0  0  0  0  0  0  0  0
   -1.4858    0.1932    0.1639 C   0  0  0  0  0  0  0  0  0  0  0  0
   -2.5637   -1.0903   -0.8348 H   0  0  0  0  0  0  0  0  0  0  0  0
   -2.7552   -0.9876    0.8478 H   0  0  0  0  0  0  0  0  0  0  0  0
   -0.1597   -0.7437   -0.0828 C   0  0  0  0  0  0  0  0  0  0  0  0
   -1.3927    1.0476    1.1205 H   0  0  0  0  0  0  0  0  0  0  0  0
   -1.4117    0.7004   -0.6608 H   0  0  0  0  0  0  0  0  0  0  0  0
   -0.3051   -1.1217    0.7669 H   0  0  0  0  0  0  0  0  0  0  0  0
    0.7101   -0.2402    0.1030 H   0  0  0  0  0  0  0  0  0  0  0  0
   -0.1939   -1.4308   -1.0101 H   0  0  0  0  0  0  0  0  0  0  0  0
  1  2  1  0  0  0  0
  1  3  1  0  0  0  0
  2  6  1  0  0  0  0
  2  8  1  0  0  0  0
  6 10  1  0  0  0  0
  7  2  1  0  0  0  0
  9 13  1  0  0  0  0
  9  6  1  0  0  0  0
  9 12  1  0  0  0  0
 11  6  1  0  0  0  0
 14  9  1  0  0  0  0
M  RAD  3   1   3   4   2   5   2
M  END
$$$$
