butane_opt
 OpenBabel08242015403D

 14 10  0  0  0  0  0  0  0  0999 V2000
   -3.8534    0.2253   -0.1348 C   0  0  0  0  0  0  0  0  0  0  0  0
   -2.7368   -0.5863    0.2108 C   0  0  0  0  0  0  0  0  0  0  0  0
   -4.8899   -0.3361   -0.0563 H   0  0  0  0  0  0  0  0  0  0  0  0
   -3.7318    1.0852   -1.1728 H   0  0  0  0  0  0  0  0  0  0  0  0
   -3.7075    0.6697    0.7301 H   0  0  0  0  0  0  0  0  0  0  0  0
   -1.4795    0.2206    0.0721 C   0  0  0  0  0  0  0  0  0  0  0  0
   -2.8623   -0.7387   -0.2588 H   0  0  0  0  0  0  0  0  0  0  0  0
   -2.6508   -1.4162    1.3439 H   0  0  0  0  0  0  0  0  0  0  0  0
   -0.1616   -0.7404   -0.0755 C   0  0  0  0  0  1  0  0  0  0  0  0
   -1.4101    0.9949    1.1097 H   0  0  0  0  0  0  0  0  0  0  0  0
   -1.4373    0.7243   -0.6719 H   0  0  0  0  0  0  0  0  0  0  0  0
   -0.2936   -0.6799    0.3558 H   0  0  0  0  0  0  0  0  0  0  0  0
    0.8268   -0.0973    0.5115 H   0  0  0  0  0  0  0  0  0  0  0  0
   -0.0964   -2.1446   -1.4719 H   0  0  0  0  0  0  0  0  0  0  0  0
  1  3  1  0  0  0  0
  1  5  1  0  0  0  0
  2  8  1  0  0  0  0
  4  1  1  0  0  0  0
  6  2  1  0  0  0  0
  6 12  1  0  0  0  0
  6 10  1  0  0  0  0
  7  1  1  0  0  0  0
  9 13  1  0  0  0  0
 11  6  1  0  0  0  0
M  RAD  2   2   3  14   2
M  END
$$$$
