14
butane_opt
C  -3.906263   0.348756  -0.071945
C  -2.671769  -0.710382   0.143584
H  -4.733847  -0.191200  -0.258806
H  -3.730215   1.217393  -1.190966
H  -4.293334   0.801767   0.506322
C  -1.439281   0.128489   0.222546
H  -2.431727  -1.528095  -0.777369
H  -2.898818  -1.255172   0.978885
C  -0.226329  -0.640461  -0.114720
H  -1.180002   0.823228   1.059099
H  -1.369056   0.564640  -0.414888
H   0.217722  -1.641148   0.852712
H   1.030751   0.216250  -0.634340
H  -0.762332  -0.914160  -0.787407
