butane_opt
 OpenBabel08242015403D

 14 13  0  0  0  0  0  0  0  0999 V2000
   -3.9351    0.2530   -0.0022 C   0  0  0  0  0  0  0  0  0  0  0  0
   -2.6930   -0.6085    0.0729 C   0  0  0  0  0  0  0  0  0  0  0  0
   -4.8117   -0.3262    0.0178 H   0  0  0  0  0  0  0  0  0  0  0  0
   -3.9043    0.9163   -0.9433 H   0  0  0  0  0  0  0  0  0  0  0  0
   -3.9653    0.8720    0.8295 H   0  0  0  0  0  0  0  0  0  0  0  0
   -1.4165    0.1996    0.0225 C   0  0  0  0  0  0  0  0  0  0  0  0
   -2.7280   -1.2273   -0.7332 H   0  0  0  0  0  0  0  0  0  0  0  0
   -2.7602   -1.2701    0.9894 H   0  0  0  0  0  0  0  0  0  0  0  0
   -0.1630   -0.6985    0.0071 C   0  0  0  0  0  0  0  0  0  0  0  0
   -1.3711    0.8757    0.8799 H   0  0  0  0  0  0  0  0  0  0  0  0
   -1.4744    0.7837   -0.8553 H   0  0  0  0  0  0  0  0  0  0  0  0
   -0.1790   -1.2360    0.8288 H   0  0  0  0  0  0  0  0  0  0  0  0
    0.7449   -0.0935    0.1565 H   0  0  0  0  0  0  0  0  0  0  0  0
   -0.0891   -1.5079   -0.9439 H   0  0  0  0  0  0  0  0  0  0  0  0
  1  3  1  0  0  0  0
  1  2  1  0  0  0  0
  1  5  1  0  0  0  0
  2  8  1  0  0  0  0
  4  1  1  0  0  0  0
  6  2  1  0  0  0  0
  6 10  1  0  0  0  0
  7  2  1  0  0  0  0
  9  6  1  0  0  0  0
  9 13  1  0  0  0  0
  9 12  1  0  0  0  0
 11  6  1  0  0  0  0
 14  9  1  0  0  0  0
M  END
$$$$
