14
butane_opt
C  -4.011320   0.303463  -0.069244
C  -2.676808  -0.676919   0.070362
H  -4.863051  -0.111952   0.781993
H  -4.275046   1.695167  -1.568575
H  -4.144959   0.473521   0.477598
C  -1.317962   0.085761   0.159913
H  -2.607128  -1.402040  -0.762085
H  -2.899332  -1.222081   1.017314
C  -0.166769  -0.633758  -0.018324
H  -1.526935   0.991130   1.058213
H  -1.439514   0.592773  -0.599845
H   0.076191  -0.970696   0.517840
H   1.057617   0.148547  -0.112677
H  -0.358958  -1.540254  -1.153044
