butane_opt
 OpenBabel08242015403D

 14 10  0  0  0  0  0  0  0  0999 V2000
   -3.8829    0.2322    0.1043 C   0  0  0  0  0  0  0  0  0  0  0  0
   -2.7104   -0.5050   -0.0514 C   0  0  0  0  0  0  0  0  0  0  0  0
   -5.0166   -0.5328   -0.1911 H   0  0  0  0  0  0  0  0  0  0  0  0
   -3.4078    0.6041   -0.5382 H   0  0  0  0  0  0  0  0  0  0  0  0
   -4.0517    0.9602    0.8591 H   0  0  0  0  0  0  0  0  0  0  0  0
   -1.4509    0.1819    0.0184 C   0  0  0  0  0  0  0  0  0  0  0  0
   -2.6587   -1.3433   -1.1514 H   0  0  0  0  0  0  0  0  0  0  0  0
   -2.7266   -0.9171    0.6612 H   0  0  0  0  0  0  0  0  0  0  0  0
   -0.2149   -0.7389    0.0863 C   0  0  0  0  0  0  0  0  0  0  0  0
   -1.4172    0.6929    0.7237 H   0  0  0  0  0  0  0  0  0  0  0  0
   -1.2313    0.8452   -0.9198 H   0  0  0  0  0  0  0  0  0  0  0  0
    0.2679   -1.8266    1.2926 H   0  0  0  0  0  0  0  0  0  0  0  0
    0.6976   -0.1410   -0.7331 H   0  0  0  0  0  0  0  0  0  0  0  0
   -0.3648   -0.8813   -0.3624 H   0  0  0  0  0  0  0  0  0  0  0  0
  1  5  1  0  0  0  0
  2  1  1  0  0  0  0
  2  8  1  0  0  0  0
  3  1  1  0  0  0  0
  4  1  1  0  0  0  0
  6  9  1  0  0  0  0
  6 10  1  0  0  0  0
  7  2  1  0  0  0  0
 11  6  1  0  0  0  0
 13  9  1  0  0  0  0
M  RAD  5   2   2   6   2   9   3  12   2  14   2
M  END
$$$$
