butane_opt
 OpenBabel08242015403D

 14 10  0  0  0  0  0  0  0  0999 V2000
   -3.9856    0.3032   -0.0730 C   0  0  0  0  0  0  0  0  0  0  0  0
   -2.6687   -0.6324    0.1492 C   0  0  0  0  0  0  0  0  0  0  0  0
   -4.6470   -0.1820    0.3456 H   0  0  0  0  0  0  0  0  0  0  0  0
   -3.9604    1.1089   -1.1068 H   0  0  0  0  0  0  0  0  0  0  0  0
   -3.9544    0.8760    0.7990 H   0  0  0  0  0  0  0  0  0  0  0  0
   -1.3396    0.0868    0.0078 C   0  0  0  0  0  1  0  0  0  0  0  0
   -2.9380   -1.1726   -0.5937 H   0  0  0  0  0  0  0  0  0  0  0  0
   -2.7333   -1.4419    1.1632 H   0  0  0  0  0  0  0  0  0  0  0  0
   -0.1765   -0.6668   -0.0325 C   0  0  0  0  0  0  0  0  0  0  0  0
   -1.3066    1.0804    1.0851 H   0  0  0  0  0  0  0  0  0  0  0  0
   -1.5672    0.5299   -0.9572 H   0  0  0  0  0  0  0  0  0  0  0  0
   -0.7274   -0.7582    0.4485 H   0  0  0  0  0  0  0  0  0  0  0  0
    0.7915    0.0928    0.6386 H   0  0  0  0  0  0  0  0  0  0  0  0
    0.0289   -1.6445   -1.0538 H   0  0  0  0  0  0  0  0  0  0  0  0
  1  2  1  0  0  0  0
  1  3  1  0  0  0  0
  1  5  1  0  0  0  0
  2  8  1  0  0  0  0
  4  1  1  0  0  0  0
  7  2  1  0  0  0  0
  9 12  1  0  0  0  0
  9 13  1  0  0  0  0
 11  6  1  0  0  0  0
 14  9  1  0  0  0  0
M  RAD  3   2   2   9   2  10   2
M  END
$$$$
