butane_opt
 OpenBabel08242015403D

 14 12  0  0  0  0  0  0  0  0999 V2000
   -3.8555    0.2063   -0.1273 C   0  0  0  0  0  0  0  0  0  0  0  0
   -2.7184   -0.5871    0.2528 C   0  0  0  0  0  0  0  0  0  0  0  0
   -4.7438   -0.3507   -0.2674 H   0  0  0  0  0  0  0  0  0  0  0  0
   -3.7910    0.9892   -1.0908 H   0  0  0  0  0  0  0  0  0  0  0  0
   -4.1695    0.7107    0.6913 H   0  0  0  0  0  0  0  0  0  0  0  0
   -1.4444    0.2919    0.0920 C   0  0  0  0  0  0  0  0  0  0  0  0
   -2.4936   -0.9758   -0.3433 H   0  0  0  0  0  0  0  0  0  0  0  0
   -2.8344   -1.4408    1.3738 H   0  0  0  0  0  0  0  0  0  0  0  0
   -0.1831   -0.7548   -0.1465 C   0  0  0  0  0  0  0  0  0  0  0  0
   -1.2073    0.9350    0.9895 H   0  0  0  0  0  0  0  0  0  0  0  0
   -1.8747    0.6592   -0.6593 H   0  0  0  0  0  0  0  0  0  0  0  0
   -0.2968   -0.8812    0.5590 H   0  0  0  0  0  0  0  0  0  0  0  0
    0.7891   -0.0381    0.7141 H   0  0  0  0  0  0  0  0  0  0  0  0
    0.0345   -1.9728   -1.4169 H   0  0  0  0  0  0  0  0  0  0  0  0
  1  2  1  0  0  0  0
  1  5  1  0  0  0  0
  2  8  1  0  0  0  0
  3  1  1  0  0  0  0
  4  1  1  0  0  0  0
  6  2  1  0  0  0  0
  6 10  1  0  0  0  0
  7  2  1  0  0  0  0
  9  6  1  0  0  0  0
  9 12  1  0  0  0  0
  9 13  1  0  0  0  0
 11  6  1  0  0  0  0
M  RAD  2   9   2  14   2
M  END
$$$$
