14
butane_opt
C  -3.926621   0.202831  -0.063262
C  -2.732034  -0.524275   0.039309
H  -4.907025  -0.665579   0.483560
H  -3.856600   1.174004  -1.266369
H  -3.377242   0.531905   0.563414
C  -1.460713   0.218861   0.176322
H  -2.465962  -0.897176  -0.587046
H  -2.743838  -1.293463   0.873928
C  -0.156412  -0.742204  -0.058813
H  -1.703812   1.168759   1.184423
H  -1.348702   0.731475  -0.588202
H   0.031444  -1.431146   0.898617
H   0.727731  -0.197811  -0.346444
H  -0.085887  -1.460926  -0.967437
