butane_opt
 OpenBabel08242015403D

 14 12  0  0  0  0  0  0  0  0999 V2000
   -4.0050    0.2979    0.1446 C   0  0  0  0  0  0  0  0  0  0  0  0
   -2.7127   -0.6732   -0.0724 C   0  0  0  0  0  0  0  0  0  0  0  0
   -4.7612   -0.1154    0.1270 H   0  0  0  0  0  0  0  0  0  0  0  0
   -4.3473    0.8861   -0.6655 H   0  0  0  0  0  0  0  0  0  0  0  0
   -3.7369    1.1384    1.1929 H   0  0  0  0  0  0  0  0  0  0  0  0
   -1.3863    0.1565   -0.1996 C   0  0  0  0  0  0  0  0  0  0  0  0
   -2.7932   -1.3514   -1.0097 H   0  0  0  0  0  0  0  0  0  0  0  0
   -2.6737   -1.4370    0.9866 H   0  0  0  0  0  0  0  0  0  0  0  0
   -0.1662   -0.6340    0.1963 C   0  0  0  0  0  0  0  0  0  0  0  0
   -1.1241    0.7953    0.4969 H   0  0  0  0  0  0  0  0  0  0  0  0
   -1.1771    0.7281   -1.1699 H   0  0  0  0  0  0  0  0  0  0  0  0
   -0.3538   -1.0796    0.9605 H   0  0  0  0  0  0  0  0  0  0  0  0
    0.8321   -0.1501    0.6082 H   0  0  0  0  0  0  0  0  0  0  0  0
    0.3173   -1.6285   -0.9262 H   0  0  0  0  0  0  0  0  0  0  0  0
  1  5  1  0  0  0  0
  2  1  1  0  0  0  0
  2  8  1  0  0  0  0
  3  1  1  0  0  0  0
  4  1  1  0  0  0  0
  6  2  1  0  0  0  0
  6  9  1  0  0  0  0
  6 10  1  0  0  0  0
  7  2  1  0  0  0  0
  9 13  1  0  0  0  0
  9 12  1  0  0  0  0
 11  6  1  0  0  0  0
M  RAD  2   9   2  14   2
M  END
$$$$
