butane_opt
 OpenBabel08242015403D

 14 13  0  0  0  0  0  0  0  0999 V2000
   -3.9499    0.2541    0.0041 C   0  0  0  0  0  0  0  0  0  0  0  0
   -2.7059   -0.6047    0.0527 C   0  0  0  0  0  0  0  0  0  0  0  0
   -4.8712   -0.3396    0.0674 H   0  0  0  0  0  0  0  0  0  0  0  0
   -3.9935    0.9015   -0.9137 H   0  0  0  0  0  0  0  0  0  0  0  0
   -3.9872    0.8839    0.8494 H   0  0  0  0  0  0  0  0  0  0  0  0
   -1.4014    0.1956    0.0151 C   0  0  0  0  0  0  0  0  0  0  0  0
   -2.6984   -1.2583   -0.7864 H   0  0  0  0  0  0  0  0  0  0  0  0
   -2.7543   -1.2757    0.9779 H   0  0  0  0  0  0  0  0  0  0  0  0
   -0.1398   -0.7008    0.0238 C   0  0  0  0  0  0  0  0  0  0  0  0
   -1.4226    0.9029    0.9028 H   0  0  0  0  0  0  0  0  0  0  0  0
   -1.4202    0.8074   -0.8673 H   0  0  0  0  0  0  0  0  0  0  0  0
   -0.0984   -1.2686    0.8987 H   0  0  0  0  0  0  0  0  0  0  0  0
    0.7558   -0.0997    0.0617 H   0  0  0  0  0  0  0  0  0  0  0  0
   -0.1629   -1.4612   -0.9058 H   0  0  0  0  0  0  0  0  0  0  0  0
  1  2  1  0  0  0  0
  1  3  1  0  0  0  0
  1  5  1  0  0  0  0
  2  8  1  0  0  0  0
  4  1  1  0  0  0  0
  6  9  1  0  0  0  0
  6  2  1  0  0  0  0
  6 10  1  0  0  0  0
  7  2  1  0  0  0  0
  9 13  1  0  0  0  0
  9 12  1  0  0  0  0
 11  6  1  0  0  0  0
 14  9  1  0  0  0  0
M  END
$$$$
