butane_opt
 OpenBabel08242015403D

 14 13  0  0  0  0  0  0  0  0999 V2000
   -3.9468    0.2698    0.0261 C   0  0  0  0  0  0  0  0  0  0  0  0
   -2.7049   -0.6300    0.0303 C   0  0  0  0  0  0  0  0  0  0  0  0
   -4.8076   -0.2700   -0.0242 H   0  0  0  0  0  0  0  0  0  0  0  0
   -4.0246    0.8359   -0.8088 H   0  0  0  0  0  0  0  0  0  0  0  0
   -3.9372    1.0564    0.9569 H   0  0  0  0  0  0  0  0  0  0  0  0
   -1.3906    0.1729   -0.0079 C   0  0  0  0  0  0  0  0  0  0  0  0
   -2.7200   -1.3172   -0.8423 H   0  0  0  0  0  0  0  0  0  0  0  0
   -2.7512   -1.2727    0.9256 H   0  0  0  0  0  0  0  0  0  0  0  0
   -0.1626   -0.6833    0.0449 C   0  0  0  0  0  0  0  0  0  0  0  0
   -1.4171    0.8488    0.8552 H   0  0  0  0  0  0  0  0  0  0  0  0
   -1.3844    0.8276   -0.9249 H   0  0  0  0  0  0  0  0  0  0  0  0
   -0.1340   -1.3304    0.9628 H   0  0  0  0  0  0  0  0  0  0  0  0
    0.7394   -0.1021   -0.0156 H   0  0  0  0  0  0  0  0  0  0  0  0
   -0.1374   -1.2923   -0.7565 H   0  0  0  0  0  0  0  0  0  0  0  0
  1  2  1  0  0  0  0
  1  5  1  0  0  0  0
  2  8  1  0  0  0  0
  3  1  1  0  0  0  0
  4  1  1  0  0  0  0
  6  2  1  0  0  0  0
  6  9  1  0  0  0  0
  6 10  1  0  0  0  0
  7  2  1  0  0  0  0
  9 12  1  0  0  0  0
 11  6  1  0  0  0  0
 13  9  1  0  0  0  0
 14  9  1  0  0  0  0
M  END
$$$$
