14
butane_opt
C  -4.039423   0.281967  -0.047115
C  -2.651189  -0.639207   0.090756
H  -5.068198  -0.402125  -0.266513
H  -3.943646   0.919287  -1.055567
H  -4.484528   1.003852   0.729410
C  -1.363149   0.142837   0.160760
H  -2.638723  -1.083749  -0.692870
H  -2.833173  -1.290890   1.046111
C  -0.119059  -0.658188  -0.054928
H  -1.202921   1.038868   1.059635
H  -1.335437   0.522661  -0.629834
H   0.205370  -1.522366   0.910531
H   0.752600  -0.154009  -0.744573
H  -0.357322  -1.050393  -0.679656
