butane_opt
 OpenBabel08242015403D

 14 12  0  0  0  0  0  0  0  0999 V2000
   -3.9393    0.2744    0.0027 C   0  0  0  0  0  0  0  0  0  0  0  0
   -2.6990   -0.5696    0.0170 C   0  0  0  0  0  0  0  0  0  0  0  0
   -4.9874   -0.4757    0.4005 H   0  0  0  0  0  0  0  0  0  0  0  0
   -4.1161    1.1285   -1.0107 H   0  0  0  0  0  0  0  0  0  0  0  0
   -3.4478    0.3314    0.3947 H   0  0  0  0  0  0  0  0  0  0  0  0
   -1.4233    0.1971    0.1157 C   0  0  0  0  0  0  0  0  0  0  0  0
   -2.5700   -1.3171   -0.8099 H   0  0  0  0  0  0  0  0  0  0  0  0
   -2.9596   -1.0653    0.8538 H   0  0  0  0  0  0  0  0  0  0  0  0
   -0.1439   -0.7076   -0.0273 C   0  0  0  0  0  0  0  0  0  0  0  0
   -1.4108    0.7622    0.9905 H   0  0  0  0  0  0  0  0  0  0  0  0
   -1.2928    0.8112   -0.7724 H   0  0  0  0  0  0  0  0  0  0  0  0
   -0.1805   -1.3464    0.9134 H   0  0  0  0  0  0  0  0  0  0  0  0
    0.5497   -0.2131    0.0152 H   0  0  0  0  0  0  0  0  0  0  0  0
   -0.1470   -1.4411   -0.8932 H   0  0  0  0  0  0  0  0  0  0  0  0
  1  3  1  0  0  0  0
  2  6  1  0  0  0  0
  2  5  1  0  0  0  0
  2  8  1  0  0  0  0
  4  1  1  0  0  0  0
  6 10  1  0  0  0  0
  7  2  1  0  0  0  0
  9 13  1  0  0  0  0
  9  6  1  0  0  0  0
  9 12  1  0  0  0  0
 11  6  1  0  0  0  0
 14  9  1  0  0  0  0
M  RAD  1   1   3
M  END
$$$$
