14
butane_opt
C  -3.985464   0.291044   0.122421
C  -2.736829  -0.618089  -0.103675
H  -4.998852  -0.414125  -0.317833
H  -4.335512   0.585138  -0.547748
H  -3.951902   1.424244   1.188416
C  -1.377536   0.160266  -0.036463
H  -2.534104  -1.364293  -0.941200
H  -2.920496  -1.357454   0.778363
C  -0.116159  -0.697006   0.106967
H  -1.207856   0.691040   0.774552
H  -1.052759   0.872771  -0.966115
H   0.083003  -1.745505   1.388506
H   0.685475  -0.152567  -0.461660
H  -0.167549  -0.660520  -0.435337
