14
butane_opt
C  -3.973876   0.362961  -0.148575
C  -2.695699  -0.734601   0.260961
H  -4.944344  -0.225959   0.323055
H  -4.131942   1.446288  -1.323163
H  -4.146653   0.630876   0.357615
C  -1.375584   0.145556   0.170010
H  -2.558054  -1.679294  -0.764784
H  -2.744537  -1.334438   0.968803
C  -0.168247  -0.644077  -0.141462
H  -0.949008   0.900025   1.188388
H  -1.205877   0.687624  -0.678407
H  -0.327305  -0.817033   0.523201
H   0.676794  -0.061011   0.141294
H  -0.126776  -1.562288  -1.063179
