butane_opt
 OpenBabel08242015403D

 14 13  0  0  0  0  0  0  0  0999 V2000
   -3.9502    0.2526   -0.0212 C   0  0  0  0  0  0  0  0  0  0  0  0
   -2.7039   -0.6092    0.0704 C   0  0  0  0  0  0  0  0  0  0  0  0
   -4.8533   -0.3419    0.0325 H   0  0  0  0  0  0  0  0  0  0  0  0
   -3.9649    0.9053   -0.9394 H   0  0  0  0  0  0  0  0  0  0  0  0
   -3.9876    0.8772    0.8115 H   0  0  0  0  0  0  0  0  0  0  0  0
   -1.4115    0.2120    0.0624 C   0  0  0  0  0  0  0  0  0  0  0  0
   -2.7193   -1.3085   -0.8012 H   0  0  0  0  0  0  0  0  0  0  0  0
   -2.7515   -1.2426    0.9571 H   0  0  0  0  0  0  0  0  0  0  0  0
   -0.1422   -0.7074    0.0002 C   0  0  0  0  0  0  0  0  0  0  0  0
   -1.3603    0.8966    0.9433 H   0  0  0  0  0  0  0  0  0  0  0  0
   -1.4154    0.8292   -0.8294 H   0  0  0  0  0  0  0  0  0  0  0  0
   -0.0497   -1.3563    0.9112 H   0  0  0  0  0  0  0  0  0  0  0  0
    0.7722   -0.1175   -0.1458 H   0  0  0  0  0  0  0  0  0  0  0  0
   -0.1961   -1.3855   -0.8484 H   0  0  0  0  0  0  0  0  0  0  0  0
  1  3  1  0  0  0  0
  1  2  1  0  0  0  0
  1  5  1  0  0  0  0
  2  8  1  0  0  0  0
  4  1  1  0  0  0  0
  6  2  1  0  0  0  0
  6 10  1  0  0  0  0
  7  2  1  0  0  0  0
  9  6  1  0  0  0  0
  9 12  1  0  0  0  0
 11  6  1  0  0  0  0
 13  9  1  0  0  0  0
 14  9  1  0  0  0  0
M  END
$$$$
