butane_opt
 OpenBabel08242015403D

 14 12  0  0  0  0  0  0  0  0999 V2000
   -3.9265    0.3164   -0.1504 C   0  0  0  0  0  0  0  0  0  0  0  0
   -2.6779   -0.6828    0.1786 C   0  0  0  0  0  0  0  0  0  0  0  0
   -4.7512   -0.0451   -0.1269 H   0  0  0  0  0  0  0  0  0  0  0  0
   -3.6193    1.0381   -1.1254 H   0  0  0  0  0  0  0  0  0  0  0  0
   -4.2196    0.9211    0.6774 H   0  0  0  0  0  0  0  0  0  0  0  0
   -1.4199    0.0764    0.1806 C   0  0  0  0  0  0  0  0  0  0  0  0
   -2.4475   -1.2284   -0.6322 H   0  0  0  0  0  0  0  0  0  0  0  0
   -2.7894   -1.3694    1.2136 H   0  0  0  0  0  0  0  0  0  0  0  0
   -0.2375   -0.6295   -0.1046 C   0  0  0  0  0  0  0  0  0  0  0  0
   -1.0157    1.2043    1.4954 H   0  0  0  0  0  0  0  0  0  0  0  0
   -1.2928    0.4811   -0.4628 H   0  0  0  0  0  0  0  0  0  0  0  0
    0.2142   -1.4509    0.8236 H   0  0  0  0  0  0  0  0  0  0  0  0
    0.6725   -0.0113   -0.7623 H   0  0  0  0  0  0  0  0  0  0  0  0
   -0.6681   -0.9632   -0.8819 H   0  0  0  0  0  0  0  0  0  0  0  0
  1  3  1  0  0  0  0
  1  2  1  0  0  0  0
  1  5  1  0  0  0  0
  2  6  1  0  0  0  0
  2  8  1  0  0  0  0
  4  1  1  0  0  0  0
  7  2  1  0  0  0  0
  9  6  1  0  0  0  0
  9 12  1  0  0  0  0
 11  6  1  0  0  0  0
 13  9  1  0  0  0  0
 14  9  1  0  0  0  0
M  RAD  2   6   2  10   2
M  END
$$$$
