butane_opt
 OpenBabel08242015403D

 14 12  0  0  0  0  0  0  0  0999 V2000
   -3.9379    0.2215   -0.1506 C   0  0  0  0  0  0  0  0  0  0  0  0
   -2.7827   -0.6125    0.2969 C   0  0  0  0  0  0  0  0  0  0  0  0
   -5.0204   -0.4276   -0.8927 H   0  0  0  0  0  0  0  0  0  0  0  0
   -3.4536    0.6862   -0.9886 H   0  0  0  0  0  0  0  0  0  0  0  0
   -4.3320    1.3014    0.8954 H   0  0  0  0  0  0  0  0  0  0  0  0
   -1.3954    0.3167    0.1576 C   0  0  0  0  0  0  0  0  0  0  0  0
   -2.8001   -1.0887   -0.4217 H   0  0  0  0  0  0  0  0  0  0  0  0
   -2.7674   -1.6532    1.3037 H   0  0  0  0  0  0  0  0  0  0  0  0
   -0.1141   -0.7571   -0.1823 C   0  0  0  0  0  0  0  0  0  0  0  0
   -1.0862    1.0657    1.1163 H   0  0  0  0  0  0  0  0  0  0  0  0
   -1.6045    0.7936   -0.6208 H   0  0  0  0  0  0  0  0  0  0  0  0
    0.1698   -1.4869    0.6237 H   0  0  0  0  0  0  0  0  0  0  0  0
    0.6197   -0.2875   -0.0023 H   0  0  0  0  0  0  0  0  0  0  0  0
    0.0339   -1.4223   -0.9982 H   0  0  0  0  0  0  0  0  0  0  0  0
  1  2  1  0  0  0  0
  2  8  1  0  0  0  0
  3  1  1  0  0  0  0
  4  1  1  0  0  0  0
  6  2  1  0  0  0  0
  6 10  1  0  0  0  0
  7  2  1  0  0  0  0
  9 13  1  0  0  0  0
  9  6  1  0  0  0  0
  9 12  1  0  0  0  0
 11  6  1  0  0  0  0
 14  9  1  0  0  0  0
M  RAD  2   1   2   5   2
M  END
$$$$
