14
butane_opt
C  -3.914424   0.250056  -0.128214
C  -2.709875  -0.600352   0.177939
H  -4.619276  -0.227275  -0.373298
H  -3.741404   0.957416  -1.216867
H  -4.065082   0.751170   0.700511
C  -1.400350   0.230576   0.207792
H  -2.456844  -1.282619  -0.484339
H  -3.033255  -1.379049   1.253365
C  -0.186046  -0.724482  -0.180302
H  -1.253835   1.157452   1.296678
H  -1.753706   0.405584  -0.329317
H   0.060453  -1.582427   0.959013
H   0.768624  -0.117628  -0.508138
H  -0.416449  -0.955589  -0.757869
