butane_opt
 OpenBabel08242015403D

 14 10  0  0  0  0  0  0  0  0999 V2000
   -3.8905    0.2039    0.1308 C   0  0  0  0  0  0  0  0  0  0  0  0
   -2.7366   -0.5866    0.0216 C   0  0  0  0  0  0  0  0  0  0  0  0
   -4.6574   -0.2201   -0.4815 H   0  0  0  0  0  0  0  0  0  0  0  0
   -3.7363    0.2845   -0.4528 H   0  0  0  0  0  0  0  0  0  0  0  0
   -4.1039    1.4227    1.3991 H   0  0  0  0  0  0  0  0  0  0  0  0
   -1.4307    0.2520   -0.1876 C   0  0  0  0  0  0  0  0  0  0  0  0
   -2.6849   -1.3750   -1.0101 H   0  0  0  0  0  0  0  0  0  0  0  0
   -2.6169   -0.9253    0.6779 H   0  0  0  0  0  0  0  0  0  0  0  0
   -0.1745   -0.7296    0.1353 C   0  0  0  0  0  0  0  0  0  0  0  0
   -1.4344    0.6471    0.5498 H   0  0  0  0  0  0  0  0  0  0  0  0
   -1.4555    0.9752   -1.1601 H   0  0  0  0  0  0  0  0  0  0  0  0
   -0.3581   -1.5723    1.3593 H   0  0  0  0  0  0  0  0  0  0  0  0
    0.6963   -0.0999    0.0664 H   0  0  0  0  0  0  0  0  0  0  0  0
    0.1182   -1.3045   -0.6335 H   0  0  0  0  0  0  0  0  0  0  0  0
  2  1  1  0  0  0  0
  2  8  1  0  0  0  0
  3  1  1  0  0  0  0
  6  9  1  0  0  0  0
  6 10  1  0  0  0  0
  7  2  1  0  0  0  0
  9 12  1  0  0  0  0
 11  6  1  0  0  0  0
 13  9  1  0  0  0  0
 14  9  1  0  0  0  0
M  RAD  5   1   3   2   2   4   2   5   2   6   2
M  END
$$$$
