14
butane_opt
C  -3.922381   0.249160   0.125433
C  -2.748986  -0.610527  -0.104035
H  -4.921011  -0.404909   0.005645
H  -4.067028   0.517406  -0.595952
H  -4.067894   0.878779   1.029570
C  -1.444732   0.300856  -0.031991
H  -3.168021  -1.557844  -1.194454
H  -2.634286  -0.842544   0.492018
C  -0.048450  -0.742176   0.128422
H  -1.553748   0.703210   0.722855
H  -1.504151   0.962743  -0.991215
H   0.304505  -2.106385   1.390289
H   0.815564  -0.254417  -0.412425
H  -0.248720  -0.718226  -0.321244
