butane_opt
 OpenBabel08242015403D

 14 11  0  0  0  0  0  0  0  0999 V2000
   -3.9764    0.3464    0.0721 C   0  0  0  0  0  0  0  0  0  0  0  0
   -2.7330   -0.7348    0.0068 C   0  0  0  0  0  0  0  0  0  0  0  0
   -4.7648   -0.0801    0.6009 H   0  0  0  0  0  0  0  0  0  0  0  0
   -4.3297    1.6189   -1.3684 H   0  0  0  0  0  0  0  0  0  0  0  0
   -3.8993    0.2274    0.4312 H   0  0  0  0  0  0  0  0  0  0  0  0
   -1.3457    0.1209    0.0096 C   0  0  0  0  0  0  0  0  0  0  0  0
   -2.7326   -1.4058   -1.0356 H   0  0  0  0  0  0  0  0  0  0  0  0
   -2.6916   -1.0533    0.6593 H   0  0  0  0  0  0  0  0  0  0  0  0
   -0.1781   -0.6496    0.0535 C   0  0  0  0  0  0  0  0  0  0  0  0
   -1.3743    1.0724    1.0729 H   0  0  0  0  0  0  0  0  0  0  0  0
   -1.2265    0.5596   -0.7672 H   0  0  0  0  0  0  0  0  0  0  0  0
   -0.0413   -1.0500    0.8279 H   0  0  0  0  0  0  0  0  0  0  0  0
    0.7862    0.0847    0.1256 H   0  0  0  0  0  0  0  0  0  0  0  0
   -0.0138   -1.4077   -0.9071 H   0  0  0  0  0  0  0  0  0  0  0  0
  1  3  1  0  0  0  0
  2  6  1  0  0  0  0
  2  1  1  0  0  0  0
  2  8  1  0  0  0  0
  6  9  1  0  0  0  0
  6 10  1  0  0  0  0
  7  2  1  0  0  0  0
  9 13  1  0  0  0  0
  9 12  1  0  0  0  0
 11  6  1  0  0  0  0
 14  9  1  0  0  0  0
M  RAD  3   1   3   4   2   5   2
M  END
$$$$
