butane_opt
 OpenBabel08242015403D

 14 13  0  0  0  0  0  0  0  0999 V2000
   -3.9584    0.2865   -0.1867 C   0  0  0  0  0  0  0  0  0  0  0  0
   -2.7124   -0.6924    0.2316 C   0  0  0  0  0  0  0  0  0  0  0  0
   -4.7405   -0.1597   -0.2188 H   0  0  0  0  0  0  0  0  0  0  0  0
   -3.9528    1.0261   -1.1735 H   0  0  0  0  0  0  0  0  0  0  0  0
   -4.4353    1.0705    0.8501 H   0  0  0  0  0  0  0  0  0  0  0  0
   -1.3578    0.2201    0.2464 C   0  0  0  0  0  0  0  0  0  0  0  0
   -2.4048   -1.5326   -0.7728 H   0  0  0  0  0  0  0  0  0  0  0  0
   -2.8735   -1.3779    1.2347 H   0  0  0  0  0  0  0  0  0  0  0  0
   -0.1501   -0.6705   -0.1297 C   0  0  0  0  0  0  0  0  0  0  0  0
   -1.3421    0.9213    1.1441 H   0  0  0  0  0  0  0  0  0  0  0  0
   -1.3106    0.6938   -0.6272 H   0  0  0  0  0  0  0  0  0  0  0  0
    0.2709   -1.5302    0.8055 H   0  0  0  0  0  0  0  0  0  0  0  0
    0.8461   -0.0855   -0.7073 H   0  0  0  0  0  0  0  0  0  0  0  0
   -0.8991   -1.1768   -0.9898 H   0  0  0  0  0  0  0  0  0  0  0  0
  1  2  1  0  0  0  0
  1  5  1  0  0  0  0
  2  6  1  0  0  0  0
  2  8  1  0  0  0  0
  3  1  1  0  0  0  0
  4  1  1  0  0  0  0
  6 10  1  0  0  0  0
  7  2  1  0  0  0  0
  9  6  1  0  0  0  0
  9 12  1  0  0  0  0
 11  6  1  0  0  0  0
 13  9  1  0  0  0  0
 14  9  1  0  0  0  0
M  END
$$$$
