butane_opt
 OpenBabel08242015403D

 14 10  0  0  0  0  0  0  0  0999 V2000
   -3.8972    0.3075    0.1564 C   0  0  0  0  0  0  0  0  0  0  0  0
   -2.6566   -0.6607   -0.1580 C   0  0  0  0  0  0  0  0  0  0  0  0
   -4.6720   -0.2212   -0.1021 H   0  0  0  0  0  0  0  0  0  0  0  0
   -3.9062    0.4958   -0.5328 H   0  0  0  0  0  0  0  0  0  0  0  0
   -4.0553    1.1100    1.2330 H   0  0  0  0  0  0  0  0  0  0  0  0
   -1.4575    0.1497   -0.0676 C   0  0  0  0  0  0  0  0  0  0  0  0
   -2.9544   -1.2734   -1.0442 H   0  0  0  0  0  0  0  0  0  0  0  0
   -2.3814   -1.2038    0.4662 H   0  0  0  0  0  0  0  0  0  0  0  0
   -0.2249   -0.6905    0.1574 C   0  0  0  0  0 15  0  0  0  0  0  0
   -1.5340    0.9338    0.8374 H   0  0  0  0  0  0  0  0  0  0  0  0
   -1.2615    0.7162   -0.9636 H   0  0  0  0  0  0  0  0  0  0  0  0
   -0.1111   -1.9140    1.4235 H   0  0  0  0  0  0  0  0  0  0  0  0
    0.9010    0.0935   -0.7054 H   0  0  0  0  0  0  0  0  0  0  0  0
   -0.2605   -0.4185   -0.1509 H   0  0  0  0  0  0  0  0  0  0  0  0
  1  5  1  0  0  0  0
  2  6  1  0  0  0  0
  2  1  1  0  0  0  0
  2  8  1  0  0  0  0
  3  1  1  0  0  0  0
  4  1  1  0  0  0  0
  6 10  1  0  0  0  0
  7  2  1  0  0  0  0
 11  6  1  0  0  0  0
 14  6  1  0  0  0  0
M  RAD  2  12   2  13   2
M  END
$$$$
