14
butane_opt
C  -3.837169   0.200370   0.121750
C  -2.670146  -0.551080  -0.181449
H  -4.830468  -0.412365   0.206951
H  -4.208228   0.446669  -0.423732
H  -3.415827   1.135076   1.309032
C  -1.513615   0.234582  -0.070919
H  -2.924951  -1.369379  -1.170635
H  -2.750447  -1.030282   0.672573
C  -0.135702  -0.705612   0.176130
H  -1.686651   0.877501   0.613194
H  -1.448753   0.860137  -0.983033
H  -0.110976  -2.066809   1.524277
H   0.429894  -0.321602  -0.579409
H  -0.164792  -0.757164  -0.201619
