butane_opt
 OpenBabel08242015403D

 14 13  0  0  0  0  0  0  0  0999 V2000
   -3.9503    0.3257    0.1061 C   0  0  0  0  0  0  0  0  0  0  0  0
   -2.6503   -0.7374   -0.1136 C   0  0  0  0  0  0  0  0  0  0  0  0
   -4.7135   -0.0951    0.2526 H   0  0  0  0  0  0  0  0  0  0  0  0
   -4.5019    0.9546   -0.6318 H   0  0  0  0  0  0  0  0  0  0  0  0
   -3.7539    1.0999    0.9736 H   0  0  0  0  0  0  0  0  0  0  0  0
   -1.3533    0.1803   -0.0639 C   0  0  0  0  0  0  0  0  0  0  0  0
   -2.8555   -1.2924   -0.8279 H   0  0  0  0  0  0  0  0  0  0  0  0
   -2.8342   -1.3430    0.8431 H   0  0  0  0  0  0  0  0  0  0  0  0
   -0.2249   -0.6636    0.1140 C   0  0  0  0  0  0  0  0  0  0  0  0
   -1.6510    0.7300    0.6608 H   0  0  0  0  0  0  0  0  0  0  0  0
   -1.1436    0.7490   -0.8999 H   0  0  0  0  0  0  0  0  0  0  0  0
   -0.3690   -1.4688    1.0998 H   0  0  0  0  0  0  0  0  0  0  0  0
    0.9677    0.1630    0.1639 H   0  0  0  0  0  0  0  0  0  0  0  0
   -0.0742   -1.1791   -0.7220 H   0  0  0  0  0  0  0  0  0  0  0  0
  1  3  1  0  0  0  0
  1  5  1  0  0  0  0
  2  6  1  0  0  0  0
  2  1  1  0  0  0  0
  2  8  1  0  0  0  0
  4  1  1  0  0  0  0
  6  9  1  0  0  0  0
  6 10  1  0  0  0  0
  7  2  1  0  0  0  0
  9 13  1  0  0  0  0
  9 12  1  0  0  0  0
 11  6  1  0  0  0  0
 14  9  1  0  0  0  0
M  END
$$$$
