butane_opt
 OpenBabel08242015403D

 14 12  0  0  0  0  0  0  0  0999 V2000
   -3.9114    0.3484    0.1933 C   0  0  0  0  0  0  0  0  0  0  0  0
   -2.7079   -0.6724   -0.0998 C   0  0  0  0  0  0  0  0  0  0  0  0
   -4.7903   -0.2624   -0.0742 H   0  0  0  0  0  0  0  0  0  0  0  0
   -4.1751    0.7683   -0.5891 H   0  0  0  0  0  0  0  0  0  0  0  0
   -3.8651    1.1724    1.2119 H   0  0  0  0  0  0  0  0  0  0  0  0
   -1.3884    0.0793   -0.2211 C   0  0  0  0  0  0  0  0  0  0  0  0
   -2.6995   -1.3876   -0.8923 H   0  0  0  0  0  0  0  0  0  0  0  0
   -2.4725   -1.3212    0.8798 H   0  0  0  0  0  0  0  0  0  0  0  0
   -0.1860   -0.6171    0.1533 C   0  0  0  0  0  0  0  0  0  0  0  0
   -1.2554    0.5724    0.5728 H   0  0  0  0  0  0  0  0  0  0  0  0
   -1.5225    0.9189   -1.2447 H   0  0  0  0  0  0  0  0  0  0  0  0
   -0.9281   -1.1726    1.1210 H   0  0  0  0  0  0  0  0  0  0  0  0
    0.9141    0.1894    0.8605 H   0  0  0  0  0  0  0  0  0  0  0  0
    0.0692   -1.5875   -0.7128 H   0  0  0  0  0  0  0  0  0  0  0  0
  1  5  1  0  0  0  0
  2  1  1  0  0  0  0
  2  8  1  0  0  0  0
  3  1  1  0  0  0  0
  4  1  1  0  0  0  0
  6  2  1  0  0  0  0
  6  9  1  0  0  0  0
  6 10  1  0  0  0  0
  7  2  1  0  0  0  0
  9 12  1  0  0  0  0
 11  6  1  0  0  0  0
 14  9  1  0  0  0  0
M  RAD  2   9   2  13   2
M  END
$$$$
