14
butane_opt
C  -3.884861   0.250827  -0.200089
C  -2.780854  -0.611449   0.341519
H  -4.729695  -0.426003  -0.457671
H  -3.702078   0.627376  -0.922307
H  -4.372642   0.930666   0.740737
C  -1.432358   0.302638   0.158014
H  -2.575043  -1.282954  -0.430114
H  -2.919044  -1.332077   1.324565
C  -0.106661  -0.762736  -0.167793
H  -1.257300   0.942849   0.848939
H  -1.570876   0.814226  -0.627522
H  -0.113377  -0.984019   0.390898
H   0.696047  -0.215785   0.074379
H   0.020870  -1.713527  -1.098545
