butane_opt
 OpenBabel08242015403D

 14  8  0  0  0  0  0  0  0  0999 V2000
   -3.9006    0.2622    0.0926 C   0  0  0  0  0  0  0  0  0  0  0  0
   -2.7251   -0.5494   -0.0802 C   0  0  0  0  0  0  0  0  0  0  0  0
   -5.1263   -0.5652   -0.1740 H   0  0  0  0  0  0  0  0  0  0  0  0
   -3.8393    0.2436   -0.5220 H   0  0  0  0  0  0  0  0  0  0  0  0
   -3.5907    1.1922    1.1790 H   0  0  0  0  0  0  0  0  0  0  0  0
   -1.4035    0.1965    0.0132 C   0  0  0  0  0  0  0  0  0  0  0  0
   -2.7251   -1.2802   -1.0089 H   0  0  0  0  0  0  0  0  0  0  0  0
   -2.5970   -1.0275    0.4825 H   0  0  0  0  0  0  0  0  0  0  0  0
   -0.1984   -0.7607    0.0903 C   0  0  0  0  0  1  0  0  0  0  0  0
   -1.5060    0.6744    0.6724 H   0  0  0  0  0  0  0  0  0  0  0  0
   -1.5009    1.1727   -1.1486 H   0  0  0  0  0  0  0  0  0  0  0  0
    0.2181   -1.9195    1.4052 H   0  0  0  0  0  0  0  0  0  0  0  0
    0.6584   -0.1031   -0.3876 H   0  0  0  0  0  0  0  0  0  0  0  0
   -0.2936   -0.6716   -0.3126 H   0  0  0  0  0  0  0  0  0  0  0  0
  1  5  1  0  0  0  0
  2  8  1  0  0  0  0
  3  1  1  0  0  0  0
  4  2  1  0  0  0  0
  6 10  1  0  0  0  0
  7  2  1  0  0  0  0
 13  9  1  0  0  0  0
 14  6  1  0  0  0  0
M  RAD  5   1   3   2   2   6   3  11   2  12   2
M  END
$$$$
