14
butane_opt
C  -3.860084   0.221035  -0.199744
C  -2.744299  -0.570135   0.181173
H  -4.602591  -0.330383  -0.057354
H  -3.780550   0.837758  -1.125299
H  -3.746410   0.798142   0.657699
C  -1.474115   0.258550   0.273831
H  -2.334221  -1.170458  -0.567733
H  -2.974221  -1.408065   1.080337
C  -0.170286  -0.739263  -0.110947
H  -1.228304   1.051993   1.241849
H  -1.838274   0.558572  -0.317085
H   0.275191  -1.534634   0.813642
H   0.729133  -0.266340  -1.075493
H  -0.549425  -0.994801  -0.904568
