butane_opt
 OpenBabel08242015403D

 14 13  0  0  0  0  0  0  0  0999 V2000
   -3.9375    0.2539    0.0535 C   0  0  0  0  0  0  0  0  0  0  0  0
   -2.7078   -0.6003   -0.0139 C   0  0  0  0  0  0  0  0  0  0  0  0
   -4.8482   -0.3501    0.1947 H   0  0  0  0  0  0  0  0  0  0  0  0
   -3.9804    0.9433   -0.8787 H   0  0  0  0  0  0  0  0  0  0  0  0
   -3.8689    0.8922    0.8871 H   0  0  0  0  0  0  0  0  0  0  0  0
   -1.4058    0.1948   -0.0138 C   0  0  0  0  0  0  0  0  0  0  0  0
   -2.7435   -1.3063   -0.8802 H   0  0  0  0  0  0  0  0  0  0  0  0
   -2.6656   -1.2171    0.8349 H   0  0  0  0  0  0  0  0  0  0  0  0
   -0.1630   -0.7042    0.0665 C   0  0  0  0  0  0  0  0  0  0  0  0
   -1.4207    0.8269    0.8091 H   0  0  0  0  0  0  0  0  0  0  0  0
   -1.3883    0.8230   -0.8964 H   0  0  0  0  0  0  0  0  0  0  0  0
   -0.1822   -1.3384    0.9870 H   0  0  0  0  0  0  0  0  0  0  0  0
    0.7782   -0.1003    0.0365 H   0  0  0  0  0  0  0  0  0  0  0  0
   -0.1343   -1.3674   -0.7640 H   0  0  0  0  0  0  0  0  0  0  0  0
  1  3  1  0  0  0  0
  1  5  1  0  0  0  0
  2  6  1  0  0  0  0
  2  1  1  0  0  0  0
  2  8  1  0  0  0  0
  4  1  1  0  0  0  0
  6  9  1  0  0  0  0
  6 10  1  0  0  0  0
  7  2  1  0  0  0  0
  9 12  1  0  0  0  0
 11  6  1  0  0  0  0
 13  9  1  0  0  0  0
 14  9  1  0  0  0  0
M  END
$$$$
