butane_opt
 OpenBabel08242015403D

 14 12  0  0  0  0  0  0  0  0999 V2000
   -3.8821    0.2059   -0.1738 C   0  0  0  0  0  0  0  0  0  0  0  0
   -2.6775   -0.5618    0.3268 C   0  0  0  0  0  0  0  0  0  0  0  0
   -4.9273   -0.5774   -0.8901 H   0  0  0  0  0  0  0  0  0  0  0  0
   -3.3600    0.6492   -0.9783 H   0  0  0  0  0  0  0  0  0  0  0  0
   -4.3781    1.2071    0.8973 H   0  0  0  0  0  0  0  0  0  0  0  0
   -1.4173    0.2626    0.1622 C   0  0  0  0  0  0  0  0  0  0  0  0
   -2.7351   -0.8344   -0.3425 H   0  0  0  0  0  0  0  0  0  0  0  0
   -2.9116   -1.5474    1.4345 H   0  0  0  0  0  0  0  0  0  0  0  0
   -0.1956   -0.7484   -0.2065 C   0  0  0  0  0  0  0  0  0  0  0  0
   -1.2451    1.1647    1.2172 H   0  0  0  0  0  0  0  0  0  0  0  0
   -1.4139    0.7414   -0.6872 H   0  0  0  0  0  0  0  0  0  0  0  0
   -0.0949   -1.3929    0.6146 H   0  0  0  0  0  0  0  0  0  0  0  0
    0.3979   -0.2866    0.0598 H   0  0  0  0  0  0  0  0  0  0  0  0
   -0.2137   -1.5775   -1.1782 H   0  0  0  0  0  0  0  0  0  0  0  0
  1  2  1  0  0  0  0
  2  8  1  0  0  0  0
  3  1  1  0  0  0  0
  4  1  1  0  0  0  0
  6  2  1  0  0  0  0
  6 10  1  0  0  0  0
  7  2  1  0  0  0  0
  9 13  1  0  0  0  0
  9  6  1  0  0  0  0
  9 12  1  0  0  0  0
 11  6  1  0  0  0  0
 14  9  1  0  0  0  0
M  RAD  2   1   2   5   2
M  END
$$$$
