butane_opt
 OpenBabel08242015403D

 14 10  0  0  0  0  0  0  0  0999 V2000
   -3.9621    0.3222    0.1757 C   0  0  0  0  0  0  0  0  0  0  0  0
   -2.6642   -0.6678   -0.2049 C   0  0  0  0  0  0  0  0  0  0  0  0
   -4.6804   -0.2141    0.2043 H   0  0  0  0  0  0  0  0  0  0  0  0
   -4.2432    0.7872   -0.6971 H   0  0  0  0  0  0  0  0  0  0  0  0
   -3.5952    1.1107    1.1435 H   0  0  0  0  0  0  0  0  0  0  0  0
   -1.3497    0.1396   -0.1024 C   0  0  0  0  0  0  0  0  0  0  0  0
   -2.6971   -1.4839   -1.2498 H   0  0  0  0  0  0  0  0  0  0  0  0
   -2.3364   -1.2934    0.6884 H   0  0  0  0  0  0  0  0  0  0  0  0
   -0.2833   -0.6678    0.2352 C   0  0  0  0  0  0  0  0  0  0  0  0
   -1.3212    0.9100    0.6960 H   0  0  0  0  0  0  0  0  0  0  0  0
   -1.1908    0.6845   -1.0332 H   0  0  0  0  0  0  0  0  0  0  0  0
   -0.0749   -1.6590    1.4352 H   0  0  0  0  0  0  0  0  0  0  0  0
    0.7703    0.0335   -0.5953 H   0  0  0  0  0  0  0  0  0  0  0  0
   -0.5582   -0.8091   -0.3492 H   0  0  0  0  0  0  0  0  0  0  0  0
  1  3  1  0  0  0  0
  1  5  1  0  0  0  0
  2  1  1  0  0  0  0
  2  8  1  0  0  0  0
  4  1  1  0  0  0  0
  6 10  1  0  0  0  0
  7  2  1  0  0  0  0
 11  6  1  0  0  0  0
 13  9  1  0  0  0  0
 14  9  1  0  0  0  0
M  RAD  4   2   2   6   3   9   3  12   2
M  END
$$$$
