14
butane_opt
C  -3.935539   0.258374  -0.018523
C  -2.702526  -0.598334   0.082599
H  -4.888331  -0.400458  -0.062474
H  -3.915384   0.829323  -0.863012
H  -4.003357   0.980799   0.878454
C  -1.412584   0.189419   0.033962
H  -2.628651  -1.244733  -0.727151
H  -2.729924  -1.293868   1.010887
C  -0.161810  -0.696616  -0.001025
H  -1.389062   0.854729   0.860480
H  -1.416356   0.774539  -0.828356
H  -0.094980  -1.289337   0.868982
H   0.761312  -0.113103   0.033920
H  -0.161309  -1.407490  -0.889187
