butane_opt
 OpenBabel08242015403D

 14 11  0  0  0  0  0  0  0  0999 V2000
   -3.9348    0.1966   -0.1043 C   0  0  0  0  0  0  0  0  0  0  0  0
   -2.7463   -0.4783    0.1045 C   0  0  0  0  0  0  0  0  0  0  0  0
   -4.8683   -0.4520    0.4716 H   0  0  0  0  0  0  0  0  0  0  0  0
   -3.9548    1.3726   -1.4565 H   0  0  0  0  0  0  0  0  0  0  0  0
   -3.4106    0.0223    0.2528 H   0  0  0  0  0  0  0  0  0  0  0  0
   -1.4567    0.2309    0.2218 C   0  0  0  0  0  0  0  0  0  0  0  0
   -2.6222   -1.3031   -0.6800 H   0  0  0  0  0  0  0  0  0  0  0  0
   -2.6229   -1.1283    0.9874 H   0  0  0  0  0  0  0  0  0  0  0  0
   -0.1271   -0.7444   -0.0428 C   0  0  0  0  0  0  0  0  0  0  0  0
   -1.3711    0.9855    1.1086 H   0  0  0  0  0  0  0  0  0  0  0  0
   -1.5514    0.7097   -0.5608 H   0  0  0  0  0  0  0  0  0  0  0  0
    0.3125   -1.1556    0.5139 H   0  0  0  0  0  0  0  0  0  0  0  0
    0.7077   -0.2804   -0.3003 H   0  0  0  0  0  0  0  0  0  0  0  0
   -0.4636   -1.6730   -1.1595 H   0  0  0  0  0  0  0  0  0  0  0  0
  1  5  1  0  0  0  0
  1  3  1  0  0  0  0
  2  6  1  0  0  0  0
  2  8  1  0  0  0  0
  6 10  1  0  0  0  0
  7  2  1  0  0  0  0
  9  6  1  0  0  0  0
  9 12  1  0  0  0  0
 11  6  1  0  0  0  0
 13  9  1  0  0  0  0
 14  9  1  0  0  0  0
M  RAD  3   1   3   2   2   4   2
M  END
$$$$
