butane_opt
 OpenBabel08242015403D

 14 13  0  0  0  0  0  0  0  0999 V2000
   -4.0750    0.3136   -0.1035 C   0  0  0  0  0  0  0  0  0  0  0  0
   -2.7152   -0.6849    0.2010 C   0  0  0  0  0  0  0  0  0  0  0  0
   -4.8806   -0.2418   -0.7249 H   0  0  0  0  0  0  0  0  0  0  0  0
   -3.7064    0.6032   -0.8714 H   0  0  0  0  0  0  0  0  0  0  0  0
   -4.1861    1.2251    0.8054 H   0  0  0  0  0  0  0  0  0  0  0  0
   -1.3798    0.1510    0.1781 C   0  0  0  0  0  0  0  0  0  0  0  0
   -2.3149   -1.1745   -0.3745 H   0  0  0  0  0  0  0  0  0  0  0  0
   -2.8758   -1.3235    1.0507 H   0  0  0  0  0  0  0  0  0  0  0  0
   -0.0976   -0.6790   -0.1070 C   0  0  0  0  0  0  0  0  0  0  0  0
   -1.1181    0.7204    1.0047 H   0  0  0  0  0  0  0  0  0  0  0  0
   -1.2590    0.9806   -0.7944 H   0  0  0  0  0  0  0  0  0  0  0  0
    0.1574   -1.2500    0.8218 H   0  0  0  0  0  0  0  0  0  0  0  0
    0.7767   -0.0656   -0.4312 H   0  0  0  0  0  0  0  0  0  0  0  0
   -0.4353   -1.1706   -1.0332 H   0  0  0  0  0  0  0  0  0  0  0  0
  1  2  1  0  0  0  0
  1  5  1  0  0  0  0
  2  8  1  0  0  0  0
  3  1  1  0  0  0  0
  4  1  1  0  0  0  0
  6  2  1  0  0  0  0
  6 10  1  0  0  0  0
  7  2  1  0  0  0  0
  9  6  1  0  0  0  0
  9 12  1  0  0  0  0
 11  6  1  0  0  0  0
 13  9  1  0  0  0  0
 14  9  1  0  0  0  0
M  END
$$$$
