butane_opt
 OpenBabel08242015403D

 14 10  0  0  0  0  0  0  0  0999 V2000
   -3.9089    0.2333    0.1358 C   0  0  0  0  0  0  0  0  0  0  0  0
   -2.6982   -0.5641   -0.0486 C   0  0  0  0  0  0  0  0  0  0  0  0
   -4.7930   -0.4481   -0.6608 H   0  0  0  0  0  0  0  0  0  0  0  0
   -3.5139    0.2965   -0.4965 H   0  0  0  0  0  0  0  0  0  0  0  0
   -3.9115    1.6317    1.4654 H   0  0  0  0  0  0  0  0  0  0  0  0
   -1.4402    0.1755   -0.0951 C   0  0  0  0  0  0  0  0  0  0  0  0
   -3.0830   -1.3103   -0.9138 H   0  0  0  0  0  0  0  0  0  0  0  0
   -2.6460   -1.0528    0.8048 H   0  0  0  0  0  0  0  0  0  0  0  0
   -0.1923   -0.7025    0.1473 C   0  0  0  0  0  0  0  0  0  0  0  0
   -1.4612    0.4972    0.5777 H   0  0  0  0  0  0  0  0  0  0  0  0
   -1.2749    1.2040   -1.3942 H   0  0  0  0  0  0  0  0  0  0  0  0
   -0.0919   -1.5754    1.3389 H   0  0  0  0  0  0  0  0  0  0  0  0
    0.6528   -0.1963   -0.3086 H   0  0  0  0  0  0  0  0  0  0  0  0
   -0.0587   -1.2314   -0.5974 H   0  0  0  0  0  0  0  0  0  0  0  0
  2  8  1  0  0  0  0
  3  1  1  0  0  0  0
  4  1  1  0  0  0  0
  6  2  1  0  0  0  0
  6  9  1  0  0  0  0
  6 10  1  0  0  0  0
  7  2  1  0  0  0  0
  9 12  1  0  0  0  0
 13  9  1  0  0  0  0
 14  9  1  0  0  0  0
M  RAD  5   1   3   2   2   5   2   6   2  11   2
M  END
$$$$
