14
butane_opt
C  -3.971957   0.207767  -0.161374
C  -2.717118  -0.638960   0.157402
H  -4.782400  -0.319023   0.451747
H  -4.287772   1.403298  -1.391587
H  -3.575146   0.511199   0.531855
C  -1.465285   0.308914   0.187650
H  -2.669463  -1.160379  -0.513241
H  -3.046580  -1.377831   1.193167
C  -0.061856  -0.745035  -0.118648
H  -1.428973   1.192199   1.373366
H  -1.428224   0.701162  -0.553146
H   0.163517  -1.197225   0.615611
H   0.717074  -0.079477   0.015858
H  -0.105947  -1.716945  -1.163808
