14
butane_opt
C  -4.038480   0.303734   0.145682
C  -2.631544  -0.728684  -0.118265
H  -4.750173  -0.216666  -0.046949
H  -3.828864   0.774337  -0.626782
H  -4.238189   1.410788   1.343491
C  -1.377122   0.139463  -0.131521
H  -2.798531  -1.497798  -1.090160
H  -2.681322  -1.047276   0.573361
C  -0.178310  -0.599750   0.168096
H  -1.402201   0.971268   0.850391
H  -1.173558   0.608290  -0.778946
H   0.151015  -2.041206   1.503598
H   0.616678  -0.179677  -0.691038
H  -0.247719  -0.598242  -0.249567
