14
butane_opt
C  -3.958406   0.286484  -0.186668
C  -2.712366  -0.692383   0.231554
H  -4.740478  -0.159651  -0.218782
H  -3.952763   1.026076  -1.173527
H  -4.435325   1.070534   0.850132
C  -1.357788   0.220134   0.246378
H  -2.404814  -1.532603  -0.772772
H  -2.873485  -1.377942   1.234676
C  -0.150125  -0.670535  -0.129736
H  -1.342081   0.921338   1.144101
H  -1.310583   0.693756  -0.627189
H   0.270915  -1.530166   0.805508
H   0.846112  -0.085476  -0.707250
H  -0.899139  -1.176767  -0.989817
