butane_opt
 OpenBabel08242015403D

 14 11  0  0  0  0  0  0  0  0999 V2000
   -3.9448    0.2977    0.1359 C   0  0  0  0  0  0  0  0  0  0  0  0
   -2.6373   -0.5969   -0.0168 C   0  0  0  0  0  0  0  0  0  0  0  0
   -5.0213   -0.4516   -0.3897 H   0  0  0  0  0  0  0  0  0  0  0  0
   -3.6100    0.1925   -0.4387 H   0  0  0  0  0  0  0  0  0  0  0  0
   -4.2137    1.5779    1.3835 H   0  0  0  0  0  0  0  0  0  0  0  0
   -1.3663    0.1306   -0.1890 C   0  0  0  0  0  0  0  0  0  0  0  0
   -2.8758   -1.4646   -0.9649 H   0  0  0  0  0  0  0  0  0  0  0  0
   -2.7122   -1.0913    0.8219 H   0  0  0  0  0  0  0  0  0  0  0  0
   -0.2363   -0.7167    0.1491 C   0  0  0  0  0  0  0  0  0  0  0  0
   -1.1432    0.6844    0.5315 H   0  0  0  0  0  0  0  0  0  0  0  0
   -1.4984    1.0789   -1.1618 H   0  0  0  0  0  0  0  0  0  0  0  0
   -0.3801   -1.3580    1.1004 H   0  0  0  0  0  0  0  0  0  0  0  0
    0.6510    0.0103    0.1204 H   0  0  0  0  0  0  0  0  0  0  0  0
    0.0209   -1.0618   -0.3912 H   0  0  0  0  0  0  0  0  0  0  0  0
  2  8  1  0  0  0  0
  3  1  1  0  0  0  0
  4  1  1  0  0  0  0
  6  2  1  0  0  0  0
  6  9  1  0  0  0  0
  6 10  1  0  0  0  0
  7  2  1  0  0  0  0
  9 12  1  0  0  0  0
 11  6  1  0  0  0  0
 13  9  1  0  0  0  0
 14  9  1  0  0  0  0
M  RAD  3   1   3   2   2   5   2
M  END
$$$$
