14
butane_opt
C  -3.911030   0.227910  -0.114117
C  -2.686763  -0.531615   0.203435
H  -5.131180  -0.680887  -0.284580
H  -3.710406   0.730719  -0.853597
H  -3.872024   0.829985   0.594915
C  -1.422387   0.224461   0.088638
H  -2.503022  -0.847548  -0.376401
H  -2.685250  -1.488521   1.311949
C  -0.176956  -0.731403  -0.074319
H  -1.648979   1.053456   0.997586
H  -1.457820   0.758266  -0.569107
H  -0.156260  -1.164912   0.577498
H   0.721234  -0.129616   0.113088
H  -0.179447  -1.887317  -1.387547
