butane_opt
 OpenBabel08242015403D

 14 10  0  0  0  0  0  0  0  0999 V2000
   -3.9747    0.2114   -0.0814 C   0  0  0  0  0  0  0  0  0  0  0  0
   -2.7046   -0.5356    0.1579 C   0  0  0  0  0  0  0  0  0  0  0  0
   -5.0297   -0.4768    0.1387 H   0  0  0  0  0  0  0  0  0  0  0  0
   -4.1750    1.2264   -1.3261 H   0  0  0  0  0  0  0  0  0  0  0  0
   -3.7974    0.6135    0.6653 H   0  0  0  0  0  0  0  0  0  0  0  0
   -1.4463    0.2335    0.1122 C   0  0  0  0  0  0  0  0  0  0  0  0
   -2.6625   -1.1744   -0.5729 H   0  0  0  0  0  0  0  0  0  0  0  0
   -2.9593   -1.4626    1.1948 H   0  0  0  0  0  0  0  0  0  0  0  0
   -0.0884   -0.7517   -0.0700 C   0  0  0  0  0  0  0  0  0  0  0  0
   -1.1576    0.6742    0.9225 H   0  0  0  0  0  0  0  0  0  0  0  0
   -1.5459    1.0193   -0.7816 H   0  0  0  0  0  0  0  0  0  0  0  0
   -0.1410   -0.6577    0.4419 H   0  0  0  0  0  0  0  0  0  0  0  0
    0.8801   -0.0541    0.5564 H   0  0  0  0  0  0  0  0  0  0  0  0
    0.1574   -2.0698   -1.3299 H   0  0  0  0  0  0  0  0  0  0  0  0
  1  3  1  0  0  0  0
  1  2  1  0  0  0  0
  1  5  1  0  0  0  0
  2  8  1  0  0  0  0
  6  2  1  0  0  0  0
  6 10  1  0  0  0  0
  7  2  1  0  0  0  0
  9  6  1  0  0  0  0
  9 13  1  0  0  0  0
 11  6  1  0  0  0  0
M  RAD  5   1   2   4   2   9   3  12   2  14   2
M  END
$$$$
