14
butane_opt
C  -3.853366   0.225342  -0.134824
C  -2.736762  -0.586294   0.210782
H  -4.889932  -0.336075  -0.056305
H  -3.731831   1.085200  -1.172775
H  -3.707547   0.669717   0.730053
C  -1.479469   0.220634   0.072102
H  -2.862280  -0.738738  -0.258847
H  -2.650812  -1.416155   1.343912
C  -0.161594  -0.740368  -0.075543
H  -1.410095   0.994934   1.109728
H  -1.437344   0.724311  -0.671920
H  -0.293562  -0.679890   0.355789
H   0.826765  -0.097299   0.511467
H  -0.096422  -2.144558  -1.471938
