14
butane_opt
C  -3.846809   0.144873  -0.100757
C  -2.742799  -0.458860   0.193021
H  -4.862022  -0.545676   0.047545
H  -3.904248   1.281387  -1.293583
H  -3.709889   0.752987   0.554758
C  -1.428734   0.223173   0.081382
H  -2.578296  -0.707260  -0.380290
H  -2.984769  -1.629348   1.539870
C  -0.192157  -0.786743  -0.098915
H  -1.468819   1.004058   1.150580
H  -1.515906   0.799075  -0.707788
H  -0.297567  -0.576308   0.196176
H   0.798333  -0.139775   0.797727
H   0.076883  -2.217639  -1.488987
