14
butane_opt
C  -3.908897   0.233327   0.135789
C  -2.698249  -0.564074  -0.048587
H  -4.792954  -0.448075  -0.660807
H  -3.513884   0.296454  -0.496543
H  -3.911496   1.631697   1.465409
C  -1.440153   0.175503  -0.095072
H  -3.083036  -1.310307  -0.913794
H  -2.646008  -1.052759   0.804849
C  -0.192290  -0.702462   0.147324
H  -1.461228   0.497181   0.577651
H  -1.274917   1.204038  -1.394232
H  -0.091905  -1.575360   1.338928
H   0.652825  -0.196314  -0.308643
H  -0.058666  -1.231395  -0.597357
