butane_opt
 OpenBabel08242015403D

 14 10  0  0  0  0  0  0  0  0999 V2000
   -3.9108    0.2539    0.1240 C   0  0  0  0  0  1  0  0  0  0  0  0
   -2.8050   -0.6422   -0.0270 C   0  0  0  0  0  0  0  0  0  0  0  0
   -4.9116   -0.2438   -0.5471 H   0  0  0  0  0  0  0  0  0  0  0  0
   -3.7725    0.1224   -0.3765 H   0  0  0  0  0  0  0  0  0  0  0  0
   -4.1961    1.5190    1.3955 H   0  0  0  0  0  0  0  0  0  0  0  0
   -1.3814    0.2782   -0.1632 C   0  0  0  0  0  0  0  0  0  0  0  0
   -2.7322   -1.1850   -0.6459 H   0  0  0  0  0  0  0  0  0  0  0  0
   -3.0572   -1.2213    0.9216 H   0  0  0  0  0  0  0  0  0  0  0  0
   -0.1068   -0.7471    0.0889 C   0  0  0  0  0  0  0  0  0  0  0  0
   -1.4676    0.8732    0.5908 H   0  0  0  0  0  0  0  0  0  0  0  0
   -1.5215    0.9986   -1.0151 H   0  0  0  0  0  0  0  0  0  0  0  0
   -0.0430   -1.6762    1.2640 H   0  0  0  0  0  0  0  0  0  0  0  0
    0.8361   -0.1617    0.1875 H   0  0  0  0  0  0  0  0  0  0  0  0
    0.2641   -1.2318   -0.4864 H   0  0  0  0  0  0  0  0  0  0  0  0
  2  8  1  0  0  0  0
  3  1  1  0  0  0  0
  4  2  1  0  0  0  0
  6  9  1  0  0  0  0
  6 10  1  0  0  0  0
  7  2  1  0  0  0  0
  9 13  1  0  0  0  0
  9 12  1  0  0  0  0
 11  6  1  0  0  0  0
 14  9  1  0  0  0  0
M  RAD  3   2   2   5   2   6   2
M  END
$$$$
