14
butane_opt
C  -4.008525   0.305482  -0.136736
C  -2.674873  -0.726916   0.231993
H  -4.639994  -0.018955  -0.698995
H  -3.684440   0.617819  -0.885788
H  -4.457698   1.147134   1.021624
C  -1.344918   0.193027   0.140841
H  -2.482875  -0.994956  -0.363361
H  -2.937246  -1.497112   1.364090
C  -0.163891  -0.652728  -0.101661
H  -1.458046   0.878400   0.918797
H  -1.603858   0.697011  -0.726956
H  -0.118997  -1.168985   0.718877
H   0.894299   0.131645  -0.320952
H  -0.284141  -1.657199  -1.209663
