14
butane_opt
C  -3.940914   0.250617   0.044978
C  -2.692422  -0.591690  -0.002188
H  -4.880897  -0.369109   0.202354
H  -4.017272   0.935233  -0.878161
H  -3.868542   0.814761   0.848925
C  -1.416830   0.188161  -0.013114
H  -2.761201  -1.293509  -0.868006
H  -2.638190  -1.180196   0.826853
C  -0.166541  -0.704833   0.064239
H  -1.405862   0.908864   0.861957
H  -1.359079   0.798615  -0.898481
H  -0.155269  -1.328318   0.943227
H   0.747744  -0.118533   0.014111
H  -0.079312  -1.347479  -0.753289
