butane_opt
 OpenBabel08242015403D

 14 13  0  0  0  0  0  0  0  0999 V2000
   -4.0085    0.3055   -0.1367 C   0  0  0  0  0  0  0  0  0  0  0  0
   -2.6749   -0.7269    0.2320 C   0  0  0  0  0  0  0  0  0  0  0  0
   -4.6400   -0.0190   -0.6990 H   0  0  0  0  0  0  0  0  0  0  0  0
   -3.6844    0.6178   -0.8858 H   0  0  0  0  0  0  0  0  0  0  0  0
   -4.4577    1.1471    1.0216 H   0  0  0  0  0  0  0  0  0  0  0  0
   -1.3449    0.1930    0.1408 C   0  0  0  0  0  0  0  0  0  0  0  0
   -2.4829   -0.9950   -0.3634 H   0  0  0  0  0  0  0  0  0  0  0  0
   -2.9372   -1.4971    1.3641 H   0  0  0  0  0  0  0  0  0  0  0  0
   -0.1639   -0.6527   -0.1017 C   0  0  0  0  0  0  0  0  0  0  0  0
   -1.4580    0.8784    0.9188 H   0  0  0  0  0  0  0  0  0  0  0  0
   -1.6039    0.6970   -0.7270 H   0  0  0  0  0  0  0  0  0  0  0  0
   -0.1190   -1.1690    0.7189 H   0  0  0  0  0  0  0  0  0  0  0  0
    0.8943    0.1316   -0.3210 H   0  0  0  0  0  0  0  0  0  0  0  0
   -0.2841   -1.6572   -1.2097 H   0  0  0  0  0  0  0  0  0  0  0  0
  1  2  1  0  0  0  0
  1  5  1  0  0  0  0
  2  8  1  0  0  0  0
  3  1  1  0  0  0  0
  4  1  1  0  0  0  0
  6  2  1  0  0  0  0
  6 10  1  0  0  0  0
  7  2  1  0  0  0  0
  9  6  1  0  0  0  0
  9 12  1  0  0  0  0
 11  6  1  0  0  0  0
 13  9  1  0  0  0  0
 14  9  1  0  0  0  0
M  END
$$$$
