14
butane_opt
C  -3.950069   0.208344   0.058071
C  -2.801188  -0.592540  -0.072398
H  -4.620894  -0.192747   0.104242
H  -3.856578   0.660550  -0.657498
H  -4.007326   1.011249   1.004632
C  -1.375656   0.308680   0.026722
H  -2.791143  -1.614920  -1.175438
H  -2.774735  -1.002426   0.826357
C  -0.107153  -0.778554   0.106845
H  -1.580996   0.999918   0.844192
H  -1.213136   0.970926  -0.918933
H   0.433518  -2.044492   1.308813
H   0.699934  -0.156314  -0.810044
H  -0.495555  -0.837742  -0.428420
