butane_opt
 OpenBabel08242015403D

 14 12  0  0  0  0  0  0  0  0999 V2000
   -3.9966    0.3471   -0.1418 C   0  0  0  0  0  0  0  0  0  0  0  0
   -2.7297   -0.7165    0.2525 C   0  0  0  0  0  0  0  0  0  0  0  0
   -4.8631   -0.0118   -0.7022 H   0  0  0  0  0  0  0  0  0  0  0  0
   -3.6733    0.4115   -0.6936 H   0  0  0  0  0  0  0  0  0  0  0  0
   -4.6160    1.3675    0.9759 H   0  0  0  0  0  0  0  0  0  0  0  0
   -1.3242    0.1290    0.0824 C   0  0  0  0  0  0  0  0  0  0  0  0
   -2.4913   -1.2154   -0.4481 H   0  0  0  0  0  0  0  0  0  0  0  0
   -2.7944   -1.6784    1.4113 H   0  0  0  0  0  0  0  0  0  0  0  0
   -0.1507   -0.5897   -0.1055 C   0  0  0  0  0  0  0  0  0  0  0  0
   -0.8866    0.9535    1.0924 H   0  0  0  0  0  0  0  0  0  0  0  0
   -1.6494    0.5666   -0.8290 H   0  0  0  0  0  0  0  0  0  0  0  0
   -0.0370   -1.3027    0.8689 H   0  0  0  0  0  0  0  0  0  0  0  0
    0.5523   -0.1619   -0.0759 H   0  0  0  0  0  0  0  0  0  0  0  0
   -0.1923   -1.4510   -1.1256 H   0  0  0  0  0  0  0  0  0  0  0  0
  1  2  1  0  0  0  0
  2  8  1  0  0  0  0
  3  1  1  0  0  0  0
  4  1  1  0  0  0  0
  6  2  1  0  0  0  0
  6 10  1  0  0  0  0
  7  2  1  0  0  0  0
  9 13  1  0  0  0  0
  9  6  1  0  0  0  0
  9 12  1  0  0  0  0
 11  6  1  0  0  0  0
 14  9  1  0  0  0  0
M  RAD  2   1   2   5   2
M  END
$$$$
