14
butane_opt
C  -4.030284   0.306600   0.149680
C  -2.642934  -0.660844  -0.180692
H  -4.745848  -0.191928  -0.100226
H  -4.299513   0.574069  -0.444075
H  -4.099344   1.321487   1.123118
C  -1.334525   0.105292  -0.030569
H  -2.787581  -1.600139  -1.334178
H  -2.525605  -1.166324   0.723755
C  -0.199026  -0.623511   0.204448
H  -1.436877   0.635532   0.735205
H  -1.325164   0.985428  -1.049326
H   0.189049  -1.958034   1.399992
H   0.826800   0.003530  -1.015072
H  -0.363720  -0.556793  -0.228366
