14
butane_opt
C  -3.882927   0.232172   0.104276
C  -2.710427  -0.504970  -0.051390
H  -5.016626  -0.532790  -0.191101
H  -3.407824   0.604126  -0.538173
H  -4.051652   0.960213   0.859091
C  -1.450918   0.181939   0.018398
H  -2.658743  -1.343321  -1.151389
H  -2.726618  -0.917142   0.661158
C  -0.214920  -0.738907   0.086333
H  -1.417178   0.692938   0.723742
H  -1.231252   0.845164  -0.919757
H   0.267916  -1.826642   1.292603
H   0.697564  -0.141034  -0.733104
H  -0.364803  -0.881252  -0.362430
