14
butane_opt
C  -3.929419   0.261694   0.047124
C  -2.706492  -0.608376   0.003328
H  -4.866771  -0.382345   0.085165
H  -3.932884   0.835705  -0.842114
H  -3.919507   0.939646   0.907000
C  -1.406248   0.201238  -0.010258
H  -2.743628  -1.370603  -0.881752
H  -2.715222  -1.181057   0.842007
C  -0.168372  -0.707239   0.061186
H  -1.432072   0.883036   0.832197
H  -1.387636   0.850247  -0.920516
H  -0.071193  -1.413560   0.996739
H   0.704765  -0.136694  -0.066807
H  -0.133073  -1.262585  -0.711470
