14
butane_opt
C  -3.979245   0.237777   0.140080
C  -2.701753  -0.639779   0.018410
H  -4.832804  -0.421530  -0.703320
H  -3.928489   0.183355  -0.254343
H  -4.037915   1.479253   1.405286
C  -1.382820   0.280570  -0.169882
H  -2.810629  -1.553174  -0.999825
H  -2.678235  -0.851424   0.613170
C  -0.148612  -0.728477   0.149458
H  -1.617210   0.716334   0.451836
H  -1.471280   1.139485  -1.415661
H  -0.039611  -1.713169   1.217029
H   0.620997  -0.178982   0.010420
H   0.301368  -1.091908  -0.453966
