14
butane_opt
C  -3.985553   0.303204  -0.072950
C  -2.668664  -0.632360   0.149184
H  -4.647012  -0.181980   0.345633
H  -3.960370   1.108925  -1.106786
H  -3.954379   0.876031   0.798968
C  -1.339552   0.086844   0.007794
H  -2.938018  -1.172647  -0.593671
H  -2.733290  -1.441939   1.163213
C  -0.176522  -0.666849  -0.032499
H  -1.306555   1.080439   1.085079
H  -1.567243   0.529851  -0.957222
H  -0.727416  -0.758177   0.448547
H   0.791550   0.092838   0.638620
H   0.028884  -1.644506  -1.053787
