14
butane_opt
C  -3.939470   0.319239   0.166708
C  -2.665275  -0.615516  -0.079104
H  -4.841134  -0.328669   0.012176
H  -4.141757   0.846913  -0.547166
H  -3.915924   1.061800   1.173946
C  -1.366943   0.104915  -0.244999
H  -3.038672  -1.164343  -0.791252
H  -2.528536  -1.381993   0.908860
C  -0.178452  -0.641938   0.190724
H  -1.417045   0.616542   0.489176
H  -1.318697   0.503985  -1.132962
H  -0.780764  -0.964946   0.911805
H   0.777312   0.089803   0.822850
H  -0.020590  -1.731214  -0.854361
