14
butane_opt
C  -3.991828   0.319025  -0.025150
C  -2.742854  -0.702902   0.163059
H  -4.958903  -0.224162  -0.611233
H  -3.694373   0.605330  -0.808333
H  -4.793508   1.488435   0.955978
C  -1.327549   0.136260   0.058072
H  -2.478263  -1.112209  -0.572987
H  -2.827551  -1.391012   1.154865
C  -0.126558  -0.686683  -0.019184
H  -1.287416   0.772035   0.802958
H  -1.229556   1.028140  -1.099912
H  -0.107047  -1.052911   0.740902
H   1.099302   0.128173  -0.081586
H  -0.458851  -1.539182  -1.104862
