butane_opt
 OpenBabel08242015403D

 14 10  0  0  0  0  0  0  0  0999 V2000
   -4.0026    0.1738    0.0687 C   0  0  0  0  0  0  0  0  0  0  0  0
   -2.6768   -0.5881   -0.1018 C   0  0  0  0  0  0  0  0  0  0  0  0
   -4.8971   -0.4793    0.2058 H   0  0  0  0  0  0  0  0  0  0  0  0
   -3.9670    0.6380   -0.7620 H   0  0  0  0  0  0  0  0  0  0  0  0
   -3.7941    1.1896    1.2844 H   0  0  0  0  0  0  0  0  0  0  0  0
   -1.4351    0.3107    0.0155 C   0  0  0  0  0  0  0  0  0  0  0  0
   -2.7198   -1.1618   -1.0173 H   0  0  0  0  0  0  0  0  0  0  0  0
   -2.8875   -1.0739    0.6825 H   0  0  0  0  0  0  0  0  0  0  0  0
   -0.1146   -0.7492    0.0625 C   0  0  0  0  0  0  0  0  0  0  0  0
   -1.5494    0.9730    0.7970 H   0  0  0  0  0  0  0  0  0  0  0  0
   -1.1729    0.9362   -0.8341 H   0  0  0  0  0  0  0  0  0  0  0  0
    0.2240   -2.0031    1.5100 H   0  0  0  0  0  0  0  0  0  0  0  0
    0.5678   -0.4707   -0.5129 H   0  0  0  0  0  0  0  0  0  0  0  0
   -0.0318   -0.8161   -0.3545 H   0  0  0  0  0  0  0  0  0  0  0  0
  1  3  1  0  0  0  0
  2  6  1  0  0  0  0
  2  1  1  0  0  0  0
  2  8  1  0  0  0  0
  4  1  1  0  0  0  0
  6  9  1  0  0  0  0
  6 10  1  0  0  0  0
  7  2  1  0  0  0  0
 11  6  1  0  0  0  0
 13  9  1  0  0  0  0
M  RAD  5   1   2   5   2   9   3  12   2  14   2
M  END
$$$$
