14
butane_opt
C  -3.869582   0.166794  -0.055128
C  -2.759100  -0.499031   0.088355
H  -4.797490  -0.408331   0.701189
H  -4.116518   1.674925  -1.555794
H  -3.647943  -0.078690   0.379844
C  -1.441796   0.257668   0.134949
H  -2.725069  -1.302050  -0.884823
H  -2.649314  -0.908508   0.925627
C  -0.133509  -0.750495  -0.027205
H  -1.294841   1.154723   1.088783
H  -1.646282   0.673878  -0.668978
H  -0.072634  -1.211832   0.719654
H   0.751251  -0.241317   0.141764
H  -0.322451  -1.936663  -1.215562
