butane_opt
 OpenBabel08242015403D

 14 10  0  0  0  0  0  0  0  0999 V2000
   -3.8386    0.2569    0.0703 C   0  0  0  0  0  0  0  0  0  0  0  0
   -2.7402   -0.6026   -0.1436 C   0  0  0  0  0  0  0  0  0  0  0  0
   -4.8071   -0.4968    0.0001 H   0  0  0  0  0  0  0  0  0  0  0  0
   -4.1085    0.4751   -0.5541 H   0  0  0  0  0  0  0  0  0  0  0  0
   -3.7396    1.3077    1.2331 H   0  0  0  0  0  0  0  0  0  0  0  0
   -1.4299    0.2360    0.0182 C   0  0  0  0  0  0  0  0  0  0  0  0
   -2.9271   -1.3183   -0.8812 H   0  0  0  0  0  0  0  0  0  0  0  0
   -2.8344   -1.2867    0.8018 H   0  0  0  0  0  0  0  0  0  0  0  0
   -0.1687   -0.7273    0.1240 C   0  0  0  0  0  0  0  0  0  0  0  0
   -1.5458    0.9790    0.8479 H   0  0  0  0  0  0  0  0  0  0  0  0
   -1.5449    0.9945   -0.9620 H   0  0  0  0  0  0  0  0  0  0  0  0
    0.0604   -2.1529    1.4233 H   0  0  0  0  0  0  0  0  0  0  0  0
    0.7440   -0.0387   -0.8277 H   0  0  0  0  0  0  0  0  0  0  0  0
   -0.2093   -0.8711   -0.3863 H   0  0  0  0  0  0  0  0  0  0  0  0
  2  6  1  0  0  0  0
  2  1  1  0  0  0  0
  2  8  1  0  0  0  0
  3  1  1  0  0  0  0
  4  1  1  0  0  0  0
  6  9  1  0  0  0  0
  6 10  1  0  0  0  0
  7  2  1  0  0  0  0
 11  6  1  0  0  0  0
 13  9  1  0  0  0  0
M  RAD  5   1   2   5   2   9   3  12   2  14   2
M  END
$$$$
