butane_opt
 OpenBabel08242015403D

 14  9  0  0  0  0  0  0  0  0999 V2000
   -3.9917    0.2892   -0.1280 C   0  0  0  0  0  0  0  0  0  0  0  0
   -2.7053   -0.6681    0.1370 C   0  0  0  0  0  0  0  0  0  0  0  0
   -4.8291   -0.3310    0.5816 H   0  0  0  0  0  0  0  0  0  0  0  0
   -4.1537    1.2148   -1.1570 H   0  0  0  0  0  0  0  0  0  0  0  0
   -3.8862    0.8147    0.5856 H   0  0  0  0  0  0  0  0  0  0  0  0
   -1.3800    0.1117    0.1298 C   0  0  0  0  0  0  0  0  0  0  0  0
   -2.4943   -0.9528   -0.3670 H   0  0  0  0  0  0  0  0  0  0  0  0
   -2.8710   -1.5590    1.2606 H   0  0  0  0  0  0  0  0  0  0  0  0
   -0.1036   -0.6333   -0.1071 C   0  0  0  0  0  0  0  0  0  0  0  0
   -1.5061    1.0787    1.0062 H   0  0  0  0  0  0  0  0  0  0  0  0
   -1.4598    0.8067   -0.7621 H   0  0  0  0  0  0  0  0  0  0  0  0
   -0.4257   -0.7387    0.5833 H   0  0  0  0  0  0  0  0  0  0  0  0
    0.6912   -0.0879    0.6052 H   0  0  0  0  0  0  0  0  0  0  0  0
    0.0659   -1.9521   -1.3484 H   0  0  0  0  0  0  0  0  0  0  0  0
  1  2  1  0  0  0  0
  1  3  1  0  0  0  0
  1  5  1  0  0  0  0
  2  8  1  0  0  0  0
  4  1  1  0  0  0  0
  6 10  1  0  0  0  0
  9 12  1  0  0  0  0
  9 13  1  0  0  0  0
 11  6  1  0  0  0  0
M  RAD  5   2   3   6   3   7   2   9   3  14   2
M  END
$$$$
