butane_opt
 OpenBabel08242015403D

 14 12  0  0  0  0  0  0  0  0999 V2000
   -4.0003    0.3003   -0.1126 C   0  0  0  0  0  0  0  0  0  0  0  0
   -2.5964   -0.6197    0.1192 C   0  0  0  0  0  0  0  0  0  0  0  0
   -4.9036   -0.2022   -0.1205 H   0  0  0  0  0  0  0  0  0  0  0  0
   -3.9157    0.9078   -0.9907 H   0  0  0  0  0  0  0  0  0  0  0  0
   -3.8819    1.0111    0.7453 H   0  0  0  0  0  0  0  0  0  0  0  0
   -1.3637    0.0442    0.1985 C   0  0  0  0  0  0  0  0  0  0  0  0
   -2.4674   -1.2595   -0.6994 H   0  0  0  0  0  0  0  0  0  0  0  0
   -2.6263   -1.3447    1.1028 H   0  0  0  0  0  0  0  0  0  0  0  0
   -0.2554   -0.5928   -0.1132 C   0  0  0  0  0  0  0  0  0  0  0  0
   -1.2304    1.0287    1.0780 H   0  0  0  0  0  0  0  0  0  0  0  0
   -1.6069    0.5026   -0.5662 H   0  0  0  0  0  0  0  0  0  0  0  0
   -0.0264   -1.8598    1.1315 H   0  0  0  0  0  0  0  0  0  0  0  0
    0.7649    0.1752   -0.4374 H   0  0  0  0  0  0  0  0  0  0  0  0
   -0.5869   -0.9924   -0.8416 H   0  0  0  0  0  0  0  0  0  0  0  0
  1  2  1  0  0  0  0
  1  5  1  0  0  0  0
  2  6  1  0  0  0  0
  2  8  1  0  0  0  0
  3  1  1  0  0  0  0
  4  1  1  0  0  0  0
  6 10  1  0  0  0  0
  7  2  1  0  0  0  0
  9  6  1  0  0  0  0
 11  6  1  0  0  0  0
 13  9  1  0  0  0  0
 14  9  1  0  0  0  0
M  RAD  2   9   2  12   2
M  END
$$$$
