14
butane_opt
C  -4.016805   0.288805   0.051922
C  -2.717989  -0.625978   0.065699
H  -4.695814  -0.179902  -0.636102
H  -3.759484   0.343857  -0.430500
H  -4.084413   1.512579   1.380257
C  -1.430000   0.164411  -0.080903
H  -2.842258  -1.715011  -0.938033
H  -2.660617  -1.191023   0.964428
C  -0.073114  -0.679623   0.070510
H  -1.328561   0.441704   0.531766
H  -1.427115   1.027398  -1.215775
H  -0.169830  -1.428389   1.075179
H   0.915297   0.062861   0.129804
H  -0.166829  -1.054796  -0.622121
