butane_opt
 OpenBabel08242015403D

 14 10  0  0  0  0  0  0  0  0999 V2000
   -3.8643    0.1986   -0.0113 C   0  0  0  0  0  1  0  0  0  0  0  0
   -2.7107   -0.5755    0.0578 C   0  0  0  0  0  0  0  0  0  0  0  0
   -4.7555   -0.4779    0.7420 H   0  0  0  0  0  0  0  0  0  0  0  0
   -3.9669    1.5717   -1.5116 H   0  0  0  0  0  0  0  0  0  0  0  0
   -3.7274    0.2635    0.4795 H   0  0  0  0  0  0  0  0  0  0  0  0
   -1.4481    0.3054    0.1015 C   0  0  0  0  0  0  0  0  0  0  0  0
   -2.7331   -1.3698   -0.8412 H   0  0  0  0  0  0  0  0  0  0  0  0
   -2.9511   -0.9327    0.7485 H   0  0  0  0  0  0  0  0  0  0  0  0
   -0.1929   -0.8024   -0.0275 C   0  0  0  0  0  0  0  0  0  0  0  0
   -1.2844    0.9232    0.9564 H   0  0  0  0  0  0  0  0  0  0  0  0
   -1.5314    0.9149   -0.5703 H   0  0  0  0  0  0  0  0  0  0  0  0
   -0.2261   -1.0538    0.5829 H   0  0  0  0  0  0  0  0  0  0  0  0
    0.7627   -0.1030    0.1705 H   0  0  0  0  0  0  0  0  0  0  0  0
    0.0233   -1.7032   -0.8465 H   0  0  0  0  0  0  0  0  0  0  0  0
  1  3  1  0  0  0  0
  2  5  1  0  0  0  0
  2  8  1  0  0  0  0
  6 10  1  0  0  0  0
  7  2  1  0  0  0  0
  9  6  1  0  0  0  0
  9 13  1  0  0  0  0
  9 12  1  0  0  0  0
 11  6  1  0  0  0  0
 14  9  1  0  0  0  0
M  RAD  3   2   2   4   2   6   2
M  END
$$$$
