butane_opt
 OpenBabel08242015403D

 14 12  0  0  0  0  0  0  0  0999 V2000
   -3.9208    0.2130    0.1823 C   0  0  0  0  0  0  0  0  0  0  0  0
   -2.7227   -0.5731   -0.1097 C   0  0  0  0  0  0  0  0  0  0  0  0
   -4.7755   -0.3047    0.4091 H   0  0  0  0  0  0  0  0  0  0  0  0
   -4.0023    0.6454   -0.4924 H   0  0  0  0  0  0  0  0  0  0  0  0
   -3.6047    1.0848    1.3560 H   0  0  0  0  0  0  0  0  0  0  0  0
   -1.4564    0.2388   -0.2538 C   0  0  0  0  0  0  0  0  0  0  0  0
   -2.8473   -1.5206   -1.0833 H   0  0  0  0  0  0  0  0  0  0  0  0
   -2.9985   -1.1000    0.7050 H   0  0  0  0  0  0  0  0  0  0  0  0
   -0.1133   -0.7353    0.2441 C   0  0  0  0  0  0  0  0  0  0  0  0
   -1.7017    0.5231    0.4373 H   0  0  0  0  0  0  0  0  0  0  0  0
   -1.3364    1.4214   -1.4911 H   0  0  0  0  0  0  0  0  0  0  0  0
   -0.4338   -0.8893    0.8492 H   0  0  0  0  0  0  0  0  0  0  0  0
    0.7993   -0.3726    0.7974 H   0  0  0  0  0  0  0  0  0  0  0  0
    0.4143   -1.6708   -0.7959 H   0  0  0  0  0  0  0  0  0  0  0  0
  1  3  1  0  0  0  0
  1  5  1  0  0  0  0
  2  1  1  0  0  0  0
  2  8  1  0  0  0  0
  4  1  1  0  0  0  0
  6  2  1  0  0  0  0
  6  9  1  0  0  0  0
  6 10  1  0  0  0  0
  7  2  1  0  0  0  0
  9 13  1  0  0  0  0
  9 12  1  0  0  0  0
 14  9  1  0  0  0  0
M  RAD  2   6   2  11   2
M  END
$$$$
