14
butane_opt
C  -3.864294   0.198625  -0.011310
C  -2.710670  -0.575455   0.057815
H  -4.755529  -0.477900   0.742040
H  -3.966945   1.571702  -1.511634
H  -3.727400   0.263509   0.479530
C  -1.448106   0.305429   0.101456
H  -2.733087  -1.369828  -0.841180
H  -2.951116  -0.932748   0.748513
C  -0.192920  -0.802385  -0.027459
H  -1.284423   0.923194   0.956430
H  -1.531422   0.914884  -0.570283
H  -0.226127  -1.053757   0.582862
H   0.762747  -0.103031   0.170540
H   0.023329  -1.703156  -0.846541
