14
butane_opt
C  -3.923590   0.206415  -0.148499
C  -2.718149  -0.477308   0.278685
H  -4.875253  -0.497900  -0.724144
H  -3.239126   0.316541  -0.795116
H  -4.034371   1.143904   0.761040
C  -1.440295   0.173433   0.150483
H  -2.679553  -1.084926  -0.571707
H  -2.708172  -1.413567   1.219253
C  -0.164224  -0.716127  -0.086975
H  -1.477588   0.860240   0.929333
H  -1.645385   1.021282  -0.795846
H   0.301116  -1.213138   0.741173
H   0.559476  -0.213649  -0.419548
H  -0.299463  -1.671165  -1.217715
