butane_opt
 OpenBabel08242015403D

 14  9  0  0  0  0  0  0  0  0999 V2000
   -3.9657    0.3420    0.1244 C   0  0  0  0  0  0  0  0  0  0  0  0
   -2.6547   -0.6575    0.0176 C   0  0  0  0  0  0  0  0  0  0  0  0
   -4.8984   -0.3420   -0.8477 H   0  0  0  0  0  0  0  0  0  0  0  0
   -3.4087    0.4627   -0.4297 H   0  0  0  0  0  0  0  0  0  0  0  0
   -4.2600    1.7117    1.4250 H   0  0  0  0  0  0  0  0  0  0  0  0
   -1.4271    0.0703   -0.1334 C   0  0  0  0  0  0  0  0  0  0  0  0
   -2.6762   -1.4613   -0.8727 H   0  0  0  0  0  0  0  0  0  0  0  0
   -2.4876   -1.4367    1.0141 H   0  0  0  0  0  0  0  0  0  0  0  0
   -0.2188   -0.6190    0.0629 C   0  0  0  0  0  0  0  0  0  0  0  0
   -1.3358    0.7584    0.5864 H   0  0  0  0  0  0  0  0  0  0  0  0
   -1.0553    0.6960   -1.0713 H   0  0  0  0  0  0  0  0  0  0  0  0
   -0.3760   -1.6347    1.2359 H   0  0  0  0  0  0  0  0  0  0  0  0
    0.9482    0.1314    0.0975 H   0  0  0  0  0  0  0  0  0  0  0  0
   -0.3122   -0.9516   -0.4561 H   0  0  0  0  0  0  0  0  0  0  0  0
  2  8  1  0  0  0  0
  3  1  1  0  0  0  0
  4  1  1  0  0  0  0
  6  2  1  0  0  0  0
  6  9  1  0  0  0  0
  6 10  1  0  0  0  0
  7  2  1  0  0  0  0
  9 13  1  0  0  0  0
 11  6  1  0  0  0  0
M  RAD  6   1   3   2   2   5   2   9   3  12   2  14   2
M  END
$$$$
