14
butane_opt
C  -3.955855   0.209411  -0.109847
C  -2.681516  -0.540811   0.252015
H  -4.953003  -0.479922   0.101559
H  -3.686924   1.230183  -1.283345
H  -3.796893   0.379901   0.351137
C  -1.403533   0.244744   0.078942
H  -2.669463  -1.112122  -0.442918
H  -2.730149  -1.300538   1.180993
C  -0.179194  -0.739677  -0.084013
H  -1.462046   0.919893   0.975231
H  -1.728385   0.897348  -0.683714
H  -0.165832  -0.523334   0.257570
H   0.819432  -0.168164   0.687840
H  -0.018627  -2.413826  -1.492499
