butane_opt
 OpenBabel08242015403D

 14 10  0  0  0  0  0  0  0  0999 V2000
   -4.0069    0.3171    0.0853 C   0  0  0  0  0  0  0  0  0  0  0  0
   -2.7126   -0.6623    0.0097 C   0  0  0  0  0  0  0  0  0  0  0  0
   -4.9418   -0.1794   -0.4663 H   0  0  0  0  0  0  0  0  0  0  0  0
   -4.1110    0.3869   -0.3989 H   0  0  0  0  0  0  0  0  0  0  0  0
   -4.3013    1.5365    1.1951 H   0  0  0  0  0  0  0  0  0  0  0  0
   -1.3050    0.1344   -0.0793 C   0  0  0  0  0  0  0  0  0  0  0  0
   -2.4144   -1.5611   -1.0053 H   0  0  0  0  0  0  0  0  0  0  0  0
   -2.7529   -1.1914    0.8352 H   0  0  0  0  0  0  0  0  0  0  0  0
   -0.1959   -0.6494    0.1255 C   0  0  0  0  0  0  0  0  0  0  0  0
   -1.2272    0.6915    0.6847 H   0  0  0  0  0  0  0  0  0  0  0  0
   -1.1601    0.8762   -1.2100 H   0  0  0  0  0  0  0  0  0  0  0  0
   -0.1260   -1.6111    1.3867 H   0  0  0  0  0  0  0  0  0  0  0  0
    0.8532    0.0118   -0.5040 H   0  0  0  0  0  0  0  0  0  0  0  0
   -0.2062   -1.1182   -0.6804 H   0  0  0  0  0  0  0  0  0  0  0  0
  2  1  1  0  0  0  0
  2  8  1  0  0  0  0
  3  1  1  0  0  0  0
  6  2  1  0  0  0  0
  6  9  1  0  0  0  0
  6 10  1  0  0  0  0
  7  2  1  0  0  0  0
 11  6  1  0  0  0  0
 13  9  1  0  0  0  0
 14  9  1  0  0  0  0
M  RAD  5   1   3   4   2   5   2   9   2  12   2
M  END
$$$$
