butane_opt
 OpenBabel08242015403D

 14 13  0  0  0  0  0  0  0  0999 V2000
   -3.8664    0.1927   -0.1053 C   0  0  0  0  0  0  0  0  0  0  0  0
   -2.7076   -0.5069    0.0921 C   0  0  0  0  0  0  0  0  0  0  0  0
   -4.9725   -0.6695    0.1994 H   0  0  0  0  0  0  0  0  0  0  0  0
   -3.8678    1.0057   -0.9925 H   0  0  0  0  0  0  0  0  0  0  0  0
   -3.8652    0.7427    0.6653 H   0  0  0  0  0  0  0  0  0  0  0  0
   -1.4575    0.2174    0.1478 C   0  0  0  0  0  0  0  0  0  0  0  0
   -2.8102   -1.0531   -0.7381 H   0  0  0  0  0  0  0  0  0  0  0  0
   -2.7107   -1.2560    1.0232 H   0  0  0  0  0  0  0  0  0  0  0  0
   -0.1318   -0.7515   -0.0300 C   0  0  0  0  0  0  0  0  0  0  0  0
   -1.7256    1.1137    1.2538 H   0  0  0  0  0  0  0  0  0  0  0  0
   -1.6077    0.6392   -0.6403 H   0  0  0  0  0  0  0  0  0  0  0  0
    0.2077   -1.3309    0.8139 H   0  0  0  0  0  0  0  0  0  0  0  0
    0.7344   -0.2874   -0.6505 H   0  0  0  0  0  0  0  0  0  0  0  0
   -0.4042   -1.2109   -0.7882 H   0  0  0  0  0  0  0  0  0  0  0  0
  1  2  1  0  0  0  0
  1  3  1  0  0  0  0
  1  5  1  0  0  0  0
  2  6  1  0  0  0  0
  2  8  1  0  0  0  0
  4  1  1  0  0  0  0
  6 10  1  0  0  0  0
  7  2  1  0  0  0  0
  9  6  1  0  0  0  0
  9 12  1  0  0  0  0
 11  6  1  0  0  0  0
 13  9  1  0  0  0  0
 14  9  1  0  0  0  0
M  END
$$$$
