butane_opt
 OpenBabel08242015403D

 14 13  0  0  0  0  0  0  0  0999 V2000
   -3.9850    0.2554   -0.1246 C   0  0  0  0  0  0  0  0  0  0  0  0
   -2.7845   -0.6006    0.1670 C   0  0  0  0  0  0  0  0  0  0  0  0
   -4.8192   -0.2865   -0.3608 H   0  0  0  0  0  0  0  0  0  0  0  0
   -3.6115    0.6479   -1.0402 H   0  0  0  0  0  0  0  0  0  0  0  0
   -4.0796    0.9013    0.8427 H   0  0  0  0  0  0  0  0  0  0  0  0
   -1.4214    0.2329    0.1654 C   0  0  0  0  0  0  0  0  0  0  0  0
   -2.6931   -0.8747   -0.4061 H   0  0  0  0  0  0  0  0  0  0  0  0
   -2.9045   -1.4331    1.1175 H   0  0  0  0  0  0  0  0  0  0  0  0
   -0.0544   -0.7666   -0.0469 C   0  0  0  0  0  0  0  0  0  0  0  0
   -1.1796    1.0548    1.0639 H   0  0  0  0  0  0  0  0  0  0  0  0
   -1.4510    0.7616   -0.6413 H   0  0  0  0  0  0  0  0  0  0  0  0
    0.2239   -1.1878    0.5825 H   0  0  0  0  0  0  0  0  0  0  0  0
    0.8479   -0.1288   -0.6142 H   0  0  0  0  0  0  0  0  0  0  0  0
   -0.4163   -1.3782   -1.0351 H   0  0  0  0  0  0  0  0  0  0  0  0
  1  2  1  0  0  0  0
  1  5  1  0  0  0  0
  2  8  1  0  0  0  0
  3  1  1  0  0  0  0
  4  1  1  0  0  0  0
  6  2  1  0  0  0  0
  6 10  1  0  0  0  0
  7  2  1  0  0  0  0
  9  6  1  0  0  0  0
  9 12  1  0  0  0  0
 11  6  1  0  0  0  0
 13  9  1  0  0  0  0
 14  9  1  0  0  0  0
M  END
$$$$
