14
butane_opt
C  -4.039680   0.370000   0.196783
C  -2.732893  -0.705990  -0.167168
H  -4.964166  -0.253306   0.657852
H  -4.114873   1.287578  -0.882416
H  -4.001671   0.727487   0.841781
C  -1.305392   0.089798  -0.098212
H  -2.814999  -1.764292  -1.297996
H  -2.627950  -1.155418   0.561938
C  -0.127761  -0.665569   0.195663
H  -1.482017   0.837839   0.576304
H  -1.211148   0.900228  -1.124903
H  -0.147521  -1.182369   1.075171
H   0.851432   0.092810   0.128643
H  -0.079249  -0.996364  -0.603872
