14
butane_opt
C  -3.871913   0.184856  -0.073974
C  -2.673168  -0.532159   0.114420
H  -4.757429  -0.470853  -0.291146
H  -3.561816   0.952130  -1.172216
H  -3.914190   0.917865   0.693020
C  -1.448681   0.246145   0.185527
H  -2.655528  -1.099230  -0.701726
H  -3.156037  -1.259690   1.142048
C  -0.199536  -0.751292  -0.078846
H  -1.454162   1.075800   1.136644
H  -1.530805   0.685578  -0.365234
H   0.240279  -1.690765   0.957153
H   0.580268  -0.199793  -0.882106
H  -0.471118  -1.161145  -0.831914
