14
butane_opt
C  -3.991722   0.289190  -0.128024
C  -2.705256  -0.668111   0.136956
H  -4.829137  -0.331035   0.581612
H  -4.153716   1.214758  -1.156981
H  -3.886245   0.814675   0.585637
C  -1.379970   0.111740   0.129809
H  -2.494276  -0.952849  -0.367003
H  -2.871014  -1.558956   1.260621
C  -0.103577  -0.633281  -0.107095
H  -1.506138   1.078747   1.006242
H  -1.459796   0.806670  -0.762071
H  -0.425708  -0.738652   0.583256
H   0.691247  -0.087943   0.605205
H   0.065878  -1.952147  -1.348414
