14
butane_opt
C  -3.930992   0.260509   0.010167
C  -2.687180  -0.615223   0.050152
H  -4.832125  -0.304805   0.018891
H  -3.944549   0.852939  -0.843390
H  -3.997240   0.952322   0.880042
C  -1.409366   0.179843   0.010400
H  -2.744987  -1.273478  -0.792161
H  -2.708250  -1.268131   0.963926
C  -0.176240  -0.691248   0.021739
H  -1.384582   0.879717   0.880337
H  -1.444128   0.837634  -0.928977
H  -0.198738  -1.273944   0.898264
H   0.741329  -0.084253   0.088664
H  -0.070717  -1.397481  -0.835676
