butane_opt
 OpenBabel08242015403D

 14 10  0  0  0  0  0  0  0  0999 V2000
   -3.9745    0.3249   -0.1382 C   0  0  0  0  0  0  0  0  0  0  0  0
   -2.7554   -0.7291    0.2111 C   0  0  0  0  0  0  0  0  0  0  0  0
   -4.7050   -0.0087    0.1032 H   0  0  0  0  0  0  0  0  0  0  0  0
   -4.2483    1.2145   -1.1847 H   0  0  0  0  0  0  0  0  0  0  0  0
   -4.2688    0.7947    0.6807 H   0  0  0  0  0  0  0  0  0  0  0  0
   -1.3439    0.1307    0.1516 C   0  0  0  0  0  0  0  0  0  0  0  0
   -2.6196   -1.0331   -0.4147 H   0  0  0  0  0  0  0  0  0  0  0  0
   -2.7546   -1.4980    1.1201 H   0  0  0  0  0  0  0  0  0  0  0  0
   -0.1088   -0.6345   -0.1362 C   0  0  0  0  0  0  0  0  0  0  0  0
   -1.1995    0.6731    0.9802 H   0  0  0  0  0  0  0  0  0  0  0  0
   -1.3758    0.8238   -0.8020 H   0  0  0  0  0  0  0  0  0  0  0  0
   -0.2322   -0.7017    0.5270 H   0  0  0  0  0  0  0  0  0  0  0  0
    0.7753    0.0330    0.6803 H   0  0  0  0  0  0  0  0  0  0  0  0
   -0.2197   -1.8722   -1.3681 H   0  0  0  0  0  0  0  0  0  0  0  0
  1  3  1  0  0  0  0
  1  2  1  0  0  0  0
  1  5  1  0  0  0  0
  2  8  1  0  0  0  0
  4  1  1  0  0  0  0
  6 10  1  0  0  0  0
  7  2  1  0  0  0  0
  9 12  1  0  0  0  0
  9 13  1  0  0  0  0
 11  6  1  0  0  0  0
M  RAD  4   2   2   6   3   9   3  14   2
M  END
$$$$
