butane_opt
 OpenBabel08242015403D

 14 10  0  0  0  0  0  0  0  0999 V2000
   -3.9322    0.2419   -0.1301 C   0  0  0  0  0  1  0  0  0  0  0  0
   -2.7422   -0.5929    0.1552 C   0  0  0  0  0  0  0  0  0  0  0  0
   -4.9384   -0.4320    0.3817 H   0  0  0  0  0  0  0  0  0  0  0  0
   -4.2497    1.4517   -1.2326 H   0  0  0  0  0  0  0  0  0  0  0  0
   -3.7383    0.2396    0.2793 H   0  0  0  0  0  0  0  0  0  0  0  0
   -1.4046    0.2362    0.1876 C   0  0  0  0  0  0  0  0  0  0  0  0
   -2.6434   -1.3692   -0.5833 H   0  0  0  0  0  0  0  0  0  0  0  0
   -3.1612   -1.1570    1.0902 H   0  0  0  0  0  0  0  0  0  0  0  0
   -0.1351   -0.7363   -0.0860 C   0  0  0  0  0  0  0  0  0  0  0  0
   -1.1263    1.2083    1.2672 H   0  0  0  0  0  0  0  0  0  0  0  0
   -1.3642    0.8764   -0.6714 H   0  0  0  0  0  0  0  0  0  0  0  0
    0.2983   -1.0229    0.5767 H   0  0  0  0  0  0  0  0  0  0  0  0
    0.5421   -0.4041   -0.0945 H   0  0  0  0  0  0  0  0  0  0  0  0
   -0.0604   -1.6935   -1.1970 H   0  0  0  0  0  0  0  0  0  0  0  0
  1  3  1  0  0  0  0
  2  5  1  0  0  0  0
  2  8  1  0  0  0  0
  6 10  1  0  0  0  0
  7  2  1  0  0  0  0
  9  6  1  0  0  0  0
  9 12  1  0  0  0  0
 11  6  1  0  0  0  0
 13  9  1  0  0  0  0
 14  9  1  0  0  0  0
M  RAD  3   2   2   4   2   6   2
M  END
$$$$
