14
butane_opt
C  -3.954596   0.336016  -0.045162
C  -2.750507  -0.712124   0.082734
H  -4.881166  -0.169248   0.350041
H  -4.477110   1.290883  -1.069800
H  -3.856248   0.671477   0.565878
C  -1.345062   0.150049   0.037330
H  -2.615855  -1.024274  -0.518043
H  -2.803003  -1.481931   1.155269
C  -0.132140  -0.667440  -0.010546
H  -1.449544   0.943023   0.973666
H  -1.299579   0.480397  -0.792998
H  -0.290030  -0.686320   0.677030
H   1.000987   0.089981   0.453091
H  -0.188907  -1.853758  -1.238561
