butane_opt
 OpenBabel08242015403D

 14 12  0  0  0  0  0  0  0  0999 V2000
   -3.8216    0.1994   -0.1533 C   0  0  0  0  0  0  0  0  0  0  0  0
   -2.7265   -0.5534    0.2245 C   0  0  0  0  0  0  0  0  0  0  0  0
   -4.8413   -0.5971   -0.7034 H   0  0  0  0  0  0  0  0  0  0  0  0
   -3.6655    0.5062   -0.8310 H   0  0  0  0  0  0  0  0  0  0  0  0
   -3.9223    1.4413    1.0786 H   0  0  0  0  0  0  0  0  0  0  0  0
   -1.4422    0.2344    0.1254 C   0  0  0  0  0  0  0  0  0  0  0  0
   -2.7453   -0.9488   -0.4728 H   0  0  0  0  0  0  0  0  0  0  0  0
   -2.9063   -1.3972    1.4593 H   0  0  0  0  0  0  0  0  0  0  0  0
   -0.2213   -0.7426   -0.0891 C   0  0  0  0  0  0  0  0  0  0  0  0
   -1.3994    1.0662    1.0702 H   0  0  0  0  0  0  0  0  0  0  0  0
   -1.7357    0.8964   -0.7846 H   0  0  0  0  0  0  0  0  0  0  0  0
    0.1102   -1.4245    0.6993 H   0  0  0  0  0  0  0  0  0  0  0  0
    0.7254   -0.2640   -0.3340 H   0  0  0  0  0  0  0  0  0  0  0  0
   -0.0891   -1.4366   -1.0138 H   0  0  0  0  0  0  0  0  0  0  0  0
  1  2  1  0  0  0  0
  2  8  1  0  0  0  0
  3  1  1  0  0  0  0
  4  1  1  0  0  0  0
  6  2  1  0  0  0  0
  6 10  1  0  0  0  0
  7  2  1  0  0  0  0
  9  6  1  0  0  0  0
  9 12  1  0  0  0  0
 11  6  1  0  0  0  0
 13  9  1  0  0  0  0
 14  9  1  0  0  0  0
M  RAD  2   1   2   5   2
M  END
$$$$
