butane_opt
 OpenBabel08242015403D

 14 11  0  0  0  0  0  0  0  0999 V2000
   -3.9546    0.3360   -0.0452 C   0  0  0  0  0  0  0  0  0  0  0  0
   -2.7505   -0.7121    0.0827 C   0  0  0  0  0  0  0  0  0  0  0  0
   -4.8812   -0.1692    0.3500 H   0  0  0  0  0  0  0  0  0  0  0  0
   -4.4771    1.2909   -1.0698 H   0  0  0  0  0  0  0  0  0  0  0  0
   -3.8562    0.6715    0.5659 H   0  0  0  0  0  0  0  0  0  0  0  0
   -1.3451    0.1500    0.0373 C   0  0  0  0  0  0  0  0  0  0  0  0
   -2.6159   -1.0243   -0.5180 H   0  0  0  0  0  0  0  0  0  0  0  0
   -2.8030   -1.4819    1.1553 H   0  0  0  0  0  0  0  0  0  0  0  0
   -0.1321   -0.6674   -0.0105 C   0  0  0  0  0  0  0  0  0  0  0  0
   -1.4495    0.9430    0.9737 H   0  0  0  0  0  0  0  0  0  0  0  0
   -1.2996    0.4804   -0.7930 H   0  0  0  0  0  0  0  0  0  0  0  0
   -0.2900   -0.6863    0.6770 H   0  0  0  0  0  0  0  0  0  0  0  0
    1.0010    0.0900    0.4531 H   0  0  0  0  0  0  0  0  0  0  0  0
   -0.1889   -1.8538   -1.2386 H   0  0  0  0  0  0  0  0  0  0  0  0
  1  2  1  0  0  0  0
  1  3  1  0  0  0  0
  1  5  1  0  0  0  0
  2  8  1  0  0  0  0
  4  1  1  0  0  0  0
  6 10  1  0  0  0  0
  7  2  1  0  0  0  0
  9  6  1  0  0  0  0
  9 13  1  0  0  0  0
  9 12  1  0  0  0  0
 11  6  1  0  0  0  0
M  RAD  4   2   2   6   2   9   2  14   2
M  END
$$$$
