14
butane_opt
C  -3.866397   0.192663  -0.105308
C  -2.707555  -0.506927   0.092111
H  -4.972549  -0.669467   0.199397
H  -3.867765   1.005682  -0.992510
H  -3.865237   0.742712   0.665349
C  -1.457529   0.217440   0.147840
H  -2.810236  -1.053121  -0.738122
H  -2.710728  -1.256012   1.023196
C  -0.131837  -0.751462  -0.030004
H  -1.725593   1.113698   1.253766
H  -1.607725   0.639197  -0.640253
H   0.207669  -1.330927   0.813933
H   0.734431  -0.287371  -0.650495
H  -0.404234  -1.210854  -0.788171
