butane_opt
 OpenBabel08242015403D

 14 12  0  0  0  0  0  0  0  0999 V2000
   -3.9898    0.3304   -0.1653 C   0  0  0  0  0  0  0  0  0  0  0  0
   -2.7321   -0.7496    0.1773 C   0  0  0  0  0  0  0  0  0  0  0  0
   -4.6511   -0.1561    0.5373 H   0  0  0  0  0  0  0  0  0  0  0  0
   -4.5860    1.6185   -1.4718 H   0  0  0  0  0  0  0  0  0  0  0  0
   -3.9217    0.5954    0.5315 H   0  0  0  0  0  0  0  0  0  0  0  0
   -1.3187    0.1535    0.1985 C   0  0  0  0  0  0  0  0  0  0  0  0
   -2.4437   -1.2981   -0.6103 H   0  0  0  0  0  0  0  0  0  0  0  0
   -2.9012   -1.4169    1.1875 H   0  0  0  0  0  0  0  0  0  0  0  0
   -0.1464   -0.6519   -0.1186 C   0  0  0  0  0  0  0  0  0  0  0  0
   -1.3010    1.0771    1.2462 H   0  0  0  0  0  0  0  0  0  0  0  0
   -1.2656    0.6692   -0.5154 H   0  0  0  0  0  0  0  0  0  0  0  0
   -0.2355   -0.9364    0.5484 H   0  0  0  0  0  0  0  0  0  0  0  0
    0.8546   -0.0213    0.0918 H   0  0  0  0  0  0  0  0  0  0  0  0
   -0.3143   -1.5646   -1.3098 H   0  0  0  0  0  0  0  0  0  0  0  0
  1  2  1  0  0  0  0
  1  5  1  0  0  0  0
  1  3  1  0  0  0  0
  2  6  1  0  0  0  0
  2  8  1  0  0  0  0
  6 10  1  0  0  0  0
  7  2  1  0  0  0  0
  9 13  1  0  0  0  0
  9  6  1  0  0  0  0
  9 12  1  0  0  0  0
 11  6  1  0  0  0  0
 14  9  1  0  0  0  0
M  RAD  2   1   2   4   2
M  END
$$$$
