14
butane_opt
C  -3.896373   0.257039   0.225606
C  -2.673897  -0.657851  -0.210651
H  -4.746707  -0.230457   0.498090
H  -4.375592   1.473353  -0.993627
H  -3.798978   0.746775   0.968193
C  -1.440916   0.139398  -0.102839
H  -2.898473  -1.522849  -1.377063
H  -2.427213  -1.109475   0.538090
C  -0.201956  -0.647362   0.204226
H  -1.501739   0.733741   0.682159
H  -1.395638   0.883323  -1.102067
H  -0.131237  -1.393182   1.133972
H   0.787124   0.095214   0.040780
H   0.006756  -1.195672  -0.380934
