14
butane_opt
C  -3.963753   0.287943  -0.154316
C  -2.606129  -0.703404   0.301117
H  -4.864859  -0.127604  -0.825578
H  -3.381009   0.894628  -1.075168
H  -4.476853   1.335802   0.840202
C  -1.378822   0.135327   0.154480
H  -2.735956  -1.255215  -0.372154
H  -2.529142  -1.579209   1.265585
C  -0.235945  -0.628838  -0.149285
H  -1.332428   0.929624   1.168194
H  -1.665522   0.786226  -0.645253
H  -0.207575  -1.071640   0.595089
H   0.704902   0.064358  -0.301957
H  -0.352863  -1.526439  -1.074810
