14
butane_opt
C  -3.863800   0.300370   0.135984
C  -2.699024  -0.594420  -0.138345
H  -4.908141  -0.330202   0.978963
H  -4.325655   1.257996  -0.917617
H  -3.709998   0.413484   0.729339
C  -1.408451   0.158843  -0.084767
H  -2.552128  -1.624382  -1.291915
H  -2.643245  -1.203030   0.627745
C  -0.248373  -0.666823   0.183997
H  -1.441111   0.725424   0.804771
H  -1.091391   0.709836  -1.061502
H  -0.218177  -1.218761   0.929829
H   0.677003  -0.161433   0.191628
H  -0.166100  -1.377776  -0.731600
