14
butane_opt
C  -4.016035   0.333376  -0.098223
C  -2.724348  -0.701180   0.121123
H  -5.018195  -0.269084   0.061564
H  -3.869337   0.916593  -1.033766
H  -4.400732   0.720360   0.609681
C  -1.382114   0.144338   0.214230
H  -2.375527  -1.285382  -0.746206
H  -2.657742  -1.148929   0.948843
C  -0.101218  -0.673620  -0.085233
H  -1.003926   0.921009   1.087438
H  -1.581462   0.781169  -0.753481
H   0.134071  -1.412529   0.832947
H   0.786454   0.047392  -0.491451
H  -0.350213  -1.001678  -0.832339
