butane_opt
 OpenBabel08242015403D

 14  9  0  0  0  0  0  0  0  0999 V2000
   -3.8601    0.2102    0.1219 C   0  0  0  0  0  1  0  0  0  0  0  0
   -2.7350   -0.5463   -0.0113 C   0  0  0  0  0  0  0  0  0  0  0  0
   -4.7177   -0.2292   -0.4923 H   0  0  0  0  0  0  0  0  0  0  0  0
   -3.8013    0.0107   -0.1686 H   0  0  0  0  0  0  0  0  0  0  0  0
   -3.7886    1.5260    1.3317 H   0  0  0  0  0  0  0  0  0  0  0  0
   -1.4657    0.2194   -0.1849 C   0  0  0  0  0  0  0  0  0  0  0  0
   -3.0153   -1.3713   -1.0022 H   0  0  0  0  0  0  0  0  0  0  0  0
   -2.8405   -1.0821    0.8424 H   0  0  0  0  0  0  0  0  0  0  0  0
   -0.1589   -0.7398    0.1780 C   0  0  0  0  0  0  0  0  0  0  0  0
   -1.5382    0.6344    0.4176 H   0  0  0  0  0  0  0  0  0  0  0  0
   -1.3152    1.3461   -1.2900 H   0  0  0  0  0  0  0  0  0  0  0  0
   -0.2018   -1.4432    1.1573 H   0  0  0  0  0  0  0  0  0  0  0  0
    0.6853   -0.1786    0.0259 H   0  0  0  0  0  0  0  0  0  0  0  0
    0.1261   -1.4470   -0.5749 H   0  0  0  0  0  0  0  0  0  0  0  0
  2  8  1  0  0  0  0
  3  1  1  0  0  0  0
  4  2  1  0  0  0  0
  6  9  1  0  0  0  0
  6 10  1  0  0  0  0
  7  2  1  0  0  0  0
  9 12  1  0  0  0  0
 13  9  1  0  0  0  0
 14  9  1  0  0  0  0
M  RAD  4   2   2   5   2   6   3  11   2
M  END
$$$$
