14
butane_opt
C  -4.007471   0.285346  -0.110922
C  -2.662976  -0.711905   0.117570
H  -4.728014  -0.098194  -0.205329
H  -4.078009   0.931938  -1.039294
H  -4.405666   1.132830   0.799936
C  -1.359533   0.163883   0.189099
H  -2.442344  -1.031996  -0.438269
H  -2.747972  -1.549135   1.083769
C  -0.200698  -0.655229  -0.108497
H  -1.376675   0.974903   1.195975
H  -1.244324   0.630719  -0.513361
H   0.396860  -1.480104   0.982057
H   0.791983   0.104579  -0.497232
H  -0.451677  -1.047116  -0.945170
