butane_opt
 OpenBabel08242015403D

 14 11  0  0  0  0  0  0  0  0999 V2000
   -4.0030    0.2765   -0.1176 C   0  0  0  0  0  0  0  0  0  0  0  0
   -2.6719   -0.6838    0.1978 C   0  0  0  0  0  0  0  0  0  0  0  0
   -4.6803   -0.1043    0.1025 H   0  0  0  0  0  0  0  0  0  0  0  0
   -4.1342    1.0057   -0.9105 H   0  0  0  0  0  0  0  0  0  0  0  0
   -4.4982    1.0839    0.7766 H   0  0  0  0  0  0  0  0  0  0  0  0
   -1.4097    0.1389    0.0800 C   0  0  0  0  0  0  0  0  0  0  0  0
   -2.8044   -1.2975   -0.5746 H   0  0  0  0  0  0  0  0  0  0  0  0
   -2.6399   -1.4721    1.1446 H   0  0  0  0  0  0  0  0  0  0  0  0
   -0.1037   -0.6667   -0.0377 C   0  0  0  0  0  1  0  0  0  0  0  0
   -1.2126    0.7653    0.8153 H   0  0  0  0  0  0  0  0  0  0  0  0
   -1.2531    1.0401   -1.0500 H   0  0  0  0  0  0  0  0  0  0  0  0
   -0.1507   -0.5125    0.3956 H   0  0  0  0  0  0  0  0  0  0  0  0
    0.7944    0.0432    0.4448 H   0  0  0  0  0  0  0  0  0  0  0  0
   -0.1670   -1.8155   -1.2207 H   0  0  0  0  0  0  0  0  0  0  0  0
  1  3  1  0  0  0  0
  1  2  1  0  0  0  0
  1  5  1  0  0  0  0
  2  8  1  0  0  0  0
  4  1  1  0  0  0  0
  6  2  1  0  0  0  0
  6 12  1  0  0  0  0
  6 10  1  0  0  0  0
  7  2  1  0  0  0  0
  9 13  1  0  0  0  0
 11  6  1  0  0  0  0
M  RAD  1  14   2
M  END
$$$$
