butane_opt
 OpenBabel08242015403D

 14 10  0  0  0  0  0  0  0  0999 V2000
   -3.9704    0.2741   -0.1325 C   0  0  0  0  0  0  0  0  0  0  0  0
   -2.6633   -0.6337    0.3076 C   0  0  0  0  0  0  0  0  0  0  0  0
   -4.6934   -0.2008   -0.4269 H   0  0  0  0  0  0  0  0  0  0  0  0
   -3.5787    1.0005   -1.1225 H   0  0  0  0  0  0  0  0  0  0  0  0
   -4.6409    1.0143    0.6440 H   0  0  0  0  0  0  0  0  0  0  0  0
   -1.3985    0.0627    0.1497 C   0  0  0  0  0  0  0  0  0  0  0  0
   -2.2402   -1.1643   -0.4109 H   0  0  0  0  0  0  0  0  0  0  0  0
   -2.7128   -1.2018    1.1820 H   0  0  0  0  0  0  0  0  0  0  0  0
   -0.1676   -0.6298   -0.1690 C   0  0  0  0  0  0  0  0  0  0  0  0
   -1.1160    0.7724    0.9195 H   0  0  0  0  0  0  0  0  0  0  0  0
   -1.6431    0.8178   -0.7788 H   0  0  0  0  0  0  0  0  0  0  0  0
   -0.5576   -0.7721    0.5886 H   0  0  0  0  0  0  0  0  0  0  0  0
    0.8309    0.1541    0.2565 H   0  0  0  0  0  0  0  0  0  0  0  0
   -0.2575   -1.8049   -1.2944 H   0  0  0  0  0  0  0  0  0  0  0  0
  1  2  1  0  0  0  0
  1  5  1  0  0  0  0
  2  8  1  0  0  0  0
  3  1  1  0  0  0  0
  4  1  1  0  0  0  0
  6 10  1  0  0  0  0
  7  2  1  0  0  0  0
  9 13  1  0  0  0  0
  9 12  1  0  0  0  0
 11  6  1  0  0  0  0
M  RAD  4   2   2   6   3   9   3  14   2
M  END
$$$$
