14
butane_opt
C  -3.934534   0.274405  -0.020358
C  -2.750117  -0.652159   0.058287
H  -4.919877  -0.452161   0.505725
H  -3.933959   1.068795  -1.107740
H  -3.897104   0.459705   0.403286
C  -1.429044   0.278629   0.078270
H  -2.529318  -1.044346  -0.670168
H  -2.950152  -1.224777   1.006184
C  -0.136579  -0.730521  -0.053112
H  -1.057946   1.244031   1.074986
H  -1.370039   0.591856  -0.650890
H  -0.142467  -1.278807   0.770991
H   0.640371  -0.384579   0.206675
H   0.161247  -1.537482  -0.857348
