butane_opt
 OpenBabel08242015403D

 14 12  0  0  0  0  0  0  0  0999 V2000
   -3.8258    0.2270    0.0677 C   0  0  0  0  0  0  0  0  0  0  0  0
   -2.7605   -0.5824   -0.0193 C   0  0  0  0  0  0  0  0  0  0  0  0
   -4.7944   -0.4369    0.5177 H   0  0  0  0  0  0  0  0  0  0  0  0
   -4.2904    1.3942   -1.3184 H   0  0  0  0  0  0  0  0  0  0  0  0
   -3.5440    0.4750    0.7771 H   0  0  0  0  0  0  0  0  0  0  0  0
   -1.4491    0.2262    0.0082 C   0  0  0  0  0  0  0  0  0  0  0  0
   -2.7802   -1.4756   -1.1862 H   0  0  0  0  0  0  0  0  0  0  0  0
   -2.6103   -0.8819    0.5800 H   0  0  0  0  0  0  0  0  0  0  0  0
   -0.1515   -0.7197    0.0870 C   0  0  0  0  0  0  0  0  0  0  0  0
   -1.3718    0.8307    0.8702 H   0  0  0  0  0  0  0  0  0  0  0  0
   -1.6137    0.7877   -0.8046 H   0  0  0  0  0  0  0  0  0  0  0  0
   -0.1666   -1.3811    1.0236 H   0  0  0  0  0  0  0  0  0  0  0  0
    0.6794   -0.2102   -0.0381 H   0  0  0  0  0  0  0  0  0  0  0  0
   -0.2437   -1.3788   -0.7494 H   0  0  0  0  0  0  0  0  0  0  0  0
  1  3  1  0  0  0  0
  1  5  1  0  0  0  0
  2  6  1  0  0  0  0
  2  1  1  0  0  0  0
  2  8  1  0  0  0  0
  6  9  1  0  0  0  0
  6 10  1  0  0  0  0
  7  2  1  0  0  0  0
  9 12  1  0  0  0  0
 11  6  1  0  0  0  0
 13  9  1  0  0  0  0
 14  9  1  0  0  0  0
M  RAD  2   1   2   4   2
M  END
$$$$
