butane_opt
 OpenBabel08242015403D

 14  9  0  0  0  0  0  0  0  0999 V2000
   -3.9811    0.2431    0.1314 C   0  0  0  0  0  0  0  0  0  0  0  0
   -2.7766   -0.5697   -0.0919 C   0  0  0  0  0  0  0  0  0  0  0  0
   -4.8341   -0.2026   -0.2858 H   0  0  0  0  0  0  0  0  0  0  0  0
   -3.9688    0.3550   -0.4934 H   0  0  0  0  0  0  0  0  0  0  0  0
   -4.1623    1.1970    1.3102 H   0  0  0  0  0  0  0  0  0  0  0  0
   -1.3627    0.1847   -0.0524 C   0  0  0  0  0  0  0  0  0  0  0  0
   -2.9094   -1.2824   -1.0666 H   0  0  0  0  0  0  0  0  0  0  0  0
   -2.5562   -0.9725    0.5471 H   0  0  0  0  0  0  0  0  0  0  0  0
   -0.1176   -0.7558    0.1424 C   0  0  0  0  0  1  0  0  0  0  0  0
   -1.5005    0.5920    0.5188 H   0  0  0  0  0  0  0  0  0  0  0  0
   -1.1566    1.1266   -1.1009 H   0  0  0  0  0  0  0  0  0  0  0  0
    0.3324   -1.7935    1.2518 H   0  0  0  0  0  0  0  0  0  0  0  0
    0.8576    0.0253   -0.3165 H   0  0  0  0  0  0  0  0  0  0  0  0
   -0.2682   -0.7469   -0.3731 H   0  0  0  0  0  0  0  0  0  0  0  0
  2  1  1  0  0  0  0
  2  8  1  0  0  0  0
  3  1  1  0  0  0  0
  4  1  1  0  0  0  0
  6 10  1  0  0  0  0
  7  2  1  0  0  0  0
 11  6  1  0  0  0  0
 13  9  1  0  0  0  0
 14  6  1  0  0  0  0
M  RAD  5   1   2   2   2   5   2   6   2  12   2
M  END
$$$$
