butane_opt
 OpenBabel08242015403D

 14  9  0  0  0  0  0  0  0  0999 V2000
   -3.9547    0.2036    0.0654 C   0  0  0  0  0  0  0  0  0  0  0  0
   -2.7665   -0.5594   -0.0895 C   0  0  0  0  0  0  0  0  0  0  0  0
   -4.8979   -0.4253   -0.0872 H   0  0  0  0  0  0  0  0  0  0  0  0
   -4.1825    0.2874   -0.4730 H   0  0  0  0  0  0  0  0  0  0  0  0
   -3.7268    1.4098    1.3028 H   0  0  0  0  0  0  0  0  0  0  0  0
   -1.4203    0.2641   -0.0485 C   0  0  0  0  0  0  0  0  0  0  0  0
   -2.8347   -1.3587   -1.0784 H   0  0  0  0  0  0  0  0  0  0  0  0
   -2.6345   -1.2176    0.7989 H   0  0  0  0  0  0  0  0  0  0  0  0
   -0.1275   -0.7580    0.1395 C   0  0  0  0  0  0  0  0  0  0  0  0
   -1.3242    0.9770    0.8190 H   0  0  0  0  0  0  0  0  0  0  0  0
   -1.3236    1.0631   -0.8895 H   0  0  0  0  0  0  0  0  0  0  0  0
    0.2779   -1.9559    1.3306 H   0  0  0  0  0  0  0  0  0  0  0  0
    0.7162   -0.4035   -0.7228 H   0  0  0  0  0  0  0  0  0  0  0  0
    0.1590   -0.6649   -0.2733 H   0  0  0  0  0  0  0  0  0  0  0  0
  2  6  1  0  0  0  0
  2  1  1  0  0  0  0
  2  8  1  0  0  0  0
  3  1  1  0  0  0  0
  6  9  1  0  0  0  0
  6 10  1  0  0  0  0
  7  2  1  0  0  0  0
 11  6  1  0  0  0  0
 13  9  1  0  0  0  0
M  RAD  6   1   3   4   2   5   2   9   3  12   2  14   2
M  END
$$$$
