14
butane_opt
C  -3.955003   0.259013   0.109209
C  -2.718981  -0.626422  -0.103161
H  -4.895337  -0.441555  -0.105188
H  -3.918199   0.653817  -0.622790
H  -4.125059   1.117605   1.238497
C  -1.407038   0.208219  -0.049171
H  -2.841443  -1.434828  -1.125055
H  -2.693038  -1.095548   0.710643
C  -0.131951  -0.692924   0.085406
H  -1.514977   1.169924   0.989180
H  -1.314020   0.705837  -0.812239
H   0.375025  -2.209540   1.499178
H   0.565942  -0.232518  -0.635769
H  -0.104649  -0.478245  -0.088334
