butane_opt
 OpenBabel08242015403D

 14  9  0  0  0  0  0  0  0  0999 V2000
   -3.9559    0.2094   -0.1098 C   0  0  0  0  0  1  0  0  0  0  0  0
   -2.6815   -0.5408    0.2520 C   0  0  0  0  0  0  0  0  0  0  0  0
   -4.9530   -0.4799    0.1016 H   0  0  0  0  0  0  0  0  0  0  0  0
   -3.6869    1.2302   -1.2833 H   0  0  0  0  0  0  0  0  0  0  0  0
   -3.7969    0.3799    0.3511 H   0  0  0  0  0  0  0  0  0  0  0  0
   -1.4035    0.2447    0.0789 C   0  0  0  0  0  0  0  0  0  0  0  0
   -2.6695   -1.1121   -0.4429 H   0  0  0  0  0  0  0  0  0  0  0  0
   -2.7301   -1.3005    1.1810 H   0  0  0  0  0  0  0  0  0  0  0  0
   -0.1792   -0.7397   -0.0840 C   0  0  0  0  0  1  0  0  0  0  0  0
   -1.4620    0.9199    0.9752 H   0  0  0  0  0  0  0  0  0  0  0  0
   -1.7284    0.8973   -0.6837 H   0  0  0  0  0  0  0  0  0  0  0  0
   -0.1658   -0.5233    0.2576 H   0  0  0  0  0  0  0  0  0  0  0  0
    0.8194   -0.1682    0.6878 H   0  0  0  0  0  0  0  0  0  0  0  0
   -0.0186   -2.4138   -1.4925 H   0  0  0  0  0  0  0  0  0  0  0  0
  1  3  1  0  0  0  0
  2  5  1  0  0  0  0
  2  8  1  0  0  0  0
  6  2  1  0  0  0  0
  6 12  1  0  0  0  0
  6 10  1  0  0  0  0
  7  2  1  0  0  0  0
  9 13  1  0  0  0  0
 11  6  1  0  0  0  0
M  RAD  2   4   2  14   2
M  END
$$$$
