14
butane_opt
C  -3.914310   0.178590   0.228621
C  -2.707968  -0.498354  -0.098701
H  -4.942051  -0.492683   0.075803
H  -4.087015   0.679290  -0.503925
H  -3.682293   0.840224   1.213135
C  -1.472900   0.279446  -0.242668
H  -2.974667  -1.419668  -1.210291
H  -2.489856  -0.936183   0.585515
C  -0.084571  -0.786567   0.190155
H  -1.541378   0.453515   0.167361
H  -1.422225   1.188992  -1.261194
H  -0.812726  -1.074754   1.077778
H   0.826549  -0.313937   0.995037
H   0.348168  -1.524681  -0.648579
