butane_opt
 OpenBabel08242015403D

 14  8  0  0  0  0  0  0  0  0999 V2000
   -3.8602    0.1848    0.1016 C   0  0  0  0  0  1  0  0  0  0  0  0
   -2.7655   -0.5588   -0.0731 C   0  0  0  0  0  0  0  0  0  0  0  0
   -4.6562   -0.2560   -0.4398 H   0  0  0  0  0  0  0  0  0  0  0  0
   -3.5906    0.2389   -0.4459 H   0  0  0  0  0  0  0  0  0  0  0  0
   -4.0028    1.6576    1.4384 H   0  0  0  0  0  0  0  0  0  0  0  0
   -1.4574    0.2634   -0.0975 C   0  0  0  0  0  0  0  0  0  0  0  0
   -2.8648   -1.1116   -0.9649 H   0  0  0  0  0  0  0  0  0  0  0  0
   -2.6641   -1.4016    1.0441 H   0  0  0  0  0  0  0  0  0  0  0  0
   -0.1698   -0.7348    0.1543 C   0  0  0  0  0  0  0  0  0  0  0  0
   -1.4993    0.6954    0.6410 H   0  0  0  0  0  0  0  0  0  0  0  0
   -1.4108    0.9826   -1.0129 H   0  0  0  0  0  0  0  0  0  0  0  0
    0.1725   -1.8209    1.2689 H   0  0  0  0  0  0  0  0  0  0  0  0
    0.7684   -0.2067   -0.3211 H   0  0  0  0  0  0  0  0  0  0  0  0
   -0.2492   -1.0987   -0.6723 H   0  0  0  0  0  0  0  0  0  0  0  0
  3  1  1  0  0  0  0
  4  2  1  0  0  0  0
  6  9  1  0  0  0  0
  6 10  1  0  0  0  0
  7  2  1  0  0  0  0
 11  6  1  0  0  0  0
 13  9  1  0  0  0  0
 14  9  1  0  0  0  0
M  RAD  6   2   3   5   2   6   2   8   2   9   2  12   2
M  END
$$$$
