butane_opt
 OpenBabel08242015403D

 14 13  0  0  0  0  0  0  0  0999 V2000
   -3.8516    0.1939   -0.1294 C   0  0  0  0  0  0  0  0  0  0  0  0
   -2.7273   -0.5344    0.3253 C   0  0  0  0  0  0  0  0  0  0  0  0
   -4.6770   -0.4539   -0.9686 H   0  0  0  0  0  0  0  0  0  0  0  0
   -3.4132    0.4329   -0.9287 H   0  0  0  0  0  0  0  0  0  0  0  0
   -4.3373    1.0872    0.8695 H   0  0  0  0  0  0  0  0  0  0  0  0
   -1.4351    0.2776    0.1430 C   0  0  0  0  0  0  0  0  0  0  0  0
   -2.6879   -1.0272   -0.5095 H   0  0  0  0  0  0  0  0  0  0  0  0
   -3.0317   -1.0635    1.2107 H   0  0  0  0  0  0  0  0  0  0  0  0
   -0.2017   -0.7952   -0.1714 C   0  0  0  0  0  0  0  0  0  0  0  0
   -1.2716    0.8320    0.9449 H   0  0  0  0  0  0  0  0  0  0  0  0
   -1.6345    0.9415   -0.7572 H   0  0  0  0  0  0  0  0  0  0  0  0
   -0.0738   -1.2900    0.5727 H   0  0  0  0  0  0  0  0  0  0  0  0
    0.6999   -0.1210   -0.0983 H   0  0  0  0  0  0  0  0  0  0  0  0
    0.0191   -1.5331   -0.8879 H   0  0  0  0  0  0  0  0  0  0  0  0
  1  2  1  0  0  0  0
  1  5  1  0  0  0  0
  2  8  1  0  0  0  0
  3  1  1  0  0  0  0
  4  1  1  0  0  0  0
  6  2  1  0  0  0  0
  6 10  1  0  0  0  0
  7  2  1  0  0  0  0
  9 13  1  0  0  0  0
  9  6  1  0  0  0  0
  9 12  1  0  0  0  0
 11  6  1  0  0  0  0
 14  9  1  0  0  0  0
M  END
$$$$
