butane_opt
 OpenBabel08242015403D

 14 10  0  0  0  0  0  0  0  0999 V2000
   -3.9679    0.2858   -0.0799 C   0  0  0  0  0  0  0  0  0  0  0  0
   -2.6486   -0.6517    0.1387 C   0  0  0  0  0  0  0  0  0  0  0  0
   -4.9091   -0.1977    0.3966 H   0  0  0  0  0  0  0  0  0  0  0  0
   -4.1713    1.1843   -1.2045 H   0  0  0  0  0  0  0  0  0  0  0  0
   -3.9973    0.9942    0.8777 H   0  0  0  0  0  0  0  0  0  0  0  0
   -1.3887    0.1019    0.0209 C   0  0  0  0  0  0  0  0  0  0  0  0
   -2.5188   -1.2853   -0.5929 H   0  0  0  0  0  0  0  0  0  0  0  0
   -2.6037   -1.5181    1.1570 H   0  0  0  0  0  0  0  0  0  0  0  0
   -0.1540   -0.6540   -0.0373 C   0  0  0  0  0  0  0  0  0  0  0  0
   -1.4734    0.9299    1.0429 H   0  0  0  0  0  0  0  0  0  0  0  0
   -1.3448    0.7360   -0.8175 H   0  0  0  0  0  0  0  0  0  0  0  0
   -0.6055   -0.7313    0.6440 H   0  0  0  0  0  0  0  0  0  0  0  0
    0.8552    0.1603    0.5646 H   0  0  0  0  0  0  0  0  0  0  0  0
   -0.3152   -1.7274   -1.1994 H   0  0  0  0  0  0  0  0  0  0  0  0
  1  2  1  0  0  0  0
  1  3  1  0  0  0  0
  1  5  1  0  0  0  0
  2  8  1  0  0  0  0
  4  1  1  0  0  0  0
  6 10  1  0  0  0  0
  7  2  1  0  0  0  0
  9 13  1  0  0  0  0
  9 12  1  0  0  0  0
 11  6  1  0  0  0  0
M  RAD  4   2   2   6   3   9   3  14   2
M  END
$$$$
