14
butane_opt
C  -3.933547   0.257151   0.036518
C  -2.708317  -0.602532   0.014457
H  -4.884951  -0.410399   0.117424
H  -3.974671   0.946541  -0.904997
H  -3.851668   0.851689   0.852957
C  -1.414727   0.193728   0.006617
H  -2.696334  -1.276408  -0.862773
H  -2.676555  -1.192753   0.875863
C  -0.158031  -0.702522   0.046569
H  -1.453325   0.870095   0.848548
H  -1.343937   0.840482  -0.903113
H  -0.138107  -1.331143   0.958825
H   0.740710  -0.128764   0.014208
H  -0.160632  -1.400371  -0.820622
