14
butane_opt
C  -3.860153   0.184802   0.101636
C  -2.765547  -0.558837  -0.073123
H  -4.656156  -0.255997  -0.439795
H  -3.590595   0.238878  -0.445948
H  -4.002768   1.657594   1.438394
C  -1.457430   0.263411  -0.097498
H  -2.864836  -1.111635  -0.964928
H  -2.664124  -1.401620   1.044065
C  -0.169765  -0.734808   0.154326
H  -1.499310   0.695366   0.641019
H  -1.410828   0.982625  -1.012898
H   0.172533  -1.820854   1.268946
H   0.768419  -0.206743  -0.321057
H  -0.249157  -1.098655  -0.672283
