14
butane_opt
C  -3.855616   0.306168  -0.043069
C  -2.718185  -0.686022   0.206968
H  -4.825631  -0.138286  -0.084592
H  -3.718868   1.289809  -1.263833
H  -4.159461   0.789232   0.644733
C  -1.404116   0.144468   0.059592
H  -2.772215  -1.283963  -0.532653
H  -2.494237  -1.394609   0.985537
C  -0.190702  -0.654561  -0.081755
H  -1.470334   0.675194   0.812022
H  -1.456482   0.785889  -0.857349
H  -0.617667  -0.583228   0.471877
H   0.729542  -0.031599   0.754581
H  -0.217478  -1.900111  -1.293360
