butane_opt
 OpenBabel08242015403D

 14 13  0  0  0  0  0  0  0  0999 V2000
   -3.9362    0.2775   -0.0025 C   0  0  0  0  0  0  0  0  0  0  0  0
   -2.6934   -0.6378    0.0739 C   0  0  0  0  0  0  0  0  0  0  0  0
   -4.8333   -0.3102    0.0096 H   0  0  0  0  0  0  0  0  0  0  0  0
   -3.9519    0.9538   -0.9507 H   0  0  0  0  0  0  0  0  0  0  0  0
   -4.0535    0.8874    0.8044 H   0  0  0  0  0  0  0  0  0  0  0  0
   -1.4035    0.1764    0.0288 C   0  0  0  0  0  0  0  0  0  0  0  0
   -2.7357   -1.2786   -0.7330 H   0  0  0  0  0  0  0  0  0  0  0  0
   -2.6878   -1.2787    0.9762 H   0  0  0  0  0  0  0  0  0  0  0  0
   -0.1691   -0.6812    0.0030 C   0  0  0  0  0  0  0  0  0  0  0  0
   -1.3871    0.8602    0.8815 H   0  0  0  0  0  0  0  0  0  0  0  0
   -1.4327    0.8034   -0.8527 H   0  0  0  0  0  0  0  0  0  0  0  0
   -0.1501   -1.1936    0.8550 H   0  0  0  0  0  0  0  0  0  0  0  0
    0.7620   -0.0590    0.1395 H   0  0  0  0  0  0  0  0  0  0  0  0
   -0.1369   -1.4742   -0.9457 H   0  0  0  0  0  0  0  0  0  0  0  0
  1  3  1  0  0  0  0
  1  2  1  0  0  0  0
  1  5  1  0  0  0  0
  2  8  1  0  0  0  0
  4  1  1  0  0  0  0
  6  2  1  0  0  0  0
  6 10  1  0  0  0  0
  7  2  1  0  0  0  0
  9  6  1  0  0  0  0
  9 13  1  0  0  0  0
  9 12  1  0  0  0  0
 11  6  1  0  0  0  0
 14  9  1  0  0  0  0
M  END
$$$$
