butane_opt
 OpenBabel08242015403D

 14  9  0  0  0  0  0  0  0  0999 V2000
   -3.9728    0.2306   -0.1238 C   0  0  0  0  0  1  0  0  0  0  0  0
   -2.7457   -0.5930    0.1461 C   0  0  0  0  0  0  0  0  0  0  0  0
   -4.8755   -0.3772    0.4658 H   0  0  0  0  0  0  0  0  0  0  0  0
   -3.9077    1.4373   -1.4044 H   0  0  0  0  0  0  0  0  0  0  0  0
   -3.7622    0.4246    0.4397 H   0  0  0  0  0  0  0  0  0  0  0  0
   -1.3852    0.1967    0.2279 C   0  0  0  0  0  0  0  0  0  0  0  0
   -2.5562   -1.2600   -0.7759 H   0  0  0  0  0  0  0  0  0  0  0  0
   -3.0451   -1.0860    0.9864 H   0  0  0  0  0  0  0  0  0  0  0  0
   -0.1307   -0.7021   -0.0738 C   0  0  0  0  0  0  0  0  0  0  0  0
   -1.4261    1.1100    1.1765 H   0  0  0  0  0  0  0  0  0  0  0  0
   -1.4107    0.7848   -0.7689 H   0  0  0  0  0  0  0  0  0  0  0  0
    0.5267   -1.3044    0.7688 H   0  0  0  0  0  0  0  0  0  0  0  0
    0.5919   -0.2256   -0.2617 H   0  0  0  0  0  0  0  0  0  0  0  0
   -0.3776   -1.5812   -1.3290 H   0  0  0  0  0  0  0  0  0  0  0  0
  1  3  1  0  0  0  0
  2  5  1  0  0  0  0
  2  8  1  0  0  0  0
  6 10  1  0  0  0  0
  7  2  1  0  0  0  0
  9  6  1  0  0  0  0
  9 12  1  0  0  0  0
 11  6  1  0  0  0  0
 13  9  1  0  0  0  0
M  RAD  5   2   2   4   2   6   2   9   2  14   2
M  END
$$$$
