butane_opt
 OpenBabel08242015403D

 14 11  0  0  0  0  0  0  0  0999 V2000
   -3.8786    0.1891    0.1030 C   0  0  0  0  0  0  0  0  0  0  0  0
   -2.6924   -0.5615   -0.0646 C   0  0  0  0  0  0  0  0  0  0  0  0
   -4.6673   -0.3360    0.1450 H   0  0  0  0  0  0  0  0  0  0  0  0
   -3.8959    0.6345   -0.6764 H   0  0  0  0  0  0  0  0  0  0  0  0
   -3.9294    1.0428    0.9614 H   0  0  0  0  0  0  0  0  0  0  0  0
   -1.4297    0.2270   -0.0373 C   0  0  0  0  0  0  0  0  0  0  0  0
   -2.6855   -1.2889   -1.1340 H   0  0  0  0  0  0  0  0  0  0  0  0
   -2.8914   -1.0039    0.7519 H   0  0  0  0  0  0  0  0  0  0  0  0
   -0.1747   -0.7183    0.0777 C   0  0  0  0  0  0  0  0  0  0  0  0
   -1.5204    1.0709    0.9004 H   0  0  0  0  0  0  0  0  0  0  0  0
   -1.5721    0.9137   -0.9823 H   0  0  0  0  0  0  0  0  0  0  0  0
   -0.2634   -1.8567    1.3101 H   0  0  0  0  0  0  0  0  0  0  0  0
    0.6200   -0.4012   -0.2814 H   0  0  0  0  0  0  0  0  0  0  0  0
   -0.0761   -0.9098   -0.4004 H   0  0  0  0  0  0  0  0  0  0  0  0
  1  3  1  0  0  0  0
  1  5  1  0  0  0  0
  2  6  1  0  0  0  0
  2  1  1  0  0  0  0
  2  8  1  0  0  0  0
  4  1  1  0  0  0  0
  6  9  1  0  0  0  0
  6 10  1  0  0  0  0
  7  2  1  0  0  0  0
 11  6  1  0  0  0  0
 13  9  1  0  0  0  0
M  RAD  3   9   3  12   2  14   2
M  END
$$$$
