butane_opt
 OpenBabel08242015403D

 14  8  0  0  0  0  0  0  0  0999 V2000
   -3.9070    0.2647    0.1572 C   0  0  0  0  0  1  0  0  0  0  0  0
   -2.7449   -0.5650   -0.0628 C   0  0  0  0  0  0  0  0  0  0  0  0
   -4.7410   -0.4671   -0.7132 H   0  0  0  0  0  0  0  0  0  0  0  0
   -3.7704    0.0822   -0.2435 H   0  0  0  0  0  0  0  0  0  0  0  0
   -3.8626    1.5075    1.3714 H   0  0  0  0  0  0  0  0  0  0  0  0
   -1.4435    0.2290   -0.1631 C   0  0  0  0  0  0  0  0  0  0  0  0
   -2.9292   -1.1921   -1.0204 H   0  0  0  0  0  0  0  0  0  0  0  0
   -2.6957   -1.3494    0.8248 H   0  0  0  0  0  0  0  0  0  0  0  0
   -0.1412   -0.7565    0.1572 C   0  0  0  0  0  0  0  0  0  0  0  0
   -1.7097    0.7899    0.5342 H   0  0  0  0  0  0  0  0  0  0  0  0
   -1.0734    0.7687   -0.9789 H   0  0  0  0  0  0  0  0  0  0  0  0
   -0.0574   -1.7252    1.3281 H   0  0  0  0  0  0  0  0  0  0  0  0
    0.8473   -0.1071   -0.3637 H   0  0  0  0  0  0  0  0  0  0  0  0
   -0.1958   -0.8253   -0.2898 H   0  0  0  0  0  0  0  0  0  0  0  0
  2  8  1  0  0  0  0
  3  1  1  0  0  0  0
  4  2  1  0  0  0  0
  6  9  1  0  0  0  0
  6 10  1  0  0  0  0
  7  2  1  0  0  0  0
 11  6  1  0  0  0  0
 13  9  1  0  0  0  0
M  RAD  6   2   2   5   2   6   2   9   3  12   2  14   2
M  END
$$$$
