14
butane_opt
C  -3.945204   0.257610  -0.000657
C  -2.698922  -0.606632   0.058098
H  -4.872749  -0.354890   0.082889
H  -3.902857   0.981116  -0.978314
H  -3.937871   0.794406   0.788187
C  -1.417602   0.196017   0.039398
H  -2.720531  -1.290611  -0.794741
H  -2.694900  -1.253089   0.968455
C  -0.156940  -0.701814   0.012014
H  -1.371196   0.887487   0.899359
H  -1.415641   0.840801  -0.821815
H  -0.116164  -1.250286   0.873529
H   0.755910  -0.098449   0.031421
H  -0.125642  -1.474341  -0.940049
