butane_opt
 OpenBabel08242015403D

 14 10  0  0  0  0  0  0  0  0999 V2000
   -3.9767    0.2656    0.1070 C   0  0  0  0  0  0  0  0  0  0  0  0
   -2.7357   -0.6221   -0.0920 C   0  0  0  0  0  0  0  0  0  0  0  0
   -4.9733   -0.5040   -0.4869 H   0  0  0  0  0  0  0  0  0  0  0  0
   -4.0599    0.1695   -0.2262 H   0  0  0  0  0  0  0  0  0  0  0  0
   -3.9438    1.5435    1.3517 H   0  0  0  0  0  0  0  0  0  0  0  0
   -1.4440    0.2318   -0.0617 C   0  0  0  0  0  0  0  0  0  0  0  0
   -2.7702   -1.1225   -0.8745 H   0  0  0  0  0  0  0  0  0  0  0  0
   -2.5990   -1.1976    0.8367 H   0  0  0  0  0  0  0  0  0  0  0  0
   -0.0738   -0.6956    0.1210 C   0  0  0  0  0  0  0  0  0  0  0  0
   -1.3496    0.5872    0.5030 H   0  0  0  0  0  0  0  0  0  0  0  0
   -1.3023    0.9843   -1.1578 H   0  0  0  0  0  0  0  0  0  0  0  0
   -0.0221   -1.9330    1.4312 H   0  0  0  0  0  0  0  0  0  0  0  0
    0.8691   -0.1116   -0.2849 H   0  0  0  0  0  0  0  0  0  0  0  0
   -0.1022   -1.0706   -0.4407 H   0  0  0  0  0  0  0  0  0  0  0  0
  2  6  1  0  0  0  0
  2  1  1  0  0  0  0
  2  8  1  0  0  0  0
  3  1  1  0  0  0  0
  6  9  1  0  0  0  0
  6 10  1  0  0  0  0
  7  2  1  0  0  0  0
 11  6  1  0  0  0  0
 13  9  1  0  0  0  0
 14  9  1  0  0  0  0
M  RAD  5   1   3   4   2   5   2   9   2  12   2
M  END
$$$$
