butane_opt
 OpenBabel08242015403D

 14 11  0  0  0  0  0  0  0  0999 V2000
   -3.9620    0.1962   -0.1926 C   0  0  0  0  0  0  0  0  0  0  0  0
   -2.7040   -0.5878    0.3010 C   0  0  0  0  0  0  0  0  0  0  0  0
   -4.9184   -0.3498   -0.7308 H   0  0  0  0  0  0  0  0  0  0  0  0
   -3.6274    0.8001   -0.9548 H   0  0  0  0  0  0  0  0  0  0  0  0
   -4.4256    1.2599    0.8972 H   0  0  0  0  0  0  0  0  0  0  0  0
   -1.4057    0.2355    0.1630 C   0  0  0  0  0  0  0  0  0  0  0  0
   -2.4762   -0.8844   -0.3414 H   0  0  0  0  0  0  0  0  0  0  0  0
   -2.9077   -1.5949    1.4763 H   0  0  0  0  0  0  0  0  0  0  0  0
   -0.1405   -0.7074   -0.1902 C   0  0  0  0  0  0  0  0  0  0  0  0
   -0.7944    1.0517    1.2422 H   0  0  0  0  0  0  0  0  0  0  0  0
   -1.6160    0.7204   -0.6046 H   0  0  0  0  0  0  0  0  0  0  0  0
    0.0517   -1.2751    0.6859 H   0  0  0  0  0  0  0  0  0  0  0  0
    0.5583   -0.3951    0.0882 H   0  0  0  0  0  0  0  0  0  0  0  0
   -0.2498   -1.5155   -1.2412 H   0  0  0  0  0  0  0  0  0  0  0  0
  1  2  1  0  0  0  0
  3  1  1  0  0  0  0
  4  1  1  0  0  0  0
  6  2  1  0  0  0  0
  6 10  1  0  0  0  0
  7  2  1  0  0  0  0
  9 13  1  0  0  0  0
  9  6  1  0  0  0  0
  9 12  1  0  0  0  0
 11  6  1  0  0  0  0
 14  9  1  0  0  0  0
M  RAD  4   1   2   2   2   5   2   8   2
M  END
$$$$
