butane_opt
 OpenBabel08242015403D

 14 11  0  0  0  0  0  0  0  0999 V2000
   -4.0168    0.2888    0.0519 C   0  0  0  0  0  1  0  0  0  0  0  0
   -2.7180   -0.6260    0.0657 C   0  0  0  0  0  0  0  0  0  0  0  0
   -4.6958   -0.1799   -0.6361 H   0  0  0  0  0  0  0  0  0  0  0  0
   -3.7595    0.3439   -0.4305 H   0  0  0  0  0  0  0  0  0  0  0  0
   -4.0844    1.5126    1.3803 H   0  0  0  0  0  0  0  0  0  0  0  0
   -1.4300    0.1644   -0.0809 C   0  0  0  0  0  0  0  0  0  0  0  0
   -2.8423   -1.7150   -0.9380 H   0  0  0  0  0  0  0  0  0  0  0  0
   -2.6606   -1.1910    0.9644 H   0  0  0  0  0  0  0  0  0  0  0  0
   -0.0731   -0.6796    0.0705 C   0  0  0  0  0  0  0  0  0  0  0  0
   -1.3286    0.4417    0.5318 H   0  0  0  0  0  0  0  0  0  0  0  0
   -1.4271    1.0274   -1.2158 H   0  0  0  0  0  0  0  0  0  0  0  0
   -0.1698   -1.4284    1.0752 H   0  0  0  0  0  0  0  0  0  0  0  0
    0.9153    0.0629    0.1298 H   0  0  0  0  0  0  0  0  0  0  0  0
   -0.1668   -1.0548   -0.6221 H   0  0  0  0  0  0  0  0  0  0  0  0
  2  8  1  0  0  0  0
  3  1  1  0  0  0  0
  4  2  1  0  0  0  0
  6  2  1  0  0  0  0
  6  9  1  0  0  0  0
  6 10  1  0  0  0  0
  7  2  1  0  0  0  0
  9 13  1  0  0  0  0
  9 12  1  0  0  0  0
 11  6  1  0  0  0  0
 14  9  1  0  0  0  0
M  RAD  1   5   2
M  END
$$$$
