14
butane_opt
C  -4.047392   0.330163  -0.131460
C  -2.675221  -0.664275   0.184865
H  -4.857986  -0.335414  -0.263671
H  -3.950417   1.023535  -1.110225
H  -4.457603   1.063144   0.697440
C  -1.354873   0.095166   0.171997
H  -2.609227  -1.383955  -0.709984
H  -2.652318  -1.488131   1.197051
C  -0.130543  -0.596219  -0.113836
H  -1.356761   1.086995   1.423862
H  -1.335462   0.245147  -0.395335
H   0.091266  -1.718057   1.001055
H   0.885428   0.098460  -0.863528
H  -0.323697  -0.969872  -0.881475
