14
butane_opt
C  -3.967869   0.285795  -0.079950
C  -2.648583  -0.651700   0.138731
H  -4.909102  -0.197695   0.396601
H  -4.171266   1.184271  -1.204493
H  -3.997288   0.994156   0.877691
C  -1.388749   0.101937   0.020873
H  -2.518761  -1.285345  -0.592936
H  -2.603713  -1.518111   1.156990
C  -0.153988  -0.654015  -0.037282
H  -1.473434   0.929936   1.042896
H  -1.344846   0.736003  -0.817465
H  -0.605518  -0.731295   0.644004
H   0.855240   0.160315   0.564581
H  -0.315164  -1.727433  -1.199422
