14
butane_opt
C  -3.821631   0.199374  -0.153334
C  -2.726510  -0.553373   0.224510
H  -4.841330  -0.597102  -0.703438
H  -3.665510   0.506191  -0.831035
H  -3.922289   1.441287   1.078556
C  -1.442168   0.234441   0.125389
H  -2.745260  -0.948774  -0.472784
H  -2.906299  -1.397167   1.459258
C  -0.221283  -0.742618  -0.089053
H  -1.399374   1.066171   1.070164
H  -1.735697   0.896372  -0.784636
H   0.110180  -1.424541   0.699349
H   0.725436  -0.263966  -0.333991
H  -0.089056  -1.436635  -1.013771
