butane_opt
 OpenBabel08242015403D

 14 10  0  0  0  0  0  0  0  0999 V2000
   -3.9225    0.2214   -0.0526 C   0  0  0  0  0  1  0  0  0  0  0  0
   -2.7553   -0.5618    0.0700 C   0  0  0  0  0  0  0  0  0  0  0  0
   -4.8122   -0.3987    0.6560 H   0  0  0  0  0  0  0  0  0  0  0  0
   -3.9435    1.3651   -1.3677 H   0  0  0  0  0  0  0  0  0  0  0  0
   -3.4702    0.3939    0.3348 H   0  0  0  0  0  0  0  0  0  0  0  0
   -1.4185    0.2640    0.1435 C   0  0  0  0  0  0  0  0  0  0  0  0
   -2.6240   -1.4459   -0.9320 H   0  0  0  0  0  0  0  0  0  0  0  0
   -2.7000   -1.0578    0.8632 H   0  0  0  0  0  0  0  0  0  0  0  0
   -0.1759   -0.7315   -0.0232 C   0  0  0  0  0  0  0  0  0  0  0  0
   -1.1290    0.8873    0.9636 H   0  0  0  0  0  0  0  0  0  0  0  0
   -1.5834    0.6720   -0.4179 H   0  0  0  0  0  0  0  0  0  0  0  0
   -0.0201   -1.3328    0.7655 H   0  0  0  0  0  0  0  0  0  0  0  0
    0.6439   -0.3298   -0.2313 H   0  0  0  0  0  0  0  0  0  0  0  0
   -0.1101   -1.5071   -0.8984 H   0  0  0  0  0  0  0  0  0  0  0  0
  1  3  1  0  0  0  0
  2  5  1  0  0  0  0
  2  8  1  0  0  0  0
  6 10  1  0  0  0  0
  7  2  1  0  0  0  0
  9  6  1  0  0  0  0
  9 12  1  0  0  0  0
 11  6  1  0  0  0  0
 13  9  1  0  0  0  0
 14  9  1  0  0  0  0
M  RAD  3   2   2   4   2   6   2
M  END
$$$$
