14
butane_opt
C  -3.980697   0.337593   0.194678
C  -2.693945  -0.705446  -0.071007
H  -4.825536  -0.145628   0.220630
H  -4.228239   0.818855  -0.654651
H  -4.033029   1.068994   1.162555
C  -1.404576   0.100745  -0.213514
H  -2.728200  -1.538391  -1.026771
H  -2.409444  -1.069523   0.633012
C  -0.164257  -0.604095   0.156677
H  -1.529317   0.534829   0.350982
H  -1.155317   0.894477  -1.286185
H  -0.819812  -1.062923   1.101442
H   1.022018   0.156281   0.781617
H   0.547391  -1.637852  -0.682135
