14
butane_opt
C  -3.950621   0.207448  -0.111081
C  -2.746768  -0.634990   0.176618
H  -4.810159  -0.317520  -0.325698
H  -3.860257   1.030686  -1.276911
H  -3.844969   0.948079   0.724281
C  -1.422660   0.274011   0.178157
H  -2.737921  -1.017845  -0.527184
H  -2.900454  -1.379269   1.056543
C  -0.082855  -0.717207  -0.068465
H  -1.480318   1.011305   1.012617
H  -1.721547   0.833772  -0.517773
H   0.431959  -1.282968   0.560810
H   0.715289  -0.285632  -0.451552
H  -0.384118  -1.550607  -0.950291
