14
butane_opt
C  -3.989493   0.257262  -0.102378
C  -2.717222  -0.602371   0.116107
H  -4.935501  -0.363074  -0.043517
H  -3.827422   1.174248  -1.229276
H  -4.120817   0.755340   0.378566
C  -1.375960   0.180200   0.209902
H  -2.792491  -1.095598  -0.578246
H  -2.882478  -1.374600   1.200769
C  -0.087799  -0.684433  -0.128480
H  -1.024889   1.134175   1.370714
H  -1.640290   0.354037  -0.382486
H   0.285831  -1.537895   0.895185
H   0.532174  -0.330154  -0.447250
H  -0.546528  -1.011406  -0.838386
