butane_opt
 OpenBabel08242015403D

 14 12  0  0  0  0  0  0  0  0999 V2000
   -3.8923    0.1935    0.1858 C   0  0  0  0  0  0  0  0  0  0  0  0
   -2.7354   -0.5549   -0.0862 C   0  0  0  0  0  0  0  0  0  0  0  0
   -4.8885   -0.3952    0.1341 H   0  0  0  0  0  0  0  0  0  0  0  0
   -3.8533    0.5521   -0.5268 H   0  0  0  0  0  0  0  0  0  0  0  0
   -3.4219    1.2643    1.2714 H   0  0  0  0  0  0  0  0  0  0  0  0
   -1.4591    0.2512   -0.2451 C   0  0  0  0  0  0  0  0  0  0  0  0
   -2.7110   -1.2429   -1.0658 H   0  0  0  0  0  0  0  0  0  0  0  0
   -2.8260   -1.1399    0.6934 H   0  0  0  0  0  0  0  0  0  0  0  0
   -0.1894   -0.7391    0.2163 C   0  0  0  0  0  0  0  0  0  0  0  0
   -1.4045    0.9232    0.4848 H   0  0  0  0  0  0  0  0  0  0  0  0
   -1.1964    1.0834   -1.2601 H   0  0  0  0  0  0  0  0  0  0  0  0
   -0.4355   -1.4073    1.2009 H   0  0  0  0  0  0  0  0  0  0  0  0
    0.6011   -0.2861    0.4353 H   0  0  0  0  0  0  0  0  0  0  0  0
    0.4229   -1.6907   -0.7467 H   0  0  0  0  0  0  0  0  0  0  0  0
  2  1  1  0  0  0  0
  2  8  1  0  0  0  0
  3  1  1  0  0  0  0
  4  1  1  0  0  0  0
  6  2  1  0  0  0  0
  6  9  1  0  0  0  0
  6 10  1  0  0  0  0
  7  2  1  0  0  0  0
  9 13  1  0  0  0  0
  9 12  1  0  0  0  0
 11  6  1  0  0  0  0
 14  9  1  0  0  0  0
M  RAD  2   1   2   5   2
M  END
$$$$
