butane_opt
 OpenBabel08242015403D

 14  8  0  0  0  0  0  0  0  0999 V2000
   -3.8982    0.2100    0.0988 C   0  0  0  0  0  1  0  0  0  0  0  0
   -2.7588   -0.5829    0.0541 C   0  0  0  0  0  0  0  0  0  0  0  0
   -4.9151   -0.4201   -0.6619 H   0  0  0  0  0  0  0  0  0  0  0  0
   -3.5273    0.0670   -0.2798 H   0  0  0  0  0  0  0  0  0  0  0  0
   -4.3769    1.6234    1.3927 H   0  0  0  0  0  0  0  0  0  0  0  0
   -1.4902    0.3075   -0.1451 C   0  0  0  0  0  0  0  0  0  0  0  0
   -2.8150   -1.4880   -1.0037 H   0  0  0  0  0  0  0  0  0  0  0  0
   -2.9694   -1.0635    0.8553 H   0  0  0  0  0  0  0  0  0  0  0  0
   -0.0677   -0.7591    0.1293 C   0  0  0  0  0  0  0  0  0  0  0  0
   -1.3559    0.8499    0.5643 H   0  0  0  0  0  0  0  0  0  0  0  0
   -1.4286    1.0429   -1.3468 H   0  0  0  0  0  0  0  0  0  0  0  0
   -0.0181   -1.8415    1.1964 H   0  0  0  0  0  0  0  0  0  0  0  0
    0.8450   -0.1194   -0.1627 H   0  0  0  0  0  0  0  0  0  0  0  0
    0.1170   -1.2518   -0.6030 H   0  0  0  0  0  0  0  0  0  0  0  0
  2  8  1  0  0  0  0
  3  1  1  0  0  0  0
  4  2  1  0  0  0  0
  6  9  1  0  0  0  0
  6 10  1  0  0  0  0
 11  6  1  0  0  0  0
 13  9  1  0  0  0  0
 14  9  1  0  0  0  0
M  RAD  6   2   3   5   2   6   2   7   2   9   2  12   2
M  END
$$$$
