14
butane_opt
C  -3.959529   0.208612   0.207745
C  -2.760113  -0.502577  -0.174220
H  -5.090133  -0.554673   0.599457
H  -4.072601   1.164407  -0.985423
H  -3.745083   0.563980   0.944667
C  -1.419670   0.255677  -0.125375
H  -2.964732  -1.681010  -1.413818
H  -2.756577  -0.916366   0.548597
C  -0.099843  -0.741900   0.181960
H  -1.395372   0.731467   0.797121
H  -1.231712   0.865788  -1.031885
H   0.179311  -1.699896   1.292851
H   0.770525  -0.330867   0.089583
H   0.163816  -1.220804  -0.465628
