butane_opt
 OpenBabel08242015403D

 14 12  0  0  0  0  0  0  0  0999 V2000
   -3.8954    0.3427   -0.1104 C   0  0  0  0  0  0  0  0  0  0  0  0
   -2.6785   -0.6809    0.3218 C   0  0  0  0  0  0  0  0  0  0  0  0
   -4.9559   -0.3947   -0.9979 H   0  0  0  0  0  0  0  0  0  0  0  0
   -3.5533    0.7699   -1.0027 H   0  0  0  0  0  0  0  0  0  0  0  0
   -4.5030    1.2741    0.7462 H   0  0  0  0  0  0  0  0  0  0  0  0
   -1.4133    0.1533    0.1046 C   0  0  0  0  0  0  0  0  0  0  0  0
   -2.4475   -1.4900   -0.6379 H   0  0  0  0  0  0  0  0  0  0  0  0
   -2.7288   -1.4894    1.3287 H   0  0  0  0  0  0  0  0  0  0  0  0
   -0.2207   -0.6578   -0.1075 C   0  0  0  0  0  0  0  0  0  0  0  0
   -1.0823    0.7284    1.0322 H   0  0  0  0  0  0  0  0  0  0  0  0
   -1.3797    0.7105   -0.7384 H   0  0  0  0  0  0  0  0  0  0  0  0
   -0.0422   -1.0829    0.6074 H   0  0  0  0  0  0  0  0  0  0  0  0
    0.7052    0.1384   -0.2225 H   0  0  0  0  0  0  0  0  0  0  0  0
   -0.5314   -1.5279   -1.1779 H   0  0  0  0  0  0  0  0  0  0  0  0
  1  2  1  0  0  0  0
  1  5  1  0  0  0  0
  2  8  1  0  0  0  0
  4  1  1  0  0  0  0
  6  2  1  0  0  0  0
  6 10  1  0  0  0  0
  7  2  1  0  0  0  0
  9  6  1  0  0  0  0
  9 12  1  0  0  0  0
 11  6  1  0  0  0  0
 13  9  1  0  0  0  0
 14  9  1  0  0  0  0
M  RAD  2   1   2   3   2
M  END
$$$$
