14
butane_opt
C  -3.907265   0.316258   0.157872
C  -2.651814  -0.660562  -0.049042
H  -4.729101  -0.228576  -0.011409
H  -4.026729   0.630923  -0.441905
H  -3.982049   1.126137   1.016341
C  -1.386350   0.136966  -0.235298
H  -2.680229  -1.283598  -0.762476
H  -2.558741  -1.244286   0.859792
C  -0.274945  -0.652686   0.197272
H  -1.395434   0.639112   0.591452
H  -0.998980   0.834716  -1.213435
H  -0.669240  -0.863907   0.917804
H   0.566242  -0.030913   0.488094
H   0.086010  -1.759166  -0.908192
