butane_opt
 OpenBabel08242015403D

 14  9  0  0  0  0  0  0  0  0999 V2000
   -3.9527    0.3071   -0.0929 C   0  0  0  0  0  0  0  0  0  0  0  0
   -2.6854   -0.6674    0.1875 C   0  0  0  0  0  0  0  0  0  0  0  0
   -4.6655   -0.2142   -0.0404 H   0  0  0  0  0  0  0  0  0  0  0  0
   -3.8006    1.0507   -1.1502 H   0  0  0  0  0  0  0  0  0  0  0  0
   -4.0164    0.7320    0.6293 H   0  0  0  0  0  0  0  0  0  0  0  0
   -1.3526    0.1663    0.0839 C   0  0  0  0  0  0  0  0  0  0  0  0
   -2.3131   -1.0411   -0.3006 H   0  0  0  0  0  0  0  0  0  0  0  0
   -2.8509   -1.7063    1.3313 H   0  0  0  0  0  0  0  0  0  0  0  0
   -0.2581   -0.6852   -0.1004 C   0  0  0  0  0  0  0  0  0  0  0  0
   -1.3108    1.0821    1.1388 H   0  0  0  0  0  0  0  0  0  0  0  0
   -1.2702    0.8421   -0.8712 H   0  0  0  0  0  0  0  0  0  0  0  0
   -0.2218   -0.6271    0.3402 H   0  0  0  0  0  0  0  0  0  0  0  0
    0.6742   -0.0180    0.6057 H   0  0  0  0  0  0  0  0  0  0  0  0
   -0.2870   -2.0065   -1.2449 H   0  0  0  0  0  0  0  0  0  0  0  0
  1  3  1  0  0  0  0
  1  2  1  0  0  0  0
  1  5  1  0  0  0  0
  4  1  1  0  0  0  0
  6 10  1  0  0  0  0
  7  2  1  0  0  0  0
  9  6  1  0  0  0  0
  9 13  1  0  0  0  0
 11  6  1  0  0  0  0
M  RAD  6   2   3   6   2   8   2   9   3  12   2  14   2
M  END
$$$$
