butane_opt
 OpenBabel08242015403D

 14 13  0  0  0  0  0  0  0  0999 V2000
   -3.8951    0.3436    0.2024 C   0  0  0  0  0  0  0  0  0  0  0  0
   -2.7324   -0.6991   -0.2704 C   0  0  0  0  0  0  0  0  0  0  0  0
   -4.6858   -0.1531    0.8680 H   0  0  0  0  0  0  0  0  0  0  0  0
   -4.5873    1.1896   -0.7110 H   0  0  0  0  0  0  0  0  0  0  0  0
   -3.5042    0.6385    0.9716 H   0  0  0  0  0  0  0  0  0  0  0  0
   -1.3759    0.1449   -0.1437 C   0  0  0  0  0  0  0  0  0  0  0  0
   -2.6851   -1.4668   -1.2681 H   0  0  0  0  0  0  0  0  0  0  0  0
   -2.5145   -1.2920    0.6623 H   0  0  0  0  0  0  0  0  0  0  0  0
   -0.2161   -0.6746    0.2084 C   0  0  0  0  0  0  0  0  0  0  0  0
   -1.3908    0.7696    0.7779 H   0  0  0  0  0  0  0  0  0  0  0  0
   -1.3287    0.8281   -0.9905 H   0  0  0  0  0  0  0  0  0  0  0  0
   -0.4001   -1.5022    1.2654 H   0  0  0  0  0  0  0  0  0  0  0  0
    0.8426    0.2516    0.3587 H   0  0  0  0  0  0  0  0  0  0  0  0
   -0.1686   -1.0632   -0.4453 H   0  0  0  0  0  0  0  0  0  0  0  0
  1  3  1  0  0  0  0
  1  5  1  0  0  0  0
  2  6  1  0  0  0  0
  2  1  1  0  0  0  0
  2  8  1  0  0  0  0
  4  1  1  0  0  0  0
  6  9  1  0  0  0  0
  6 10  1  0  0  0  0
  7  2  1  0  0  0  0
  9 13  1  0  0  0  0
  9 12  1  0  0  0  0
 11  6  1  0  0  0  0
 14  9  1  0  0  0  0
M  END
$$$$
