butane_opt
 OpenBabel08242015403D

 14 13  0  0  0  0  0  0  0  0999 V2000
   -3.9666    0.2707    0.0346 C   0  0  0  0  0  0  0  0  0  0  0  0
   -2.6930   -0.6196    0.0073 C   0  0  0  0  0  0  0  0  0  0  0  0
   -4.8665   -0.2879    0.0332 H   0  0  0  0  0  0  0  0  0  0  0  0
   -3.9732    0.8406   -0.8425 H   0  0  0  0  0  0  0  0  0  0  0  0
   -4.0058    0.9797    0.9116 H   0  0  0  0  0  0  0  0  0  0  0  0
   -1.3864    0.1723    0.0105 C   0  0  0  0  0  0  0  0  0  0  0  0
   -2.7192   -1.3594   -0.8783 H   0  0  0  0  0  0  0  0  0  0  0  0
   -2.6746   -1.2424    0.9116 H   0  0  0  0  0  0  0  0  0  0  0  0
   -0.1590   -0.6796    0.0511 C   0  0  0  0  0  0  0  0  0  0  0  0
   -1.3966    0.8153    0.8493 H   0  0  0  0  0  0  0  0  0  0  0  0
   -1.3824    0.8263   -0.9151 H   0  0  0  0  0  0  0  0  0  0  0  0
   -0.0618   -1.3953    1.0153 H   0  0  0  0  0  0  0  0  0  0  0  0
    0.7381   -0.1022   -0.1194 H   0  0  0  0  0  0  0  0  0  0  0  0
   -0.2252   -1.2627   -0.7510 H   0  0  0  0  0  0  0  0  0  0  0  0
  1  5  1  0  0  0  0
  2  6  1  0  0  0  0
  2  1  1  0  0  0  0
  2  8  1  0  0  0  0
  3  1  1  0  0  0  0
  4  1  1  0  0  0  0
  6  9  1  0  0  0  0
  6 10  1  0  0  0  0
  7  2  1  0  0  0  0
  9 12  1  0  0  0  0
 11  6  1  0  0  0  0
 13  9  1  0  0  0  0
 14  9  1  0  0  0  0
M  END
$$$$
