14
butane_opt
C  -3.947720   0.232390   0.185773
C  -2.657672  -0.542189  -0.094036
H  -5.035200  -0.497246   0.001498
H  -3.910672   0.449016  -0.340391
H  -3.673416   1.090552   1.253621
C  -1.460489   0.230243  -0.218996
H  -2.812258  -1.381517  -1.125481
H  -2.257740  -1.084702   0.738166
C  -0.163546  -0.732179   0.222477
H  -1.644018   0.375449   0.226892
H  -1.104641   1.074185  -1.449495
H  -0.407203  -1.061847   1.081165
H   0.742459  -0.199613   0.688569
H  -0.121780  -1.538746  -0.772770
