butane_opt
 OpenBabel08242015403D

 14 12  0  0  0  0  0  0  0  0999 V2000
   -3.9229    0.2142   -0.1089 C   0  0  0  0  0  0  0  0  0  0  0  0
   -2.7067   -0.5209    0.2057 C   0  0  0  0  0  0  0  0  0  0  0  0
   -5.0225   -0.4809   -0.1285 H   0  0  0  0  0  0  0  0  0  0  0  0
   -3.6526    0.7260   -1.1414 H   0  0  0  0  0  0  0  0  0  0  0  0
   -3.9196    0.7853    0.6549 H   0  0  0  0  0  0  0  0  0  0  0  0
   -1.4792    0.2041    0.1318 C   0  0  0  0  0  0  0  0  0  0  0  0
   -2.7560   -1.0491   -0.4751 H   0  0  0  0  0  0  0  0  0  0  0  0
   -2.8458   -1.3691    1.3413 H   0  0  0  0  0  0  0  0  0  0  0  0
   -0.0862   -0.7248   -0.1163 C   0  0  0  0  0  0  0  0  0  0  0  0
   -1.2544    0.8233    1.0697 H   0  0  0  0  0  0  0  0  0  0  0  0
   -1.6004    1.0047   -0.9887 H   0  0  0  0  0  0  0  0  0  0  0  0
   -0.1395   -0.8985    0.5131 H   0  0  0  0  0  0  0  0  0  0  0  0
    0.5450   -0.3333    0.5451 H   0  0  0  0  0  0  0  0  0  0  0  0
   -0.0162   -1.8101   -1.3253 H   0  0  0  0  0  0  0  0  0  0  0  0
  1  2  1  0  0  0  0
  1  5  1  0  0  0  0
  2  8  1  0  0  0  0
  3  1  1  0  0  0  0
  4  1  1  0  0  0  0
  6  2  1  0  0  0  0
  6 10  1  0  0  0  0
  7  2  1  0  0  0  0
  9  6  1  0  0  0  0
  9 12  1  0  0  0  0
  9 13  1  0  0  0  0
 11  6  1  0  0  0  0
M  RAD  2   9   2  14   2
M  END
$$$$
