14
butane_opt
C  -3.979576   0.283184  -0.093017
C  -2.638863  -0.603133   0.192417
H  -4.800158  -0.263263  -0.056915
H  -3.925025   0.993157  -0.962077
H  -4.110059   0.921919   0.725762
C  -1.374358   0.095429   0.052559
H  -2.435106  -1.417916  -0.605958
H  -2.573449  -1.343021   1.249546
C  -0.262041  -0.641343  -0.089642
H  -1.282987   0.931573   1.086199
H  -1.424051   0.633516  -0.806195
H  -0.193807  -1.159022   0.776400
H   0.833626   0.228920   0.421588
H  -0.101658  -1.579825  -1.153626
