14
butane_opt
C  -3.944945   0.207680  -0.113563
C  -2.773251  -0.494070   0.134045
H  -4.889159  -0.474015   0.179171
H  -3.853768   1.079342  -1.315089
H  -4.010825   0.398865   0.541483
C  -1.449620   0.235847   0.204601
H  -2.559400  -1.201366  -0.668973
H  -3.136333  -1.298844   1.103978
C  -0.078545  -0.754407  -0.153310
H  -1.204516   1.323333   1.442938
H  -1.643432   0.507779  -0.401210
H   0.342975  -1.851281   0.975731
H   0.932217  -0.089022  -0.315718
H  -0.072081  -1.162912  -0.923677
