butane_opt
 OpenBabel08242015403D

 14 13  0  0  0  0  0  0  0  0999 V2000
   -3.9464    0.2970    0.2140 C   0  0  0  0  0  0  0  0  0  0  0  0
   -2.7058   -0.6208   -0.1504 C   0  0  0  0  0  0  0  0  0  0  0  0
   -4.7701   -0.1964    0.4257 H   0  0  0  0  0  0  0  0  0  0  0  0
   -4.1382    0.7049   -0.6162 H   0  0  0  0  0  0  0  0  0  0  0  0
   -3.6188    1.0898    1.2688 H   0  0  0  0  0  0  0  0  0  0  0  0
   -1.3706    0.0677   -0.2848 C   0  0  0  0  0  0  0  0  0  0  0  0
   -2.6801   -1.2673   -0.9869 H   0  0  0  0  0  0  0  0  0  0  0  0
   -2.6491   -1.0371    0.6663 H   0  0  0  0  0  0  0  0  0  0  0  0
   -0.1793   -0.6497    0.2282 C   0  0  0  0  0  0  0  0  0  0  0  0
   -1.6072    0.8119    0.6048 H   0  0  0  0  0  0  0  0  0  0  0  0
   -1.4040    0.7056   -1.2241 H   0  0  0  0  0  0  0  0  0  0  0  0
   -0.6432   -1.2137    1.1199 H   0  0  0  0  0  0  0  0  0  0  0  0
    0.7220    0.0493    0.7369 H   0  0  0  0  0  0  0  0  0  0  0  0
    0.1486   -1.2418   -0.5969 H   0  0  0  0  0  0  0  0  0  0  0  0
  1  3  1  0  0  0  0
  1  5  1  0  0  0  0
  2  1  1  0  0  0  0
  2  8  1  0  0  0  0
  4  1  1  0  0  0  0
  6  2  1  0  0  0  0
  6  9  1  0  0  0  0
  6 10  1  0  0  0  0
  7  2  1  0  0  0  0
  9 13  1  0  0  0  0
  9 12  1  0  0  0  0
 11  6  1  0  0  0  0
 14  9  1  0  0  0  0
M  END
$$$$
