butane_opt
 OpenBabel08242015403D

 14 12  0  0  0  0  0  0  0  0999 V2000
   -3.9588    0.2262    0.1517 C   0  0  0  0  0  0  0  0  0  0  0  0
   -2.7941   -0.5966   -0.0220 C   0  0  0  0  0  0  0  0  0  0  0  0
   -4.7755   -0.5207   -0.0220 H   0  0  0  0  0  0  0  0  0  0  0  0
   -4.0074    0.9773   -0.7446 H   0  0  0  0  0  0  0  0  0  0  0  0
   -3.8319    0.9208    1.0591 H   0  0  0  0  0  0  0  0  0  0  0  0
   -1.3872    0.2712   -0.2075 C   0  0  0  0  0  0  0  0  0  0  0  0
   -2.9395   -1.3630   -0.9261 H   0  0  0  0  0  0  0  0  0  0  0  0
   -2.5523   -1.1516    0.8382 H   0  0  0  0  0  0  0  0  0  0  0  0
   -0.0944   -0.7385    0.1883 C   0  0  0  0  0  0  0  0  0  0  0  0
   -1.3512    0.7841    0.6699 H   0  0  0  0  0  0  0  0  0  0  0  0
   -1.2804    1.1823   -1.3036 H   0  0  0  0  0  0  0  0  0  0  0  0
   -0.2470   -0.9833    0.8028 H   0  0  0  0  0  0  0  0  0  0  0  0
    0.6007   -0.3654    0.7529 H   0  0  0  0  0  0  0  0  0  0  0  0
    0.2043   -1.9449   -1.0782 H   0  0  0  0  0  0  0  0  0  0  0  0
  1  5  1  0  0  0  0
  2  1  1  0  0  0  0
  2  8  1  0  0  0  0
  3  1  1  0  0  0  0
  4  1  1  0  0  0  0
  6  2  1  0  0  0  0
  6  9  1  0  0  0  0
  6 10  1  0  0  0  0
  7  2  1  0  0  0  0
  9 13  1  0  0  0  0
  9 12  1  0  0  0  0
 11  6  1  0  0  0  0
M  RAD  2   9   2  14   2
M  END
$$$$
