butane_opt
 OpenBabel08242015403D

 14 13  0  0  0  0  0  0  0  0999 V2000
   -3.9358    0.2714    0.0435 C   0  0  0  0  0  0  0  0  0  0  0  0
   -2.6946   -0.6274    0.0101 C   0  0  0  0  0  0  0  0  0  0  0  0
   -4.8374   -0.3021   -0.0163 H   0  0  0  0  0  0  0  0  0  0  0  0
   -3.9685    0.8316   -0.8123 H   0  0  0  0  0  0  0  0  0  0  0  0
   -3.9793    0.9902    0.9287 H   0  0  0  0  0  0  0  0  0  0  0  0
   -1.4089    0.1761   -0.0057 C   0  0  0  0  0  0  0  0  0  0  0  0
   -2.7755   -1.3732   -0.9008 H   0  0  0  0  0  0  0  0  0  0  0  0
   -2.6336   -1.2086    0.8500 H   0  0  0  0  0  0  0  0  0  0  0  0
   -0.1621   -0.6842    0.0590 C   0  0  0  0  0  0  0  0  0  0  0  0
   -1.4310    0.8558    0.8603 H   0  0  0  0  0  0  0  0  0  0  0  0
   -1.4010    0.8371   -0.9255 H   0  0  0  0  0  0  0  0  0  0  0  0
   -0.1179   -1.4378    1.0419 H   0  0  0  0  0  0  0  0  0  0  0  0
    0.7515   -0.0956   -0.1226 H   0  0  0  0  0  0  0  0  0  0  0  0
   -0.2187   -1.1950   -0.7319 H   0  0  0  0  0  0  0  0  0  0  0  0
  1  5  1  0  0  0  0
  2  1  1  0  0  0  0
  2  8  1  0  0  0  0
  3  1  1  0  0  0  0
  4  1  1  0  0  0  0
  6  2  1  0  0  0  0
  6  9  1  0  0  0  0
  6 10  1  0  0  0  0
  7  2  1  0  0  0  0
  9 12  1  0  0  0  0
 11  6  1  0  0  0  0
 13  9  1  0  0  0  0
 14  9  1  0  0  0  0
M  END
$$$$
