14
butane_opt
C  -3.980321   0.214078  -0.166277
C  -2.731057  -0.601909   0.180492
H  -4.738669  -0.078819  -0.106612
H  -3.888319   1.111052  -1.228206
H  -4.122681   0.674778   0.625340
C  -1.366383   0.246401   0.230041
H  -2.692894  -0.997049  -0.549641
H  -3.219369  -1.412362   1.167327
C  -0.123759  -0.724942  -0.128640
H  -1.289513   1.298295   1.452199
H  -1.386986   0.490127  -0.442845
H   0.589572  -1.616752   0.905609
H   0.743843  -0.146884  -0.733086
H  -0.625768  -1.371512  -1.035705
