14
butane_opt
C  -3.926604   0.304560   0.101100
C  -2.627745  -0.682262  -0.026457
H  -4.788218  -0.155743  -0.809443
H  -3.764674   0.055177  -0.135138
H  -4.253829   1.635041   1.420866
C  -1.379469   0.150017  -0.134096
H  -2.664370  -1.160972  -0.755563
H  -2.404794  -1.437497   0.956583
C  -0.229044  -0.627939   0.156979
H  -1.541197   0.603117   0.578306
H  -1.458314   0.994182  -1.117989
H  -0.430373  -1.564747   1.152734
H   0.599671   0.006577  -0.312811
H  -0.363066  -1.209410  -0.643578
