butane_opt
 OpenBabel08242015403D

 14  9  0  0  0  0  0  0  0  0999 V2000
   -4.0593    0.3167    0.1435 C   0  0  0  0  0  0  0  0  0  0  0  0
   -2.6428   -0.6493   -0.0404 C   0  0  0  0  0  0  0  0  0  0  0  0
   -5.0105   -0.2693   -0.7741 H   0  0  0  0  0  0  0  0  0  0  0  0
   -4.1102   -0.0042   -0.1505 H   0  0  0  0  0  0  0  0  0  0  0  0
   -4.1146    1.6841    1.5045 H   0  0  0  0  0  0  0  0  0  0  0  0
   -1.3519    0.1612   -0.2035 C   0  0  0  0  0  0  0  0  0  0  0  0
   -2.8901   -1.5790   -0.9379 H   0  0  0  0  0  0  0  0  0  0  0  0
   -2.5040   -1.3916    0.9248 H   0  0  0  0  0  0  0  0  0  0  0  0
   -0.1301   -0.6402    0.1427 C   0  0  0  0  0  0  0  0  0  0  0  0
   -1.3092    0.6521    0.5855 H   0  0  0  0  0  0  0  0  0  0  0  0
   -1.3559    0.9860   -1.2397 H   0  0  0  0  0  0  0  0  0  0  0  0
   -0.3753   -1.6366    1.4103 H   0  0  0  0  0  0  0  0  0  0  0  0
    0.7775   -0.1956    0.0491 H   0  0  0  0  0  0  0  0  0  0  0  0
    0.0727   -0.9711   -0.3549 H   0  0  0  0  0  0  0  0  0  0  0  0
  2  1  1  0  0  0  0
  2  8  1  0  0  0  0
  3  1  1  0  0  0  0
  6  2  1  0  0  0  0
  6  9  1  0  0  0  0
  6 10  1  0  0  0  0
  7  2  1  0  0  0  0
 11  6  1  0  0  0  0
 13  9  1  0  0  0  0
M  RAD  6   1   3   4   2   5   2   9   3  12   2  14   2
M  END
$$$$
