butane_opt
 OpenBabel08242015403D

 14  8  0  0  0  0  0  0  0  0999 V2000
   -3.8862    0.2136    0.0315 C   0  0  0  0  0 15  0  0  0  0  0  0
   -2.6897   -0.4857    0.0723 C   0  0  0  0  0  0  0  0  0  0  0  0
   -5.0943   -0.5715   -0.4748 H   0  0  0  0  0  0  0  0  0  0  0  0
   -3.6614    0.2742   -0.4300 H   0  0  0  0  0  0  0  0  0  0  0  0
   -4.1618    1.3159    1.1748 H   0  0  0  0  0  0  0  0  0  0  0  0
   -1.4122    0.1982   -0.0420 C   0  0  0  0  0  0  0  0  0  0  0  0
   -2.8389   -1.4052   -0.8588 H   0  0  0  0  0  0  0  0  0  0  0  0
   -2.9224   -0.8954    0.7800 H   0  0  0  0  0  0  0  0  0  0  0  0
   -0.1859   -0.7526    0.0668 C   0  0  0  0  0  0  0  0  0  0  0  0
   -1.4461    0.7220    0.7373 H   0  0  0  0  0  0  0  0  0  0  0  0
   -1.3147    1.0740   -1.0782 H   0  0  0  0  0  0  0  0  0  0  0  0
   -0.1250   -1.7119    1.2576 H   0  0  0  0  0  0  0  0  0  0  0  0
    0.7823   -0.2123   -0.4127 H   0  0  0  0  0  0  0  0  0  0  0  0
   -0.1189   -1.1997   -0.7298 H   0  0  0  0  0  0  0  0  0  0  0  0
  2  8  1  0  0  0  0
  4  2  1  0  0  0  0
  6  9  1  0  0  0  0
  6 10  1  0  0  0  0
  7  2  1  0  0  0  0
 11  6  1  0  0  0  0
 13  9  1  0  0  0  0
 14  9  1  0  0  0  0
M  RAD  6   2   2   3   2   5   2   6   2   9   2  12   2
M  END
$$$$
