14
butane_opt
C  -3.958331   0.219187  -0.031219
C  -2.716432  -0.582827   0.175531
H  -4.765346  -0.348913  -0.015366
H  -3.882106   0.871949  -0.993191
H  -4.356701   0.500953   0.580935
C  -1.415663   0.269549   0.037409
H  -2.995327  -1.058533  -0.635593
H  -2.895985  -1.177920   1.048400
C  -0.084172  -0.749244  -0.046894
H  -1.585796   0.961083   0.759562
H  -1.322445   0.954032  -0.833649
H  -0.055024  -0.925286   0.491262
H   0.768586  -0.306559   0.659820
H   0.185041  -1.868564  -1.302229
