butane_opt
 OpenBabel08242015403D

 14 10  0  0  0  0  0  0  0  0999 V2000
   -3.8879    0.2344    0.1706 C   0  0  0  0  0  0  0  0  0  0  0  0
   -2.7080   -0.5613   -0.0793 C   0  0  0  0  0  0  0  0  0  0  0  0
   -4.7520   -0.5035    0.2348 H   0  0  0  0  0  0  0  0  0  0  0  0
   -3.8613    0.7648   -0.6650 H   0  0  0  0  0  0  0  0  0  0  0  0
   -3.8618    0.9251    1.0194 H   0  0  0  0  0  0  0  0  0  0  0  0
   -1.4425    0.2093   -0.1800 C   0  0  0  0  0  0  0  0  0  0  0  0
   -2.8614   -1.3459   -1.0929 H   0  0  0  0  0  0  0  0  0  0  0  0
   -2.6161   -1.3749    0.9631 H   0  0  0  0  0  0  0  0  0  0  0  0
   -0.1787   -0.7043    0.2035 C   0  0  0  0  0  0  0  0  0  0  0  0
   -1.7305    0.5501    0.4396 H   0  0  0  0  0  0  0  0  0  0  0  0
   -1.4821    1.2686   -1.2990 H   0  0  0  0  0  0  0  0  0  0  0  0
   -0.2372   -0.8579    0.6425 H   0  0  0  0  0  0  0  0  0  0  0  0
    0.6345   -0.1920    0.8079 H   0  0  0  0  0  0  0  0  0  0  0  0
    0.3351   -1.8515   -1.0136 H   0  0  0  0  0  0  0  0  0  0  0  0
  1  3  1  0  0  0  0
  1  5  1  0  0  0  0
  2  1  1  0  0  0  0
  2  8  1  0  0  0  0
  4  1  1  0  0  0  0
  6  2  1  0  0  0  0
  6  9  1  0  0  0  0
  6 10  1  0  0  0  0
  7  2  1  0  0  0  0
  9 13  1  0  0  0  0
M  RAD  5   6   2   9   3  11   2  12   2  14   2
M  END
$$$$
