14
butane_opt
C  -3.895406   0.342669  -0.110407
C  -2.678526  -0.680900   0.321759
H  -4.955851  -0.394704  -0.997887
H  -3.553283   0.769937  -1.002711
H  -4.503042   1.274131   0.746232
C  -1.413338   0.153301   0.104560
H  -2.447540  -1.489995  -0.637865
H  -2.728765  -1.489380   1.328683
C  -0.220740  -0.657806  -0.107506
H  -1.082346   0.728366   1.032235
H  -1.379655   0.710461  -0.738373
H  -0.042151  -1.082917   0.607391
H   0.705202   0.138352  -0.222528
H  -0.531359  -1.527896  -1.177856
