14
butane_opt
C  -4.027872   0.329351   0.011226
C  -2.732605  -0.694593  -0.026264
H  -4.973963  -0.500496   0.161066
H  -4.004672   0.950965  -0.915461
H  -3.952665   1.071261   0.930289
C  -1.331470   0.168039   0.112324
H  -2.562553  -1.426591  -0.980608
H  -2.863108  -1.165025   0.802322
C  -0.135876  -0.674324   0.038569
H  -1.215835   0.898527   0.867207
H  -1.543149   0.903137  -0.942420
H   0.313424  -1.746991   1.157202
H   0.807982  -0.055062  -0.537047
H  -0.324902  -0.926884  -0.627368
