butane_opt
 OpenBabel08242015403D

 14 13  0  0  0  0  0  0  0  0999 V2000
   -3.9050    0.3119    0.0720 C   0  0  0  0  0  0  0  0  0  0  0  0
   -2.7236   -0.6322    0.0532 C   0  0  0  0  0  0  0  0  0  0  0  0
   -4.8432   -0.1822    0.0737 H   0  0  0  0  0  0  0  0  0  0  0  0
   -3.8250    0.9339   -0.7362 H   0  0  0  0  0  0  0  0  0  0  0  0
   -3.8893    1.0169    0.9880 H   0  0  0  0  0  0  0  0  0  0  0  0
   -1.3982    0.1211   -0.1344 C   0  0  0  0  0  0  0  0  0  0  0  0
   -2.7444   -1.6156   -0.9715 H   0  0  0  0  0  0  0  0  0  0  0  0
   -2.5580   -1.2236    0.8864 H   0  0  0  0  0  0  0  0  0  0  0  0
   -0.1698   -0.6689    0.0849 C   0  0  0  0  0  0  0  0  0  0  0  0
   -1.3018    0.5304    0.7336 H   0  0  0  0  0  0  0  0  0  0  0  0
   -1.5505    0.8945   -1.1260 H   0  0  0  0  0  0  0  0  0  0  0  0
   -0.6499   -0.9313    0.7678 H   0  0  0  0  0  0  0  0  0  0  0  0
    0.8308    0.0891    0.7591 H   0  0  0  0  0  0  0  0  0  0  0  0
   -0.1575   -1.5360   -0.8418 H   0  0  0  0  0  0  0  0  0  0  0  0
  1  3  1  0  0  0  0
  1  5  1  0  0  0  0
  2  1  1  0  0  0  0
  2  8  1  0  0  0  0
  4  1  1  0  0  0  0
  6  2  1  0  0  0  0
  6  9  1  0  0  0  0
  6 10  1  0  0  0  0
  7  2  1  0  0  0  0
  9 13  1  0  0  0  0
  9 12  1  0  0  0  0
 11  6  1  0  0  0  0
 14  9  1  0  0  0  0
M  END
$$$$
