butane_opt
 OpenBabel08242015403D

 14 10  0  0  0  0  0  0  0  0999 V2000
   -3.8999    0.3247    0.1761 C   0  0  0  0  0  0  0  0  0  0  0  0
   -2.6542   -0.6909   -0.1095 C   0  0  0  0  0  0  0  0  0  0  0  0
   -4.7569   -0.2697   -0.4347 H   0  0  0  0  0  0  0  0  0  0  0  0
   -3.8912    0.7511   -0.6185 H   0  0  0  0  0  0  0  0  0  0  0  0
   -4.0210    1.3736    1.1347 H   0  0  0  0  0  0  0  0  0  0  0  0
   -1.4354    0.1105   -0.0575 C   0  0  0  0  0  0  0  0  0  0  0  0
   -2.8907   -1.6180   -1.2850 H   0  0  0  0  0  0  0  0  0  0  0  0
   -2.2385   -1.0040    0.5619 H   0  0  0  0  0  0  0  0  0  0  0  0
   -0.2283   -0.6133    0.1413 C   0  0  0  0  0  1  0  0  0  0  0  0
   -1.3523    0.4479    0.6718 H   0  0  0  0  0  0  0  0  0  0  0  0
   -1.0793    0.8137   -0.9567 H   0  0  0  0  0  0  0  0  0  0  0  0
   -0.1344   -1.9618    1.5551 H   0  0  0  0  0  0  0  0  0  0  0  0
    0.5600    0.0174   -0.6439 H   0  0  0  0  0  0  0  0  0  0  0  0
   -0.6020   -0.5860   -0.2912 H   0  0  0  0  0  0  0  0  0  0  0  0
  1  5  1  0  0  0  0
  2  1  1  0  0  0  0
  2  8  1  0  0  0  0
  3  1  1  0  0  0  0
  4  1  1  0  0  0  0
  6 10  1  0  0  0  0
  7  2  1  0  0  0  0
 11  6  1  0  0  0  0
 13  9  1  0  0  0  0
 14  6  1  0  0  0  0
M  RAD  3   2   2   6   2  12   2
M  END
$$$$
