butane_opt
 OpenBabel08242015403D

 14 11  0  0  0  0  0  0  0  0999 V2000
   -3.8470    0.2253    0.1464 C   0  0  0  0  0  0  0  0  0  0  0  0
   -2.6877   -0.5477   -0.1527 C   0  0  0  0  0  0  0  0  0  0  0  0
   -4.7855   -0.5414    0.0309 H   0  0  0  0  0  0  0  0  0  0  0  0
   -3.8833    0.6363   -0.5645 H   0  0  0  0  0  0  0  0  0  0  0  0
   -4.0990    1.1061    1.2663 H   0  0  0  0  0  0  0  0  0  0  0  0
   -1.4447    0.2196   -0.0435 C   0  0  0  0  0  0  0  0  0  0  0  0
   -2.8494   -1.4091   -1.2907 H   0  0  0  0  0  0  0  0  0  0  0  0
   -2.6498   -1.0399    0.6752 H   0  0  0  0  0  0  0  0  0  0  0  0
   -0.2253   -0.7518    0.1786 C   0  0  0  0  0  1  0  0  0  0  0  0
   -1.4208    0.6930    0.6540 H   0  0  0  0  0  0  0  0  0  0  0  0
   -1.0903    1.1118   -1.1982 H   0  0  0  0  0  0  0  0  0  0  0  0
    0.1905   -1.7040    1.3282 H   0  0  0  0  0  0  0  0  0  0  0  0
    0.5851   -0.3128   -0.5480 H   0  0  0  0  0  0  0  0  0  0  0  0
   -0.4847   -0.7830   -0.3657 H   0  0  0  0  0  0  0  0  0  0  0  0
  1  5  1  0  0  0  0
  2  6  1  0  0  0  0
  2  1  1  0  0  0  0
  2  8  1  0  0  0  0
  3  1  1  0  0  0  0
  4  1  1  0  0  0  0
  6 10  1  0  0  0  0
  7  2  1  0  0  0  0
 11  6  1  0  0  0  0
 13  9  1  0  0  0  0
 14  6  1  0  0  0  0
M  RAD  1  12   2
M  END
$$$$
