14
butane_opt
C  -4.040175   0.301705   0.125333
C  -2.690452  -0.693605  -0.037670
H  -4.688323  -0.215018  -0.640897
H  -3.818154   0.169125  -0.280275
H  -4.548583   1.865694   1.475370
C  -1.385349   0.158082  -0.112471
H  -2.688822  -1.398584  -0.864790
H  -2.656621  -1.188799   0.867916
C  -0.108355  -0.690186   0.166646
H  -1.384554   0.354000   0.401290
H  -1.258873   1.135333  -1.375279
H  -0.081468  -1.330422   0.961445
H   1.003761   0.136546  -0.180687
H  -0.221189  -0.875703  -0.489916
