14
butane_opt
C  -4.005973   0.333829  -0.075298
C  -2.737975  -0.697070   0.052056
H  -4.832108  -0.100203   0.534346
H  -4.204772   1.480597  -1.287455
H  -4.052479   0.673826   0.355220
C  -1.313989   0.065763   0.217078
H  -2.819878  -1.334898  -0.743827
H  -2.634306  -1.327930   0.980364
C  -0.115134  -0.612508  -0.045854
H  -1.436774   0.727402   0.978260
H  -1.347264   0.775734  -0.622660
H   0.126329  -1.061660   0.648774
H   0.800617  -0.059281  -0.179957
H  -0.570255  -1.302911  -1.054681
