14
butane_opt
C  -3.938158   0.269752  -0.004477
C  -2.697611  -0.626472   0.071971
H  -4.851246  -0.331824  -0.078963
H  -3.905825   0.855432  -0.884739
H  -4.031755   0.982954   0.873905
C  -1.408636   0.187466   0.032468
H  -2.639719  -1.291959  -0.761212
H  -2.694902  -1.282760   0.977843
C  -0.168081  -0.682192   0.005701
H  -1.322468   0.810584   0.882708
H  -1.443183   0.810011  -0.858729
H  -0.131189  -1.318224   0.881179
H   0.724454  -0.109790   0.023602
H  -0.176943  -1.377032  -0.872623
