14
butane_opt
C  -3.943817   0.259386  -0.009017
C  -2.700285  -0.618158   0.056351
H  -4.838674  -0.350789   0.184708
H  -4.049146   0.991262  -0.980445
H  -3.949494   0.793455   0.744279
C  -1.409227   0.199425   0.043422
H  -2.750938  -1.273989  -0.783395
H  -2.729462  -1.218072   0.952512
C  -0.147481  -0.700657   0.010924
H  -1.398314   0.907761   0.901556
H  -1.402920   0.799524  -0.824190
H  -0.076620  -1.235815   0.837149
H   0.746128  -0.133576   0.071062
H  -0.156811  -1.435104  -0.902385
