butane_opt
 OpenBabel08242015403D

 14 12  0  0  0  0  0  0  0  0999 V2000
   -4.0048    0.2989   -0.0724 C   0  0  0  0  0  0  0  0  0  0  0  0
   -2.6887   -0.6648    0.0571 C   0  0  0  0  0  0  0  0  0  0  0  0
   -4.8669   -0.1425    0.2048 H   0  0  0  0  0  0  0  0  0  0  0  0
   -4.4355    1.1544   -1.0655 H   0  0  0  0  0  0  0  0  0  0  0  0
   -4.1633    0.8929    0.5920 H   0  0  0  0  0  0  0  0  0  0  0  0
   -1.3550    0.0786    0.2141 C   0  0  0  0  0  0  0  0  0  0  0  0
   -2.7562   -1.4814   -0.9201 H   0  0  0  0  0  0  0  0  0  0  0  0
   -2.8227   -1.2039    0.8693 H   0  0  0  0  0  0  0  0  0  0  0  0
   -0.0993   -0.6452   -0.0711 C   0  0  0  0  0  0  0  0  0  0  0  0
   -1.2120    0.8163    1.0844 H   0  0  0  0  0  0  0  0  0  0  0  0
   -1.4571    1.0381   -0.7203 H   0  0  0  0  0  0  0  0  0  0  0  0
    0.2399   -1.4906    0.9642 H   0  0  0  0  0  0  0  0  0  0  0  0
    0.8306   -0.0144   -0.4155 H   0  0  0  0  0  0  0  0  0  0  0  0
   -0.5895   -0.8507   -0.6469 H   0  0  0  0  0  0  0  0  0  0  0  0
  1  2  1  0  0  0  0
  1  3  1  0  0  0  0
  1  5  1  0  0  0  0
  2  8  1  0  0  0  0
  4  1  1  0  0  0  0
  6 10  1  0  0  0  0
  7  2  1  0  0  0  0
  9  6  1  0  0  0  0
  9 12  1  0  0  0  0
 11  6  1  0  0  0  0
 13  9  1  0  0  0  0
 14  9  1  0  0  0  0
M  RAD  2   2   2   6   2
M  END
$$$$
