butane_opt
 OpenBabel08242015403D

 14 12  0  0  0  0  0  0  0  0999 V2000
   -3.8713    0.1861    0.1163 C   0  0  0  0  0  0  0  0  0  0  0  0
   -2.7453   -0.5697   -0.1107 C   0  0  0  0  0  0  0  0  0  0  0  0
   -4.9358   -0.3695   -0.2384 H   0  0  0  0  0  0  0  0  0  0  0  0
   -4.1970    0.5988   -0.6478 H   0  0  0  0  0  0  0  0  0  0  0  0
   -4.0453    1.1212    1.1115 H   0  0  0  0  0  0  0  0  0  0  0  0
   -1.4217    0.2940    0.0207 C   0  0  0  0  0  0  0  0  0  0  0  0
   -2.8880   -1.4281   -1.0531 H   0  0  0  0  0  0  0  0  0  0  0  0
   -2.7534   -0.9280    0.6920 H   0  0  0  0  0  0  0  0  0  0  0  0
   -0.1066   -0.7398    0.1239 C   0  0  0  0  0  0  0  0  0  0  0  0
   -1.9630    0.7391    0.7012 H   0  0  0  0  0  0  0  0  0  0  0  0
   -1.2463    0.9111   -1.0069 H   0  0  0  0  0  0  0  0  0  0  0  0
    0.4618   -2.1654    1.4162 H   0  0  0  0  0  0  0  0  0  0  0  0
    0.6962   -0.2490   -0.7988 H   0  0  0  0  0  0  0  0  0  0  0  0
   -0.3784   -0.7602   -0.4803 H   0  0  0  0  0  0  0  0  0  0  0  0
  1  5  1  0  0  0  0
  2  6  1  0  0  0  0
  2  1  1  0  0  0  0
  2  8  1  0  0  0  0
  3  1  1  0  0  0  0
  4  1  1  0  0  0  0
  6  9  1  0  0  0  0
  6 10  1  0  0  0  0
  7  2  1  0  0  0  0
 11  6  1  0  0  0  0
 13  9  1  0  0  0  0
 14  9  1  0  0  0  0
M  RAD  2   9   2  12   2
M  END
$$$$
