14
butane_opt
C  -3.915374   0.244397   0.041778
C  -2.677307  -0.654818  -0.001585
H  -4.557721  -0.206253  -0.415814
H  -3.824481   0.561119  -0.735348
H  -4.024632   1.448259   1.307590
C  -1.451049   0.152928  -0.058151
H  -2.562704  -0.951553  -0.572025
H  -2.522771  -1.392624   0.942532
C  -0.218306  -0.652633   0.099380
H  -1.455649   0.843054   0.798721
H  -1.390424   0.852655  -0.788464
H  -0.008619  -1.293021   1.107322
H   0.752273  -0.093667  -0.383915
H  -0.304876  -1.311004  -0.782536
