14
butane_opt
C  -3.950415   0.278613  -0.011907
C  -2.703449  -0.634136   0.067149
H  -4.858418  -0.289087   0.010917
H  -3.983913   0.954627  -0.944811
H  -4.053469   0.902020   0.795884
C  -1.393423   0.168425   0.062493
H  -2.716884  -1.302678  -0.812207
H  -2.768830  -1.225436   0.938997
C  -0.150781  -0.683561  -0.004486
H  -1.296730   0.844428   0.925322
H  -1.452672   0.777634  -0.814895
H  -0.064711  -1.328140   0.907078
H   0.766054  -0.096449  -0.077988
H  -0.218944  -1.257454  -0.835746
