butane_opt
 OpenBabel08242015403D

 14 10  0  0  0  0  0  0  0  0999 V2000
   -3.9887    0.2638   -0.1554 C   0  0  0  0  0  0  0  0  0  0  0  0
   -2.7412   -0.6295    0.2768 C   0  0  0  0  0  0  0  0  0  0  0  0
   -4.8013   -0.3063   -0.8375 H   0  0  0  0  0  0  0  0  0  0  0  0
   -3.4424    0.5734   -0.8863 H   0  0  0  0  0  0  0  0  0  0  0  0
   -4.3968    1.1282    0.8498 H   0  0  0  0  0  0  0  0  0  0  0  0
   -1.3835    0.2336    0.1650 C   0  0  0  0  0  0  0  0  0  0  0  0
   -2.5340   -0.8024   -0.1691 H   0  0  0  0  0  0  0  0  0  0  0  0
   -3.1272   -1.6633    1.4039 H   0  0  0  0  0  0  0  0  0  0  0  0
   -0.1567   -0.6784   -0.1584 C   0  0  0  0  0  0  0  0  0  0  0  0
   -1.2843    0.9426    0.9839 H   0  0  0  0  0  0  0  0  0  0  0  0
   -1.2899    0.6933   -0.6297 H   0  0  0  0  0  0  0  0  0  0  0  0
    0.4585   -1.2539    0.6081 H   0  0  0  0  0  0  0  0  0  0  0  0
    0.6777   -0.3548   -0.0044 H   0  0  0  0  0  0  0  0  0  0  0  0
   -0.0960   -1.7067   -1.3901 H   0  0  0  0  0  0  0  0  0  0  0  0
  1  2  1  0  0  0  0
  1  5  1  0  0  0  0
  3  1  1  0  0  0  0
  4  1  1  0  0  0  0
  6  2  1  0  0  0  0
  6 10  1  0  0  0  0
  9 13  1  0  0  0  0
  9  6  1  0  0  0  0
  9 12  1  0  0  0  0
 11  6  1  0  0  0  0
M  RAD  5   2   3   7   2   8   2   9   2  14   2
M  END
$$$$
