butane_opt
 OpenBabel08242015403D

 14 11  0  0  0  0  0  0  0  0999 V2000
   -3.9449    0.2077   -0.1136 C   0  0  0  0  0  0  0  0  0  0  0  0
   -2.7733   -0.4941    0.1340 C   0  0  0  0  0  0  0  0  0  0  0  0
   -4.8892   -0.4740    0.1792 H   0  0  0  0  0  0  0  0  0  0  0  0
   -3.8538    1.0793   -1.3151 H   0  0  0  0  0  0  0  0  0  0  0  0
   -4.0108    0.3989    0.5415 H   0  0  0  0  0  0  0  0  0  0  0  0
   -1.4496    0.2358    0.2046 C   0  0  0  0  0  0  0  0  0  0  0  0
   -2.5594   -1.2014   -0.6690 H   0  0  0  0  0  0  0  0  0  0  0  0
   -3.1363   -1.2988    1.1040 H   0  0  0  0  0  0  0  0  0  0  0  0
   -0.0785   -0.7544   -0.1533 C   0  0  0  0  0  0  0  0  0  0  0  0
   -1.2045    1.3233    1.4429 H   0  0  0  0  0  0  0  0  0  0  0  0
   -1.6434    0.5078   -0.4012 H   0  0  0  0  0  0  0  0  0  0  0  0
    0.3430   -1.8513    0.9757 H   0  0  0  0  0  0  0  0  0  0  0  0
    0.9322   -0.0890   -0.3157 H   0  0  0  0  0  0  0  0  0  0  0  0
   -0.0721   -1.1629   -0.9237 H   0  0  0  0  0  0  0  0  0  0  0  0
  1  2  1  0  0  0  0
  1  3  1  0  0  0  0
  1  5  1  0  0  0  0
  2  6  1  0  0  0  0
  2  8  1  0  0  0  0
  4  1  1  0  0  0  0
  7  2  1  0  0  0  0
  9  6  1  0  0  0  0
 11  6  1  0  0  0  0
 13  9  1  0  0  0  0
 14  9  1  0  0  0  0
M  RAD  4   6   2   9   2  10   2  12   2
M  END
$$$$
