14
butane_opt
C  -3.922906   0.214159  -0.108879
C  -2.706700  -0.520934   0.205728
H  -5.022518  -0.480909  -0.128548
H  -3.652561   0.725975  -1.141412
H  -3.919561   0.785319   0.654916
C  -1.479237   0.204129   0.131793
H  -2.756025  -1.049068  -0.475122
H  -2.845780  -1.369100   1.341312
C  -0.086158  -0.724812  -0.116271
H  -1.254409   0.823250   1.069684
H  -1.600413   1.004721  -0.988691
H  -0.139482  -0.898531   0.513066
H   0.545027  -0.333332   0.545099
H  -0.016236  -1.810088  -1.325303
