butane_opt
 OpenBabel08242015403D

 14 11  0  0  0  0  0  0  0  0999 V2000
   -3.8651    0.2732    0.1298 C   0  0  0  0  0  0  0  0  0  0  0  0
   -2.6878   -0.5837   -0.0243 C   0  0  0  0  0  0  0  0  0  0  0  0
   -4.8268   -0.4789   -0.5315 H   0  0  0  0  0  0  0  0  0  0  0  0
   -3.6736    0.3774   -0.4738 H   0  0  0  0  0  0  0  0  0  0  0  0
   -4.1188    1.2779    1.1282 H   0  0  0  0  0  0  0  0  0  0  0  0
   -1.4116    0.1658   -0.1478 C   0  0  0  0  0  0  0  0  0  0  0  0
   -2.8881   -1.2662   -0.8079 H   0  0  0  0  0  0  0  0  0  0  0  0
   -2.5543   -1.3796    1.0677 H   0  0  0  0  0  0  0  0  0  0  0  0
   -0.2351   -0.6769    0.0883 C   0  0  0  0  0  0  0  0  0  0  0  0
   -1.4724    0.9101    0.6720 H   0  0  0  0  0  0  0  0  0  0  0  0
   -1.5025    0.8155   -0.9503 H   0  0  0  0  0  0  0  0  0  0  0  0
   -0.1601   -1.4626    1.1207 H   0  0  0  0  0  0  0  0  0  0  0  0
    0.4973   -0.2381    0.2386 H   0  0  0  0  0  0  0  0  0  0  0  0
    0.0732   -1.1974   -0.5268 H   0  0  0  0  0  0  0  0  0  0  0  0
  1  5  1  0  0  0  0
  2  8  1  0  0  0  0
  3  1  1  0  0  0  0
  4  1  1  0  0  0  0
  6  9  1  0  0  0  0
  6 10  1  0  0  0  0
  7  2  1  0  0  0  0
  9 13  1  0  0  0  0
  9 12  1  0  0  0  0
 11  6  1  0  0  0  0
 14  9  1  0  0  0  0
M  RAD  3   1   2   2   3   6   2
M  END
$$$$
