butane_opt
 OpenBabel08242015403D

 14 13  0  0  0  0  0  0  0  0999 V2000
   -3.9970    0.2286    0.1901 C   0  0  0  0  0  0  0  0  0  0  0  0
   -2.7279   -0.6165   -0.1227 C   0  0  0  0  0  0  0  0  0  0  0  0
   -4.8137   -0.2846    0.1725 H   0  0  0  0  0  0  0  0  0  0  0  0
   -4.0249    0.5965   -0.5479 H   0  0  0  0  0  0  0  0  0  0  0  0
   -3.7798    1.0716    1.2914 H   0  0  0  0  0  0  0  0  0  0  0  0
   -1.3810    0.3274   -0.2374 C   0  0  0  0  0  0  0  0  0  0  0  0
   -3.0167   -1.4506   -0.9084 H   0  0  0  0  0  0  0  0  0  0  0  0
   -2.7201   -1.0007    0.5925 H   0  0  0  0  0  0  0  0  0  0  0  0
   -0.1381   -0.7591    0.1929 C   0  0  0  0  0  0  0  0  0  0  0  0
   -1.1877    0.8091    0.4753 H   0  0  0  0  0  0  0  0  0  0  0  0
   -1.3223    0.9202   -1.1298 H   0  0  0  0  0  0  0  0  0  0  0  0
   -0.2935   -1.6587    1.2639 H   0  0  0  0  0  0  0  0  0  0  0  0
    0.7299   -0.2268    0.6199 H   0  0  0  0  0  0  0  0  0  0  0  0
    0.3240   -1.4036   -0.5994 H   0  0  0  0  0  0  0  0  0  0  0  0
  1  5  1  0  0  0  0
  2  1  1  0  0  0  0
  2  8  1  0  0  0  0
  3  1  1  0  0  0  0
  4  1  1  0  0  0  0
  6  2  1  0  0  0  0
  6  9  1  0  0  0  0
  6 10  1  0  0  0  0
  7  2  1  0  0  0  0
  9 13  1  0  0  0  0
  9 12  1  0  0  0  0
 11  6  1  0  0  0  0
 14  9  1  0  0  0  0
M  END
$$$$
