butane_opt
 OpenBabel08242015403D

 14  9  0  0  0  0  0  0  0  0999 V2000
   -3.9629    0.1878   -0.0201 C   0  0  0  0  0  0  0  0  0  0  0  0
   -2.7568   -0.5614    0.1790 C   0  0  0  0  0  0  0  0  0  0  0  0
   -4.6496   -0.3399    0.0391 H   0  0  0  0  0  0  0  0  0  0  0  0
   -3.8563    1.1908   -1.2600 H   0  0  0  0  0  0  0  0  0  0  0  0
   -4.0077    0.5830    0.6155 H   0  0  0  0  0  0  0  0  0  0  0  0
   -1.3492    0.2871   -0.0161 C   0  0  0  0  0  0  0  0  0  0  0  0
   -3.1101   -1.1296   -0.5996 H   0  0  0  0  0  0  0  0  0  0  0  0
   -2.7672   -1.1549    1.0224 H   0  0  0  0  0  0  0  0  0  0  0  0
   -0.1038   -0.7660    0.0045 C   0  0  0  0  0  1  0  0  0  0  0  0
   -1.4152    0.7696    0.8789 H   0  0  0  0  0  0  0  0  0  0  0  0
   -1.6402    0.9136   -0.8698 H   0  0  0  0  0  0  0  0  0  0  0  0
   -0.2354   -0.5380    0.2761 H   0  0  0  0  0  0  0  0  0  0  0  0
    0.5639   -0.3747    0.7369 H   0  0  0  0  0  0  0  0  0  0  0  0
    0.1921   -2.1668   -1.2983 H   0  0  0  0  0  0  0  0  0  0  0  0
  1  3  1  0  0  0  0
  1  2  1  0  0  0  0
  1  5  1  0  0  0  0
  2  8  1  0  0  0  0
  6 12  1  0  0  0  0
  6 10  1  0  0  0  0
  7  2  1  0  0  0  0
  9 13  1  0  0  0  0
 11  6  1  0  0  0  0
M  RAD  5   1   2   2   2   4   2   6   2  14   2
M  END
$$$$
