14
butane_opt
C  -3.921248   0.194994  -0.122537
C  -2.743261  -0.575975   0.104690
H  -4.922264  -0.295420   0.562730
H  -4.122392   1.501554  -1.454488
H  -3.750979   0.152186   0.306966
C  -1.406558   0.321707   0.252922
H  -2.725755  -1.125365  -0.665992
H  -3.002231  -1.576750   1.132675
C  -0.114156  -0.776497  -0.111703
H  -1.807090   1.259833   1.249834
H  -1.462003   0.665735  -0.414639
H   0.256617  -1.189275   0.561385
H   0.779283  -0.218225  -0.271131
H  -0.049519  -1.589822  -1.174438
