14
butane_opt
C  -3.847039   0.225278   0.146372
C  -2.687686  -0.547733  -0.152650
H  -4.785485  -0.541444   0.030879
H  -3.883337   0.636296  -0.564519
H  -4.099000   1.106116   1.266323
C  -1.444711   0.219587  -0.043477
H  -2.849415  -1.409150  -1.290737
H  -2.649825  -1.039921   0.675200
C  -0.225320  -0.751817   0.178642
H  -1.420800   0.692990   0.654040
H  -1.090336   1.111785  -1.198210
H   0.190515  -1.703991   1.328206
H   0.585105  -0.312845  -0.547986
H  -0.484714  -0.782959  -0.365662
