14
butane_opt
C  -4.027790   0.250528  -0.080399
C  -2.663933  -0.598954   0.117902
H  -5.086155  -0.536877  -0.090828
H  -3.880965   1.028459  -1.254987
H  -3.997180   0.861665   0.692153
C  -1.397538   0.207675   0.180642
H  -2.452046  -1.142399  -0.591927
H  -2.994451  -1.204852   1.096019
C  -0.099725  -0.701941  -0.130732
H  -1.149371   1.080921   1.280812
H  -1.521444   0.455952  -0.515403
H  -0.038116  -1.671148   1.045186
H   0.715592  -0.263504  -0.406550
H  -0.308759  -0.979765  -0.821396
