14
butane_opt
C  -3.932521   0.256836   0.037339
C  -2.702213  -0.597855   0.004916
H  -4.860645  -0.349958   0.066518
H  -3.955950   0.822700  -0.808856
H  -3.938950   0.990960   0.916032
C  -1.410496   0.183869   0.006465
H  -2.727150  -1.343837  -0.882933
H  -2.764096  -1.187332   0.889341
C  -0.154193  -0.700561   0.053556
H  -1.405317   0.803916   0.819725
H  -1.388615   0.863757  -0.938562
H  -0.130268  -1.409403   1.005910
H   0.738675  -0.124127  -0.077113
H  -0.191621  -1.248134  -0.753559
