butane_opt
 OpenBabel08242015403D

 14 13  0  0  0  0  0  0  0  0999 V2000
   -3.9979    0.3101   -0.1479 C   0  0  0  0  0  0  0  0  0  0  0  0
   -2.6861   -0.6898    0.3184 C   0  0  0  0  0  0  0  0  0  0  0  0
   -4.9248   -0.2154   -0.8814 H   0  0  0  0  0  0  0  0  0  0  0  0
   -3.5397    0.4576   -0.8743 H   0  0  0  0  0  0  0  0  0  0  0  0
   -4.5388    1.2944    0.7809 H   0  0  0  0  0  0  0  0  0  0  0  0
   -1.3234    0.2118    0.1074 C   0  0  0  0  0  0  0  0  0  0  0  0
   -2.4501   -1.1317   -0.3558 H   0  0  0  0  0  0  0  0  0  0  0  0
   -2.9016   -1.5323    1.3828 H   0  0  0  0  0  0  0  0  0  0  0  0
   -0.2031   -0.6958   -0.1635 C   0  0  0  0  0  0  0  0  0  0  0  0
   -1.0630    1.0914    1.1150 H   0  0  0  0  0  0  0  0  0  0  0  0
   -1.6768    0.5133   -0.6536 H   0  0  0  0  0  0  0  0  0  0  0  0
    0.0722   -1.2183    0.6260 H   0  0  0  0  0  0  0  0  0  0  0  0
    0.7064   -0.0402   -0.0349 H   0  0  0  0  0  0  0  0  0  0  0  0
   -0.1998   -1.3273   -0.9620 H   0  0  0  0  0  0  0  0  0  0  0  0
  1  2  1  0  0  0  0
  1  5  1  0  0  0  0
  2  8  1  0  0  0  0
  3  1  1  0  0  0  0
  4  1  1  0  0  0  0
  6  2  1  0  0  0  0
  6 10  1  0  0  0  0
  7  2  1  0  0  0  0
  9 13  1  0  0  0  0
  9  6  1  0  0  0  0
  9 12  1  0  0  0  0
 11  6  1  0  0  0  0
 14  9  1  0  0  0  0
M  END
$$$$
