butane_opt
 OpenBabel08242015403D

 14 13  0  0  0  0  0  0  0  0999 V2000
   -3.9329    0.3205   -0.1011 C   0  0  0  0  0  0  0  0  0  0  0  0
   -2.6480   -0.6532    0.0473 C   0  0  0  0  0  0  0  0  0  0  0  0
   -5.0390   -0.5065    0.2291 H   0  0  0  0  0  0  0  0  0  0  0  0
   -3.9814    0.9511   -0.9288 H   0  0  0  0  0  0  0  0  0  0  0  0
   -3.9484    0.9596    0.8180 H   0  0  0  0  0  0  0  0  0  0  0  0
   -1.3714    0.1336    0.2138 C   0  0  0  0  0  0  0  0  0  0  0  0
   -2.4818   -1.3481   -0.7208 H   0  0  0  0  0  0  0  0  0  0  0  0
   -2.6430   -1.0880    0.8895 H   0  0  0  0  0  0  0  0  0  0  0  0
   -0.2205   -0.6743   -0.0550 C   0  0  0  0  0  0  0  0  0  0  0  0
   -1.2590    0.6270    1.0189 H   0  0  0  0  0  0  0  0  0  0  0  0
   -1.5130    0.8514   -0.8057 H   0  0  0  0  0  0  0  0  0  0  0  0
    0.0182   -1.5495    0.9723 H   0  0  0  0  0  0  0  0  0  0  0  0
    0.6259    0.0596   -0.5609 H   0  0  0  0  0  0  0  0  0  0  0  0
   -0.7017   -0.9560   -0.6768 H   0  0  0  0  0  0  0  0  0  0  0  0
  1  2  1  0  0  0  0
  1  3  1  0  0  0  0
  1  5  1  0  0  0  0
  2  6  1  0  0  0  0
  2  8  1  0  0  0  0
  4  1  1  0  0  0  0
  6 10  1  0  0  0  0
  7  2  1  0  0  0  0
  9  6  1  0  0  0  0
  9 12  1  0  0  0  0
 11  6  1  0  0  0  0
 13  9  1  0  0  0  0
 14  9  1  0  0  0  0
M  END
$$$$
