14
butane_opt
C  -3.898196   0.209952   0.098754
C  -2.758847  -0.582906   0.054123
H  -4.915061  -0.420073  -0.661902
H  -3.527298   0.067018  -0.279847
H  -4.376927   1.623397   1.392658
C  -1.490166   0.307477  -0.145089
H  -2.814961  -1.487963  -1.003665
H  -2.969394  -1.063516   0.855278
C  -0.067718  -0.759080   0.129284
H  -1.355904   0.849915   0.564278
H  -1.428556   1.042889  -1.346811
H  -0.018052  -1.841512   1.196446
H   0.845022  -0.119383  -0.162725
H   0.117043  -1.251781  -0.603047
