butane_opt
 OpenBabel08242015403D

 14 12  0  0  0  0  0  0  0  0999 V2000
   -3.9958    0.2226   -0.1128 C   0  0  0  0  0  0  0  0  0  0  0  0
   -2.7443   -0.6216    0.2468 C   0  0  0  0  0  0  0  0  0  0  0  0
   -4.8536   -0.2495   -0.1960 H   0  0  0  0  0  0  0  0  0  0  0  0
   -3.6881    0.7852   -1.0636 H   0  0  0  0  0  0  0  0  0  0  0  0
   -4.2185    1.1238    0.7572 H   0  0  0  0  0  0  0  0  0  0  0  0
   -1.3666    0.2925    0.1029 C   0  0  0  0  0  0  0  0  0  0  0  0
   -2.6909   -1.4114   -0.7809 H   0  0  0  0  0  0  0  0  0  0  0  0
   -2.8752   -1.2797    1.1802 H   0  0  0  0  0  0  0  0  0  0  0  0
   -0.1201   -0.7422   -0.0726 C   0  0  0  0  0  0  0  0  0  0  0  0
   -1.0386    0.8978    0.8616 H   0  0  0  0  0  0  0  0  0  0  0  0
   -1.6682    1.0142   -0.8445 H   0  0  0  0  0  0  0  0  0  0  0  0
   -0.0614   -1.2248    0.6664 H   0  0  0  0  0  0  0  0  0  0  0  0
    0.8105   -0.0832    0.0501 H   0  0  0  0  0  0  0  0  0  0  0  0
   -0.0112   -1.8688   -1.1365 H   0  0  0  0  0  0  0  0  0  0  0  0
  1  2  1  0  0  0  0
  1  5  1  0  0  0  0
  2  8  1  0  0  0  0
  3  1  1  0  0  0  0
  4  1  1  0  0  0  0
  6  2  1  0  0  0  0
  6 10  1  0  0  0  0
  7  2  1  0  0  0  0
  9 13  1  0  0  0  0
  9  6  1  0  0  0  0
  9 12  1  0  0  0  0
 11  6  1  0  0  0  0
M  RAD  2   9   2  14   2
M  END
$$$$
