butane_opt
 OpenBabel08242015403D

 14 12  0  0  0  0  0  0  0  0999 V2000
   -4.0672    0.3129    0.1350 C   0  0  0  0  0  0  0  0  0  0  0  0
   -2.6689   -0.6796   -0.0436 C   0  0  0  0  0  0  0  0  0  0  0  0
   -4.9041   -0.2601    0.0586 H   0  0  0  0  0  0  0  0  0  0  0  0
   -4.2588    1.0864   -0.7425 H   0  0  0  0  0  0  0  0  0  0  0  0
   -3.9153    1.0615    1.1602 H   0  0  0  0  0  0  0  0  0  0  0  0
   -1.3299    0.0961   -0.1770 C   0  0  0  0  0  0  0  0  0  0  0  0
   -2.7547   -1.1696   -0.7865 H   0  0  0  0  0  0  0  0  0  0  0  0
   -2.6573   -1.2693    0.9282 H   0  0  0  0  0  0  0  0  0  0  0  0
   -0.1253   -0.6372    0.1239 C   0  0  0  0  0  0  0  0  0  0  0  0
   -1.1210    0.7119    0.5916 H   0  0  0  0  0  0  0  0  0  0  0  0
   -1.3179    0.7661   -1.1177 H   0  0  0  0  0  0  0  0  0  0  0  0
   -0.8214   -0.9013    0.9033 H   0  0  0  0  0  0  0  0  0  0  0  0
    0.7146    0.0552    0.8491 H   0  0  0  0  0  0  0  0  0  0  0  0
    0.3154   -1.6894   -0.9140 H   0  0  0  0  0  0  0  0  0  0  0  0
  1  5  1  0  0  0  0
  2  1  1  0  0  0  0
  2  8  1  0  0  0  0
  3  1  1  0  0  0  0
  4  1  1  0  0  0  0
  6  2  1  0  0  0  0
  6  9  1  0  0  0  0
  6 10  1  0  0  0  0
  7  2  1  0  0  0  0
  9 13  1  0  0  0  0
  9 12  1  0  0  0  0
 11  6  1  0  0  0  0
M  RAD  2   9   2  14   2
M  END
$$$$
