butane_opt
 OpenBabel08242015403D

 14 10  0  0  0  0  0  0  0  0999 V2000
   -3.9102    0.1993    0.1122 C   0  0  0  0  0  0  0  0  0  0  0  0
   -2.7052   -0.5140   -0.1154 C   0  0  0  0  0  0  0  0  0  0  0  0
   -4.7656   -0.4156    0.0019 H   0  0  0  0  0  0  0  0  0  0  0  0
   -4.0805    0.6166   -0.6028 H   0  0  0  0  0  0  0  0  0  0  0  0
   -3.5998    1.0253    1.2307 H   0  0  0  0  0  0  0  0  0  0  0  0
   -1.5034    0.1976   -0.0659 C   0  0  0  0  0  0  0  0  0  0  0  0
   -2.9375   -1.5542   -1.2564 H   0  0  0  0  0  0  0  0  0  0  0  0
   -2.6760   -0.9649    0.6997 H   0  0  0  0  0  0  0  0  0  0  0  0
   -0.1030   -0.7355    0.1286 C   0  0  0  0  0  1  0  0  0  0  0  0
   -1.3612    1.1061    0.7936 H   0  0  0  0  0  0  0  0  0  0  0  0
   -1.6074    0.7578   -0.8998 H   0  0  0  0  0  0  0  0  0  0  0  0
    0.0132   -2.0781    1.5854 H   0  0  0  0  0  0  0  0  0  0  0  0
    0.8534   -0.2019   -0.5370 H   0  0  0  0  0  0  0  0  0  0  0  0
   -0.1914   -0.5117   -0.1892 H   0  0  0  0  0  0  0  0  0  0  0  0
  1  5  1  0  0  0  0
  2  6  1  0  0  0  0
  2  1  1  0  0  0  0
  2  8  1  0  0  0  0
  3  1  1  0  0  0  0
  4  1  1  0  0  0  0
  6 10  1  0  0  0  0
 11  6  1  0  0  0  0
 13  9  1  0  0  0  0
 14  6  1  0  0  0  0
M  RAD  3   2   2   7   2  12   2
M  END
$$$$
