butane_opt
 OpenBabel08242015403D

 14 13  0  0  0  0  0  0  0  0999 V2000
   -3.9406    0.2523    0.0461 C   0  0  0  0  0  0  0  0  0  0  0  0
   -2.7129   -0.6068    0.0209 C   0  0  0  0  0  0  0  0  0  0  0  0
   -4.8645   -0.3454    0.0157 H   0  0  0  0  0  0  0  0  0  0  0  0
   -3.9770    0.8434   -0.8266 H   0  0  0  0  0  0  0  0  0  0  0  0
   -3.8883    0.9872    0.9605 H   0  0  0  0  0  0  0  0  0  0  0  0
   -1.4117    0.2001   -0.0361 C   0  0  0  0  0  0  0  0  0  0  0  0
   -2.7802   -1.2779   -0.8561 H   0  0  0  0  0  0  0  0  0  0  0  0
   -2.6950   -1.2387    0.9204 H   0  0  0  0  0  0  0  0  0  0  0  0
   -0.1465   -0.7086    0.0534 C   0  0  0  0  0  0  0  0  0  0  0  0
   -1.3929    0.8673    0.8195 H   0  0  0  0  0  0  0  0  0  0  0  0
   -1.3931    0.8591   -0.9485 H   0  0  0  0  0  0  0  0  0  0  0  0
   -0.2272   -1.2927    0.9768 H   0  0  0  0  0  0  0  0  0  0  0  0
    0.7677   -0.1268    0.1646 H   0  0  0  0  0  0  0  0  0  0  0  0
   -0.0284   -1.3988   -0.8011 H   0  0  0  0  0  0  0  0  0  0  0  0
  1  5  1  0  0  0  0
  2  1  1  0  0  0  0
  2  8  1  0  0  0  0
  3  1  1  0  0  0  0
  4  1  1  0  0  0  0
  6  2  1  0  0  0  0
  6  9  1  0  0  0  0
  6 10  1  0  0  0  0
  7  2  1  0  0  0  0
  9 13  1  0  0  0  0
  9 12  1  0  0  0  0
 11  6  1  0  0  0  0
 14  9  1  0  0  0  0
M  END
$$$$
