14
butane_opt
C  -3.910197   0.199290   0.112248
C  -2.705164  -0.514022  -0.115403
H  -4.765556  -0.415575   0.001900
H  -4.080484   0.616628  -0.602833
H  -3.599824   1.025324   1.230682
C  -1.503375   0.197589  -0.065875
H  -2.937456  -1.554194  -1.256422
H  -2.675982  -0.964901   0.699674
C  -0.102965  -0.735469   0.128551
H  -1.361163   1.106055   0.793625
H  -1.607386   0.757799  -0.899845
H   0.013206  -2.078062   1.585386
H   0.853449  -0.201875  -0.536958
H  -0.191412  -0.511712  -0.189236
