14
butane_opt
C  -4.023256   0.286744   0.151938
C  -2.696559  -0.623152  -0.216273
H  -4.936115  -0.271951   1.007288
H  -4.750924   1.165470  -0.874417
H  -3.667860   0.712820   0.940303
C  -1.356992   0.119743  -0.124795
H  -2.633684  -1.494378  -1.119388
H  -2.468332  -1.376625   0.592758
C  -0.121710  -0.642823   0.235203
H  -1.356607   0.897152   0.875013
H  -1.243889   0.859087  -1.048265
H  -0.267196  -1.247892   1.011303
H   0.695927  -0.170627   0.099329
H   0.011741  -1.209111  -0.617116
