butane_opt
 OpenBabel08242015403D

 14 11  0  0  0  0  0  0  0  0999 V2000
   -3.8449    0.1934    0.0050 C   0  0  0  0  0  0  0  0  0  0  0  0
   -2.7175   -0.4318   -0.0311 C   0  0  0  0  0  0  0  0  0  0  0  0
   -5.0681   -0.5518    0.6336 H   0  0  0  0  0  0  0  0  0  0  0  0
   -4.0189    1.0707   -1.0086 H   0  0  0  0  0  0  0  0  0  0  0  0
   -3.6260    0.4429    0.6541 H   0  0  0  0  0  0  0  0  0  0  0  0
   -1.4545    0.2141    0.0042 C   0  0  0  0  0  0  0  0  0  0  0  0
   -2.7531   -1.2098   -0.7606 H   0  0  0  0  0  0  0  0  0  0  0  0
   -2.7723   -1.3510    1.0954 H   0  0  0  0  0  0  0  0  0  0  0  0
   -0.1771   -0.7779    0.0719 C   0  0  0  0  0  0  0  0  0  0  0  0
   -1.3506    1.0669    1.0387 H   0  0  0  0  0  0  0  0  0  0  0  0
   -1.3095    0.6205   -0.7730 H   0  0  0  0  0  0  0  0  0  0  0  0
   -0.1118   -1.1061    0.7555 H   0  0  0  0  0  0  0  0  0  0  0  0
    0.6556   -0.2517    0.0751 H   0  0  0  0  0  0  0  0  0  0  0  0
   -0.2715   -1.6001   -0.9272 H   0  0  0  0  0  0  0  0  0  0  0  0
  1  5  1  0  0  0  0
  2  6  1  0  0  0  0
  2  1  1  0  0  0  0
  4  1  1  0  0  0  0
  6  9  1  0  0  0  0
  6 10  1  0  0  0  0
  7  2  1  0  0  0  0
  9 13  1  0  0  0  0
  9 12  1  0  0  0  0
 11  6  1  0  0  0  0
 14  9  1  0  0  0  0
M  RAD  4   1   2   2   2   3   2   8   2
M  END
$$$$
