14
butane_opt
C  -3.936431   0.212464   0.016065
C  -2.789177  -0.623193   0.018559
H  -4.933922  -0.266005  -0.331478
H  -3.875594   1.171548  -1.075223
H  -4.130180   0.948475   0.929269
C  -1.406616   0.276029   0.136769
H  -2.823508  -1.554501  -0.907608
H  -2.718719  -1.189562   0.772333
C  -0.052999  -0.738527  -0.007192
H  -1.209087   1.141459   1.053912
H  -1.544113   0.785220  -0.777208
H   0.209379  -1.911527   1.257692
H   0.710836  -0.325055  -0.879073
H  -0.440462  -0.792202  -0.537402
