14
butane_opt
C  -4.003282   0.337254  -0.070525
C  -2.720096  -0.707319   0.165194
H  -4.777413  -0.142758  -0.515019
H  -3.937296   0.892854  -0.936415
H  -4.270917   1.027396   0.753407
C  -1.344039   0.100665   0.078872
H  -2.471069  -0.893839  -0.281795
H  -2.580622  -1.669139   1.224635
C  -0.167585  -0.592123  -0.068395
H  -1.178681   0.716401   1.089208
H  -1.334341   0.701769  -0.788255
H  -0.100987  -0.877424   0.538967
H   0.679852  -0.086012   0.201368
H  -0.269407  -1.792463  -1.169368
