butane_opt
 OpenBabel08242015403D

 14 13  0  0  0  0  0  0  0  0999 V2000
   -3.9189    0.1942    0.1681 C   0  0  0  0  0  0  0  0  0  0  0  0
   -2.7895   -0.5919   -0.2437 C   0  0  0  0  0  0  0  0  0  0  0  0
   -4.8178   -0.1744    0.9530 H   0  0  0  0  0  0  0  0  0  0  0  0
   -4.4154    1.0637   -0.7507 H   0  0  0  0  0  0  0  0  0  0  0  0
   -3.2299    0.6293    1.0885 H   0  0  0  0  0  0  0  0  0  0  0  0
   -1.4312    0.2990   -0.1173 C   0  0  0  0  0  0  0  0  0  0  0  0
   -2.9969   -1.3830   -1.0881 H   0  0  0  0  0  0  0  0  0  0  0  0
   -2.6267   -1.0204    0.4342 H   0  0  0  0  0  0  0  0  0  0  0  0
   -0.0962   -0.7503    0.2236 C   0  0  0  0  0  0  0  0  0  0  0  0
   -1.6715    0.9590    0.5990 H   0  0  0  0  0  0  0  0  0  0  0  0
   -1.3175    0.8641   -1.0578 H   0  0  0  0  0  0  0  0  0  0  0  0
   -0.2113   -1.6318    1.3422 H   0  0  0  0  0  0  0  0  0  0  0  0
    0.7300   -0.2438    0.0091 H   0  0  0  0  0  0  0  0  0  0  0  0
    0.3339   -1.3255   -0.4962 H   0  0  0  0  0  0  0  0  0  0  0  0
  1  3  1  0  0  0  0
  1  5  1  0  0  0  0
  2  6  1  0  0  0  0
  2  1  1  0  0  0  0
  2  8  1  0  0  0  0
  4  1  1  0  0  0  0
  6  9  1  0  0  0  0
  6 10  1  0  0  0  0
  7  2  1  0  0  0  0
  9 12  1  0  0  0  0
 11  6  1  0  0  0  0
 13  9  1  0  0  0  0
 14  9  1  0  0  0  0
M  END
$$$$
