butane_opt
 OpenBabel08242015403D

 14 13  0  0  0  0  0  0  0  0999 V2000
   -3.9365    0.2762    0.0293 C   0  0  0  0  0  0  0  0  0  0  0  0
   -2.6939   -0.6278    0.0363 C   0  0  0  0  0  0  0  0  0  0  0  0
   -4.8285   -0.3152   -0.0513 H   0  0  0  0  0  0  0  0  0  0  0  0
   -3.9362    0.8266   -0.8493 H   0  0  0  0  0  0  0  0  0  0  0  0
   -3.9931    0.9631    0.9147 H   0  0  0  0  0  0  0  0  0  0  0  0
   -1.4052    0.1845   -0.0102 C   0  0  0  0  0  0  0  0  0  0  0  0
   -2.7487   -1.3081   -0.8060 H   0  0  0  0  0  0  0  0  0  0  0  0
   -2.7303   -1.2442    0.9388 H   0  0  0  0  0  0  0  0  0  0  0  0
   -0.1692   -0.6951    0.0431 C   0  0  0  0  0  0  0  0  0  0  0  0
   -1.4002    0.8900    0.8432 H   0  0  0  0  0  0  0  0  0  0  0  0
   -1.4003    0.7679   -0.8548 H   0  0  0  0  0  0  0  0  0  0  0  0
   -0.1451   -1.3243    0.9453 H   0  0  0  0  0  0  0  0  0  0  0  0
    0.7724   -0.0765   -0.0232 H   0  0  0  0  0  0  0  0  0  0  0  0
   -0.1612   -1.2984   -0.7955 H   0  0  0  0  0  0  0  0  0  0  0  0
  1  2  1  0  0  0  0
  1  5  1  0  0  0  0
  2  8  1  0  0  0  0
  3  1  1  0  0  0  0
  4  1  1  0  0  0  0
  6  2  1  0  0  0  0
  6  9  1  0  0  0  0
  6 10  1  0  0  0  0
  7  2  1  0  0  0  0
  9 12  1  0  0  0  0
 11  6  1  0  0  0  0
 13  9  1  0  0  0  0
 14  9  1  0  0  0  0
M  END
$$$$
