14
butane_opt
C  -3.865045   0.337612   0.185744
C  -2.660175  -0.752243  -0.139556
H  -4.757405  -0.263154  -0.277926
H  -3.947715   0.726582  -0.557656
H  -4.211725   1.305295   1.234151
C  -1.428672   0.127532  -0.092431
H  -2.766695  -1.477470  -1.098119
H  -2.431214  -1.029092   0.393624
C  -0.222275  -0.612520   0.178232
H  -1.549050   0.731264   0.748491
H  -1.546220   0.904904  -1.152624
H  -0.041583  -1.915893   1.486964
H   0.868199   0.125230  -0.579994
H  -0.570633  -0.744890  -0.237121
