14
butane_opt
C  -4.017329   0.293480   0.154042
C  -2.709927  -0.690861   0.006388
H  -4.799819  -0.165619  -0.090282
H  -3.880526   0.720114  -0.599191
H  -4.014314   1.197153   1.047441
C  -1.360194   0.169607  -0.206681
H  -3.069527  -1.365855  -1.078482
H  -2.554992  -1.145485   0.755799
C  -0.144779  -0.658230   0.166488
H  -1.440388   0.824833   0.605528
H  -0.957951   0.995745  -1.274979
H  -0.459024  -1.036291   0.947189
H   0.562092  -0.282313   0.427491
H   0.358246  -1.625104  -0.789207
