14
butane_opt
C  -3.943646   0.248251   0.049465
C  -2.709175  -0.605977  -0.001867
H  -4.839264  -0.323365   0.175098
H  -4.082821   0.926259  -0.902636
H  -3.895634   0.875036   0.898691
C  -1.408741   0.200960  -0.012265
H  -2.712267  -1.357796  -0.904857
H  -2.731773  -1.180241   0.851464
C  -0.149279  -0.706935   0.063804
H  -1.415174   0.886021   0.813272
H  -1.382875   0.856020  -0.931061
H  -0.084267  -1.336043   0.966402
H   0.744677  -0.126654   0.046238
H  -0.087140  -1.324485  -0.757672
