butane_opt
 OpenBabel08242015403D

 14 11  0  0  0  0  0  0  0  0999 V2000
   -3.9266    0.3046    0.1011 C   0  0  0  0  0  1  0  0  0  0  0  0
   -2.6277   -0.6823   -0.0265 C   0  0  0  0  0  0  0  0  0  0  0  0
   -4.7882   -0.1557   -0.8094 H   0  0  0  0  0  0  0  0  0  0  0  0
   -3.7647    0.0552   -0.1351 H   0  0  0  0  0  0  0  0  0  0  0  0
   -4.2538    1.6350    1.4209 H   0  0  0  0  0  0  0  0  0  0  0  0
   -1.3795    0.1500   -0.1341 C   0  0  0  0  0  0  0  0  0  0  0  0
   -2.6644   -1.1610   -0.7556 H   0  0  0  0  0  0  0  0  0  0  0  0
   -2.4048   -1.4375    0.9566 H   0  0  0  0  0  0  0  0  0  0  0  0
   -0.2290   -0.6279    0.1570 C   0  0  0  0  0  0  0  0  0  0  0  0
   -1.5412    0.6031    0.5783 H   0  0  0  0  0  0  0  0  0  0  0  0
   -1.4583    0.9942   -1.1180 H   0  0  0  0  0  0  0  0  0  0  0  0
   -0.4304   -1.5647    1.1527 H   0  0  0  0  0  0  0  0  0  0  0  0
    0.5997    0.0066   -0.3128 H   0  0  0  0  0  0  0  0  0  0  0  0
   -0.3631   -1.2094   -0.6436 H   0  0  0  0  0  0  0  0  0  0  0  0
  2  8  1  0  0  0  0
  3  1  1  0  0  0  0
  4  2  1  0  0  0  0
  6  2  1  0  0  0  0
  6  9  1  0  0  0  0
  6 10  1  0  0  0  0
  7  2  1  0  0  0  0
  9 12  1  0  0  0  0
 11  6  1  0  0  0  0
 13  9  1  0  0  0  0
 14  9  1  0  0  0  0
M  RAD  1   5   2
M  END
$$$$
