butane_opt
 OpenBabel08242015403D

 14 12  0  0  0  0  0  0  0  0999 V2000
   -4.0278    0.2505   -0.0804 C   0  0  0  0  0  0  0  0  0  0  0  0
   -2.6639   -0.5990    0.1179 C   0  0  0  0  0  0  0  0  0  0  0  0
   -5.0862   -0.5369   -0.0908 H   0  0  0  0  0  0  0  0  0  0  0  0
   -3.8810    1.0285   -1.2550 H   0  0  0  0  0  0  0  0  0  0  0  0
   -3.9972    0.8617    0.6922 H   0  0  0  0  0  0  0  0  0  0  0  0
   -1.3975    0.2077    0.1806 C   0  0  0  0  0  0  0  0  0  0  0  0
   -2.4520   -1.1424   -0.5919 H   0  0  0  0  0  0  0  0  0  0  0  0
   -2.9945   -1.2049    1.0960 H   0  0  0  0  0  0  0  0  0  0  0  0
   -0.0997   -0.7019   -0.1307 C   0  0  0  0  0  0  0  0  0  0  0  0
   -1.1494    1.0809    1.2808 H   0  0  0  0  0  0  0  0  0  0  0  0
   -1.5214    0.4560   -0.5154 H   0  0  0  0  0  0  0  0  0  0  0  0
   -0.0381   -1.6711    1.0452 H   0  0  0  0  0  0  0  0  0  0  0  0
    0.7156   -0.2635   -0.4066 H   0  0  0  0  0  0  0  0  0  0  0  0
   -0.3088   -0.9798   -0.8214 H   0  0  0  0  0  0  0  0  0  0  0  0
  1  2  1  0  0  0  0
  1  5  1  0  0  0  0
  2  6  1  0  0  0  0
  2  8  1  0  0  0  0
  3  1  1  0  0  0  0
  4  1  1  0  0  0  0
  6 10  1  0  0  0  0
  7  2  1  0  0  0  0
  9  6  1  0  0  0  0
 11  6  1  0  0  0  0
 13  9  1  0  0  0  0
 14  9  1  0  0  0  0
M  RAD  2   9   2  12   2
M  END
$$$$
