14
butane_opt
C  -3.963549   0.231837  -0.052684
C  -2.707799  -0.603964   0.129263
H  -5.087939  -0.397566   0.512126
H  -3.947435   1.640976  -1.657983
H  -3.798344  -0.198890  -0.018874
C  -1.390601   0.338285   0.199097
H  -2.793744  -1.267473  -0.739677
H  -2.911868  -0.976749   0.990744
C  -0.164713  -0.774305  -0.098485
H  -1.261824   1.085765   1.189667
H  -1.417063   0.622285  -0.473677
H   0.190347  -1.163767   0.577565
H   0.719245  -0.219131   0.045932
H   0.005233  -1.912804  -1.257595
