butane_opt
 OpenBabel08242015403D

 14 10  0  0  0  0  0  0  0  0999 V2000
   -3.8896    0.2202   -0.1229 C   0  0  0  0  0  0  0  0  0  0  0  0
   -2.7410   -0.5846    0.1822 C   0  0  0  0  0  0  0  0  0  0  0  0
   -4.9805   -0.4999    0.2547 H   0  0  0  0  0  0  0  0  0  0  0  0
   -3.6741    1.0702   -1.2131 H   0  0  0  0  0  0  0  0  0  0  0  0
   -3.6208    0.7366    0.7313 H   0  0  0  0  0  0  0  0  0  0  0  0
   -1.4130    0.2970    0.1050 C   0  0  0  0  0  0  0  0  0  0  0  0
   -2.6966   -0.8231   -0.3156 H   0  0  0  0  0  0  0  0  0  0  0  0
   -2.7657   -1.6483    1.2373 H   0  0  0  0  0  0  0  0  0  0  0  0
   -0.2075   -0.7438   -0.0996 C   0  0  0  0  0  0  0  0  0  0  0  0
   -1.4000    0.9358    0.9068 H   0  0  0  0  0  0  0  0  0  0  0  0
   -1.5596    0.8161   -0.7113 H   0  0  0  0  0  0  0  0  0  0  0  0
   -0.2646   -0.8265    0.3307 H   0  0  0  0  0  0  0  0  0  0  0  0
    0.6442   -0.3859    0.8323 H   0  0  0  0  0  0  0  0  0  0  0  0
    0.2981   -2.1276   -1.4651 H   0  0  0  0  0  0  0  0  0  0  0  0
  1  2  1  0  0  0  0
  1  3  1  0  0  0  0
  1  5  1  0  0  0  0
  2  8  1  0  0  0  0
  4  1  1  0  0  0  0
  6  2  1  0  0  0  0
  6 10  1  0  0  0  0
  9  6  1  0  0  0  0
  9 13  1  0  0  0  0
 11  6  1  0  0  0  0
M  RAD  5   2   2   7   2   9   3  12   2  14   2
M  END
$$$$
