butane_opt
 OpenBabel08242015403D

 14 12  0  0  0  0  0  0  0  0999 V2000
   -3.9648    0.2812    0.1946 C   0  0  0  0  0  0  0  0  0  0  0  0
   -2.6464   -0.6564   -0.0327 C   0  0  0  0  0  0  0  0  0  0  0  0
   -4.7175   -0.1965   -0.3069 H   0  0  0  0  0  0  0  0  0  0  0  0
   -3.9483    0.8203   -0.5555 H   0  0  0  0  0  0  0  0  0  0  0  0
   -3.8648    1.4257    1.3614 H   0  0  0  0  0  0  0  0  0  0  0  0
   -1.4057    0.1185   -0.2306 C   0  0  0  0  0  0  0  0  0  0  0  0
   -2.6527   -1.6213   -1.1589 H   0  0  0  0  0  0  0  0  0  0  0  0
   -2.4554   -1.2836    0.7702 H   0  0  0  0  0  0  0  0  0  0  0  0
   -0.2038   -0.6523    0.1587 C   0  0  0  0  0  0  0  0  0  0  0  0
   -1.6515    0.5742    0.4562 H   0  0  0  0  0  0  0  0  0  0  0  0
   -1.3311    0.9976   -1.3212 H   0  0  0  0  0  0  0  0  0  0  0  0
   -0.7626   -1.1293    1.1557 H   0  0  0  0  0  0  0  0  0  0  0  0
    0.8812    0.2394    0.6336 H   0  0  0  0  0  0  0  0  0  0  0  0
    0.0945   -1.3573   -0.6731 H   0  0  0  0  0  0  0  0  0  0  0  0
  2  1  1  0  0  0  0
  2  8  1  0  0  0  0
  3  1  1  0  0  0  0
  4  1  1  0  0  0  0
  6  2  1  0  0  0  0
  6  9  1  0  0  0  0
  6 10  1  0  0  0  0
  7  2  1  0  0  0  0
  9 13  1  0  0  0  0
  9 12  1  0  0  0  0
 11  6  1  0  0  0  0
 14  9  1  0  0  0  0
M  RAD  2   1   2   5   2
M  END
$$$$
