butane_opt
 OpenBabel08242015403D

 14 12  0  0  0  0  0  0  0  0999 V2000
   -3.9361    0.3177    0.0209 C   0  0  0  0  0  0  0  0  0  0  0  0
   -2.7417   -0.7009    0.1569 C   0  0  0  0  0  0  0  0  0  0  0  0
   -4.6396   -0.1646   -0.2003 H   0  0  0  0  0  0  0  0  0  0  0  0
   -4.0195    1.1387   -1.0824 H   0  0  0  0  0  0  0  0  0  0  0  0
   -4.2636    0.8377    0.6829 H   0  0  0  0  0  0  0  0  0  0  0  0
   -1.3590    0.1418   -0.0234 C   0  0  0  0  0  0  0  0  0  0  0  0
   -2.7682   -1.1775   -0.6178 H   0  0  0  0  0  0  0  0  0  0  0  0
   -2.8989   -1.4101    1.0075 H   0  0  0  0  0  0  0  0  0  0  0  0
   -0.1700   -0.6428   -0.0367 C   0  0  0  0  0  0  0  0  0  0  0  0
   -1.3931    0.9064    0.7814 H   0  0  0  0  0  0  0  0  0  0  0  0
   -1.4675    0.7262   -0.7886 H   0  0  0  0  0  0  0  0  0  0  0  0
   -0.3046   -0.8873    0.6562 H   0  0  0  0  0  0  0  0  0  0  0  0
    0.8411    0.0851    0.7195 H   0  0  0  0  0  0  0  0  0  0  0  0
    0.3049   -1.8934   -1.1956 H   0  0  0  0  0  0  0  0  0  0  0  0
  1  2  1  0  0  0  0
  1  5  1  0  0  0  0
  2  8  1  0  0  0  0
  3  1  1  0  0  0  0
  4  1  1  0  0  0  0
  6  2  1  0  0  0  0
  6 10  1  0  0  0  0
  7  2  1  0  0  0  0
  9  6  1  0  0  0  0
  9 12  1  0  0  0  0
  9 13  1  0  0  0  0
 11  6  1  0  0  0  0
M  RAD  2   9   2  14   2
M  END
$$$$
