butane_opt
 OpenBabel08242015403D

 14 10  0  0  0  0  0  0  0  0999 V2000
   -4.0196    0.3036    0.1403 C   0  0  0  0  0  0  0  0  0  0  0  0
   -2.7057   -0.6887   -0.0215 C   0  0  0  0  0  0  0  0  0  0  0  0
   -4.7773   -0.1541   -0.3555 H   0  0  0  0  0  0  0  0  0  0  0  0
   -3.8516    0.4337   -0.4225 H   0  0  0  0  0  0  0  0  0  0  0  0
   -3.9991    1.7082    1.5113 H   0  0  0  0  0  0  0  0  0  0  0  0
   -1.3743    0.2002   -0.2195 C   0  0  0  0  0  0  0  0  0  0  0  0
   -2.7397   -1.5299   -1.0899 H   0  0  0  0  0  0  0  0  0  0  0  0
   -2.7265   -1.4254    0.8896 H   0  0  0  0  0  0  0  0  0  0  0  0
   -0.1659   -0.6746    0.1174 C   0  0  0  0  0  0  0  0  0  0  0  0
   -1.2058    0.7283    0.6616 H   0  0  0  0  0  0  0  0  0  0  0  0
   -1.0745    0.7493   -1.1150 H   0  0  0  0  0  0  0  0  0  0  0  0
   -0.3959   -1.5664    1.4837 H   0  0  0  0  0  0  0  0  0  0  0  0
    0.7158   -0.0309    0.3097 H   0  0  0  0  0  0  0  0  0  0  0  0
    0.1794   -1.0442   -0.5302 H   0  0  0  0  0  0  0  0  0  0  0  0
  2  1  1  0  0  0  0
  2  8  1  0  0  0  0
  3  1  1  0  0  0  0
  6  2  1  0  0  0  0
  6  9  1  0  0  0  0
  6 10  1  0  0  0  0
  7  2  1  0  0  0  0
  9 13  1  0  0  0  0
 11  6  1  0  0  0  0
 14  9  1  0  0  0  0
M  RAD  5   1   3   4   2   5   2   9   2  12   2
M  END
$$$$
