14
butane_opt
C  -3.943866   0.274276   0.044309
C  -2.681379  -0.636269   0.001443
H  -4.809120  -0.286881   0.055546
H  -3.946400   0.848260  -0.833357
H  -3.972859   0.983546   0.946166
C  -1.406089   0.181478  -0.003197
H  -2.718175  -1.321987  -0.867954
H  -2.719599  -1.216666   0.861753
C  -0.176409  -0.684499   0.060297
H  -1.447741   0.809538   0.819235
H  -1.346350   0.838215  -0.917323
H  -0.133175  -1.407288   1.005370
H   0.772561  -0.049233  -0.075613
H  -0.221504  -1.275891  -0.771561
