14
butane_opt
C  -3.996987   0.228587   0.190109
C  -2.727913  -0.616520  -0.122713
H  -4.813731  -0.284618   0.172502
H  -4.024870   0.596513  -0.547945
H  -3.779836   1.071648   1.291368
C  -1.380996   0.327444  -0.237361
H  -3.016713  -1.450559  -0.908352
H  -2.720059  -1.000744   0.592470
C  -0.138090  -0.759112   0.192882
H  -1.187673   0.809088   0.475340
H  -1.322307   0.920244  -1.129761
H  -0.293520  -1.658669   1.263899
H   0.729909  -0.226849   0.619859
H   0.323991  -1.403579  -0.599445
