butane_opt
 OpenBabel08242015403D

 14 11  0  0  0  0  0  0  0  0999 V2000
   -3.8962    0.3132   -0.0871 C   0  0  0  0  0  0  0  0  0  0  0  0
   -2.6443   -0.6797    0.0627 C   0  0  0  0  0  0  0  0  0  0  0  0
   -4.4713   -0.1073   -0.0882 H   0  0  0  0  0  0  0  0  0  0  0  0
   -4.0249    0.9977   -0.9860 H   0  0  0  0  0  0  0  0  0  0  0  0
   -4.0716    1.0416    0.7369 H   0  0  0  0  0  0  0  0  0  0  0  0
   -1.4074    0.1159    0.1493 C   0  0  0  0  0  0  0  0  0  0  0  0
   -2.6462   -1.1773   -0.6868 H   0  0  0  0  0  0  0  0  0  0  0  0
   -2.7747   -1.3937    1.0712 H   0  0  0  0  0  0  0  0  0  0  0  0
   -0.2890   -0.6448   -0.0218 C   0  0  0  0  0  0  0  0  0  0  0  0
   -1.1893    0.9602    1.2306 H   0  0  0  0  0  0  0  0  0  0  0  0
   -1.3274    0.3954   -0.3912 H   0  0  0  0  0  0  0  0  0  0  0  0
    0.1570   -1.5675    1.0691 H   0  0  0  0  0  0  0  0  0  0  0  0
    0.8769    0.2286   -1.0622 H   0  0  0  0  0  0  0  0  0  0  0  0
   -0.7589   -1.0221   -0.6919 H   0  0  0  0  0  0  0  0  0  0  0  0
  1  2  1  0  0  0  0
  1  5  1  0  0  0  0
  2  6  1  0  0  0  0
  2  8  1  0  0  0  0
  3  1  1  0  0  0  0
  4  1  1  0  0  0  0
  6 10  1  0  0  0  0
  7  2  1  0  0  0  0
  9  6  1  0  0  0  0
  9 12  1  0  0  0  0
 14  9  1  0  0  0  0
M  RAD  4   6   2   9   2  11   2  13   2
M  END
$$$$
