14
butane_opt
C  -3.969793   0.223280   0.167733
C  -2.765790  -0.585855  -0.058352
H  -5.029830  -0.591231  -0.887650
H  -3.729762   0.198951  -0.296585
H  -4.050179   1.750119   1.577182
C  -1.402571   0.255005  -0.182680
H  -2.745087  -1.199065  -0.697388
H  -2.864684  -1.183771   0.860357
C  -0.069483  -0.755381   0.134734
H  -1.604900   0.796561   0.494894
H  -1.557215   0.917171  -1.078415
H  -0.041055  -1.804395   1.251753
H   0.798253  -0.126430  -0.037594
H   0.293171  -0.895076  -0.369058
