butane_opt
 OpenBabel08242015403D

 14 13  0  0  0  0  0  0  0  0999 V2000
   -3.9377    0.2495   -0.0223 C   0  0  0  0  0  0  0  0  0  0  0  0
   -2.6956   -0.5992    0.0662 C   0  0  0  0  0  0  0  0  0  0  0  0
   -4.9021   -0.3852    0.0736 H   0  0  0  0  0  0  0  0  0  0  0  0
   -3.9348    0.9346   -0.9387 H   0  0  0  0  0  0  0  0  0  0  0  0
   -3.9446    0.9006    0.8300 H   0  0  0  0  0  0  0  0  0  0  0  0
   -1.4134    0.1987    0.0514 C   0  0  0  0  0  0  0  0  0  0  0  0
   -2.7370   -1.2768   -0.7911 H   0  0  0  0  0  0  0  0  0  0  0  0
   -2.7535   -1.2408    0.9690 H   0  0  0  0  0  0  0  0  0  0  0  0
   -0.1536   -0.7101   -0.0034 C   0  0  0  0  0  0  0  0  0  0  0  0
   -1.3811    0.9583    0.9794 H   0  0  0  0  0  0  0  0  0  0  0  0
   -1.4838    0.7590   -0.7967 H   0  0  0  0  0  0  0  0  0  0  0  0
   -0.0754   -1.3825    0.9224 H   0  0  0  0  0  0  0  0  0  0  0  0
    0.7765   -0.0959   -0.0918 H   0  0  0  0  0  0  0  0  0  0  0  0
   -0.1792   -1.3091   -0.8153 H   0  0  0  0  0  0  0  0  0  0  0  0
  1  2  1  0  0  0  0
  1  3  1  0  0  0  0
  1  5  1  0  0  0  0
  2  8  1  0  0  0  0
  4  1  1  0  0  0  0
  6  2  1  0  0  0  0
  6 10  1  0  0  0  0
  7  2  1  0  0  0  0
  9  6  1  0  0  0  0
  9 12  1  0  0  0  0
 11  6  1  0  0  0  0
 13  9  1  0  0  0  0
 14  9  1  0  0  0  0
M  END
$$$$
