14
butane_opt
C  -3.907012   0.307600   0.144975
C  -2.743067  -0.616587  -0.074390
H  -4.721668  -0.122552   0.594800
H  -4.260493   1.316620  -1.098451
H  -3.779432   0.497115   0.719903
C  -1.389442   0.060146  -0.074450
H  -2.779687  -1.649374  -1.306832
H  -2.516363  -0.924521   0.468926
C  -0.157813  -0.636409   0.143111
H  -1.556756   0.885626   0.975163
H  -1.151345   0.758645  -1.132095
H  -0.353242  -1.311819   1.110098
H   0.886364  -0.046781   0.036106
H  -0.441183  -1.205816  -0.637198
