butane_opt
 OpenBabel08242015403D

 14  9  0  0  0  0  0  0  0  0999 V2000
   -3.9356    0.2941    0.1492 C   0  0  0  0  0  0  0  0  0  0  0  0
   -2.6517   -0.5895   -0.1573 C   0  0  0  0  0  0  0  0  0  0  0  0
   -4.7232   -0.3235   -0.1625 H   0  0  0  0  0  0  0  0  0  0  0  0
   -3.8686    0.4673   -0.4960 H   0  0  0  0  0  0  0  0  0  0  0  0
   -4.1156    1.4039    1.3146 H   0  0  0  0  0  0  0  0  0  0  0  0
   -1.4310    0.0941   -0.0795 C   0  0  0  0  0  0  0  0  0  0  0  0
   -2.5991   -1.3998   -0.9937 H   0  0  0  0  0  0  0  0  0  0  0  0
   -2.6542   -1.2952    0.6964 H   0  0  0  0  0  0  0  0  0  0  0  0
   -0.2325   -0.6633    0.1491 C   0  0  0  0  0 15  0  0  0  0  0  0
   -1.5358    0.7183    0.8061 H   0  0  0  0  0  0  0  0  0  0  0  0
   -1.1308    0.8036   -0.9210 H   0  0  0  0  0  0  0  0  0  0  0  0
   -0.0170   -1.9681    1.5264 H   0  0  0  0  0  0  0  0  0  0  0  0
    1.0403    0.3070   -0.7195 H   0  0  0  0  0  0  0  0  0  0  0  0
   -0.4590   -0.7290   -0.2438 H   0  0  0  0  0  0  0  0  0  0  0  0
  2  6  1  0  0  0  0
  2  1  1  0  0  0  0
  2  8  1  0  0  0  0
  3  1  1  0  0  0  0
  4  1  1  0  0  0  0
  6 10  1  0  0  0  0
  7  2  1  0  0  0  0
 11  6  1  0  0  0  0
 14  6  1  0  0  0  0
M  RAD  4   1   2   5   2  12   2  13   2
M  END
$$$$
