14
butane_opt
C  -3.895075   0.343602   0.202448
C  -2.732383  -0.699137  -0.270435
H  -4.685845  -0.153134   0.868023
H  -4.587296   1.189617  -0.711019
H  -3.504218   0.638533   0.971623
C  -1.375880   0.144858  -0.143696
H  -2.685106  -1.466767  -1.268105
H  -2.514519  -1.292046   0.662350
C  -0.216131  -0.674607   0.208376
H  -1.390757   0.769572   0.777878
H  -1.328690   0.828067  -0.990546
H  -0.400090  -1.502202   1.265383
H   0.842578   0.251587   0.358685
H  -0.168640  -1.063226  -0.445257
