14
butane_opt
C  -3.958828   0.226231   0.151706
C  -2.794067  -0.596554  -0.021955
H  -4.775468  -0.520655  -0.022025
H  -4.007388   0.977298  -0.744634
H  -3.831870   0.920756   1.059107
C  -1.387199   0.271187  -0.207468
H  -2.939486  -1.363004  -0.926066
H  -2.552251  -1.151598   0.838174
C  -0.094417  -0.738534   0.188287
H  -1.351154   0.784111   0.669906
H  -1.280389   1.182301  -1.303615
H  -0.246971  -0.983292   0.802798
H   0.600674  -0.365448   0.752887
H   0.204253  -1.944890  -1.078173
