butane_opt
 OpenBabel08242015403D

 14 13  0  0  0  0  0  0  0  0999 V2000
   -3.9609    0.2246   -0.1407 C   0  0  0  0  0  0  0  0  0  0  0  0
   -2.7469   -0.5838    0.0754 C   0  0  0  0  0  0  0  0  0  0  0  0
   -4.7941   -0.1610    0.4104 H   0  0  0  0  0  0  0  0  0  0  0  0
   -3.9371    0.9503   -1.1583 H   0  0  0  0  0  0  0  0  0  0  0  0
   -3.8700    0.6967    0.6045 H   0  0  0  0  0  0  0  0  0  0  0  0
   -1.4057    0.2673    0.2062 C   0  0  0  0  0  0  0  0  0  0  0  0
   -2.7930   -1.1185   -0.5975 H   0  0  0  0  0  0  0  0  0  0  0  0
   -2.6841   -1.3960    1.1792 H   0  0  0  0  0  0  0  0  0  0  0  0
   -0.1351   -0.7205   -0.0507 C   0  0  0  0  0  0  0  0  0  0  0  0
   -1.2645    0.9913    1.1851 H   0  0  0  0  0  0  0  0  0  0  0  0
   -1.2460    0.3827   -0.4887 H   0  0  0  0  0  0  0  0  0  0  0  0
    0.4243   -1.4990    0.7843 H   0  0  0  0  0  0  0  0  0  0  0  0
    0.5539   -0.3264   -0.6036 H   0  0  0  0  0  0  0  0  0  0  0  0
   -0.4296   -1.2092   -0.9673 H   0  0  0  0  0  0  0  0  0  0  0  0
  1  2  1  0  0  0  0
  1  3  1  0  0  0  0
  1  5  1  0  0  0  0
  2  6  1  0  0  0  0
  2  8  1  0  0  0  0
  4  1  1  0  0  0  0
  6 10  1  0  0  0  0
  7  2  1  0  0  0  0
  9  6  1  0  0  0  0
  9 12  1  0  0  0  0
 11  6  1  0  0  0  0
 13  9  1  0  0  0  0
 14  9  1  0  0  0  0
M  END
$$$$
