14
butane_opt
C  -4.019630   0.303617   0.140251
C  -2.705675  -0.688744  -0.021547
H  -4.777305  -0.154115  -0.355475
H  -3.851633   0.433744  -0.422479
H  -3.999135   1.708184   1.511283
C  -1.374270   0.200204  -0.219545
H  -2.739668  -1.529866  -1.089879
H  -2.726514  -1.425365   0.889623
C  -0.165946  -0.674587   0.117449
H  -1.205792   0.728299   0.661601
H  -1.074539   0.749325  -1.115045
H  -0.395877  -1.566392   1.483746
H   0.715822  -0.030884   0.309706
H   0.179378  -1.044183  -0.530228
