butane_opt
 OpenBabel08242015403D

 14  9  0  0  0  0  0  0  0  0999 V2000
   -3.9073    0.2444    0.0951 C   0  0  0  0  0  1  0  0  0  0  0  0
   -2.7420   -0.5579    0.0606 C   0  0  0  0  0  0  0  0  0  0  0  0
   -5.0006   -0.6632   -0.4991 H   0  0  0  0  0  0  0  0  0  0  0  0
   -3.2623    0.3009   -0.5393 H   0  0  0  0  0  0  0  0  0  0  0  0
   -4.1275    1.3186    1.3634 H   0  0  0  0  0  0  0  0  0  0  0  0
   -1.4479    0.2534   -0.1145 C   0  0  0  0  0  0  0  0  0  0  0  0
   -2.8232   -1.2081   -0.8812 H   0  0  0  0  0  0  0  0  0  0  0  0
   -2.6269   -0.9192    0.6401 H   0  0  0  0  0  0  0  0  0  0  0  0
   -0.1687   -0.7784    0.0869 C   0  0  0  0  0  0  0  0  0  0  0  0
   -1.4794    0.6643    0.6259 H   0  0  0  0  0  0  0  0  0  0  0  0
   -1.1716    0.9902   -1.2292 H   0  0  0  0  0  0  0  0  0  0  0  0
   -0.1609   -1.5575    1.0778 H   0  0  0  0  0  0  0  0  0  0  0  0
    0.7854   -0.1739    0.1077 H   0  0  0  0  0  0  0  0  0  0  0  0
    0.0410   -1.1900   -0.6750 H   0  0  0  0  0  0  0  0  0  0  0  0
  2  8  1  0  0  0  0
  4  1  1  0  0  0  0
  6  9  1  0  0  0  0
  6 10  1  0  0  0  0
  7  2  1  0  0  0  0
  9 13  1  0  0  0  0
  9 12  1  0  0  0  0
 11  6  1  0  0  0  0
 14  9  1  0  0  0  0
M  RAD  4   2   3   3   2   5   2   6   2
M  END
$$$$
