14
butane_opt
C  -3.910628   0.272201  -0.082013
C  -2.640170  -0.668140   0.236648
H  -4.626888  -0.139962  -0.691021
H  -3.529908   0.653264  -0.779007
H  -4.323123   1.384526   1.003376
C  -1.463964   0.116822   0.097601
H  -2.631758  -1.271198  -0.717795
H  -2.771982  -1.098053   1.013697
C  -0.195897  -0.626842  -0.091703
H  -1.363159   0.566181   0.795223
H  -1.589564   0.845693  -0.870170
H  -0.354545  -1.294012   0.966327
H   0.791250   0.126671  -0.227484
H  -0.147133  -1.365305  -0.953090
