butane_opt
 OpenBabel08242015403D

 14  9  0  0  0  0  0  0  0  0999 V2000
   -3.9937    0.3040    0.0490 C   0  0  0  0  0  0  0  0  0  0  0  0
   -2.6603   -0.6448    0.0125 C   0  0  0  0  0  0  0  0  0  0  0  0
   -4.9021   -0.1673   -0.5341 H   0  0  0  0  0  0  0  0  0  0  0  0
   -3.9272    1.0199   -0.7738 H   0  0  0  0  0  0  0  0  0  0  0  0
   -4.3426    1.2712    1.0540 H   0  0  0  0  0  0  0  0  0  0  0  0
   -1.3299    0.0644   -0.0001 C   0  0  0  0  0  1  0  0  0  0  0  0
   -2.8029   -1.3626   -0.7893 H   0  0  0  0  0  0  0  0  0  0  0  0
   -2.8544   -1.3658    0.9439 H   0  0  0  0  0  0  0  0  0  0  0  0
   -0.1516   -0.6303    0.0193 C   0  0  0  0  0  0  0  0  0  0  0  0
   -1.3260    1.0353    1.1505 H   0  0  0  0  0  0  0  0  0  0  0  0
   -1.2982    0.4876   -0.6636 H   0  0  0  0  0  0  0  0  0  0  0  0
   -0.1861   -1.7612    1.3429 H   0  0  0  0  0  0  0  0  0  0  0  0
    0.8835   -0.0022   -0.6130 H   0  0  0  0  0  0  0  0  0  0  0  0
   -0.6352   -0.7267   -0.6080 H   0  0  0  0  0  0  0  0  0  0  0  0
  1  5  1  0  0  0  0
  2  1  1  0  0  0  0
  2  8  1  0  0  0  0
  3  1  1  0  0  0  0
  4  1  1  0  0  0  0
  7  2  1  0  0  0  0
 11  6  1  0  0  0  0
 13  9  1  0  0  0  0
 14  9  1  0  0  0  0
M  RAD  4   2   2   9   3  10   2  12   2
M  END
$$$$
