14
butane_opt
C  -3.968663   0.217177  -0.107162
C  -2.782694  -0.554863   0.244415
H  -4.841083  -0.327831  -0.621920
H  -3.572023   0.683109  -1.041011
H  -4.364274   0.974603   0.661817
C  -1.373750   0.266630   0.186040
H  -2.736323  -1.142655  -0.519777
H  -2.839874  -1.211692   1.032591
C  -0.112346  -0.795473  -0.151422
H  -1.410607   0.947382   0.933545
H  -1.436559   0.750641  -0.649529
H   0.316361  -1.479475   0.904857
H   1.003881   0.044504  -0.244162
H  -0.306667  -1.306316  -1.046948
