14
butane_opt
C  -4.016968   0.297953   0.057596
C  -2.702892  -0.670215   0.043024
H  -4.827760  -0.147221  -0.542969
H  -3.927730   0.608914  -0.557902
H  -4.343502   1.577403   1.336479
C  -1.383413   0.054036  -0.043049
H  -2.350015  -1.321357  -0.721396
H  -2.791855  -1.324503   0.950836
C  -0.149202  -0.612451   0.057986
H  -1.287933   0.708767   0.613949
H  -1.345200   1.038453  -1.198776
H  -0.237156  -1.291594   1.003960
H   1.024854   0.113210  -0.017167
H   0.050284  -1.252678  -0.741171
