14
butane_opt
C  -3.859705   0.221383  -0.095319
C  -2.707906  -0.550248   0.074815
H  -4.933285  -0.451716   0.855382
H  -4.161571   1.487987  -1.271575
H  -3.460677   0.263771   0.302377
C  -1.454200   0.191925   0.180176
H  -2.677727  -1.313909  -0.895948
H  -2.908844  -1.069271   0.969934
C  -0.168321  -0.762266  -0.010876
H  -1.417909   1.085392   1.119190
H  -1.647098   0.934941  -0.824155
H  -0.075371  -0.980299   0.502122
H   0.849119  -0.022930  -0.122422
H  -0.294841  -1.632477  -1.064916
