14
butane_opt
C  -3.894434   0.208965  -0.129094
C  -2.766798  -0.576726   0.302951
H  -4.967874  -0.459067  -0.988227
H  -3.492261   0.712814  -0.967892
H  -4.571564   1.146611   0.719098
C  -1.415550   0.259168   0.136733
H  -3.006682  -1.238255  -0.458849
H  -3.028755  -1.245653   1.285051
C  -0.068384  -0.753673  -0.115273
H  -1.166024   1.039020   1.016189
H  -1.696679   0.988131  -0.717503
H   0.395686  -1.125302   0.601397
H   0.573188  -0.398607  -0.359516
H  -0.268027  -1.620437  -1.043623
