butane_opt
 OpenBabel08242015403D

 14 11  0  0  0  0  0  0  0  0999 V2000
   -3.9770    0.2334    0.1157 C   0  0  0  0  0  0  0  0  0  0  0  0
   -2.7141   -0.6012   -0.0453 C   0  0  0  0  0  0  0  0  0  0  0  0
   -4.9078   -0.3837    0.2689 H   0  0  0  0  0  0  0  0  0  0  0  0
   -3.9706    0.7286   -0.5782 H   0  0  0  0  0  0  0  0  0  0  0  0
   -3.7780    1.1881    1.2509 H   0  0  0  0  0  0  0  0  0  0  0  0
   -1.3930    0.2500   -0.1686 C   0  0  0  0  0  0  0  0  0  0  0  0
   -3.0508   -1.3611   -0.9765 H   0  0  0  0  0  0  0  0  0  0  0  0
   -2.7474   -1.1542    0.8069 H   0  0  0  0  0  0  0  0  0  0  0  0
   -0.1412   -0.7027    0.1641 C   0  0  0  0  0  0  0  0  0  0  0  0
   -1.3608    0.4320    0.3175 H   0  0  0  0  0  0  0  0  0  0  0  0
   -1.3297    1.0645   -1.2631 H   0  0  0  0  0  0  0  0  0  0  0  0
   -0.2441   -1.0403    1.0004 H   0  0  0  0  0  0  0  0  0  0  0  0
    0.5192   -0.2887    0.7545 H   0  0  0  0  0  0  0  0  0  0  0  0
    0.5318   -1.8333   -0.9328 H   0  0  0  0  0  0  0  0  0  0  0  0
  1  3  1  0  0  0  0
  1  5  1  0  0  0  0
  2  1  1  0  0  0  0
  2  8  1  0  0  0  0
  4  1  1  0  0  0  0
  6  2  1  0  0  0  0
  6  9  1  0  0  0  0
  7  2  1  0  0  0  0
  9 13  1  0  0  0  0
  9 12  1  0  0  0  0
 11  6  1  0  0  0  0
M  RAD  4   6   2   9   2  10   2  14   2
M  END
$$$$
