butane_opt
 OpenBabel08242015403D

 14 13  0  0  0  0  0  0  0  0999 V2000
   -4.0095    0.3461    0.1633 C   0  0  0  0  0  0  0  0  0  0  0  0
   -2.6574   -0.7020   -0.1534 C   0  0  0  0  0  0  0  0  0  0  0  0
   -4.9370   -0.1629    0.6013 H   0  0  0  0  0  0  0  0  0  0  0  0
   -4.3665    1.0617   -0.7885 H   0  0  0  0  0  0  0  0  0  0  0  0
   -3.3473    0.8483    0.9243 H   0  0  0  0  0  0  0  0  0  0  0  0
   -1.3639    0.0576   -0.1347 C   0  0  0  0  0  0  0  0  0  0  0  0
   -2.8001   -1.5925   -1.1888 H   0  0  0  0  0  0  0  0  0  0  0  0
   -2.2345   -1.0750    0.5163 H   0  0  0  0  0  0  0  0  0  0  0  0
   -0.1962   -0.6004    0.1731 C   0  0  0  0  0  0  0  0  0  0  0  0
   -1.4287    0.9891    0.8710 H   0  0  0  0  0  0  0  0  0  0  0  0
   -1.4421    0.6701   -1.1760 H   0  0  0  0  0  0  0  0  0  0  0  0
   -0.5299   -1.5058    1.3083 H   0  0  0  0  0  0  0  0  0  0  0  0
    0.6994    0.0973    0.1666 H   0  0  0  0  0  0  0  0  0  0  0  0
    0.0172   -0.9872   -0.3806 H   0  0  0  0  0  0  0  0  0  0  0  0
  1  3  1  0  0  0  0
  1  5  1  0  0  0  0
  2  6  1  0  0  0  0
  2  1  1  0  0  0  0
  2  8  1  0  0  0  0
  4  1  1  0  0  0  0
  6  9  1  0  0  0  0
  6 10  1  0  0  0  0
  7  2  1  0  0  0  0
  9 12  1  0  0  0  0
 11  6  1  0  0  0  0
 13  9  1  0  0  0  0
 14  9  1  0  0  0  0
M  END
$$$$
