14
butane_opt
C  -3.986709   0.327120  -0.105813
C  -2.653207  -0.622873   0.273541
H  -4.878707  -0.221442  -0.829511
H  -3.407860   0.815172  -1.064136
H  -4.182883   0.972829   0.732950
C  -1.381786   0.070605   0.141615
H  -2.803576  -1.305786  -0.649528
H  -2.757260  -1.282659   1.099741
C  -0.208085  -0.634554  -0.092029
H  -1.106224   0.901964   0.998463
H  -1.464587   0.660365  -0.666215
H   0.065056  -1.388548   0.802302
H   0.764807   0.198009  -0.436618
H  -0.565484  -1.491120  -1.164909
