14
butane_opt
C  -3.865800   0.301418   0.198229
C  -2.722572  -0.651157  -0.252900
H  -4.732008  -0.131476   0.721793
H  -4.401680   1.149964  -0.737285
H  -3.374693   0.579141   0.825399
C  -1.402340   0.163528  -0.062523
H  -3.078670  -1.632063  -1.229711
H  -2.448145  -1.204831   0.475647
C  -0.182962  -0.666227   0.216182
H  -1.740204   0.744753   0.624314
H  -1.218802   1.102853  -1.265404
H  -0.282188  -1.436922   1.319574
H   0.633211  -0.072507  -0.039665
H  -0.336451  -1.313835  -0.505941
