butane_opt
 OpenBabel08242015403D

 14 11  0  0  0  0  0  0  0  0999 V2000
   -4.0177    0.2750    0.1049 C   0  0  0  0  0  0  0  0  0  0  0  0
   -2.6657   -0.6161   -0.0830 C   0  0  0  0  0  0  0  0  0  0  0  0
   -4.9497   -0.3128    0.0015 H   0  0  0  0  0  0  0  0  0  0  0  0
   -4.4615    0.7281   -0.6671 H   0  0  0  0  0  0  0  0  0  0  0  0
   -3.9998    1.1306    1.1675 H   0  0  0  0  0  0  0  0  0  0  0  0
   -1.3788    0.1638   -0.0647 C   0  0  0  0  0  0  0  0  0  0  0  0
   -2.7359   -1.5155   -1.0936 H   0  0  0  0  0  0  0  0  0  0  0  0
   -2.8428   -0.9894    0.6373 H   0  0  0  0  0  0  0  0  0  0  0  0
   -0.0947   -0.6708    0.1040 C   0  0  0  0  0  1  0  0  0  0  0  0
   -1.4269    0.8757    0.8432 H   0  0  0  0  0  0  0  0  0  0  0  0
   -1.3581    0.4217   -0.8517 H   0  0  0  0  0  0  0  0  0  0  0  0
   -0.1153   -1.9563    1.6106 H   0  0  0  0  0  0  0  0  0  0  0  0
    0.8909    0.0326   -0.5865 H   0  0  0  0  0  0  0  0  0  0  0  0
   -0.1365   -0.6695   -0.2858 H   0  0  0  0  0  0  0  0  0  0  0  0
  1  5  1  0  0  0  0
  2  6  1  0  0  0  0
  2  1  1  0  0  0  0
  2  8  1  0  0  0  0
  3  1  1  0  0  0  0
  4  1  1  0  0  0  0
  6 10  1  0  0  0  0
  7  2  1  0  0  0  0
 11  6  1  0  0  0  0
 13  9  1  0  0  0  0
 14  6  1  0  0  0  0
M  RAD  1  12   2
M  END
$$$$
