14
butane_opt
C  -3.936574   0.216101  -0.159989
C  -2.732293  -0.555398   0.168282
H  -4.964793  -0.450320  -0.314580
H  -3.905463   1.025663  -1.097675
H  -3.929680   0.601230   0.397838
C  -1.401349   0.247626   0.338783
H  -2.698750  -1.189577  -0.643227
H  -3.208698  -1.145995   1.108797
C  -0.107739  -0.788266  -0.174052
H  -1.130793   1.129166   1.367266
H  -1.792453   0.984878  -0.703429
H   0.480066  -1.585669   0.903816
H   0.830086  -0.188271  -0.890321
H  -0.556129  -1.114511  -0.752102
