14
butane_opt
C  -4.038831   0.317395   0.232124
C  -2.687991  -0.658285  -0.093608
H  -4.993553  -0.223473   0.171913
H  -4.330532   1.113912  -0.847516
H  -3.896655   0.871146   1.123683
C  -1.323547   0.134661  -0.235229
H  -2.912962  -1.646267  -1.235201
H  -2.611052  -1.183059   0.644009
C  -0.146261  -0.681264   0.228601
H  -1.565303   0.669874   0.370190
H  -1.123386   0.957289  -1.230272
H  -0.431934  -0.988284   0.949083
H   0.943865   0.225078   0.696674
H   0.235243  -1.595946  -0.845152
