butane_opt
 OpenBabel08242015403D

 14 10  0  0  0  0  0  0  0  0999 V2000
   -3.9773    0.3469   -0.0718 C   0  0  0  0  0  0  0  0  0  0  0  0
   -2.6431   -0.6829    0.1548 C   0  0  0  0  0  0  0  0  0  0  0  0
   -5.0500   -0.2237    0.3218 H   0  0  0  0  0  0  0  0  0  0  0  0
   -3.6104    1.2903   -1.1436 H   0  0  0  0  0  0  0  0  0  0  0  0
   -3.9675    0.8231    0.7411 H   0  0  0  0  0  0  0  0  0  0  0  0
   -1.3773    0.0747    0.0761 C   0  0  0  0  0  0  0  0  0  0  0  0
   -2.6457   -1.2740   -0.5191 H   0  0  0  0  0  0  0  0  0  0  0  0
   -2.6818   -1.3373    1.0233 H   0  0  0  0  0  0  0  0  0  0  0  0
   -0.2255   -0.6258   -0.0574 C   0  0  0  0  0  1  0  0  0  0  0  0
   -1.4336    0.5946    0.7795 H   0  0  0  0  0  0  0  0  0  0  0  0
   -1.2039    0.6294   -0.8613 H   0  0  0  0  0  0  0  0  0  0  0  0
   -0.4821   -0.6196    0.4856 H   0  0  0  0  0  0  0  0  0  0  0  0
    0.8095    0.0681    0.5973 H   0  0  0  0  0  0  0  0  0  0  0  0
   -0.1346   -1.7530   -1.2756 H   0  0  0  0  0  0  0  0  0  0  0  0
  1  2  1  0  0  0  0
  1  3  1  0  0  0  0
  1  5  1  0  0  0  0
  2  8  1  0  0  0  0
  4  1  1  0  0  0  0
  6 12  1  0  0  0  0
  6 10  1  0  0  0  0
  7  2  1  0  0  0  0
  9 13  1  0  0  0  0
 11  6  1  0  0  0  0
M  RAD  3   2   2   6   2  14   2
M  END
$$$$
