14
butane_opt
C  -3.930690   0.341482   0.179050
C  -2.664317  -0.724279  -0.168344
H  -4.727480  -0.164212   0.658324
H  -4.459085   1.295207  -0.935762
H  -3.565461   0.558396   0.822153
C  -1.413232   0.113379  -0.124028
H  -2.482308  -1.588707  -1.058196
H  -2.392506  -1.080553   0.512152
C  -0.257273  -0.637313   0.204335
H  -1.582197   0.739797   0.801348
H  -1.116966   0.863153  -1.115709
H  -0.105418  -1.011926   0.987477
H   0.792042   0.129117   0.177977
H  -0.253931  -1.273540  -0.567043
