butane_opt
 OpenBabel08242015403D

 14  8  0  0  0  0  0  0  0  0999 V2000
   -3.9745    0.2089    0.1503 C   0  0  0  0  0  1  0  0  0  0  0  0
   -2.7332   -0.5691   -0.0946 C   0  0  0  0  0  0  0  0  0  0  0  0
   -4.7862   -0.3109   -0.5928 H   0  0  0  0  0  0  0  0  0  0  0  0
   -3.6977    0.2443   -0.2782 H   0  0  0  0  0  0  0  0  0  0  0  0
   -4.0497    1.5558    1.5597 H   0  0  0  0  0  0  0  0  0  0  0  0
   -1.4202    0.2576   -0.1398 C   0  0  0  0  0  0  0  0  0  0  0  0
   -2.8900   -1.2425   -1.0519 H   0  0  0  0  0  0  0  0  0  0  0  0
   -2.8045   -1.2615    0.8065 H   0  0  0  0  0  0  0  0  0  0  0  0
   -0.0875   -0.7796    0.1549 C   0  0  0  0  0  0  0  0  0  0  0  0
   -1.2115    0.8252    0.7218 H   0  0  0  0  0  0  0  0  0  0  0  0
   -1.5176    1.0073   -1.1902 H   0  0  0  0  0  0  0  0  0  0  0  0
   -0.3103   -1.8130    1.4817 H   0  0  0  0  0  0  0  0  0  0  0  0
    0.8078   -0.1148   -0.4050 H   0  0  0  0  0  0  0  0  0  0  0  0
    0.0375   -0.7837   -0.3402 H   0  0  0  0  0  0  0  0  0  0  0  0
  2  8  1  0  0  0  0
  3  1  1  0  0  0  0
  4  2  1  0  0  0  0
  6  9  1  0  0  0  0
  6 10  1  0  0  0  0
  7  2  1  0  0  0  0
 11  6  1  0  0  0  0
 13  9  1  0  0  0  0
M  RAD  6   2   2   5   2   6   2   9   3  12   2  14   2
M  END
$$$$
