butane_opt
 OpenBabel08242015403D

 14 13  0  0  0  0  0  0  0  0999 V2000
   -3.9366    0.2161   -0.1600 C   0  0  0  0  0  0  0  0  0  0  0  0
   -2.7323   -0.5554    0.1683 C   0  0  0  0  0  0  0  0  0  0  0  0
   -4.9648   -0.4503   -0.3146 H   0  0  0  0  0  0  0  0  0  0  0  0
   -3.9055    1.0257   -1.0977 H   0  0  0  0  0  0  0  0  0  0  0  0
   -3.9297    0.6012    0.3978 H   0  0  0  0  0  0  0  0  0  0  0  0
   -1.4013    0.2476    0.3388 C   0  0  0  0  0  0  0  0  0  0  0  0
   -2.6987   -1.1896   -0.6432 H   0  0  0  0  0  0  0  0  0  0  0  0
   -3.2087   -1.1460    1.1088 H   0  0  0  0  0  0  0  0  0  0  0  0
   -0.1077   -0.7883   -0.1741 C   0  0  0  0  0  0  0  0  0  0  0  0
   -1.1308    1.1292    1.3673 H   0  0  0  0  0  0  0  0  0  0  0  0
   -1.7925    0.9849   -0.7034 H   0  0  0  0  0  0  0  0  0  0  0  0
    0.4801   -1.5857    0.9038 H   0  0  0  0  0  0  0  0  0  0  0  0
    0.8301   -0.1883   -0.8903 H   0  0  0  0  0  0  0  0  0  0  0  0
   -0.5561   -1.1145   -0.7521 H   0  0  0  0  0  0  0  0  0  0  0  0
  1  2  1  0  0  0  0
  1  5  1  0  0  0  0
  2  6  1  0  0  0  0
  2  8  1  0  0  0  0
  3  1  1  0  0  0  0
  4  1  1  0  0  0  0
  6 10  1  0  0  0  0
  7  2  1  0  0  0  0
  9  6  1  0  0  0  0
  9 12  1  0  0  0  0
 11  6  1  0  0  0  0
 13  9  1  0  0  0  0
 14  9  1  0  0  0  0
M  END
$$$$
