butane_opt
 OpenBabel08242015403D

 14 11  0  0  0  0  0  0  0  0999 V2000
   -3.9496    0.3478    0.1426 C   0  0  0  0  0  0  0  0  0  0  0  0
   -2.6361   -0.6557   -0.0664 C   0  0  0  0  0  0  0  0  0  0  0  0
   -4.8575   -0.2047    0.2636 H   0  0  0  0  0  0  0  0  0  0  0  0
   -4.2212    0.7785   -0.5618 H   0  0  0  0  0  0  0  0  0  0  0  0
   -3.3866    1.1070    1.2349 H   0  0  0  0  0  0  0  0  0  0  0  0
   -1.3922    0.0615   -0.2036 C   0  0  0  0  0  0  0  0  0  0  0  0
   -2.7802   -1.5122   -1.0955 H   0  0  0  0  0  0  0  0  0  0  0  0
   -2.6338   -1.1956    0.7893 H   0  0  0  0  0  0  0  0  0  0  0  0
   -0.2708   -0.5952    0.2047 C   0  0  0  0  0  0  0  0  0  0  0  0
   -1.4387    0.3741    0.4982 H   0  0  0  0  0  0  0  0  0  0  0  0
   -1.0974    1.0491   -1.4144 H   0  0  0  0  0  0  0  0  0  0  0  0
   -0.6354   -1.0718    1.0125 H   0  0  0  0  0  0  0  0  0  0  0  0
    0.8270    0.0725    0.7818 H   0  0  0  0  0  0  0  0  0  0  0  0
    0.0964   -1.7376   -1.0279 H   0  0  0  0  0  0  0  0  0  0  0  0
  1  3  1  0  0  0  0
  1  5  1  0  0  0  0
  2  1  1  0  0  0  0
  2  8  1  0  0  0  0
  4  1  1  0  0  0  0
  6  2  1  0  0  0  0
  6  9  1  0  0  0  0
  6 10  1  0  0  0  0
  7  2  1  0  0  0  0
  9 13  1  0  0  0  0
  9 12  1  0  0  0  0
M  RAD  4   6   2   9   2  11   2  14   2
M  END
$$$$
