butane_opt
 OpenBabel08242015403D

 14 10  0  0  0  0  0  0  0  0999 V2000
   -4.0630    0.2881    0.0898 C   0  0  0  0  0  0  0  0  0  0  0  0
   -2.6401   -0.6318   -0.1118 C   0  0  0  0  0  0  0  0  0  0  0  0
   -4.8958   -0.2681   -0.0734 H   0  0  0  0  0  0  0  0  0  0  0  0
   -3.9058    0.4163   -0.5838 H   0  0  0  0  0  0  0  0  0  0  0  0
   -4.0383    1.3345    1.3429 H   0  0  0  0  0  0  0  0  0  0  0  0
   -1.3740    0.1839    0.0149 C   0  0  0  0  0  0  0  0  0  0  0  0
   -2.6768   -1.5485   -1.1887 H   0  0  0  0  0  0  0  0  0  0  0  0
   -2.8278   -1.2943    0.7797 H   0  0  0  0  0  0  0  0  0  0  0  0
   -0.1260   -0.6716    0.1310 C   0  0  0  0  0  1  0  0  0  0  0  0
   -1.2488    0.6140    0.5976 H   0  0  0  0  0  0  0  0  0  0  0  0
   -1.4330    1.0480   -1.0528 H   0  0  0  0  0  0  0  0  0  0  0  0
    0.0970   -1.9264    1.3524 H   0  0  0  0  0  0  0  0  0  0  0  0
    0.7591   -0.0945   -0.6772 H   0  0  0  0  0  0  0  0  0  0  0  0
   -0.4198   -0.7350   -0.3869 H   0  0  0  0  0  0  0  0  0  0  0  0
  2  6  1  0  0  0  0
  2  1  1  0  0  0  0
  2  8  1  0  0  0  0
  3  1  1  0  0  0  0
  4  1  1  0  0  0  0
  6 10  1  0  0  0  0
  7  2  1  0  0  0  0
 11  6  1  0  0  0  0
 13  9  1  0  0  0  0
 14  6  1  0  0  0  0
M  RAD  3   1   2   5   2  12   2
M  END
$$$$
