14
butane_opt
C  -3.866798   0.225539   0.162692
C  -2.676739  -0.539152  -0.093974
H  -4.840436  -0.428919  -0.718347
H  -3.801479  -0.070622  -0.079915
H  -4.184181   1.682678   1.510591
C  -1.474682   0.212258  -0.189404
H  -2.991888  -1.236201  -0.922321
H  -2.865842  -1.514817   0.950414
C  -0.149073  -0.709755   0.197197
H  -1.476133   0.655304   0.526980
H  -1.601147   1.115513  -1.197111
H  -0.158542  -1.641032   1.234157
H   0.769105  -0.296661  -0.166528
H   0.136066  -1.007684  -0.496194
