14
butane_opt
C  -3.934822   0.235389  -0.074340
C  -2.744121  -0.600969   0.069633
H  -4.760119  -0.382721   0.851247
H  -4.212185   1.432933  -1.313702
H  -3.748943   0.115039   0.343745
C  -1.469396   0.297628   0.140945
H  -2.889710  -1.453480  -0.929225
H  -2.877171  -1.149399   1.062902
C  -0.079306  -0.753409  -0.029722
H  -1.636405   0.963790   1.029384
H  -1.201569   0.809793  -0.646703
H   0.406984  -1.053340   0.530694
H   0.774569  -0.147591   0.147649
H  -0.156584  -1.714480  -1.020958
