butane_opt
 OpenBabel08242015403D

 14  9  0  0  0  0  0  0  0  0999 V2000
   -4.0120    0.2379   -0.0611 C   0  0  0  0  0  0  0  0  0  0  0  0
   -2.7277   -0.6169    0.0315 C   0  0  0  0  0  0  0  0  0  0  0  0
   -4.8360   -0.2305    0.7120 H   0  0  0  0  0  0  0  0  0  0  0  0
   -4.4038    1.4763   -1.4514 H   0  0  0  0  0  0  0  0  0  0  0  0
   -3.5890    0.1986    0.4252 H   0  0  0  0  0  0  0  0  0  0  0  0
   -1.3213    0.2110    0.1268 C   0  0  0  0  0  0  0  0  0  0  0  0
   -2.7039   -1.0179   -0.6164 H   0  0  0  0  0  0  0  0  0  0  0  0
   -2.7824   -1.2569    1.0734 H   0  0  0  0  0  0  0  0  0  0  0  0
   -0.1575   -0.7042   -0.0051 C   0  0  0  0  0  0  0  0  0  0  0  0
   -1.4646    1.3161    1.2530 H   0  0  0  0  0  0  0  0  0  0  0  0
   -1.3270    0.5679   -0.5977 H   0  0  0  0  0  0  0  0  0  0  0  0
    0.2361   -1.1030    0.5298 H   0  0  0  0  0  0  0  0  0  0  0  0
    0.5946   -0.3304   -0.0341 H   0  0  0  0  0  0  0  0  0  0  0  0
   -0.1233   -1.6245   -1.0815 H   0  0  0  0  0  0  0  0  0  0  0  0
  1  5  1  0  0  0  0
  1  3  1  0  0  0  0
  2  8  1  0  0  0  0
  7  2  1  0  0  0  0
  9  6  1  0  0  0  0
  9 12  1  0  0  0  0
 11  6  1  0  0  0  0
 13  9  1  0  0  0  0
 14  9  1  0  0  0  0
M  RAD  5   1   3   2   3   4   2   6   3  10   2
M  END
$$$$
