14
butane_opt
C  -3.854319   0.221808   0.114880
C  -2.737775  -0.547329   0.000509
H  -4.865871  -0.582755  -0.843880
H  -3.684658   0.160999  -0.315932
H  -3.866694   1.732453   1.400983
C  -1.439883   0.250315  -0.089282
H  -2.747931  -1.392821  -0.949499
H  -2.616843  -1.052080   0.830205
C  -0.225840  -0.716396   0.117679
H  -1.375349   0.252683   0.364778
H  -1.421441   1.085994  -1.242255
H   0.023748  -1.748740   1.214767
H   0.633609  -0.280573  -0.129820
H  -0.005499  -1.148282  -0.509835
