butane_opt
 OpenBabel08242015403D

 14 13  0  0  0  0  0  0  0  0999 V2000
   -3.9638    0.2705   -0.0089 C   0  0  0  0  0  0  0  0  0  0  0  0
   -2.6908   -0.6261    0.0623 C   0  0  0  0  0  0  0  0  0  0  0  0
   -4.8650   -0.2747    0.1214 H   0  0  0  0  0  0  0  0  0  0  0  0
   -4.0101    1.0405   -1.0152 H   0  0  0  0  0  0  0  0  0  0  0  0
   -3.9547    0.8434    0.7923 H   0  0  0  0  0  0  0  0  0  0  0  0
   -1.3999    0.1678    0.0531 C   0  0  0  0  0  0  0  0  0  0  0  0
   -2.7364   -1.3452   -0.8183 H   0  0  0  0  0  0  0  0  0  0  0  0
   -2.7385   -1.2518    0.9523 H   0  0  0  0  0  0  0  0  0  0  0  0
   -0.1483   -0.6803    0.0011 C   0  0  0  0  0  0  0  0  0  0  0  0
   -1.3454    0.8848    0.9133 H   0  0  0  0  0  0  0  0  0  0  0  0
   -1.4435    0.7690   -0.8227 H   0  0  0  0  0  0  0  0  0  0  0  0
   -0.1444   -1.2839    0.8800 H   0  0  0  0  0  0  0  0  0  0  0  0
    0.7878   -0.0542    0.0201 H   0  0  0  0  0  0  0  0  0  0  0  0
   -0.1495   -1.3701   -0.8867 H   0  0  0  0  0  0  0  0  0  0  0  0
  1  2  1  0  0  0  0
  1  3  1  0  0  0  0
  1  5  1  0  0  0  0
  2  8  1  0  0  0  0
  4  1  1  0  0  0  0
  6  2  1  0  0  0  0
  6 10  1  0  0  0  0
  7  2  1  0  0  0  0
  9 13  1  0  0  0  0
  9  6  1  0  0  0  0
  9 12  1  0  0  0  0
 11  6  1  0  0  0  0
 14  9  1  0  0  0  0
M  END
$$$$
