butane_opt
 OpenBabel08242015403D

 14 12  0  0  0  0  0  0  0  0999 V2000
   -4.0316    0.3007    0.0660 C   0  0  0  0  0  0  0  0  0  0  0  0
   -2.6343   -0.6809   -0.0059 C   0  0  0  0  0  0  0  0  0  0  0  0
   -4.7495   -0.0880    0.2249 H   0  0  0  0  0  0  0  0  0  0  0  0
   -4.4372    0.6303   -0.5340 H   0  0  0  0  0  0  0  0  0  0  0  0
   -3.8125    1.0419    0.9577 H   0  0  0  0  0  0  0  0  0  0  0  0
   -1.3546    0.1390   -0.1548 C   0  0  0  0  0  0  0  0  0  0  0  0
   -2.6531   -1.1772   -0.7023 H   0  0  0  0  0  0  0  0  0  0  0  0
   -2.7200   -1.3276    1.0556 H   0  0  0  0  0  0  0  0  0  0  0  0
   -0.1757   -0.6123    0.1146 C   0  0  0  0  0  0  0  0  0  0  0  0
   -1.3978    0.7865    0.6248 H   0  0  0  0  0  0  0  0  0  0  0  0
   -1.1884    0.8060   -1.0556 H   0  0  0  0  0  0  0  0  0  0  0  0
   -0.4919   -1.0199    0.8235 H   0  0  0  0  0  0  0  0  0  0  0  0
    0.6485   -0.2297    0.8269 H   0  0  0  0  0  0  0  0  0  0  0  0
    0.1222   -1.6778   -1.0366 H   0  0  0  0  0  0  0  0  0  0  0  0
  1  3  1  0  0  0  0
  1  5  1  0  0  0  0
  2  1  1  0  0  0  0
  2  8  1  0  0  0  0
  4  1  1  0  0  0  0
  6  2  1  0  0  0  0
  6  9  1  0  0  0  0
  6 10  1  0  0  0  0
  7  2  1  0  0  0  0
  9 12  1  0  0  0  0
  9 13  1  0  0  0  0
 11  6  1  0  0  0  0
M  RAD  2   9   2  14   2
M  END
$$$$
