14
butane_opt
C  -3.984360   0.291949  -0.073943
C  -2.666889  -0.624366   0.181484
H  -4.781920  -0.198522  -0.549460
H  -3.791461   0.613211  -0.747190
H  -4.079816   1.366270   1.085309
C  -1.339742   0.085894   0.014280
H  -2.262518  -1.205047  -0.340184
H  -2.866245  -1.322265   1.157473
C  -0.252970  -0.637937  -0.036095
H  -1.233730   0.697757   0.851210
H  -1.449853   0.729540  -0.855556
H  -0.111962  -0.994906   0.694675
H   0.794583  -0.123170   0.139074
H  -0.341131  -1.396108  -0.983203
