14
butane_opt
C  -3.937054   0.252129  -0.006238
C  -2.712568  -0.612701   0.056647
H  -4.857961  -0.320766   0.000870
H  -3.994491   0.942881  -0.931066
H  -4.014809   0.881438   0.832610
C  -1.411273   0.202248   0.044723
H  -2.690854  -1.281912  -0.802871
H  -2.741440  -1.251322   0.960349
C  -0.143250  -0.698685   0.010926
H  -1.379507   0.920869   0.930023
H  -1.405960   0.746664  -0.777543
H  -0.011843  -1.376165   0.921210
H   0.731566  -0.127644  -0.150216
H  -0.197879  -1.323019  -0.820073
