14
butane_opt
C  -4.046260   0.322913   0.104180
C  -2.703775  -0.674657  -0.023642
H  -4.897042  -0.136758  -0.368711
H  -3.714269   0.549022  -0.436030
H  -4.291215   1.473622   1.137576
C  -1.346132   0.101053  -0.106252
H  -2.765197  -1.767018  -1.079451
H  -2.620577  -1.245040   0.908939
C  -0.105153  -0.628208   0.130141
H  -1.642804   0.860266   0.683596
H  -1.357005   0.777785  -0.916396
H   0.061413  -1.668088   1.278768
H   0.905018   0.054885  -0.496729
H  -0.341647  -0.788397  -0.437134
