butane_opt
 OpenBabel08242015403D

 14 12  0  0  0  0  0  0  0  0999 V2000
   -3.9986    0.2924    0.1892 C   0  0  0  0  0  0  0  0  0  0  0  0
   -2.6733   -0.6936   -0.0713 C   0  0  0  0  0  0  0  0  0  0  0  0
   -4.7559   -0.1597    0.1751 H   0  0  0  0  0  0  0  0  0  0  0  0
   -4.1871    0.6852   -0.6976 H   0  0  0  0  0  0  0  0  0  0  0  0
   -4.2267    1.3386    1.2955 H   0  0  0  0  0  0  0  0  0  0  0  0
   -1.3589    0.1881   -0.2411 C   0  0  0  0  0  0  0  0  0  0  0  0
   -2.7239   -1.7243   -1.1051 H   0  0  0  0  0  0  0  0  0  0  0  0
   -2.7584   -1.2074    0.7858 H   0  0  0  0  0  0  0  0  0  0  0  0
   -0.1052   -0.6425    0.1954 C   0  0  0  0  0  0  0  0  0  0  0  0
   -1.5219    0.6654    0.5290 H   0  0  0  0  0  0  0  0  0  0  0  0
   -1.4795    0.9664   -1.3396 H   0  0  0  0  0  0  0  0  0  0  0  0
   -0.6936   -1.2082    1.1510 H   0  0  0  0  0  0  0  0  0  0  0  0
    0.8374   -0.0750    0.6026 H   0  0  0  0  0  0  0  0  0  0  0  0
    0.1226   -1.4554   -0.7653 H   0  0  0  0  0  0  0  0  0  0  0  0
  2  1  1  0  0  0  0
  2  8  1  0  0  0  0
  3  1  1  0  0  0  0
  4  1  1  0  0  0  0
  6  2  1  0  0  0  0
  6  9  1  0  0  0  0
  6 10  1  0  0  0  0
  7  2  1  0  0  0  0
  9 13  1  0  0  0  0
  9 12  1  0  0  0  0
 11  6  1  0  0  0  0
 14  9  1  0  0  0  0
M  RAD  2   1   2   5   2
M  END
$$$$
