butane_opt
 OpenBabel08242015403D

 14 10  0  0  0  0  0  0  0  0999 V2000
   -4.0030    0.2494    0.0490 C   0  0  0  0  0  0  0  0  0  0  0  0
   -2.7191   -0.6216   -0.1161 C   0  0  0  0  0  0  0  0  0  0  0  0
   -4.7998   -0.1281    0.1663 H   0  0  0  0  0  0  0  0  0  0  0  0
   -4.1732    0.6461   -0.7185 H   0  0  0  0  0  0  0  0  0  0  0  0
   -4.2112    1.0528    1.0376 H   0  0  0  0  0  0  0  0  0  0  0  0
   -1.3557    0.1739    0.0580 C   0  0  0  0  0  0  0  0  0  0  0  0
   -2.9246   -1.1440   -0.8938 H   0  0  0  0  0  0  0  0  0  0  0  0
   -2.5627   -1.2101    0.6733 H   0  0  0  0  0  0  0  0  0  0  0  0
   -0.0747   -0.6691    0.0899 C   0  0  0  0  0  0  0  0  0  0  0  0
   -1.5852    0.8382    1.0175 H   0  0  0  0  0  0  0  0  0  0  0  0
   -1.4049    0.7498   -0.8242 H   0  0  0  0  0  0  0  0  0  0  0  0
    0.1854   -1.9429    1.2973 H   0  0  0  0  0  0  0  0  0  0  0  0
    0.8046   -0.2271   -0.7903 H   0  0  0  0  0  0  0  0  0  0  0  0
   -0.5129   -0.6684   -0.4186 H   0  0  0  0  0  0  0  0  0  0  0  0
  1  3  1  0  0  0  0
  1  5  1  0  0  0  0
  2  1  1  0  0  0  0
  2  8  1  0  0  0  0
  4  1  1  0  0  0  0
  6 10  1  0  0  0  0
  7  2  1  0  0  0  0
 11  6  1  0  0  0  0
 13  9  1  0  0  0  0
 14  9  1  0  0  0  0
M  RAD  4   2   2   6   3   9   3  12   2
M  END
$$$$
