14
butane_opt
C  -3.940827   0.245106  -0.134558
C  -2.730100  -0.532737   0.154350
H  -5.004193  -0.493926   0.359859
H  -3.934980   1.050284  -1.208466
H  -3.666298   0.498868   0.482054
C  -1.366379   0.232315   0.150319
H  -2.593485  -0.999378  -0.523882
H  -2.933995  -1.571788   1.386981
C  -0.133523  -0.736215  -0.120176
H  -1.291192   0.864441   1.188668
H  -1.702684   0.838313  -0.671242
H  -0.249112  -0.907672   0.493593
H   0.715223  -0.267954   0.558182
H  -0.281764  -1.997751  -1.281850
