butane_opt
 OpenBabel08242015403D

 14  9  0  0  0  0  0  0  0  0999 V2000
   -3.9161    0.2447   -0.0079 C   0  0  0  0  0  0  0  0  0  0  0  0
   -2.7342   -0.5621   -0.0131 C   0  0  0  0  0  0  0  0  0  0  0  0
   -4.9493   -0.5146    0.4417 H   0  0  0  0  0  0  0  0  0  0  0  0
   -3.8502    1.4332   -1.2929 H   0  0  0  0  0  0  0  0  0  0  0  0
   -3.5676    0.4040    0.5798 H   0  0  0  0  0  0  0  0  0  0  0  0
   -1.3896    0.1635    0.1121 C   0  0  0  0  0  0  0  0  0  0  0  0
   -2.9402   -1.0602   -0.6353 H   0  0  0  0  0  0  0  0  0  0  0  0
   -2.4296   -1.1170    0.8762 H   0  0  0  0  0  0  0  0  0  0  0  0
   -0.2123   -0.6917   -0.0243 C   0  0  0  0  0  0  0  0  0  0  0  0
   -1.4822    1.1735    1.2761 H   0  0  0  0  0  0  0  0  0  0  0  0
   -1.4350    0.4787   -0.6247 H   0  0  0  0  0  0  0  0  0  0  0  0
   -0.0914   -1.5339    0.9882 H   0  0  0  0  0  0  0  0  0  0  0  0
    0.7045   -0.2426   -0.2075 H   0  0  0  0  0  0  0  0  0  0  0  0
    0.0078   -1.3311   -0.8677 H   0  0  0  0  0  0  0  0  0  0  0  0
  1  3  1  0  0  0  0
  1  5  1  0  0  0  0
  2  8  1  0  0  0  0
  7  2  1  0  0  0  0
  9  6  1  0  0  0  0
  9 12  1  0  0  0  0
 11  6  1  0  0  0  0
 13  9  1  0  0  0  0
 14  9  1  0  0  0  0
M  RAD  5   1   3   2   3   4   2   6   3  10   2
M  END
$$$$
