butane_opt
 OpenBabel08242015403D

 14 12  0  0  0  0  0  0  0  0999 V2000
   -3.9307    0.3415    0.1790 C   0  0  0  0  0  0  0  0  0  0  0  0
   -2.6643   -0.7243   -0.1683 C   0  0  0  0  0  0  0  0  0  0  0  0
   -4.7275   -0.1642    0.6583 H   0  0  0  0  0  0  0  0  0  0  0  0
   -4.4591    1.2952   -0.9358 H   0  0  0  0  0  0  0  0  0  0  0  0
   -3.5655    0.5584    0.8222 H   0  0  0  0  0  0  0  0  0  0  0  0
   -1.4132    0.1134   -0.1240 C   0  0  0  0  0  0  0  0  0  0  0  0
   -2.4823   -1.5887   -1.0582 H   0  0  0  0  0  0  0  0  0  0  0  0
   -2.3925   -1.0806    0.5122 H   0  0  0  0  0  0  0  0  0  0  0  0
   -0.2573   -0.6373    0.2043 C   0  0  0  0  0  0  0  0  0  0  0  0
   -1.5822    0.7398    0.8013 H   0  0  0  0  0  0  0  0  0  0  0  0
   -1.1170    0.8632   -1.1157 H   0  0  0  0  0  0  0  0  0  0  0  0
   -0.1054   -1.0119    0.9875 H   0  0  0  0  0  0  0  0  0  0  0  0
    0.7920    0.1291    0.1780 H   0  0  0  0  0  0  0  0  0  0  0  0
   -0.2539   -1.2735   -0.5670 H   0  0  0  0  0  0  0  0  0  0  0  0
  1  3  1  0  0  0  0
  1  5  1  0  0  0  0
  2  6  1  0  0  0  0
  2  1  1  0  0  0  0
  2  8  1  0  0  0  0
  6  9  1  0  0  0  0
  6 10  1  0  0  0  0
  7  2  1  0  0  0  0
  9 12  1  0  0  0  0
 11  6  1  0  0  0  0
 13  9  1  0  0  0  0
 14  9  1  0  0  0  0
M  RAD  2   1   2   4   2
M  END
$$$$
