14
butane_opt
C  -3.942306   0.214399  -0.146478
C  -2.784889  -0.570673   0.172390
H  -4.724424  -0.211382  -0.042439
H  -3.783035   0.714564  -0.965435
H  -3.916723   0.883815   0.554420
C  -1.404212   0.272645   0.229157
H  -2.876844  -1.413392  -0.801597
H  -3.133532  -1.204976   0.955001
C  -0.071715  -0.735967  -0.080771
H  -1.305358   0.947972   1.144501
H  -1.632410   0.985581  -0.648807
H   0.452389  -1.696438   0.943093
H   0.656146  -0.382829  -0.836642
H  -0.359325  -1.243453  -0.910692
