14
butane_opt
C  -3.858120   0.238572  -0.118618
C  -2.692686  -0.609581   0.121602
H  -4.778452  -0.407341   0.701565
H  -4.065319   1.557059  -1.497674
H  -3.778715   0.422989   0.441010
C  -1.433314   0.234927   0.194755
H  -2.647335  -1.049548  -0.675980
H  -2.861517  -1.340486   1.080285
C  -0.242690  -0.747036  -0.132248
H  -1.253562   1.102032   1.220150
H  -1.444509   0.462817  -0.391041
H  -0.223966  -1.130795   0.635369
H   0.747152  -0.071010   0.169342
H   0.023798  -1.402965  -1.093451
