14
butane_opt
C  -3.985912   0.331222   0.141440
C  -2.719734  -0.751446  -0.091139
H  -4.660904  -0.012645  -0.224867
H  -3.937443   0.596978  -0.553337
H  -4.076480   1.284526   1.210942
C  -1.376396   0.203116  -0.097522
H  -2.792687  -1.423843  -1.059644
H  -2.950524  -1.121155   0.708570
C  -0.135244  -0.663769   0.105656
H  -1.275941   0.874935   0.813420
H  -1.304324   0.648013  -0.835187
H  -0.106414  -2.134291   1.480515
H   0.800271   0.109006  -0.337824
H  -0.179482  -0.676016  -0.332167
