butane_opt
 OpenBabel08242015403D

 14 13  0  0  0  0  0  0  0  0999 V2000
   -4.0008    0.3254   -0.1169 C   0  0  0  0  0  0  0  0  0  0  0  0
   -2.7276   -0.7455    0.2625 C   0  0  0  0  0  0  0  0  0  0  0  0
   -4.7895    0.0234   -0.7961 H   0  0  0  0  0  0  0  0  0  0  0  0
   -3.7448    0.7860   -1.0655 H   0  0  0  0  0  0  0  0  0  0  0  0
   -4.5329    1.0709    0.6882 H   0  0  0  0  0  0  0  0  0  0  0  0
   -1.3831    0.1336    0.1416 C   0  0  0  0  0  0  0  0  0  0  0  0
   -2.4314   -0.9931   -0.2883 H   0  0  0  0  0  0  0  0  0  0  0  0
   -2.6844   -1.6543    1.1816 H   0  0  0  0  0  0  0  0  0  0  0  0
   -0.0868   -0.6290   -0.1474 C   0  0  0  0  0  0  0  0  0  0  0  0
   -1.1620    1.1452    1.2244 H   0  0  0  0  0  0  0  0  0  0  0  0
   -1.6255    0.5894   -0.5916 H   0  0  0  0  0  0  0  0  0  0  0  0
   -0.1254   -1.0663    0.6624 H   0  0  0  0  0  0  0  0  0  0  0  0
    0.8331   -0.0826   -0.1841 H   0  0  0  0  0  0  0  0  0  0  0  0
   -0.4040   -1.3070   -1.0658 H   0  0  0  0  0  0  0  0  0  0  0  0
  1  2  1  0  0  0  0
  1  5  1  0  0  0  0
  2  8  1  0  0  0  0
  3  1  1  0  0  0  0
  4  1  1  0  0  0  0
  6  2  1  0  0  0  0
  6 10  1  0  0  0  0
  7  2  1  0  0  0  0
  9  6  1  0  0  0  0
  9 12  1  0  0  0  0
 11  6  1  0  0  0  0
 13  9  1  0  0  0  0
 14  9  1  0  0  0  0
M  END
$$$$
