14
butane_opt
C  -3.944887   0.272015   0.040674
C  -2.689602  -0.619770   0.021209
H  -4.877834  -0.334286   0.068143
H  -3.964689   0.880828  -0.845915
H  -3.926381   0.927007   0.892136
C  -1.411643   0.175242  -0.019905
H  -2.731849  -1.302188  -0.834866
H  -2.642607  -1.227624   0.886780
C  -0.168442  -0.692594   0.063045
H  -1.401138   0.797229   0.810363
H  -1.361551   0.836762  -0.950082
H  -0.190869  -1.209310   0.870122
H   0.759850  -0.063971   0.096417
H  -0.115232  -1.393191  -0.824017
