14
butane_opt
C  -3.823485   0.200027  -0.105691
C  -2.693895  -0.590266   0.268619
H  -4.821794  -0.513715  -0.684436
H  -3.622009   0.747718  -1.226697
H  -4.217507   0.928165   0.773742
C  -1.507438   0.305269   0.109380
H  -2.805561  -0.847138  -0.410964
H  -2.700838  -1.402781   1.318537
C  -0.161011  -0.781529  -0.148227
H  -1.414637   1.122258   1.136425
H  -1.558406   0.727628  -0.600095
H  -0.194777  -1.093897   0.494936
H   0.729308  -0.204740   0.175612
H  -0.117210  -1.578127  -1.079691
