butane_opt
 OpenBabel08242015403D

 14 13  0  0  0  0  0  0  0  0999 V2000
   -3.8824    0.2551   -0.1359 C   0  0  0  0  0  0  0  0  0  0  0  0
   -2.7386   -0.5560    0.1797 C   0  0  0  0  0  0  0  0  0  0  0  0
   -5.0242   -0.5013   -0.4371 H   0  0  0  0  0  0  0  0  0  0  0  0
   -3.5158    0.7517   -1.1149 H   0  0  0  0  0  0  0  0  0  0  0  0
   -3.9282    0.7126    0.6447 H   0  0  0  0  0  0  0  0  0  0  0  0
   -1.4599    0.2530    0.2673 C   0  0  0  0  0  0  0  0  0  0  0  0
   -2.7208   -1.1325   -0.6626 H   0  0  0  0  0  0  0  0  0  0  0  0
   -2.7401   -1.2992    1.1119 H   0  0  0  0  0  0  0  0  0  0  0  0
   -0.1285   -0.7576   -0.1343 C   0  0  0  0  0  0  0  0  0  0  0  0
   -1.2623    0.7819    0.9869 H   0  0  0  0  0  0  0  0  0  0  0  0
   -1.4068    0.7939   -0.4475 H   0  0  0  0  0  0  0  0  0  0  0  0
    0.2550   -1.4689    0.8985 H   0  0  0  0  0  0  0  0  0  0  0  0
    0.5601   -0.2501   -0.7579 H   0  0  0  0  0  0  0  0  0  0  0  0
   -0.6806   -1.2334   -0.9189 H   0  0  0  0  0  0  0  0  0  0  0  0
  1  2  1  0  0  0  0
  1  5  1  0  0  0  0
  2  6  1  0  0  0  0
  2  8  1  0  0  0  0
  3  1  1  0  0  0  0
  4  1  1  0  0  0  0
  6 10  1  0  0  0  0
  7  2  1  0  0  0  0
  9  6  1  0  0  0  0
  9 12  1  0  0  0  0
 11  6  1  0  0  0  0
 13  9  1  0  0  0  0
 14  9  1  0  0  0  0
M  END
$$$$
