butane_opt
 OpenBabel08242015403D

 14  8  0  0  0  0  0  0  0  0999 V2000
   -4.0463    0.3229    0.1042 C   0  0  0  0  0  0  0  0  0  0  0  0
   -2.7038   -0.6747   -0.0236 C   0  0  0  0  0  0  0  0  0  0  0  0
   -4.8970   -0.1368   -0.3687 H   0  0  0  0  0  0  0  0  0  0  0  0
   -3.7143    0.5490   -0.4360 H   0  0  0  0  0  0  0  0  0  0  0  0
   -4.2912    1.4736    1.1376 H   0  0  0  0  0  0  0  0  0  0  0  0
   -1.3461    0.1011   -0.1063 C   0  0  0  0  0  0  0  0  0  0  0  0
   -2.7652   -1.7670   -1.0795 H   0  0  0  0  0  0  0  0  0  0  0  0
   -2.6206   -1.2450    0.9089 H   0  0  0  0  0  0  0  0  0  0  0  0
   -0.1052   -0.6282    0.1301 C   0  0  0  0  0  0  0  0  0  0  0  0
   -1.6428    0.8603    0.6836 H   0  0  0  0  0  0  0  0  0  0  0  0
   -1.3570    0.7778   -0.9164 H   0  0  0  0  0  0  0  0  0  0  0  0
    0.0614   -1.6681    1.2788 H   0  0  0  0  0  0  0  0  0  0  0  0
    0.9050    0.0549   -0.4967 H   0  0  0  0  0  0  0  0  0  0  0  0
   -0.3416   -0.7884   -0.4371 H   0  0  0  0  0  0  0  0  0  0  0  0
  2  1  1  0  0  0  0
  2  8  1  0  0  0  0
  3  1  1  0  0  0  0
  4  1  1  0  0  0  0
  6 10  1  0  0  0  0
 11  6  1  0  0  0  0
 13  9  1  0  0  0  0
 14  9  1  0  0  0  0
M  RAD  7   1   2   2   3   5   2   6   3   7   2   9   3  12   2
M  END
$$$$
