butane_opt
 OpenBabel08242015403D

 14 12  0  0  0  0  0  0  0  0999 V2000
   -3.9428    0.1948    0.1288 C   0  0  0  0  0  0  0  0  0  0  0  0
   -2.6845   -0.5978   -0.1862 C   0  0  0  0  0  0  0  0  0  0  0  0
   -4.9617   -0.3581    0.8145 H   0  0  0  0  0  0  0  0  0  0  0  0
   -4.4990    1.3064   -1.0308 H   0  0  0  0  0  0  0  0  0  0  0  0
   -3.4202    0.5615    0.9656 H   0  0  0  0  0  0  0  0  0  0  0  0
   -1.4529    0.2828   -0.0172 C   0  0  0  0  0  0  0  0  0  0  0  0
   -2.7585   -1.5088   -1.1267 H   0  0  0  0  0  0  0  0  0  0  0  0
   -2.8150   -0.9233    0.6347 H   0  0  0  0  0  0  0  0  0  0  0  0
   -0.1285   -0.7621    0.1552 C   0  0  0  0  0  0  0  0  0  0  0  0
   -1.4199    0.8334    0.8453 H   0  0  0  0  0  0  0  0  0  0  0  0
   -1.3239    1.1534   -1.1852 H   0  0  0  0  0  0  0  0  0  0  0  0
   -0.1355   -1.4902    1.1484 H   0  0  0  0  0  0  0  0  0  0  0  0
    0.8308   -0.1234    0.0118 H   0  0  0  0  0  0  0  0  0  0  0  0
    0.0112   -1.3326   -0.6400 H   0  0  0  0  0  0  0  0  0  0  0  0
  1  3  1  0  0  0  0
  1  5  1  0  0  0  0
  2  6  1  0  0  0  0
  2  1  1  0  0  0  0
  2  8  1  0  0  0  0
  6  9  1  0  0  0  0
  6 10  1  0  0  0  0
  7  2  1  0  0  0  0
  9 12  1  0  0  0  0
 11  6  1  0  0  0  0
 13  9  1  0  0  0  0
 14  9  1  0  0  0  0
M  RAD  2   1   2   4   2
M  END
$$$$
