butane_opt
 OpenBabel08242015403D

 14 10  0  0  0  0  0  0  0  0999 V2000
   -3.9669    0.2052    0.0913 C   0  0  0  0  0  0  0  0  0  0  0  0
   -2.7103   -0.6008   -0.0400 C   0  0  0  0  0  0  0  0  0  0  0  0
   -4.9724   -0.3884   -0.1376 H   0  0  0  0  0  0  0  0  0  0  0  0
   -4.1506    0.6570   -0.6812 H   0  0  0  0  0  0  0  0  0  0  0  0
   -4.1923    1.3919    1.0806 H   0  0  0  0  0  0  0  0  0  0  0  0
   -1.3995    0.2378   -0.0697 C   0  0  0  0  0  0  0  0  0  0  0  0
   -2.9822   -1.3393   -1.0024 H   0  0  0  0  0  0  0  0  0  0  0  0
   -2.6465   -1.0140    0.6859 H   0  0  0  0  0  0  0  0  0  0  0  0
   -0.0807   -0.7271    0.1055 C   0  0  0  0  0  0  0  0  0  0  0  0
   -1.6817    0.8928    0.8738 H   0  0  0  0  0  0  0  0  0  0  0  0
   -1.3568    0.6868   -0.8211 H   0  0  0  0  0  0  0  0  0  0  0  0
    0.2181   -1.8515    1.3542 H   0  0  0  0  0  0  0  0  0  0  0  0
    0.8609   -0.1395   -0.4932 H   0  0  0  0  0  0  0  0  0  0  0  0
   -0.1973   -0.7558   -0.3940 H   0  0  0  0  0  0  0  0  0  0  0  0
  2  1  1  0  0  0  0
  2  8  1  0  0  0  0
  3  1  1  0  0  0  0
  4  1  1  0  0  0  0
  6  2  1  0  0  0  0
  6  9  1  0  0  0  0
  6 10  1  0  0  0  0
  7  2  1  0  0  0  0
 11  6  1  0  0  0  0
 13  9  1  0  0  0  0
M  RAD  5   1   2   5   2   9   3  12   2  14   2
M  END
$$$$
