14
butane_opt
C  -4.015580   0.291546  -0.111391
C  -2.689542  -0.597141   0.274981
H  -5.069306  -0.513534  -0.917109
H  -3.587051   0.418318  -0.741101
H  -4.190954   1.100066   0.864006
C  -1.407992   0.214284   0.057991
H  -2.748899  -1.096743  -0.477754
H  -2.893934  -1.640758   1.280816
C  -0.106652  -0.704506  -0.094418
H  -1.312421   1.162973   1.107088
H  -1.471703   0.608197  -0.689263
H   0.125032  -1.385229   0.701767
H   0.771397  -0.105044  -0.130254
H  -0.044627  -1.475088  -1.076873
