butane_opt
 OpenBabel08242015403D

 14 12  0  0  0  0  0  0  0  0999 V2000
   -3.9489    0.2711   -0.1160 C   0  0  0  0  0  0  0  0  0  0  0  0
   -2.6075   -0.6248    0.2453 C   0  0  0  0  0  0  0  0  0  0  0  0
   -4.6972   -0.1561   -0.3956 H   0  0  0  0  0  0  0  0  0  0  0  0
   -3.5511    0.7604   -0.8809 H   0  0  0  0  0  0  0  0  0  0  0  0
   -4.4285    1.2272    0.9633 H   0  0  0  0  0  0  0  0  0  0  0  0
   -1.4328    0.0764    0.0732 C   0  0  0  0  0  0  0  0  0  0  0  0
   -2.6550   -1.2788   -0.6436 H   0  0  0  0  0  0  0  0  0  0  0  0
   -2.8428   -1.3303    1.1718 H   0  0  0  0  0  0  0  0  0  0  0  0
   -0.1882   -0.6312   -0.0675 C   0  0  0  0  0  0  0  0  0  0  0  0
   -1.1535    0.7735    0.9029 H   0  0  0  0  0  0  0  0  0  0  0  0
   -1.7712    0.9416   -0.8790 H   0  0  0  0  0  0  0  0  0  0  0  0
   -0.2900   -1.0703    0.7238 H   0  0  0  0  0  0  0  0  0  0  0  0
    0.8204    0.2605    0.1072 H   0  0  0  0  0  0  0  0  0  0  0  0
   -0.3621   -1.6983   -1.2096 H   0  0  0  0  0  0  0  0  0  0  0  0
  1  2  1  0  0  0  0
  1  5  1  0  0  0  0
  2  8  1  0  0  0  0
  3  1  1  0  0  0  0
  4  1  1  0  0  0  0
  6  2  1  0  0  0  0
  6 10  1  0  0  0  0
  7  2  1  0  0  0  0
  9  6  1  0  0  0  0
  9 13  1  0  0  0  0
  9 12  1  0  0  0  0
 11  6  1  0  0  0  0
M  RAD  2   9   2  14   2
M  END
$$$$
