14
butane_opt
C  -3.968036   0.312166   0.103880
C  -2.602000  -0.654146  -0.034681
H  -4.940861  -0.251386   0.421538
H  -4.046837   0.913485  -0.820483
H  -3.867248   0.963571   0.867388
C  -1.425891   0.110716  -0.110020
H  -2.647349  -1.349050  -0.870572
H  -2.364913  -1.271677   0.783681
C  -0.200528  -0.637518   0.169994
H  -1.407063   0.502952   0.392476
H  -1.161432   0.853103  -1.163503
H  -0.572967  -0.707330   0.666720
H   0.756897   0.079051   0.565658
H  -0.390814  -1.788419  -0.986092
