butane_opt
 OpenBabel08242015403D

 14 13  0  0  0  0  0  0  0  0999 V2000
   -3.9867    0.3271   -0.1058 C   0  0  0  0  0  0  0  0  0  0  0  0
   -2.6532   -0.6229    0.2735 C   0  0  0  0  0  0  0  0  0  0  0  0
   -4.8787   -0.2214   -0.8295 H   0  0  0  0  0  0  0  0  0  0  0  0
   -3.4079    0.8152   -1.0641 H   0  0  0  0  0  0  0  0  0  0  0  0
   -4.1829    0.9728    0.7329 H   0  0  0  0  0  0  0  0  0  0  0  0
   -1.3818    0.0706    0.1416 C   0  0  0  0  0  0  0  0  0  0  0  0
   -2.8036   -1.3058   -0.6495 H   0  0  0  0  0  0  0  0  0  0  0  0
   -2.7573   -1.2827    1.0997 H   0  0  0  0  0  0  0  0  0  0  0  0
   -0.2081   -0.6346   -0.0920 C   0  0  0  0  0  0  0  0  0  0  0  0
   -1.1062    0.9020    0.9985 H   0  0  0  0  0  0  0  0  0  0  0  0
   -1.4646    0.6604   -0.6662 H   0  0  0  0  0  0  0  0  0  0  0  0
    0.0651   -1.3885    0.8023 H   0  0  0  0  0  0  0  0  0  0  0  0
    0.7648    0.1980   -0.4366 H   0  0  0  0  0  0  0  0  0  0  0  0
   -0.5655   -1.4911   -1.1649 H   0  0  0  0  0  0  0  0  0  0  0  0
  1  2  1  0  0  0  0
  1  5  1  0  0  0  0
  2  8  1  0  0  0  0
  3  1  1  0  0  0  0
  4  1  1  0  0  0  0
  6  2  1  0  0  0  0
  6 10  1  0  0  0  0
  7  2  1  0  0  0  0
  9  6  1  0  0  0  0
  9 12  1  0  0  0  0
 11  6  1  0  0  0  0
 13  9  1  0  0  0  0
 14  9  1  0  0  0  0
M  END
$$$$
