14
butane_opt
C  -3.953620   0.187152   0.176097
C  -2.719333  -0.580173  -0.201826
H  -4.779749  -0.356694   0.852554
H  -4.451820   1.116910  -0.846255
H  -3.579792   0.650498   1.047388
C  -1.424397   0.318971  -0.122137
H  -3.014209  -1.470795  -1.204056
H  -2.843251  -1.121725   0.593778
C  -0.051668  -0.762773   0.160752
H  -1.672593   1.139706   0.661612
H  -1.254881   0.836606  -0.940505
H  -0.523779  -1.706803   1.352960
H   0.635545  -0.263340   0.183011
H   0.306160  -1.260557  -0.437217
