butane_opt
 OpenBabel08242015403D

 14 10  0  0  0  0  0  0  0  0999 V2000
   -3.9709    0.1879    0.1270 C   0  0  0  0  0  0  0  0  0  0  0  0
   -2.7300   -0.5720   -0.0106 C   0  0  0  0  0  0  0  0  0  0  0  0
   -4.8729   -0.5205   -0.5770 H   0  0  0  0  0  0  0  0  0  0  0  0
   -3.3615    0.3058   -0.5877 H   0  0  0  0  0  0  0  0  0  0  0  0
   -4.3051    1.3937    1.2987 H   0  0  0  0  0  0  0  0  0  0  0  0
   -1.4303    0.3240   -0.0981 C   0  0  0  0  0  0  0  0  0  0  0  0
   -2.7861   -1.2683   -0.7742 H   0  0  0  0  0  0  0  0  0  0  0  0
   -2.5201   -1.1014    0.6457 H   0  0  0  0  0  0  0  0  0  0  0  0
   -0.1065   -0.7558    0.1238 C   0  0  0  0  0  0  0  0  0  0  0  0
   -1.3560    0.6853    0.5908 H   0  0  0  0  0  0  0  0  0  0  0  0
   -1.5203    1.1656   -1.1010 H   0  0  0  0  0  0  0  0  0  0  0  0
    0.0499   -1.7581    1.1301 H   0  0  0  0  0  0  0  0  0  0  0  0
    0.6197   -0.2951   -0.1466 H   0  0  0  0  0  0  0  0  0  0  0  0
   -0.0900   -1.3116   -0.6356 H   0  0  0  0  0  0  0  0  0  0  0  0
  2  8  1  0  0  0  0
  3  1  1  0  0  0  0
  4  1  1  0  0  0  0
  6  9  1  0  0  0  0
  6 10  1  0  0  0  0
  7  2  1  0  0  0  0
  9 12  1  0  0  0  0
 11  6  1  0  0  0  0
 13  9  1  0  0  0  0
 14  9  1  0  0  0  0
M  RAD  4   1   3   2   3   5   2   6   2
M  END
$$$$
