butane_opt
 OpenBabel08242015403D

 14 12  0  0  0  0  0  0  0  0999 V2000
   -3.9037    0.3009    0.1430 C   0  0  0  0  0  0  0  0  0  0  0  0
   -2.6942   -0.6325   -0.0734 C   0  0  0  0  0  0  0  0  0  0  0  0
   -4.7497   -0.3492   -0.2566 H   0  0  0  0  0  0  0  0  0  0  0  0
   -3.9229    1.0115   -0.8344 H   0  0  0  0  0  0  0  0  0  0  0  0
   -4.0387    0.9021    1.0900 H   0  0  0  0  0  0  0  0  0  0  0  0
   -1.4199    0.1395   -0.0338 C   0  0  0  0  0  0  0  0  0  0  0  0
   -2.6989   -1.5609   -1.1932 H   0  0  0  0  0  0  0  0  0  0  0  0
   -2.4151   -1.0582    0.6424 H   0  0  0  0  0  0  0  0  0  0  0  0
   -0.2379   -0.6379    0.1184 C   0  0  0  0  0  0  0  0  0  0  0  0
   -1.3418    0.5138    0.6765 H   0  0  0  0  0  0  0  0  0  0  0  0
   -1.4279    0.6972   -0.9083 H   0  0  0  0  0  0  0  0  0  0  0  0
    0.0877   -1.7084    1.2379 H   0  0  0  0  0  0  0  0  0  0  0  0
    0.7502    0.0988   -0.3799 H   0  0  0  0  0  0  0  0  0  0  0  0
   -0.2384   -0.9870   -0.4604 H   0  0  0  0  0  0  0  0  0  0  0  0
  1  5  1  0  0  0  0
  2  6  1  0  0  0  0
  2  1  1  0  0  0  0
  2  8  1  0  0  0  0
  3  1  1  0  0  0  0
  4  1  1  0  0  0  0
  6  9  1  0  0  0  0
  6 10  1  0  0  0  0
  7  2  1  0  0  0  0
 11  6  1  0  0  0  0
 13  9  1  0  0  0  0
 14  9  1  0  0  0  0
M  RAD  2   9   2  12   2
M  END
$$$$
