14
butane_opt
C  -3.958088   0.180411  -0.142451
C  -2.738969  -0.547860   0.206624
H  -4.824754  -0.510700  -0.376336
H  -3.788723   0.915070  -1.049950
H  -4.229715   0.987266   0.813985
C  -1.408875   0.300538   0.220267
H  -2.898222  -1.181102  -0.613870
H  -2.907484  -1.163375   1.035385
C  -0.115305  -0.802463  -0.143562
H  -1.076687   0.992189   1.042507
H  -1.568276   0.823084  -0.614078
H   0.138392  -1.501692   0.853846
H   0.759737  -0.215287  -0.539868
H   0.070293  -1.192233  -0.800221
