butane_opt
 OpenBabel08242015403D

 14 10  0  0  0  0  0  0  0  0999 V2000
   -3.8668    0.2255    0.1627 C   0  0  0  0  0  1  0  0  0  0  0  0
   -2.6767   -0.5392   -0.0940 C   0  0  0  0  0  0  0  0  0  0  0  0
   -4.8404   -0.4289   -0.7183 H   0  0  0  0  0  0  0  0  0  0  0  0
   -3.8015   -0.0706   -0.0799 H   0  0  0  0  0  0  0  0  0  0  0  0
   -4.1842    1.6827    1.5106 H   0  0  0  0  0  0  0  0  0  0  0  0
   -1.4747    0.2123   -0.1894 C   0  0  0  0  0  0  0  0  0  0  0  0
   -2.9919   -1.2362   -0.9223 H   0  0  0  0  0  0  0  0  0  0  0  0
   -2.8658   -1.5148    0.9504 H   0  0  0  0  0  0  0  0  0  0  0  0
   -0.1491   -0.7098    0.1972 C   0  0  0  0  0  0  0  0  0  0  0  0
   -1.4761    0.6553    0.5270 H   0  0  0  0  0  0  0  0  0  0  0  0
   -1.6011    1.1155   -1.1971 H   0  0  0  0  0  0  0  0  0  0  0  0
   -0.1585   -1.6410    1.2342 H   0  0  0  0  0  0  0  0  0  0  0  0
    0.7691   -0.2967   -0.1665 H   0  0  0  0  0  0  0  0  0  0  0  0
    0.1361   -1.0077   -0.4962 H   0  0  0  0  0  0  0  0  0  0  0  0
  2  4  1  0  0  0  0
  3  1  1  0  0  0  0
  6  2  1  0  0  0  0
  6  9  1  0  0  0  0
  6 10  1  0  0  0  0
  7  2  1  0  0  0  0
  9 12  1  0  0  0  0
 11  6  1  0  0  0  0
 13  9  1  0  0  0  0
 14  9  1  0  0  0  0
M  RAD  3   2   2   5   2   8   2
M  END
$$$$
