14
butane_opt
C  -3.960769   0.223542  -0.190317
C  -2.782526  -0.556202   0.330070
H  -4.953003  -0.384749  -0.748130
H  -3.454252   0.514545  -0.881206
H  -4.507175   1.316101   1.069198
C  -1.357346   0.205356   0.162640
H  -2.508598  -1.033388  -0.341697
H  -3.323554  -1.263113   1.179058
C  -0.042496  -0.715720  -0.140496
H  -1.394953   0.724203   0.885512
H  -1.697906   0.937768  -0.759087
H   0.142834  -1.209562   0.557600
H   0.816730  -0.301624  -0.208526
H  -0.400207  -1.677260  -1.183914
