butane_opt
 OpenBabel08242015403D

 14 13  0  0  0  0  0  0  0  0999 V2000
   -3.9500    0.2700    0.0041 C   0  0  0  0  0  0  0  0  0  0  0  0
   -2.7009   -0.6298    0.0527 C   0  0  0  0  0  0  0  0  0  0  0  0
   -4.8454   -0.2775    0.0979 H   0  0  0  0  0  0  0  0  0  0  0  0
   -4.0079    0.9188   -0.9251 H   0  0  0  0  0  0  0  0  0  0  0  0
   -4.0084    0.9119    0.8349 H   0  0  0  0  0  0  0  0  0  0  0  0
   -1.3877    0.1863    0.0192 C   0  0  0  0  0  0  0  0  0  0  0  0
   -2.6836   -1.2751   -0.7463 H   0  0  0  0  0  0  0  0  0  0  0  0
   -2.7664   -1.2862    0.9744 H   0  0  0  0  0  0  0  0  0  0  0  0
   -0.1561   -0.6861    0.0181 C   0  0  0  0  0  0  0  0  0  0  0  0
   -1.3878    0.8447    0.8584 H   0  0  0  0  0  0  0  0  0  0  0  0
   -1.4157    0.7940   -0.8616 H   0  0  0  0  0  0  0  0  0  0  0  0
   -0.1867   -1.2155    0.8668 H   0  0  0  0  0  0  0  0  0  0  0  0
    0.7463   -0.1049    0.1244 H   0  0  0  0  0  0  0  0  0  0  0  0
   -0.1316   -1.4663   -0.9190 H   0  0  0  0  0  0  0  0  0  0  0  0
  1  2  1  0  0  0  0
  1  3  1  0  0  0  0
  1  5  1  0  0  0  0
  2  8  1  0  0  0  0
  4  1  1  0  0  0  0
  6  2  1  0  0  0  0
  6 10  1  0  0  0  0
  7  2  1  0  0  0  0
  9  6  1  0  0  0  0
  9 13  1  0  0  0  0
  9 12  1  0  0  0  0
 11  6  1  0  0  0  0
 14  9  1  0  0  0  0
M  END
$$$$
