14
butane_opt
C  -3.943919   0.258595   0.082864
C  -2.769798  -0.578550  -0.085367
H  -4.942501  -0.408745  -0.106447
H  -4.195718   0.336135  -0.343026
H  -3.907871   1.451566   1.317794
C  -1.391366   0.154377  -0.063247
H  -2.934299  -1.271336  -1.090722
H  -2.973163  -1.086298   0.655040
C  -0.080065  -0.725002   0.141325
H  -1.523746   1.019189   0.850472
H  -1.207746   0.940233  -1.060656
H   0.066238  -2.045018   1.512695
H   0.844218  -0.111061  -0.755586
H  -0.031628  -0.638177  -0.338345
