butane_opt
 OpenBabel08242015403D

 14 12  0  0  0  0  0  0  0  0999 V2000
   -4.0106    0.3319   -0.1298 C   0  0  0  0  0  0  0  0  0  0  0  0
   -2.6526   -0.7278    0.2481 C   0  0  0  0  0  0  0  0  0  0  0  0
   -4.8832   -0.1092   -0.6733 H   0  0  0  0  0  0  0  0  0  0  0  0
   -3.8642    0.3466   -0.5546 H   0  0  0  0  0  0  0  0  0  0  0  0
   -4.3032    1.3253    0.9660 H   0  0  0  0  0  0  0  0  0  0  0  0
   -1.3552    0.1835    0.0958 C   0  0  0  0  0  0  0  0  0  0  0  0
   -2.6667   -1.2790   -0.6041 H   0  0  0  0  0  0  0  0  0  0  0  0
   -2.8028   -1.2986    1.1683 H   0  0  0  0  0  0  0  0  0  0  0  0
   -0.1616   -0.6500   -0.0728 C   0  0  0  0  0  0  0  0  0  0  0  0
   -1.1485    0.5211    0.7618 H   0  0  0  0  0  0  0  0  0  0  0  0
   -1.4121    1.0780   -0.9390 H   0  0  0  0  0  0  0  0  0  0  0  0
   -0.0419   -1.1903    0.6458 H   0  0  0  0  0  0  0  0  0  0  0  0
    0.6535   -0.1352    0.0821 H   0  0  0  0  0  0  0  0  0  0  0  0
   -0.3980   -1.4154   -1.0542 H   0  0  0  0  0  0  0  0  0  0  0  0
  1  2  1  0  0  0  0
  1  5  1  0  0  0  0
  2  8  1  0  0  0  0
  3  1  1  0  0  0  0
  6  2  1  0  0  0  0
  6 10  1  0  0  0  0
  7  2  1  0  0  0  0
  9 13  1  0  0  0  0
  9  6  1  0  0  0  0
  9 12  1  0  0  0  0
 11  6  1  0  0  0  0
 14  9  1  0  0  0  0
M  RAD  2   1   2   4   2
M  END
$$$$
