butane_opt
 OpenBabel08242015403D

 14 11  0  0  0  0  0  0  0  0999 V2000
   -3.9037    0.2296   -0.1272 C   0  0  0  0  0  0  0  0  0  0  0  0
   -2.7052   -0.5419    0.2372 C   0  0  0  0  0  0  0  0  0  0  0  0
   -4.8899   -0.5163    0.2325 H   0  0  0  0  0  0  0  0  0  0  0  0
   -3.9026    1.1206   -1.1038 H   0  0  0  0  0  0  0  0  0  0  0  0
   -3.7427    0.6704    0.5548 H   0  0  0  0  0  0  0  0  0  0  0  0
   -1.4129    0.1988    0.0691 C   0  0  0  0  0  0  0  0  0  0  0  0
   -2.6055   -1.0148   -0.5726 H   0  0  0  0  0  0  0  0  0  0  0  0
   -3.0223   -1.4272    1.3003 H   0  0  0  0  0  0  0  0  0  0  0  0
   -0.1424   -0.7495   -0.0514 C   0  0  0  0  0  1  0  0  0  0  0  0
   -1.2628    0.9116    0.9870 H   0  0  0  0  0  0  0  0  0  0  0  0
   -1.7298    0.9165   -0.9618 H   0  0  0  0  0  0  0  0  0  0  0  0
   -0.6020   -0.4008    0.1111 H   0  0  0  0  0  0  0  0  0  0  0  0
    0.8031   -0.2139    0.7217 H   0  0  0  0  0  0  0  0  0  0  0  0
   -0.0527   -2.1965   -1.4471 H   0  0  0  0  0  0  0  0  0  0  0  0
  1  3  1  0  0  0  0
  1  2  1  0  0  0  0
  1  5  1  0  0  0  0
  2  8  1  0  0  0  0
  4  1  1  0  0  0  0
  6 12  1  0  0  0  0
  6  2  1  0  0  0  0
  6 10  1  0  0  0  0
  7  2  1  0  0  0  0
  9 13  1  0  0  0  0
 11  6  1  0  0  0  0
M  RAD  1  14   2
M  END
$$$$
