14
butane_opt
C  -3.962633   0.216415  -0.088308
C  -2.742291  -0.556700   0.183216
H  -4.833692  -0.427530   0.439829
H  -3.603866   1.329602  -1.299849
H  -3.935132   0.171168   0.282141
C  -1.493356   0.251008   0.111565
H  -2.615306  -1.219487  -0.774873
H  -2.880156  -1.175988   1.119130
C  -0.055571  -0.769385  -0.081795
H  -1.355383   1.213794   1.148300
H  -1.483413   0.716093  -0.598648
H  -0.012899  -0.842285   0.567840
H   0.822850  -0.092549   0.207169
H  -0.082719  -1.866152  -1.233263
