14
butane_opt
C  -4.005584   0.305986  -0.135402
C  -2.606810  -0.654518   0.107015
H  -4.896304  -0.262659   0.531390
H  -4.201813   1.339625  -1.184740
H  -3.920152   0.431994   0.418793
C  -1.396520   0.088310   0.185385
H  -2.647219  -1.158337  -0.681918
H  -2.629569  -1.376973   1.174038
C  -0.207399  -0.635276  -0.111523
H  -1.070650   1.135700   1.453855
H  -1.476445   0.665213  -0.543726
H  -0.181294  -1.207901   0.680901
H   0.684863   0.071065  -0.065621
H  -0.107747  -1.367805  -0.959972
