butane_opt
 OpenBabel08242015403D

 14 12  0  0  0  0  0  0  0  0999 V2000
   -3.9608    0.2235   -0.1903 C   0  0  0  0  0  0  0  0  0  0  0  0
   -2.7825   -0.5562    0.3301 C   0  0  0  0  0  0  0  0  0  0  0  0
   -4.9530   -0.3847   -0.7481 H   0  0  0  0  0  0  0  0  0  0  0  0
   -3.4543    0.5145   -0.8812 H   0  0  0  0  0  0  0  0  0  0  0  0
   -4.5072    1.3161    1.0692 H   0  0  0  0  0  0  0  0  0  0  0  0
   -1.3573    0.2054    0.1626 C   0  0  0  0  0  0  0  0  0  0  0  0
   -2.5086   -1.0334   -0.3417 H   0  0  0  0  0  0  0  0  0  0  0  0
   -3.3236   -1.2631    1.1791 H   0  0  0  0  0  0  0  0  0  0  0  0
   -0.0425   -0.7157   -0.1405 C   0  0  0  0  0  0  0  0  0  0  0  0
   -1.3950    0.7242    0.8855 H   0  0  0  0  0  0  0  0  0  0  0  0
   -1.6979    0.9378   -0.7591 H   0  0  0  0  0  0  0  0  0  0  0  0
    0.1428   -1.2096    0.5576 H   0  0  0  0  0  0  0  0  0  0  0  0
    0.8167   -0.3016   -0.2085 H   0  0  0  0  0  0  0  0  0  0  0  0
   -0.4002   -1.6773   -1.1839 H   0  0  0  0  0  0  0  0  0  0  0  0
  1  2  1  0  0  0  0
  2  8  1  0  0  0  0
  3  1  1  0  0  0  0
  4  1  1  0  0  0  0
  6  2  1  0  0  0  0
  6 10  1  0  0  0  0
  7  2  1  0  0  0  0
  9  6  1  0  0  0  0
  9 12  1  0  0  0  0
 11  6  1  0  0  0  0
 13  9  1  0  0  0  0
 14  9  1  0  0  0  0
M  RAD  2   1   2   5   2
M  END
$$$$
