14
butane_opt
C  -4.012005   0.237869  -0.061057
C  -2.727694  -0.616927   0.031544
H  -4.836020  -0.230507   0.711994
H  -4.403821   1.476328  -1.451416
H  -3.588994   0.198584   0.425175
C  -1.321279   0.211040   0.126804
H  -2.703929  -1.017948  -0.616367
H  -2.782437  -1.256920   1.073400
C  -0.157464  -0.704209  -0.005141
H  -1.464628   1.316121   1.253015
H  -1.326969   0.567911  -0.597679
H   0.236135  -1.102996   0.529807
H   0.594559  -0.330379  -0.034120
H  -0.123257  -1.624485  -1.081452
