butane_opt
 OpenBabel08242015403D

 14 13  0  0  0  0  0  0  0  0999 V2000
   -3.9432    0.2799   -0.0147 C   0  0  0  0  0  0  0  0  0  0  0  0
   -2.6957   -0.6320    0.0900 C   0  0  0  0  0  0  0  0  0  0  0  0
   -4.8379   -0.2847   -0.1321 H   0  0  0  0  0  0  0  0  0  0  0  0
   -3.8981    0.8507   -0.9220 H   0  0  0  0  0  0  0  0  0  0  0  0
   -4.0305    0.9746    0.8507 H   0  0  0  0  0  0  0  0  0  0  0  0
   -1.3948    0.1740    0.0423 C   0  0  0  0  0  0  0  0  0  0  0  0
   -2.6770   -1.2783   -0.7562 H   0  0  0  0  0  0  0  0  0  0  0  0
   -2.7527   -1.3058    1.0048 H   0  0  0  0  0  0  0  0  0  0  0  0
   -0.1760   -0.6795    0.0011 C   0  0  0  0  0  0  0  0  0  0  0  0
   -1.3691    0.8427    0.9049 H   0  0  0  0  0  0  0  0  0  0  0  0
   -1.3956    0.7581   -0.8322 H   0  0  0  0  0  0  0  0  0  0  0  0
   -0.0612   -1.2691    0.8756 H   0  0  0  0  0  0  0  0  0  0  0  0
    0.7157   -0.0790   -0.0749 H   0  0  0  0  0  0  0  0  0  0  0  0
   -0.2132   -1.3824   -0.9053 H   0  0  0  0  0  0  0  0  0  0  0  0
  1  2  1  0  0  0  0
  1  5  1  0  0  0  0
  2  8  1  0  0  0  0
  3  1  1  0  0  0  0
  4  1  1  0  0  0  0
  6  2  1  0  0  0  0
  6 10  1  0  0  0  0
  7  2  1  0  0  0  0
  9  6  1  0  0  0  0
  9 12  1  0  0  0  0
 11  6  1  0  0  0  0
 13  9  1  0  0  0  0
 14  9  1  0  0  0  0
M  END
$$$$
