14
butane_opt
C  -3.948888   0.271129  -0.115997
C  -2.607451  -0.624803   0.245259
H  -4.697204  -0.156098  -0.395599
H  -3.551142   0.760409  -0.880869
H  -4.428451   1.227192   0.963294
C  -1.432802   0.076392   0.073228
H  -2.654963  -1.278769  -0.643614
H  -2.842774  -1.330322   1.171837
C  -0.188229  -0.631156  -0.067459
H  -1.153471   0.773524   0.902888
H  -1.771184   0.941618  -0.878968
H  -0.290042  -1.070344   0.723752
H   0.820435   0.260519   0.107166
H  -0.362057  -1.698296  -1.209608
