14
butane_opt
C  -3.911331   0.250597  -0.153766
C  -2.663677  -0.578533   0.236674
H  -5.080189  -0.678214  -0.254671
H  -3.589348   0.784418  -1.053843
H  -4.174385   1.040108   0.780721
C  -1.452634   0.204494   0.191991
H  -2.348847  -1.017409  -0.485632
H  -3.180383  -1.337873   1.202480
C  -0.169783  -0.697797  -0.118918
H  -1.299903   0.693043   0.986149
H  -1.592953   0.796738  -0.707660
H   0.173183  -1.101443   0.585172
H   0.647380  -0.316966  -0.172580
H  -0.188666  -1.511733  -1.268343
