butane_opt
 OpenBabel08242015403D

 14  8  0  0  0  0  0  0  0  0999 V2000
   -3.9245    0.2557    0.1690 C   0  0  0  0  0 15  0  0  0  0  0  0
   -2.7098   -0.5460   -0.0880 C   0  0  0  0  0  0  0  0  0  0  0  0
   -5.0675   -0.5557   -0.6217 H   0  0  0  0  0  0  0  0  0  0  0  0
   -3.8421    0.2331   -0.3346 H   0  0  0  0  0  0  0  0  0  0  0  0
   -4.0443    1.3530    1.3124 H   0  0  0  0  0  0  0  0  0  0  0  0
   -1.4286    0.1897   -0.0980 C   0  0  0  0  0  0  0  0  0  0  0  0
   -2.9527   -1.4968   -1.1139 H   0  0  0  0  0  0  0  0  0  0  0  0
   -2.7312   -1.0308    0.7825 H   0  0  0  0  0  0  0  0  0  0  0  0
   -0.1368   -0.6954    0.1677 C   0  0  0  0  0  0  0  0  0  0  0  0
   -1.6896    0.6783    0.5228 H   0  0  0  0  0  0  0  0  0  0  0  0
   -1.0067    1.1506   -1.2570 H   0  0  0  0  0  0  0  0  0  0  0  0
    0.1473   -2.0629    1.2831 H   0  0  0  0  0  0  0  0  0  0  0  0
    0.7191   -0.2052   -0.4618 H   0  0  0  0  0  0  0  0  0  0  0  0
   -0.1469   -1.0105   -0.4096 H   0  0  0  0  0  0  0  0  0  0  0  0
  2  8  1  0  0  0  0
  4  2  1  0  0  0  0
  6  2  1  0  0  0  0
  6  9  1  0  0  0  0
  6 10  1  0  0  0  0
  7  2  1  0  0  0  0
 13  9  1  0  0  0  0
 14  9  1  0  0  0  0
M  RAD  6   3   2   5   2   6   2   9   2  11   2  12   2
M  END
$$$$
