14
butane_opt
C  -3.916085   0.244736  -0.007884
C  -2.734180  -0.562071  -0.013141
H  -4.949342  -0.514610   0.441723
H  -3.850165   1.433237  -1.292901
H  -3.567613   0.404016   0.579829
C  -1.389623   0.163487   0.112063
H  -2.940181  -1.060170  -0.635350
H  -2.429606  -1.116996   0.876186
C  -0.212256  -0.691734  -0.024303
H  -1.482215   1.173462   1.276140
H  -1.435022   0.478723  -0.624702
H  -0.091441  -1.533949   0.988250
H   0.704462  -0.242596  -0.207523
H   0.007759  -1.331057  -0.867664
