butane_opt
 OpenBabel08242015403D

 14 13  0  0  0  0  0  0  0  0999 V2000
   -3.9474    0.2749    0.0011 C   0  0  0  0  0  0  0  0  0  0  0  0
   -2.6837   -0.6325    0.0706 C   0  0  0  0  0  0  0  0  0  0  0  0
   -4.8593   -0.3028   -0.0106 H   0  0  0  0  0  0  0  0  0  0  0  0
   -3.9288    0.9480   -0.9471 H   0  0  0  0  0  0  0  0  0  0  0  0
   -4.0575    0.8970    0.8519 H   0  0  0  0  0  0  0  0  0  0  0  0
   -1.3956    0.1772    0.0260 C   0  0  0  0  0  0  0  0  0  0  0  0
   -2.7002   -1.3146   -0.7965 H   0  0  0  0  0  0  0  0  0  0  0  0
   -2.6797   -1.2974    0.9956 H   0  0  0  0  0  0  0  0  0  0  0  0
   -0.1821   -0.6804    0.0089 C   0  0  0  0  0  0  0  0  0  0  0  0
   -1.3454    0.8436    0.8781 H   0  0  0  0  0  0  0  0  0  0  0  0
   -1.4379    0.8292   -0.8641 H   0  0  0  0  0  0  0  0  0  0  0  0
   -0.1335   -1.2240    0.8397 H   0  0  0  0  0  0  0  0  0  0  0  0
    0.7565   -0.0692    0.1200 H   0  0  0  0  0  0  0  0  0  0  0  0
   -0.1372   -1.4479   -0.9134 H   0  0  0  0  0  0  0  0  0  0  0  0
  1  2  1  0  0  0  0
  1  5  1  0  0  0  0
  2  8  1  0  0  0  0
  3  1  1  0  0  0  0
  4  1  1  0  0  0  0
  6  2  1  0  0  0  0
  6 10  1  0  0  0  0
  7  2  1  0  0  0  0
  9  6  1  0  0  0  0
  9 13  1  0  0  0  0
  9 12  1  0  0  0  0
 11  6  1  0  0  0  0
 14  9  1  0  0  0  0
M  END
$$$$
