14
butane_opt
C  -3.882414   0.255099  -0.135931
C  -2.738574  -0.556006   0.179711
H  -5.024154  -0.501327  -0.437127
H  -3.515767   0.751703  -1.114869
H  -3.928194   0.712605   0.644711
C  -1.459857   0.252994   0.267331
H  -2.720793  -1.132481  -0.662572
H  -2.740070  -1.299209   1.111876
C  -0.128453  -0.757620  -0.134267
H  -1.262316   0.781921   0.986857
H  -1.406837   0.793893  -0.447481
H   0.254975  -1.468923   0.898491
H   0.560058  -0.250109  -0.757860
H  -0.680628  -1.233364  -0.918940
