14
butane_opt
C  -3.922392   0.233274   0.119276
C  -2.687683  -0.493781  -0.113643
H  -4.954930  -0.654065   0.671571
H  -4.215077   1.106340  -0.854979
H  -3.577025   0.452939   0.789537
C  -1.408484   0.218184  -0.034950
H  -3.084043  -1.592693  -1.326763
H  -2.700960  -0.966779   0.627401
C  -0.170551  -0.744837   0.115564
H  -1.401813   0.688233   0.807666
H  -1.375078   0.975092  -1.072333
H  -0.265166  -1.479583   1.174748
H   0.627019  -0.246810   0.128449
H   0.214945  -1.299800  -0.576843
