14
butane_opt
C  -3.973456   0.239993  -0.076433
C  -2.690892  -0.561134   0.086217
H  -4.929843  -0.389699   0.115501
H  -3.830997   0.936514  -1.041695
H  -4.158873   0.721396   0.620039
C  -1.431033   0.190256   0.197620
H  -2.765852  -1.297512  -0.867888
H  -2.987001  -1.350680   1.222881
C  -0.049084  -0.706367  -0.070442
H  -1.654312   0.906934   0.970457
H  -1.327551   0.820856  -0.768864
H   0.214890  -1.291017   0.841177
H   0.633056  -0.149445  -0.461718
H  -0.453439  -1.347771  -0.847253
