butane_opt
 OpenBabel08242015403D

 14 11  0  0  0  0  0  0  0  0999 V2000
   -3.9054    0.2834    0.1316 C   0  0  0  0  0  0  0  0  0  0  0  0
   -2.6541   -0.6716   -0.1339 C   0  0  0  0  0  0  0  0  0  0  0  0
   -4.7645   -0.2618    0.6783 H   0  0  0  0  0  0  0  0  0  0  0  0
   -4.2611    1.1613   -0.7980 H   0  0  0  0  0  0  0  0  0  0  0  0
   -3.9212    0.8551    1.0237 H   0  0  0  0  0  0  0  0  0  0  0  0
   -1.4134    0.1026   -0.0785 C   0  0  0  0  0  0  0  0  0  0  0  0
   -2.4804   -1.5464   -1.1583 H   0  0  0  0  0  0  0  0  0  0  0  0
   -2.3119   -0.7766    0.4203 H   0  0  0  0  0  0  0  0  0  0  0  0
   -0.2546   -0.6291    0.1462 C   0  0  0  0  0  0  0  0  0  0  0  0
   -1.4045    0.8928    0.7527 H   0  0  0  0  0  0  0  0  0  0  0  0
   -1.2204    0.6968   -1.0446 H   0  0  0  0  0  0  0  0  0  0  0  0
   -0.3746   -1.6924    1.3693 H   0  0  0  0  0  0  0  0  0  0  0  0
    0.5975    0.1382   -0.1208 H   0  0  0  0  0  0  0  0  0  0  0  0
   -0.1408   -0.9757   -0.4300 H   0  0  0  0  0  0  0  0  0  0  0  0
  1  3  1  0  0  0  0
  1  5  1  0  0  0  0
  2  1  1  0  0  0  0
  2  8  1  0  0  0  0
  4  1  1  0  0  0  0
  6  9  1  0  0  0  0
  6 10  1  0  0  0  0
  7  2  1  0  0  0  0
 11  6  1  0  0  0  0
 13  9  1  0  0  0  0
 14  9  1  0  0  0  0
M  RAD  4   2   2   6   2   9   2  12   2
M  END
$$$$
