butane_opt
 OpenBabel08242015403D

 14 10  0  0  0  0  0  0  0  0999 V2000
   -3.9859    0.3312    0.1414 C   0  0  0  0  0  0  0  0  0  0  0  0
   -2.7197   -0.7514   -0.0911 C   0  0  0  0  0  0  0  0  0  0  0  0
   -4.6609   -0.0126   -0.2249 H   0  0  0  0  0  0  0  0  0  0  0  0
   -3.9374    0.5970   -0.5533 H   0  0  0  0  0  0  0  0  0  0  0  0
   -4.0765    1.2845    1.2109 H   0  0  0  0  0  0  0  0  0  0  0  0
   -1.3764    0.2031   -0.0975 C   0  0  0  0  0  0  0  0  0  0  0  0
   -2.7927   -1.4238   -1.0596 H   0  0  0  0  0  0  0  0  0  0  0  0
   -2.9505   -1.1212    0.7086 H   0  0  0  0  0  0  0  0  0  0  0  0
   -0.1352   -0.6638    0.1057 C   0  0  0  0  0  1  0  0  0  0  0  0
   -1.2759    0.8749    0.8134 H   0  0  0  0  0  0  0  0  0  0  0  0
   -1.3043    0.6480   -0.8352 H   0  0  0  0  0  0  0  0  0  0  0  0
   -0.1064   -2.1343    1.4805 H   0  0  0  0  0  0  0  0  0  0  0  0
    0.8003    0.1090   -0.3378 H   0  0  0  0  0  0  0  0  0  0  0  0
   -0.1795   -0.6760   -0.3322 H   0  0  0  0  0  0  0  0  0  0  0  0
  1  5  1  0  0  0  0
  2  1  1  0  0  0  0
  2  8  1  0  0  0  0
  3  1  1  0  0  0  0
  4  1  1  0  0  0  0
  6 10  1  0  0  0  0
  7  2  1  0  0  0  0
 11  6  1  0  0  0  0
 13  9  1  0  0  0  0
 14  6  1  0  0  0  0
M  RAD  3   2   2   6   2  12   2
M  END
$$$$
