14
butane_opt
C  -3.856195   0.245799  -0.109078
C  -2.758200  -0.595739   0.173131
H  -4.767189  -0.312819   0.185094
H  -3.848130   1.296664  -1.294122
H  -3.773758   0.221378   0.236300
C  -1.418875   0.261831   0.185899
H  -2.675638  -1.226349  -0.580530
H  -3.027546  -1.287014   1.189229
C  -0.182983  -0.759374  -0.084974
H  -1.531832   1.176188   1.114942
H  -1.537207   0.817311  -0.588995
H   0.245171  -1.059375   0.338503
H   0.782799  -0.118496   0.010525
H  -0.323566  -1.800202  -1.243910
