14
butane_opt
C  -4.017681   0.275044   0.104907
C  -2.665727  -0.616078  -0.082989
H  -4.949681  -0.312801   0.001474
H  -4.461502   0.728130  -0.667079
H  -3.999808   1.130616   1.167453
C  -1.378836   0.163849  -0.064673
H  -2.735934  -1.515465  -1.093551
H  -2.842806  -0.989448   0.637326
C  -0.094685  -0.670841   0.103976
H  -1.426918   0.875665   0.843164
H  -1.358108   0.421717  -0.851666
H  -0.115269  -1.956318   1.610575
H   0.890850   0.032650  -0.586513
H  -0.136485  -0.669481  -0.285750
