butane_opt
 OpenBabel08242015403D

 14 13  0  0  0  0  0  0  0  0999 V2000
   -3.9360    0.3254   -0.1576 C   0  0  0  0  0  0  0  0  0  0  0  0
   -2.6393   -0.7125    0.2126 C   0  0  0  0  0  0  0  0  0  0  0  0
   -4.7999   -0.2515   -0.4938 H   0  0  0  0  0  0  0  0  0  0  0  0
   -3.7090    0.8648   -0.9889 H   0  0  0  0  0  0  0  0  0  0  0  0
   -4.1681    1.2361    0.7813 H   0  0  0  0  0  0  0  0  0  0  0  0
   -1.3989    0.0948    0.2293 C   0  0  0  0  0  0  0  0  0  0  0  0
   -2.3252   -1.0212   -0.3538 H   0  0  0  0  0  0  0  0  0  0  0  0
   -3.1769   -1.3686    1.2028 H   0  0  0  0  0  0  0  0  0  0  0  0
   -0.2600   -0.6245   -0.1541 C   0  0  0  0  0  0  0  0  0  0  0  0
   -1.1587    0.8452    1.2020 H   0  0  0  0  0  0  0  0  0  0  0  0
   -1.4403    0.7458   -0.6396 H   0  0  0  0  0  0  0  0  0  0  0  0
    0.0645   -1.2951    0.8602 H   0  0  0  0  0  0  0  0  0  0  0  0
    0.6801    0.0749   -0.6402 H   0  0  0  0  0  0  0  0  0  0  0  0
   -0.2509   -1.2991   -1.0350 H   0  0  0  0  0  0  0  0  0  0  0  0
  1  2  1  0  0  0  0
  1  5  1  0  0  0  0
  2  6  1  0  0  0  0
  2  8  1  0  0  0  0
  3  1  1  0  0  0  0
  4  1  1  0  0  0  0
  6 10  1  0  0  0  0
  7  2  1  0  0  0  0
  9  6  1  0  0  0  0
  9 12  1  0  0  0  0
 11  6  1  0  0  0  0
 13  9  1  0  0  0  0
 14  9  1  0  0  0  0
M  END
$$$$
