14
butane_opt
C  -4.009490   0.346056   0.163277
C  -2.657443  -0.702024  -0.153401
H  -4.937049  -0.162923   0.601299
H  -4.366481   1.061741  -0.788513
H  -3.347278   0.848324   0.924278
C  -1.363950   0.057574  -0.134736
H  -2.800126  -1.592546  -1.188806
H  -2.234519  -1.075038   0.516261
C  -0.196235  -0.600406   0.173106
H  -1.428745   0.989140   0.871019
H  -1.442102   0.670122  -1.175996
H  -0.529946  -1.505819   1.308283
H   0.699356   0.097333   0.166617
H   0.017225  -0.987243  -0.380625
