butane_opt
 OpenBabel08242015403D

 14 13  0  0  0  0  0  0  0  0999 V2000
   -3.9065    0.3523   -0.0570 C   0  0  0  0  0  0  0  0  0  0  0  0
   -2.6149   -0.7545    0.0404 C   0  0  0  0  0  0  0  0  0  0  0  0
   -4.8938   -0.2108    0.5085 H   0  0  0  0  0  0  0  0  0  0  0  0
   -4.1717    1.1468   -0.9997 H   0  0  0  0  0  0  0  0  0  0  0  0
   -3.8446    0.7892    0.6493 H   0  0  0  0  0  0  0  0  0  0  0  0
   -1.4098    0.1254    0.0657 C   0  0  0  0  0  0  0  0  0  0  0  0
   -2.6637   -1.0992   -0.7114 H   0  0  0  0  0  0  0  0  0  0  0  0
   -2.5192   -1.5428    1.0277 H   0  0  0  0  0  0  0  0  0  0  0  0
   -0.2549   -0.6198    0.0142 C   0  0  0  0  0  0  0  0  0  0  0  0
   -1.4663    0.8908    1.0519 H   0  0  0  0  0  0  0  0  0  0  0  0
   -1.3804    0.6159   -0.7112 H   0  0  0  0  0  0  0  0  0  0  0  0
   -0.1784   -0.7756    0.7488 H   0  0  0  0  0  0  0  0  0  0  0  0
    0.6801   -0.0852   -0.0026 H   0  0  0  0  0  0  0  0  0  0  0  0
   -0.3725   -1.4399   -0.9478 H   0  0  0  0  0  0  0  0  0  0  0  0
  1  2  1  0  0  0  0
  1  3  1  0  0  0  0
  1  5  1  0  0  0  0
  2  6  1  0  0  0  0
  2  8  1  0  0  0  0
  4  1  1  0  0  0  0
  6 10  1  0  0  0  0
  7  2  1  0  0  0  0
  9  6  1  0  0  0  0
  9 12  1  0  0  0  0
 11  6  1  0  0  0  0
 13  9  1  0  0  0  0
 14  9  1  0  0  0  0
M  END
$$$$
