14
butane_opt
C  -3.846648   0.229068  -0.143831
C  -2.733105  -0.494059   0.210532
H  -4.996464  -0.652173  -0.374893
H  -3.595846   0.603983  -0.823744
H  -4.136474   1.146006   0.733302
C  -1.440569   0.204713   0.129565
H  -2.864686  -0.940630  -0.424661
H  -2.940345  -1.652721   1.448737
C  -0.159501  -0.729011  -0.122777
H  -1.407087   0.965067   1.043977
H  -1.498073   0.648527  -0.638715
H   0.004039  -1.179519   0.681260
H   0.731469  -0.274008  -0.050792
H  -0.138584  -1.686821  -1.048975
