butane_opt
 OpenBabel08242015403D

 14  9  0  0  0  0  0  0  0  0999 V2000
   -3.9626    0.2164   -0.0883 C   0  0  0  0  0  1  0  0  0  0  0  0
   -2.7423   -0.5567    0.1832 C   0  0  0  0  0  0  0  0  0  0  0  0
   -4.8337   -0.4275    0.4398 H   0  0  0  0  0  0  0  0  0  0  0  0
   -3.6039    1.3296   -1.2998 H   0  0  0  0  0  0  0  0  0  0  0  0
   -3.9351    0.1712    0.2821 H   0  0  0  0  0  0  0  0  0  0  0  0
   -1.4934    0.2510    0.1116 C   0  0  0  0  0  0  0  0  0  0  0  0
   -2.6153   -1.2195   -0.7749 H   0  0  0  0  0  0  0  0  0  0  0  0
   -2.8802   -1.1760    1.1191 H   0  0  0  0  0  0  0  0  0  0  0  0
   -0.0556   -0.7694   -0.0818 C   0  0  0  0  0  0  0  0  0  0  0  0
   -1.3554    1.2138    1.1483 H   0  0  0  0  0  0  0  0  0  0  0  0
   -1.4834    0.7161   -0.5986 H   0  0  0  0  0  0  0  0  0  0  0  0
   -0.0129   -0.8423    0.5678 H   0  0  0  0  0  0  0  0  0  0  0  0
    0.8228   -0.0925    0.2072 H   0  0  0  0  0  0  0  0  0  0  0  0
   -0.0827   -1.8662   -1.2333 H   0  0  0  0  0  0  0  0  0  0  0  0
  1  3  1  0  0  0  0
  2  5  1  0  0  0  0
  2  8  1  0  0  0  0
  6 10  1  0  0  0  0
  7  2  1  0  0  0  0
  9  6  1  0  0  0  0
  9 13  1  0  0  0  0
  9 12  1  0  0  0  0
 11  6  1  0  0  0  0
M  RAD  5   2   2   4   2   6   2   9   2  14   2
M  END
$$$$
