butane_opt
 OpenBabel08242015403D

 14 10  0  0  0  0  0  0  0  0999 V2000
   -4.0014    0.2984   -0.0977 C   0  0  0  0  0  0  0  0  0  0  0  0
   -2.6197   -0.6334    0.1267 C   0  0  0  0  0  0  0  0  0  0  0  0
   -5.0249   -0.4466    0.5416 H   0  0  0  0  0  0  0  0  0  0  0  0
   -4.2413    1.4371   -1.2767 H   0  0  0  0  0  0  0  0  0  0  0  0
   -4.0185    0.4224    0.2759 H   0  0  0  0  0  0  0  0  0  0  0  0
   -1.3816    0.1621    0.1268 C   0  0  0  0  0  0  0  0  0  0  0  0
   -2.6042   -1.3635   -0.6141 H   0  0  0  0  0  0  0  0  0  0  0  0
   -2.7778   -1.4095    1.1474 H   0  0  0  0  0  0  0  0  0  0  0  0
   -0.1761   -0.6580   -0.0893 C   0  0  0  0  0  0  0  0  0  0  0  0
   -1.2842    1.2753    1.2902 H   0  0  0  0  0  0  0  0  0  0  0  0
   -1.3725    0.3405   -0.4807 H   0  0  0  0  0  0  0  0  0  0  0  0
   -0.0928   -1.2110    0.6286 H   0  0  0  0  0  0  0  0  0  0  0  0
    0.7887   -0.0801    0.1362 H   0  0  0  0  0  0  0  0  0  0  0  0
   -0.2362   -1.4490   -1.0672 H   0  0  0  0  0  0  0  0  0  0  0  0
  1  2  1  0  0  0  0
  1  3  1  0  0  0  0
  2  6  1  0  0  0  0
  2  8  1  0  0  0  0
  7  2  1  0  0  0  0
  9  6  1  0  0  0  0
  9 13  1  0  0  0  0
  9 12  1  0  0  0  0
 11  6  1  0  0  0  0
 14  9  1  0  0  0  0
M  RAD  5   1   3   4   2   5   2   6   2  10   2
M  END
$$$$
