butane_opt
 OpenBabel08242015403D

 14 12  0  0  0  0  0  0  0  0999 V2000
   -3.9575    0.2359   -0.1297 C   0  0  0  0  0  0  0  0  0  0  0  0
   -2.7413   -0.5988    0.1396 C   0  0  0  0  0  0  0  0  0  0  0  0
   -4.9400   -0.4642   -0.1969 H   0  0  0  0  0  0  0  0  0  0  0  0
   -3.6733    0.9889   -1.2564 H   0  0  0  0  0  0  0  0  0  0  0  0
   -4.1162    0.6708    0.6352 H   0  0  0  0  0  0  0  0  0  0  0  0
   -1.4381    0.2816    0.2301 C   0  0  0  0  0  0  0  0  0  0  0  0
   -2.7081   -1.2270   -0.6605 H   0  0  0  0  0  0  0  0  0  0  0  0
   -2.8398   -1.4057    1.1397 H   0  0  0  0  0  0  0  0  0  0  0  0
   -0.0706   -0.7455   -0.1092 C   0  0  0  0  0  0  0  0  0  0  0  0
   -1.0272    1.3444    1.5314 H   0  0  0  0  0  0  0  0  0  0  0  0
   -1.6766    0.6014   -0.4100 H   0  0  0  0  0  0  0  0  0  0  0  0
    0.2850   -1.7143    0.8621 H   0  0  0  0  0  0  0  0  0  0  0  0
    0.5867   -0.4381   -1.0059 H   0  0  0  0  0  0  0  0  0  0  0  0
   -0.3811   -0.9065   -0.7529 H   0  0  0  0  0  0  0  0  0  0  0  0
  1  2  1  0  0  0  0
  1  5  1  0  0  0  0
  2  6  1  0  0  0  0
  2  8  1  0  0  0  0
  3  1  1  0  0  0  0
  4  1  1  0  0  0  0
  7  2  1  0  0  0  0
  9  6  1  0  0  0  0
  9 12  1  0  0  0  0
 11  6  1  0  0  0  0
 13  9  1  0  0  0  0
 14  9  1  0  0  0  0
M  RAD  2   6   2  10   2
M  END
$$$$
