butane_opt
 OpenBabel08242015403D

 14 11  0  0  0  0  0  0  0  0999 V2000
   -3.8538    0.2983   -0.0226 C   0  0  0  0  0  0  0  0  0  0  0  0
   -2.7056   -0.6640    0.0792 C   0  0  0  0  0  0  0  0  0  0  0  0
   -4.7193   -0.1735    0.0723 H   0  0  0  0  0  0  0  0  0  0  0  0
   -4.0001    0.8962   -0.9479 H   0  0  0  0  0  0  0  0  0  0  0  0
   -3.9208    0.8548    0.8727 H   0  0  0  0  0  0  0  0  0  0  0  0
   -1.4467    0.1614    0.0017 C   0  0  0  0  0  0  0  0  0  0  0  0
   -2.6090   -1.1201   -0.7413 H   0  0  0  0  0  0  0  0  0  0  0  0
   -2.5194   -1.6316    1.2072 H   0  0  0  0  0  0  0  0  0  0  0  0
   -0.2085   -0.6473    0.0575 C   0  0  0  0  0  0  0  0  0  0  0  0
   -1.3724    0.8785    0.8655 H   0  0  0  0  0  0  0  0  0  0  0  0
   -1.4416    0.8030   -0.9704 H   0  0  0  0  0  0  0  0  0  0  0  0
   -0.3268   -0.8079    0.5819 H   0  0  0  0  0  0  0  0  0  0  0  0
    0.7385   -0.1079    0.2548 H   0  0  0  0  0  0  0  0  0  0  0  0
   -0.2801   -1.8403   -1.2024 H   0  0  0  0  0  0  0  0  0  0  0  0
  1  3  1  0  0  0  0
  1  2  1  0  0  0  0
  1  5  1  0  0  0  0
  2  8  1  0  0  0  0
  4  1  1  0  0  0  0
  6  9  1  0  0  0  0
  6  2  1  0  0  0  0
  6 10  1  0  0  0  0
  7  2  1  0  0  0  0
  9 13  1  0  0  0  0
 11  6  1  0  0  0  0
M  RAD  3   9   3  12   2  14   2
M  END
$$$$
