14
butane_opt
C  -3.931036   0.195033   0.072285
C  -2.740040  -0.530832   0.032197
H  -4.816196  -0.244781  -0.584671
H  -3.762184   0.220975  -0.368661
H  -4.247385   1.480933   1.266783
C  -1.406980   0.270842  -0.109151
H  -2.940039  -1.098346  -0.730090
H  -2.851539  -1.592632   1.076674
C  -0.137652  -0.768840   0.067876
H  -1.593846   0.840918   0.618657
H  -1.044492   0.850917  -1.036825
H   0.067066  -1.474130   0.896487
H   0.711554  -0.163338   0.229474
H   0.057100  -1.286358  -0.619253
