14
butane_opt
C  -3.950530   0.298671   0.013541
C  -2.658629  -0.604815  -0.004034
H  -4.986672  -0.439395   0.663100
H  -4.262084   1.687978  -1.283732
H  -3.565831   0.190270   0.486563
C  -1.363137   0.091426   0.114966
H  -2.685544  -1.408024  -0.957362
H  -2.546261  -1.133982   0.723366
C  -0.262923  -0.662104   0.002112
H  -1.618006   0.941925   1.053735
H  -1.213262   0.906707  -0.873023
H  -0.105838  -1.156934   0.828285
H   0.934744   0.060365   0.115381
H  -0.191383  -1.569207  -0.968149
