butane_opt
 OpenBabel08242015403D

 14 11  0  0  0  0  0  0  0  0999 V2000
   -3.9285    0.2054   -0.0463 C   0  0  0  0  0  0  0  0  0  0  0  0
   -2.7509   -0.5958    0.1148 C   0  0  0  0  0  0  0  0  0  0  0  0
   -4.7472   -0.3973    0.1735 H   0  0  0  0  0  0  0  0  0  0  0  0
   -4.0455    1.3700   -1.2431 H   0  0  0  0  0  0  0  0  0  0  0  0
   -3.9825    0.2801    0.3344 H   0  0  0  0  0  0  0  0  0  0  0  0
   -1.4428    0.3243    0.0994 C   0  0  0  0  0  0  0  0  0  0  0  0
   -2.8063   -1.0353   -0.5831 H   0  0  0  0  0  0  0  0  0  0  0  0
   -2.7792   -1.5382    1.1637 H   0  0  0  0  0  0  0  0  0  0  0  0
   -0.0887   -0.7798   -0.0860 C   0  0  0  0  0  0  0  0  0  0  0  0
   -1.3051    1.2554    1.0702 H   0  0  0  0  0  0  0  0  0  0  0  0
   -1.6780    0.6048   -0.4377 H   0  0  0  0  0  0  0  0  0  0  0  0
   -0.0442   -0.8762    0.6000 H   0  0  0  0  0  0  0  0  0  0  0  0
    0.7120   -0.2103    0.2994 H   0  0  0  0  0  0  0  0  0  0  0  0
    0.2085   -1.7852   -1.0397 H   0  0  0  0  0  0  0  0  0  0  0  0
  1  2  1  0  0  0  0
  1  3  1  0  0  0  0
  2  8  1  0  0  0  0
  6  2  1  0  0  0  0
  6 10  1  0  0  0  0
  7  2  1  0  0  0  0
  9  6  1  0  0  0  0
  9 13  1  0  0  0  0
  9 12  1  0  0  0  0
 11  6  1  0  0  0  0
 14  9  1  0  0  0  0
M  RAD  3   1   3   4   2   5   2
M  END
$$$$
