butane_opt
 OpenBabel08242015403D

 14 11  0  0  0  0  0  0  0  0999 V2000
   -3.9638    0.3118    0.1416 C   0  0  0  0  0  0  0  0  0  0  0  0
   -2.6149   -0.6652   -0.0934 C   0  0  0  0  0  0  0  0  0  0  0  0
   -4.8377   -0.2653   -0.0038 H   0  0  0  0  0  0  0  0  0  0  0  0
   -4.0480    1.1674   -0.9268 H   0  0  0  0  0  0  0  0  0  0  0  0
   -4.0126    0.9473    0.9362 H   0  0  0  0  0  0  0  0  0  0  0  0
   -1.4243    0.0747   -0.0285 C   0  0  0  0  0  0  0  0  0  0  0  0
   -2.8413   -1.6855   -1.1813 H   0  0  0  0  0  0  0  0  0  0  0  0
   -2.4257   -0.9661    0.6974 H   0  0  0  0  0  0  0  0  0  0  0  0
   -0.2149   -0.6493    0.1121 C   0  0  0  0  0  1  0  0  0  0  0  0
   -1.2847    0.7425    0.8401 H   0  0  0  0  0  0  0  0  0  0  0  0
   -1.4084    0.8736   -1.0224 H   0  0  0  0  0  0  0  0  0  0  0  0
   -0.1808   -1.5048    1.1515 H   0  0  0  0  0  0  0  0  0  0  0  0
    1.0205    0.2711   -0.3058 H   0  0  0  0  0  0  0  0  0  0  0  0
   -0.4123   -0.8600   -0.3187 H   0  0  0  0  0  0  0  0  0  0  0  0
  1  5  1  0  0  0  0
  2  6  1  0  0  0  0
  2  1  1  0  0  0  0
  2  8  1  0  0  0  0
  3  1  1  0  0  0  0
  4  1  1  0  0  0  0
  6 10  1  0  0  0  0
  7  2  1  0  0  0  0
  9 12  1  0  0  0  0
 11  6  1  0  0  0  0
 14  6  1  0  0  0  0
M  RAD  1  13   2
M  END
$$$$
