14
butane_opt
C  -3.973582   0.203383   0.119855
C  -2.737451  -0.570074  -0.095516
H  -4.878775  -0.440917  -0.117176
H  -3.761201   0.780267  -0.699528
H  -3.860154   1.067073   1.049574
C  -1.405118   0.288167  -0.041714
H  -3.067947  -1.398991  -1.097414
H  -2.786278  -1.037534   0.731041
C  -0.117318  -0.733709   0.140047
H  -1.314771   0.817415   0.668826
H  -1.389885   0.911094  -0.786027
H   0.417902  -1.976979   1.243039
H   0.632656  -0.442269  -0.464697
H  -0.204308  -1.005811  -0.486079
