butane_opt
 OpenBabel08242015403D

 14 11  0  0  0  0  0  0  0  0999 V2000
   -3.9490    0.2409    0.1862 C   0  0  0  0  0  0  0  0  0  0  0  0
   -2.7008   -0.6080   -0.1511 C   0  0  0  0  0  0  0  0  0  0  0  0
   -4.9474   -0.4874    0.6604 H   0  0  0  0  0  0  0  0  0  0  0  0
   -4.2796    1.1895   -0.9572 H   0  0  0  0  0  0  0  0  0  0  0  0
   -3.5053    0.7170    0.8857 H   0  0  0  0  0  0  0  0  0  0  0  0
   -1.4561    0.2458   -0.1046 C   0  0  0  0  0  0  0  0  0  0  0  0
   -2.8636   -1.7095   -1.4081 H   0  0  0  0  0  0  0  0  0  0  0  0
   -2.5509   -1.0010    0.4435 H   0  0  0  0  0  0  0  0  0  0  0  0
   -0.1547   -0.7310    0.1783 C   0  0  0  0  0  0  0  0  0  0  0  0
   -1.2200    0.8009    0.7663 H   0  0  0  0  0  0  0  0  0  0  0  0
   -1.3440    0.9976   -1.1973 H   0  0  0  0  0  0  0  0  0  0  0  0
   -0.0737   -1.4395    1.1397 H   0  0  0  0  0  0  0  0  0  0  0  0
    0.5872   -0.1690    0.1659 H   0  0  0  0  0  0  0  0  0  0  0  0
    0.3021   -1.1242   -0.3555 H   0  0  0  0  0  0  0  0  0  0  0  0
  1  3  1  0  0  0  0
  1  5  1  0  0  0  0
  2  6  1  0  0  0  0
  2  1  1  0  0  0  0
  2  8  1  0  0  0  0
  6  9  1  0  0  0  0
  6 10  1  0  0  0  0
  9 12  1  0  0  0  0
 11  6  1  0  0  0  0
 13  9  1  0  0  0  0
 14  9  1  0  0  0  0
M  RAD  4   1   2   2   2   4   2   7   2
M  END
$$$$
