butane_opt
 OpenBabel08242015403D

 14  9  0  0  0  0  0  0  0  0999 V2000
   -3.9314    0.3167    0.1927 C   0  0  0  0  0  0  0  0  0  0  0  0
   -2.6184   -0.7011   -0.1573 C   0  0  0  0  0  0  0  0  0  0  0  0
   -4.6782   -0.2152   -0.4164 H   0  0  0  0  0  0  0  0  0  0  0  0
   -3.9803    0.4925   -0.5610 H   0  0  0  0  0  0  0  0  0  0  0  0
   -4.0358    1.5041    1.3315 H   0  0  0  0  0  0  0  0  0  0  0  0
   -1.4126    0.1466   -0.1339 C   0  0  0  0  0  0  0  0  0  0  0  0
   -2.7429   -1.3774   -1.0336 H   0  0  0  0  0  0  0  0  0  0  0  0
   -2.4108   -1.2947    0.7226 H   0  0  0  0  0  0  0  0  0  0  0  0
   -0.2317   -0.6439    0.1847 C   0  0  0  0  0  0  0  0  0  0  0  0
   -1.3750    0.8239    0.5723 H   0  0  0  0  0  0  0  0  0  0  0  0
   -1.3728    0.6251   -0.8679 H   0  0  0  0  0  0  0  0  0  0  0  0
   -0.2115   -1.8913    1.5850 H   0  0  0  0  0  0  0  0  0  0  0  0
    0.8103    0.0635   -0.4996 H   0  0  0  0  0  0  0  0  0  0  0  0
   -0.6894   -0.5932   -0.3102 H   0  0  0  0  0  0  0  0  0  0  0  0
  2  1  1  0  0  0  0
  2  8  1  0  0  0  0
  3  1  1  0  0  0  0
  4  1  1  0  0  0  0
  6 10  1  0  0  0  0
  7  2  1  0  0  0  0
 11  6  1  0  0  0  0
 13  9  1  0  0  0  0
 14  9  1  0  0  0  0
M  RAD  6   1   2   2   2   5   2   6   3   9   3  12   2
M  END
$$$$
