butane_opt
 OpenBabel08242015403D

 14 13  0  0  0  0  0  0  0  0999 V2000
   -3.9403    0.2783    0.0260 C   0  0  0  0  0  0  0  0  0  0  0  0
   -2.6978   -0.6298    0.0343 C   0  0  0  0  0  0  0  0  0  0  0  0
   -4.8034   -0.2651   -0.0197 H   0  0  0  0  0  0  0  0  0  0  0  0
   -3.9589    0.8347   -0.8360 H   0  0  0  0  0  0  0  0  0  0  0  0
   -3.9604    0.9719    0.9155 H   0  0  0  0  0  0  0  0  0  0  0  0
   -1.4067    0.1725    0.0006 C   0  0  0  0  0  0  0  0  0  0  0  0
   -2.6960   -1.3416   -0.8610 H   0  0  0  0  0  0  0  0  0  0  0  0
   -2.7358   -1.2460    0.9200 H   0  0  0  0  0  0  0  0  0  0  0  0
   -0.1714   -0.6846    0.0370 C   0  0  0  0  0  0  0  0  0  0  0  0
   -1.3423    0.8775    0.8819 H   0  0  0  0  0  0  0  0  0  0  0  0
   -1.3812    0.7825   -0.8918 H   0  0  0  0  0  0  0  0  0  0  0  0
   -0.1602   -1.3935    0.9849 H   0  0  0  0  0  0  0  0  0  0  0  0
    0.7706   -0.0612   -0.0460 H   0  0  0  0  0  0  0  0  0  0  0  0
   -0.1737   -1.2538   -0.7647 H   0  0  0  0  0  0  0  0  0  0  0  0
  1  2  1  0  0  0  0
  1  5  1  0  0  0  0
  2  8  1  0  0  0  0
  3  1  1  0  0  0  0
  4  1  1  0  0  0  0
  6  2  1  0  0  0  0
  6  9  1  0  0  0  0
  6 10  1  0  0  0  0
  7  2  1  0  0  0  0
  9 12  1  0  0  0  0
 11  6  1  0  0  0  0
 13  9  1  0  0  0  0
 14  9  1  0  0  0  0
M  END
$$$$
