butane_opt
 OpenBabel08242015403D

 14 13  0  0  0  0  0  0  0  0999 V2000
   -3.9304    0.2615    0.0435 C   0  0  0  0  0  0  0  0  0  0  0  0
   -2.7019   -0.6115    0.0136 C   0  0  0  0  0  0  0  0  0  0  0  0
   -4.8483   -0.3378    0.0861 H   0  0  0  0  0  0  0  0  0  0  0  0
   -3.9644    0.8263   -0.8293 H   0  0  0  0  0  0  0  0  0  0  0  0
   -3.9509    0.9355    0.8939 H   0  0  0  0  0  0  0  0  0  0  0  0
   -1.4099    0.1934   -0.0275 C   0  0  0  0  0  0  0  0  0  0  0  0
   -2.7323   -1.2282   -0.7965 H   0  0  0  0  0  0  0  0  0  0  0  0
   -2.6978   -1.2715    0.9161 H   0  0  0  0  0  0  0  0  0  0  0  0
   -0.1666   -0.7050    0.0595 C   0  0  0  0  0  0  0  0  0  0  0  0
   -1.4072    0.8625    0.8135 H   0  0  0  0  0  0  0  0  0  0  0  0
   -1.3741    0.8539   -0.9214 H   0  0  0  0  0  0  0  0  0  0  0  0
   -0.2138   -1.2341    0.8926 H   0  0  0  0  0  0  0  0  0  0  0  0
    0.7676   -0.1154    0.1471 H   0  0  0  0  0  0  0  0  0  0  0  0
   -0.0906   -1.4304   -0.8344 H   0  0  0  0  0  0  0  0  0  0  0  0
  1  3  1  0  0  0  0
  1  5  1  0  0  0  0
  2  1  1  0  0  0  0
  2  8  1  0  0  0  0
  4  1  1  0  0  0  0
  6  2  1  0  0  0  0
  6  9  1  0  0  0  0
  6 10  1  0  0  0  0
  7  2  1  0  0  0  0
  9 13  1  0  0  0  0
  9 12  1  0  0  0  0
 11  6  1  0  0  0  0
 14  9  1  0  0  0  0
M  END
$$$$
