14
butane_opt
C  -3.947593   0.274710   0.003098
C  -2.683913  -0.634355   0.059880
H  -4.851497  -0.287815   0.041628
H  -3.954141   0.972719  -0.953304
H  -3.951726   0.881336   0.814190
C  -1.400113   0.182190   0.026088
H  -2.684716  -1.292789  -0.786215
H  -2.740003  -1.295196   0.998328
C  -0.179066  -0.684330   0.016362
H  -1.369779   0.846625   0.892085
H  -1.367201   0.806418  -0.844876
H  -0.152803  -1.211047   0.845787
H   0.744595  -0.058860   0.063672
H  -0.175206  -1.487247  -0.918354
