butane_opt
 OpenBabel08242015403D

 14 13  0  0  0  0  0  0  0  0999 V2000
   -3.9331    0.2905   -0.0643 C   0  0  0  0  0  0  0  0  0  0  0  0
   -2.7507   -0.6981    0.2278 C   0  0  0  0  0  0  0  0  0  0  0  0
   -4.7147   -0.0300   -0.7712 H   0  0  0  0  0  0  0  0  0  0  0  0
   -3.7093    0.6471   -0.8033 H   0  0  0  0  0  0  0  0  0  0  0  0
   -4.5037    1.2717    0.8422 H   0  0  0  0  0  0  0  0  0  0  0  0
   -1.3669    0.1397    0.0704 C   0  0  0  0  0  0  0  0  0  0  0  0
   -2.7325   -1.3048   -0.5673 H   0  0  0  0  0  0  0  0  0  0  0  0
   -2.8759   -1.0458    1.0803 H   0  0  0  0  0  0  0  0  0  0  0  0
   -0.1199   -0.6494   -0.0689 C   0  0  0  0  0  0  0  0  0  0  0  0
   -1.0151    0.7218    0.8847 H   0  0  0  0  0  0  0  0  0  0  0  0
   -1.7890    0.9129   -0.9417 H   0  0  0  0  0  0  0  0  0  0  0  0
   -0.0406   -1.1937    0.7865 H   0  0  0  0  0  0  0  0  0  0  0  0
    0.6651   -0.2394    0.0531 H   0  0  0  0  0  0  0  0  0  0  0  0
   -0.2744   -1.2439   -1.0339 H   0  0  0  0  0  0  0  0  0  0  0  0
  1  2  1  0  0  0  0
  1  5  1  0  0  0  0
  2  8  1  0  0  0  0
  3  1  1  0  0  0  0
  4  1  1  0  0  0  0
  6  2  1  0  0  0  0
  6 10  1  0  0  0  0
  7  2  1  0  0  0  0
  9 13  1  0  0  0  0
  9  6  1  0  0  0  0
  9 12  1  0  0  0  0
 11  6  1  0  0  0  0
 14  9  1  0  0  0  0
M  END
$$$$
