14
butane_opt
C  -3.821827   0.206960   0.182882
C  -2.702147  -0.563076  -0.127739
H  -4.747357  -0.406992   0.532333
H  -4.252670   1.193864  -1.046986
H  -3.520097   0.427919   0.874413
C  -1.464290   0.239017  -0.130146
H  -2.987645  -1.417559  -1.029990
H  -2.788565  -0.612600   0.471215
C  -0.211791  -0.774150   0.180185
H  -1.642869   0.919215   0.652063
H  -1.217539   0.982912  -1.041918
H  -0.158804  -1.285027   1.111358
H   0.740050  -0.089438   0.230584
H  -0.029776  -1.506494  -0.652202
