butane_opt
 OpenBabel08242015403D

 14 10  0  0  0  0  0  0  0  0999 V2000
   -3.9765    0.2688   -0.0908 C   0  0  0  0  0  0  0  0  0  0  0  0
   -2.7042   -0.6729    0.1516 C   0  0  0  0  0  0  0  0  0  0  0  0
   -4.7617   -0.0447    0.4655 H   0  0  0  0  0  0  0  0  0  0  0  0
   -4.0093    1.4796   -1.3925 H   0  0  0  0  0  0  0  0  0  0  0  0
   -3.9884    0.8440    0.5767 H   0  0  0  0  0  0  0  0  0  0  0  0
   -1.4189    0.1406    0.1157 C   0  0  0  0  0  0  0  0  0  0  0  0
   -2.6265   -1.2386   -0.5197 H   0  0  0  0  0  0  0  0  0  0  0  0
   -2.9339   -1.5595    1.1433 H   0  0  0  0  0  0  0  0  0  0  0  0
   -0.1271   -0.6603   -0.0607 C   0  0  0  0  0  1  0  0  0  0  0  0
   -1.2957    0.8029    1.0434 H   0  0  0  0  0  0  0  0  0  0  0  0
   -1.1552    0.9077   -0.7969 H   0  0  0  0  0  0  0  0  0  0  0  0
   -0.2866   -0.6087    0.3002 H   0  0  0  0  0  0  0  0  0  0  0  0
    0.8398    0.0630    0.4723 H   0  0  0  0  0  0  0  0  0  0  0  0
   -0.1132   -2.0000   -1.3404 H   0  0  0  0  0  0  0  0  0  0  0  0
  1  2  1  0  0  0  0
  1  3  1  0  0  0  0
  1  5  1  0  0  0  0
  2  8  1  0  0  0  0
  6  2  1  0  0  0  0
  6 12  1  0  0  0  0
  6 10  1  0  0  0  0
  7  2  1  0  0  0  0
  9 13  1  0  0  0  0
 11  6  1  0  0  0  0
M  RAD  3   1   2   4   2  14   2
M  END
$$$$
