butane_opt
 OpenBabel08242015403D

 14 10  0  0  0  0  0  0  0  0999 V2000
   -3.9997    0.3014    0.1603 C   0  0  0  0  0  0  0  0  0  0  0  0
   -2.7210   -0.7227   -0.1130 C   0  0  0  0  0  0  0  0  0  0  0  0
   -4.7242   -0.1454   -0.0543 H   0  0  0  0  0  0  0  0  0  0  0  0
   -4.3745    0.8253   -0.5932 H   0  0  0  0  0  0  0  0  0  0  0  0
   -4.1294    1.3295    1.3185 H   0  0  0  0  0  0  0  0  0  0  0  0
   -1.3356    0.2047   -0.1513 C   0  0  0  0  0  0  0  0  0  0  0  0
   -2.6553   -1.5273   -1.0412 H   0  0  0  0  0  0  0  0  0  0  0  0
   -2.6817   -1.1226    0.5134 H   0  0  0  0  0  0  0  0  0  0  0  0
   -0.1629   -0.6923    0.1481 C   0  0  0  0  0  0  0  0  0  0  0  0
   -1.2844    0.9095    0.7127 H   0  0  0  0  0  0  0  0  0  0  0  0
   -1.3288    0.6143   -0.8952 H   0  0  0  0  0  0  0  0  0  0  0  0
   -0.1991   -1.7555    1.5015 H   0  0  0  0  0  0  0  0  0  0  0  0
    1.0466    0.0290   -0.2372 H   0  0  0  0  0  0  0  0  0  0  0  0
   -0.0699   -0.6591   -0.2225 H   0  0  0  0  0  0  0  0  0  0  0  0
  2  1  1  0  0  0  0
  2  8  1  0  0  0  0
  3  1  1  0  0  0  0
  4  1  1  0  0  0  0
  6  2  1  0  0  0  0
  6  9  1  0  0  0  0
  6 10  1  0  0  0  0
  7  2  1  0  0  0  0
 11  6  1  0  0  0  0
 13  9  1  0  0  0  0
M  RAD  5   1   2   5   2   9   3  12   2  14   2
M  END
$$$$
