14
butane_opt
C  -3.933100   0.290513  -0.064277
C  -2.750681  -0.698095   0.227844
H  -4.714706  -0.030016  -0.771172
H  -3.709336   0.647094  -0.803299
H  -4.503659   1.271660   0.842216
C  -1.366945   0.139700   0.070396
H  -2.732508  -1.304779  -0.567316
H  -2.875906  -1.045824   1.080296
C  -0.119862  -0.649359  -0.068854
H  -1.015055   0.721811   0.884704
H  -1.789035   0.912901  -0.941651
H  -0.040555  -1.193733   0.786478
H   0.665087  -0.239382   0.053118
H  -0.274393  -1.243883  -1.033892
