butane_opt
 OpenBabel08242015403D

 14 11  0  0  0  0  0  0  0  0999 V2000
   -3.9799    0.2090   -0.0703 C   0  0  0  0  0  0  0  0  0  0  0  0
   -2.7330   -0.5867    0.1923 C   0  0  0  0  0  0  0  0  0  0  0  0
   -4.8647   -0.3491   -0.3922 H   0  0  0  0  0  0  0  0  0  0  0  0
   -3.8074    0.8090   -1.0266 H   0  0  0  0  0  0  0  0  0  0  0  0
   -3.9900    0.7741    0.7267 H   0  0  0  0  0  0  0  0  0  0  0  0
   -1.4063    0.2809    0.1100 C   0  0  0  0  0  0  0  0  0  0  0  0
   -2.7127   -1.0934   -0.5081 H   0  0  0  0  0  0  0  0  0  0  0  0
   -2.7699   -1.4449    1.2243 H   0  0  0  0  0  0  0  0  0  0  0  0
   -0.0949   -0.7184   -0.0626 C   0  0  0  0  0  0  0  0  0  0  0  0
   -1.4040    0.6988    0.5973 H   0  0  0  0  0  0  0  0  0  0  0  0
   -1.5332    1.0811   -0.8769 H   0  0  0  0  0  0  0  0  0  0  0  0
    0.1768   -0.7219    0.3930 H   0  0  0  0  0  0  0  0  0  0  0  0
    0.3695   -0.4291    0.4006 H   0  0  0  0  0  0  0  0  0  0  0  0
    0.1047   -2.0640   -1.2089 H   0  0  0  0  0  0  0  0  0  0  0  0
  1  2  1  0  0  0  0
  1  5  1  0  0  0  0
  2  8  1  0  0  0  0
  3  1  1  0  0  0  0
  4  1  1  0  0  0  0
  6  2  1  0  0  0  0
  6 10  1  0  0  0  0
  7  2  1  0  0  0  0
  9  6  1  0  0  0  0
  9 13  1  0  0  0  0
 11  6  1  0  0  0  0
M  RAD  3   9   3  12   2  14   2
M  END
$$$$
