14
butane_opt
C  -3.987566   0.250526  -0.115872
C  -2.704985  -0.610771   0.226038
H  -4.915429  -0.369002   0.052202
H  -4.122468   0.839749  -1.039980
H  -4.046738   0.613080   0.533553
C  -1.402493   0.238120   0.045179
H  -2.975963  -1.008984  -0.369401
H  -2.825992  -1.301415   1.227387
C  -0.045879  -0.756268  -0.083225
H  -1.277408   1.223720   1.015100
H  -1.715198   0.780368  -0.649358
H  -0.535403  -0.838996   0.375909
H   0.782257  -0.037843   0.603063
H   0.328903  -1.891786  -1.270899
