14
butane_opt
C  -3.999697   0.301415   0.160308
C  -2.721005  -0.722736  -0.113002
H  -4.724188  -0.145421  -0.054262
H  -4.374496   0.825270  -0.593170
H  -4.129357   1.329512   1.318454
C  -1.335648   0.204740  -0.151322
H  -2.655257  -1.527254  -1.041226
H  -2.681699  -1.122617   0.513359
C  -0.162877  -0.692287   0.148147
H  -1.284405   0.909483   0.712669
H  -1.328771   0.614257  -0.895173
H  -0.199081  -1.755548   1.501535
H   1.046649   0.029041  -0.237242
H  -0.069875  -0.659071  -0.222514
