butane_opt
 OpenBabel08242015403D

 14 12  0  0  0  0  0  0  0  0999 V2000
   -3.8649    0.2061   -0.0384 C   0  0  0  0  0  0  0  0  0  0  0  0
   -2.7100   -0.5331    0.0905 C   0  0  0  0  0  0  0  0  0  0  0  0
   -4.8964   -0.6147   -0.3175 H   0  0  0  0  0  0  0  0  0  0  0  0
   -3.7176    0.7999   -0.9020 H   0  0  0  0  0  0  0  0  0  0  0  0
   -3.8902    0.8760    0.9614 H   0  0  0  0  0  0  0  0  0  0  0  0
   -1.4099    0.2445    0.1070 C   0  0  0  0  0  0  0  0  0  0  0  0
   -2.6943   -1.0752   -0.6498 H   0  0  0  0  0  0  0  0  0  0  0  0
   -2.8603   -1.0050    0.8884 H   0  0  0  0  0  0  0  0  0  0  0  0
   -0.1986   -0.7415   -0.0760 C   0  0  0  0  0  0  0  0  0  0  0  0
   -1.4049    1.1272    1.1174 H   0  0  0  0  0  0  0  0  0  0  0  0
   -1.5311    0.5971   -0.7440 H   0  0  0  0  0  0  0  0  0  0  0  0
   -0.1237   -1.9049    1.2838 H   0  0  0  0  0  0  0  0  0  0  0  0
    0.5430   -0.3805   -0.4335 H   0  0  0  0  0  0  0  0  0  0  0  0
   -0.2052   -1.0436   -0.7279 H   0  0  0  0  0  0  0  0  0  0  0  0
  1  2  1  0  0  0  0
  1  5  1  0  0  0  0
  2  6  1  0  0  0  0
  2  8  1  0  0  0  0
  3  1  1  0  0  0  0
  4  1  1  0  0  0  0
  6 10  1  0  0  0  0
  7  2  1  0  0  0  0
  9  6  1  0  0  0  0
 11  6  1  0  0  0  0
 13  9  1  0  0  0  0
 14  9  1  0  0  0  0
M  RAD  2   9   2  12   2
M  END
$$$$
