14
butane_opt
C  -3.947205   0.266472  -0.016202
C  -2.683747  -0.626444   0.063305
H  -4.835155  -0.290615   0.003707
H  -3.947383   0.909298  -0.923117
H  -3.965221   0.926321   0.833512
C  -1.404253   0.181529   0.062719
H  -2.676401  -1.272754  -0.785683
H  -2.767243  -1.261532   0.959704
C  -0.166022  -0.690592   0.005158
H  -1.361830   0.844846   0.912692
H  -1.458534   0.806164  -0.827637
H  -0.110513  -1.312028   0.867982
H   0.743459  -0.077724  -0.139504
H  -0.232732  -1.308283  -0.838683
