butane_opt
 OpenBabel08242015403D

 14 10  0  0  0  0  0  0  0  0999 V2000
   -4.0154    0.1810   -0.0807 C   0  0  0  0  0  1  0  0  0  0  0  0
   -2.6870   -0.5634    0.0854 C   0  0  0  0  0  0  0  0  0  0  0  0
   -4.8232   -0.4222    0.9781 H   0  0  0  0  0  0  0  0  0  0  0  0
   -4.1406    1.7335   -1.6341 H   0  0  0  0  0  0  0  0  0  0  0  0
   -3.8339    0.1807    0.4166 H   0  0  0  0  0  0  0  0  0  0  0  0
   -1.4344    0.2736    0.1539 C   0  0  0  0  0  0  0  0  0  0  0  0
   -2.5563   -1.4360   -0.7567 H   0  0  0  0  0  0  0  0  0  0  0  0
   -2.9278   -1.1421    0.8321 H   0  0  0  0  0  0  0  0  0  0  0  0
   -0.1143   -0.7282   -0.0338 C   0  0  0  0  0  0  0  0  0  0  0  0
   -1.3034    1.0483    1.2089 H   0  0  0  0  0  0  0  0  0  0  0  0
   -1.1854    0.8296   -0.6022 H   0  0  0  0  0  0  0  0  0  0  0  0
    0.2787   -1.0217    0.5757 H   0  0  0  0  0  0  0  0  0  0  0  0
    0.5931   -0.2781   -0.0273 H   0  0  0  0  0  0  0  0  0  0  0  0
   -0.0862   -1.8950   -1.1564 H   0  0  0  0  0  0  0  0  0  0  0  0
  1  3  1  0  0  0  0
  2  6  1  0  0  0  0
  2  5  1  0  0  0  0
  2  8  1  0  0  0  0
  6 10  1  0  0  0  0
  7  2  1  0  0  0  0
  9 13  1  0  0  0  0
  9  6  1  0  0  0  0
  9 12  1  0  0  0  0
 11  6  1  0  0  0  0
M  RAD  3   4   2   9   2  14   2
M  END
$$$$
