14
butane_opt
C  -3.933392   0.201669   0.186144
C  -2.730838  -0.517609  -0.178244
H  -5.097630  -0.615644   0.314011
H  -4.036393   0.667750  -0.735749
H  -3.547693   1.090247   1.182317
C  -1.411308   0.287523  -0.162935
H  -2.769851  -1.483768  -1.279084
H  -2.672815  -0.954577   0.684606
C  -0.172094  -0.799747   0.192439
H  -1.210648   1.090023   0.834962
H  -1.397437   0.707992  -0.957856
H  -0.055130  -2.048752   1.473725
H   0.824785  -0.210115  -0.238587
H  -0.033739  -0.780428  -0.175241
