14
butane_opt
C  -3.923605   0.223236  -0.158283
C  -2.763937  -0.598839   0.231931
H  -4.910163  -0.389447  -0.227403
H  -3.978468   0.853647  -1.012597
H  -3.975087   0.884276   0.814817
C  -1.438421   0.272674   0.124347
H  -2.688355  -0.938755  -0.393995
H  -2.770962  -1.509484   1.349409
C  -0.092879  -0.764806  -0.116986
H  -1.354580   0.799015   1.053265
H  -1.565864   0.836044  -0.699011
H  -0.011464  -0.754544   0.371242
H   0.699804  -0.189762   0.353480
H   0.178514  -1.673190  -1.216247
