butane_opt
 OpenBabel08242015403D

 14 10  0  0  0  0  0  0  0  0999 V2000
   -3.9173    0.3100    0.0886 C   0  0  0  0  0  0  0  0  0  0  0  0
   -2.7140   -0.7044   -0.0717 C   0  0  0  0  0  0  0  0  0  0  0  0
   -4.5703   -0.1718   -0.0155 H   0  0  0  0  0  0  0  0  0  0  0  0
   -4.1597    0.7827   -0.7410 H   0  0  0  0  0  0  0  0  0  0  0  0
   -4.2433    0.9993    0.8789 H   0  0  0  0  0  0  0  0  0  0  0  0
   -1.4274    0.1480    0.0287 C   0  0  0  0  0  0  0  0  0  0  0  0
   -2.8084   -1.5778   -1.0675 H   0  0  0  0  0  0  0  0  0  0  0  0
   -2.3943   -0.9676    0.6337 H   0  0  0  0  0  0  0  0  0  0  0  0
   -0.1596   -0.6415    0.0974 C   0  0  0  0  0  1  0  0  0  0  0  0
   -1.4261    0.8873    0.9237 H   0  0  0  0  0  0  0  0  0  0  0  0
   -1.3248    0.7765   -0.9388 H   0  0  0  0  0  0  0  0  0  0  0  0
   -0.0346   -1.8702    1.2455 H   0  0  0  0  0  0  0  0  0  0  0  0
    0.7639    0.0017   -0.8199 H   0  0  0  0  0  0  0  0  0  0  0  0
   -0.2310   -0.6355   -0.3379 H   0  0  0  0  0  0  0  0  0  0  0  0
  1  5  1  0  0  0  0
  2  1  1  0  0  0  0
  2  8  1  0  0  0  0
  3  1  1  0  0  0  0
  4  1  1  0  0  0  0
  6 10  1  0  0  0  0
  7  2  1  0  0  0  0
 11  6  1  0  0  0  0
 13  9  1  0  0  0  0
 14  6  1  0  0  0  0
M  RAD  3   2   2   6   2  12   2
M  END
$$$$
