14
butane_opt
C  -3.909771   0.279765  -0.096995
C  -2.696079  -0.631893   0.114127
H  -4.779750  -0.357832   0.483765
H  -4.058698   1.718693  -1.632307
H  -4.003678   0.257278   0.348106
C  -1.367906   0.134671   0.217073
H  -2.530252  -1.141051  -0.704832
H  -2.485714  -1.321313   1.068496
C  -0.255328  -0.665291  -0.103234
H  -1.027535   1.218978   1.439598
H  -1.413955   0.605234  -0.520493
H  -0.267425  -1.229480   0.728943
H   0.669354  -0.083396  -0.148574
H  -0.341995  -1.560522  -1.298807
