14
butane_opt
C  -3.863953   0.218014   0.067317
C  -2.655654  -0.620298   0.041499
H  -4.706360  -0.289118  -0.659946
H  -3.822226   0.092870  -0.378731
H  -4.008826   1.503661   1.301881
C  -1.492671   0.237506  -0.124945
H  -2.615410  -1.014787  -0.724829
H  -2.763079  -1.169254   0.986917
C  -0.180528  -0.737134   0.093802
H  -1.398921   0.881563   0.709103
H  -1.533293   1.073758  -1.139551
H  -0.290664  -1.357513   1.073597
H   0.823722  -0.249153   0.072744
H  -0.348315  -1.177915  -0.635668
