14
butane_opt
C  -3.961309   0.320167   0.173470
C  -2.702309  -0.671279  -0.101595
H  -4.744425  -0.185774   0.242808
H  -4.381874   0.728210  -0.598593
H  -4.012420   1.082764   1.133202
C  -1.341821   0.117248  -0.179972
H  -2.566698  -1.359971  -0.759784
H  -2.542217  -1.167264   0.692811
C  -0.226358  -0.657923   0.168013
H  -1.279070   0.302206   0.348422
H  -1.173387   1.218570  -1.428139
H  -0.446146  -0.702960   0.861910
H   0.751124  -0.038592   1.062504
H   0.147750  -1.648936  -0.827889
