14
butane_opt
C  -3.903819   0.249947  -0.059094
C  -2.707100  -0.582196   0.159386
H  -4.906450  -0.373299  -0.110056
H  -3.765924   0.851556  -1.051900
H  -3.670122   0.619236   0.768876
C  -1.452585   0.221690   0.006488
H  -2.587144  -0.996833  -0.506089
H  -2.649632  -1.641865   1.327578
C  -0.179543  -0.701604  -0.003335
H  -1.333810   1.159589   0.943242
H  -1.527359   0.777472  -0.852785
H  -0.226798  -0.766368   0.481937
H   0.572589  -0.262166   0.486810
H  -0.015659  -2.131161  -1.384237
