14
butane_opt
C  -3.979909   0.314538   0.120409
C  -2.683783  -0.673982  -0.129196
H  -4.861146  -0.245577   0.065638
H  -4.239410   0.529458  -0.480525
H  -3.830564   1.375984   1.265097
C  -1.385769   0.160058  -0.086516
H  -2.763962  -1.552420  -1.071015
H  -2.912898  -1.238294   0.624221
C  -0.179425  -0.648845   0.176659
H  -1.317740   0.910327   0.728227
H  -1.183777   0.728598  -1.080728
H   0.172499  -1.976206   1.494671
H   0.622672   0.023830  -0.628045
H  -0.029453  -0.810504  -0.343477
