14
butane_opt
C  -4.024169   0.289104  -0.065162
C  -2.718242  -0.661863   0.073786
H  -4.874936  -0.086039   0.822130
H  -4.400553   1.559284  -1.296027
H  -3.803426   0.337319   0.372067
C  -1.351411   0.119435   0.139394
H  -2.753694  -1.422763  -0.898285
H  -2.607515  -1.052431   0.680046
C  -0.095184  -0.615179  -0.034033
H  -1.280102   0.850363   0.980416
H  -1.583310   0.660505  -0.568589
H  -0.229908  -1.201895   0.887989
H   0.787451   0.027988  -0.045654
H  -0.047562  -1.699870  -0.958598
