butane_opt
 OpenBabel08242015403D

 14 13  0  0  0  0  0  0  0  0999 V2000
   -3.8909    0.3062   -0.1087 C   0  0  0  0  0  0  0  0  0  0  0  0
   -2.6897   -0.6561    0.2635 C   0  0  0  0  0  0  0  0  0  0  0  0
   -4.7298   -0.1166   -0.7087 H   0  0  0  0  0  0  0  0  0  0  0  0
   -3.7353    0.7341   -0.8145 H   0  0  0  0  0  0  0  0  0  0  0  0
   -4.5324    1.2171    0.7558 H   0  0  0  0  0  0  0  0  0  0  0  0
   -1.3716    0.0877    0.0904 C   0  0  0  0  0  0  0  0  0  0  0  0
   -2.3058   -1.0378   -0.3548 H   0  0  0  0  0  0  0  0  0  0  0  0
   -2.8946   -1.4114    1.2998 H   0  0  0  0  0  0  0  0  0  0  0  0
   -0.2371   -0.6604   -0.1662 C   0  0  0  0  0  0  0  0  0  0  0  0
   -1.1151    0.9078    1.1269 H   0  0  0  0  0  0  0  0  0  0  0  0
   -1.5592    0.5221   -0.7671 H   0  0  0  0  0  0  0  0  0  0  0  0
   -0.4178   -0.9987    0.7656 H   0  0  0  0  0  0  0  0  0  0  0  0
    0.8816    0.0878    0.2262 H   0  0  0  0  0  0  0  0  0  0  0  0
   -0.3452   -1.3152   -0.9977 H   0  0  0  0  0  0  0  0  0  0  0  0
  1  2  1  0  0  0  0
  1  5  1  0  0  0  0
  2  8  1  0  0  0  0
  3  1  1  0  0  0  0
  4  1  1  0  0  0  0
  6  2  1  0  0  0  0
  6 10  1  0  0  0  0
  7  2  1  0  0  0  0
  9  6  1  0  0  0  0
  9 13  1  0  0  0  0
  9 12  1  0  0  0  0
 11  6  1  0  0  0  0
 14  9  1  0  0  0  0
M  END
$$$$
