14
butane_opt
C  -3.986220   0.301200   0.094007
C  -2.705205  -0.626109  -0.070354
H  -4.935886  -0.242705   0.087753
H  -3.960664   0.888791  -0.773008
H  -4.149860   0.782283   0.712805
C  -1.411672   0.149173   0.004357
H  -2.785937  -1.780416  -1.083864
H  -2.348987  -1.060125   0.643799
C  -0.138261  -0.663096   0.105576
H  -1.222389   0.903756   0.953574
H  -1.351697   0.792584  -0.876161
H   0.122878  -1.761163   1.321465
H   0.852621   0.059927  -0.711541
H  -0.377042  -0.953993  -0.416014
