14
butane_opt
C  -3.885483   0.268212  -0.061102
C  -2.688273  -0.657665   0.102027
H  -4.664263  -0.122126  -0.327026
H  -3.699085   0.615878  -0.812806
H  -3.987566   1.067060   0.968585
C  -1.493630   0.175516   0.095528
H  -2.745310  -0.911916  -0.578127
H  -2.569717  -1.495628   1.079654
C  -0.177811  -0.684441  -0.036671
H  -1.427309   0.914943   0.920716
H  -1.347253   0.836845  -0.807279
H   0.036234  -1.292385   0.735888
H   0.803698  -0.097483  -0.052852
H  -0.503166  -1.199741  -0.856721
