butane_opt
 OpenBabel08242015403D

 14  9  0  0  0  0  0  0  0  0999 V2000
   -3.9043    0.2163   -0.0154 C   0  0  0  0  0  0  0  0  0  0  0  0
   -2.7288   -0.4849    0.0999 C   0  0  0  0  0  0  0  0  0  0  0  0
   -4.9420   -0.5099    0.3750 H   0  0  0  0  0  0  0  0  0  0  0  0
   -3.6363    1.1523   -1.1488 H   0  0  0  0  0  0  0  0  0  0  0  0
   -3.7127    0.4509    0.6170 H   0  0  0  0  0  0  0  0  0  0  0  0
   -1.4181    0.2018   -0.0401 C   0  0  0  0  0  0  0  0  0  0  0  0
   -2.8817   -1.2301   -0.7278 H   0  0  0  0  0  0  0  0  0  0  0  0
   -2.7319   -1.3307    1.3065 H   0  0  0  0  0  0  0  0  0  0  0  0
   -0.1843   -0.7323    0.0073 C   0  0  0  0  0  0  0  0  0  0  0  0
   -1.3666    1.0975    0.9767 H   0  0  0  0  0  0  0  0  0  0  0  0
   -1.6441    0.6139   -0.7214 H   0  0  0  0  0  0  0  0  0  0  0  0
   -0.2864   -0.8059    0.6057 H   0  0  0  0  0  0  0  0  0  0  0  0
    0.7763   -0.3168    0.6599 H   0  0  0  0  0  0  0  0  0  0  0  0
    0.2178   -2.0051   -1.2193 H   0  0  0  0  0  0  0  0  0  0  0  0
  1  2  1  0  0  0  0
  1  3  1  0  0  0  0
  1  5  1  0  0  0  0
  4  1  1  0  0  0  0
  6  9  1  0  0  0  0
  6 10  1  0  0  0  0
  7  2  1  0  0  0  0
  9 13  1  0  0  0  0
 11  6  1  0  0  0  0
M  RAD  6   2   3   6   2   8   2   9   3  12   2  14   2
M  END
$$$$
