14
butane_opt
C  -3.982431   0.347945  -0.055559
C  -2.731613  -0.677026   0.047388
H  -4.787161  -0.240842   0.760686
H  -4.320067   1.433588  -1.235018
H  -3.726906   0.341157   0.400937
C  -1.387322   0.116641   0.090990
H  -2.639378  -1.235219  -0.579557
H  -2.838038  -1.310174   0.874598
C  -0.091876  -0.676884  -0.030518
H  -1.168972   1.075002   1.250597
H  -1.340863   0.511240  -0.548878
H  -0.588013  -0.959198   0.668960
H   0.843359   0.091769   0.052369
H  -0.156302  -1.474986  -0.937341
