butane_opt
 OpenBabel08242015403D

 14 10  0  0  0  0  0  0  0  0999 V2000
   -4.0007    0.2396    0.1579 C   0  0  0  0  0  0  0  0  0  0  0  0
   -2.6941   -0.6138   -0.0528 C   0  0  0  0  0  0  0  0  0  0  0  0
   -4.9548   -0.3325   -0.2235 H   0  0  0  0  0  0  0  0  0  0  0  0
   -3.9415    0.3245   -0.3828 H   0  0  0  0  0  0  0  0  0  0  0  0
   -3.9760    1.1662    1.2292 H   0  0  0  0  0  0  0  0  0  0  0  0
   -1.4266    0.2927   -0.1546 C   0  0  0  0  0  0  0  0  0  0  0  0
   -2.8599   -1.7627   -1.1981 H   0  0  0  0  0  0  0  0  0  0  0  0
   -2.5802   -0.9227    0.5552 H   0  0  0  0  0  0  0  0  0  0  0  0
   -0.1360   -0.7387    0.1587 C   0  0  0  0  0  0  0  0  0  0  0  0
   -1.3805    0.8497    0.5977 H   0  0  0  0  0  0  0  0  0  0  0  0
   -1.1857    1.1666   -1.2930 H   0  0  0  0  0  0  0  0  0  0  0  0
   -0.1135   -1.7836    1.3701 H   0  0  0  0  0  0  0  0  0  0  0  0
    0.7427   -0.2058   -0.2141 H   0  0  0  0  0  0  0  0  0  0  0  0
    0.3076   -1.1341   -0.2568 H   0  0  0  0  0  0  0  0  0  0  0  0
  1  5  1  0  0  0  0
  2  1  1  0  0  0  0
  2  8  1  0  0  0  0
  3  1  1  0  0  0  0
  6  2  1  0  0  0  0
  6  9  1  0  0  0  0
  6 10  1  0  0  0  0
 11  6  1  0  0  0  0
 13  9  1  0  0  0  0
 14  9  1  0  0  0  0
M  RAD  6   1   2   2   2   4   2   7   2   9   2  12   2
M  END
$$$$
