butane_opt
 OpenBabel08242015403D

 14 13  0  0  0  0  0  0  0  0999 V2000
   -3.9328    0.2632    0.0330 C   0  0  0  0  0  0  0  0  0  0  0  0
   -2.6933   -0.6108    0.0050 C   0  0  0  0  0  0  0  0  0  0  0  0
   -4.8676   -0.3219    0.0514 H   0  0  0  0  0  0  0  0  0  0  0  0
   -3.9976    0.8371   -0.8223 H   0  0  0  0  0  0  0  0  0  0  0  0
   -3.8958    0.9345    0.9152 H   0  0  0  0  0  0  0  0  0  0  0  0
   -1.4115    0.1832    0.0030 C   0  0  0  0  0  0  0  0  0  0  0  0
   -2.7253   -1.3169   -0.8571 H   0  0  0  0  0  0  0  0  0  0  0  0
   -2.7023   -1.2348    0.9071 H   0  0  0  0  0  0  0  0  0  0  0  0
   -0.1666   -0.6886    0.0523 C   0  0  0  0  0  0  0  0  0  0  0  0
   -1.4462    0.8913    0.8544 H   0  0  0  0  0  0  0  0  0  0  0  0
   -1.3396    0.8045   -0.8725 H   0  0  0  0  0  0  0  0  0  0  0  0
   -0.1083   -1.4366    1.0225 H   0  0  0  0  0  0  0  0  0  0  0  0
    0.7057   -0.1300   -0.1179 H   0  0  0  0  0  0  0  0  0  0  0  0
   -0.1939   -1.2683   -0.7564 H   0  0  0  0  0  0  0  0  0  0  0  0
  1  3  1  0  0  0  0
  1  5  1  0  0  0  0
  2  1  1  0  0  0  0
  2  8  1  0  0  0  0
  4  1  1  0  0  0  0
  6  2  1  0  0  0  0
  6  9  1  0  0  0  0
  6 10  1  0  0  0  0
  7  2  1  0  0  0  0
  9 12  1  0  0  0  0
 11  6  1  0  0  0  0
 13  9  1  0  0  0  0
 14  9  1  0  0  0  0
M  END
$$$$
