butane_opt
 OpenBabel08242015403D

 14 12  0  0  0  0  0  0  0  0999 V2000
   -3.9235    0.1918    0.2212 C   0  0  0  0  0  0  0  0  0  0  0  0
   -2.7793   -0.5463   -0.1479 C   0  0  0  0  0  0  0  0  0  0  0  0
   -4.5810   -0.2025    0.3760 H   0  0  0  0  0  0  0  0  0  0  0  0
   -3.9557    0.8733   -0.5903 H   0  0  0  0  0  0  0  0  0  0  0  0
   -3.8006    0.7795    1.0185 H   0  0  0  0  0  0  0  0  0  0  0  0
   -1.4030    0.2436   -0.2065 C   0  0  0  0  0  0  0  0  0  0  0  0
   -2.8528   -1.6225   -1.4484 H   0  0  0  0  0  0  0  0  0  0  0  0
   -2.6808   -0.8500    0.5117 H   0  0  0  0  0  0  0  0  0  0  0  0
   -0.1514   -0.7357    0.2305 C   0  0  0  0  0  0  0  0  0  0  0  0
   -1.5736    0.9378    0.6284 H   0  0  0  0  0  0  0  0  0  0  0  0
   -1.2457    0.9965   -1.1448 H   0  0  0  0  0  0  0  0  0  0  0  0
   -0.0100   -1.6919    1.3158 H   0  0  0  0  0  0  0  0  0  0  0  0
    0.7657   -0.2767    0.0727 H   0  0  0  0  0  0  0  0  0  0  0  0
   -0.0116   -1.2412   -0.4200 H   0  0  0  0  0  0  0  0  0  0  0  0
  1  3  1  0  0  0  0
  1  5  1  0  0  0  0
  2  1  1  0  0  0  0
  2  8  1  0  0  0  0
  4  1  1  0  0  0  0
  6  2  1  0  0  0  0
  6  9  1  0  0  0  0
  6 10  1  0  0  0  0
  9 12  1  0  0  0  0
 11  6  1  0  0  0  0
 13  9  1  0  0  0  0
 14  9  1  0  0  0  0
M  RAD  2   2   2   7   2
M  END
$$$$
