14
butane_opt
C  -3.996935   0.307682   0.088828
C  -2.726693  -0.731091   0.078596
H  -4.635507  -0.110758  -0.583444
H  -3.800040   0.312002  -0.492335
H  -4.582110   1.778403   1.459372
C  -1.334224   0.199375  -0.137228
H  -2.748136  -1.619281  -0.988482
H  -2.651214  -1.081442   0.730884
C  -0.155635  -0.695217   0.088197
H  -1.321884   0.601125   0.467494
H  -1.261185   1.085529  -1.151908
H  -0.364308  -1.345923   1.158522
H   0.911659  -0.041704   0.011973
H  -0.000633  -0.998953  -0.481584
