14
butane_opt
C  -3.976489   0.268795  -0.090811
C  -2.704187  -0.672866   0.151551
H  -4.761726  -0.044663   0.465476
H  -4.009306   1.479564  -1.392464
H  -3.988447   0.843976   0.576715
C  -1.418950   0.140613   0.115702
H  -2.626458  -1.238609  -0.519680
H  -2.933878  -1.559508   1.143318
C  -0.127128  -0.660324  -0.060730
H  -1.295662   0.802885   1.043373
H  -1.155170   0.907724  -0.796882
H  -0.286599  -0.608690   0.300183
H   0.839825   0.063027   0.472250
H  -0.113227  -2.000037  -1.340360
