butane_opt
 OpenBabel08242015403D

 14 12  0  0  0  0  0  0  0  0999 V2000
   -3.9989    0.2485    0.1282 C   0  0  0  0  0  0  0  0  0  0  0  0
   -2.6714   -0.5742   -0.0614 C   0  0  0  0  0  0  0  0  0  0  0  0
   -5.1156   -0.5124   -0.2255 H   0  0  0  0  0  0  0  0  0  0  0  0
   -3.9841    0.4129   -0.5329 H   0  0  0  0  0  0  0  0  0  0  0  0
   -3.8082    1.0906    1.2159 H   0  0  0  0  0  0  0  0  0  0  0  0
   -1.3879    0.2529   -0.1115 C   0  0  0  0  0  0  0  0  0  0  0  0
   -2.8633   -1.3115   -0.8724 H   0  0  0  0  0  0  0  0  0  0  0  0
   -2.7608   -1.0890    0.6376 H   0  0  0  0  0  0  0  0  0  0  0  0
   -0.1479   -0.7587    0.0937 C   0  0  0  0  0  0  0  0  0  0  0  0
   -1.5597    0.9403    0.7428 H   0  0  0  0  0  0  0  0  0  0  0  0
   -1.2623    0.7793   -0.9782 H   0  0  0  0  0  0  0  0  0  0  0  0
   -0.1319   -1.6926    1.2417 H   0  0  0  0  0  0  0  0  0  0  0  0
    0.7364   -0.2965   -0.1084 H   0  0  0  0  0  0  0  0  0  0  0  0
    0.2134   -0.8152   -0.2191 H   0  0  0  0  0  0  0  0  0  0  0  0
  1  5  1  0  0  0  0
  2  1  1  0  0  0  0
  2  8  1  0  0  0  0
  3  1  1  0  0  0  0
  4  1  1  0  0  0  0
  6  2  1  0  0  0  0
  6  9  1  0  0  0  0
  6 10  1  0  0  0  0
  7  2  1  0  0  0  0
  9 12  1  0  0  0  0
 11  6  1  0  0  0  0
 13  9  1  0  0  0  0
M  RAD  2   9   2  14   2
M  END
$$$$
