14
butane_opt
C  -3.817034   0.209670   0.169563
C  -2.717724  -0.539457  -0.174571
H  -4.843657  -0.318703   0.660834
H  -4.479335   0.582604  -0.386729
H  -3.502602   0.877941   1.220971
C  -1.396507   0.222748  -0.234829
H  -2.940952  -1.188667  -1.175796
H  -2.691157  -1.165338   0.766171
C  -0.213241  -0.734787   0.243804
H  -1.744726   0.856903   0.531668
H  -1.374523   1.110513  -1.314365
H  -0.604891  -1.260460   1.175335
H   0.613930  -0.250883   0.592570
H   0.319011  -1.676205  -0.699532
