14
butane_opt
C  -3.958109   0.277886  -0.006802
C  -2.695517  -0.636535   0.056823
H  -4.858592  -0.289627   0.152098
H  -4.002791   1.040805  -0.979216
H  -3.979662   0.791742   0.739076
C  -1.400551   0.181399   0.055558
H  -2.707371  -1.342197  -0.816381
H  -2.728734  -1.271607   0.957811
C  -0.149895  -0.679194   0.001191
H  -1.380961   0.880382   0.918653
H  -1.359684   0.762229  -0.830681
H  -0.101067  -1.267871   0.861414
H   0.727010  -0.108694   0.032265
H  -0.187503  -1.383314  -0.892210
