14
butane_opt
C  -3.936796   0.250099   0.043857
C  -2.721566  -0.606312   0.026514
H  -4.847002  -0.319109  -0.095923
H  -3.952746   0.777414  -0.797976
H  -3.988530   1.016648   0.952024
C  -1.407661   0.205151  -0.018136
H  -2.746070  -1.316114  -0.859018
H  -2.725342  -1.193080   0.893133
C  -0.140339  -0.704827   0.055482
H  -1.405114   0.856696   0.783763
H  -1.374467   0.825872  -0.913222
H  -0.088220  -1.385646   1.016704
H   0.720542  -0.177228  -0.057542
H  -0.129655  -1.296582  -0.760409
