butane_opt
 OpenBabel08242015403D

 14 11  0  0  0  0  0  0  0  0999 V2000
   -3.8554    0.2267    0.2337 C   0  0  0  0  0  0  0  0  0  0  0  0
   -2.7445   -0.5329   -0.2085 C   0  0  0  0  0  0  0  0  0  0  0  0
   -4.8941   -0.5364    0.9035 H   0  0  0  0  0  0  0  0  0  0  0  0
   -4.1021    1.1602   -0.8651 H   0  0  0  0  0  0  0  0  0  0  0  0
   -3.5896    0.6675    0.9356 H   0  0  0  0  0  0  0  0  0  0  0  0
   -1.4497    0.1696   -0.1906 C   0  0  0  0  0  0  0  0  0  0  0  0
   -2.9881   -1.3269   -1.3065 H   0  0  0  0  0  0  0  0  0  0  0  0
   -2.4232   -0.7038    0.2289 H   0  0  0  0  0  0  0  0  0  0  0  0
   -0.2046   -0.7390    0.2503 C   0  0  0  0  0  0  0  0  0  0  0  0
   -1.5928    0.7948    0.6838 H   0  0  0  0  0  0  0  0  0  0  0  0
   -1.1606    0.7773   -1.1738 H   0  0  0  0  0  0  0  0  0  0  0  0
   -0.2782   -1.4541    1.2808 H   0  0  0  0  0  0  0  0  0  0  0  0
    0.9804   -0.0768    0.2072 H   0  0  0  0  0  0  0  0  0  0  0  0
    0.0702   -1.2522   -0.4788 H   0  0  0  0  0  0  0  0  0  0  0  0
  1  3  1  0  0  0  0
  1  5  1  0  0  0  0
  2  1  1  0  0  0  0
  4  1  1  0  0  0  0
  6  8  1  0  0  0  0
  6 10  1  0  0  0  0
  7  2  1  0  0  0  0
  9 12  1  0  0  0  0
 11  6  1  0  0  0  0
 13  9  1  0  0  0  0
 14  9  1  0  0  0  0
M  RAD  3   2   3   6   2   9   2
M  END
$$$$
