butane_opt
 OpenBabel08242015403D

 14 13  0  0  0  0  0  0  0  0999 V2000
   -3.9855    0.2855   -0.1368 C   0  0  0  0  0  0  0  0  0  0  0  0
   -2.6896   -0.6803    0.2698 C   0  0  0  0  0  0  0  0  0  0  0  0
   -4.7063   -0.1681   -0.5460 H   0  0  0  0  0  0  0  0  0  0  0  0
   -3.6250    0.7831   -0.8847 H   0  0  0  0  0  0  0  0  0  0  0  0
   -4.5897    0.9410    0.6436 H   0  0  0  0  0  0  0  0  0  0  0  0
   -1.3850    0.1918    0.1680 C   0  0  0  0  0  0  0  0  0  0  0  0
   -2.4320   -1.4067   -0.6609 H   0  0  0  0  0  0  0  0  0  0  0  0
   -2.8201   -1.2374    1.2394 H   0  0  0  0  0  0  0  0  0  0  0  0
   -0.1351   -0.6735   -0.1185 C   0  0  0  0  0  0  0  0  0  0  0  0
   -1.2378    1.0526    1.0838 H   0  0  0  0  0  0  0  0  0  0  0  0
   -1.4666    0.7867   -0.7900 H   0  0  0  0  0  0  0  0  0  0  0  0
   -0.0786   -1.2525    0.7617 H   0  0  0  0  0  0  0  0  0  0  0  0
    0.6957   -0.1010   -0.4819 H   0  0  0  0  0  0  0  0  0  0  0  0
   -0.4084   -1.3797   -1.1044 H   0  0  0  0  0  0  0  0  0  0  0  0
  1  2  1  0  0  0  0
  1  5  1  0  0  0  0
  2  8  1  0  0  0  0
  3  1  1  0  0  0  0
  4  1  1  0  0  0  0
  6  2  1  0  0  0  0
  6 10  1  0  0  0  0
  7  2  1  0  0  0  0
  9  6  1  0  0  0  0
  9 12  1  0  0  0  0
 11  6  1  0  0  0  0
 13  9  1  0  0  0  0
 14  9  1  0  0  0  0
M  END
$$$$
