14
butane_opt
C  -3.934320   0.260854  -0.100548
C  -2.611068  -0.648757   0.220457
H  -4.744514  -0.088714   0.183745
H  -4.037493   1.600633  -1.355848
H  -4.227387   0.435667   0.439610
C  -1.413555   0.139719   0.139983
H  -2.724760  -1.381807  -0.753575
H  -2.904130  -1.426132   1.182853
C  -0.181530  -0.628634  -0.108008
H  -1.129321   0.846759   0.952988
H  -1.661052   0.837919  -0.650053
H  -0.564908  -0.610044   0.501209
H   0.713587  -0.151814   0.468790
H  -0.038777  -2.023713  -1.476016
