butane_opt
 OpenBabel08242015403D

 14 10  0  0  0  0  0  0  0  0999 V2000
   -3.9343    0.2609   -0.1005 C   0  0  0  0  0  0  0  0  0  0  0  0
   -2.6111   -0.6488    0.2205 C   0  0  0  0  0  0  0  0  0  0  0  0
   -4.7445   -0.0887    0.1837 H   0  0  0  0  0  0  0  0  0  0  0  0
   -4.0375    1.6006   -1.3558 H   0  0  0  0  0  0  0  0  0  0  0  0
   -4.2274    0.4357    0.4396 H   0  0  0  0  0  0  0  0  0  0  0  0
   -1.4136    0.1397    0.1400 C   0  0  0  0  0  0  0  0  0  0  0  0
   -2.7248   -1.3818   -0.7536 H   0  0  0  0  0  0  0  0  0  0  0  0
   -2.9041   -1.4261    1.1829 H   0  0  0  0  0  0  0  0  0  0  0  0
   -0.1815   -0.6286   -0.1080 C   0  0  0  0  0  0  0  0  0  0  0  0
   -1.1293    0.8468    0.9530 H   0  0  0  0  0  0  0  0  0  0  0  0
   -1.6611    0.8379   -0.6501 H   0  0  0  0  0  0  0  0  0  0  0  0
   -0.5649   -0.6100    0.5012 H   0  0  0  0  0  0  0  0  0  0  0  0
    0.7136   -0.1518    0.4688 H   0  0  0  0  0  0  0  0  0  0  0  0
   -0.0388   -2.0237   -1.4760 H   0  0  0  0  0  0  0  0  0  0  0  0
  1  3  1  0  0  0  0
  1  2  1  0  0  0  0
  1  5  1  0  0  0  0
  2  8  1  0  0  0  0
  6  2  1  0  0  0  0
  6 10  1  0  0  0  0
  7  2  1  0  0  0  0
  9 13  1  0  0  0  0
  9 12  1  0  0  0  0
 11  6  1  0  0  0  0
M  RAD  5   1   2   4   2   6   2   9   3  14   2
M  END
$$$$
