butane_opt
 OpenBabel08242015403D

 14 10  0  0  0  0  0  0  0  0999 V2000
   -3.9629    0.1927    0.1258 C   0  0  0  0  0  0  0  0  0  0  0  0
   -2.7076   -0.5334    0.0142 C   0  0  0  0  0  0  0  0  0  0  0  0
   -4.9099   -0.4381   -0.6342 H   0  0  0  0  0  0  0  0  0  0  0  0
   -3.4581    0.0011   -0.2815 H   0  0  0  0  0  0  0  0  0  0  0  0
   -4.3463    1.4882    1.4134 H   0  0  0  0  0  0  0  0  0  0  0  0
   -1.3752    0.2775   -0.1385 C   0  0  0  0  0  0  0  0  0  0  0  0
   -2.6649   -1.4945   -0.9880 H   0  0  0  0  0  0  0  0  0  0  0  0
   -2.8240   -0.8162    0.7988 H   0  0  0  0  0  0  0  0  0  0  0  0
   -0.1781   -0.7375    0.1124 C   0  0  0  0  0  0  0  0  0  0  0  0
   -1.5335    0.5323    0.4486 H   0  0  0  0  0  0  0  0  0  0  0  0
   -1.5661    1.0784   -1.2475 H   0  0  0  0  0  0  0  0  0  0  0  0
    0.0260   -1.7574    1.2581 H   0  0  0  0  0  0  0  0  0  0  0  0
    0.6488   -0.4202   -0.0989 H   0  0  0  0  0  0  0  0  0  0  0  0
    0.2946   -1.0507   -0.4452 H   0  0  0  0  0  0  0  0  0  0  0  0
  2  8  1  0  0  0  0
  3  1  1  0  0  0  0
  4  1  1  0  0  0  0
  6  2  1  0  0  0  0
  6  9  1  0  0  0  0
  6 10  1  0  0  0  0
  7  2  1  0  0  0  0
 11  6  1  0  0  0  0
 13  9  1  0  0  0  0
 14  9  1  0  0  0  0
M  RAD  5   1   3   2   2   5   2   9   2  12   2
M  END
$$$$
