butane_opt
 OpenBabel08242015403D

 14 13  0  0  0  0  0  0  0  0999 V2000
   -3.9275    0.2559   -0.0049 C   0  0  0  0  0  0  0  0  0  0  0  0
   -2.7035   -0.6020    0.0527 C   0  0  0  0  0  0  0  0  0  0  0  0
   -4.8785   -0.3787    0.1331 H   0  0  0  0  0  0  0  0  0  0  0  0
   -3.9858    0.9768   -0.9905 H   0  0  0  0  0  0  0  0  0  0  0  0
   -3.9354    0.7903    0.7523 H   0  0  0  0  0  0  0  0  0  0  0  0
   -1.4117    0.1982    0.0510 C   0  0  0  0  0  0  0  0  0  0  0  0
   -2.7180   -1.2882   -0.8238 H   0  0  0  0  0  0  0  0  0  0  0  0
   -2.7080   -1.2700    0.9826 H   0  0  0  0  0  0  0  0  0  0  0  0
   -0.1624   -0.6970    0.0086 C   0  0  0  0  0  0  0  0  0  0  0  0
   -1.4073    0.8816    0.9259 H   0  0  0  0  0  0  0  0  0  0  0  0
   -1.4236    0.8286   -0.8227 H   0  0  0  0  0  0  0  0  0  0  0  0
   -0.0406   -1.2754    0.8472 H   0  0  0  0  0  0  0  0  0  0  0  0
    0.7029   -0.1616    0.0178 H   0  0  0  0  0  0  0  0  0  0  0  0
   -0.1592   -1.4403   -0.8894 H   0  0  0  0  0  0  0  0  0  0  0  0
  1  2  1  0  0  0  0
  1  3  1  0  0  0  0
  1  5  1  0  0  0  0
  2  8  1  0  0  0  0
  4  1  1  0  0  0  0
  6  2  1  0  0  0  0
  6 10  1  0  0  0  0
  7  2  1  0  0  0  0
  9 13  1  0  0  0  0
  9  6  1  0  0  0  0
  9 12  1  0  0  0  0
 11  6  1  0  0  0  0
 14  9  1  0  0  0  0
M  END
$$$$
