butane_opt
 OpenBabel08242015403D

 14 12  0  0  0  0  0  0  0  0999 V2000
   -3.9792    0.2922    0.1843 C   0  0  0  0  0  0  0  0  0  0  0  0
   -2.6757   -0.6593   -0.0640 C   0  0  0  0  0  0  0  0  0  0  0  0
   -5.0466   -0.4515   -0.4489 H   0  0  0  0  0  0  0  0  0  0  0  0
   -3.6440    0.5573   -0.3929 H   0  0  0  0  0  0  0  0  0  0  0  0
   -4.1245    1.5565    1.2971 H   0  0  0  0  0  0  0  0  0  0  0  0
   -1.4172    0.1448   -0.1554 C   0  0  0  0  0  0  0  0  0  0  0  0
   -2.9830   -1.4114   -1.0388 H   0  0  0  0  0  0  0  0  0  0  0  0
   -2.3659   -0.9964    0.5802 H   0  0  0  0  0  0  0  0  0  0  0  0
   -0.1240   -0.6538    0.1556 C   0  0  0  0  0  0  0  0  0  0  0  0
   -1.5043    0.4951    0.4128 H   0  0  0  0  0  0  0  0  0  0  0  0
   -1.3408    0.9199   -1.2902 H   0  0  0  0  0  0  0  0  0  0  0  0
   -0.2794   -1.6464    1.2512 H   0  0  0  0  0  0  0  0  0  0  0  0
    0.7793   -0.0863    0.2185 H   0  0  0  0  0  0  0  0  0  0  0  0
   -0.1670   -0.9185   -0.4935 H   0  0  0  0  0  0  0  0  0  0  0  0
  2  1  1  0  0  0  0
  2  8  1  0  0  0  0
  3  1  1  0  0  0  0
  4  1  1  0  0  0  0
  6  2  1  0  0  0  0
  6  9  1  0  0  0  0
  6 10  1  0  0  0  0
  7  2  1  0  0  0  0
  9 13  1  0  0  0  0
  9 12  1  0  0  0  0
 11  6  1  0  0  0  0
 14  9  1  0  0  0  0
M  RAD  2   1   2   5   2
M  END
$$$$
