butane_opt
 OpenBabel08242015403D

 14 10  0  0  0  0  0  0  0  0999 V2000
   -4.0025    0.1950   -0.0773 C   0  0  0  0  0  0  0  0  0  0  0  0
   -2.7524   -0.5579    0.1075 C   0  0  0  0  0  0  0  0  0  0  0  0
   -4.8824   -0.3784    0.3560 H   0  0  0  0  0  0  0  0  0  0  0  0
   -3.9669    1.2964   -1.2838 H   0  0  0  0  0  0  0  0  0  0  0  0
   -3.7596    0.5286    0.5391 H   0  0  0  0  0  0  0  0  0  0  0  0
   -1.3721    0.2339    0.1298 C   0  0  0  0  0  0  0  0  0  0  0  0
   -2.5973   -0.9004   -0.3994 H   0  0  0  0  0  0  0  0  0  0  0  0
   -2.7479   -1.3115    1.2111 H   0  0  0  0  0  0  0  0  0  0  0  0
   -0.1269   -0.7494   -0.0815 C   0  0  0  0  0  0  0  0  0  0  0  0
   -1.4826    1.0684    0.9867 H   0  0  0  0  0  0  0  0  0  0  0  0
   -1.1132    0.8002   -0.6696 H   0  0  0  0  0  0  0  0  0  0  0  0
    0.0078   -1.0118    0.5179 H   0  0  0  0  0  0  0  0  0  0  0  0
    0.6188   -0.2136    0.5069 H   0  0  0  0  0  0  0  0  0  0  0  0
   -0.0227   -1.8651   -1.3673 H   0  0  0  0  0  0  0  0  0  0  0  0
  1  2  1  0  0  0  0
  1  3  1  0  0  0  0
  1  5  1  0  0  0  0
  2  6  1  0  0  0  0
  2  8  1  0  0  0  0
  6 10  1  0  0  0  0
  9  6  1  0  0  0  0
  9 13  1  0  0  0  0
  9 12  1  0  0  0  0
 11  6  1  0  0  0  0
M  RAD  6   1   2   2   2   4   2   7   2   9   2  14   2
M  END
$$$$
