butane_opt
 OpenBabel08242015403D

 14 13  0  0  0  0  0  0  0  0999 V2000
   -3.9303    0.2792   -0.0197 C   0  0  0  0  0  0  0  0  0  0  0  0
   -2.7018   -0.6264    0.0884 C   0  0  0  0  0  0  0  0  0  0  0  0
   -4.7973   -0.2781   -0.0966 H   0  0  0  0  0  0  0  0  0  0  0  0
   -3.8614    0.8320   -0.8970 H   0  0  0  0  0  0  0  0  0  0  0  0
   -4.0850    0.9789    0.8638 H   0  0  0  0  0  0  0  0  0  0  0  0
   -1.4054    0.1691    0.0344 C   0  0  0  0  0  0  0  0  0  0  0  0
   -2.6907   -1.2597   -0.7198 H   0  0  0  0  0  0  0  0  0  0  0  0
   -2.7134   -1.3377    1.0061 H   0  0  0  0  0  0  0  0  0  0  0  0
   -0.1773   -0.6848   -0.0014 C   0  0  0  0  0  0  0  0  0  0  0  0
   -1.3104    0.8972    0.9336 H   0  0  0  0  0  0  0  0  0  0  0  0
   -1.4487    0.7392   -0.8051 H   0  0  0  0  0  0  0  0  0  0  0  0
   -0.1252   -1.2804    0.8610 H   0  0  0  0  0  0  0  0  0  0  0  0
    0.7721   -0.0444   -0.0350 H   0  0  0  0  0  0  0  0  0  0  0  0
   -0.1996   -1.3517   -0.8812 H   0  0  0  0  0  0  0  0  0  0  0  0
  1  2  1  0  0  0  0
  1  5  1  0  0  0  0
  2  8  1  0  0  0  0
  3  1  1  0  0  0  0
  4  1  1  0  0  0  0
  6  2  1  0  0  0  0
  6 10  1  0  0  0  0
  7  2  1  0  0  0  0
  9  6  1  0  0  0  0
  9 12  1  0  0  0  0
 11  6  1  0  0  0  0
 13  9  1  0  0  0  0
 14  9  1  0  0  0  0
M  END
$$$$
