butane_opt
 OpenBabel08242015403D

 14 13  0  0  0  0  0  0  0  0999 V2000
   -3.9486    0.2752    0.0162 C   0  0  0  0  0  0  0  0  0  0  0  0
   -2.7097   -0.6359    0.0488 C   0  0  0  0  0  0  0  0  0  0  0  0
   -4.8319   -0.2578    0.0365 H   0  0  0  0  0  0  0  0  0  0  0  0
   -4.0436    0.9058   -0.8718 H   0  0  0  0  0  0  0  0  0  0  0  0
   -3.9687    0.9281    0.8646 H   0  0  0  0  0  0  0  0  0  0  0  0
   -1.3949    0.1875    0.0041 C   0  0  0  0  0  0  0  0  0  0  0  0
   -2.7086   -1.3398   -0.8224 H   0  0  0  0  0  0  0  0  0  0  0  0
   -2.7130   -1.2612    0.9287 H   0  0  0  0  0  0  0  0  0  0  0  0
   -0.1561   -0.6899    0.0378 C   0  0  0  0  0  0  0  0  0  0  0  0
   -1.3598    0.7850    0.8285 H   0  0  0  0  0  0  0  0  0  0  0  0
   -1.4023    0.8291   -0.9006 H   0  0  0  0  0  0  0  0  0  0  0  0
   -0.1608   -1.2158    0.8529 H   0  0  0  0  0  0  0  0  0  0  0  0
    0.7734   -0.0711    0.0936 H   0  0  0  0  0  0  0  0  0  0  0  0
   -0.1044   -1.4057   -0.8634 H   0  0  0  0  0  0  0  0  0  0  0  0
  1  3  1  0  0  0  0
  1  2  1  0  0  0  0
  1  5  1  0  0  0  0
  2  8  1  0  0  0  0
  4  1  1  0  0  0  0
  6  9  1  0  0  0  0
  6  2  1  0  0  0  0
  6 10  1  0  0  0  0
  7  2  1  0  0  0  0
  9 13  1  0  0  0  0
  9 12  1  0  0  0  0
 11  6  1  0  0  0  0
 14  9  1  0  0  0  0
M  END
$$$$
