14
butane_opt
C  -3.887383   0.235260   0.204747
C  -2.787368  -0.620214  -0.128665
H  -4.861797  -0.383248   0.150506
H  -4.110961   0.837794  -0.680977
H  -3.785012   0.828517   1.078500
C  -1.457708   0.302669  -0.189196
H  -3.080838  -1.231612  -1.080271
H  -2.512732  -1.040526   0.689891
C  -0.103957  -0.765503   0.204992
H  -1.480039   0.526341   0.426135
H  -1.241345   1.153138  -1.147585
H  -0.208075  -1.174847   1.090302
H   0.846208  -0.121120   0.595919
H   0.257722  -1.726631  -0.837109
