14
butane_opt
C  -3.961971   0.308709   0.213455
C  -2.695147  -0.691402  -0.122589
H  -4.616622  -0.048131   0.215729
H  -4.371755   0.775735  -0.653993
H  -4.022130   1.216124   1.171793
C  -1.377337   0.109194  -0.217045
H  -3.060334  -1.450729  -1.021191
H  -2.418193  -1.224247   0.770961
C  -0.148442  -0.646350   0.230989
H  -1.398625   0.509327   0.375727
H  -0.932868   1.289310  -1.537661
H  -0.859487  -0.828325   0.829783
H   0.669755   0.026896   0.801199
H   0.199739  -1.720485  -0.833062
