14
butane_opt
C  -3.964128   0.275458   0.043885
C  -2.701048  -0.628997   0.013883
H  -4.866582  -0.321308   0.108994
H  -4.013155   0.902538  -0.828373
H  -3.952604   0.946156   0.921411
C  -1.393444   0.178452  -0.030513
H  -2.726951  -1.307406  -0.863308
H  -2.681328  -1.238979   0.892568
C  -0.157892  -0.691773   0.061564
H  -1.320849   0.842143   0.809959
H  -1.357667   0.836944  -0.931834
H  -0.227783  -1.271902   0.954693
H   0.773065  -0.047950   0.137606
H  -0.053868  -1.413426  -0.829125
