butane_opt
 OpenBabel08242015403D

 14 10  0  0  0  0  0  0  0  0999 V2000
   -3.9787    0.2920   -0.1300 C   0  0  0  0  0  0  0  0  0  0  0  0
   -2.7510   -0.6900    0.2056 C   0  0  0  0  0  0  0  0  0  0  0  0
   -4.8953   -0.1914   -0.0613 H   0  0  0  0  0  0  0  0  0  0  0  0
   -3.8363    1.2873   -1.3602 H   0  0  0  0  0  0  0  0  0  0  0  0
   -4.2078    0.6605    0.3187 H   0  0  0  0  0  0  0  0  0  0  0  0
   -1.3909    0.2291    0.2227 C   0  0  0  0  0  0  0  0  0  0  0  0
   -2.6020   -1.2171   -0.4400 H   0  0  0  0  0  0  0  0  0  0  0  0
   -2.6549   -1.3940    1.1425 H   0  0  0  0  0  0  0  0  0  0  0  0
   -0.0966   -0.6699   -0.1800 C   0  0  0  0  0  0  0  0  0  0  0  0
   -1.2791    1.1515    1.2941 H   0  0  0  0  0  0  0  0  0  0  0  0
   -1.2565    0.2804   -0.4012 H   0  0  0  0  0  0  0  0  0  0  0  0
   -0.0032   -1.5020    0.8023 H   0  0  0  0  0  0  0  0  0  0  0  0
    0.7505   -0.0526   -0.2199 H   0  0  0  0  0  0  0  0  0  0  0  0
   -0.4416   -1.4145   -1.1023 H   0  0  0  0  0  0  0  0  0  0  0  0
  1  3  1  0  0  0  0
  1  2  1  0  0  0  0
  2  6  1  0  0  0  0
  2  8  1  0  0  0  0
  6 10  1  0  0  0  0
  7  2  1  0  0  0  0
  9 12  1  0  0  0  0
 11  6  1  0  0  0  0
 13  9  1  0  0  0  0
 14  9  1  0  0  0  0
M  RAD  5   1   3   4   2   5   2   6   2   9   2
M  END
$$$$
