14
butane_opt
C  -3.977143   0.268697   0.039941
C  -2.699164  -0.657758   0.078065
H  -4.628690  -0.070630  -0.696906
H  -3.834237   0.512569  -0.511948
H  -4.401369   1.649894   1.450680
C  -1.337802   0.154102  -0.079807
H  -2.787732  -1.379689  -0.790520
H  -2.742628  -1.381191   1.085280
C  -0.182453  -0.685086   0.015479
H  -1.325701   0.858351   0.800176
H  -1.296365   0.784024  -1.122553
H  -0.355654  -1.424340   1.187072
H   0.725255  -0.053948   0.114152
H  -0.019287  -0.912673  -0.639904
