butane_opt
 OpenBabel08242015403D

 14 13  0  0  0  0  0  0  0  0999 V2000
   -3.9853    0.1902   -0.1608 C   0  0  0  0  0  0  0  0  0  0  0  0
   -2.7396   -0.5523    0.2717 C   0  0  0  0  0  0  0  0  0  0  0  0
   -5.0842   -0.5367   -0.4583 H   0  0  0  0  0  0  0  0  0  0  0  0
   -3.5985    0.8569   -1.1619 H   0  0  0  0  0  0  0  0  0  0  0  0
   -4.1892    1.0246    0.7130 H   0  0  0  0  0  0  0  0  0  0  0  0
   -1.3983    0.2871    0.1876 C   0  0  0  0  0  0  0  0  0  0  0  0
   -2.5148   -1.2965   -0.4438 H   0  0  0  0  0  0  0  0  0  0  0  0
   -2.7822   -1.1476    1.1251 H   0  0  0  0  0  0  0  0  0  0  0  0
   -0.0892   -0.7548   -0.1501 C   0  0  0  0  0  0  0  0  0  0  0  0
   -1.3021    1.0210    1.0927 H   0  0  0  0  0  0  0  0  0  0  0  0
   -1.4929    0.6815   -0.4750 H   0  0  0  0  0  0  0  0  0  0  0  0
    0.1272   -1.4329    0.7778 H   0  0  0  0  0  0  0  0  0  0  0  0
    0.5753   -0.2610   -0.5675 H   0  0  0  0  0  0  0  0  0  0  0  0
   -0.1548   -1.4656   -0.9673 H   0  0  0  0  0  0  0  0  0  0  0  0
  1  2  1  0  0  0  0
  1  5  1  0  0  0  0
  2  8  1  0  0  0  0
  3  1  1  0  0  0  0
  4  1  1  0  0  0  0
  6  2  1  0  0  0  0
  6 10  1  0  0  0  0
  7  2  1  0  0  0  0
  9  6  1  0  0  0  0
  9 12  1  0  0  0  0
 11  6  1  0  0  0  0
 13  9  1  0  0  0  0
 14  9  1  0  0  0  0
M  END
$$$$
