14
butane_opt
C  -3.951282   0.218922  -0.056233
C  -2.754703  -0.575747   0.067498
H  -4.978529  -0.467137   0.851599
H  -4.203217   1.599547  -1.449348
H  -3.914482  -0.008878   0.222808
C  -1.402146   0.262744   0.174821
H  -2.555365  -1.433747  -0.811209
H  -2.941440  -1.091521   0.978645
C  -0.096670  -0.709122  -0.058766
H  -1.352037   1.160410   1.228168
H  -1.569466   0.824000  -0.767239
H   0.134031  -1.243848   0.719254
H   0.673030  -0.400884   0.126764
H   0.149729  -1.787958  -1.268030
