14
butane_opt
C  -3.917322   0.310044   0.088562
C  -2.714000  -0.704432  -0.071681
H  -4.570294  -0.171843  -0.015510
H  -4.159710   0.782726  -0.740975
H  -4.243278   0.999287   0.878898
C  -1.427360   0.147981   0.028700
H  -2.808356  -1.577843  -1.067493
H  -2.394293  -0.967581   0.633684
C  -0.159556  -0.641462   0.097432
H  -1.426128   0.887270   0.923699
H  -1.324754   0.776517  -0.938786
H  -0.034573  -1.870243   1.245536
H   0.763922   0.001694  -0.819891
H  -0.230981  -0.635545  -0.337933
