14
butane_opt
C  -4.031550   0.335262   0.212197
C  -2.686396  -0.669462  -0.081095
H  -4.804342  -0.260973   0.231896
H  -4.289562   0.643828  -0.584660
H  -3.877412   1.163811   1.210510
C  -1.340606   0.160857  -0.298146
H  -3.121322  -1.522156  -1.279951
H  -2.672920  -1.284584   0.807096
C  -0.132023  -0.695365   0.208887
H  -1.636224   0.768373   0.474642
H  -1.169794   0.814733  -1.246945
H  -0.644547  -1.067057   1.077734
H   1.065678   0.118988   0.894664
H   0.374408  -1.373556  -0.645616
