14
butane_opt
C  -4.000732   0.239635   0.157935
C  -2.694081  -0.613780  -0.052824
H  -4.954806  -0.332461  -0.223511
H  -3.941486   0.324549  -0.382811
H  -3.975983   1.166156   1.229219
C  -1.426618   0.292746  -0.154604
H  -2.859908  -1.762654  -1.198125
H  -2.580223  -0.922723   0.555193
C  -0.135990  -0.738673   0.158727
H  -1.380513   0.849720   0.597733
H  -1.185690   1.166646  -1.292958
H  -0.113540  -1.783564   1.370145
H   0.742713  -0.205840  -0.214106
H   0.307621  -1.134069  -0.256812
