14
butane_opt
C  -3.997615   0.293442  -0.110482
C  -2.702440  -0.626228   0.152310
H  -4.918897  -0.195369   0.401612
H  -4.335373   1.586147  -1.308982
H  -3.899722   0.356936   0.372920
C  -1.364022   0.108703   0.189993
H  -2.317453  -1.439054  -0.694124
H  -3.061898  -1.473222   1.258022
C  -0.090398  -0.616277  -0.109927
H  -1.419798   0.663550   1.137171
H  -1.555571   0.793266  -0.748100
H  -0.175722  -0.753643   0.416621
H   0.683900  -0.049114   0.362354
H  -0.185596  -1.849576  -1.327160
