14
butane_opt
C  -3.934255   0.331041   0.168888
C  -2.721862  -0.697142  -0.163142
H  -4.769368  -0.128381  -0.134237
H  -4.284417   0.530588  -0.483161
H  -4.004430   1.248103   1.209469
C  -1.390959   0.202405  -0.083562
H  -2.775018  -1.692348  -1.143572
H  -2.690627  -1.094192   0.581480
C  -0.153231  -0.684056   0.184839
H  -1.555718   0.557212   0.632720
H  -1.016739   0.808370  -1.041452
H   0.073926  -1.803366   1.477452
H   0.929629  -0.032940  -0.724281
H  -0.541655  -0.618304  -0.149225
