butane_opt
 OpenBabel08242015403D

 14 11  0  0  0  0  0  0  0  0999 V2000
   -3.9862    0.3012    0.0940 C   0  0  0  0  0  0  0  0  0  0  0  0
   -2.7052   -0.6261   -0.0704 C   0  0  0  0  0  0  0  0  0  0  0  0
   -4.9359   -0.2427    0.0878 H   0  0  0  0  0  0  0  0  0  0  0  0
   -3.9607    0.8888   -0.7730 H   0  0  0  0  0  0  0  0  0  0  0  0
   -4.1499    0.7823    0.7128 H   0  0  0  0  0  0  0  0  0  0  0  0
   -1.4117    0.1492    0.0044 C   0  0  0  0  0  0  0  0  0  0  0  0
   -2.7859   -1.7804   -1.0839 H   0  0  0  0  0  0  0  0  0  0  0  0
   -2.3490   -1.0601    0.6438 H   0  0  0  0  0  0  0  0  0  0  0  0
   -0.1383   -0.6631    0.1056 C   0  0  0  0  0  0  0  0  0  0  0  0
   -1.2224    0.9038    0.9536 H   0  0  0  0  0  0  0  0  0  0  0  0
   -1.3517    0.7926   -0.8762 H   0  0  0  0  0  0  0  0  0  0  0  0
    0.1229   -1.7612    1.3215 H   0  0  0  0  0  0  0  0  0  0  0  0
    0.8526    0.0599   -0.7115 H   0  0  0  0  0  0  0  0  0  0  0  0
   -0.3770   -0.9540   -0.4160 H   0  0  0  0  0  0  0  0  0  0  0  0
  1  5  1  0  0  0  0
  2  6  1  0  0  0  0
  2  1  1  0  0  0  0
  2  8  1  0  0  0  0
  3  1  1  0  0  0  0
  4  1  1  0  0  0  0
  6  9  1  0  0  0  0
  6 10  1  0  0  0  0
 11  6  1  0  0  0  0
 13  9  1  0  0  0  0
 14  9  1  0  0  0  0
M  RAD  4   2   2   7   2   9   2  12   2
M  END
$$$$
