14
butane_opt
C  -3.904268   0.216251  -0.015424
C  -2.728760  -0.484865   0.099893
H  -4.941999  -0.509924   0.374998
H  -3.636311   1.152328  -1.148805
H  -3.712697   0.450873   0.617038
C  -1.418061   0.201848  -0.040059
H  -2.881684  -1.230093  -0.727764
H  -2.731857  -1.330746   1.306466
C  -0.184267  -0.732320   0.007341
H  -1.366624   1.097545   0.976666
H  -1.644075   0.613850  -0.721410
H  -0.286388  -0.805894   0.605662
H   0.776319  -0.316799   0.659896
H   0.217815  -2.005065  -1.219329
