butane_opt
 OpenBabel08242015403D

 14 11  0  0  0  0  0  0  0  0999 V2000
   -3.8218    0.2070    0.1829 C   0  0  0  0  0  0  0  0  0  0  0  0
   -2.7021   -0.5631   -0.1277 C   0  0  0  0  0  0  0  0  0  0  0  0
   -4.7474   -0.4070    0.5323 H   0  0  0  0  0  0  0  0  0  0  0  0
   -4.2527    1.1939   -1.0470 H   0  0  0  0  0  0  0  0  0  0  0  0
   -3.5201    0.4279    0.8744 H   0  0  0  0  0  0  0  0  0  0  0  0
   -1.4643    0.2390   -0.1301 C   0  0  0  0  0  0  0  0  0  0  0  0
   -2.9876   -1.4176   -1.0300 H   0  0  0  0  0  0  0  0  0  0  0  0
   -2.7886   -0.6126    0.4712 H   0  0  0  0  0  0  0  0  0  0  0  0
   -0.2118   -0.7742    0.1802 C   0  0  0  0  0  0  0  0  0  0  0  0
   -1.6429    0.9192    0.6521 H   0  0  0  0  0  0  0  0  0  0  0  0
   -1.2175    0.9829   -1.0419 H   0  0  0  0  0  0  0  0  0  0  0  0
   -0.1588   -1.2850    1.1114 H   0  0  0  0  0  0  0  0  0  0  0  0
    0.7400   -0.0894    0.2306 H   0  0  0  0  0  0  0  0  0  0  0  0
   -0.0298   -1.5065   -0.6522 H   0  0  0  0  0  0  0  0  0  0  0  0
  1  8  1  0  0  0  0
  1  3  1  0  0  0  0
  1  5  1  0  0  0  0
  6  2  1  0  0  0  0
  6  9  1  0  0  0  0
  6 10  1  0  0  0  0
  7  2  1  0  0  0  0
  9 13  1  0  0  0  0
  9 12  1  0  0  0  0
 11  6  1  0  0  0  0
 14  9  1  0  0  0  0
M  RAD  3   1   2   2   3   4   2
M  END
$$$$
