butane_opt
 OpenBabel08242015403D

 14 13  0  0  0  0  0  0  0  0999 V2000
   -3.9017    0.2706    0.0302 C   0  0  0  0  0  0  0  0  0  0  0  0
   -2.7655   -0.6472   -0.0438 C   0  0  0  0  0  0  0  0  0  0  0  0
   -4.6804   -0.3467    0.9028 H   0  0  0  0  0  0  0  0  0  0  0  0
   -4.2783    1.0135   -1.0138 H   0  0  0  0  0  0  0  0  0  0  0  0
   -3.6439    0.6316    0.6197 H   0  0  0  0  0  0  0  0  0  0  0  0
   -1.4367    0.2747    0.0166 C   0  0  0  0  0  0  0  0  0  0  0  0
   -2.9167   -1.4159   -1.0279 H   0  0  0  0  0  0  0  0  0  0  0  0
   -2.7586   -0.9711    0.7662 H   0  0  0  0  0  0  0  0  0  0  0  0
   -0.1320   -0.7583    0.0855 C   0  0  0  0  0  0  0  0  0  0  0  0
   -1.2857    0.7720    0.7223 H   0  0  0  0  0  0  0  0  0  0  0  0
   -1.4098    0.9279   -0.8991 H   0  0  0  0  0  0  0  0  0  0  0  0
   -0.1152   -1.1694    0.8631 H   0  0  0  0  0  0  0  0  0  0  0  0
    0.8656   -0.1418    0.2036 H   0  0  0  0  0  0  0  0  0  0  0  0
    0.0262   -1.4276   -0.7649 H   0  0  0  0  0  0  0  0  0  0  0  0
  1  5  1  0  0  0  0
  1  3  1  0  0  0  0
  2  6  1  0  0  0  0
  2  1  1  0  0  0  0
  2  8  1  0  0  0  0
  4  1  1  0  0  0  0
  6  9  1  0  0  0  0
  6 10  1  0  0  0  0
  7  2  1  0  0  0  0
  9 13  1  0  0  0  0
  9 12  1  0  0  0  0
 11  6  1  0  0  0  0
 14  9  1  0  0  0  0
M  END
$$$$
