butane_opt
 OpenBabel08242015403D

 14 13  0  0  0  0  0  0  0  0999 V2000
   -3.9191    0.3167    0.2107 C   0  0  0  0  0  0  0  0  0  0  0  0
   -2.6452   -0.7168   -0.1155 C   0  0  0  0  0  0  0  0  0  0  0  0
   -4.7322   -0.1737    0.2328 H   0  0  0  0  0  0  0  0  0  0  0  0
   -4.2149    0.7026   -0.5025 H   0  0  0  0  0  0  0  0  0  0  0  0
   -4.2176    1.2812    1.1763 H   0  0  0  0  0  0  0  0  0  0  0  0
   -1.4267    0.1689   -0.2624 C   0  0  0  0  0  0  0  0  0  0  0  0
   -2.8333   -1.5610   -1.0992 H   0  0  0  0  0  0  0  0  0  0  0  0
   -2.3843   -1.2769    0.6661 H   0  0  0  0  0  0  0  0  0  0  0  0
   -0.1937   -0.6479    0.2081 C   0  0  0  0  0  0  0  0  0  0  0  0
   -1.5643    0.8707    0.6046 H   0  0  0  0  0  0  0  0  0  0  0  0
   -1.0954    0.7107   -1.3154 H   0  0  0  0  0  0  0  0  0  0  0  0
   -0.6399   -1.4063    1.3019 H   0  0  0  0  0  0  0  0  0  0  0  0
    0.8344    0.2906    0.5223 H   0  0  0  0  0  0  0  0  0  0  0  0
    0.0230   -1.3413   -0.6009 H   0  0  0  0  0  0  0  0  0  0  0  0
  1  3  1  0  0  0  0
  1  5  1  0  0  0  0
  2  1  1  0  0  0  0
  2  8  1  0  0  0  0
  4  1  1  0  0  0  0
  6  2  1  0  0  0  0
  6  9  1  0  0  0  0
  6 10  1  0  0  0  0
  7  2  1  0  0  0  0
  9 13  1  0  0  0  0
  9 12  1  0  0  0  0
 11  6  1  0  0  0  0
 14  9  1  0  0  0  0
M  END
$$$$
