14
butane_opt
C  -3.994744   0.229605   0.113085
C  -2.742781  -0.552941   0.005486
H  -5.141197  -0.423864   0.231654
H  -3.840926   0.832597  -0.871528
H  -3.586315   0.705176   0.897251
C  -1.392134   0.292797  -0.134806
H  -2.988387  -1.139224  -0.903919
H  -2.765544  -1.323965   0.853151
C  -0.083432  -0.770276   0.073426
H  -1.522371   0.858460   0.541430
H  -1.191417   0.769254  -0.874454
H  -0.412750  -1.110874   0.811051
H   0.632403  -0.364126   0.936146
H   0.376475  -1.706732  -0.905882
