butane_opt
 OpenBabel08242015403D

 14 13  0  0  0  0  0  0  0  0999 V2000
   -3.9103    0.3096   -0.1299 C   0  0  0  0  0  0  0  0  0  0  0  0
   -2.6675   -0.6337    0.1571 C   0  0  0  0  0  0  0  0  0  0  0  0
   -4.8605   -0.2171    0.0895 H   0  0  0  0  0  0  0  0  0  0  0  0
   -3.9688    1.0937   -1.2322 H   0  0  0  0  0  0  0  0  0  0  0  0
   -4.3580    0.9365    0.7348 H   0  0  0  0  0  0  0  0  0  0  0  0
   -1.3851    0.1059    0.1912 C   0  0  0  0  0  0  0  0  0  0  0  0
   -2.5909   -1.2732   -0.7626 H   0  0  0  0  0  0  0  0  0  0  0  0
   -3.1078   -1.5344    1.1729 H   0  0  0  0  0  0  0  0  0  0  0  0
   -0.1743   -0.6533   -0.0808 C   0  0  0  0  0  0  0  0  0  0  0  0
   -1.2907    1.0168    1.1102 H   0  0  0  0  0  0  0  0  0  0  0  0
   -1.3276    0.4895   -0.4661 H   0  0  0  0  0  0  0  0  0  0  0  0
    0.0525   -1.3876    0.8417 H   0  0  0  0  0  0  0  0  0  0  0  0
    0.7980    0.1203   -0.5894 H   0  0  0  0  0  0  0  0  0  0  0  0
   -0.7047   -1.2366   -1.0799 H   0  0  0  0  0  0  0  0  0  0  0  0
  1  3  1  0  0  0  0
  1  2  1  0  0  0  0
  1  5  1  0  0  0  0
  2  6  1  0  0  0  0
  2  8  1  0  0  0  0
  4  1  1  0  0  0  0
  6 10  1  0  0  0  0
  7  2  1  0  0  0  0
  9  6  1  0  0  0  0
  9 12  1  0  0  0  0
 11  6  1  0  0  0  0
 13  9  1  0  0  0  0
 14  9  1  0  0  0  0
M  END
$$$$
