14
butane_opt
C  -3.939354   0.262713   0.009409
C  -2.720151  -0.606933   0.043490
H  -4.860821  -0.333012   0.130099
H  -3.999507   0.985730  -0.978726
H  -3.972779   0.800235   0.779503
C  -1.402898   0.186419   0.038419
H  -2.737374  -1.284933  -0.828176
H  -2.696752  -1.216754   0.900675
C  -0.148299  -0.699101   0.018387
H  -1.382258   0.879098   0.896659
H  -1.385017   0.788276  -0.824157
H  -0.115912  -1.302156   0.912179
H   0.792886  -0.095262  -0.025324
H  -0.136019  -1.406558  -0.857837
