butane_opt
 OpenBabel08242015403D

 14 12  0  0  0  0  0  0  0  0999 V2000
   -3.9736    0.2034    0.1199 C   0  0  0  0  0  0  0  0  0  0  0  0
   -2.7375   -0.5701   -0.0955 C   0  0  0  0  0  0  0  0  0  0  0  0
   -4.8788   -0.4409   -0.1172 H   0  0  0  0  0  0  0  0  0  0  0  0
   -3.7612    0.7803   -0.6995 H   0  0  0  0  0  0  0  0  0  0  0  0
   -3.8602    1.0671    1.0496 H   0  0  0  0  0  0  0  0  0  0  0  0
   -1.4051    0.2882   -0.0417 C   0  0  0  0  0  0  0  0  0  0  0  0
   -3.0679   -1.3990   -1.0974 H   0  0  0  0  0  0  0  0  0  0  0  0
   -2.7863   -1.0375    0.7310 H   0  0  0  0  0  0  0  0  0  0  0  0
   -0.1173   -0.7337    0.1400 C   0  0  0  0  0  0  0  0  0  0  0  0
   -1.3148    0.8174    0.6688 H   0  0  0  0  0  0  0  0  0  0  0  0
   -1.3899    0.9111   -0.7860 H   0  0  0  0  0  0  0  0  0  0  0  0
    0.4179   -1.9770    1.2430 H   0  0  0  0  0  0  0  0  0  0  0  0
    0.6327   -0.4423   -0.4647 H   0  0  0  0  0  0  0  0  0  0  0  0
   -0.2043   -1.0058   -0.4861 H   0  0  0  0  0  0  0  0  0  0  0  0
  1  5  1  0  0  0  0
  2  6  1  0  0  0  0
  2  1  1  0  0  0  0
  2  8  1  0  0  0  0
  3  1  1  0  0  0  0
  4  1  1  0  0  0  0
  6  9  1  0  0  0  0
  6 10  1  0  0  0  0
  7  2  1  0  0  0  0
 11  6  1  0  0  0  0
 13  9  1  0  0  0  0
 14  9  1  0  0  0  0
M  RAD  2   9   2  12   2
M  END
$$$$
