butane_opt
 OpenBabel08242015403D

 14 13  0  0  0  0  0  0  0  0999 V2000
   -3.8926    0.2356    0.1404 C   0  0  0  0  0  0  0  0  0  0  0  0
   -2.7204   -0.5690    0.0154 C   0  0  0  0  0  0  0  0  0  0  0  0
   -4.7464   -0.4171   -0.1247 H   0  0  0  0  0  0  0  0  0  0  0  0
   -3.8058    0.5914   -0.6954 H   0  0  0  0  0  0  0  0  0  0  0  0
   -3.6619    0.9394    1.0113 H   0  0  0  0  0  0  0  0  0  0  0  0
   -1.4426    0.2704   -0.1861 C   0  0  0  0  0  0  0  0  0  0  0  0
   -3.1124   -1.1779   -0.8290 H   0  0  0  0  0  0  0  0  0  0  0  0
   -2.7803   -1.2062    0.8701 H   0  0  0  0  0  0  0  0  0  0  0  0
   -0.1536   -0.7577    0.1192 C   0  0  0  0  0  0  0  0  0  0  0  0
   -1.7611    0.8865    0.5975 H   0  0  0  0  0  0  0  0  0  0  0  0
   -1.2412    0.8313   -1.2685 H   0  0  0  0  0  0  0  0  0  0  0  0
   -0.4683   -1.1159    0.8395 H   0  0  0  0  0  0  0  0  0  0  0  0
    0.7355   -0.1152    0.7755 H   0  0  0  0  0  0  0  0  0  0  0  0
    0.2925   -1.8281   -0.8526 H   0  0  0  0  0  0  0  0  0  0  0  0
  1  5  1  0  0  0  0
  2  1  1  0  0  0  0
  2  8  1  0  0  0  0
  3  1  1  0  0  0  0
  4  1  1  0  0  0  0
  6  2  1  0  0  0  0
  6  9  1  0  0  0  0
  6 10  1  0  0  0  0
  7  2  1  0  0  0  0
  9 13  1  0  0  0  0
  9 12  1  0  0  0  0
 11  6  1  0  0  0  0
 14  9  1  0  0  0  0
M  END
$$$$
