14
butane_opt
C  -3.932710   0.306812  -0.133183
C  -2.679758  -0.636575   0.167465
H  -4.907761  -0.221461  -0.325519
H  -3.862135   0.944311  -1.048114
H  -3.932744   0.899009   0.642082
C  -1.414069   0.120599   0.258819
H  -2.424596  -1.380590  -0.725357
H  -3.120892  -1.445972   1.232072
C  -0.120879  -0.658420  -0.130809
H  -1.368063   0.912208   1.043642
H  -1.709000   0.719723  -0.569213
H   0.019279  -1.497187   0.761291
H   0.765968   0.035520  -0.642634
H  -0.724332  -1.005141  -0.834924
