butane_opt
 OpenBabel08242015403D

 14  9  0  0  0  0  0  0  0  0999 V2000
   -3.9613    0.3202    0.1735 C   0  0  0  0  0  0  0  0  0  0  0  0
   -2.7023   -0.6713   -0.1016 C   0  0  0  0  0  0  0  0  0  0  0  0
   -4.7444   -0.1858    0.2428 H   0  0  0  0  0  0  0  0  0  0  0  0
   -4.3819    0.7282   -0.5986 H   0  0  0  0  0  0  0  0  0  0  0  0
   -4.0124    1.0828    1.1332 H   0  0  0  0  0  0  0  0  0  0  0  0
   -1.3418    0.1172   -0.1800 C   0  0  0  0  0  0  0  0  0  0  0  0
   -2.5667   -1.3600   -0.7598 H   0  0  0  0  0  0  0  0  0  0  0  0
   -2.5422   -1.1673    0.6928 H   0  0  0  0  0  0  0  0  0  0  0  0
   -0.2264   -0.6579    0.1680 C   0  0  0  0  0  0  0  0  0  0  0  0
   -1.2791    0.3022    0.3484 H   0  0  0  0  0  0  0  0  0  0  0  0
   -1.1734    1.2186   -1.4281 H   0  0  0  0  0  0  0  0  0  0  0  0
   -0.4461   -0.7030    0.8619 H   0  0  0  0  0  0  0  0  0  0  0  0
    0.7511   -0.0386    1.0625 H   0  0  0  0  0  0  0  0  0  0  0  0
    0.1477   -1.6489   -0.8279 H   0  0  0  0  0  0  0  0  0  0  0  0
  1  3  1  0  0  0  0
  1  5  1  0  0  0  0
  2  1  1  0  0  0  0
  2  8  1  0  0  0  0
  4  1  1  0  0  0  0
  6  2  1  0  0  0  0
  6  9  1  0  0  0  0
  7  2  1  0  0  0  0
  9 12  1  0  0  0  0
M  RAD  6   6   3   9   3  10   2  11   2  13   2  14   2
M  END
$$$$
