butane_opt
 OpenBabel08242015403D

 14  8  0  0  0  0  0  0  0  0999 V2000
   -3.9976    0.2934   -0.1105 C   0  0  0  0  0  0  0  0  0  0  0  0
   -2.7024   -0.6262    0.1523 C   0  0  0  0  0  0  0  0  0  0  0  0
   -4.9189   -0.1954    0.4016 H   0  0  0  0  0  0  0  0  0  0  0  0
   -4.3354    1.5861   -1.3090 H   0  0  0  0  0  0  0  0  0  0  0  0
   -3.8997    0.3569    0.3729 H   0  0  0  0  0  0  0  0  0  0  0  0
   -1.3640    0.1087    0.1900 C   0  0  0  0  0  0  0  0  0  0  0  0
   -2.3175   -1.4391   -0.6941 H   0  0  0  0  0  0  0  0  0  0  0  0
   -3.0619   -1.4732    1.2580 H   0  0  0  0  0  0  0  0  0  0  0  0
   -0.0904   -0.6163   -0.1099 C   0  0  0  0  0  1  0  0  0  0  0  0
   -1.4198    0.6635    1.1372 H   0  0  0  0  0  0  0  0  0  0  0  0
   -1.5556    0.7933   -0.7481 H   0  0  0  0  0  0  0  0  0  0  0  0
   -0.1757   -0.7536    0.4166 H   0  0  0  0  0  0  0  0  0  0  0  0
    0.6839   -0.0491    0.3624 H   0  0  0  0  0  0  0  0  0  0  0  0
   -0.1856   -1.8496   -1.3272 H   0  0  0  0  0  0  0  0  0  0  0  0
  1  2  1  0  0  0  0
  1  3  1  0  0  0  0
  2  8  1  0  0  0  0
  6 12  1  0  0  0  0
  6 10  1  0  0  0  0
  7  2  1  0  0  0  0
  9 13  1  0  0  0  0
 11  6  1  0  0  0  0
M  RAD  6   1   3   2   2   4   2   5   2   6   2  14   2
M  END
$$$$
