butane_opt
 OpenBabel08242015403D

 14 12  0  0  0  0  0  0  0  0999 V2000
   -3.9109    0.2432    0.1043 C   0  0  0  0  0  0  0  0  0  0  0  0
   -2.7612   -0.5847   -0.0622 C   0  0  0  0  0  0  0  0  0  0  0  0
   -5.1179   -0.5431    0.4212 H   0  0  0  0  0  0  0  0  0  0  0  0
   -4.0665    0.4526   -0.5706 H   0  0  0  0  0  0  0  0  0  0  0  0
   -3.6700    1.1095    1.0884 H   0  0  0  0  0  0  0  0  0  0  0  0
   -1.4030    0.2933   -0.1772 C   0  0  0  0  0  0  0  0  0  0  0  0
   -2.9742   -1.2189   -0.8561 H   0  0  0  0  0  0  0  0  0  0  0  0
   -2.6360   -1.4364    0.9979 H   0  0  0  0  0  0  0  0  0  0  0  0
   -0.1203   -0.7383    0.1594 C   0  0  0  0  0  0  0  0  0  0  0  0
   -1.5686    0.7738    0.4621 H   0  0  0  0  0  0  0  0  0  0  0  0
   -1.3325    1.2067   -1.1966 H   0  0  0  0  0  0  0  0  0  0  0  0
   -0.3049   -1.0731    0.9695 H   0  0  0  0  0  0  0  0  0  0  0  0
    0.5767   -0.4125    0.8883 H   0  0  0  0  0  0  0  0  0  0  0  0
    0.4404   -1.9718   -1.0619 H   0  0  0  0  0  0  0  0  0  0  0  0
  1  3  1  0  0  0  0
  1  5  1  0  0  0  0
  2  1  1  0  0  0  0
  2  8  1  0  0  0  0
  4  1  1  0  0  0  0
  6  2  1  0  0  0  0
  6  9  1  0  0  0  0
  6 10  1  0  0  0  0
  7  2  1  0  0  0  0
  9 13  1  0  0  0  0
  9 12  1  0  0  0  0
 11  6  1  0  0  0  0
M  RAD  2   9   2  14   2
M  END
$$$$
