butane_opt
 OpenBabel08242015403D

 14  9  0  0  0  0  0  0  0  0999 V2000
   -3.9310    0.1950    0.0723 C   0  0  0  0  0  1  0  0  0  0  0  0
   -2.7400   -0.5308    0.0322 C   0  0  0  0  0  0  0  0  0  0  0  0
   -4.8162   -0.2448   -0.5847 H   0  0  0  0  0  0  0  0  0  0  0  0
   -3.7622    0.2210   -0.3687 H   0  0  0  0  0  0  0  0  0  0  0  0
   -4.2474    1.4809    1.2668 H   0  0  0  0  0  0  0  0  0  0  0  0
   -1.4070    0.2708   -0.1092 C   0  0  0  0  0  0  0  0  0  0  0  0
   -2.9400   -1.0983   -0.7301 H   0  0  0  0  0  0  0  0  0  0  0  0
   -2.8515   -1.5926    1.0767 H   0  0  0  0  0  0  0  0  0  0  0  0
   -0.1377   -0.7688    0.0679 C   0  0  0  0  0  0  0  0  0  0  0  0
   -1.5938    0.8409    0.6187 H   0  0  0  0  0  0  0  0  0  0  0  0
   -1.0445    0.8509   -1.0368 H   0  0  0  0  0  0  0  0  0  0  0  0
    0.0671   -1.4741    0.8965 H   0  0  0  0  0  0  0  0  0  0  0  0
    0.7116   -0.1633    0.2295 H   0  0  0  0  0  0  0  0  0  0  0  0
    0.0571   -1.2864   -0.6193 H   0  0  0  0  0  0  0  0  0  0  0  0
  3  1  1  0  0  0  0
  4  2  1  0  0  0  0
  6  9  1  0  0  0  0
  6 10  1  0  0  0  0
  7  2  1  0  0  0  0
  9 13  1  0  0  0  0
  9 12  1  0  0  0  0
 11  6  1  0  0  0  0
 14  9  1  0  0  0  0
M  RAD  4   2   3   5   2   6   2   8   2
M  END
$$$$
