14
butane_opt
C  -3.928542   0.205383  -0.046299
C  -2.750926  -0.595762   0.114809
H  -4.747229  -0.397266   0.173488
H  -4.045472   1.370031  -1.243124
H  -3.982505   0.280058   0.334378
C  -1.442776   0.324335   0.099392
H  -2.806295  -1.035279  -0.583068
H  -2.779238  -1.538177   1.163711
C  -0.088738  -0.779764  -0.086030
H  -1.305077   1.255406   1.070209
H  -1.678005   0.604797  -0.437726
H  -0.044211  -0.876220   0.599995
H   0.712017  -0.210322   0.299353
H   0.208544  -1.785165  -1.039748
