14
butane_opt
C  -3.935504   0.332868   0.218836
C  -2.675870  -0.711921  -0.261235
H  -4.842797  -0.159238   0.606579
H  -4.432165   1.249932  -0.828913
H  -3.329508   0.845729   1.195392
C  -1.358355   0.140035  -0.187338
H  -2.838378  -1.367431  -1.123513
H  -2.441232  -1.332731   0.597547
C  -0.254358  -0.609443   0.258737
H  -1.502619   0.670089   0.706310
H  -1.323573   0.582659  -0.986728
H  -0.304785  -1.432326   1.242125
H   0.725251  -0.054050   0.189077
H  -0.107006  -1.215172  -0.540228
