14
butane_opt
C  -3.875951   0.317760   0.187141
C  -2.645776  -0.708714  -0.105499
H  -4.832794  -0.138404  -0.231512
H  -4.101412   0.591889  -0.436934
H  -4.220502   1.458529   1.342173
C  -1.411272   0.116101  -0.142334
H  -2.753426  -1.473865  -1.127445
H  -2.585577  -1.072148   0.669552
C  -0.253466  -0.668659   0.189099
H  -1.528742   0.684453   0.471589
H  -0.884812   1.130854  -1.472276
H  -0.281702  -1.562220   1.241587
H   0.953131   0.170562   0.111875
H  -0.531313  -0.963393  -0.576159
