14
butane_opt
C  -3.944321   0.240302  -0.124787
C  -2.770513  -0.619277   0.118551
H  -4.930055  -0.296706   0.999952
H  -4.254362   1.461214  -1.394139
H  -3.496104   0.105886   0.307414
C  -1.394044   0.293861   0.200557
H  -2.531653  -1.318244  -0.783642
H  -2.822404  -1.040538   0.770107
C  -0.163068  -0.762828  -0.052542
H  -1.326828   0.925375   1.142691
H  -1.235975   0.847777  -0.729189
H   0.096496  -0.973589   0.456770
H   0.645690  -0.304895  -0.006906
H   0.090436  -1.697094  -1.132452
