butane_opt
 OpenBabel08242015403D

 14  8  0  0  0  0  0  0  0  0999 V2000
   -3.8940    0.2176   -0.0728 C   0  0  0  0  0  0  0  0  0  0  0  0
   -2.6713   -0.5016    0.1228 C   0  0  0  0  0  0  0  0  0  0  0  0
   -4.8828   -0.5029    0.1140 H   0  0  0  0  0  0  0  0  0  0  0  0
   -3.8772    1.2122   -1.3508 H   0  0  0  0  0  0  0  0  0  0  0  0
   -3.8226    0.3659    0.5205 H   0  0  0  0  0  0  0  0  0  0  0  0
   -1.4499    0.1990    0.1334 C   0  0  0  0  0  0  0  0  0  0  0  0
   -2.5872   -1.0769   -0.5249 H   0  0  0  0  0  0  0  0  0  0  0  0
   -2.6688   -1.5864    1.4100 H   0  0  0  0  0  0  0  0  0  0  0  0
   -0.2278   -0.7372   -0.0663 C   0  0  0  0  0  0  0  0  0  0  0  0
   -1.3452    0.8763    1.0712 H   0  0  0  0  0  0  0  0  0  0  0  0
   -1.5434    0.8481   -0.7833 H   0  0  0  0  0  0  0  0  0  0  0  0
   -0.0266   -0.5803    0.3377 H   0  0  0  0  0  0  0  0  0  0  0  0
    0.7415   -0.1058    0.3709 H   0  0  0  0  0  0  0  0  0  0  0  0
   -0.0814   -2.0386   -1.2671 H   0  0  0  0  0  0  0  0  0  0  0  0
  1  3  1  0  0  0  0
  1  2  1  0  0  0  0
  2  6  1  0  0  0  0
  6 10  1  0  0  0  0
  7  2  1  0  0  0  0
  9  6  1  0  0  0  0
  9 13  1  0  0  0  0
 11  6  1  0  0  0  0
M  RAD  8   1   3   2   2   4   2   5   2   8   2   9   3  12   2  14   2
M  END
$$$$
