butane_opt
 OpenBabel08242015403D

 14 13  0  0  0  0  0  0  0  0999 V2000
   -4.0383    0.3706   -0.0943 C   0  0  0  0  0  0  0  0  0  0  0  0
   -2.7222   -0.7211    0.1487 C   0  0  0  0  0  0  0  0  0  0  0  0
   -4.9184   -0.2075    0.0984 H   0  0  0  0  0  0  0  0  0  0  0  0
   -3.8396    0.9398   -0.9834 H   0  0  0  0  0  0  0  0  0  0  0  0
   -4.2329    0.9939    0.7255 H   0  0  0  0  0  0  0  0  0  0  0  0
   -1.3122    0.1219    0.1286 C   0  0  0  0  0  0  0  0  0  0  0  0
   -2.5665   -1.4280   -0.7250 H   0  0  0  0  0  0  0  0  0  0  0  0
   -2.7447   -1.3652    0.9745 H   0  0  0  0  0  0  0  0  0  0  0  0
   -0.1366   -0.6042   -0.0525 C   0  0  0  0  0  0  0  0  0  0  0  0
   -1.4793    0.7487    0.9977 H   0  0  0  0  0  0  0  0  0  0  0  0
   -1.1515    0.7357   -0.7962 H   0  0  0  0  0  0  0  0  0  0  0  0
    0.0171   -1.3156    0.9314 H   0  0  0  0  0  0  0  0  0  0  0  0
    0.8687    0.0397   -0.2890 H   0  0  0  0  0  0  0  0  0  0  0  0
   -0.5259   -1.5800   -1.0624 H   0  0  0  0  0  0  0  0  0  0  0  0
  1  3  1  0  0  0  0
  1  2  1  0  0  0  0
  1  5  1  0  0  0  0
  2  8  1  0  0  0  0
  4  1  1  0  0  0  0
  6  2  1  0  0  0  0
  6 10  1  0  0  0  0
  7  2  1  0  0  0  0
  9  6  1  0  0  0  0
  9 12  1  0  0  0  0
 11  6  1  0  0  0  0
 13  9  1  0  0  0  0
 14  9  1  0  0  0  0
M  END
$$$$
