butane_opt
 OpenBabel08242015403D

 14 11  0  0  0  0  0  0  0  0999 V2000
   -3.9541    0.2927    0.1073 C   0  0  0  0  0  0  0  0  0  0  0  0
   -2.7392   -0.6455   -0.1193 C   0  0  0  0  0  0  0  0  0  0  0  0
   -4.5680   -0.0079    0.9378 H   0  0  0  0  0  0  0  0  0  0  0  0
   -4.3340    1.2743   -1.0681 H   0  0  0  0  0  0  0  0  0  0  0  0
   -3.8175    0.3944    0.7078 H   0  0  0  0  0  0  0  0  0  0  0  0
   -1.3971    0.1836   -0.0275 C   0  0  0  0  0  0  0  0  0  0  0  0
   -2.9217   -1.6125   -1.1676 H   0  0  0  0  0  0  0  0  0  0  0  0
   -2.7734   -1.1379    0.6123 H   0  0  0  0  0  0  0  0  0  0  0  0
   -0.1451   -0.6766    0.1155 C   0  0  0  0  0  0  0  0  0  0  0  0
   -1.0934    0.8825    0.8648 H   0  0  0  0  0  0  0  0  0  0  0  0
   -1.3918    0.6719   -0.9999 H   0  0  0  0  0  0  0  0  0  0  0  0
   -0.2020   -1.3679    1.1209 H   0  0  0  0  0  0  0  0  0  0  0  0
    0.7808   -0.0728    0.2225 H   0  0  0  0  0  0  0  0  0  0  0  0
    0.0643   -1.2632   -0.6932 H   0  0  0  0  0  0  0  0  0  0  0  0
  1  3  1  0  0  0  0
  2  6  1  0  0  0  0
  2  1  1  0  0  0  0
  2  8  1  0  0  0  0
  6  9  1  0  0  0  0
  6 10  1  0  0  0  0
  7  2  1  0  0  0  0
  9 13  1  0  0  0  0
  9 12  1  0  0  0  0
 11  6  1  0  0  0  0
 14  9  1  0  0  0  0
M  RAD  3   1   3   4   2   5   2
M  END
$$$$
