14
butane_opt
C  -3.983638   0.307273  -0.120292
C  -2.702881  -0.713191   0.146019
H  -4.761637  -0.161294  -0.032354
H  -4.330269   1.322594  -1.223078
H  -4.389340   0.898915   0.712531
C  -1.334993   0.120741   0.214117
H  -2.518449  -1.304721  -0.777969
H  -2.796334  -1.368988   1.094559
C  -0.158554  -0.623044  -0.147421
H  -1.281803   1.155813   1.355816
H  -1.360239   0.496254  -0.483204
H   0.045557  -1.685856   0.915345
H   0.870421   0.043300  -0.522601
H  -0.330805  -0.927868  -0.703846
