14
butane_opt
C  -3.939652   0.282602   0.173799
C  -2.721091  -0.615382  -0.087571
H  -4.916831  -0.258951   0.006822
H  -3.969418   0.496380  -0.493589
H  -3.905555   1.122009   1.263844
C  -1.396804   0.205204  -0.176489
H  -2.953217  -1.610434  -1.186043
H  -2.772072  -1.228420   0.785199
C  -0.128688  -0.681604   0.179377
H  -1.374175   0.589649   0.441080
H  -1.221727   1.170939  -1.192598
H  -0.493687  -1.416592   1.146440
H   0.455906  -0.365550   0.335888
H   0.374780  -1.296866  -0.706462
