butane_opt
 OpenBabel08242015403D

 14 12  0  0  0  0  0  0  0  0999 V2000
   -3.9152    0.1983   -0.1127 C   0  0  0  0  0  0  0  0  0  0  0  0
   -2.7710   -0.5590    0.1578 C   0  0  0  0  0  0  0  0  0  0  0  0
   -4.8052   -0.2265   -0.1524 H   0  0  0  0  0  0  0  0  0  0  0  0
   -3.9561    0.9175   -1.0024 H   0  0  0  0  0  0  0  0  0  0  0  0
   -4.3666    0.7772    0.6125 H   0  0  0  0  0  0  0  0  0  0  0  0
   -1.3802    0.2753    0.1343 C   0  0  0  0  0  0  0  0  0  0  0  0
   -2.6545   -1.2671   -0.5841 H   0  0  0  0  0  0  0  0  0  0  0  0
   -2.8475   -1.2862    1.0681 H   0  0  0  0  0  0  0  0  0  0  0  0
   -0.1183   -0.7524   -0.0976 C   0  0  0  0  0  0  0  0  0  0  0  0
   -1.3308    1.1716    1.2792 H   0  0  0  0  0  0  0  0  0  0  0  0
   -1.5092    0.4492   -0.3577 H   0  0  0  0  0  0  0  0  0  0  0  0
    0.4307   -1.6421    0.8655 H   0  0  0  0  0  0  0  0  0  0  0  0
    0.6911   -0.2061   -0.5262 H   0  0  0  0  0  0  0  0  0  0  0  0
   -0.4204   -1.0923   -0.7177 H   0  0  0  0  0  0  0  0  0  0  0  0
  1  2  1  0  0  0  0
  1  5  1  0  0  0  0
  2  8  1  0  0  0  0
  3  1  1  0  0  0  0
  4  1  1  0  0  0  0
  6  2  1  0  0  0  0
  6 10  1  0  0  0  0
  7  2  1  0  0  0  0
  9  6  1  0  0  0  0
  9 12  1  0  0  0  0
 13  9  1  0  0  0  0
 14  9  1  0  0  0  0
M  RAD  2   6   2  11   2
M  END
$$$$
