14
butane_opt
C  -3.862829   0.256480  -0.162982
C  -2.717200  -0.538429   0.222300
H  -5.113277  -0.603575  -0.080006
H  -3.527781   0.940230  -1.157668
H  -4.097470   0.698720   0.695223
C  -1.453921   0.199345   0.203992
H  -2.565921  -1.169353  -0.684415
H  -2.818976  -1.317636   1.259512
C  -0.188044  -0.734252  -0.121576
H  -1.312557   0.939742   1.158314
H  -1.264638   0.774105  -0.695085
H   0.227256  -1.175489   0.567747
H   0.730093  -0.239042  -0.280528
H  -0.565213  -1.544652  -1.058127
