14
butane_opt
C  -4.023994   0.259861   0.183027
C  -2.744491  -0.623811  -0.013657
H  -4.759377  -0.149205  -0.878078
H  -3.748063   0.376586  -0.440031
H  -4.333503   1.670876   1.488528
C  -1.317538   0.140902  -0.171409
H  -2.904839  -1.312881  -0.851246
H  -2.763652  -1.009843   0.544686
C  -0.097020  -0.688518   0.163826
H  -1.390135   0.494138   0.422651
H  -1.428689   1.043795  -1.310889
H  -0.240890  -1.603969   1.201083
H   0.791452   0.079146   0.013448
H  -0.077134  -1.116340  -0.589470
