butane_opt
 OpenBabel08242015403D

 14  9  0  0  0  0  0  0  0  0999 V2000
   -3.9178    0.3586    0.1633 C   0  0  0  0  0  0  0  0  0  0  0  0
   -2.6864   -0.6877   -0.1569 C   0  0  0  0  0  0  0  0  0  0  0  0
   -4.8048   -0.1875   -0.3024 H   0  0  0  0  0  0  0  0  0  0  0  0
   -4.0270    0.5034   -0.4723 H   0  0  0  0  0  0  0  0  0  0  0  0
   -3.8645    1.2083    1.1385 H   0  0  0  0  0  0  0  0  0  0  0  0
   -1.3974    0.1131   -0.0748 C   0  0  0  0  0  0  0  0  0  0  0  0
   -2.8551   -1.3129   -1.0263 H   0  0  0  0  0  0  0  0  0  0  0  0
   -2.7388   -1.2945    0.7237 H   0  0  0  0  0  0  0  0  0  0  0  0
   -0.2070   -0.6750    0.1549 C   0  0  0  0  0 15  0  0  0  0  0  0
   -1.5806    0.8535    0.7783 H   0  0  0  0  0  0  0  0  0  0  0  0
   -1.1955    0.7224   -0.8177 H   0  0  0  0  0  0  0  0  0  0  0  0
   -0.0703   -1.9543    1.4681 H   0  0  0  0  0  0  0  0  0  0  0  0
    0.9465    0.2803   -0.7033 H   0  0  0  0  0  0  0  0  0  0  0  0
   -0.4001   -0.5563   -0.3205 H   0  0  0  0  0  0  0  0  0  0  0  0
  1  5  1  0  0  0  0
  2  1  1  0  0  0  0
  2  8  1  0  0  0  0
  3  1  1  0  0  0  0
  4  1  1  0  0  0  0
  6 10  1  0  0  0  0
  7  2  1  0  0  0  0
 11  6  1  0  0  0  0
 14  6  1  0  0  0  0
M  RAD  4   2   2   6   2  12   2  13   2
M  END
$$$$
