butane_opt
 OpenBabel08242015403D

 14 13  0  0  0  0  0  0  0  0999 V2000
   -3.8916    0.3196   -0.0526 C   0  0  0  0  0  0  0  0  0  0  0  0
   -2.6762   -0.6838    0.0372 C   0  0  0  0  0  0  0  0  0  0  0  0
   -4.8181   -0.3583   -0.1104 H   0  0  0  0  0  0  0  0  0  0  0  0
   -3.9060    0.8824   -0.8509 H   0  0  0  0  0  0  0  0  0  0  0  0
   -4.1180    0.9993    0.7184 H   0  0  0  0  0  0  0  0  0  0  0  0
   -1.4404    0.1463    0.1423 C   0  0  0  0  0  0  0  0  0  0  0  0
   -2.3653   -1.1986   -0.6593 H   0  0  0  0  0  0  0  0  0  0  0  0
   -2.4985   -1.6238    1.1432 H   0  0  0  0  0  0  0  0  0  0  0  0
   -0.2561   -0.6205   -0.0192 C   0  0  0  0  0  0  0  0  0  0  0  0
   -1.1827    1.1256    1.0955 H   0  0  0  0  0  0  0  0  0  0  0  0
   -1.4140    0.6514   -0.6483 H   0  0  0  0  0  0  0  0  0  0  0  0
    0.0361   -1.6219    1.0072 H   0  0  0  0  0  0  0  0  0  0  0  0
    0.8126   -0.0316   -0.7028 H   0  0  0  0  0  0  0  0  0  0  0  0
   -0.4193   -1.2207   -0.8264 H   0  0  0  0  0  0  0  0  0  0  0  0
  1  2  1  0  0  0  0
  1  5  1  0  0  0  0
  2  6  1  0  0  0  0
  2  8  1  0  0  0  0
  3  1  1  0  0  0  0
  4  1  1  0  0  0  0
  6 10  1  0  0  0  0
  7  2  1  0  0  0  0
  9  6  1  0  0  0  0
  9 12  1  0  0  0  0
 11  6  1  0  0  0  0
 13  9  1  0  0  0  0
 14  9  1  0  0  0  0
M  END
$$$$
