14
butane_opt
C  -3.879941   0.273166  -0.000568
C  -2.654677  -0.627243   0.108594
H  -4.611256  -0.180649  -0.424444
H  -3.510249   0.714605  -0.903636
H  -4.481951   1.032605   0.828755
C  -1.414514   0.123015   0.056365
H  -2.948747  -1.245724  -0.818477
H  -2.750934  -1.165522   1.014282
C  -0.197638  -0.671970  -0.023032
H  -1.193695   0.848760   1.098959
H  -1.565396   1.024767  -0.918893
H  -0.225973  -1.358740   0.937195
H   0.560162  -0.067345  -0.228045
H  -0.521002  -1.267580  -0.805740
