14
butane_opt
C  -3.853854   0.231329   0.137446
C  -2.674612  -0.596474   0.002892
H  -4.633133  -0.198003  -0.662564
H  -3.567471   0.267415  -0.383402
H  -4.225250   1.526753   1.380978
C  -1.513345   0.199209  -0.125238
H  -2.587785  -1.676975  -1.115230
H  -2.834498  -1.013179   0.803605
C  -0.176232  -0.679165   0.106131
H  -1.404820   0.559343   0.405547
H  -1.513861   0.942675  -1.134276
H  -0.164775  -1.665310   1.375943
H   0.763024  -0.217974  -0.134308
H  -0.239005  -0.835430  -0.393552
