butane_opt
 OpenBabel08242015403D

 14 12  0  0  0  0  0  0  0  0999 V2000
   -3.9258    0.3111    0.1979 C   0  0  0  0  0  0  0  0  0  0  0  0
   -2.6420   -0.6632   -0.1990 C   0  0  0  0  0  0  0  0  0  0  0  0
   -4.8651   -0.1967    0.2965 H   0  0  0  0  0  0  0  0  0  0  0  0
   -4.4334    1.1128   -0.6781 H   0  0  0  0  0  0  0  0  0  0  0  0
   -3.6898    0.9213    0.9893 H   0  0  0  0  0  0  0  0  0  0  0  0
   -1.3365    0.1087   -0.1199 C   0  0  0  0  0  0  0  0  0  0  0  0
   -2.7671   -1.3957   -1.1564 H   0  0  0  0  0  0  0  0  0  0  0  0
   -2.4654   -1.3043    0.5362 H   0  0  0  0  0  0  0  0  0  0  0  0
   -0.2617   -0.6063    0.1660 C   0  0  0  0  0  0  0  0  0  0  0  0
   -1.3248    0.7473    0.6736 H   0  0  0  0  0  0  0  0  0  0  0  0
   -1.4653    0.6224   -0.8374 H   0  0  0  0  0  0  0  0  0  0  0  0
   -0.5091   -1.6701    1.5744 H   0  0  0  0  0  0  0  0  0  0  0  0
    0.6326   -0.0879    0.0025 H   0  0  0  0  0  0  0  0  0  0  0  0
   -0.1489   -1.0170   -0.4894 H   0  0  0  0  0  0  0  0  0  0  0  0
  1  3  1  0  0  0  0
  1  5  1  0  0  0  0
  2  6  1  0  0  0  0
  2  1  1  0  0  0  0
  2  8  1  0  0  0  0
  4  1  1  0  0  0  0
  6  9  1  0  0  0  0
  6 10  1  0  0  0  0
  7  2  1  0  0  0  0
 11  6  1  0  0  0  0
 13  9  1  0  0  0  0
 14  9  1  0  0  0  0
M  RAD  2   9   2  12   2
M  END
$$$$
