butane_opt
 OpenBabel08242015403D

 14 13  0  0  0  0  0  0  0  0999 V2000
   -3.9642    0.2724   -0.0089 C   0  0  0  0  0  0  0  0  0  0  0  0
   -2.7009   -0.6350    0.0691 C   0  0  0  0  0  0  0  0  0  0  0  0
   -4.8206   -0.2741    0.0323 H   0  0  0  0  0  0  0  0  0  0  0  0
   -3.9555    0.9567   -0.9359 H   0  0  0  0  0  0  0  0  0  0  0  0
   -4.0068    0.8764    0.8044 H   0  0  0  0  0  0  0  0  0  0  0  0
   -1.3931    0.1846    0.0411 C   0  0  0  0  0  0  0  0  0  0  0  0
   -2.6659   -1.3043   -0.7818 H   0  0  0  0  0  0  0  0  0  0  0  0
   -2.7008   -1.3007    1.0117 H   0  0  0  0  0  0  0  0  0  0  0  0
   -0.1579   -0.6871    0.0038 C   0  0  0  0  0  0  0  0  0  0  0  0
   -1.3042    0.8851    0.9051 H   0  0  0  0  0  0  0  0  0  0  0  0
   -1.4428    0.8087   -0.8491 H   0  0  0  0  0  0  0  0  0  0  0  0
   -0.1834   -1.2256    0.8509 H   0  0  0  0  0  0  0  0  0  0  0  0
    0.7500   -0.0736    0.0389 H   0  0  0  0  0  0  0  0  0  0  0  0
   -0.1057   -1.4370   -0.9128 H   0  0  0  0  0  0  0  0  0  0  0  0
  1  3  1  0  0  0  0
  1  2  1  0  0  0  0
  1  5  1  0  0  0  0
  2  8  1  0  0  0  0
  4  1  1  0  0  0  0
  6  2  1  0  0  0  0
  6 10  1  0  0  0  0
  7  2  1  0  0  0  0
  9 13  1  0  0  0  0
  9  6  1  0  0  0  0
  9 12  1  0  0  0  0
 11  6  1  0  0  0  0
 14  9  1  0  0  0  0
M  END
$$$$
