14
butane_opt
C  -4.038665   0.301979   0.099631
C  -2.721278  -0.685224  -0.060733
H  -4.749506  -0.169311   0.673343
H  -4.420483   1.526594  -1.103824
H  -4.099224   0.710908   0.673867
C  -1.323062   0.112439  -0.043513
H  -2.814882  -1.577276  -1.014610
H  -2.474238  -0.871630   0.558890
C  -0.144000  -0.668104   0.123188
H  -1.428059   0.931988   0.960250
H  -1.024941   0.551959  -0.937479
H  -0.289898  -1.325961   0.994653
H   1.007325   0.272733  -0.108020
H  -0.031103  -1.203710  -0.749818
