butane_opt
 OpenBabel08242015403D

 14 12  0  0  0  0  0  0  0  0999 V2000
   -3.8937    0.2315    0.1870 C   0  0  0  0  0  0  0  0  0  0  0  0
   -2.6988   -0.5445   -0.2036 C   0  0  0  0  0  0  0  0  0  0  0  0
   -5.0201   -0.6897    0.6298 H   0  0  0  0  0  0  0  0  0  0  0  0
   -4.2469    0.9592   -0.6338 H   0  0  0  0  0  0  0  0  0  0  0  0
   -3.0959    0.6060    0.8954 H   0  0  0  0  0  0  0  0  0  0  0  0
   -1.4557    0.2125   -0.1514 C   0  0  0  0  0  0  0  0  0  0  0  0
   -2.6352   -1.1710   -0.9984 H   0  0  0  0  0  0  0  0  0  0  0  0
   -2.6508   -1.0194    0.6945 H   0  0  0  0  0  0  0  0  0  0  0  0
   -0.1910   -0.7485    0.1845 C   0  0  0  0  0  0  0  0  0  0  0  0
   -1.8047    0.9031    0.6710 H   0  0  0  0  0  0  0  0  0  0  0  0
   -1.4449    0.8540   -1.0309 H   0  0  0  0  0  0  0  0  0  0  0  0
   -0.3079   -1.3635    1.1155 H   0  0  0  0  0  0  0  0  0  0  0  0
    0.6758   -0.1021    0.4051 H   0  0  0  0  0  0  0  0  0  0  0  0
    0.3639   -1.2910   -0.5486 H   0  0  0  0  0  0  0  0  0  0  0  0
  1  5  1  0  0  0  0
  2  6  1  0  0  0  0
  2  1  1  0  0  0  0
  2  8  1  0  0  0  0
  4  1  1  0  0  0  0
  6  9  1  0  0  0  0
  6 10  1  0  0  0  0
  7  2  1  0  0  0  0
  9 13  1  0  0  0  0
  9 12  1  0  0  0  0
 11  6  1  0  0  0  0
 14  9  1  0  0  0  0
M  RAD  2   1   2   3   2
M  END
$$$$
