butane_opt
 OpenBabel08242015403D

 14 11  0  0  0  0  0  0  0  0999 V2000
   -3.9543    0.2270    0.1207 C   0  0  0  0  0  0  0  0  0  0  0  0
   -2.7648   -0.5346   -0.1341 C   0  0  0  0  0  0  0  0  0  0  0  0
   -4.8439   -0.4574    0.1540 H   0  0  0  0  0  0  0  0  0  0  0  0
   -4.1188    0.4182   -0.6247 H   0  0  0  0  0  0  0  0  0  0  0  0
   -3.8252    0.9776    1.0022 H   0  0  0  0  0  0  0  0  0  0  0  0
   -1.3832    0.2674   -0.0072 C   0  0  0  0  0  0  0  0  0  0  0  0
   -2.6522   -1.3975   -1.0863 H   0  0  0  0  0  0  0  0  0  0  0  0
   -2.7632   -0.8905    0.6416 H   0  0  0  0  0  0  0  0  0  0  0  0
   -0.1575   -0.7720    0.0822 C   0  0  0  0  0  0  0  0  0  0  0  0
   -1.3988    0.8794    0.8418 H   0  0  0  0  0  0  0  0  0  0  0  0
   -1.1435    0.8046   -0.9558 H   0  0  0  0  0  0  0  0  0  0  0  0
    0.2123   -2.2105    1.5841 H   0  0  0  0  0  0  0  0  0  0  0  0
    0.7532   -0.2630   -0.4725 H   0  0  0  0  0  0  0  0  0  0  0  0
   -0.1079   -0.5777   -0.2564 H   0  0  0  0  0  0  0  0  0  0  0  0
  1  3  1  0  0  0  0
  1  5  1  0  0  0  0
  2  6  1  0  0  0  0
  2  1  1  0  0  0  0
  2  8  1  0  0  0  0
  4  1  1  0  0  0  0
  6  9  1  0  0  0  0
  6 10  1  0  0  0  0
  7  2  1  0  0  0  0
 11  6  1  0  0  0  0
 13  9  1  0  0  0  0
M  RAD  3   9   3  12   2  14   2
M  END
$$$$
