butane_opt
 OpenBabel08242015403D

 14 13  0  0  0  0  0  0  0  0999 V2000
   -3.9499    0.2695    0.0431 C   0  0  0  0  0  0  0  0  0  0  0  0
   -2.6962   -0.6247    0.0212 C   0  0  0  0  0  0  0  0  0  0  0  0
   -4.8685   -0.2945    0.0573 H   0  0  0  0  0  0  0  0  0  0  0  0
   -4.0211    0.8985   -0.8641 H   0  0  0  0  0  0  0  0  0  0  0  0
   -3.9777    0.9802    0.9297 H   0  0  0  0  0  0  0  0  0  0  0  0
   -1.3894    0.1693   -0.0281 C   0  0  0  0  0  0  0  0  0  0  0  0
   -2.7225   -1.2749   -0.8213 H   0  0  0  0  0  0  0  0  0  0  0  0
   -2.7314   -1.2253    0.9269 H   0  0  0  0  0  0  0  0  0  0  0  0
   -0.1651   -0.6888    0.0486 C   0  0  0  0  0  0  0  0  0  0  0  0
   -1.3925    0.8460    0.8204 H   0  0  0  0  0  0  0  0  0  0  0  0
   -1.4011    0.7776   -0.9083 H   0  0  0  0  0  0  0  0  0  0  0  0
   -0.2215   -1.2805    0.9208 H   0  0  0  0  0  0  0  0  0  0  0  0
    0.7886   -0.0459    0.1739 H   0  0  0  0  0  0  0  0  0  0  0  0
   -0.0700   -1.3553   -0.8075 H   0  0  0  0  0  0  0  0  0  0  0  0
  1  3  1  0  0  0  0
  1  5  1  0  0  0  0
  2  1  1  0  0  0  0
  2  8  1  0  0  0  0
  4  1  1  0  0  0  0
  6  2  1  0  0  0  0
  6  9  1  0  0  0  0
  6 10  1  0  0  0  0
  7  2  1  0  0  0  0
  9 13  1  0  0  0  0
  9 12  1  0  0  0  0
 11  6  1  0  0  0  0
 14  9  1  0  0  0  0
M  END
$$$$
