butane_opt
 OpenBabel08242015403D

 14 13  0  0  0  0  0  0  0  0999 V2000
   -3.8791    0.2200   -0.1949 C   0  0  0  0  0  0  0  0  0  0  0  0
   -2.7276   -0.5067    0.2566 C   0  0  0  0  0  0  0  0  0  0  0  0
   -4.8992   -0.3765   -0.4264 H   0  0  0  0  0  0  0  0  0  0  0  0
   -3.5642    0.3368   -0.8198 H   0  0  0  0  0  0  0  0  0  0  0  0
   -3.9838    1.0778    0.8364 H   0  0  0  0  0  0  0  0  0  0  0  0
   -1.4762    0.1800    0.1695 C   0  0  0  0  0  0  0  0  0  0  0  0
   -2.4797   -1.0399   -0.4633 H   0  0  0  0  0  0  0  0  0  0  0  0
   -2.5966   -1.4552    1.3288 H   0  0  0  0  0  0  0  0  0  0  0  0
   -0.1654   -0.6832   -0.1256 C   0  0  0  0  0  0  0  0  0  0  0  0
   -1.2790    0.9156    1.1411 H   0  0  0  0  0  0  0  0  0  0  0  0
   -1.5705    0.7294   -0.7971 H   0  0  0  0  0  0  0  0  0  0  0  0
    0.0359   -1.2772    0.8029 H   0  0  0  0  0  0  0  0  0  0  0  0
    0.6319   -0.3033   -0.3702 H   0  0  0  0  0  0  0  0  0  0  0  0
   -0.3368   -1.6203   -1.0496 H   0  0  0  0  0  0  0  0  0  0  0  0
  1  2  1  0  0  0  0
  1  5  1  0  0  0  0
  2  8  1  0  0  0  0
  3  1  1  0  0  0  0
  4  1  1  0  0  0  0
  6  2  1  0  0  0  0
  6 10  1  0  0  0  0
  7  2  1  0  0  0  0
  9  6  1  0  0  0  0
  9 12  1  0  0  0  0
 11  6  1  0  0  0  0
 13  9  1  0  0  0  0
 14  9  1  0  0  0  0
M  END
$$$$
