butane_opt
 OpenBabel08242015403D

 14  9  0  0  0  0  0  0  0  0999 V2000
   -3.9443    0.2403   -0.1248 C   0  0  0  0  0  1  0  0  0  0  0  0
   -2.7705   -0.6193    0.1186 C   0  0  0  0  0  0  0  0  0  0  0  0
   -4.9301   -0.2967    1.0000 H   0  0  0  0  0  0  0  0  0  0  0  0
   -4.2544    1.4612   -1.3941 H   0  0  0  0  0  0  0  0  0  0  0  0
   -3.4961    0.1059    0.3074 H   0  0  0  0  0  0  0  0  0  0  0  0
   -1.3940    0.2939    0.2006 C   0  0  0  0  0  0  0  0  0  0  0  0
   -2.5317   -1.3182   -0.7836 H   0  0  0  0  0  0  0  0  0  0  0  0
   -2.8224   -1.0405    0.7701 H   0  0  0  0  0  0  0  0  0  0  0  0
   -0.1631   -0.7628   -0.0525 C   0  0  0  0  0  0  0  0  0  0  0  0
   -1.3268    0.9254    1.1427 H   0  0  0  0  0  0  0  0  0  0  0  0
   -1.2360    0.8478   -0.7292 H   0  0  0  0  0  0  0  0  0  0  0  0
    0.0965   -0.9736    0.4568 H   0  0  0  0  0  0  0  0  0  0  0  0
    0.6457   -0.3049   -0.0069 H   0  0  0  0  0  0  0  0  0  0  0  0
    0.0904   -1.6971   -1.1325 H   0  0  0  0  0  0  0  0  0  0  0  0
  1  5  1  0  0  0  0
  2  6  1  0  0  0  0
  2  8  1  0  0  0  0
  6 10  1  0  0  0  0
  7  2  1  0  0  0  0
  9 13  1  0  0  0  0
  9  6  1  0  0  0  0
 11  6  1  0  0  0  0
 14  9  1  0  0  0  0
M  RAD  5   2   2   3   2   4   2   9   2  12   2
M  END
$$$$
