butane_opt
 OpenBabel08242015403D

 14 12  0  0  0  0  0  0  0  0999 V2000
   -3.9751    0.2578   -0.0280 C   0  0  0  0  0  0  0  0  0  0  0  0
   -2.7673   -0.6764    0.1385 C   0  0  0  0  0  0  0  0  0  0  0  0
   -4.9074   -0.2014   -0.5882 H   0  0  0  0  0  0  0  0  0  0  0  0
   -3.3855    0.4912   -0.8660 H   0  0  0  0  0  0  0  0  0  0  0  0
   -4.3163    1.3834    1.0262 H   0  0  0  0  0  0  0  0  0  0  0  0
   -1.3629    0.2548    0.0257 C   0  0  0  0  0  0  0  0  0  0  0  0
   -2.7065   -1.1512   -0.4835 H   0  0  0  0  0  0  0  0  0  0  0  0
   -2.8357   -1.3821    1.1762 H   0  0  0  0  0  0  0  0  0  0  0  0
   -0.1313   -0.7126   -0.0508 C   0  0  0  0  0  0  0  0  0  0  0  0
   -1.3057    1.2312    1.1152 H   0  0  0  0  0  0  0  0  0  0  0  0
   -1.4894    0.7831   -0.8276 H   0  0  0  0  0  0  0  0  0  0  0  0
    0.0481   -1.6511    1.0462 H   0  0  0  0  0  0  0  0  0  0  0  0
    0.6664   -0.2139   -0.2112 H   0  0  0  0  0  0  0  0  0  0  0  0
    0.0102   -1.2713   -0.9004 H   0  0  0  0  0  0  0  0  0  0  0  0
  1  2  1  0  0  0  0
  2  8  1  0  0  0  0
  3  1  1  0  0  0  0
  4  1  1  0  0  0  0
  6  2  1  0  0  0  0
  6 10  1  0  0  0  0
  7  2  1  0  0  0  0
  9  6  1  0  0  0  0
  9 12  1  0  0  0  0
 11  6  1  0  0  0  0
 13  9  1  0  0  0  0
 14  9  1  0  0  0  0
M  RAD  2   1   2   5   2
M  END
$$$$
