14
butane_opt
C  -3.954063   0.292737   0.107302
C  -2.739213  -0.645527  -0.119287
H  -4.567957  -0.007906   0.937770
H  -4.333961   1.274299  -1.068083
H  -3.817544   0.394442   0.707776
C  -1.397052   0.183620  -0.027519
H  -2.921700  -1.612550  -1.167591
H  -2.773444  -1.137936   0.612283
C  -0.145116  -0.676607   0.115495
H  -1.093361   0.882539   0.864849
H  -1.391770   0.671948  -0.999906
H  -0.201975  -1.367864   1.120949
H   0.780849  -0.072766   0.222452
H   0.064327  -1.263226  -0.693249
