14
butane_opt
C  -3.993067   0.191926  -0.107619
C  -2.716964  -0.554997   0.247198
H  -4.991197  -0.526967  -0.018613
H  -3.823548   1.367692  -1.313004
H  -3.747007   0.600496   0.714347
C  -1.406705   0.267874   0.099203
H  -2.631820  -1.090332  -0.474107
H  -2.651120  -1.244978   1.159387
C  -0.131129  -0.748814  -0.116299
H  -1.288298   0.695392   0.875979
H  -1.492199   0.902187  -0.870959
H  -0.395499  -0.605205   0.209034
H   0.742843  -0.254054   0.915545
H   0.265419  -2.200815  -1.364847
