butane_opt
 OpenBabel08242015403D

 14 12  0  0  0  0  0  0  0  0999 V2000
   -4.0387    0.3020    0.0996 C   0  0  0  0  0  0  0  0  0  0  0  0
   -2.7213   -0.6852   -0.0607 C   0  0  0  0  0  0  0  0  0  0  0  0
   -4.7495   -0.1693    0.6733 H   0  0  0  0  0  0  0  0  0  0  0  0
   -4.4205    1.5266   -1.1038 H   0  0  0  0  0  0  0  0  0  0  0  0
   -4.0992    0.7109    0.6739 H   0  0  0  0  0  0  0  0  0  0  0  0
   -1.3231    0.1124   -0.0435 C   0  0  0  0  0  0  0  0  0  0  0  0
   -2.8149   -1.5773   -1.0146 H   0  0  0  0  0  0  0  0  0  0  0  0
   -2.4742   -0.8716    0.5589 H   0  0  0  0  0  0  0  0  0  0  0  0
   -0.1440   -0.6681    0.1232 C   0  0  0  0  0  0  0  0  0  0  0  0
   -1.4281    0.9320    0.9603 H   0  0  0  0  0  0  0  0  0  0  0  0
   -1.0249    0.5520   -0.9375 H   0  0  0  0  0  0  0  0  0  0  0  0
   -0.2899   -1.3260    0.9947 H   0  0  0  0  0  0  0  0  0  0  0  0
    1.0073    0.2727   -0.1080 H   0  0  0  0  0  0  0  0  0  0  0  0
   -0.0311   -1.2037   -0.7498 H   0  0  0  0  0  0  0  0  0  0  0  0
  1  3  1  0  0  0  0
  1  5  1  0  0  0  0
  2  6  1  0  0  0  0
  2  1  1  0  0  0  0
  2  8  1  0  0  0  0
  6  9  1  0  0  0  0
  6 10  1  0  0  0  0
  7  2  1  0  0  0  0
  9 12  1  0  0  0  0
 11  6  1  0  0  0  0
 13  9  1  0  0  0  0
 14  9  1  0  0  0  0
M  RAD  2   1   2   4   2
M  END
$$$$
