butane_opt
 OpenBabel08242015403D

 14 12  0  0  0  0  0  0  0  0999 V2000
   -4.0533    0.2791   -0.1203 C   0  0  0  0  0  0  0  0  0  0  0  0
   -2.7318   -0.6393    0.2505 C   0  0  0  0  0  0  0  0  0  0  0  0
   -4.9329   -0.1911   -1.0594 H   0  0  0  0  0  0  0  0  0  0  0  0
   -3.5745    0.3714   -0.8227 H   0  0  0  0  0  0  0  0  0  0  0  0
   -4.2536    1.2420    0.7601 H   0  0  0  0  0  0  0  0  0  0  0  0
   -1.4157    0.1912    0.1494 C   0  0  0  0  0  0  0  0  0  0  0  0
   -2.6291   -0.9135   -0.3343 H   0  0  0  0  0  0  0  0  0  0  0  0
   -2.5344   -1.5902    1.4749 H   0  0  0  0  0  0  0  0  0  0  0  0
   -0.0687   -0.6749   -0.1338 C   0  0  0  0  0  0  0  0  0  0  0  0
   -1.2501    0.8099    0.9866 H   0  0  0  0  0  0  0  0  0  0  0  0
   -1.3699    0.7250   -0.6846 H   0  0  0  0  0  0  0  0  0  0  0  0
    0.1124   -1.2658    0.6308 H   0  0  0  0  0  0  0  0  0  0  0  0
    0.8463   -0.0249   -0.1876 H   0  0  0  0  0  0  0  0  0  0  0  0
   -0.2358   -1.5189   -1.0932 H   0  0  0  0  0  0  0  0  0  0  0  0
  1  2  1  0  0  0  0
  1  5  1  0  0  0  0
  3  1  1  0  0  0  0
  4  1  1  0  0  0  0
  6  2  1  0  0  0  0
  6 10  1  0  0  0  0
  7  2  1  0  0  0  0
  9  6  1  0  0  0  0
  9 12  1  0  0  0  0
 11  6  1  0  0  0  0
 13  9  1  0  0  0  0
 14  9  1  0  0  0  0
M  RAD  2   2   2   8   2
M  END
$$$$
