butane_opt
 OpenBabel08242015403D

 14 12  0  0  0  0  0  0  0  0999 V2000
   -3.8317    0.2511   -0.1168 C   0  0  0  0  0  0  0  0  0  0  0  0
   -2.7455   -0.5730    0.2490 C   0  0  0  0  0  0  0  0  0  0  0  0
   -4.9033   -0.6771   -0.4317 H   0  0  0  0  0  0  0  0  0  0  0  0
   -3.4990    0.8027   -0.9731 H   0  0  0  0  0  0  0  0  0  0  0  0
   -4.1390    0.8633    0.6710 H   0  0  0  0  0  0  0  0  0  0  0  0
   -1.4605    0.2766    0.0930 C   0  0  0  0  0  0  0  0  0  0  0  0
   -2.6540   -1.3013   -0.4993 H   0  0  0  0  0  0  0  0  0  0  0  0
   -2.6764   -1.3811    1.1936 H   0  0  0  0  0  0  0  0  0  0  0  0
   -0.2063   -0.7424   -0.0563 C   0  0  0  0  0  0  0  0  0  0  0  0
   -1.1603    0.9364    1.0128 H   0  0  0  0  0  0  0  0  0  0  0  0
   -1.5619    0.9648   -0.7456 H   0  0  0  0  0  0  0  0  0  0  0  0
    0.0049   -1.0839    0.5957 H   0  0  0  0  0  0  0  0  0  0  0  0
    0.6346   -0.2428   -0.0811 H   0  0  0  0  0  0  0  0  0  0  0  0
   -0.1247   -1.9397   -1.3830 H   0  0  0  0  0  0  0  0  0  0  0  0
  1  2  1  0  0  0  0
  1  5  1  0  0  0  0
  2  8  1  0  0  0  0
  3  1  1  0  0  0  0
  4  1  1  0  0  0  0
  6  2  1  0  0  0  0
  6 10  1  0  0  0  0
  7  2  1  0  0  0  0
  9  6  1  0  0  0  0
  9 12  1  0  0  0  0
 11  6  1  0  0  0  0
 13  9  1  0  0  0  0
M  RAD  2   9   2  14   2
M  END
$$$$
