14
butane_opt
C  -3.954320   0.226999   0.120733
C  -2.764811  -0.534650  -0.134114
H  -4.843949  -0.457363   0.154013
H  -4.118769   0.418178  -0.624680
H  -3.825164   0.977572   1.002210
C  -1.383235   0.267354  -0.007227
H  -2.652209  -1.397481  -1.086259
H  -2.763187  -0.890542   0.641559
C  -0.157481  -0.772030   0.082217
H  -1.398814   0.879437   0.841850
H  -1.143525   0.804630  -0.955808
H   0.212262  -2.210531   1.584125
H   0.753180  -0.262995  -0.472483
H  -0.107884  -0.577727  -0.256398
