butane_opt
 OpenBabel08242015403D

 14 12  0  0  0  0  0  0  0  0999 V2000
   -3.9747    0.2137    0.1519 C   0  0  0  0  0  0  0  0  0  0  0  0
   -2.6748   -0.6177   -0.0905 C   0  0  0  0  0  0  0  0  0  0  0  0
   -4.8571   -0.3005   -0.1874 H   0  0  0  0  0  0  0  0  0  0  0  0
   -4.1787    0.3670   -0.4270 H   0  0  0  0  0  0  0  0  0  0  0  0
   -4.1602    1.4661    1.4700 H   0  0  0  0  0  0  0  0  0  0  0  0
   -1.4066    0.2302   -0.1740 C   0  0  0  0  0  0  0  0  0  0  0  0
   -2.7864   -1.1174   -0.9141 H   0  0  0  0  0  0  0  0  0  0  0  0
   -3.0398   -1.2356    0.8033 H   0  0  0  0  0  0  0  0  0  0  0  0
   -0.1077   -0.7087    0.1324 C   0  0  0  0  0  0  0  0  0  0  0  0
   -1.5566    0.7980    0.7309 H   0  0  0  0  0  0  0  0  0  0  0  0
   -1.3781    1.1297   -1.2978 H   0  0  0  0  0  0  0  0  0  0  0  0
   -0.1265   -1.5829    1.2686 H   0  0  0  0  0  0  0  0  0  0  0  0
    0.8344   -0.1982    0.3244 H   0  0  0  0  0  0  0  0  0  0  0  0
    0.2013   -1.2211   -0.4617 H   0  0  0  0  0  0  0  0  0  0  0  0
  2  1  1  0  0  0  0
  2  8  1  0  0  0  0
  3  1  1  0  0  0  0
  4  1  1  0  0  0  0
  6  2  1  0  0  0  0
  6  9  1  0  0  0  0
  6 10  1  0  0  0  0
  7  2  1  0  0  0  0
  9 13  1  0  0  0  0
  9 12  1  0  0  0  0
 11  6  1  0  0  0  0
 14  9  1  0  0  0  0
M  RAD  2   1   2   5   2
M  END
$$$$
