butane_opt
 OpenBabel08242015403D

 14 11  0  0  0  0  0  0  0  0999 V2000
   -4.0416    0.2920    0.0744 C   0  0  0  0  0  0  0  0  0  0  0  0
   -2.6756   -0.6807    0.0249 C   0  0  0  0  0  0  0  0  0  0  0  0
   -4.8887   -0.1505   -0.7263 H   0  0  0  0  0  0  0  0  0  0  0  0
   -3.8234    0.4048   -0.4752 H   0  0  0  0  0  0  0  0  0  0  0  0
   -4.2745    1.8519    1.4882 H   0  0  0  0  0  0  0  0  0  0  0  0
   -1.3265    0.1322   -0.1354 C   0  0  0  0  0  0  0  0  0  0  0  0
   -2.8616   -1.1515   -0.7385 H   0  0  0  0  0  0  0  0  0  0  0  0
   -2.8462   -1.4934    1.0855 H   0  0  0  0  0  0  0  0  0  0  0  0
   -0.1174   -0.6671    0.1127 C   0  0  0  0  0  0  0  0  0  0  0  0
   -1.5048    0.7307    0.8220 H   0  0  0  0  0  0  0  0  0  0  0  0
   -1.2317    0.9479   -1.1456 H   0  0  0  0  0  0  0  0  0  0  0  0
   -0.2330   -1.3336    1.0271 H   0  0  0  0  0  0  0  0  0  0  0  0
    0.9028    0.1075   -0.1214 H   0  0  0  0  0  0  0  0  0  0  0  0
   -0.3420   -1.2938   -0.6424 H   0  0  0  0  0  0  0  0  0  0  0  0
  2  1  1  0  0  0  0
  2  8  1  0  0  0  0
  3  1  1  0  0  0  0
  6  2  1  0  0  0  0
  6  9  1  0  0  0  0
  6 10  1  0  0  0  0
  7  2  1  0  0  0  0
  9 12  1  0  0  0  0
 11  6  1  0  0  0  0
 13  9  1  0  0  0  0
 14  9  1  0  0  0  0
M  RAD  3   1   3   4   2   5   2
M  END
$$$$
