14
butane_opt
C  -3.976645   0.290718  -0.053808
C  -2.763551  -0.618142   0.179945
H  -4.777051  -0.151412  -0.508785
H  -3.774573   0.716382  -0.894886
H  -4.440440   0.901913   0.871394
C  -1.344212   0.168358   0.033904
H  -2.591623  -1.113388  -0.588416
H  -2.794560  -1.293377   1.229344
C  -0.136243  -0.725542  -0.033171
H  -1.283918   1.029217   0.973796
H  -1.401706   0.470857  -0.708718
H  -0.154839  -1.104433   0.657157
H   1.009630   0.130903  -0.221175
H  -0.171001  -1.418453  -0.914244
