butane_opt
 OpenBabel08242015403D

 14 13  0  0  0  0  0  0  0  0999 V2000
   -4.0125    0.3107    0.1199 C   0  0  0  0  0  0  0  0  0  0  0  0
   -2.6987   -0.7148   -0.1709 C   0  0  0  0  0  0  0  0  0  0  0  0
   -4.7595   -0.1881    0.8546 H   0  0  0  0  0  0  0  0  0  0  0  0
   -4.4457    1.0994   -0.7604 H   0  0  0  0  0  0  0  0  0  0  0  0
   -3.6291    1.0698    1.0321 H   0  0  0  0  0  0  0  0  0  0  0  0
   -1.3376    0.1135   -0.0966 C   0  0  0  0  0  0  0  0  0  0  0  0
   -2.6385   -1.4733   -1.0464 H   0  0  0  0  0  0  0  0  0  0  0  0
   -2.6833   -1.1251    0.6117 H   0  0  0  0  0  0  0  0  0  0  0  0
   -0.1865   -0.6187    0.1764 C   0  0  0  0  0  0  0  0  0  0  0  0
   -1.5394    0.9629    0.8671 H   0  0  0  0  0  0  0  0  0  0  0  0
   -1.0790    0.8063   -1.1836 H   0  0  0  0  0  0  0  0  0  0  0  0
   -0.0726   -1.4885    1.3851 H   0  0  0  0  0  0  0  0  0  0  0  0
    0.6079   -0.0156   -0.0315 H   0  0  0  0  0  0  0  0  0  0  0  0
   -0.0217   -1.1941   -0.6120 H   0  0  0  0  0  0  0  0  0  0  0  0
  1  3  1  0  0  0  0
  1  5  1  0  0  0  0
  2  6  1  0  0  0  0
  2  1  1  0  0  0  0
  2  8  1  0  0  0  0
  4  1  1  0  0  0  0
  6  9  1  0  0  0  0
  6 10  1  0  0  0  0
  7  2  1  0  0  0  0
  9 12  1  0  0  0  0
 11  6  1  0  0  0  0
 13  9  1  0  0  0  0
 14  9  1  0  0  0  0
M  END
$$$$
