butane_opt
 OpenBabel08242015403D

 14 13  0  0  0  0  0  0  0  0999 V2000
   -4.0328    0.2795    0.1857 C   0  0  0  0  0  0  0  0  0  0  0  0
   -2.7024   -0.6844   -0.1959 C   0  0  0  0  0  0  0  0  0  0  0  0
   -4.7795   -0.0369    0.5346 H   0  0  0  0  0  0  0  0  0  0  0  0
   -4.4172    1.0360   -0.6645 H   0  0  0  0  0  0  0  0  0  0  0  0
   -3.6735    1.1057    1.1437 H   0  0  0  0  0  0  0  0  0  0  0  0
   -1.3454    0.1704   -0.1795 C   0  0  0  0  0  0  0  0  0  0  0  0
   -2.8369   -1.1744   -0.8656 H   0  0  0  0  0  0  0  0  0  0  0  0
   -2.6792   -1.3896    0.7407 H   0  0  0  0  0  0  0  0  0  0  0  0
   -0.1453   -0.6706    0.1998 C   0  0  0  0  0  0  0  0  0  0  0  0
   -1.2075    0.6094    0.5281 H   0  0  0  0  0  0  0  0  0  0  0  0
   -1.1784    0.8234   -1.2193 H   0  0  0  0  0  0  0  0  0  0  0  0
   -0.4293   -0.9778    0.9676 H   0  0  0  0  0  0  0  0  0  0  0  0
    0.7113   -0.0715    0.7111 H   0  0  0  0  0  0  0  0  0  0  0  0
    0.1603   -1.5085   -0.5629 H   0  0  0  0  0  0  0  0  0  0  0  0
  1  3  1  0  0  0  0
  1  5  1  0  0  0  0
  2  6  1  0  0  0  0
  2  1  1  0  0  0  0
  2  8  1  0  0  0  0
  4  1  1  0  0  0  0
  6  9  1  0  0  0  0
  6 10  1  0  0  0  0
  7  2  1  0  0  0  0
  9 13  1  0  0  0  0
  9 12  1  0  0  0  0
 11  6  1  0  0  0  0
 14  9  1  0  0  0  0
M  END
$$$$
