14
butane_opt
C  -3.925778   0.311073   0.197938
C  -2.641959  -0.663154  -0.199046
H  -4.865097  -0.196684   0.296495
H  -4.433434   1.112811  -0.678125
H  -3.689827   0.921318   0.989338
C  -1.336481   0.108728  -0.119919
H  -2.767095  -1.395725  -1.156387
H  -2.465361  -1.304292   0.536235
C  -0.261710  -0.606288   0.166013
H  -1.324756   0.747266   0.673641
H  -1.465332   0.622428  -0.837442
H  -0.509136  -1.670105   1.574383
H   0.632588  -0.087915   0.002533
H  -0.148852  -1.017046  -0.489441
