butane_opt
 OpenBabel08242015403D

 14 12  0  0  0  0  0  0  0  0999 V2000
   -4.0093    0.3025    0.1117 C   0  0  0  0  0  0  0  0  0  0  0  0
   -2.6675   -0.6484   -0.1238 C   0  0  0  0  0  0  0  0  0  0  0  0
   -5.0074   -0.3624    0.1707 H   0  0  0  0  0  0  0  0  0  0  0  0
   -4.3817    0.8571   -0.5868 H   0  0  0  0  0  0  0  0  0  0  0  0
   -3.6317    1.0702    1.1749 H   0  0  0  0  0  0  0  0  0  0  0  0
   -1.4148    0.1508   -0.0478 C   0  0  0  0  0  0  0  0  0  0  0  0
   -2.8171   -1.5945   -1.1962 H   0  0  0  0  0  0  0  0  0  0  0  0
   -2.4086   -1.0395    0.4033 H   0  0  0  0  0  0  0  0  0  0  0  0
   -0.1509   -0.6913    0.1658 C   0  0  0  0  0  0  0  0  0  0  0  0
   -1.3500    0.5754    0.6492 H   0  0  0  0  0  0  0  0  0  0  0  0
   -1.1804    0.8725   -1.0303 H   0  0  0  0  0  0  0  0  0  0  0  0
    0.1009   -1.5714    1.3711 H   0  0  0  0  0  0  0  0  0  0  0  0
    0.8159    0.0201   -0.4396 H   0  0  0  0  0  0  0  0  0  0  0  0
   -0.2645   -0.6336   -0.3103 H   0  0  0  0  0  0  0  0  0  0  0  0
  1  3  1  0  0  0  0
  1  5  1  0  0  0  0
  2  6  1  0  0  0  0
  2  1  1  0  0  0  0
  2  8  1  0  0  0  0
  4  1  1  0  0  0  0
  6 10  1  0  0  0  0
  7  2  1  0  0  0  0
  9 12  1  0  0  0  0
 11  6  1  0  0  0  0
 13  9  1  0  0  0  0
 14  6  1  0  0  0  0
M  RAD  1   9   3
M  END
$$$$
