butane_opt
 OpenBabel08242015403D

 14 13  0  0  0  0  0  0  0  0999 V2000
   -3.8628    0.2565   -0.1630 C   0  0  0  0  0  0  0  0  0  0  0  0
   -2.7172   -0.5384    0.2223 C   0  0  0  0  0  0  0  0  0  0  0  0
   -5.1133   -0.6036   -0.0800 H   0  0  0  0  0  0  0  0  0  0  0  0
   -3.5278    0.9402   -1.1577 H   0  0  0  0  0  0  0  0  0  0  0  0
   -4.0975    0.6987    0.6952 H   0  0  0  0  0  0  0  0  0  0  0  0
   -1.4539    0.1993    0.2040 C   0  0  0  0  0  0  0  0  0  0  0  0
   -2.5659   -1.1694   -0.6844 H   0  0  0  0  0  0  0  0  0  0  0  0
   -2.8190   -1.3176    1.2595 H   0  0  0  0  0  0  0  0  0  0  0  0
   -0.1880   -0.7343   -0.1216 C   0  0  0  0  0  0  0  0  0  0  0  0
   -1.3126    0.9397    1.1583 H   0  0  0  0  0  0  0  0  0  0  0  0
   -1.2646    0.7741   -0.6951 H   0  0  0  0  0  0  0  0  0  0  0  0
    0.2273   -1.1755    0.5677 H   0  0  0  0  0  0  0  0  0  0  0  0
    0.7301   -0.2390   -0.2805 H   0  0  0  0  0  0  0  0  0  0  0  0
   -0.5652   -1.5447   -1.0581 H   0  0  0  0  0  0  0  0  0  0  0  0
  1  3  1  0  0  0  0
  1  2  1  0  0  0  0
  1  5  1  0  0  0  0
  2  8  1  0  0  0  0
  4  1  1  0  0  0  0
  6  2  1  0  0  0  0
  6 10  1  0  0  0  0
  7  2  1  0  0  0  0
  9  6  1  0  0  0  0
  9 12  1  0  0  0  0
 11  6  1  0  0  0  0
 13  9  1  0  0  0  0
 14  9  1  0  0  0  0
M  END
$$$$
