14
butane_opt
C  -3.923427   0.179707   0.196363
C  -2.729119  -0.576531  -0.161089
H  -4.911522  -0.434475   0.701753
H  -4.501748   0.902396  -0.654172
H  -3.684141   0.909687   0.992526
C  -1.460161   0.351314  -0.222410
H  -3.013731  -1.511801  -1.286251
H  -2.584141  -1.164892   0.582562
C  -0.075258  -0.781014   0.198903
H  -1.594471   1.095680   0.683489
H  -1.246022   0.775388  -1.093766
H  -0.291083  -1.678194   1.363520
H   0.834537  -0.170247   0.537620
H   0.274282  -1.287488  -0.501200
