14
butane_opt
C  -3.944723   0.260433   0.003141
C  -2.711372  -0.612942   0.048448
H  -4.838497  -0.304460   0.121465
H  -3.940145   0.929408  -0.970249
H  -3.969374   0.852152   0.809227
C  -1.401855   0.197499   0.046121
H  -2.755267  -1.332830  -0.849675
H  -2.779181  -1.204945   0.931654
C  -0.145705  -0.700450   0.008428
H  -1.371560   0.878195   0.888518
H  -1.421775   0.789219  -0.834375
H  -0.092529  -1.346137   0.933436
H   0.709300  -0.141474  -0.042255
H  -0.121911  -1.321050  -0.817717
