14
butane_opt
C  -3.966275   0.292490   0.151011
C  -2.738649  -0.662800  -0.007575
H  -4.964163  -0.313486  -0.753345
H  -3.652689   0.217002  -0.446096
H  -4.417765   1.760386   1.554420
C  -1.335068   0.165060  -0.219632
H  -2.838734  -1.326418  -0.859006
H  -2.686707  -1.147582   0.925603
C  -0.122049  -0.652705   0.154658
H  -1.500416   0.803534   0.609067
H  -1.271544   0.708359  -1.087638
H  -0.221478  -1.583416   1.360202
H   0.454576  -0.243834  -0.198941
H   0.040690  -1.102438  -0.523463
