butane_opt
 OpenBabel08242015403D

 14 13  0  0  0  0  0  0  0  0999 V2000
   -4.0147    0.3540   -0.1430 C   0  0  0  0  0  0  0  0  0  0  0  0
   -2.6861   -0.7307    0.3066 C   0  0  0  0  0  0  0  0  0  0  0  0
   -4.8239   -0.0827   -0.5884 H   0  0  0  0  0  0  0  0  0  0  0  0
   -3.5520    0.7965   -0.9931 H   0  0  0  0  0  0  0  0  0  0  0  0
   -4.7362    1.1204    0.6755 H   0  0  0  0  0  0  0  0  0  0  0  0
   -1.3221    0.1246    0.1306 C   0  0  0  0  0  0  0  0  0  0  0  0
   -2.6210   -1.1967   -0.4789 H   0  0  0  0  0  0  0  0  0  0  0  0
   -2.8918   -1.4719    1.3961 H   0  0  0  0  0  0  0  0  0  0  0  0
   -0.1934   -0.6336   -0.1282 C   0  0  0  0  0  0  0  0  0  0  0  0
   -1.1591    0.7684    0.9118 H   0  0  0  0  0  0  0  0  0  0  0  0
   -1.3982    0.5004   -0.6832 H   0  0  0  0  0  0  0  0  0  0  0  0
    0.1300   -0.7365    0.4590 H   0  0  0  0  0  0  0  0  0  0  0  0
    0.6995   -0.0353    0.0196 H   0  0  0  0  0  0  0  0  0  0  0  0
   -0.1235   -1.4968   -1.2667 H   0  0  0  0  0  0  0  0  0  0  0  0
  1  2  1  0  0  0  0
  1  5  1  0  0  0  0
  2  8  1  0  0  0  0
  3  1  1  0  0  0  0
  4  1  1  0  0  0  0
  6  2  1  0  0  0  0
  6 10  1  0  0  0  0
  7  2  1  0  0  0  0
  9 13  1  0  0  0  0
  9  6  1  0  0  0  0
  9 12  1  0  0  0  0
 11  6  1  0  0  0  0
 14  9  1  0  0  0  0
M  END
$$$$
