14
butane_opt
C  -3.891606   0.319618  -0.052573
C  -2.676156  -0.683751   0.037151
H  -4.818053  -0.358260  -0.110374
H  -3.905972   0.882445  -0.850879
H  -4.117995   0.999314   0.718355
C  -1.440361   0.146251   0.142264
H  -2.365274  -1.198613  -0.659270
H  -2.498472  -1.623827   1.143179
C  -0.256083  -0.620547  -0.019152
H  -1.182738   1.125560   1.095522
H  -1.413967   0.651411  -0.648281
H   0.036095  -1.621916   1.007159
H   0.812565  -0.031621  -0.702842
H  -0.419283  -1.220663  -0.826400
