14
butane_opt
C  -3.974684   0.213693   0.151878
C  -2.674816  -0.617724  -0.090505
H  -4.857076  -0.300512  -0.187446
H  -4.178749   0.367048  -0.427038
H  -4.160205   1.466092   1.470024
C  -1.406647   0.230170  -0.174026
H  -2.786403  -1.117359  -0.914139
H  -3.039810  -1.235585   0.803297
C  -0.107706  -0.708742   0.132430
H  -1.556588   0.798017   0.730885
H  -1.378058   1.129670  -1.297848
H  -0.126535  -1.582857   1.268630
H   0.834377  -0.198243   0.324378
H   0.201286  -1.221056  -0.461686
