butane_opt
 OpenBabel08242015403D

 14 10  0  0  0  0  0  0  0  0999 V2000
   -3.9203    0.3245   -0.2135 C   0  0  0  0  0  0  0  0  0  0  0  0
   -2.6816   -0.7107    0.2192 C   0  0  0  0  0  0  0  0  0  0  0  0
   -4.8433   -0.1467   -0.2593 H   0  0  0  0  0  0  0  0  0  0  0  0
   -4.0280    1.1067   -1.1290 H   0  0  0  0  0  0  0  0  0  0  0  0
   -3.9626    1.0006    0.6051 H   0  0  0  0  0  0  0  0  0  0  0  0
   -1.3726    0.1442    0.2884 C   0  0  0  0  0  0  0  0  0  0  0  0
   -2.6248   -1.2308   -0.4886 H   0  0  0  0  0  0  0  0  0  0  0  0
   -2.8158   -1.4730    1.1506 H   0  0  0  0  0  0  0  0  0  0  0  0
   -0.2271   -0.6454   -0.1906 C   0  0  0  0  0  0  0  0  0  0  0  0
   -1.2035    1.0432    1.2660 H   0  0  0  0  0  0  0  0  0  0  0  0
   -1.8117    0.3416   -0.3072 H   0  0  0  0  0  0  0  0  0  0  0  0
    0.1780   -1.5426    0.9923 H   0  0  0  0  0  0  0  0  0  0  0  0
    0.9433    0.1263   -0.7709 H   0  0  0  0  0  0  0  0  0  0  0  0
   -0.5090   -0.9809   -0.8550 H   0  0  0  0  0  0  0  0  0  0  0  0
  1  5  1  0  0  0  0
  2  8  1  0  0  0  0
  3  1  1  0  0  0  0
  4  1  1  0  0  0  0
  6 10  1  0  0  0  0
  7  2  1  0  0  0  0
  9  6  1  0  0  0  0
 11  6  1  0  0  0  0
 13  9  1  0  0  0  0
 14  9  1  0  0  0  0
M  RAD  5   1   2   2   3   6   2   9   2  12   2
M  END
$$$$
