butane_opt
 OpenBabel08242015403D

 14 13  0  0  0  0  0  0  0  0999 V2000
   -3.8653    0.2671    0.1667 C   0  0  0  0  0  0  0  0  0  0  0  0
   -2.6792   -0.5799   -0.1797 C   0  0  0  0  0  0  0  0  0  0  0  0
   -4.9656   -0.4672    0.5927 H   0  0  0  0  0  0  0  0  0  0  0  0
   -4.2411    0.7345   -0.5296 H   0  0  0  0  0  0  0  0  0  0  0  0
   -3.4655    1.1283    1.2461 H   0  0  0  0  0  0  0  0  0  0  0  0
   -1.3822    0.1615   -0.1753 C   0  0  0  0  0  0  0  0  0  0  0  0
   -2.7340   -1.4397   -1.0867 H   0  0  0  0  0  0  0  0  0  0  0  0
   -2.7726   -1.2046    0.6597 H   0  0  0  0  0  0  0  0  0  0  0  0
   -0.2774   -0.7061    0.2103 C   0  0  0  0  0  0  0  0  0  0  0  0
   -1.6626    0.8788    0.6186 H   0  0  0  0  0  0  0  0  0  0  0  0
   -1.2240    0.8884   -1.2426 H   0  0  0  0  0  0  0  0  0  0  0  0
   -0.3619   -1.4125    1.1827 H   0  0  0  0  0  0  0  0  0  0  0  0
    0.6291   -0.2746    0.2591 H   0  0  0  0  0  0  0  0  0  0  0  0
    0.2236   -1.0136   -0.4767 H   0  0  0  0  0  0  0  0  0  0  0  0
  1  3  1  0  0  0  0
  1  5  1  0  0  0  0
  2  6  1  0  0  0  0
  2  1  1  0  0  0  0
  2  8  1  0  0  0  0
  4  1  1  0  0  0  0
  6  9  1  0  0  0  0
  6 10  1  0  0  0  0
  7  2  1  0  0  0  0
  9 13  1  0  0  0  0
  9 12  1  0  0  0  0
 11  6  1  0  0  0  0
 14  9  1  0  0  0  0
M  END
$$$$
