butane_opt
 OpenBabel08242015403D

 14 10  0  0  0  0  0  0  0  0999 V2000
   -3.9681    0.2200   -0.1350 C   0  0  0  0  0  0  0  0  0  0  0  0
   -2.7081   -0.5723    0.1800 C   0  0  0  0  0  0  0  0  0  0  0  0
   -5.0495   -0.4331    0.1639 H   0  0  0  0  0  0  0  0  0  0  0  0
   -4.1202    1.2053   -1.1810 H   0  0  0  0  0  0  0  0  0  0  0  0
   -4.1700    0.6319    0.5471 H   0  0  0  0  0  0  0  0  0  0  0  0
   -1.4289    0.2247    0.1359 C   0  0  0  0  0  0  0  0  0  0  0  0
   -2.6881   -0.9232   -0.4290 H   0  0  0  0  0  0  0  0  0  0  0  0
   -2.8380   -1.5766    1.6011 H   0  0  0  0  0  0  0  0  0  0  0  0
   -0.0679   -0.7373   -0.1075 C   0  0  0  0  0  1  0  0  0  0  0  0
   -1.5663    1.0328    1.0672 H   0  0  0  0  0  0  0  0  0  0  0  0
   -1.2578    0.7094   -0.6521 H   0  0  0  0  0  0  0  0  0  0  0  0
   -0.2384   -0.6620    0.3554 H   0  0  0  0  0  0  0  0  0  0  0  0
    0.9946   -0.0741    0.3966 H   0  0  0  0  0  0  0  0  0  0  0  0
    0.0451   -2.0457   -1.4590 H   0  0  0  0  0  0  0  0  0  0  0  0
  1  3  1  0  0  0  0
  1  2  1  0  0  0  0
  1  5  1  0  0  0  0
  4  1  1  0  0  0  0
  6  2  1  0  0  0  0
  6 12  1  0  0  0  0
  6 10  1  0  0  0  0
  7  2  1  0  0  0  0
  9 13  1  0  0  0  0
 11  6  1  0  0  0  0
M  RAD  3   2   2   8   2  14   2
M  END
$$$$
