14
butane_opt
C  -4.035726   0.340427  -0.175628
C  -2.682740  -0.685930   0.201238
H  -4.870935  -0.253752  -0.213343
H  -3.940617   1.118878  -1.193669
H  -3.999095   0.920359   0.551397
C  -1.370943   0.114028   0.216708
H  -2.636546  -1.218879  -0.554086
H  -2.818049  -1.534444   1.429017
C  -0.157438  -0.611745  -0.154484
H  -1.292401   1.077523   1.368090
H  -1.205418   0.287181  -0.322522
H   0.302272  -1.401856   0.820966
H   0.889390  -0.017403  -0.621599
H  -0.547146  -1.267917  -0.930530
