14
butane_opt
C  -4.042651   0.328641   0.030177
C  -2.700271  -0.690192  -0.087429
H  -4.895092  -0.146533   0.244231
H  -4.237532   0.642986  -0.505327
H  -3.962627   1.338368   1.124873
C  -1.339907   0.136517   0.016799
H  -2.676400  -1.714092  -1.123762
H  -2.526368  -1.100746   0.671494
C  -0.136236  -0.642344   0.110478
H  -1.125026   0.740757   0.823525
H  -1.084700   0.977114  -0.891719
H  -0.045704  -2.049496   1.509903
H   0.857846  -0.003560  -0.764856
H  -0.688220  -0.737001  -0.380239
