butane_opt
 OpenBabel08242015403D

 14 13  0  0  0  0  0  0  0  0999 V2000
   -3.9571    0.2778    0.0575 C   0  0  0  0  0  0  0  0  0  0  0  0
   -2.6983   -0.6327   -0.0170 C   0  0  0  0  0  0  0  0  0  0  0  0
   -4.8608   -0.2991    0.1181 H   0  0  0  0  0  0  0  0  0  0  0  0
   -4.0713    0.9407   -0.8406 H   0  0  0  0  0  0  0  0  0  0  0  0
   -3.9057    0.9073    0.8747 H   0  0  0  0  0  0  0  0  0  0  0  0
   -1.3960    0.1718   -0.0077 C   0  0  0  0  0  0  0  0  0  0  0  0
   -2.7580   -1.3511   -0.9021 H   0  0  0  0  0  0  0  0  0  0  0  0
   -2.6620   -1.2426    0.8545 H   0  0  0  0  0  0  0  0  0  0  0  0
   -0.1568   -0.6828    0.0713 C   0  0  0  0  0  0  0  0  0  0  0  0
   -1.4433    0.8395    0.8159 H   0  0  0  0  0  0  0  0  0  0  0  0
   -1.3818    0.8422   -0.9565 H   0  0  0  0  0  0  0  0  0  0  0  0
   -0.1175   -1.3547    1.0042 H   0  0  0  0  0  0  0  0  0  0  0  0
    0.8168   -0.0337   -0.0070 H   0  0  0  0  0  0  0  0  0  0  0  0
   -0.1572   -1.3166   -0.7738 H   0  0  0  0  0  0  0  0  0  0  0  0
  1  3  1  0  0  0  0
  1  5  1  0  0  0  0
  2  6  1  0  0  0  0
  2  1  1  0  0  0  0
  2  8  1  0  0  0  0
  4  1  1  0  0  0  0
  6  9  1  0  0  0  0
  6 10  1  0  0  0  0
  7  2  1  0  0  0  0
  9 12  1  0  0  0  0
 11  6  1  0  0  0  0
 13  9  1  0  0  0  0
 14  9  1  0  0  0  0
M  END
$$$$
