14
butane_opt
C  -3.971576   0.271718   0.096135
C  -2.635745  -0.662586  -0.132726
H  -4.792805  -0.200722   0.822483
H  -4.307156   1.573094  -1.192058
H  -3.892260   0.776225   0.817230
C  -1.390722   0.109941  -0.028121
H  -2.634705  -1.382233  -0.940908
H  -2.391312  -1.470823   0.765534
C  -0.205938  -0.624101   0.108617
H  -1.228279   1.042413   0.987605
H  -1.266616   0.573781  -0.850306
H  -0.318401  -1.191511   1.070351
H   0.571872   0.016385   0.114471
H  -0.291121  -1.328539  -0.713563
