butane_opt
 OpenBabel08242015403D

 14 11  0  0  0  0  0  0  0  0999 V2000
   -3.9211    0.3107   -0.1396 C   0  0  0  0  0  0  0  0  0  0  0  0
   -2.7153   -0.6991    0.1379 C   0  0  0  0  0  0  0  0  0  0  0  0
   -4.7513   -0.1031    0.5989 H   0  0  0  0  0  0  0  0  0  0  0  0
   -4.1966    1.6398   -1.3983 H   0  0  0  0  0  0  0  0  0  0  0  0
   -3.9552    0.2963    0.2941 H   0  0  0  0  0  0  0  0  0  0  0  0
   -1.3809    0.1336    0.2273 C   0  0  0  0  0  0  0  0  0  0  0  0
   -2.5371   -1.3888   -0.6673 H   0  0  0  0  0  0  0  0  0  0  0  0
   -2.6730   -1.0737    1.0699 H   0  0  0  0  0  0  0  0  0  0  0  0
   -0.1984   -0.6704   -0.1051 C   0  0  0  0  0  0  0  0  0  0  0  0
   -1.5220    0.9826    1.1745 H   0  0  0  0  0  0  0  0  0  0  0  0
   -1.2238    0.5914   -0.5237 H   0  0  0  0  0  0  0  0  0  0  0  0
    0.2075   -1.0008    0.6044 H   0  0  0  0  0  0  0  0  0  0  0  0
    0.8745    0.0840   -0.0970 H   0  0  0  0  0  0  0  0  0  0  0  0
   -0.6768   -1.3754   -1.1560 H   0  0  0  0  0  0  0  0  0  0  0  0
  1  2  1  0  0  0  0
  1  3  1  0  0  0  0
  2  6  1  0  0  0  0
  2  8  1  0  0  0  0
  6 10  1  0  0  0  0
  7  2  1  0  0  0  0
  9 13  1  0  0  0  0
  9  6  1  0  0  0  0
  9 12  1  0  0  0  0
 11  6  1  0  0  0  0
 14  9  1  0  0  0  0
M  RAD  3   1   3   4   2   5   2
M  END
$$$$
