butane_opt
 OpenBabel08242015403D

 14  8  0  0  0  0  0  0  0  0999 V2000
   -3.8875    0.3122   -0.0545 C   0  0  0  0  0  0  0  0  0  0  0  0
   -2.7448   -0.6279    0.0662 C   0  0  0  0  0  0  0  0  0  0  0  0
   -4.7971   -0.2933    0.6821 H   0  0  0  0  0  0  0  0  0  0  0  0
   -4.0690    1.3614   -1.2566 H   0  0  0  0  0  0  0  0  0  0  0  0
   -3.8179    0.4763    0.3867 H   0  0  0  0  0  0  0  0  0  0  0  0
   -1.4059    0.1367    0.0876 C   0  0  0  0  0  0  0  0  0  0  0  0
   -2.4424   -1.0991   -0.5325 H   0  0  0  0  0  0  0  0  0  0  0  0
   -2.7448   -1.5271    1.1576 H   0  0  0  0  0  0  0  0  0  0  0  0
   -0.1498   -0.6794   -0.0113 C   0  0  0  0  0  1  0  0  0  0  0  0
   -1.4967    0.8988    0.9964 H   0  0  0  0  0  0  0  0  0  0  0  0
   -1.4133    0.4056   -0.6927 H   0  0  0  0  0  0  0  0  0  0  0  0
   -0.3303   -0.6690    0.4301 H   0  0  0  0  0  0  0  0  0  0  0  0
    0.7874    0.1115    0.3711 H   0  0  0  0  0  0  0  0  0  0  0  0
   -0.4500   -1.8067   -1.2385 H   0  0  0  0  0  0  0  0  0  0  0  0
  1  2  1  0  0  0  0
  1  3  1  0  0  0  0
  2  8  1  0  0  0  0
  6 12  1  0  0  0  0
  6 10  1  0  0  0  0
  7  2  1  0  0  0  0
  9 13  1  0  0  0  0
 11  6  1  0  0  0  0
M  RAD  6   1   3   2   2   4   2   5   2   6   2  14   2
M  END
$$$$
