14
butane_opt
C  -4.041588   0.292039   0.074407
C  -2.675605  -0.680734   0.024873
H  -4.888672  -0.150484  -0.726329
H  -3.823368   0.404763  -0.475172
H  -4.274515   1.851885   1.488217
C  -1.326491   0.132210  -0.135439
H  -2.861604  -1.151486  -0.738482
H  -2.846151  -1.493409   1.085470
C  -0.117448  -0.667058   0.112676
H  -1.504823   0.730696   0.821979
H  -1.231703   0.947941  -1.145576
H  -0.232988  -1.333601   1.027122
H   0.902758   0.107535  -0.121435
H  -0.341995  -1.293772  -0.642367
