butane_opt
 OpenBabel08242015403D

 14 10  0  0  0  0  0  0  0  0999 V2000
   -3.9991    0.3185    0.1055 C   0  0  0  0  0  0  0  0  0  0  0  0
   -2.6551   -0.7339   -0.0042 C   0  0  0  0  0  0  0  0  0  0  0  0
   -4.7498   -0.1463   -0.7890 H   0  0  0  0  0  0  0  0  0  0  0  0
   -4.1028    0.3034   -0.2505 H   0  0  0  0  0  0  0  0  0  0  0  0
   -4.1406    1.7897    1.5319 H   0  0  0  0  0  0  0  0  0  0  0  0
   -1.3790    0.1683   -0.1338 C   0  0  0  0  0  0  0  0  0  0  0  0
   -2.7816   -1.5936   -1.0133 H   0  0  0  0  0  0  0  0  0  0  0  0
   -2.8240   -1.2402    0.8670 H   0  0  0  0  0  0  0  0  0  0  0  0
   -0.1579   -0.6430    0.1677 C   0  0  0  0  0  0  0  0  0  0  0  0
   -1.3312    0.4737    0.4359 H   0  0  0  0  0  0  0  0  0  0  0  0
   -1.4296    1.2672   -1.2767 H   0  0  0  0  0  0  0  0  0  0  0  0
   -0.1073   -1.5032    1.1798 H   0  0  0  0  0  0  0  0  0  0  0  0
    0.9797    0.0202   -0.2152 H   0  0  0  0  0  0  0  0  0  0  0  0
   -0.2755   -1.1331   -0.5594 H   0  0  0  0  0  0  0  0  0  0  0  0
  2  1  1  0  0  0  0
  2  8  1  0  0  0  0
  3  1  1  0  0  0  0
  6  2  1  0  0  0  0
  6  9  1  0  0  0  0
  6 10  1  0  0  0  0
  7  2  1  0  0  0  0
  9 12  1  0  0  0  0
 13  9  1  0  0  0  0
 14  9  1  0  0  0  0
M  RAD  5   1   3   4   2   5   2   6   2  11   2
M  END
$$$$
