butane_opt
 OpenBabel08242015403D

 14 12  0  0  0  0  0  0  0  0999 V2000
   -3.9962    0.3397   -0.1879 C   0  0  0  0  0  0  0  0  0  0  0  0
   -2.7063   -0.6855    0.3262 C   0  0  0  0  0  0  0  0  0  0  0  0
   -4.7518   -0.2024   -0.7259 H   0  0  0  0  0  0  0  0  0  0  0  0
   -3.7717    0.6581   -0.8254 H   0  0  0  0  0  0  0  0  0  0  0  0
   -4.4589    1.4025    0.7984 H   0  0  0  0  0  0  0  0  0  0  0  0
   -1.3684    0.0862    0.1575 C   0  0  0  0  0  0  0  0  0  0  0  0
   -2.8040   -1.1700   -0.4073 H   0  0  0  0  0  0  0  0  0  0  0  0
   -2.9302   -1.4049    1.1560 H   0  0  0  0  0  0  0  0  0  0  0  0
   -0.0934   -0.6126   -0.1300 C   0  0  0  0  0  0  0  0  0  0  0  0
   -1.0421    0.6642    0.9644 H   0  0  0  0  0  0  0  0  0  0  0  0
   -1.6513    0.6269   -0.6302 H   0  0  0  0  0  0  0  0  0  0  0  0
   -0.2558   -1.1881    0.7245 H   0  0  0  0  0  0  0  0  0  0  0  0
    0.8382    0.0805   -0.2887 H   0  0  0  0  0  0  0  0  0  0  0  0
   -0.2724   -1.4603   -1.2973 H   0  0  0  0  0  0  0  0  0  0  0  0
  1  2  1  0  0  0  0
  2  8  1  0  0  0  0
  3  1  1  0  0  0  0
  4  1  1  0  0  0  0
  6  2  1  0  0  0  0
  6 10  1  0  0  0  0
  7  2  1  0  0  0  0
  9  6  1  0  0  0  0
  9 12  1  0  0  0  0
 11  6  1  0  0  0  0
 13  9  1  0  0  0  0
 14  9  1  0  0  0  0
M  RAD  2   1   2   5   2
M  END
$$$$
