14
butane_opt
C  -4.028960   0.297412   0.118712
C  -2.631440  -0.639376  -0.028373
H  -5.021118  -0.242005  -0.401309
H  -4.069442   0.565982  -0.505365
H  -3.885006   1.409817   1.311233
C  -1.338809   0.093288  -0.158217
H  -2.887563  -1.142185  -0.930961
H  -2.585081  -1.207565   0.776191
C  -0.189324  -0.646538   0.150974
H  -1.192075   0.768437   0.583537
H  -1.396938   0.648568  -0.943406
H  -0.392486  -1.456451   1.186582
H   0.759127  -0.099327   0.040837
H  -0.082568  -1.002912  -0.621564
