butane_opt
 OpenBabel08242015403D

 14 13  0  0  0  0  0  0  0  0999 V2000
   -3.9390    0.2445    0.1820 C   0  0  0  0  0  0  0  0  0  0  0  0
   -2.7554   -0.5964   -0.2111 C   0  0  0  0  0  0  0  0  0  0  0  0
   -4.9080   -0.3655    0.7060 H   0  0  0  0  0  0  0  0  0  0  0  0
   -4.4504    0.8777   -0.7013 H   0  0  0  0  0  0  0  0  0  0  0  0
   -3.6863    0.7129    0.9723 H   0  0  0  0  0  0  0  0  0  0  0  0
   -1.4259    0.1741   -0.1594 C   0  0  0  0  0  0  0  0  0  0  0  0
   -2.8289   -1.4214   -1.0961 H   0  0  0  0  0  0  0  0  0  0  0  0
   -2.5783   -0.8513    0.4934 H   0  0  0  0  0  0  0  0  0  0  0  0
   -0.0645   -0.7172    0.2224 C   0  0  0  0  0  0  0  0  0  0  0  0
   -1.4224    1.1628    0.7673 H   0  0  0  0  0  0  0  0  0  0  0  0
   -1.6278    0.7854   -0.9266 H   0  0  0  0  0  0  0  0  0  0  0  0
   -0.2978   -1.6309    1.3908 H   0  0  0  0  0  0  0  0  0  0  0  0
    0.7681   -0.1537   -0.1448 H   0  0  0  0  0  0  0  0  0  0  0  0
    0.2448   -0.8854   -0.4022 H   0  0  0  0  0  0  0  0  0  0  0  0
  1  3  1  0  0  0  0
  1  5  1  0  0  0  0
  2  6  1  0  0  0  0
  2  1  1  0  0  0  0
  2  8  1  0  0  0  0
  4  1  1  0  0  0  0
  6  9  1  0  0  0  0
  6 10  1  0  0  0  0
  7  2  1  0  0  0  0
  9 12  1  0  0  0  0
 11  6  1  0  0  0  0
 13  9  1  0  0  0  0
 14  9  1  0  0  0  0
M  END
$$$$
