14
butane_opt
C  -3.930343   0.226199  -0.113848
C  -2.779547  -0.568647   0.289590
H  -4.949707  -0.442301  -0.879573
H  -3.248293   0.572197  -0.907573
H  -4.336447   1.172960   0.904163
C  -1.438760   0.280846   0.120329
H  -2.776598  -1.145306  -0.610176
H  -3.001976  -1.193494   1.228293
C  -0.101931  -0.777297  -0.126086
H  -1.070947   0.737358   0.835367
H  -1.696816   0.878444  -0.671666
H   0.211207  -1.392937   0.664337
H   1.002409  -0.163676   0.013146
H  -0.154508  -1.435905  -1.102623
