butane_opt
 OpenBabel08242015403D

 14 10  0  0  0  0  0  0  0  0999 V2000
   -3.9931    0.1919   -0.1076 C   0  0  0  0  0  0  0  0  0  0  0  0
   -2.7170   -0.5550    0.2472 C   0  0  0  0  0  0  0  0  0  0  0  0
   -4.9912   -0.5270   -0.0186 H   0  0  0  0  0  0  0  0  0  0  0  0
   -3.8235    1.3677   -1.3130 H   0  0  0  0  0  0  0  0  0  0  0  0
   -3.7470    0.6005    0.7143 H   0  0  0  0  0  0  0  0  0  0  0  0
   -1.4067    0.2679    0.0992 C   0  0  0  0  0  0  0  0  0  0  0  0
   -2.6318   -1.0903   -0.4741 H   0  0  0  0  0  0  0  0  0  0  0  0
   -2.6511   -1.2450    1.1594 H   0  0  0  0  0  0  0  0  0  0  0  0
   -0.1311   -0.7488   -0.1163 C   0  0  0  0  0  1  0  0  0  0  0  0
   -1.2883    0.6954    0.8760 H   0  0  0  0  0  0  0  0  0  0  0  0
   -1.4922    0.9022   -0.8710 H   0  0  0  0  0  0  0  0  0  0  0  0
   -0.3955   -0.6052    0.2090 H   0  0  0  0  0  0  0  0  0  0  0  0
    0.7428   -0.2541    0.9155 H   0  0  0  0  0  0  0  0  0  0  0  0
    0.2654   -2.2008   -1.3648 H   0  0  0  0  0  0  0  0  0  0  0  0
  1  3  1  0  0  0  0
  1  2  1  0  0  0  0
  1  5  1  0  0  0  0
  2  8  1  0  0  0  0
  6 12  1  0  0  0  0
  6  2  1  0  0  0  0
  6 10  1  0  0  0  0
  7  2  1  0  0  0  0
  9 13  1  0  0  0  0
 11  6  1  0  0  0  0
M  RAD  3   1   2   4   2  14   2
M  END
$$$$
