14
butane_opt
C  -3.862382   0.188199   0.140841
C  -2.724926  -0.489944  -0.069634
H  -4.900580  -0.550041  -0.530994
H  -3.635786   0.061932  -0.284212
H  -3.959466   1.732761   1.463390
C  -1.480004   0.164553  -0.130221
H  -2.922665  -1.295638  -1.028011
H  -2.610606  -1.143921   0.836532
C  -0.153017  -0.735765   0.165180
H  -1.681973   0.716709   0.462867
H  -1.587250   1.261584  -1.330487
H   0.005988  -1.669357   1.252760
H   0.903193  -0.150153  -0.204868
H   0.008886  -0.979536  -0.345884
