butane_opt
 OpenBabel08242015403D

 14 13  0  0  0  0  0  0  0  0999 V2000
   -3.9771    0.3020    0.1752 C   0  0  0  0  0  0  0  0  0  0  0  0
   -2.6438   -0.6730   -0.0914 C   0  0  0  0  0  0  0  0  0  0  0  0
   -4.7307   -0.1034    0.2142 H   0  0  0  0  0  0  0  0  0  0  0  0
   -4.2924    0.6231   -0.4011 H   0  0  0  0  0  0  0  0  0  0  0  0
   -4.3010    1.1860    1.3103 H   0  0  0  0  0  0  0  0  0  0  0  0
   -1.3872    0.1383   -0.2387 C   0  0  0  0  0  0  0  0  0  0  0  0
   -2.7308   -1.4595   -1.1202 H   0  0  0  0  0  0  0  0  0  0  0  0
   -2.7588   -1.2266    0.7101 H   0  0  0  0  0  0  0  0  0  0  0  0
   -0.1444   -0.6555    0.2413 C   0  0  0  0  0  0  0  0  0  0  0  0
   -1.6122    0.4777    0.2694 H   0  0  0  0  0  0  0  0  0  0  0  0
   -1.1019    1.0058   -1.2682 H   0  0  0  0  0  0  0  0  0  0  0  0
   -0.3807   -0.9122    1.0205 H   0  0  0  0  0  0  0  0  0  0  0  0
    0.8136    0.0632    0.5278 H   0  0  0  0  0  0  0  0  0  0  0  0
   -0.0846   -1.4719   -0.8256 H   0  0  0  0  0  0  0  0  0  0  0  0
  1  3  1  0  0  0  0
  1  5  1  0  0  0  0
  2  1  1  0  0  0  0
  2  8  1  0  0  0  0
  4  1  1  0  0  0  0
  6  2  1  0  0  0  0
  6  9  1  0  0  0  0
  6 10  1  0  0  0  0
  7  2  1  0  0  0  0
  9 13  1  0  0  0  0
  9 12  1  0  0  0  0
 11  6  1  0  0  0  0
 14  9  1  0  0  0  0
M  END
$$$$
