butane_opt
 OpenBabel08242015403D

 14 12  0  0  0  0  0  0  0  0999 V2000
   -3.9863    0.1829    0.1475 C   0  0  0  0  0  0  0  0  0  0  0  0
   -2.7304   -0.5806   -0.0795 C   0  0  0  0  0  0  0  0  0  0  0  0
   -4.9141   -0.4636    0.0483 H   0  0  0  0  0  0  0  0  0  0  0  0
   -3.9642    0.5120   -0.5997 H   0  0  0  0  0  0  0  0  0  0  0  0
   -3.6883    1.2870    1.2568 H   0  0  0  0  0  0  0  0  0  0  0  0
   -1.4196    0.2923   -0.1403 C   0  0  0  0  0  0  0  0  0  0  0  0
   -2.6222   -1.1946   -0.9571 H   0  0  0  0  0  0  0  0  0  0  0  0
   -2.5815   -1.2601    0.7381 H   0  0  0  0  0  0  0  0  0  0  0  0
   -0.1249   -0.7509    0.1359 C   0  0  0  0  0  0  0  0  0  0  0  0
   -1.5823    1.0123    0.6257 H   0  0  0  0  0  0  0  0  0  0  0  0
   -1.1719    1.2289   -1.2177 H   0  0  0  0  0  0  0  0  0  0  0  0
   -0.4524   -1.5761    1.1841 H   0  0  0  0  0  0  0  0  0  0  0  0
    0.6951   -0.3302    0.2394 H   0  0  0  0  0  0  0  0  0  0  0  0
    0.4299   -1.4677   -0.6188 H   0  0  0  0  0  0  0  0  0  0  0  0
  2  1  1  0  0  0  0
  2  8  1  0  0  0  0
  3  1  1  0  0  0  0
  4  1  1  0  0  0  0
  6  2  1  0  0  0  0
  6  9  1  0  0  0  0
  6 10  1  0  0  0  0
  7  2  1  0  0  0  0
  9 13  1  0  0  0  0
  9 12  1  0  0  0  0
 11  6  1  0  0  0  0
 14  9  1  0  0  0  0
M  RAD  2   1   2   5   2
M  END
$$$$
