14
butane_opt
C  -4.018586   0.318872  -0.110018
C  -2.671846  -0.656798   0.101744
H  -5.047179  -0.321366   0.849088
H  -4.348004   1.719834  -1.552070
H  -3.659343   0.288756   0.396236
C  -1.419563   0.152211   0.209703
H  -2.326527  -1.497161  -0.748951
H  -2.959243  -1.475491   1.024291
C  -0.156080  -0.640639  -0.092324
H  -1.154369   0.811716   1.159038
H  -1.236233   0.647654  -0.593590
H   0.079569  -1.023242   0.506022
H   0.962431  -0.020480   0.264785
H  -0.183780  -1.603967  -1.239785
