14
butane_opt
C  -3.996246   0.339690  -0.187928
C  -2.706340  -0.685504   0.326209
H  -4.751796  -0.202360  -0.725873
H  -3.771657   0.658054  -0.825384
H  -4.458858   1.402532   0.798376
C  -1.368443   0.086170   0.157479
H  -2.804035  -1.170041  -0.407329
H  -2.930226  -1.404865   1.155989
C  -0.093400  -0.612589  -0.130011
H  -1.042083   0.664195   0.964389
H  -1.651260   0.626921  -0.630197
H  -0.255769  -1.188058   0.724489
H   0.838203   0.080549  -0.288746
H  -0.272423  -1.460308  -1.297279
