14
butane_opt
C  -4.022080   0.317033  -0.123194
C  -2.740228  -0.690041   0.226962
H  -4.617799  -0.156541   0.080643
H  -3.982212   1.441770  -1.318538
H  -4.108774   0.850886   0.641316
C  -1.346641   0.128963   0.079008
H  -2.539681  -1.174802  -0.430887
H  -2.753746  -1.807835   1.432090
C  -0.160163  -0.614071  -0.072028
H  -1.154786   0.877801   1.038249
H  -1.201286   0.521396  -0.759041
H  -0.239680  -0.325376   0.330655
H   0.700869  -0.064138   0.477591
H   0.054072  -2.283999  -1.531813
