14
butane_opt
C  -3.954836   0.325321  -0.179977
C  -2.590683  -0.717010   0.148505
H  -4.697244  -0.112355  -0.094517
H  -4.032042   1.107589  -1.161957
H  -3.771307   0.833713   0.616012
C  -1.412094   0.136777   0.306479
H  -2.456600  -1.136691  -0.506041
H  -2.798459  -1.550673   1.229006
C  -0.268335  -0.630368  -0.157612
H  -1.142092   0.889844   1.201352
H  -1.566457   0.457350  -0.514048
H   0.068628  -1.344484   0.853505
H   0.658960  -0.003402  -0.581746
H  -0.627489  -0.935623  -1.008923
