butane_opt
 OpenBabel08242015403D

 14 13  0  0  0  0  0  0  0  0999 V2000
   -3.9680    0.2190    0.1865 C   0  0  0  0  0  0  0  0  0  0  0  0
   -2.7420   -0.5333   -0.2473 C   0  0  0  0  0  0  0  0  0  0  0  0
   -4.8793   -0.4103    0.8087 H   0  0  0  0  0  0  0  0  0  0  0  0
   -4.6163    0.9093   -0.8566 H   0  0  0  0  0  0  0  0  0  0  0  0
   -3.3606    0.4075    0.8685 H   0  0  0  0  0  0  0  0  0  0  0  0
   -1.4504    0.2360   -0.1030 C   0  0  0  0  0  0  0  0  0  0  0  0
   -2.9907   -1.1691   -1.0460 H   0  0  0  0  0  0  0  0  0  0  0  0
   -2.8637   -1.1373    0.6517 H   0  0  0  0  0  0  0  0  0  0  0  0
   -0.0003   -0.7271    0.1994 C   0  0  0  0  0  0  0  0  0  0  0  0
   -1.6560    0.8809    0.6690 H   0  0  0  0  0  0  0  0  0  0  0  0
   -1.4293    0.8866   -0.9461 H   0  0  0  0  0  0  0  0  0  0  0  0
   -0.1207   -1.5208    1.2427 H   0  0  0  0  0  0  0  0  0  0  0  0
    0.7576   -0.2713    0.2430 H   0  0  0  0  0  0  0  0  0  0  0  0
    0.0743   -1.3852   -0.6512 H   0  0  0  0  0  0  0  0  0  0  0  0
  1  3  1  0  0  0  0
  1  5  1  0  0  0  0
  2  6  1  0  0  0  0
  2  1  1  0  0  0  0
  2  8  1  0  0  0  0
  4  1  1  0  0  0  0
  6  9  1  0  0  0  0
  6 10  1  0  0  0  0
  7  2  1  0  0  0  0
  9 13  1  0  0  0  0
  9 12  1  0  0  0  0
 11  6  1  0  0  0  0
 14  9  1  0  0  0  0
M  END
$$$$
