14
butane_opt
C  -3.971305   0.299128  -0.187494
C  -2.743215  -0.682346   0.223314
H  -4.696121  -0.217800  -0.143349
H  -3.858777   1.146088  -1.265534
H  -4.465631   0.913506   0.619311
C  -1.338951   0.165074   0.304684
H  -2.435749  -1.351630  -0.515498
H  -2.844833  -1.326060   1.069122
C  -0.133725  -0.683118  -0.165896
H  -0.980375   1.029960   1.255078
H  -1.583001   0.858305  -0.675001
H  -0.039864  -1.479337   0.731520
H   0.824017   0.074968  -0.640437
H  -0.677895  -1.286790  -1.057338
