butane_opt
 OpenBabel08242015403D

 14 12  0  0  0  0  0  0  0  0999 V2000
   -4.0357    0.3404   -0.1756 C   0  0  0  0  0  0  0  0  0  0  0  0
   -2.6827   -0.6859    0.2012 C   0  0  0  0  0  0  0  0  0  0  0  0
   -4.8709   -0.2538   -0.2133 H   0  0  0  0  0  0  0  0  0  0  0  0
   -3.9406    1.1189   -1.1937 H   0  0  0  0  0  0  0  0  0  0  0  0
   -3.9991    0.9204    0.5514 H   0  0  0  0  0  0  0  0  0  0  0  0
   -1.3709    0.1140    0.2167 C   0  0  0  0  0  0  0  0  0  0  0  0
   -2.6365   -1.2189   -0.5541 H   0  0  0  0  0  0  0  0  0  0  0  0
   -2.8180   -1.5344    1.4290 H   0  0  0  0  0  0  0  0  0  0  0  0
   -0.1574   -0.6117   -0.1545 C   0  0  0  0  0  0  0  0  0  0  0  0
   -1.2924    1.0775    1.3681 H   0  0  0  0  0  0  0  0  0  0  0  0
   -1.2054    0.2872   -0.3225 H   0  0  0  0  0  0  0  0  0  0  0  0
    0.3023   -1.4019    0.8210 H   0  0  0  0  0  0  0  0  0  0  0  0
    0.8894   -0.0174   -0.6216 H   0  0  0  0  0  0  0  0  0  0  0  0
   -0.5471   -1.2679   -0.9305 H   0  0  0  0  0  0  0  0  0  0  0  0
  1  2  1  0  0  0  0
  1  5  1  0  0  0  0
  2  6  1  0  0  0  0
  2  8  1  0  0  0  0
  3  1  1  0  0  0  0
  4  1  1  0  0  0  0
  6 10  1  0  0  0  0
  7  2  1  0  0  0  0
  9 12  1  0  0  0  0
 11  9  1  0  0  0  0
 13  9  1  0  0  0  0
 14  9  1  0  0  0  0
M  RAD  1   6   3
M  END
$$$$
