14
butane_opt
C  -3.924987   0.252982   0.040656
C  -2.708050  -0.602408   0.004556
H  -4.813948  -0.333756   0.156352
H  -3.966808   0.867553  -0.846123
H  -3.907945   0.880332   0.860298
C  -1.417530   0.203666  -0.010117
H  -2.770895  -1.330619  -0.897683
H  -2.712573  -1.151597   0.871517
C  -0.167333  -0.709927   0.059238
H  -1.366223   0.862421   0.835377
H  -1.413091   0.834271  -0.897120
H  -0.111891  -1.369508   0.985382
H   0.768397  -0.115415  -0.009678
H  -0.115789  -1.342836  -0.742318
