butane_opt
 OpenBabel08242015403D

 14  9  0  0  0  0  0  0  0  0999 V2000
   -3.9458    0.3190    0.0593 C   0  0  0  0  0  0  0  0  0  0  0  0
   -2.6874   -0.6427    0.0292 C   0  0  0  0  0  0  0  0  0  0  0  0
   -4.7020   -0.2641   -0.7062 H   0  0  0  0  0  0  0  0  0  0  0  0
   -3.4784    0.2885   -0.4296 H   0  0  0  0  0  0  0  0  0  0  0  0
   -4.1061    1.6406    1.2336 H   0  0  0  0  0  0  0  0  0  0  0  0
   -1.4160    0.1130   -0.0137 C   0  0  0  0  0  0  0  0  0  0  0  0
   -2.8075   -1.3686   -0.8628 H   0  0  0  0  0  0  0  0  0  0  0  0
   -2.4839   -1.2686    0.9720 H   0  0  0  0  0  0  0  0  0  0  0  0
   -0.2215   -0.6534    0.0889 C   0  0  0  0  0  0  0  0  0  0  0  0
   -1.4353    0.4150    0.6048 H   0  0  0  0  0  0  0  0  0  0  0  0
   -1.2207    1.0813   -1.2801 H   0  0  0  0  0  0  0  0  0  0  0  0
   -0.2255   -1.5141    1.1377 H   0  0  0  0  0  0  0  0  0  0  0  0
    1.0318    0.1955   -0.3858 H   0  0  0  0  0  0  0  0  0  0  0  0
   -0.4245   -1.2596   -0.7523 H   0  0  0  0  0  0  0  0  0  0  0  0
  2  8  1  0  0  0  0
  3  1  1  0  0  0  0
  4  1  1  0  0  0  0
  6  2  1  0  0  0  0
  6  9  1  0  0  0  0
  6 10  1  0  0  0  0
  7  2  1  0  0  0  0
  9 12  1  0  0  0  0
 14  9  1  0  0  0  0
M  RAD  7   1   3   2   2   5   2   6   2   9   2  11   2  13   2
M  END
$$$$
