14
butane_opt
C  -4.053297   0.279051  -0.120336
C  -2.731778  -0.639345   0.250513
H  -4.932853  -0.191147  -1.059355
H  -3.574485   0.371433  -0.822684
H  -4.253590   1.242037   0.760139
C  -1.415725   0.191192   0.149380
H  -2.629074  -0.913531  -0.334296
H  -2.534368  -1.590195   1.474929
C  -0.068698  -0.674940  -0.133751
H  -1.250068   0.809924   0.986598
H  -1.369913   0.724997  -0.684559
H   0.112391  -1.265796   0.630818
H   0.846272  -0.024946  -0.187564
H  -0.235824  -1.518916  -1.093229
