14
butane_opt
C  -3.831721   0.251137  -0.116757
C  -2.745476  -0.573021   0.249025
H  -4.903298  -0.677070  -0.431747
H  -3.499014   0.802703  -0.973104
H  -4.138951   0.863295   0.670974
C  -1.460496   0.276560   0.092990
H  -2.654042  -1.301273  -0.499313
H  -2.676418  -1.381084   1.193564
C  -0.206296  -0.742380  -0.056251
H  -1.160279   0.936416   1.012799
H  -1.561912   0.964790  -0.745565
H   0.004891  -1.083949   0.595723
H   0.634578  -0.242769  -0.081096
H  -0.124686  -1.939660  -1.383029
