14
butane_opt
C  -3.904604   0.175391   0.075554
C  -2.651891  -0.492335   0.021576
H  -5.146090  -0.614338   0.340564
H  -3.862999   0.923066  -0.849174
H  -3.829639   0.985821   1.000339
C  -1.449714   0.216502  -0.146753
H  -2.708930  -1.446827  -0.869935
H  -2.538928  -1.052759   0.836334
C  -0.208785  -0.744804   0.094873
H  -1.322855   0.808778   0.719724
H  -1.580339   0.947654  -1.054045
H  -0.391132  -1.079760   0.817376
H   0.690354  -0.101365   0.718238
H   0.296702  -1.735861  -0.765145
