butane_opt
 OpenBabel08242015403D

 14  9  0  0  0  0  0  0  0  0999 V2000
   -3.9588    0.2816    0.1001 C   0  0  0  0  0  1  0  0  0  0  0  0
   -2.7713   -0.5735   -0.0831 C   0  0  0  0  0  0  0  0  0  0  0  0
   -4.9131   -0.3741   -0.5083 H   0  0  0  0  0  0  0  0  0  0  0  0
   -3.8498   -0.0407   -0.1230 H   0  0  0  0  0  0  0  0  0  0  0  0
   -3.9372    1.5599    1.4502 H   0  0  0  0  0  0  0  0  0  0  0  0
   -1.3682    0.1552   -0.0923 C   0  0  0  0  0  0  0  0  0  0  0  0
   -2.7315   -1.2498   -0.8252 H   0  0  0  0  0  0  0  0  0  0  0  0
   -2.5394   -1.2037    0.9074 H   0  0  0  0  0  0  0  0  0  0  0  0
   -0.1293   -0.6938    0.1398 C   0  0  0  0  0  0  0  0  0  0  0  0
   -1.3651    0.5596    0.4342 H   0  0  0  0  0  0  0  0  0  0  0  0
   -1.2900    1.1502   -1.1390 H   0  0  0  0  0  0  0  0  0  0  0  0
   -0.2444   -1.7565    1.4186 H   0  0  0  0  0  0  0  0  0  0  0  0
    0.6180   -0.2108   -0.2823 H   0  0  0  0  0  0  0  0  0  0  0  0
   -0.0286   -1.0008   -0.5725 H   0  0  0  0  0  0  0  0  0  0  0  0
  2  8  1  0  0  0  0
  3  1  1  0  0  0  0
  4  2  1  0  0  0  0
  6  9  1  0  0  0  0
  6 10  1  0  0  0  0
  7  2  1  0  0  0  0
 11  6  1  0  0  0  0
 13  9  1  0  0  0  0
 14  9  1  0  0  0  0
M  RAD  5   2   2   5   2   6   2   9   2  12   2
M  END
$$$$
