14
butane_opt
C  -3.933715   0.284124   0.117362
C  -2.614536  -0.638143  -0.146182
H  -4.745931  -0.392417   0.831850
H  -4.466194   1.291953  -0.949859
H  -3.969345   0.699654   0.731148
C  -1.425075   0.106047  -0.098467
H  -2.905900  -1.276856  -0.913380
H  -2.534695  -1.156868   0.749403
C  -0.192560  -0.644655   0.144787
H  -1.301305   1.037033   0.995356
H  -1.480608   0.573830  -0.909062
H  -0.400308  -1.252225   1.137567
H   0.911771   0.095777   0.228874
H  -0.137659  -1.357416  -0.697206
