14
butane_opt
C  -4.051429   0.280455   0.053269
C  -2.679527  -0.656341   0.029667
H  -4.678379  -0.114744  -0.188464
H  -4.001895   0.656113  -0.708865
H  -4.144024   1.045996   1.030350
C  -1.340171   0.178222  -0.008458
H  -2.619971  -1.728508  -1.065441
H  -2.765994  -1.041946   0.710397
C  -0.157776  -0.640059   0.088941
H  -1.284749   0.822659   0.857581
H  -1.406148   0.957948  -1.109514
H   0.032160  -1.699381   1.229050
H   0.617827  -0.185105  -0.526978
H  -0.073598  -1.095520  -0.691657
