14
butane_opt
C  -3.994357   0.291060  -0.164133
C  -2.713777  -0.651461   0.339181
H  -4.836777  -0.181838  -0.783427
H  -3.639215   0.833951  -0.987077
H  -4.548773   1.296504   0.676161
C  -1.408067   0.127538   0.214639
H  -2.419327  -1.365173  -0.510083
H  -2.848328  -1.394607   1.319646
C  -0.130139  -0.650380  -0.212493
H  -1.291466   0.570518   0.859045
H  -1.473051   0.662172  -0.729743
H   0.088067  -1.094101   0.548112
H   0.993855   0.203192   0.052539
H  -0.145498  -1.357018  -1.101485
