14
butane_opt
C  -3.921592   0.342062  -0.191087
C  -2.656366  -0.716303   0.308621
H  -4.875071  -0.302975  -0.341555
H  -3.529525   0.875496  -1.126465
H  -4.374075   1.124924   0.731734
C  -1.393774   0.134246   0.188627
H  -2.533515  -1.250159  -0.505862
H  -2.928005  -1.479729   1.439014
C  -0.218160  -0.640777  -0.216808
H  -1.116203   1.099657   1.198730
H  -1.405491   0.597974  -0.639549
H  -0.343472  -1.007528   0.706260
H   0.583841  -0.235158  -0.034029
H  -0.210988  -1.353488  -1.052470
