butane_opt
 OpenBabel08242015403D

 14 10  0  0  0  0  0  0  0  0999 V2000
   -3.9136    0.3285    0.1668 C   0  0  0  0  0  0  0  0  0  0  0  0
   -2.6708   -0.6832   -0.1057 C   0  0  0  0  0  0  0  0  0  0  0  0
   -4.6834   -0.1875    0.4041 H   0  0  0  0  0  0  0  0  0  0  0  0
   -4.3302    0.9333   -0.5472 H   0  0  0  0  0  0  0  0  0  0  0  0
   -3.7154    1.0290    1.2079 H   0  0  0  0  0  0  0  0  0  0  0  0
   -1.3786    0.0692   -0.1692 C   0  0  0  0  0  1  0  0  0  0  0  0
   -2.7374   -1.4626   -1.1115 H   0  0  0  0  0  0  0  0  0  0  0  0
   -2.6234   -1.0192    0.6732 H   0  0  0  0  0  0  0  0  0  0  0  0
   -0.2100   -0.6030    0.1701 C   0  0  0  0  0  0  0  0  0  0  0  0
   -1.6795    0.3367    0.2891 H   0  0  0  0  0  0  0  0  0  0  0  0
   -1.2208    1.0865   -1.4053 H   0  0  0  0  0  0  0  0  0  0  0  0
   -0.6761   -1.0312    1.1383 H   0  0  0  0  0  0  0  0  0  0  0  0
    0.6879    0.0257    0.9566 H   0  0  0  0  0  0  0  0  0  0  0  0
    0.0003   -1.5314   -0.9110 H   0  0  0  0  0  0  0  0  0  0  0  0
  1  3  1  0  0  0  0
  1  5  1  0  0  0  0
  2 10  1  0  0  0  0
  2  8  1  0  0  0  0
  4  1  1  0  0  0  0
  6  9  1  0  0  0  0
  7  2  1  0  0  0  0
  9 13  1  0  0  0  0
  9 12  1  0  0  0  0
 14  9  1  0  0  0  0
M  RAD  3   1   2   2   2  11   2
M  END
$$$$
