14
butane_opt
C  -3.877731   0.187555  -0.149250
C  -2.722695  -0.483225   0.238323
H  -4.869296  -0.593688   0.123461
H  -3.817927   1.155252  -1.277120
H  -3.888651   0.581913   0.632809
C  -1.412798   0.195190   0.073971
H  -3.010481  -0.763734  -0.281632
H  -2.771412  -1.363008   1.341159
C  -0.126639  -0.753351  -0.100904
H  -1.443188   1.121317   1.229525
H  -1.658745   0.749105  -0.691109
H  -0.531651  -0.692598   0.326116
H   0.707948  -0.192816   0.656880
H  -0.009099  -2.280848  -1.517461
