14
butane_opt
C  -3.907440   0.224257   0.111312
C  -2.731420  -0.550457   0.002928
H  -4.839704  -0.352309  -0.739633
H  -3.537662   0.212399  -0.415032
H  -3.942141   1.799588   1.552096
C  -1.438191   0.205563  -0.083821
H  -2.715636  -1.506563  -0.991907
H  -2.850780  -1.249287   0.833202
C  -0.146966  -0.740686   0.119312
H  -1.676873   0.422638   0.413741
H  -1.233299   1.262264  -1.240388
H  -0.283842  -1.616086   1.291954
H   0.862623  -0.000812  -0.321396
H  -0.129472  -1.096971  -0.654684
