14
butane_opt
C  -3.858158   0.257579   0.219879
C  -2.722920  -0.544275  -0.197882
H  -4.785873  -0.418564   0.568263
H  -4.184096   1.126089  -0.737907
H  -3.447492   0.381044   0.662795
C  -1.477974   0.170409  -0.101915
H  -2.795502  -1.379654  -1.229557
H  -2.700312  -0.907441   0.600870
C  -0.191979  -0.725603   0.194331
H  -1.668606   0.621861   0.513635
H  -1.107700   0.910816  -1.139143
H  -0.143669  -1.226239   1.080519
H   0.899287  -0.005718   0.247256
H  -0.102795  -1.453863  -0.558384
