butane_opt
 OpenBabel08242015403D

 14 11  0  0  0  0  0  0  0  0999 V2000
   -3.9386    0.1713    0.0709 C   0  0  0  0  0  0  0  0  0  0  0  0
   -2.7519   -0.5541   -0.0679 C   0  0  0  0  0  0  0  0  0  0  0  0
   -4.6342   -0.3015    0.1223 H   0  0  0  0  0  0  0  0  0  0  0  0
   -3.9436    0.7345   -0.7394 H   0  0  0  0  0  0  0  0  0  0  0  0
   -3.9886    0.9065    1.0355 H   0  0  0  0  0  0  0  0  0  0  0  0
   -1.4184    0.2915    0.0229 C   0  0  0  0  0  0  0  0  0  0  0  0
   -2.8993   -1.2073   -0.9476 H   0  0  0  0  0  0  0  0  0  0  0  0
   -2.9087   -0.9102    0.5575 H   0  0  0  0  0  0  0  0  0  0  0  0
   -0.0981   -0.7796    0.0374 C   0  0  0  0  0  0  0  0  0  0  0  0
   -1.4732    1.0932    0.9998 H   0  0  0  0  0  0  0  0  0  0  0  0
   -1.2831    0.8008   -0.8825 H   0  0  0  0  0  0  0  0  0  0  0  0
    0.0777   -2.0863    1.3880 H   0  0  0  0  0  0  0  0  0  0  0  0
    0.6371   -0.2823   -0.4959 H   0  0  0  0  0  0  0  0  0  0  0  0
   -0.1022   -0.7658   -0.2738 H   0  0  0  0  0  0  0  0  0  0  0  0
  1  3  1  0  0  0  0
  1  5  1  0  0  0  0
  2  6  1  0  0  0  0
  2  1  1  0  0  0  0
  2  8  1  0  0  0  0
  4  1  1  0  0  0  0
  6  9  1  0  0  0  0
  6 10  1  0  0  0  0
  7  2  1  0  0  0  0
 11  6  1  0  0  0  0
 13  9  1  0  0  0  0
M  RAD  3   9   3  12   2  14   2
M  END
$$$$
