14
butane_opt
C  -3.842805   0.254243   0.072473
C  -2.748116  -0.478179  -0.119171
H  -5.067427  -0.623238   0.151250
H  -4.045145   0.404557  -0.542046
H  -3.581901   0.918130   0.988801
C  -1.425249   0.174087   0.020694
H  -2.560705  -1.238128  -0.946919
H  -2.813217  -1.159926   0.708802
C  -0.197141  -0.726711   0.062274
H  -1.615451   0.813186   0.921492
H  -1.237760   0.788159  -0.817650
H   0.162967  -2.064397   1.467089
H   0.656522  -0.286022  -0.515248
H  -0.346265  -0.714719  -0.314718
