butane_opt
 OpenBabel08242015403D

 14 13  0  0  0  0  0  0  0  0999 V2000
   -3.9345    0.2650   -0.0020 C   0  0  0  0  0  0  0  0  0  0  0  0
   -2.6964   -0.6137    0.0631 C   0  0  0  0  0  0  0  0  0  0  0  0
   -4.8590   -0.3263    0.0967 H   0  0  0  0  0  0  0  0  0  0  0  0
   -3.9385    0.9901   -0.9614 H   0  0  0  0  0  0  0  0  0  0  0  0
   -3.9883    0.8803    0.7916 H   0  0  0  0  0  0  0  0  0  0  0  0
   -1.4058    0.1690    0.0296 C   0  0  0  0  0  0  0  0  0  0  0  0
   -2.6811   -1.2648   -0.7622 H   0  0  0  0  0  0  0  0  0  0  0  0
   -2.7376   -1.2907    0.9758 H   0  0  0  0  0  0  0  0  0  0  0  0
   -0.1704   -0.6864    0.0084 C   0  0  0  0  0  0  0  0  0  0  0  0
   -1.3988    0.8915    0.9235 H   0  0  0  0  0  0  0  0  0  0  0  0
   -1.4259    0.7657   -0.8267 H   0  0  0  0  0  0  0  0  0  0  0  0
   -0.1717   -1.2163    0.8358 H   0  0  0  0  0  0  0  0  0  0  0  0
    0.7652   -0.0720    0.0767 H   0  0  0  0  0  0  0  0  0  0  0  0
   -0.1090   -1.4340   -0.9129 H   0  0  0  0  0  0  0  0  0  0  0  0
  1  2  1  0  0  0  0
  1  3  1  0  0  0  0
  1  5  1  0  0  0  0
  2  8  1  0  0  0  0
  4  1  1  0  0  0  0
  6  2  1  0  0  0  0
  6 10  1  0  0  0  0
  7  2  1  0  0  0  0
  9  6  1  0  0  0  0
  9 13  1  0  0  0  0
  9 12  1  0  0  0  0
 11  6  1  0  0  0  0
 14  9  1  0  0  0  0
M  END
$$$$
