14
butane_opt
C  -3.945388   0.206798  -0.071090
C  -2.795965  -0.566194   0.161348
H  -4.888319  -0.441091  -0.295795
H  -3.577210   0.928083  -1.059841
H  -4.256809   0.774436   0.570457
C  -1.452959   0.226873   0.149901
H  -2.576501  -1.302511  -0.732333
H  -2.747019  -1.025162   0.900635
C  -0.007583  -0.756694  -0.067687
H  -1.410479   1.204472   1.175387
H  -1.644873   0.817949  -0.513773
H   0.164926  -1.505059   0.919532
H   0.786922  -0.219741  -0.840454
H  -0.406074  -1.079726  -0.749776
