14
butane_opt
C  -3.895969   0.319211  -0.159639
C  -2.684225  -0.704987   0.355895
H  -4.765726  -0.206509  -1.062256
H  -3.541752   0.757539  -1.054763
H  -4.470595   1.256705   0.871382
C  -1.405948   0.131721   0.187237
H  -2.493201  -1.293002  -0.459860
H  -2.927968  -1.569063   1.389847
C  -0.173764  -0.627362  -0.195693
H  -1.362125   0.958531   1.005611
H  -1.638788   0.854191  -0.756659
H  -0.280924  -1.114773   0.536038
H   0.730641  -0.141702  -0.063625
H  -0.358050  -1.402653  -1.212955
