butane_opt
 OpenBabel08242015403D

 14 11  0  0  0  0  0  0  0  0999 V2000
   -3.9613    0.2504   -0.1040 C   0  0  0  0  0  0  0  0  0  0  0  0
   -2.7346   -0.6341    0.1273 C   0  0  0  0  0  0  0  0  0  0  0  0
   -5.0024   -0.5274   -0.0195 H   0  0  0  0  0  0  0  0  0  0  0  0
   -3.7890    0.8561   -0.9952 H   0  0  0  0  0  0  0  0  0  0  0  0
   -3.9484    0.9370    0.8021 H   0  0  0  0  0  0  0  0  0  0  0  0
   -1.3933    0.2629    0.1911 C   0  0  0  0  0  0  0  0  0  0  0  0
   -2.6037   -1.4363   -0.9005 H   0  0  0  0  0  0  0  0  0  0  0  0
   -2.8251   -0.9908    0.7495 H   0  0  0  0  0  0  0  0  0  0  0  0
   -0.1348   -0.7256   -0.0738 C   0  0  0  0  0  0  0  0  0  0  0  0
   -1.4041    0.9679    1.0339 H   0  0  0  0  0  0  0  0  0  0  0  0
   -1.6401    0.8580   -0.5517 H   0  0  0  0  0  0  0  0  0  0  0  0
    0.4634   -1.7236    1.0544 H   0  0  0  0  0  0  0  0  0  0  0  0
    0.6554   -0.3639   -0.9304 H   0  0  0  0  0  0  0  0  0  0  0  0
   -0.2329   -0.8885   -0.4343 H   0  0  0  0  0  0  0  0  0  0  0  0
  1  3  1  0  0  0  0
  1  2  1  0  0  0  0
  1  5  1  0  0  0  0
  2  6  1  0  0  0  0
  2  8  1  0  0  0  0
  4  1  1  0  0  0  0
  6 10  1  0  0  0  0
  7  2  1  0  0  0  0
  9  6  1  0  0  0  0
 11  6  1  0  0  0  0
 13  9  1  0  0  0  0
M  RAD  3   9   3  12   2  14   2
M  END
$$$$
