butane_opt
 OpenBabel08242015403D

 14 13  0  0  0  0  0  0  0  0999 V2000
   -3.9202    0.3077    0.0973 C   0  0  0  0  0  0  0  0  0  0  0  0
   -2.7072   -0.6103   -0.1124 C   0  0  0  0  0  0  0  0  0  0  0  0
   -4.7114   -0.1951    0.6599 H   0  0  0  0  0  0  0  0  0  0  0  0
   -4.1482    0.9443   -0.8610 H   0  0  0  0  0  0  0  0  0  0  0  0
   -3.6141    0.8696    1.0042 H   0  0  0  0  0  0  0  0  0  0  0  0
   -1.3731    0.0653   -0.1063 C   0  0  0  0  0  0  0  0  0  0  0  0
   -2.8536   -1.1380   -0.9612 H   0  0  0  0  0  0  0  0  0  0  0  0
   -2.5899   -1.2944    0.8149 H   0  0  0  0  0  0  0  0  0  0  0  0
   -0.1955   -0.6287    0.1602 C   0  0  0  0  0  0  0  0  0  0  0  0
   -1.7991    0.8154    0.7767 H   0  0  0  0  0  0  0  0  0  0  0  0
   -1.2601    0.5977   -0.9353 H   0  0  0  0  0  0  0  0  0  0  0  0
   -0.3823   -1.2201    1.1053 H   0  0  0  0  0  0  0  0  0  0  0  0
    0.8698    0.1357    0.1330 H   0  0  0  0  0  0  0  0  0  0  0  0
   -0.2452   -1.5455   -0.8030 H   0  0  0  0  0  0  0  0  0  0  0  0
  1  3  1  0  0  0  0
  1  5  1  0  0  0  0
  2  6  1  0  0  0  0
  2  1  1  0  0  0  0
  2  8  1  0  0  0  0
  4  1  1  0  0  0  0
  6  9  1  0  0  0  0
  6 10  1  0  0  0  0
  7  2  1  0  0  0  0
  9 12  1  0  0  0  0
 11  6  1  0  0  0  0
 13  9  1  0  0  0  0
 14  9  1  0  0  0  0
M  END
$$$$
