butane_opt
 OpenBabel08242015403D

 14 13  0  0  0  0  0  0  0  0999 V2000
   -4.0283    0.2924    0.1755 C   0  0  0  0  0  0  0  0  0  0  0  0
   -2.6535   -0.7158   -0.1327 C   0  0  0  0  0  0  0  0  0  0  0  0
   -4.7262   -0.0427    0.1826 H   0  0  0  0  0  0  0  0  0  0  0  0
   -4.3349    0.8871   -0.6813 H   0  0  0  0  0  0  0  0  0  0  0  0
   -3.8904    1.2928    1.2978 H   0  0  0  0  0  0  0  0  0  0  0  0
   -1.3662    0.1430   -0.2445 C   0  0  0  0  0  0  0  0  0  0  0  0
   -2.8130   -1.1037   -0.7216 H   0  0  0  0  0  0  0  0  0  0  0  0
   -2.4359   -1.4321    0.8933 H   0  0  0  0  0  0  0  0  0  0  0  0
   -0.1882   -0.6387    0.2181 C   0  0  0  0  0  0  0  0  0  0  0  0
   -1.3310    0.6192    0.5342 H   0  0  0  0  0  0  0  0  0  0  0  0
   -1.1451    0.7374   -1.2007 H   0  0  0  0  0  0  0  0  0  0  0  0
   -0.3465   -0.8068    0.9396 H   0  0  0  0  0  0  0  0  0  0  0  0
    0.7401    0.0835    0.8005 H   0  0  0  0  0  0  0  0  0  0  0  0
    0.0652   -1.6583   -0.8300 H   0  0  0  0  0  0  0  0  0  0  0  0
  1  3  1  0  0  0  0
  1  5  1  0  0  0  0
  2  1  1  0  0  0  0
  2  8  1  0  0  0  0
  4  1  1  0  0  0  0
  6  2  1  0  0  0  0
  6  9  1  0  0  0  0
  6 10  1  0  0  0  0
  7  2  1  0  0  0  0
  9 13  1  0  0  0  0
  9 12  1  0  0  0  0
 11  6  1  0  0  0  0
 14  9  1  0  0  0  0
M  END
$$$$
