butane_opt
 OpenBabel08242015403D

 14 10  0  0  0  0  0  0  0  0999 V2000
   -3.9955    0.2550   -0.0831 C   0  0  0  0  0  0  0  0  0  0  0  0
   -2.6721   -0.6962    0.1458 C   0  0  0  0  0  0  0  0  0  0  0  0
   -4.8892   -0.2661    0.4399 H   0  0  0  0  0  0  0  0  0  0  0  0
   -4.2360    1.4398   -1.3236 H   0  0  0  0  0  0  0  0  0  0  0  0
   -3.9940    0.7026    0.5521 H   0  0  0  0  0  0  0  0  0  0  0  0
   -1.3653    0.2250    0.0881 C   0  0  0  0  0  0  0  0  0  0  0  0
   -2.7598   -1.3119   -0.6358 H   0  0  0  0  0  0  0  0  0  0  0  0
   -2.7824   -1.2716    1.2030 H   0  0  0  0  0  0  0  0  0  0  0  0
   -0.1483   -0.7021   -0.0511 C   0  0  0  0  0  0  0  0  0  0  0  0
   -1.3805    0.8336    0.9032 H   0  0  0  0  0  0  0  0  0  0  0  0
   -1.6580    1.0142   -0.8375 H   0  0  0  0  0  0  0  0  0  0  0  0
    0.0139   -0.5835    0.3901 H   0  0  0  0  0  0  0  0  0  0  0  0
    0.8609   -0.0031    0.7134 H   0  0  0  0  0  0  0  0  0  0  0  0
   -0.0249   -2.0100   -1.2497 H   0  0  0  0  0  0  0  0  0  0  0  0
  1  2  1  0  0  0  0
  1  3  1  0  0  0  0
  1  5  1  0  0  0  0
  2  8  1  0  0  0  0
  6  2  1  0  0  0  0
  6 10  1  0  0  0  0
  7  2  1  0  0  0  0
  9  6  1  0  0  0  0
  9 13  1  0  0  0  0
 11  6  1  0  0  0  0
M  RAD  5   1   2   4   2   9   3  12   2  14   2
M  END
$$$$
