14
butane_opt
C  -3.946970   0.273171   0.032100
C  -2.688654  -0.630385   0.031069
H  -4.841129  -0.311721   0.052415
H  -4.021682   0.911548  -0.851726
H  -3.964707   0.943704   0.899477
C  -1.394652   0.174941  -0.009794
H  -2.693639  -1.318828  -0.811402
H  -2.687052  -1.229845   0.915914
C  -0.181476  -0.678063   0.044804
H  -1.418848   0.783353   0.807645
H  -1.362869   0.846013  -0.947492
H  -0.181432  -1.250396   0.893653
H   0.760959  -0.070180   0.152027
H  -0.081639  -1.444442  -0.858597
