butane_opt
 OpenBabel08242015403D

 14 11  0  0  0  0  0  0  0  0999 V2000
   -3.9395    0.3659   -0.0538 C   0  0  0  0  0  0  0  0  0  0  0  0
   -2.7010   -0.6614    0.1424 C   0  0  0  0  0  0  0  0  0  0  0  0
   -4.7700   -0.3585    0.0039 H   0  0  0  0  0  0  0  0  0  0  0  0
   -3.8574    0.9046   -0.8186 H   0  0  0  0  0  0  0  0  0  0  0  0
   -3.8508    0.9161    0.8446 H   0  0  0  0  0  0  0  0  0  0  0  0
   -1.3950    0.0691    0.0383 C   0  0  0  0  0  0  0  0  0  0  0  0
   -2.2274   -1.4441   -0.8496 H   0  0  0  0  0  0  0  0  0  0  0  0
   -2.6852   -1.3711    1.1265 H   0  0  0  0  0  0  0  0  0  0  0  0
   -0.2159   -0.6143    0.0131 C   0  0  0  0  0  0  0  0  0  0  0  0
   -1.2667    0.6813    0.8232 H   0  0  0  0  0  0  0  0  0  0  0  0
   -1.2941    0.8821   -1.0084 H   0  0  0  0  0  0  0  0  0  0  0  0
   -0.5363   -0.9387    0.6923 H   0  0  0  0  0  0  0  0  0  0  0  0
    0.7867    0.1125    0.0816 H   0  0  0  0  0  0  0  0  0  0  0  0
   -0.3338   -1.7571   -1.1706 H   0  0  0  0  0  0  0  0  0  0  0  0
  1  3  1  0  0  0  0
  1  2  1  0  0  0  0
  1  5  1  0  0  0  0
  2  8  1  0  0  0  0
  4  1  1  0  0  0  0
  6 10  1  0  0  0  0
  7  2  1  0  0  0  0
  9  6  1  0  0  0  0
  9 13  1  0  0  0  0
  9 12  1  0  0  0  0
 11  6  1  0  0  0  0
M  RAD  4   2   2   6   2   9   2  14   2
M  END
$$$$
