butane_opt
 OpenBabel08242015403D

 14 11  0  0  0  0  0  0  0  0999 V2000
   -3.9237    0.2592    0.0863 C   0  0  0  0  0  0  0  0  0  0  0  0
   -2.6525   -0.6358   -0.0467 C   0  0  0  0  0  0  0  0  0  0  0  0
   -4.9080   -0.4352   -0.1968 H   0  0  0  0  0  0  0  0  0  0  0  0
   -3.8672    0.8778   -0.7155 H   0  0  0  0  0  0  0  0  0  0  0  0
   -3.9439    1.2861    1.0779 H   0  0  0  0  0  0  0  0  0  0  0  0
   -1.4271    0.1515    0.0137 C   0  0  0  0  0  0  0  0  0  0  0  0
   -2.7520   -1.4911   -1.1699 H   0  0  0  0  0  0  0  0  0  0  0  0
   -2.5969   -0.8863    0.5813 H   0  0  0  0  0  0  0  0  0  0  0  0
   -0.2095   -0.6469    0.1161 C   0  0  0  0  0  0  0  0  0  0  0  0
   -1.1429    0.6969    0.7694 H   0  0  0  0  0  0  0  0  0  0  0  0
   -1.5064    0.8112   -0.9364 H   0  0  0  0  0  0  0  0  0  0  0  0
   -0.0127   -1.9231    1.3172 H   0  0  0  0  0  0  0  0  0  0  0  0
    0.5867   -0.2380   -0.8226 H   0  0  0  0  0  0  0  0  0  0  0  0
   -0.3079   -0.7171   -0.4084 H   0  0  0  0  0  0  0  0  0  0  0  0
  1  5  1  0  0  0  0
  2  6  1  0  0  0  0
  2  1  1  0  0  0  0
  2  8  1  0  0  0  0
  3  1  1  0  0  0  0
  4  1  1  0  0  0  0
  6  9  1  0  0  0  0
  6 10  1  0  0  0  0
  7  2  1  0  0  0  0
 11  6  1  0  0  0  0
 13  9  1  0  0  0  0
M  RAD  3   9   3  12   2  14   2
M  END
$$$$
