butane_opt
 OpenBabel08242015403D

 14 13  0  0  0  0  0  0  0  0999 V2000
   -3.9402    0.2981   -0.1328 C   0  0  0  0  0  0  0  0  0  0  0  0
   -2.6766   -0.6000    0.2233 C   0  0  0  0  0  0  0  0  0  0  0  0
   -4.8089   -0.3363   -0.6018 H   0  0  0  0  0  0  0  0  0  0  0  0
   -3.2654    0.7691   -0.9438 H   0  0  0  0  0  0  0  0  0  0  0  0
   -4.4614    1.0087    0.7365 H   0  0  0  0  0  0  0  0  0  0  0  0
   -1.3936    0.1068    0.2026 C   0  0  0  0  0  0  0  0  0  0  0  0
   -2.5025   -1.1710   -0.6193 H   0  0  0  0  0  0  0  0  0  0  0  0
   -2.5759   -1.3947    1.3410 H   0  0  0  0  0  0  0  0  0  0  0  0
   -0.2225   -0.6660   -0.1184 C   0  0  0  0  0  0  0  0  0  0  0  0
   -1.0098    0.8691    1.0737 H   0  0  0  0  0  0  0  0  0  0  0  0
   -1.4696    0.8403   -0.8298 H   0  0  0  0  0  0  0  0  0  0  0  0
   -0.1120   -1.2411    0.6958 H   0  0  0  0  0  0  0  0  0  0  0  0
    0.8131   -0.0157   -0.4344 H   0  0  0  0  0  0  0  0  0  0  0  0
   -0.8140   -1.4804   -1.0476 H   0  0  0  0  0  0  0  0  0  0  0  0
  1  2  1  0  0  0  0
  1  5  1  0  0  0  0
  2  8  1  0  0  0  0
  3  1  1  0  0  0  0
  4  1  1  0  0  0  0
  6  2  1  0  0  0  0
  6 10  1  0  0  0  0
  7  2  1  0  0  0  0
  9  6  1  0  0  0  0
  9 12  1  0  0  0  0
 11  6  1  0  0  0  0
 13  9  1  0  0  0  0
 14  9  1  0  0  0  0
M  END
$$$$
