butane_opt
 OpenBabel08242015403D

 14 12  0  0  0  0  0  0  0  0999 V2000
   -3.9665    0.2216   -0.0407 C   0  0  0  0  0  0  0  0  0  0  0  0
   -2.7926   -0.5807    0.0886 C   0  0  0  0  0  0  0  0  0  0  0  0
   -5.0911   -0.5413    0.0194 H   0  0  0  0  0  0  0  0  0  0  0  0
   -3.7212    1.2021   -1.0486 H   0  0  0  0  0  0  0  0  0  0  0  0
   -3.9013    0.6091    0.5774 H   0  0  0  0  0  0  0  0  0  0  0  0
   -1.4153    0.2666    0.1714 C   0  0  0  0  0  0  0  0  0  0  0  0
   -2.6873   -1.3761   -0.8406 H   0  0  0  0  0  0  0  0  0  0  0  0
   -2.6797   -0.8254    0.7431 H   0  0  0  0  0  0  0  0  0  0  0  0
   -0.1077   -0.7708   -0.0771 C   0  0  0  0  0  0  0  0  0  0  0  0
   -1.3831    1.0317    1.1368 H   0  0  0  0  0  0  0  0  0  0  0  0
   -1.2351    0.7911   -0.7978 H   0  0  0  0  0  0  0  0  0  0  0  0
    0.4748   -1.7645    1.0748 H   0  0  0  0  0  0  0  0  0  0  0  0
    0.8090   -0.1794   -0.4603 H   0  0  0  0  0  0  0  0  0  0  0  0
   -0.2284   -1.0805   -0.6695 H   0  0  0  0  0  0  0  0  0  0  0  0
  1  3  1  0  0  0  0
  1  2  1  0  0  0  0
  1  5  1  0  0  0  0
  2  6  1  0  0  0  0
  2  8  1  0  0  0  0
  4  1  1  0  0  0  0
  6 10  1  0  0  0  0
  7  2  1  0  0  0  0
  9  6  1  0  0  0  0
 11  6  1  0  0  0  0
 13  9  1  0  0  0  0
 14  9  1  0  0  0  0
M  RAD  2   9   2  12   2
M  END
$$$$
