14
butane_opt
C  -3.888089   0.154674   0.026237
C  -2.638249  -0.519950   0.109978
H  -4.863652  -0.403228  -0.614979
H  -3.451871   0.380714  -0.681380
H  -4.101596   1.359834   1.141592
C  -1.497273   0.237216  -0.005990
H  -2.799861  -1.221547  -0.738807
H  -2.656029  -1.149037   0.902010
C  -0.202153  -0.731357   0.011217
H  -1.288465   0.900201   0.747961
H  -1.512309   1.164008  -1.211620
H  -0.102247  -1.595483   0.974876
H   0.544096  -0.234445   0.071676
H  -0.056721  -1.414688  -0.767022
