14
butane_opt
C  -3.898876   0.202844  -0.103444
C  -2.708904  -0.552825   0.092215
H  -4.995511  -0.582800   1.088757
H  -4.094375   1.630250  -1.561341
H  -3.629332   0.197378   0.470484
C  -1.445619   0.252545   0.166395
H  -2.605518  -1.474446  -0.738500
H  -2.912397  -0.945078   0.843960
C  -0.162259  -0.732170  -0.067250
H  -1.528838   1.018479   1.110108
H  -1.601366   0.688766  -0.614816
H   0.105795  -1.119958   0.646424
H   0.670689  -0.281292   0.145301
H   0.155951  -1.623868  -1.079510
