14
butane_opt
C  -3.971490   0.188851  -0.138059
C  -2.732234  -0.493184   0.266707
H  -5.094001  -0.602684  -0.269981
H  -3.772949   0.846904  -1.130016
H  -4.071726   0.905675   0.670661
C  -1.357319   0.239361   0.120608
H  -2.650714  -0.976273  -0.404073
H  -2.954846  -1.439885   1.467819
C  -0.104134  -0.744099  -0.152809
H  -1.418158   0.994115   1.009504
H  -1.486000   0.783980  -0.689503
H  -0.333275  -0.999365   0.512478
H   0.516066  -0.274274   0.390639
H   0.289984  -2.080891  -1.359706
