14
butane_opt
C  -3.924787   0.260781   0.003705
C  -2.705521  -0.597453   0.053053
H  -4.874772  -0.391450  -0.037966
H  -3.923623   0.846594  -0.909339
H  -3.952967   0.907116   0.843545
C  -1.418552   0.195973   0.028372
H  -2.736192  -1.265553  -0.808132
H  -2.719803  -1.252380   0.970184
C  -0.156225  -0.708530   0.017728
H  -1.364242   0.920429   0.925560
H  -1.445431   0.739935  -0.799224
H  -0.084014  -1.385682   0.940418
H   0.763727  -0.099545  -0.113760
H  -0.217390  -1.299570  -0.801250
