butane_opt
 OpenBabel08242015403D

 14  8  0  0  0  0  0  0  0  0999 V2000
   -3.9142    0.2299   -0.0646 C   0  0  0  0  0  0  0  0  0  0  0  0
   -2.7758   -0.6102    0.1608 C   0  0  0  0  0  0  0  0  0  0  0  0
   -4.8131   -0.2477    0.3971 H   0  0  0  0  0  0  0  0  0  0  0  0
   -4.0003    1.2644   -1.2671 H   0  0  0  0  0  0  0  0  0  0  0  0
   -3.9114    0.3105    0.5358 H   0  0  0  0  0  0  0  0  0  0  0  0
   -1.4418    0.2447    0.0674 C   0  0  0  0  0  0  0  0  0  0  0  0
   -2.4763   -1.2987   -0.6282 H   0  0  0  0  0  0  0  0  0  0  0  0
   -2.9205   -1.1981    1.0120 H   0  0  0  0  0  0  0  0  0  0  0  0
   -0.1068   -0.7411   -0.0469 C   0  0  0  0  0  0  0  0  0  0  0  0
   -1.3204    1.0474    1.0469 H   0  0  0  0  0  0  0  0  0  0  0  0
   -1.5899    0.9888   -0.7741 H   0  0  0  0  0  0  0  0  0  0  0  0
   -0.2225   -0.7386    0.4438 H   0  0  0  0  0  0  0  0  0  0  0  0
    0.7141   -0.1565    0.4507 H   0  0  0  0  0  0  0  0  0  0  0  0
    0.3695   -1.9453   -1.2796 H   0  0  0  0  0  0  0  0  0  0  0  0
  1  2  1  0  0  0  0
  1  3  1  0  0  0  0
  2  8  1  0  0  0  0
  6 10  1  0  0  0  0
  7  2  1  0  0  0  0
  9  6  1  0  0  0  0
  9 13  1  0  0  0  0
 11  6  1  0  0  0  0
M  RAD  8   1   3   2   2   4   2   5   2   6   2   9   3  12   2  14   2
M  END
$$$$
