butane_opt
 OpenBabel08242015403D

 14 12  0  0  0  0  0  0  0  0999 V2000
   -3.9179    0.2109   -0.0939 C   0  0  0  0  0  0  0  0  0  0  0  0
   -2.7769   -0.6009    0.1472 C   0  0  0  0  0  0  0  0  0  0  0  0
   -4.7796   -0.4496   -0.3852 H   0  0  0  0  0  0  0  0  0  0  0  0
   -3.9423    0.4009   -0.7938 H   0  0  0  0  0  0  0  0  0  0  0  0
   -3.8795    1.3307    1.0692 H   0  0  0  0  0  0  0  0  0  0  0  0
   -1.4227    0.3395    0.0795 C   0  0  0  0  0  0  0  0  0  0  0  0
   -2.8621   -0.9670   -0.6494 H   0  0  0  0  0  0  0  0  0  0  0  0
   -2.9232   -1.3409    1.1418 H   0  0  0  0  0  0  0  0  0  0  0  0
   -0.1122   -0.8069   -0.0376 C   0  0  0  0  0  0  0  0  0  0  0  0
   -1.2526    0.9432    0.8788 H   0  0  0  0  0  0  0  0  0  0  0  0
   -1.5173    0.8268   -0.7553 H   0  0  0  0  0  0  0  0  0  0  0  0
    0.2066   -1.4231    0.7226 H   0  0  0  0  0  0  0  0  0  0  0  0
    0.7307   -0.2432   -0.2710 H   0  0  0  0  0  0  0  0  0  0  0  0
   -0.0153   -1.2613   -0.6121 H   0  0  0  0  0  0  0  0  0  0  0  0
  1  2  1  0  0  0  0
  2  8  1  0  0  0  0
  3  1  1  0  0  0  0
  4  1  1  0  0  0  0
  6  2  1  0  0  0  0
  6 10  1  0  0  0  0
  7  2  1  0  0  0  0
  9  6  1  0  0  0  0
  9 12  1  0  0  0  0
 11  6  1  0  0  0  0
 13  9  1  0  0  0  0
 14  9  1  0  0  0  0
M  RAD  2   1   2   5   2
M  END
$$$$
