14
butane_opt
C  -3.988805   0.300513  -0.200716
C  -2.700805  -0.671459   0.261522
H  -4.730574  -0.150388  -0.435649
H  -3.720108   0.610151  -1.017860
H  -4.559086   1.213700   0.804450
C  -1.423328   0.149916   0.202448
H  -2.639766  -1.079893  -0.256659
H  -2.731301  -1.572964   1.347600
C  -0.087856  -0.643222  -0.175902
H  -0.972496   0.975384   1.180019
H  -1.516890   0.475206  -0.534507
H  -0.094285  -1.219000   0.627734
H   0.666915  -0.188634  -0.282473
H  -0.307249  -1.149336  -0.996541
