butane_opt
 OpenBabel08242015403D

 14 12  0  0  0  0  0  0  0  0999 V2000
   -3.8912    0.3113    0.1815 C   0  0  0  0  0  0  0  0  0  0  0  0
   -2.6635   -0.6772   -0.0518 C   0  0  0  0  0  0  0  0  0  0  0  0
   -4.8641   -0.1756    0.0815 H   0  0  0  0  0  0  0  0  0  0  0  0
   -4.1962    0.9239   -0.7229 H   0  0  0  0  0  0  0  0  0  0  0  0
   -4.0347    1.0058    1.0290 H   0  0  0  0  0  0  0  0  0  0  0  0
   -1.4266    0.1035   -0.1790 C   0  0  0  0  0  0  0  0  0  0  0  0
   -2.4405   -1.6446   -1.0518 H   0  0  0  0  0  0  0  0  0  0  0  0
   -2.4532   -1.2243    0.8675 H   0  0  0  0  0  0  0  0  0  0  0  0
   -0.2467   -0.5888    0.1587 C   0  0  0  0  0  0  0  0  0  0  0  0
   -1.3959    0.5811    0.5022 H   0  0  0  0  0  0  0  0  0  0  0  0
   -1.1968    1.0012   -1.2967 H   0  0  0  0  0  0  0  0  0  0  0  0
   -0.7043   -1.0700    0.9549 H   0  0  0  0  0  0  0  0  0  0  0  0
    0.6215    0.0145    0.6863 H   0  0  0  0  0  0  0  0  0  0  0  0
    0.3664   -1.6891   -0.9600 H   0  0  0  0  0  0  0  0  0  0  0  0
  1  5  1  0  0  0  0
  2  1  1  0  0  0  0
  2  8  1  0  0  0  0
  3  1  1  0  0  0  0
  4  1  1  0  0  0  0
  6  2  1  0  0  0  0
  6  9  1  0  0  0  0
  6 10  1  0  0  0  0
  7  2  1  0  0  0  0
  9 13  1  0  0  0  0
  9 12  1  0  0  0  0
 11  6  1  0  0  0  0
M  RAD  2   9   2  14   2
M  END
$$$$
