14
butane_opt
C  -3.820473   0.197577   0.099795
C  -2.685822  -0.574734  -0.062205
H  -4.857404  -0.471046   0.599057
H  -4.282044   1.324213  -1.097618
H  -3.813656   0.699619   0.832353
C  -1.455160   0.245725  -0.040992
H  -2.836354  -1.542129  -1.022390
H  -2.509093  -0.992894   0.637605
C  -0.205631  -0.765739   0.075250
H  -1.403727   0.778276   0.734926
H  -1.575083   1.072694  -1.005120
H  -0.325628  -1.154017   1.059771
H   0.748603  -0.060640   0.561956
H  -0.092576  -1.383618  -0.742429
