butane_opt
 OpenBabel08242015403D

 14 12  0  0  0  0  0  0  0  0999 V2000
   -4.0382    0.3373   -0.1384 C   0  0  0  0  0  0  0  0  0  0  0  0
   -2.6978   -0.6963    0.1670 C   0  0  0  0  0  0  0  0  0  0  0  0
   -4.8632   -0.1780   -0.2726 H   0  0  0  0  0  0  0  0  0  0  0  0
   -3.9734    1.1070   -1.1470 H   0  0  0  0  0  0  0  0  0  0  0  0
   -4.2617    1.0533    0.7072 H   0  0  0  0  0  0  0  0  0  0  0  0
   -1.3331    0.1141    0.2286 C   0  0  0  0  0  0  0  0  0  0  0  0
   -2.6996   -1.3318   -0.6307 H   0  0  0  0  0  0  0  0  0  0  0  0
   -2.7261   -1.5495    1.1277 H   0  0  0  0  0  0  0  0  0  0  0  0
   -0.1709   -0.6735   -0.1565 C   0  0  0  0  0  0  0  0  0  0  0  0
   -0.8989    1.0893    1.3186 H   0  0  0  0  0  0  0  0  0  0  0  0
   -1.3999    0.5268   -0.4587 H   0  0  0  0  0  0  0  0  0  0  0  0
    0.1822   -1.5414    0.8978 H   0  0  0  0  0  0  0  0  0  0  0  0
    0.8829    0.0711   -0.4876 H   0  0  0  0  0  0  0  0  0  0  0  0
   -0.4112   -0.6495   -0.7749 H   0  0  0  0  0  0  0  0  0  0  0  0
  1  2  1  0  0  0  0
  1  5  1  0  0  0  0
  2  6  1  0  0  0  0
  2  8  1  0  0  0  0
  3  1  1  0  0  0  0
  4  1  1  0  0  0  0
  7  2  1  0  0  0  0
  9  6  1  0  0  0  0
  9 12  1  0  0  0  0
 11  6  1  0  0  0  0
 13  9  1  0  0  0  0
 14  9  1  0  0  0  0
M  RAD  2   6   2  10   2
M  END
$$$$
