14
butane_opt
C  -3.953487   0.310047   0.062608
C  -2.656963  -0.634630  -0.065883
H  -4.923782  -0.206367   0.045316
H  -4.319669   0.735309  -0.798539
H  -3.742027   1.126535   1.027581
C  -1.368700   0.095023   0.028187
H  -2.803912  -1.594604  -1.182848
H  -2.700482  -1.009496   0.644262
C  -0.165648  -0.669457   0.106470
H  -1.344517   0.722077   0.872435
H  -1.373927   0.987636  -0.923651
H  -0.109343  -1.793344   1.288614
H   0.857682   0.035199  -0.691667
H  -0.800904  -0.670898  -0.349804
