butane_opt
 OpenBabel08242015403D

 14 11  0  0  0  0  0  0  0  0999 V2000
   -3.9715    0.1889   -0.1381 C   0  0  0  0  0  0  0  0  0  0  0  0
   -2.7322   -0.4932    0.2667 C   0  0  0  0  0  0  0  0  0  0  0  0
   -5.0940   -0.6027   -0.2700 H   0  0  0  0  0  0  0  0  0  0  0  0
   -3.7729    0.8469   -1.1300 H   0  0  0  0  0  0  0  0  0  0  0  0
   -4.0717    0.9057    0.6707 H   0  0  0  0  0  0  0  0  0  0  0  0
   -1.3573    0.2394    0.1206 C   0  0  0  0  0  0  0  0  0  0  0  0
   -2.6507   -0.9763   -0.4041 H   0  0  0  0  0  0  0  0  0  0  0  0
   -2.9548   -1.4399    1.4678 H   0  0  0  0  0  0  0  0  0  0  0  0
   -0.1041   -0.7441   -0.1528 C   0  0  0  0  0  0  0  0  0  0  0  0
   -1.4182    0.9941    1.0095 H   0  0  0  0  0  0  0  0  0  0  0  0
   -1.4860    0.7840   -0.6895 H   0  0  0  0  0  0  0  0  0  0  0  0
   -0.3333   -0.9994    0.5125 H   0  0  0  0  0  0  0  0  0  0  0  0
    0.5161   -0.2743    0.3906 H   0  0  0  0  0  0  0  0  0  0  0  0
    0.2900   -2.0809   -1.3597 H   0  0  0  0  0  0  0  0  0  0  0  0
  1  2  1  0  0  0  0
  1  5  1  0  0  0  0
  3  1  1  0  0  0  0
  4  1  1  0  0  0  0
  6  2  1  0  0  0  0
  6 10  1  0  0  0  0
  7  2  1  0  0  0  0
  9  6  1  0  0  0  0
  9 13  1  0  0  0  0
  9 12  1  0  0  0  0
 11  6  1  0  0  0  0
M  RAD  4   2   2   8   2   9   2  14   2
M  END
$$$$
