14
butane_opt
C  -3.958792   0.281617   0.100094
C  -2.771309  -0.573500  -0.083145
H  -4.913100  -0.374095  -0.508312
H  -3.849795  -0.040731  -0.123019
H  -3.937182   1.559888   1.450166
C  -1.368216   0.155175  -0.092263
H  -2.731506  -1.249816  -0.825179
H  -2.539416  -1.203721   0.907388
C  -0.129317  -0.693791   0.139795
H  -1.365136   0.559607   0.434233
H  -1.290050   1.150180  -1.138986
H  -0.244375  -1.756510   1.418586
H   0.617976  -0.210757  -0.282265
H  -0.028630  -1.000794  -0.572494
