butane_opt
 OpenBabel08242015403D

 14 12  0  0  0  0  0  0  0  0999 V2000
   -3.9572    0.2449   -0.0198 C   0  0  0  0  0  0  0  0  0  0  0  0
   -2.7334   -0.6080    0.1664 C   0  0  0  0  0  0  0  0  0  0  0  0
   -4.9160   -0.5212    0.0746 H   0  0  0  0  0  0  0  0  0  0  0  0
   -3.8389    0.8623   -1.0399 H   0  0  0  0  0  0  0  0  0  0  0  0
   -4.3130    0.8035    0.7987 H   0  0  0  0  0  0  0  0  0  0  0  0
   -1.3421    0.2616   -0.0272 C   0  0  0  0  0  0  0  0  0  0  0  0
   -2.7958   -1.3117   -0.6908 H   0  0  0  0  0  0  0  0  0  0  0  0
   -2.8552   -1.1241    1.0038 H   0  0  0  0  0  0  0  0  0  0  0  0
   -0.1430   -0.7359   -0.0214 C   0  0  0  0  0  0  0  0  0  0  0  0
   -1.3036    1.0012    0.8555 H   0  0  0  0  0  0  0  0  0  0  0  0
   -1.4013    1.1209   -0.8856 H   0  0  0  0  0  0  0  0  0  0  0  0
   -0.2948   -0.9571    0.7349 H   0  0  0  0  0  0  0  0  0  0  0  0
    0.5618   -0.4237    0.5688 H   0  0  0  0  0  0  0  0  0  0  0  0
    0.3013   -1.9535   -1.1964 H   0  0  0  0  0  0  0  0  0  0  0  0
  1  3  1  0  0  0  0
  1  2  1  0  0  0  0
  1  5  1  0  0  0  0
  2  8  1  0  0  0  0
  4  1  1  0  0  0  0
  6  9  1  0  0  0  0
  6  2  1  0  0  0  0
  6 10  1  0  0  0  0
  7  2  1  0  0  0  0
  9 13  1  0  0  0  0
  9 12  1  0  0  0  0
 11  6  1  0  0  0  0
M  RAD  2   9   2  14   2
M  END
$$$$
