14
butane_opt
C  -3.995456   0.255025  -0.083081
C  -2.672122  -0.696188   0.145775
H  -4.889239  -0.266053   0.439927
H  -4.235982   1.439822  -1.323569
H  -3.994016   0.702585   0.552074
C  -1.365320   0.224997   0.088132
H  -2.759810  -1.311916  -0.635846
H  -2.782445  -1.271574   1.202957
C  -0.148344  -0.702094  -0.051092
H  -1.380543   0.833590   0.903159
H  -1.657985   1.014196  -0.837476
H   0.013917  -0.583537   0.390081
H   0.860902  -0.003131   0.713437
H  -0.024877  -2.010032  -1.249712
