butane_opt
 OpenBabel08242015403D

 14 13  0  0  0  0  0  0  0  0999 V2000
   -3.9600    0.2816    0.0381 C   0  0  0  0  0  0  0  0  0  0  0  0
   -2.6985   -0.6300    0.0213 C   0  0  0  0  0  0  0  0  0  0  0  0
   -4.8530   -0.3074   -0.0451 H   0  0  0  0  0  0  0  0  0  0  0  0
   -4.0081    0.7498   -0.7724 H   0  0  0  0  0  0  0  0  0  0  0  0
   -3.9833    1.0725    1.0029 H   0  0  0  0  0  0  0  0  0  0  0  0
   -1.3910    0.1732   -0.0292 C   0  0  0  0  0  0  0  0  0  0  0  0
   -2.7724   -1.3213   -0.8639 H   0  0  0  0  0  0  0  0  0  0  0  0
   -2.7203   -1.2609    0.9289 H   0  0  0  0  0  0  0  0  0  0  0  0
   -0.1528   -0.6905    0.0568 C   0  0  0  0  0  0  0  0  0  0  0  0
   -1.3820    0.8142    0.8110 H   0  0  0  0  0  0  0  0  0  0  0  0
   -1.3784    0.8457   -0.9384 H   0  0  0  0  0  0  0  0  0  0  0  0
   -0.1472   -1.3312    0.9845 H   0  0  0  0  0  0  0  0  0  0  0  0
    0.7898   -0.0574    0.0419 H   0  0  0  0  0  0  0  0  0  0  0  0
   -0.1453   -1.2801   -0.7338 H   0  0  0  0  0  0  0  0  0  0  0  0
  1  5  1  0  0  0  0
  2  1  1  0  0  0  0
  2  8  1  0  0  0  0
  3  1  1  0  0  0  0
  4  1  1  0  0  0  0
  6  2  1  0  0  0  0
  6  9  1  0  0  0  0
  6 10  1  0  0  0  0
  7  2  1  0  0  0  0
  9 12  1  0  0  0  0
 11  6  1  0  0  0  0
 13  9  1  0  0  0  0
 14  9  1  0  0  0  0
M  END
$$$$
