14
butane_opt
C  -3.892668   0.351246  -0.153014
C  -2.680367  -0.652062   0.122256
H  -4.880222  -0.361147  -0.119974
H  -4.113462   0.937461  -0.934573
H  -3.867828   1.134948   0.839487
C  -1.431593   0.052682   0.212536
H  -2.553407  -1.230701  -0.589307
H  -2.780658  -1.544776   1.133719
C  -0.204225  -0.663236  -0.088314
H  -1.109191   0.996296   1.187886
H  -1.366590   0.574919  -0.595304
H  -0.090488  -1.386356   0.865427
H   0.881573   0.277088  -0.776206
H  -0.648150  -0.898778  -0.683828
