butane_opt
 OpenBabel08242015403D

 14 13  0  0  0  0  0  0  0  0999 V2000
   -3.9287    0.2499    0.0005 C   0  0  0  0  0  0  0  0  0  0  0  0
   -2.6988   -0.6003    0.0577 C   0  0  0  0  0  0  0  0  0  0  0  0
   -4.8431   -0.3419   -0.0039 H   0  0  0  0  0  0  0  0  0  0  0  0
   -3.8750    0.8808   -0.9436 H   0  0  0  0  0  0  0  0  0  0  0  0
   -4.0319    0.8889    0.8292 H   0  0  0  0  0  0  0  0  0  0  0  0
   -1.4103    0.1994    0.0485 C   0  0  0  0  0  0  0  0  0  0  0  0
   -2.6838   -1.2960   -0.8142 H   0  0  0  0  0  0  0  0  0  0  0  0
   -2.7486   -1.2199    0.9367 H   0  0  0  0  0  0  0  0  0  0  0  0
   -0.1730   -0.7015    0.0065 C   0  0  0  0  0  0  0  0  0  0  0  0
   -1.3989    0.9213    0.9168 H   0  0  0  0  0  0  0  0  0  0  0  0
   -1.4379    0.8033   -0.8124 H   0  0  0  0  0  0  0  0  0  0  0  0
   -0.0275   -1.4352    0.9456 H   0  0  0  0  0  0  0  0  0  0  0  0
    0.7537   -0.1079   -0.1403 H   0  0  0  0  0  0  0  0  0  0  0  0
   -0.2007   -1.3307   -0.8197 H   0  0  0  0  0  0  0  0  0  0  0  0
  1  2  1  0  0  0  0
  1  5  1  0  0  0  0
  2  8  1  0  0  0  0
  3  1  1  0  0  0  0
  4  1  1  0  0  0  0
  6  2  1  0  0  0  0
  6 10  1  0  0  0  0
  7  2  1  0  0  0  0
  9  6  1  0  0  0  0
  9 12  1  0  0  0  0
 11  6  1  0  0  0  0
 13  9  1  0  0  0  0
 14  9  1  0  0  0  0
M  END
$$$$
