butane_opt
 OpenBabel08242015403D

 14 13  0  0  0  0  0  0  0  0999 V2000
   -3.9481    0.2755   -0.0095 C   0  0  0  0  0  0  0  0  0  0  0  0
   -2.6936   -0.6299    0.0552 C   0  0  0  0  0  0  0  0  0  0  0  0
   -4.8332   -0.2975    0.1114 H   0  0  0  0  0  0  0  0  0  0  0  0
   -3.9910    0.9844   -0.9670 H   0  0  0  0  0  0  0  0  0  0  0  0
   -3.9282    0.8518    0.7951 H   0  0  0  0  0  0  0  0  0  0  0  0
   -1.3875    0.1847    0.0409 C   0  0  0  0  0  0  0  0  0  0  0  0
   -2.7139   -1.2796   -0.7672 H   0  0  0  0  0  0  0  0  0  0  0  0
   -2.7030   -1.3082    0.9598 H   0  0  0  0  0  0  0  0  0  0  0  0
   -0.1777   -0.6877    0.0128 C   0  0  0  0  0  0  0  0  0  0  0  0
   -1.3827    0.8884    0.9228 H   0  0  0  0  0  0  0  0  0  0  0  0
   -1.4071    0.7394   -0.7911 H   0  0  0  0  0  0  0  0  0  0  0  0
   -0.1084   -1.2679    0.8439 H   0  0  0  0  0  0  0  0  0  0  0  0
    0.7422   -0.0876    0.0040 H   0  0  0  0  0  0  0  0  0  0  0  0
   -0.2222   -1.3916   -0.8794 H   0  0  0  0  0  0  0  0  0  0  0  0
  1  2  1  0  0  0  0
  1  3  1  0  0  0  0
  1  5  1  0  0  0  0
  2  8  1  0  0  0  0
  4  1  1  0  0  0  0
  6  2  1  0  0  0  0
  6 10  1  0  0  0  0
  7  2  1  0  0  0  0
  9  6  1  0  0  0  0
  9 12  1  0  0  0  0
 11  6  1  0  0  0  0
 13  9  1  0  0  0  0
 14  9  1  0  0  0  0
M  END
$$$$
