butane_opt
 OpenBabel08242015403D

 14 13  0  0  0  0  0  0  0  0999 V2000
   -3.8853    0.2855    0.0325 C   0  0  0  0  0  0  0  0  0  0  0  0
   -2.6935   -0.6455    0.0366 C   0  0  0  0  0  0  0  0  0  0  0  0
   -5.0934   -0.5758   -0.1116 H   0  0  0  0  0  0  0  0  0  0  0  0
   -3.9351    0.5715   -0.6880 H   0  0  0  0  0  0  0  0  0  0  0  0
   -3.8674    1.1054    0.9595 H   0  0  0  0  0  0  0  0  0  0  0  0
   -1.4368    0.2348   -0.0949 C   0  0  0  0  0  0  0  0  0  0  0  0
   -2.9936   -0.9820   -0.4827 H   0  0  0  0  0  0  0  0  0  0  0  0
   -2.6241   -1.3678    1.0607 H   0  0  0  0  0  0  0  0  0  0  0  0
   -0.1622   -0.7244    0.0700 C   0  0  0  0  0  0  0  0  0  0  0  0
   -1.4282    0.9564    0.7093 H   0  0  0  0  0  0  0  0  0  0  0  0
   -1.2941    0.8888   -0.9203 H   0  0  0  0  0  0  0  0  0  0  0  0
   -0.1383   -1.0316    0.7675 H   0  0  0  0  0  0  0  0  0  0  0  0
    0.5051   -0.1724    0.4897 H   0  0  0  0  0  0  0  0  0  0  0  0
    0.0095   -1.7572   -0.9123 H   0  0  0  0  0  0  0  0  0  0  0  0
  1  2  1  0  0  0  0
  1  5  1  0  0  0  0
  2  8  1  0  0  0  0
  3  1  1  0  0  0  0
  4  1  1  0  0  0  0
  6  2  1  0  0  0  0
  6  9  1  0  0  0  0
  6 10  1  0  0  0  0
  7  2  1  0  0  0  0
  9 13  1  0  0  0  0
  9 12  1  0  0  0  0
 11  6  1  0  0  0  0
 14  9  1  0  0  0  0
M  END
$$$$
