14
butane_opt
C  -3.938312   0.281897  -0.160668
C  -2.735680  -0.588267   0.293542
H  -4.837567  -0.346450  -0.861007
H  -3.569420   0.872833  -1.046876
H  -4.343241   1.195087   0.819610
C  -1.364749   0.127064   0.125705
H  -2.827905  -1.149546  -0.447121
H  -2.920566  -1.575518   1.503206
C  -0.150820  -0.682186  -0.124683
H  -1.227503   0.940614   1.259111
H  -1.764374   0.511444  -0.534557
H   0.158904  -1.156106   0.586096
H   0.834838   0.186387  -0.330843
H  -0.302313  -1.571351  -1.147254
