14
butane_opt
C  -3.939519   0.365886  -0.053754
C  -2.701004  -0.661363   0.142417
H  -4.770030  -0.358479   0.003860
H  -3.857391   0.904566  -0.818621
H  -3.850813   0.916108   0.844648
C  -1.394986   0.069146   0.038341
H  -2.227446  -1.444113  -0.849640
H  -2.685235  -1.371066   1.126483
C  -0.215897  -0.614336   0.013144
H  -1.266710   0.681294   0.823196
H  -1.294079   0.882149  -1.008366
H  -0.536338  -0.938668   0.692344
H   0.786702   0.112473   0.081586
H  -0.333825  -1.757072  -1.170553
