14
butane_opt
C  -3.877329   0.214003   0.146459
C  -2.732750  -0.502265  -0.010847
H  -4.886913  -0.589728  -0.512667
H  -3.655831   0.266989  -0.538624
H  -3.857635   1.144593   1.139719
C  -1.475507   0.221492  -0.164708
H  -2.684620  -1.284747  -1.021810
H  -2.565054  -1.151463   0.817661
C  -0.192005  -0.753126   0.142069
H  -1.587154   1.067365   0.853112
H  -1.351189   0.836865  -1.146487
H   0.116937  -1.625545   1.243442
H   0.743107  -0.219703  -0.155555
H   0.024437  -1.092067  -0.533515
