butane_opt
 OpenBabel08242015403D

 14 13  0  0  0  0  0  0  0  0999 V2000
   -3.9300    0.2727   -0.1189 C   0  0  0  0  0  0  0  0  0  0  0  0
   -2.7154   -0.5923    0.1416 C   0  0  0  0  0  0  0  0  0  0  0  0
   -4.7034   -0.2926   -0.2211 H   0  0  0  0  0  0  0  0  0  0  0  0
   -3.8131    1.0493   -1.1402 H   0  0  0  0  0  0  0  0  0  0  0  0
   -3.8600    0.9132    0.7822 H   0  0  0  0  0  0  0  0  0  0  0  0
   -1.4177    0.0869    0.1978 C   0  0  0  0  0  0  0  0  0  0  0  0
   -2.1967   -0.9939   -0.5379 H   0  0  0  0  0  0  0  0  0  0  0  0
   -2.9008   -1.4542    1.1873 H   0  0  0  0  0  0  0  0  0  0  0  0
   -0.1911   -0.6710   -0.1252 C   0  0  0  0  0  0  0  0  0  0  0  0
   -1.3615    1.0010    1.2329 H   0  0  0  0  0  0  0  0  0  0  0  0
   -1.5288    0.4220   -0.5154 H   0  0  0  0  0  0  0  0  0  0  0  0
    0.0873   -1.2314    0.8600 H   0  0  0  0  0  0  0  0  0  0  0  0
    0.8109   -0.0130   -0.5195 H   0  0  0  0  0  0  0  0  0  0  0  0
   -0.5330   -0.9851   -0.8185 H   0  0  0  0  0  0  0  0  0  0  0  0
  1  2  1  0  0  0  0
  1  5  1  0  0  0  0
  2  6  1  0  0  0  0
  2  8  1  0  0  0  0
  3  1  1  0  0  0  0
  4  1  1  0  0  0  0
  6 10  1  0  0  0  0
  7  2  1  0  0  0  0
  9  6  1  0  0  0  0
  9 12  1  0  0  0  0
 11  6  1  0  0  0  0
 13  9  1  0  0  0  0
 14  9  1  0  0  0  0
M  END
$$$$
