14
butane_opt
C  -3.937139   0.297434  -0.095179
C  -2.753959  -0.585283   0.107121
H  -4.961894  -0.289841   0.329504
H  -4.238338   1.489630  -1.303731
H  -3.956942   0.256395   0.220764
C  -1.362799   0.128149   0.200477
H  -2.638244  -1.167428  -0.583805
H  -2.818811  -1.486844   1.137860
C  -0.120258  -0.674681  -0.078583
H  -1.304872   0.694762   1.061345
H  -1.479442   0.625319  -0.422329
H   0.117612  -0.773230   0.435500
H   0.750802  -0.047223  -0.007401
H  -0.398339  -1.743188  -1.161328
