14
butane_opt
C  -3.901169   0.230747  -0.022558
C  -2.792800  -0.578473  -0.006055
H  -4.803905  -0.465506   0.147476
H  -4.117474   0.996172  -0.952170
H  -3.997836   0.840389   0.891227
C  -1.386458   0.282084   0.139912
H  -2.812191  -1.492399  -0.904564
H  -3.076479  -1.084203   0.745019
C  -0.082776  -0.727342   0.008678
H  -1.359942   0.638311   0.890726
H  -1.694797   0.883506  -0.663769
H   0.529807  -1.894639   1.108753
H   0.661082  -0.263058  -0.589424
H  -0.388482  -1.065171  -0.598680
