14
butane_opt
C  -4.070156   0.336236  -0.011423
C  -2.725328  -0.693676   0.042790
H  -4.966874  -0.083025  -0.155400
H  -3.860422   1.008124  -0.960624
H  -4.243862   0.984350   0.762081
C  -1.281507   0.123979   0.113416
H  -2.598790  -1.464802  -0.766982
H  -2.551840  -1.285742   0.834257
C  -0.163393  -0.678005  -0.053368
H  -1.362002   0.947961   1.151383
H  -1.141475   0.600906  -0.564915
H   0.205498  -1.623247   1.170902
H   0.930079   0.053492  -0.592630
H  -0.579769  -0.627381  -0.499728
