butane_opt
 OpenBabel08242015403D

 14 13  0  0  0  0  0  0  0  0999 V2000
   -3.9888    0.3005   -0.2007 C   0  0  0  0  0  0  0  0  0  0  0  0
   -2.7008   -0.6715    0.2615 C   0  0  0  0  0  0  0  0  0  0  0  0
   -4.7306   -0.1504   -0.4356 H   0  0  0  0  0  0  0  0  0  0  0  0
   -3.7201    0.6102   -1.0179 H   0  0  0  0  0  0  0  0  0  0  0  0
   -4.5591    1.2137    0.8044 H   0  0  0  0  0  0  0  0  0  0  0  0
   -1.4233    0.1499    0.2024 C   0  0  0  0  0  0  0  0  0  0  0  0
   -2.6398   -1.0799   -0.2567 H   0  0  0  0  0  0  0  0  0  0  0  0
   -2.7313   -1.5730    1.3476 H   0  0  0  0  0  0  0  0  0  0  0  0
   -0.0879   -0.6432   -0.1759 C   0  0  0  0  0  0  0  0  0  0  0  0
   -0.9725    0.9754    1.1800 H   0  0  0  0  0  0  0  0  0  0  0  0
   -1.5169    0.4752   -0.5345 H   0  0  0  0  0  0  0  0  0  0  0  0
   -0.0943   -1.2190    0.6277 H   0  0  0  0  0  0  0  0  0  0  0  0
    0.6669   -0.1886   -0.2825 H   0  0  0  0  0  0  0  0  0  0  0  0
   -0.3072   -1.1493   -0.9965 H   0  0  0  0  0  0  0  0  0  0  0  0
  1  2  1  0  0  0  0
  1  5  1  0  0  0  0
  2  8  1  0  0  0  0
  3  1  1  0  0  0  0
  4  1  1  0  0  0  0
  6  2  1  0  0  0  0
  6 10  1  0  0  0  0
  7  2  1  0  0  0  0
  9  6  1  0  0  0  0
  9 12  1  0  0  0  0
 11  6  1  0  0  0  0
 13  9  1  0  0  0  0
 14  9  1  0  0  0  0
M  END
$$$$
