14
butane_opt
C  -4.038198   0.337341  -0.138442
C  -2.697766  -0.696327   0.167015
H  -4.863180  -0.177969  -0.272563
H  -3.973397   1.106950  -1.147007
H  -4.261665   1.053265   0.707175
C  -1.333149   0.114101   0.228551
H  -2.699638  -1.331837  -0.630738
H  -2.726101  -1.549515   1.127681
C  -0.170888  -0.673504  -0.156463
H  -0.898923   1.089255   1.318598
H  -1.399914   0.526833  -0.458690
H   0.182208  -1.541393   0.897805
H   0.882891   0.071120  -0.487622
H  -0.411194  -0.649543  -0.774913
