14
butane_opt
C  -3.980048   0.268389   0.138364
C  -2.727326  -0.696548   0.020381
H  -4.662258  -0.058141  -0.876577
H  -3.889400   0.341000  -0.437792
H  -4.203059   1.797471   1.513055
C  -1.348093   0.202700  -0.181579
H  -2.702586  -1.368930  -0.842685
H  -2.844374  -1.296214   0.717050
C  -0.157430  -0.711598   0.118519
H  -1.341148   1.001630   0.740717
H  -1.297931   0.969396  -1.180339
H  -0.295070  -1.666471   1.437725
H   0.862757   0.011442  -0.139370
H  -0.117437  -0.957067  -0.533017
