butane_opt
 OpenBabel08242015403D

 14 13  0  0  0  0  0  0  0  0999 V2000
   -4.0442    0.3269    0.2297 C   0  0  0  0  0  0  0  0  0  0  0  0
   -2.6808   -0.6673   -0.1211 C   0  0  0  0  0  0  0  0  0  0  0  0
   -4.9012   -0.2581   -0.0155 H   0  0  0  0  0  0  0  0  0  0  0  0
   -4.0445    0.6942   -0.5779 H   0  0  0  0  0  0  0  0  0  0  0  0
   -4.1791    1.2034    1.3225 H   0  0  0  0  0  0  0  0  0  0  0  0
   -1.3005    0.1115   -0.2337 C   0  0  0  0  0  0  0  0  0  0  0  0
   -2.9835   -1.3049   -0.9780 H   0  0  0  0  0  0  0  0  0  0  0  0
   -2.4743   -1.0984    0.6204 H   0  0  0  0  0  0  0  0  0  0  0  0
   -0.1876   -0.6407    0.2069 C   0  0  0  0  0  0  0  0  0  0  0  0
   -1.4789    0.5205    0.3840 H   0  0  0  0  0  0  0  0  0  0  0  0
   -0.9958    0.9053   -1.3878 H   0  0  0  0  0  0  0  0  0  0  0  0
   -0.5494   -1.1067    1.1939 H   0  0  0  0  0  0  0  0  0  0  0  0
    0.8123   -0.0241    0.5373 H   0  0  0  0  0  0  0  0  0  0  0  0
    0.3023   -1.5603   -0.6589 H   0  0  0  0  0  0  0  0  0  0  0  0
  1  5  1  0  0  0  0
  2  1  1  0  0  0  0
  2  8  1  0  0  0  0
  3  1  1  0  0  0  0
  4  1  1  0  0  0  0
  6  2  1  0  0  0  0
  6  9  1  0  0  0  0
  6 10  1  0  0  0  0
  7  2  1  0  0  0  0
  9 13  1  0  0  0  0
  9 12  1  0  0  0  0
 11  6  1  0  0  0  0
 14  9  1  0  0  0  0
M  END
$$$$
