butane_opt
 OpenBabel08242015403D

 14 10  0  0  0  0  0  0  0  0999 V2000
   -3.8914    0.1967    0.1068 C   0  0  0  0  0  0  0  0  0  0  0  0
   -2.7047   -0.4741   -0.0537 C   0  0  0  0  0  0  0  0  0  0  0  0
   -4.8492   -0.3853   -0.2326 H   0  0  0  0  0  0  0  0  0  0  0  0
   -3.6059    0.7413   -0.8675 H   0  0  0  0  0  0  0  0  0  0  0  0
   -3.9150    0.8359    0.9772 H   0  0  0  0  0  0  0  0  0  0  0  0
   -1.4839    0.1823    0.0316 C   0  0  0  0  0  0  0  0  0  0  0  0
   -2.7448   -1.6039   -1.2209 H   0  0  0  0  0  0  0  0  0  0  0  0
   -2.7622   -0.9809    0.7573 H   0  0  0  0  0  0  0  0  0  0  0  0
   -0.1424   -0.7501    0.0957 C   0  0  0  0  0  1  0  0  0  0  0  0
   -1.6048    0.8225    0.8305 H   0  0  0  0  0  0  0  0  0  0  0  0
   -1.3690    0.8945   -0.8315 H   0  0  0  0  0  0  0  0  0  0  0  0
    0.1923   -1.8750    1.2218 H   0  0  0  0  0  0  0  0  0  0  0  0
    0.7258   -0.0490   -0.8780 H   0  0  0  0  0  0  0  0  0  0  0  0
   -0.4115   -0.7074   -0.4330 H   0  0  0  0  0  0  0  0  0  0  0  0
  1  5  1  0  0  0  0
  2  6  1  0  0  0  0
  2  1  1  0  0  0  0
  2  8  1  0  0  0  0
  3  1  1  0  0  0  0
  4  1  1  0  0  0  0
  6 10  1  0  0  0  0
 11  6  1  0  0  0  0
 13  9  1  0  0  0  0
 14  6  1  0  0  0  0
M  RAD  3   2   2   7   2  12   2
M  END
$$$$
