butane_opt
 OpenBabel08242015403D

 14  8  0  0  0  0  0  0  0  0999 V2000
   -3.9198    0.3155    0.1516 C   0  0  0  0  0  1  0  0  0  0  0  0
   -2.6470   -0.6267   -0.0834 C   0  0  0  0  0  0  0  0  0  0  0  0
   -4.7400   -0.2968   -0.4338 H   0  0  0  0  0  0  0  0  0  0  0  0
   -3.9323    0.1631   -0.2398 H   0  0  0  0  0  0  0  0  0  0  0  0
   -4.4055    1.7199    1.2643 H   0  0  0  0  0  0  0  0  0  0  0  0
   -1.3667    0.0602   -0.1424 C   0  0  0  0  0  0  0  0  0  0  0  0
   -2.6856   -1.4421   -1.0465 H   0  0  0  0  0  0  0  0  0  0  0  0
   -2.5276   -1.2999    0.8274 H   0  0  0  0  0  0  0  0  0  0  0  0
   -0.2207   -0.6451    0.1343 C   0  0  0  0  0  1  0  0  0  0  0  0
   -1.3745    0.7403    0.7858 H   0  0  0  0  0  0  0  0  0  0  0  0
   -1.5780    0.9188   -1.1778 H   0  0  0  0  0  0  0  0  0  0  0  0
   -0.5329   -1.7909    1.4431 H   0  0  0  0  0  0  0  0  0  0  0  0
    0.8420    0.1924   -0.2503 H   0  0  0  0  0  0  0  0  0  0  0  0
   -0.2385   -0.6183   -0.2957 H   0  0  0  0  0  0  0  0  0  0  0  0
  2  8  1  0  0  0  0
  3  1  1  0  0  0  0
  4  2  1  0  0  0  0
  6 10  1  0  0  0  0
  7  2  1  0  0  0  0
 11  6  1  0  0  0  0
 13  9  1  0  0  0  0
 14  6  1  0  0  0  0
M  RAD  4   2   2   5   2   6   2  12   2
M  END
$$$$
