butane_opt
 OpenBabel08242015403D

 14 11  0  0  0  0  0  0  0  0999 V2000
   -4.0387    0.2774   -0.0862 C   0  0  0  0  0  0  0  0  0  0  0  0
   -2.7253   -0.6362    0.0468 C   0  0  0  0  0  0  0  0  0  0  0  0
   -4.7175   -0.2824    0.5917 H   0  0  0  0  0  0  0  0  0  0  0  0
   -4.3278    1.4808   -1.2496 H   0  0  0  0  0  0  0  0  0  0  0  0
   -3.7980    0.5440    0.6076 H   0  0  0  0  0  0  0  0  0  0  0  0
   -1.3488    0.1854    0.1626 C   0  0  0  0  0  0  0  0  0  0  0  0
   -2.6446   -1.2432   -0.7954 H   0  0  0  0  0  0  0  0  0  0  0  0
   -2.6224   -1.3758    1.0477 H   0  0  0  0  0  0  0  0  0  0  0  0
   -0.1257   -0.6929   -0.0730 C   0  0  0  0  0  0  0  0  0  0  0  0
   -1.1988    1.0033    1.0864 H   0  0  0  0  0  0  0  0  0  0  0  0
   -1.4285    0.4815   -0.3891 H   0  0  0  0  0  0  0  0  0  0  0  0
   -0.2960   -1.3699    0.9230 H   0  0  0  0  0  0  0  0  0  0  0  0
    0.9827    0.0826   -0.1547 H   0  0  0  0  0  0  0  0  0  0  0  0
   -0.1101   -1.3392   -0.9020 H   0  0  0  0  0  0  0  0  0  0  0  0
  1  2  1  0  0  0  0
  1  3  1  0  0  0  0
  1  5  1  0  0  0  0
  2  6  1  0  0  0  0
  2  8  1  0  0  0  0
  6 10  1  0  0  0  0
  7  2  1  0  0  0  0
  9  6  1  0  0  0  0
  9 12  1  0  0  0  0
 13  9  1  0  0  0  0
 14  9  1  0  0  0  0
M  RAD  4   1   2   4   2   6   2  11   2
M  END
$$$$
