14
butane_opt
C  -3.917880   0.210915  -0.093870
C  -2.776940  -0.600882   0.147170
H  -4.779555  -0.449614  -0.385234
H  -3.942268   0.400930  -0.793830
H  -3.879536   1.330663   1.069240
C  -1.422678   0.339511   0.079533
H  -2.862074  -0.967023  -0.649356
H  -2.923233  -1.340873   1.141754
C  -0.112229  -0.806950  -0.037578
H  -1.252552   0.943160   0.878752
H  -1.517317   0.826843  -0.755333
H   0.206639  -1.423122   0.722557
H   0.730663  -0.243196  -0.271006
H  -0.015270  -1.261265  -0.612056
