14
butane_opt
C  -3.923744   0.259189   0.086258
C  -2.652510  -0.635833  -0.046686
H  -4.907989  -0.435248  -0.196774
H  -3.867246   0.877816  -0.715526
H  -3.943885   1.286133   1.077875
C  -1.427116   0.151497   0.013664
H  -2.751985  -1.491051  -1.169882
H  -2.596853  -0.886334   0.581253
C  -0.209494  -0.646928   0.116064
H  -1.142868   0.696883   0.769371
H  -1.506416   0.811197  -0.936397
H  -0.012741  -1.923122   1.317238
H   0.586695  -0.238026  -0.822606
H  -0.307851  -0.717149  -0.408419
