14
butane_opt
C  -3.977237   0.248696  -0.120733
C  -2.735790  -0.558527   0.158420
H  -5.091664  -0.460968   0.124612
H  -3.844078   1.056829  -1.235146
H  -4.342673   0.556403   0.530408
C  -1.377785   0.207477   0.240060
H  -2.434619  -1.282959  -0.690862
H  -3.094920  -1.108237   1.037540
C  -0.102176  -0.738402  -0.151239
H  -1.042931   1.088216   1.103404
H  -1.501250   0.719595  -0.529004
H   0.175054  -1.567030   0.998964
H   0.781801  -0.039374  -0.465957
H  -0.268315  -1.383551  -0.914597
