butane_opt
 OpenBabel08242015403D

 14 10  0  0  0  0  0  0  0  0999 V2000
   -3.9209    0.2528   -0.1823 C   0  0  0  0  0  0  0  0  0  0  0  0
   -2.7103   -0.5673    0.3087 C   0  0  0  0  0  0  0  0  0  0  0  0
   -4.7171   -0.2244   -0.3408 H   0  0  0  0  0  0  0  0  0  0  0  0
   -3.6406    0.8554   -1.1739 H   0  0  0  0  0  0  0  0  0  0  0  0
   -4.1109    1.1247    0.8119 H   0  0  0  0  0  0  0  0  0  0  0  0
   -1.3996    0.1000    0.1374 C   0  0  0  0  0  0  0  0  0  0  0  0
   -2.5227   -1.1622   -0.4168 H   0  0  0  0  0  0  0  0  0  0  0  0
   -2.7341   -1.3860    1.3904 H   0  0  0  0  0  0  0  0  0  0  0  0
   -0.1968   -0.6918   -0.1306 C   0  0  0  0  0  1  0  0  0  0  0  0
   -1.2276    0.7229    1.1215 H   0  0  0  0  0  0  0  0  0  0  0  0
   -1.5306    0.8259   -0.8604 H   0  0  0  0  0  0  0  0  0  0  0  0
   -0.3299   -0.5831    0.4062 H   0  0  0  0  0  0  0  0  0  0  0  0
    0.7752    0.0379    0.1531 H   0  0  0  0  0  0  0  0  0  0  0  0
   -0.2609   -1.7962   -1.3091 H   0  0  0  0  0  0  0  0  0  0  0  0
  1  2  1  0  0  0  0
  1  5  1  0  0  0  0
  2  8  1  0  0  0  0
  3  1  1  0  0  0  0
  4  1  1  0  0  0  0
  6 12  1  0  0  0  0
  6 10  1  0  0  0  0
  7  2  1  0  0  0  0
  9 13  1  0  0  0  0
 11  6  1  0  0  0  0
M  RAD  3   2   2   6   2  14   2
M  END
$$$$
