14
butane_opt
C  -3.952539   0.199182   0.006647
C  -2.717982  -0.592056   0.086961
H  -4.807014  -0.319877  -0.583950
H  -3.980928   0.261286  -0.491809
H  -4.262944   1.339292   1.130986
C  -1.454451   0.324274  -0.006032
H  -2.748933  -1.309513  -0.798540
H  -2.890711  -1.171316   0.791719
C  -0.072190  -0.757236   0.063684
H  -1.218922   0.722237   0.684115
H  -1.571059   1.079379  -1.000561
H   0.127924  -1.625457   1.086442
H   0.887710  -0.129409  -0.492065
H  -0.169421  -1.407854  -0.622990
