butane_opt
 OpenBabel08242015403D

 14 12  0  0  0  0  0  0  0  0999 V2000
   -3.9246    0.2101    0.0310 C   0  0  0  0  0  0  0  0  0  0  0  0
   -2.7908   -0.5183   -0.0557 C   0  0  0  0  0  0  0  0  0  0  0  0
   -5.0617   -0.5538    0.6080 H   0  0  0  0  0  0  0  0  0  0  0  0
   -4.1182    1.1684   -1.1560 H   0  0  0  0  0  0  0  0  0  0  0  0
   -3.9356    0.4293    0.6453 H   0  0  0  0  0  0  0  0  0  0  0  0
   -1.3898    0.3086    0.1027 C   0  0  0  0  0  0  0  0  0  0  0  0
   -2.7016   -1.4335   -0.8871 H   0  0  0  0  0  0  0  0  0  0  0  0
   -2.8676   -1.0410    0.8003 H   0  0  0  0  0  0  0  0  0  0  0  0
   -0.0598   -0.8144    0.0553 C   0  0  0  0  0  0  0  0  0  0  0  0
   -1.6155    0.8464    0.8167 H   0  0  0  0  0  0  0  0  0  0  0  0
   -1.3215    0.8074   -0.7405 H   0  0  0  0  0  0  0  0  0  0  0  0
    0.1213   -1.5262    0.9550 H   0  0  0  0  0  0  0  0  0  0  0  0
    0.8549   -0.0681   -0.3207 H   0  0  0  0  0  0  0  0  0  0  0  0
   -0.3332   -1.3352   -0.9017 H   0  0  0  0  0  0  0  0  0  0  0  0
  1  3  1  0  0  0  0
  1  5  1  0  0  0  0
  2  1  1  0  0  0  0
  2  6  1  0  0  0  0
  2  8  1  0  0  0  0
  6 10  1  0  0  0  0
  7  2  1  0  0  0  0
  9  6  1  0  0  0  0
  9 12  1  0  0  0  0
 11  6  1  0  0  0  0
 13  9  1  0  0  0  0
 14  9  1  0  0  0  0
M  RAD  2   1   2   4   2
M  END
$$$$
