butane_opt
 OpenBabel08242015403D

 14 11  0  0  0  0  0  0  0  0999 V2000
   -4.0514    0.2805    0.0533 C   0  0  0  0  0  0  0  0  0  0  0  0
   -2.6795   -0.6563    0.0297 C   0  0  0  0  0  0  0  0  0  0  0  0
   -4.6784   -0.1147   -0.1885 H   0  0  0  0  0  0  0  0  0  0  0  0
   -4.0019    0.6561   -0.7089 H   0  0  0  0  0  0  0  0  0  0  0  0
   -4.1440    1.0460    1.0304 H   0  0  0  0  0  0  0  0  0  0  0  0
   -1.3402    0.1782   -0.0085 C   0  0  0  0  0  0  0  0  0  0  0  0
   -2.6200   -1.7285   -1.0654 H   0  0  0  0  0  0  0  0  0  0  0  0
   -2.7660   -1.0419    0.7104 H   0  0  0  0  0  0  0  0  0  0  0  0
   -0.1578   -0.6401    0.0889 C   0  0  0  0  0  0  0  0  0  0  0  0
   -1.2847    0.8227    0.8576 H   0  0  0  0  0  0  0  0  0  0  0  0
   -1.4061    0.9579   -1.1095 H   0  0  0  0  0  0  0  0  0  0  0  0
    0.0322   -1.6994    1.2290 H   0  0  0  0  0  0  0  0  0  0  0  0
    0.6178   -0.1851   -0.5270 H   0  0  0  0  0  0  0  0  0  0  0  0
   -0.0736   -1.0955   -0.6917 H   0  0  0  0  0  0  0  0  0  0  0  0
  1  5  1  0  0  0  0
  2  1  1  0  0  0  0
  2  8  1  0  0  0  0
  3  1  1  0  0  0  0
  4  1  1  0  0  0  0
  6  2  1  0  0  0  0
  6  9  1  0  0  0  0
  6 10  1  0  0  0  0
 11  6  1  0  0  0  0
 13  9  1  0  0  0  0
 14  9  1  0  0  0  0
M  RAD  4   2   2   7   2   9   2  12   2
M  END
$$$$
