14
butane_opt
C  -3.929996   0.272746  -0.118936
C  -2.715400  -0.592330   0.141558
H  -4.703423  -0.292606  -0.221099
H  -3.813121   1.049309  -1.140162
H  -3.860035   0.913179   0.782231
C  -1.417725   0.086950   0.197817
H  -2.196673  -0.993931  -0.537887
H  -2.900772  -1.454178   1.187313
C  -0.191083  -0.670953  -0.125191
H  -1.361499   1.000953   1.232935
H  -1.528831   0.421986  -0.515373
H   0.087346  -1.231364   0.860001
H   0.810904  -0.013020  -0.519461
H  -0.533009  -0.985148  -0.818450
