butane_opt
 OpenBabel08242015403D

 14 12  0  0  0  0  0  0  0  0999 V2000
   -3.9112    0.3063    0.2003 C   0  0  0  0  0  0  0  0  0  0  0  0
   -2.7336   -0.6307   -0.1049 C   0  0  0  0  0  0  0  0  0  0  0  0
   -4.8653   -0.3869    0.1114 H   0  0  0  0  0  0  0  0  0  0  0  0
   -3.8471    0.7005   -0.4768 H   0  0  0  0  0  0  0  0  0  0  0  0
   -3.9689    1.3742    1.2295 H   0  0  0  0  0  0  0  0  0  0  0  0
   -1.3691    0.1502   -0.2609 C   0  0  0  0  0  0  0  0  0  0  0  0
   -2.8322   -1.2870   -0.9390 H   0  0  0  0  0  0  0  0  0  0  0  0
   -2.6945   -1.3438    0.7901 H   0  0  0  0  0  0  0  0  0  0  0  0
   -0.1921   -0.6875    0.1765 C   0  0  0  0  0  0  0  0  0  0  0  0
   -1.4746    0.5330    0.4242 H   0  0  0  0  0  0  0  0  0  0  0  0
   -1.6083    0.8094   -1.0466 H   0  0  0  0  0  0  0  0  0  0  0  0
   -0.7466   -1.1258    1.0613 H   0  0  0  0  0  0  0  0  0  0  0  0
    1.0592    0.1387    0.7900 H   0  0  0  0  0  0  0  0  0  0  0  0
    0.3807   -1.4996   -0.5931 H   0  0  0  0  0  0  0  0  0  0  0  0
  1  5  1  0  0  0  0
  2  1  1  0  0  0  0
  2  8  1  0  0  0  0
  3  1  1  0  0  0  0
  4  1  1  0  0  0  0
  6  2  1  0  0  0  0
  6  9  1  0  0  0  0
  6 10  1  0  0  0  0
  7  2  1  0  0  0  0
  9 12  1  0  0  0  0
 11  6  1  0  0  0  0
 14  9  1  0  0  0  0
M  RAD  2   9   2  13   2
M  END
$$$$
