butane_opt
 OpenBabel08242015403D

 14 11  0  0  0  0  0  0  0  0999 V2000
   -3.9712    0.2297    0.1517 C   0  0  0  0  0  0  0  0  0  0  0  0
   -2.7353   -0.6343   -0.1511 C   0  0  0  0  0  0  0  0  0  0  0  0
   -4.5655   -0.0877    0.5742 H   0  0  0  0  0  0  0  0  0  0  0  0
   -4.3719    0.8831   -0.7300 H   0  0  0  0  0  0  0  0  0  0  0  0
   -3.5538    0.7895    1.0369 H   0  0  0  0  0  0  0  0  0  0  0  0
   -1.4117    0.2558   -0.1107 C   0  0  0  0  0  0  0  0  0  0  0  0
   -2.9057   -1.7213   -1.3748 H   0  0  0  0  0  0  0  0  0  0  0  0
   -2.4777   -0.9400    0.5348 H   0  0  0  0  0  0  0  0  0  0  0  0
   -0.1184   -0.7279    0.1741 C   0  0  0  0  0  0  0  0  0  0  0  0
   -1.4732    0.8447    0.6891 H   0  0  0  0  0  0  0  0  0  0  0  0
   -1.3876    1.1542   -1.1207 H   0  0  0  0  0  0  0  0  0  0  0  0
   -0.0987   -1.7098    1.3656 H   0  0  0  0  0  0  0  0  0  0  0  0
    0.7446    0.0127    0.0981 H   0  0  0  0  0  0  0  0  0  0  0  0
   -0.1129   -1.1464   -0.3712 H   0  0  0  0  0  0  0  0  0  0  0  0
  1  3  1  0  0  0  0
  1  5  1  0  0  0  0
  2  6  1  0  0  0  0
  2  1  1  0  0  0  0
  2  8  1  0  0  0  0
  4  1  1  0  0  0  0
  6  9  1  0  0  0  0
  6 10  1  0  0  0  0
 11  6  1  0  0  0  0
 13  9  1  0  0  0  0
 14  9  1  0  0  0  0
M  RAD  4   2   2   7   2   9   2  12   2
M  END
$$$$
