butane_opt
 OpenBabel08242015403D

 14 12  0  0  0  0  0  0  0  0999 V2000
   -3.9988    0.2914   -0.0236 C   0  0  0  0  0  0  0  0  0  0  0  0
   -2.6951   -0.6815    0.0286 C   0  0  0  0  0  0  0  0  0  0  0  0
   -4.8097   -0.2266    0.4485 H   0  0  0  0  0  0  0  0  0  0  0  0
   -4.1827    1.4505   -1.3145 H   0  0  0  0  0  0  0  0  0  0  0  0
   -3.8114    0.7176    0.7051 H   0  0  0  0  0  0  0  0  0  0  0  0
   -1.3495    0.1510    0.1043 C   0  0  0  0  0  0  0  0  0  0  0  0
   -2.8590   -1.2430   -0.6411 H   0  0  0  0  0  0  0  0  0  0  0  0
   -2.5514   -1.3917    0.9382 H   0  0  0  0  0  0  0  0  0  0  0  0
   -0.1767   -0.6354    0.0007 C   0  0  0  0  0  0  0  0  0  0  0  0
   -1.3796    0.7861    0.8599 H   0  0  0  0  0  0  0  0  0  0  0  0
   -1.2923    0.6838   -0.7863 H   0  0  0  0  0  0  0  0  0  0  0  0
    0.0628   -1.0246    0.7573 H   0  0  0  0  0  0  0  0  0  0  0  0
    0.5749   -0.1805    0.2977 H   0  0  0  0  0  0  0  0  0  0  0  0
   -0.1651   -1.5269   -1.2176 H   0  0  0  0  0  0  0  0  0  0  0  0
  1  2  1  0  0  0  0
  1  3  1  0  0  0  0
  1  5  1  0  0  0  0
  2  6  1  0  0  0  0
  2  8  1  0  0  0  0
  6 10  1  0  0  0  0
  7  2  1  0  0  0  0
  9  6  1  0  0  0  0
  9 13  1  0  0  0  0
  9 12  1  0  0  0  0
 11  6  1  0  0  0  0
 14  9  1  0  0  0  0
M  RAD  2   1   2   4   2
M  END
$$$$
