butane_opt
 OpenBabel08242015403D

 14  8  0  0  0  0  0  0  0  0999 V2000
   -3.9074    0.2243    0.1113 C   0  0  0  0  0  0  0  0  0  0  0  0
   -2.7314   -0.5505    0.0029 C   0  0  0  0  0  0  0  0  0  0  0  0
   -4.8397   -0.3523   -0.7396 H   0  0  0  0  0  0  0  0  0  0  0  0
   -3.5377    0.2124   -0.4150 H   0  0  0  0  0  0  0  0  0  0  0  0
   -3.9421    1.7996    1.5521 H   0  0  0  0  0  0  0  0  0  0  0  0
   -1.4382    0.2056   -0.0838 C   0  0  0  0  0  1  0  0  0  0  0  0
   -2.7156   -1.5066   -0.9919 H   0  0  0  0  0  0  0  0  0  0  0  0
   -2.8508   -1.2493    0.8332 H   0  0  0  0  0  0  0  0  0  0  0  0
   -0.1470   -0.7407    0.1193 C   0  0  0  0  0  0  0  0  0  0  0  0
   -1.6769    0.4226    0.4137 H   0  0  0  0  0  0  0  0  0  0  0  0
   -1.2333    1.2623   -1.2404 H   0  0  0  0  0  0  0  0  0  0  0  0
   -0.2838   -1.6161    1.2920 H   0  0  0  0  0  0  0  0  0  0  0  0
    0.8626   -0.0008   -0.3214 H   0  0  0  0  0  0  0  0  0  0  0  0
   -0.1295   -1.0970   -0.6547 H   0  0  0  0  0  0  0  0  0  0  0  0
  2  8  1  0  0  0  0
  3  1  1  0  0  0  0
  4  1  1  0  0  0  0
  6  9  1  0  0  0  0
  7  2  1  0  0  0  0
  9 12  1  0  0  0  0
 13  9  1  0  0  0  0
 14  9  1  0  0  0  0
M  RAD  5   1   3   2   3   5   2  10   2  11   2
M  END
$$$$
