14
butane_opt
C  -3.902295   0.222024   0.062394
C  -2.728655  -0.547038   0.066829
H  -4.858163  -0.417564  -0.764689
H  -3.799214   0.131812  -0.479871
H  -4.019663   1.531707   1.473524
C  -1.474911   0.177074  -0.126593
H  -2.743224  -1.111274  -0.677116
H  -2.780016  -1.007171   0.854985
C  -0.138836  -0.736879   0.055483
H  -1.453982   0.983645   0.689822
H  -1.382369   0.780888  -0.978951
H  -0.181621  -1.712877   1.273687
H   0.994616   0.048198  -0.138795
H   0.126166  -1.090433  -0.432988
