butane_opt
 OpenBabel08242015403D

 14 13  0  0  0  0  0  0  0  0999 V2000
   -3.9291    0.3328    0.0920 C   0  0  0  0  0  0  0  0  0  0  0  0
   -2.6583   -0.6515   -0.0877 C   0  0  0  0  0  0  0  0  0  0  0  0
   -4.9286   -0.3972    0.2381 H   0  0  0  0  0  0  0  0  0  0  0  0
   -4.1694    0.8232   -0.7328 H   0  0  0  0  0  0  0  0  0  0  0  0
   -3.8825    0.9559    0.8190 H   0  0  0  0  0  0  0  0  0  0  0  0
   -1.3996    0.1271    0.0323 C   0  0  0  0  0  0  0  0  0  0  0  0
   -2.5803   -1.4162   -1.0807 H   0  0  0  0  0  0  0  0  0  0  0  0
   -2.6205   -1.1117    0.5978 H   0  0  0  0  0  0  0  0  0  0  0  0
   -0.2183   -0.6709    0.0973 C   0  0  0  0  0  0  0  0  0  0  0  0
   -1.1971    0.4993    0.6379 H   0  0  0  0  0  0  0  0  0  0  0  0
   -1.3715    0.9856   -0.9594 H   0  0  0  0  0  0  0  0  0  0  0  0
   -0.1349   -1.6159    1.2171 H   0  0  0  0  0  0  0  0  0  0  0  0
    0.8319    0.2045   -0.1943 H   0  0  0  0  0  0  0  0  0  0  0  0
   -0.5085   -1.0487   -0.6319 H   0  0  0  0  0  0  0  0  0  0  0  0
  1  3  1  0  0  0  0
  1  5  1  0  0  0  0
  2  6  1  0  0  0  0
  2  1  1  0  0  0  0
  2  8  1  0  0  0  0
  4  1  1  0  0  0  0
  6  9  1  0  0  0  0
  6 10  1  0  0  0  0
  7  2  1  0  0  0  0
  9 12  1  0  0  0  0
 11  6  1  0  0  0  0
 13  9  1  0  0  0  0
 14  9  1  0  0  0  0
M  END
$$$$
