14
butane_opt
C  -3.994634   0.245595   0.123274
C  -2.737434  -0.552317   0.003051
H  -4.987950  -0.521718  -0.102910
H  -3.928855   0.430787  -0.512962
H  -3.866496   1.063295   1.164873
C  -1.437382   0.228046  -0.159627
H  -2.859981  -1.308423  -0.909628
H  -2.488149  -1.033774   0.656197
C  -0.108169  -0.720588   0.146223
H  -1.279649   0.478187   0.379323
H  -1.358021   1.051043  -1.368121
H  -0.110002  -1.284440   0.906599
H   0.820143  -0.119645   0.782477
H   0.341338  -1.641175  -0.861983
