14
butane_opt
C  -3.942017   0.192198   0.022914
C  -2.737606  -0.561807   0.018267
H  -4.613872  -0.235316   0.502932
H  -4.217916   1.255497  -1.358024
H  -3.546938   0.207858   0.538594
C  -1.431299   0.319433   0.069420
H  -2.829203  -1.459216  -1.039359
H  -2.663930  -1.245921   0.898867
C  -0.120413  -0.781398   0.052093
H  -1.531692   1.001586   0.885120
H  -1.430875   1.050727  -0.792913
H   0.050086  -1.103912   0.691291
H   0.775149  -0.231977   0.104530
H  -0.219851  -1.698465  -1.046078
