butane_opt
 OpenBabel08242015403D

 14  9  0  0  0  0  0  0  0  0999 V2000
   -3.9708    0.2239    0.1153 C   0  0  0  0  0  1  0  0  0  0  0  0
   -2.7576   -0.6175    0.0339 C   0  0  0  0  0  0  0  0  0  0  0  0
   -4.7494   -0.1666   -0.9845 H   0  0  0  0  0  0  0  0  0  0  0  0
   -3.7076    0.2514   -0.4479 H   0  0  0  0  0  0  0  0  0  0  0  0
   -4.1410    1.6437    1.5881 H   0  0  0  0  0  0  0  0  0  0  0  0
   -1.3599    0.2704   -0.1025 C   0  0  0  0  0  0  0  0  0  0  0  0
   -2.7712   -1.4326   -0.9748 H   0  0  0  0  0  0  0  0  0  0  0  0
   -2.8016   -1.0887    0.8513 H   0  0  0  0  0  0  0  0  0  0  0  0
   -0.1156   -0.7560    0.1211 C   0  0  0  0  0  0  0  0  0  0  0  0
   -1.3390    0.5297    0.3030 H   0  0  0  0  0  0  0  0  0  0  0  0
   -1.5871    1.1116   -1.2375 H   0  0  0  0  0  0  0  0  0  0  0  0
   -0.1646   -1.6163    1.2149 H   0  0  0  0  0  0  0  0  0  0  0  0
    0.7809   -0.0437   -0.1414 H   0  0  0  0  0  0  0  0  0  0  0  0
   -0.0870   -1.1139   -0.6363 H   0  0  0  0  0  0  0  0  0  0  0  0
  2  8  1  0  0  0  0
  3  1  1  0  0  0  0
  4  2  1  0  0  0  0
  6  9  1  0  0  0  0
  7  2  1  0  0  0  0
  9 12  1  0  0  0  0
 11  6  1  0  0  0  0
 13  9  1  0  0  0  0
 14  9  1  0  0  0  0
M  RAD  4   2   2   5   2   6   3  10   2
M  END
$$$$
