14
butane_opt
C  -3.966971   0.314471  -0.103418
C  -2.731820  -0.662942   0.148673
H  -4.786770  -0.210143  -0.093289
H  -4.019222   1.099204  -1.107240
H  -4.410094   0.835502   0.549793
C  -1.370747   0.163537   0.199092
H  -2.733252  -1.672017  -0.864523
H  -2.735341  -1.350985   1.014241
C  -0.146786  -0.663125  -0.078990
H  -0.904532   0.981368   1.123336
H  -1.440755   0.613489  -0.603503
H   0.339877  -1.400273   1.031614
H   0.644905  -0.128794  -0.766672
H  -0.387396  -1.033368  -0.811511
