butane_opt
 OpenBabel08242015403D

 14 12  0  0  0  0  0  0  0  0999 V2000
   -3.9946    0.2456    0.1233 C   0  0  0  0  0  0  0  0  0  0  0  0
   -2.7374   -0.5523    0.0031 C   0  0  0  0  0  0  0  0  0  0  0  0
   -4.9879   -0.5217   -0.1029 H   0  0  0  0  0  0  0  0  0  0  0  0
   -3.9289    0.4308   -0.5130 H   0  0  0  0  0  0  0  0  0  0  0  0
   -3.8665    1.0633    1.1649 H   0  0  0  0  0  0  0  0  0  0  0  0
   -1.4374    0.2280   -0.1596 C   0  0  0  0  0  0  0  0  0  0  0  0
   -2.8600   -1.3084   -0.9096 H   0  0  0  0  0  0  0  0  0  0  0  0
   -2.4881   -1.0338    0.6562 H   0  0  0  0  0  0  0  0  0  0  0  0
   -0.1082   -0.7206    0.1462 C   0  0  0  0  0  0  0  0  0  0  0  0
   -1.2796    0.4782    0.3793 H   0  0  0  0  0  0  0  0  0  0  0  0
   -1.3580    1.0510   -1.3681 H   0  0  0  0  0  0  0  0  0  0  0  0
   -0.1100   -1.2844    0.9066 H   0  0  0  0  0  0  0  0  0  0  0  0
    0.8201   -0.1196    0.7825 H   0  0  0  0  0  0  0  0  0  0  0  0
    0.3413   -1.6412   -0.8620 H   0  0  0  0  0  0  0  0  0  0  0  0
  1  5  1  0  0  0  0
  2  1  1  0  0  0  0
  2  8  1  0  0  0  0
  3  1  1  0  0  0  0
  4  1  1  0  0  0  0
  6  2  1  0  0  0  0
  6  9  1  0  0  0  0
  7  2  1  0  0  0  0
  9 13  1  0  0  0  0
  9 12  1  0  0  0  0
 11  6  1  0  0  0  0
 14  9  1  0  0  0  0
M  RAD  2   6   2  10   2
M  END
$$$$
