14
butane_opt
C  -3.971155   0.229743   0.151701
C  -2.735306  -0.634299  -0.151088
H  -4.565530  -0.087722   0.574218
H  -4.371869   0.883135  -0.729967
H  -3.553793   0.789494   1.036921
C  -1.411745   0.255841  -0.110713
H  -2.905716  -1.721307  -1.374800
H  -2.477735  -0.939992   0.534842
C  -0.118444  -0.727921   0.174057
H  -1.473169   0.844742   0.689060
H  -1.387588   1.154220  -1.120664
H  -0.098658  -1.709818   1.365558
H   0.744588   0.012723   0.098146
H  -0.112931  -1.146358  -0.371225
