14
butane_opt
C  -3.930459   0.285905   0.112494
C  -2.624480  -0.664787  -0.017194
H  -4.828301  -0.349571  -0.435432
H  -3.903399   0.494957  -0.573104
H  -4.199057   1.428136   1.238031
C  -1.376913   0.162814  -0.133171
H  -2.768601  -1.269953  -0.756673
H  -2.461511  -1.429752   1.064745
C  -0.234990  -0.673570   0.090816
H  -1.736598   0.929973   0.810804
H  -1.248672   0.844140  -1.126468
H  -0.478523  -1.207459   1.153367
H   0.624875  -0.119134   0.097366
H  -0.001269  -1.144132  -0.674869
