14
butane_opt
C  -3.993127   0.179717   0.216668
C  -2.748179  -0.554870  -0.073862
H  -4.930478  -0.340011  -0.363988
H  -3.827747   0.702576  -0.618171
H  -4.060952   1.167177   1.419824
C  -1.387953   0.220942  -0.204770
H  -2.981305  -1.262180  -1.039320
H  -2.734929  -0.955860   0.749903
C  -0.057943  -0.745510   0.189687
H  -1.801830   0.754097   0.426249
H  -1.301342   1.205904  -1.476584
H  -0.183272  -1.320849   1.099731
H   0.786239  -0.110263   0.476630
H   0.268709  -1.563665  -0.767179
