butane_opt
 OpenBabel08242015403D

 14 10  0  0  0  0  0  0  0  0999 V2000
   -3.9303    0.2317   -0.0566 C   0  0  0  0  0  0  0  0  0  0  0  0
   -2.7502   -0.6163    0.2037 C   0  0  0  0  0  0  0  0  0  0  0  0
   -4.9101   -0.5194   -0.0562 H   0  0  0  0  0  0  0  0  0  0  0  0
   -3.6906    1.2025   -1.2102 H   0  0  0  0  0  0  0  0  0  0  0  0
   -4.1263    0.5776    0.6674 H   0  0  0  0  0  0  0  0  0  0  0  0
   -1.3881    0.2728    0.0534 C   0  0  0  0  0  0  0  0  0  0  0  0
   -2.9226   -1.1711   -0.6265 H   0  0  0  0  0  0  0  0  0  0  0  0
   -2.7914   -1.1854    1.1959 H   0  0  0  0  0  0  0  0  0  0  0  0
   -0.1146   -0.7365   -0.0562 C   0  0  0  0  0  0  0  0  0  0  0  0
   -1.5102    0.9964    0.9933 H   0  0  0  0  0  0  0  0  0  0  0  0
   -1.3208    1.1095   -0.9198 H   0  0  0  0  0  0  0  0  0  0  0  0
   -0.2980   -0.7863    0.5308 H   0  0  0  0  0  0  0  0  0  0  0  0
    0.5575   -0.4314    0.5141 H   0  0  0  0  0  0  0  0  0  0  0  0
    0.2274   -2.1714   -1.5250 H   0  0  0  0  0  0  0  0  0  0  0  0
  1  3  1  0  0  0  0
  1  2  1  0  0  0  0
  1  5  1  0  0  0  0
  2  8  1  0  0  0  0
  6  2  1  0  0  0  0
  6 10  1  0  0  0  0
  7  2  1  0  0  0  0
  9  6  1  0  0  0  0
  9 13  1  0  0  0  0
 11  6  1  0  0  0  0
M  RAD  5   1   2   4   2   9   3  12   2  14   2
M  END
$$$$
