butane_opt
 OpenBabel08242015403D

 14 13  0  0  0  0  0  0  0  0999 V2000
   -3.9105    0.2260   -0.1260 C   0  0  0  0  0  0  0  0  0  0  0  0
   -2.7056   -0.4817    0.2908 C   0  0  0  0  0  0  0  0  0  0  0  0
   -4.7866   -0.4764   -0.7208 H   0  0  0  0  0  0  0  0  0  0  0  0
   -3.3049    0.5360   -1.0497 H   0  0  0  0  0  0  0  0  0  0  0  0
   -4.3300    0.8388    0.5856 H   0  0  0  0  0  0  0  0  0  0  0  0
   -1.4098    0.1864    0.1607 C   0  0  0  0  0  0  0  0  0  0  0  0
   -2.6528   -1.0143   -0.2910 H   0  0  0  0  0  0  0  0  0  0  0  0
   -3.1363   -1.2964    1.3431 H   0  0  0  0  0  0  0  0  0  0  0  0
   -0.1901   -0.7670   -0.1619 C   0  0  0  0  0  0  0  0  0  0  0  0
   -1.4512    0.8779    0.9961 H   0  0  0  0  0  0  0  0  0  0  0  0
   -1.5539    0.8487   -0.7188 H   0  0  0  0  0  0  0  0  0  0  0  0
    0.2174   -0.9975    0.4922 H   0  0  0  0  0  0  0  0  0  0  0  0
    0.8629   -0.1119    0.1150 H   0  0  0  0  0  0  0  0  0  0  0  0
   -0.3182   -1.6409   -1.2685 H   0  0  0  0  0  0  0  0  0  0  0  0
  1  2  1  0  0  0  0
  1  5  1  0  0  0  0
  2  8  1  0  0  0  0
  3  1  1  0  0  0  0
  4  1  1  0  0  0  0
  6  2  1  0  0  0  0
  6 10  1  0  0  0  0
  7  2  1  0  0  0  0
  9 13  1  0  0  0  0
  9  6  1  0  0  0  0
  9 12  1  0  0  0  0
 11  6  1  0  0  0  0
 14  9  1  0  0  0  0
M  END
$$$$
