14
butane_opt
C  -3.979065   0.209863   0.151134
C  -2.784713  -0.605246  -0.030769
H  -4.940833  -0.425971  -0.660934
H  -3.596732   0.167425  -0.396475
H  -3.995864   1.537701   1.398188
C  -1.394042   0.321200  -0.195335
H  -2.939856  -1.077741  -0.822199
H  -2.525435  -1.287656   0.685516
C  -0.098586  -0.748860   0.149418
H  -1.347939   0.995215   0.680906
H  -1.443156   0.943876  -1.100585
H   0.083966  -1.791635   1.403627
H   0.677048  -0.519539   0.025772
H   0.084787  -1.180048  -0.557308
