butane_opt
 OpenBabel08242015403D

 14 12  0  0  0  0  0  0  0  0999 V2000
   -3.9547    0.2989    0.1713 C   0  0  0  0  0  0  0  0  0  0  0  0
   -2.6143   -0.6423   -0.0602 C   0  0  0  0  0  0  0  0  0  0  0  0
   -4.6578   -0.1167   -0.0460 H   0  0  0  0  0  0  0  0  0  0  0  0
   -3.9117    0.4004   -0.4486 H   0  0  0  0  0  0  0  0  0  0  0  0
   -4.2120    1.2213    1.0909 H   0  0  0  0  0  0  0  0  0  0  0  0
   -1.4142    0.1382   -0.1667 C   0  0  0  0  0  0  0  0  0  0  0  0
   -2.6831   -1.4399   -0.9055 H   0  0  0  0  0  0  0  0  0  0  0  0
   -2.4016   -1.2697    0.6958 H   0  0  0  0  0  0  0  0  0  0  0  0
   -0.2743   -0.6365    0.1524 C   0  0  0  0  0  0  0  0  0  0  0  0
   -1.5090    0.5595    0.4186 H   0  0  0  0  0  0  0  0  0  0  0  0
   -0.9364    0.9141   -1.3037 H   0  0  0  0  0  0  0  0  0  0  0  0
   -0.5087   -1.2543    1.0144 H   0  0  0  0  0  0  0  0  0  0  0  0
    0.7177    0.0373    0.4382 H   0  0  0  0  0  0  0  0  0  0  0  0
    0.1325   -1.3913   -0.6430 H   0  0  0  0  0  0  0  0  0  0  0  0
  1  5  1  0  0  0  0
  2  1  1  0  0  0  0
  2  8  1  0  0  0  0
  3  1  1  0  0  0  0
  6  2  1  0  0  0  0
  6  9  1  0  0  0  0
  6 10  1  0  0  0  0
  7  2  1  0  0  0  0
  9 13  1  0  0  0  0
  9 12  1  0  0  0  0
 11  6  1  0  0  0  0
 14  9  1  0  0  0  0
M  RAD  2   1   2   4   2
M  END
$$$$
