butane_opt
 OpenBabel08242015403D

 14 13  0  0  0  0  0  0  0  0999 V2000
   -3.9711    0.2370   -0.1255 C   0  0  0  0  0  0  0  0  0  0  0  0
   -2.7166   -0.5806    0.1342 C   0  0  0  0  0  0  0  0  0  0  0  0
   -4.8496   -0.3712    0.0111 H   0  0  0  0  0  0  0  0  0  0  0  0
   -4.2842    1.0175   -1.2178 H   0  0  0  0  0  0  0  0  0  0  0  0
   -3.9669    0.4417    0.5225 H   0  0  0  0  0  0  0  0  0  0  0  0
   -1.4284    0.2666    0.2645 C   0  0  0  0  0  0  0  0  0  0  0  0
   -2.4060   -1.1794   -0.6946 H   0  0  0  0  0  0  0  0  0  0  0  0
   -3.1896   -1.2578    1.0033 H   0  0  0  0  0  0  0  0  0  0  0  0
   -0.0576   -0.7568   -0.1267 C   0  0  0  0  0  0  0  0  0  0  0  0
   -1.3116    1.0165    1.1383 H   0  0  0  0  0  0  0  0  0  0  0  0
   -1.4539    0.7262   -0.4221 H   0  0  0  0  0  0  0  0  0  0  0  0
    0.2557   -1.5383    0.8738 H   0  0  0  0  0  0  0  0  0  0  0  0
    0.8543   -0.1027   -0.6941 H   0  0  0  0  0  0  0  0  0  0  0  0
   -0.5399   -1.2091   -0.8463 H   0  0  0  0  0  0  0  0  0  0  0  0
  1  3  1  0  0  0  0
  1  2  1  0  0  0  0
  1  5  1  0  0  0  0
  2  6  1  0  0  0  0
  2  8  1  0  0  0  0
  4  1  1  0  0  0  0
  6 10  1  0  0  0  0
  7  2  1  0  0  0  0
  9  6  1  0  0  0  0
  9 12  1  0  0  0  0
 11  6  1  0  0  0  0
 13  9  1  0  0  0  0
 14  9  1  0  0  0  0
M  END
$$$$
