14
butane_opt
C  -3.995488   0.208248   0.101709
C  -2.727098  -0.585850  -0.075483
H  -5.124681  -0.595449  -0.075141
H  -3.907707   0.842785  -0.768116
H  -4.043925   1.026642   1.151296
C  -1.381792   0.285793  -0.034530
H  -2.863980  -1.472572  -1.149094
H  -2.575358  -0.785814   0.535119
C  -0.046490  -0.755369   0.155956
H  -1.497963   0.810148   0.812458
H  -1.499506   0.893444  -0.859308
H   0.216241  -1.916426   1.330986
H   0.609502  -0.253209  -0.863387
H  -0.442716  -0.899555  -0.397765
