butane_opt
 OpenBabel08242015403D

 14 13  0  0  0  0  0  0  0  0999 V2000
   -3.9689    0.2202   -0.1069 C   0  0  0  0  0  0  0  0  0  0  0  0
   -2.7819   -0.5570    0.1724 C   0  0  0  0  0  0  0  0  0  0  0  0
   -4.8822   -0.4787   -0.4517 H   0  0  0  0  0  0  0  0  0  0  0  0
   -3.7188    0.7042   -0.8059 H   0  0  0  0  0  0  0  0  0  0  0  0
   -4.1126    1.1277    0.9530 H   0  0  0  0  0  0  0  0  0  0  0  0
   -1.3533    0.2604    0.0939 C   0  0  0  0  0  0  0  0  0  0  0  0
   -2.7007   -0.9552   -0.4050 H   0  0  0  0  0  0  0  0  0  0  0  0
   -3.0155   -1.4669    1.1709 H   0  0  0  0  0  0  0  0  0  0  0  0
   -0.0910   -0.7917   -0.0552 C   0  0  0  0  0  0  0  0  0  0  0  0
   -1.6278    1.0951    1.0121 H   0  0  0  0  0  0  0  0  0  0  0  0
   -1.4368    0.6689   -0.6424 H   0  0  0  0  0  0  0  0  0  0  0  0
    0.0890   -1.1867    0.6027 H   0  0  0  0  0  0  0  0  0  0  0  0
    0.9034   -0.1826   -0.4354 H   0  0  0  0  0  0  0  0  0  0  0  0
   -0.1620   -1.3674   -0.8315 H   0  0  0  0  0  0  0  0  0  0  0  0
  1  2  1  0  0  0  0
  1  5  1  0  0  0  0
  2  8  1  0  0  0  0
  3  1  1  0  0  0  0
  4  1  1  0  0  0  0
  6  2  1  0  0  0  0
  6 10  1  0  0  0  0
  7  2  1  0  0  0  0
  9  6  1  0  0  0  0
  9 12  1  0  0  0  0
 11  6  1  0  0  0  0
 13  9  1  0  0  0  0
 14  9  1  0  0  0  0
M  END
$$$$
