14
butane_opt
C  -3.967858   0.270588  -0.169920
C  -2.751416  -0.592990   0.355759
H  -5.120201  -0.519867  -0.912097
H  -3.483350   0.483592  -0.932971
H  -4.216080   1.198168   0.872263
C  -1.365798   0.242351   0.135555
H  -2.730439  -1.276038  -0.433271
H  -2.838020  -1.223062   1.136840
C  -0.122432  -0.742552  -0.148923
H  -1.194909   0.782406   0.925883
H  -1.778164   0.849673  -0.654228
H   0.102758  -1.327682   0.688372
H   0.742690  -0.056269  -0.102924
H  -0.035656  -1.537116  -1.195766
