butane_opt
 OpenBabel08242015403D

 14 13  0  0  0  0  0  0  0  0999 V2000
   -3.8988    0.2134    0.1724 C   0  0  0  0  0  0  0  0  0  0  0  0
   -2.6771   -0.5876   -0.1729 C   0  0  0  0  0  0  0  0  0  0  0  0
   -4.7863   -0.4868    0.7676 H   0  0  0  0  0  0  0  0  0  0  0  0
   -4.4116    1.1659   -0.8422 H   0  0  0  0  0  0  0  0  0  0  0  0
   -3.5027    0.8600    1.2056 H   0  0  0  0  0  0  0  0  0  0  0  0
   -1.4383    0.2250   -0.1925 C   0  0  0  0  0  0  0  0  0  0  0  0
   -2.8247   -1.4987   -1.1942 H   0  0  0  0  0  0  0  0  0  0  0  0
   -2.5144   -1.1206    0.5590 H   0  0  0  0  0  0  0  0  0  0  0  0
   -0.1685   -0.7288    0.2099 C   0  0  0  0  0  0  0  0  0  0  0  0
   -1.7006    1.0599    0.7489 H   0  0  0  0  0  0  0  0  0  0  0  0
   -1.4023    0.8301   -1.0497 H   0  0  0  0  0  0  0  0  0  0  0  0
   -0.6054   -1.3443    1.2932 H   0  0  0  0  0  0  0  0  0  0  0  0
    0.8056   -0.1793    0.2498 H   0  0  0  0  0  0  0  0  0  0  0  0
    0.1549   -1.2091   -0.5338 H   0  0  0  0  0  0  0  0  0  0  0  0
  1  3  1  0  0  0  0
  1  5  1  0  0  0  0
  2  1  1  0  0  0  0
  2  8  1  0  0  0  0
  4  1  1  0  0  0  0
  6  2  1  0  0  0  0
  6  9  1  0  0  0  0
  6 10  1  0  0  0  0
  7  2  1  0  0  0  0
  9 13  1  0  0  0  0
  9 12  1  0  0  0  0
 11  6  1  0  0  0  0
 14  9  1  0  0  0  0
M  END
$$$$
