14
butane_opt
C  -4.030407   0.278738   0.121531
C  -2.668449  -0.630229  -0.160323
H  -4.908800  -0.218950   0.109381
H  -4.305053   0.618536  -0.423267
H  -3.919688   1.178496   1.224016
C  -1.350188   0.126026  -0.056070
H  -2.394234  -1.286319  -1.097581
H  -2.815961  -1.088641   0.608778
C  -0.160038  -0.641251   0.144998
H  -1.484906   0.770799   0.735473
H  -1.310170   0.718974  -0.890517
H   0.205790  -2.150526   1.520016
H   0.824940   0.130999  -0.536746
H  -0.429133  -0.725453  -0.269095
