14
butane_opt
C  -3.945802   0.234543  -0.065632
C  -2.733765  -0.558617   0.142921
H  -5.005305  -0.475369   0.265194
H  -3.988925   0.905100  -1.169181
H  -4.052553   0.749542   0.661461
C  -1.399656   0.233174   0.068522
H  -2.574431  -1.018470  -0.542174
H  -2.836099  -1.461338   1.227822
C  -0.113808  -0.754637  -0.041168
H  -1.241847   0.719346   0.922567
H  -1.628364   1.087015  -0.956943
H  -0.350169  -0.717504   0.475394
H   0.874252   0.036027   0.713200
H   0.123565  -2.184909  -1.462695
