butane_opt
 OpenBabel08242015403D

 14 11  0  0  0  0  0  0  0  0999 V2000
   -3.9813    0.2622    0.0702 C   0  0  0  0  0  0  0  0  0  0  0  0
   -2.7224   -0.6023   -0.0928 C   0  0  0  0  0  0  0  0  0  0  0  0
   -4.9207   -0.4873    0.9993 H   0  0  0  0  0  0  0  0  0  0  0  0
   -4.4350    1.1884   -1.0403 H   0  0  0  0  0  0  0  0  0  0  0  0
   -3.4714    0.3658    0.6893 H   0  0  0  0  0  0  0  0  0  0  0  0
   -1.4417    0.2342   -0.0008 C   0  0  0  0  0  0  0  0  0  0  0  0
   -3.0342   -1.6031   -1.2437 H   0  0  0  0  0  0  0  0  0  0  0  0
   -2.6706   -0.9604    0.6569 H   0  0  0  0  0  0  0  0  0  0  0  0
   -0.0659   -0.7157    0.1278 C   0  0  0  0  0  0  0  0  0  0  0  0
   -1.5706    0.9250    0.7285 H   0  0  0  0  0  0  0  0  0  0  0  0
   -1.4193    1.0265   -1.0806 H   0  0  0  0  0  0  0  0  0  0  0  0
    0.1135   -1.4904    0.9978 H   0  0  0  0  0  0  0  0  0  0  0  0
    0.8933   -0.0489    0.2945 H   0  0  0  0  0  0  0  0  0  0  0  0
   -0.0042   -1.5054   -0.8358 H   0  0  0  0  0  0  0  0  0  0  0  0
  1  5  1  0  0  0  0
  1  3  1  0  0  0  0
  2  6  1  0  0  0  0
  2  8  1  0  0  0  0
  4  1  1  0  0  0  0
  6  9  1  0  0  0  0
  6 10  1  0  0  0  0
  9 13  1  0  0  0  0
  9 12  1  0  0  0  0
 11  6  1  0  0  0  0
 14  9  1  0  0  0  0
M  RAD  3   1   2   2   3   7   2
M  END
$$$$
