butane_opt
 OpenBabel08242015403D

 14 10  0  0  0  0  0  0  0  0999 V2000
   -3.8344    0.2270    0.0014 C   0  0  0  0  0  0  0  0  0  0  0  0
   -2.7137   -0.5579    0.0554 C   0  0  0  0  0  0  0  0  0  0  0  0
   -5.0699   -0.6698    0.4570 H   0  0  0  0  0  0  0  0  0  0  0  0
   -4.0482    1.3072   -1.1774 H   0  0  0  0  0  0  0  0  0  0  0  0
   -3.5185    0.4333    0.6034 H   0  0  0  0  0  0  0  0  0  0  0  0
   -1.4276    0.2636    0.0606 C   0  0  0  0  0  0  0  0  0  0  0  0
   -2.6953   -1.4853   -0.9412 H   0  0  0  0  0  0  0  0  0  0  0  0
   -2.7669   -0.8495    0.6148 H   0  0  0  0  0  0  0  0  0  0  0  0
   -0.2197   -0.7392    0.0019 C   0  0  0  0  0  0  0  0  0  0  0  0
   -1.5246    0.9084    0.9145 H   0  0  0  0  0  0  0  0  0  0  0  0
   -1.4716    0.8120   -0.7012 H   0  0  0  0  0  0  0  0  0  0  0  0
    0.0350   -1.4505    0.9081 H   0  0  0  0  0  0  0  0  0  0  0  0
    0.5706   -0.3288   -0.0049 H   0  0  0  0  0  0  0  0  0  0  0  0
   -0.1535   -1.4885   -0.7116 H   0  0  0  0  0  0  0  0  0  0  0  0
  1  2  1  0  0  0  0
  1  5  1  0  0  0  0
  2  8  1  0  0  0  0
  6 10  1  0  0  0  0
  7  2  1  0  0  0  0
  9  6  1  0  0  0  0
  9 12  1  0  0  0  0
 11  6  1  0  0  0  0
 13  9  1  0  0  0  0
 14  9  1  0  0  0  0
M  RAD  5   1   3   2   2   3   2   4   2   6   2
M  END
$$$$
