14
butane_opt
C  -3.995437   0.300747  -0.139382
C  -2.691554  -0.693903   0.226734
H  -4.761440  -0.073435   0.171376
H  -3.950330   1.265026  -1.087195
H  -4.353159   0.771284   0.522616
C  -1.385577   0.146149   0.087106
H  -2.712475  -1.123740  -0.496490
H  -2.795011  -1.718830   1.400767
C  -0.140263  -0.629868  -0.103375
H  -1.456304   1.001114   1.141914
H  -1.297562   0.426802  -0.590967
H  -0.140332  -0.582007   0.349088
H   0.800291  -0.073926   0.418356
H   0.146755  -1.808032  -1.347579
