14
butane_opt
C  -3.928198   0.351109   0.158403
C  -2.681655  -0.725406  -0.073590
H  -4.888843  -0.200508  -0.412964
H  -3.896919   0.348858  -0.340495
H  -3.884883   1.565358   1.333117
C  -1.351153   0.158412  -0.158652
H  -2.561656  -1.603866  -1.015890
H  -2.700032  -1.153103   0.559778
C  -0.270978  -0.624776   0.165621
H  -1.379777   0.840693   0.622868
H  -1.403092   0.683062  -1.099321
H  -0.194063  -2.053014   1.563453
H   0.718700   0.078232  -0.444915
H  -0.131339  -0.849780  -0.291452
