butane_opt
 OpenBabel08242015403D

 14  9  0  0  0  0  0  0  0  0999 V2000
   -3.8356    0.2219   -0.0663 C   0  0  0  0  0 15  0  0  0  0  0  0
   -2.7520   -0.5277    0.0498 C   0  0  0  0  0  0  0  0  0  0  0  0
   -4.9787   -0.6098    0.6686 H   0  0  0  0  0  0  0  0  0  0  0  0
   -4.0803    1.1662   -1.2467 H   0  0  0  0  0  0  0  0  0  0  0  0
   -3.6297    0.2004    0.5009 H   0  0  0  0  0  0  0  0  0  0  0  0
   -1.4823    0.2292    0.1854 C   0  0  0  0  0  0  0  0  0  0  0  0
   -2.6272   -1.1828   -0.8976 H   0  0  0  0  0  0  0  0  0  0  0  0
   -2.6228   -1.0026    0.7915 H   0  0  0  0  0  0  0  0  0  0  0  0
   -0.1353   -0.7678   -0.0606 C   0  0  0  0  0  0  0  0  0  0  0  0
   -1.4537    0.9240    1.0831 H   0  0  0  0  0  0  0  0  0  0  0  0
   -1.6532    1.0284   -0.7989 H   0  0  0  0  0  0  0  0  0  0  0  0
    0.0735   -1.2988    0.7997 H   0  0  0  0  0  0  0  0  0  0  0  0
    0.7769   -0.1716    0.0527 H   0  0  0  0  0  0  0  0  0  0  0  0
   -0.3226   -1.4217   -0.8381 H   0  0  0  0  0  0  0  0  0  0  0  0
  2  5  1  0  0  0  0
  2  8  1  0  0  0  0
  6 10  1  0  0  0  0
  7  2  1  0  0  0  0
  9 13  1  0  0  0  0
  9  6  1  0  0  0  0
  9 12  1  0  0  0  0
 11  6  1  0  0  0  0
 14  9  1  0  0  0  0
M  RAD  4   2   2   3   2   4   2   6   2
M  END
$$$$
