butane_opt
 OpenBabel08242015403D

 14 13  0  0  0  0  0  0  0  0999 V2000
   -4.0141    0.3286    0.1201 C   0  0  0  0  0  0  0  0  0  0  0  0
   -2.6565   -0.6707   -0.1130 C   0  0  0  0  0  0  0  0  0  0  0  0
   -5.0342   -0.4493    0.7584 H   0  0  0  0  0  0  0  0  0  0  0  0
   -4.4171    0.8661   -0.6975 H   0  0  0  0  0  0  0  0  0  0  0  0
   -3.7442    1.1517    1.2302 H   0  0  0  0  0  0  0  0  0  0  0  0
   -1.3849    0.1033   -0.1775 C   0  0  0  0  0  0  0  0  0  0  0  0
   -2.7426   -1.5090   -0.9972 H   0  0  0  0  0  0  0  0  0  0  0  0
   -2.7496   -1.2256    0.8184 H   0  0  0  0  0  0  0  0  0  0  0  0
   -0.1388   -0.6256    0.1805 C   0  0  0  0  0  0  0  0  0  0  0  0
   -1.5224    0.7528    0.5194 H   0  0  0  0  0  0  0  0  0  0  0  0
   -1.0519    0.9710   -1.2150 H   0  0  0  0  0  0  0  0  0  0  0  0
   -0.4512   -1.0407    1.0154 H   0  0  0  0  0  0  0  0  0  0  0  0
    0.7438   -0.1693    0.6697 H   0  0  0  0  0  0  0  0  0  0  0  0
    0.2801   -1.4612   -0.7758 H   0  0  0  0  0  0  0  0  0  0  0  0
  1  3  1  0  0  0  0
  1  5  1  0  0  0  0
  2  1  1  0  0  0  0
  2  8  1  0  0  0  0
  4  1  1  0  0  0  0
  6  2  1  0  0  0  0
  6  9  1  0  0  0  0
  6 10  1  0  0  0  0
  7  2  1  0  0  0  0
  9 13  1  0  0  0  0
  9 12  1  0  0  0  0
 11  6  1  0  0  0  0
 14  9  1  0  0  0  0
M  END
$$$$
