14
butane_opt
C  -3.991400   0.290998   0.114490
C  -2.659178  -0.682760  -0.025967
H  -4.818631  -0.160547   0.163183
H  -4.209789   0.720607  -0.554551
H  -4.030278   1.302917   1.258453
C  -1.387134   0.128661  -0.216493
H  -2.535857  -1.345840  -0.863401
H  -2.781772  -1.351832   0.913562
C  -0.207203  -0.643847   0.168137
H  -1.282263   0.714825   0.556890
H  -1.137808   1.057356  -1.144313
H  -0.389327  -0.833564   0.797157
H   0.722410  -0.113630   0.687651
H   0.370958  -1.597520  -0.846628
