14
butane_opt
C  -3.943257   0.317512  -0.051791
C  -2.676798  -0.645074   0.082039
H  -4.988045  -0.462516   0.753780
H  -4.082031   1.459881  -1.402831
H  -3.602060   0.606053   0.514923
C  -1.412332   0.120237   0.107992
H  -2.461896  -1.413748  -0.797434
H  -2.854141  -1.010829   0.949869
C  -0.211083  -0.682534  -0.012837
H  -1.264951   0.697934   0.922421
H  -1.232873   0.682781  -0.794784
H  -0.118115  -0.833655   0.634169
H   0.839969   0.028333   0.264946
H  -0.346292  -1.534065  -1.155058
