butane_opt
 OpenBabel08242015403D

 14 11  0  0  0  0  0  0  0  0999 V2000
   -3.9727    0.3050    0.1507 C   0  0  0  0  0  0  0  0  0  0  0  0
   -2.6989   -0.7310   -0.0377 C   0  0  0  0  0  0  0  0  0  0  0  0
   -4.6965   -0.0213   -0.6305 H   0  0  0  0  0  0  0  0  0  0  0  0
   -3.8654    0.3859   -0.4930 H   0  0  0  0  0  0  0  0  0  0  0  0
   -4.2061    1.5615    1.4727 H   0  0  0  0  0  0  0  0  0  0  0  0
   -1.4249    0.1480   -0.1715 C   0  0  0  0  0  0  0  0  0  0  0  0
   -2.7224   -1.4228   -0.8352 H   0  0  0  0  0  0  0  0  0  0  0  0
   -2.3891   -1.3115    0.8573 H   0  0  0  0  0  0  0  0  0  0  0  0
   -0.1365   -0.6416    0.1211 C   0  0  0  0  0  0  0  0  0  0  0  0
   -1.5622    0.9973    0.7085 H   0  0  0  0  0  0  0  0  0  0  0  0
   -1.1444    0.8669   -1.1216 H   0  0  0  0  0  0  0  0  0  0  0  0
   -0.4305   -1.7080    1.3521 H   0  0  0  0  0  0  0  0  0  0  0  0
    0.7785    0.1031   -0.0132 H   0  0  0  0  0  0  0  0  0  0  0  0
   -0.0240   -0.8890   -0.5508 H   0  0  0  0  0  0  0  0  0  0  0  0
  2  1  1  0  0  0  0
  2  8  1  0  0  0  0
  3  1  1  0  0  0  0
  4  1  1  0  0  0  0
  6  2  1  0  0  0  0
  6  9  1  0  0  0  0
  6 10  1  0  0  0  0
  7  2  1  0  0  0  0
 11  6  1  0  0  0  0
 13  9  1  0  0  0  0
 14  9  1  0  0  0  0
M  RAD  4   1   2   5   2   9   2  12   2
M  END
$$$$
