butane_opt
 OpenBabel08242015403D

 14 10  0  0  0  0  0  0  0  0999 V2000
   -3.8866    0.3168   -0.0667 C   0  0  0  0  0  0  0  0  0  0  0  0
   -2.6710   -0.6737    0.0649 C   0  0  0  0  0  0  0  0  0  0  0  0
   -4.6929   -0.1618    0.0602 H   0  0  0  0  0  0  0  0  0  0  0  0
   -4.0447    0.9877   -0.9475 H   0  0  0  0  0  0  0  0  0  0  0  0
   -4.1533    1.0101    0.7567 H   0  0  0  0  0  0  0  0  0  0  0  0
   -1.3776    0.1550    0.1726 C   0  0  0  0  0  0  0  0  0  0  0  0
   -2.3685   -1.5939   -0.8720 H   0  0  0  0  0  0  0  0  0  0  0  0
   -2.7458   -1.4738    0.9257 H   0  0  0  0  0  0  0  0  0  0  0  0
   -0.2579   -0.6833   -0.0787 C   0  0  0  0  0  1  0  0  0  0  0  0
   -1.3076    0.9541    1.1665 H   0  0  0  0  0  0  0  0  0  0  0  0
   -1.3952    0.6484   -0.5714 H   0  0  0  0  0  0  0  0  0  0  0  0
   -0.1094   -1.7181    1.0766 H   0  0  0  0  0  0  0  0  0  0  0  0
    0.7384    0.1734   -0.6504 H   0  0  0  0  0  0  0  0  0  0  0  0
   -0.6237   -0.6150   -0.5360 H   0  0  0  0  0  0  0  0  0  0  0  0
  1  3  1  0  0  0  0
  1  2  1  0  0  0  0
  1  5  1  0  0  0  0
  2  8  1  0  0  0  0
  4  1  1  0  0  0  0
  6 10  1  0  0  0  0
  7  2  1  0  0  0  0
 11  6  1  0  0  0  0
 13  9  1  0  0  0  0
 14  6  1  0  0  0  0
M  RAD  3   2   2   6   2  12   2
M  END
$$$$
