14
butane_opt
C  -4.051406   0.297090   0.131971
C  -2.682884  -0.630174  -0.170611
H  -4.826920  -0.239978   0.755965
H  -4.426894   1.146315  -0.788597
H  -3.742099   0.701507   0.798527
C  -1.307079   0.130215  -0.076921
H  -2.685100  -1.448147  -1.157485
H  -2.687809  -1.385514   0.689102
C  -0.161713  -0.658572   0.187507
H  -1.563298   1.027921   0.868033
H  -1.227400   0.707557  -0.926892
H  -0.001305  -1.469716   1.177415
H   0.713821   0.019113  -0.139307
H  -0.172967  -1.162502  -0.697613
