butane_opt
 OpenBabel08242015403D

 14 13  0  0  0  0  0  0  0  0999 V2000
   -3.9188    0.3141   -0.1209 C   0  0  0  0  0  0  0  0  0  0  0  0
   -2.6279   -0.6168    0.1420 C   0  0  0  0  0  0  0  0  0  0  0  0
   -5.0501   -0.4281    0.1692 H   0  0  0  0  0  0  0  0  0  0  0  0
   -3.7924    1.1202   -1.2390 H   0  0  0  0  0  0  0  0  0  0  0  0
   -4.1755    0.6082    0.5008 H   0  0  0  0  0  0  0  0  0  0  0  0
   -1.3968    0.1522    0.2410 C   0  0  0  0  0  0  0  0  0  0  0  0
   -2.4834   -1.3135   -0.7045 H   0  0  0  0  0  0  0  0  0  0  0  0
   -2.9712   -1.3215    1.1034 H   0  0  0  0  0  0  0  0  0  0  0  0
   -0.2205   -0.6632   -0.0969 C   0  0  0  0  0  0  0  0  0  0  0  0
   -1.3837    0.6961    1.0295 H   0  0  0  0  0  0  0  0  0  0  0  0
   -1.3428    0.7151   -0.5105 H   0  0  0  0  0  0  0  0  0  0  0  0
    0.1138   -1.3059    0.6313 H   0  0  0  0  0  0  0  0  0  0  0  0
    0.8038   -0.0750   -0.4274 H   0  0  0  0  0  0  0  0  0  0  0  0
   -0.7529   -1.3840   -1.0960 H   0  0  0  0  0  0  0  0  0  0  0  0
  1  2  1  0  0  0  0
  1  3  1  0  0  0  0
  1  5  1  0  0  0  0
  2  6  1  0  0  0  0
  2  8  1  0  0  0  0
  4  1  1  0  0  0  0
  6 10  1  0  0  0  0
  7  2  1  0  0  0  0
  9  6  1  0  0  0  0
  9 12  1  0  0  0  0
 11  6  1  0  0  0  0
 13  9  1  0  0  0  0
 14  9  1  0  0  0  0
M  END
$$$$
