butane_opt
 OpenBabel08242015403D

 14  9  0  0  0  0  0  0  0  0999 V2000
   -3.8939    0.1998   -0.0705 C   0  0  0  0  0 15  0  0  0  0  0  0
   -2.7592   -0.4796    0.0773 C   0  0  0  0  0  0  0  0  0  0  0  0
   -5.0256   -0.6830    0.6809 H   0  0  0  0  0  0  0  0  0  0  0  0
   -4.3288    1.4203   -1.2927 H   0  0  0  0  0  0  0  0  0  0  0  0
   -3.5100    0.1693    0.2128 H   0  0  0  0  0  0  0  0  0  0  0  0
   -1.3834    0.2269    0.2201 C   0  0  0  0  0  0  0  0  0  0  0  0
   -2.4844   -1.2260   -0.8008 H   0  0  0  0  0  0  0  0  0  0  0  0
   -2.7920   -0.9681    0.8668 H   0  0  0  0  0  0  0  0  0  0  0  0
   -0.1645   -0.7895   -0.0850 C   0  0  0  0  0  0  0  0  0  0  0  0
   -1.4078    0.8918    1.0579 H   0  0  0  0  0  0  0  0  0  0  0  0
   -1.3680    0.8819   -0.8419 H   0  0  0  0  0  0  0  0  0  0  0  0
   -0.0524   -1.0959    0.6686 H   0  0  0  0  0  0  0  0  0  0  0  0
    0.5568   -0.2568    0.0869 H   0  0  0  0  0  0  0  0  0  0  0  0
   -0.1224   -1.5554   -0.9924 H   0  0  0  0  0  0  0  0  0  0  0  0
  2  5  1  0  0  0  0
  2  8  1  0  0  0  0
  6 10  1  0  0  0  0
  7  2  1  0  0  0  0
  9 13  1  0  0  0  0
  9  6  1  0  0  0  0
  9 12  1  0  0  0  0
 11  6  1  0  0  0  0
 14  9  1  0  0  0  0
M  RAD  4   2   2   3   2   4   2   6   2
M  END
$$$$
