14
butane_opt
C  -3.936986   0.221392   0.216295
C  -2.764803  -0.572779  -0.213926
H  -5.015815  -0.623592   0.595738
H  -4.513426   1.049249  -0.779616
H  -3.385349   0.765484   0.889776
C  -1.364045   0.294084  -0.147898
H  -3.114007  -1.363053  -1.275480
H  -2.565739  -1.066242   0.631906
C  -0.123133  -0.728712   0.168230
H  -1.461868   0.924516   0.668036
H  -1.380790   0.821583  -0.931434
H  -0.353948  -1.851284   1.393917
H   0.565965  -0.475177   0.370465
H   0.516269  -1.255281  -0.416664
