butane_opt
 OpenBabel08242015403D

 14 12  0  0  0  0  0  0  0  0999 V2000
   -3.9914    0.2910    0.1145 C   0  0  0  0  0  0  0  0  0  0  0  0
   -2.6592   -0.6828   -0.0260 C   0  0  0  0  0  0  0  0  0  0  0  0
   -4.8186   -0.1605    0.1632 H   0  0  0  0  0  0  0  0  0  0  0  0
   -4.2098    0.7206   -0.5546 H   0  0  0  0  0  0  0  0  0  0  0  0
   -4.0303    1.3029    1.2585 H   0  0  0  0  0  0  0  0  0  0  0  0
   -1.3871    0.1287   -0.2165 C   0  0  0  0  0  0  0  0  0  0  0  0
   -2.5359   -1.3458   -0.8634 H   0  0  0  0  0  0  0  0  0  0  0  0
   -2.7818   -1.3518    0.9136 H   0  0  0  0  0  0  0  0  0  0  0  0
   -0.2072   -0.6438    0.1681 C   0  0  0  0  0  0  0  0  0  0  0  0
   -1.2823    0.7148    0.5569 H   0  0  0  0  0  0  0  0  0  0  0  0
   -1.1378    1.0574   -1.1443 H   0  0  0  0  0  0  0  0  0  0  0  0
   -0.3893   -0.8336    0.7972 H   0  0  0  0  0  0  0  0  0  0  0  0
    0.7224   -0.1136    0.6877 H   0  0  0  0  0  0  0  0  0  0  0  0
    0.3710   -1.5975   -0.8466 H   0  0  0  0  0  0  0  0  0  0  0  0
  1  3  1  0  0  0  0
  2  1  1  0  0  0  0
  2  8  1  0  0  0  0
  4  1  1  0  0  0  0
  6  2  1  0  0  0  0
  6  9  1  0  0  0  0
  6 10  1  0  0  0  0
  7  2  1  0  0  0  0
  9 13  1  0  0  0  0
  9 12  1  0  0  0  0
 11  6  1  0  0  0  0
 14  9  1  0  0  0  0
M  RAD  2   1   2   5   2
M  END
$$$$
