14
butane_opt
C  -3.886633   0.316793  -0.066656
C  -2.670978  -0.673702   0.064880
H  -4.692852  -0.161789   0.060225
H  -4.044659   0.987738  -0.947466
H  -4.153266   1.010124   0.756696
C  -1.377586   0.154968   0.172578
H  -2.368524  -1.593884  -0.872011
H  -2.745763  -1.473756   0.925682
C  -0.257918  -0.683287  -0.078665
H  -1.307582   0.954077   1.166517
H  -1.395175   0.648392  -0.571434
H  -0.109392  -1.718100   1.076635
H   0.738368   0.173352  -0.650435
H  -0.623684  -0.615001  -0.536024
