butane_opt
 OpenBabel08242015403D

 14 10  0  0  0  0  0  0  0  0999 V2000
   -3.8349    0.2667   -0.1166 C   0  0  0  0  0  0  0  0  0  0  0  0
   -2.6530   -0.6040    0.1946 C   0  0  0  0  0  0  0  0  0  0  0  0
   -4.8015   -0.2747   -0.1395 H   0  0  0  0  0  0  0  0  0  0  0  0
   -3.9495    1.1975   -1.1428 H   0  0  0  0  0  0  0  0  0  0  0  0
   -4.0609    0.6068    0.4638 H   0  0  0  0  0  0  0  0  0  0  0  0
   -1.4735    0.1569    0.1801 C   0  0  0  0  0  0  0  0  0  0  0  0
   -2.7050   -1.0712   -0.5040 H   0  0  0  0  0  0  0  0  0  0  0  0
   -2.8873   -1.7686    1.3034 H   0  0  0  0  0  0  0  0  0  0  0  0
   -0.1865   -0.6659   -0.0935 C   0  0  0  0  0  0  0  0  0  0  0  0
   -1.3620    0.8022    0.9788 H   0  0  0  0  0  0  0  0  0  0  0  0
   -1.6310    0.8018   -0.7411 H   0  0  0  0  0  0  0  0  0  0  0  0
   -0.1033   -0.6782    0.2344 H   0  0  0  0  0  0  0  0  0  0  0  0
    0.5906   -0.0791    0.2882 H   0  0  0  0  0  0  0  0  0  0  0  0
   -0.3356   -1.8519   -1.3613 H   0  0  0  0  0  0  0  0  0  0  0  0
  1  2  1  0  0  0  0
  1  5  1  0  0  0  0
  3  1  1  0  0  0  0
  4  1  1  0  0  0  0
  6  2  1  0  0  0  0
  6 10  1  0  0  0  0
  7  2  1  0  0  0  0
  9  6  1  0  0  0  0
  9 13  1  0  0  0  0
 11  6  1  0  0  0  0
M  RAD  5   2   2   8   2   9   3  12   2  14   2
M  END
$$$$
