14
butane_opt
C  -3.923448   0.316382  -0.106272
C  -2.663644  -0.664478   0.176494
H  -4.718848  -0.284341  -0.653450
H  -3.783787   0.527180  -0.755723
H  -4.445025   1.312482   0.865787
C  -1.368431   0.108808   0.152781
H  -2.472794  -0.962900  -0.383035
H  -2.704847  -1.406236   1.254982
C  -0.266375  -0.651168  -0.086111
H  -1.261722   0.868560   1.054495
H  -1.064750   0.724533  -0.806004
H  -0.147492  -1.335533   0.711098
H   0.660804  -0.046548  -0.529045
H  -0.405188  -1.206881  -0.954036
