14
butane_opt
C  -3.932972   0.182557   0.167054
C  -2.786411  -0.556173  -0.156824
H  -4.798628  -0.211420  -0.035125
H  -4.173302   1.053392  -0.769835
H  -4.041146   0.773277   0.973669
C  -1.370258   0.277508  -0.038053
H  -2.992894  -1.501106  -1.295320
H  -2.563286  -1.096322   0.700569
C  -0.084092  -0.742322   0.146346
H  -1.353121   0.885730   0.821370
H  -1.410267   0.873375  -0.837807
H   0.137627  -1.967243   1.369239
H   0.589846  -0.324805  -0.536690
H  -0.264541  -0.907589  -0.354781
