14
butane_opt
C  -4.033545   0.286479  -0.174080
C  -2.669751  -0.673700   0.279120
H  -4.834947  -0.090462  -0.593313
H  -3.620486   0.672854  -0.913528
H  -4.370760   0.963754   0.699106
C  -1.370784   0.207365   0.204276
H  -2.626209  -1.389419  -0.545179
H  -3.013151  -1.392057   1.437443
C  -0.142780  -0.670132  -0.198165
H  -1.174653   1.118386   1.162431
H  -1.455757   0.790915  -0.572757
H  -0.058954  -1.431152   0.839377
H   0.713908  -0.266171  -0.356322
H  -0.007824  -1.259885  -1.048578
