butane_opt
 OpenBabel08242015403D

 14 13  0  0  0  0  0  0  0  0999 V2000
   -3.8695    0.2913    0.2113 C   0  0  0  0  0  0  0  0  0  0  0  0
   -2.6563   -0.6729   -0.2035 C   0  0  0  0  0  0  0  0  0  0  0  0
   -4.8205   -0.3301    0.6156 H   0  0  0  0  0  0  0  0  0  0  0  0
   -4.3330    0.7652   -0.5807 H   0  0  0  0  0  0  0  0  0  0  0  0
   -3.8023    1.0859    1.1491 H   0  0  0  0  0  0  0  0  0  0  0  0
   -1.4276    0.1755   -0.2254 C   0  0  0  0  0  0  0  0  0  0  0  0
   -2.9715   -1.0610   -0.9782 H   0  0  0  0  0  0  0  0  0  0  0  0
   -2.4652   -1.3942    0.6275 H   0  0  0  0  0  0  0  0  0  0  0  0
   -0.2006   -0.6891    0.2371 C   0  0  0  0  0  0  0  0  0  0  0  0
   -1.7913    0.7769    0.4336 H   0  0  0  0  0  0  0  0  0  0  0  0
   -1.1913    0.9370   -1.1513 H   0  0  0  0  0  0  0  0  0  0  0  0
   -0.6453   -1.0378    0.9374 H   0  0  0  0  0  0  0  0  0  0  0  0
    0.8431   -0.0356    0.6686 H   0  0  0  0  0  0  0  0  0  0  0  0
    0.0302   -1.4439   -0.5263 H   0  0  0  0  0  0  0  0  0  0  0  0
  1  3  1  0  0  0  0
  1  5  1  0  0  0  0
  2  1  1  0  0  0  0
  2  8  1  0  0  0  0
  4  1  1  0  0  0  0
  6  2  1  0  0  0  0
  6  9  1  0  0  0  0
  6 10  1  0  0  0  0
  7  2  1  0  0  0  0
  9 13  1  0  0  0  0
  9 12  1  0  0  0  0
 11  6  1  0  0  0  0
 14  9  1  0  0  0  0
M  END
$$$$
