14
butane_opt
C  -3.834899   0.266659  -0.116640
C  -2.652963  -0.604037   0.194555
H  -4.801516  -0.274651  -0.139531
H  -3.949509   1.197454  -1.142846
H  -4.060919   0.606788   0.463817
C  -1.473509   0.156937   0.180141
H  -2.704979  -1.071203  -0.503980
H  -2.887305  -1.768566   1.303415
C  -0.186517  -0.665871  -0.093539
H  -1.362036   0.802183   0.978777
H  -1.631002   0.801793  -0.741055
H  -0.103327  -0.678175   0.234372
H   0.590569  -0.079150   0.288161
H  -0.335636  -1.851924  -1.361321
