butane_opt
 OpenBabel08242015403D

 14 13  0  0  0  0  0  0  0  0999 V2000
   -3.9387    0.2457    0.0090 C   0  0  0  0  0  0  0  0  0  0  0  0
   -2.7034   -0.5977    0.0618 C   0  0  0  0  0  0  0  0  0  0  0  0
   -4.8750   -0.3781    0.0183 H   0  0  0  0  0  0  0  0  0  0  0  0
   -3.9160    0.8790   -0.9011 H   0  0  0  0  0  0  0  0  0  0  0  0
   -3.9507    0.9644    0.8726 H   0  0  0  0  0  0  0  0  0  0  0  0
   -1.4119    0.1997    0.0129 C   0  0  0  0  0  0  0  0  0  0  0  0
   -2.6869   -1.2764   -0.7816 H   0  0  0  0  0  0  0  0  0  0  0  0
   -2.7139   -1.2170    0.9528 H   0  0  0  0  0  0  0  0  0  0  0  0
   -0.1519   -0.7087    0.0184 C   0  0  0  0  0  0  0  0  0  0  0  0
   -1.4422    0.8332    0.8390 H   0  0  0  0  0  0  0  0  0  0  0  0
   -1.4095    0.8454   -0.9107 H   0  0  0  0  0  0  0  0  0  0  0  0
   -0.1654   -1.2476    0.8764 H   0  0  0  0  0  0  0  0  0  0  0  0
    0.7573   -0.1153    0.1271 H   0  0  0  0  0  0  0  0  0  0  0  0
   -0.1383   -1.4361   -0.8789 H   0  0  0  0  0  0  0  0  0  0  0  0
  1  3  1  0  0  0  0
  1  2  1  0  0  0  0
  1  5  1  0  0  0  0
  2  8  1  0  0  0  0
  4  1  1  0  0  0  0
  6  9  1  0  0  0  0
  6  2  1  0  0  0  0
  6 10  1  0  0  0  0
  7  2  1  0  0  0  0
  9 13  1  0  0  0  0
  9 12  1  0  0  0  0
 11  6  1  0  0  0  0
 14  9  1  0  0  0  0
M  END
$$$$
