butane_opt
 OpenBabel08242015403D

 14 13  0  0  0  0  0  0  0  0999 V2000
   -3.9109    0.2230    0.1799 C   0  0  0  0  0  0  0  0  0  0  0  0
   -2.7412   -0.5463   -0.1928 C   0  0  0  0  0  0  0  0  0  0  0  0
   -4.8923   -0.6315    0.6627 H   0  0  0  0  0  0  0  0  0  0  0  0
   -4.0670    0.9565   -0.7993 H   0  0  0  0  0  0  0  0  0  0  0  0
   -3.2019    0.7800    1.0315 H   0  0  0  0  0  0  0  0  0  0  0  0
   -1.4481    0.2489   -0.0920 C   0  0  0  0  0  0  0  0  0  0  0  0
   -2.9420   -1.4660   -1.2243 H   0  0  0  0  0  0  0  0  0  0  0  0
   -2.5294   -0.8945    0.4533 H   0  0  0  0  0  0  0  0  0  0  0  0
   -0.1366   -0.7649    0.1697 C   0  0  0  0  0  0  0  0  0  0  0  0
   -1.5248    0.7130    0.4457 H   0  0  0  0  0  0  0  0  0  0  0  0
   -1.4129    1.0838   -1.0947 H   0  0  0  0  0  0  0  0  0  0  0  0
   -0.2431   -1.5184    1.3175 H   0  0  0  0  0  0  0  0  0  0  0  0
    0.6458   -0.3103    0.2808 H   0  0  0  0  0  0  0  0  0  0  0  0
    0.0103   -1.1274   -0.3877 H   0  0  0  0  0  0  0  0  0  0  0  0
  1  3  1  0  0  0  0
  1  5  1  0  0  0  0
  2  6  1  0  0  0  0
  2  1  1  0  0  0  0
  2  8  1  0  0  0  0
  4  1  1  0  0  0  0
  6  9  1  0  0  0  0
  6 10  1  0  0  0  0
  7  2  1  0  0  0  0
  9 13  1  0  0  0  0
  9 12  1  0  0  0  0
 11  6  1  0  0  0  0
 14  9  1  0  0  0  0
M  END
$$$$
