14
butane_opt
C  -3.936782   0.249558   0.051987
C  -2.715211  -0.601043  -0.011274
H  -4.885679  -0.375069   0.223888
H  -4.023554   0.946513  -0.871659
H  -3.914448   0.876776   0.859487
C  -1.413460   0.198933  -0.008619
H  -2.738229  -1.329172  -0.913595
H  -2.683878  -1.191227   0.847602
C  -0.140896  -0.708319   0.067321
H  -1.471772   0.868491   0.819490
H  -1.363691   0.847245  -0.943796
H  -0.113257  -1.331328   0.966344
H   0.760616  -0.124006   0.030319
H  -0.103772  -1.334497  -0.771057
