butane_opt
 OpenBabel08242015403D

 14 12  0  0  0  0  0  0  0  0999 V2000
   -3.9124    0.2990   -0.0214 C   0  0  0  0  0  0  0  0  0  0  0  0
   -2.6589   -0.6362    0.0593 C   0  0  0  0  0  0  0  0  0  0  0  0
   -4.9997   -0.3989   -0.3511 H   0  0  0  0  0  0  0  0  0  0  0  0
   -3.9949    0.7380   -0.7989 H   0  0  0  0  0  0  0  0  0  0  0  0
   -3.8479    1.2073    1.0595 H   0  0  0  0  0  0  0  0  0  0  0  0
   -1.4394    0.1136    0.1088 C   0  0  0  0  0  0  0  0  0  0  0  0
   -2.7328   -1.3959   -0.9108 H   0  0  0  0  0  0  0  0  0  0  0  0
   -2.7427   -1.2030    0.8248 H   0  0  0  0  0  0  0  0  0  0  0  0
   -0.1654   -0.6631   -0.0195 C   0  0  0  0  0  0  0  0  0  0  0  0
   -1.4959    0.7079    0.9987 H   0  0  0  0  0  0  0  0  0  0  0  0
   -1.6042    0.9969   -1.0061 H   0  0  0  0  0  0  0  0  0  0  0  0
   -0.0061   -1.6025    1.1339 H   0  0  0  0  0  0  0  0  0  0  0  0
    0.9427    0.0814   -0.5163 H   0  0  0  0  0  0  0  0  0  0  0  0
   -0.4607   -0.9288   -0.4762 H   0  0  0  0  0  0  0  0  0  0  0  0
  1  2  1  0  0  0  0
  1  5  1  0  0  0  0
  2  6  1  0  0  0  0
  2  8  1  0  0  0  0
  3  1  1  0  0  0  0
  4  1  1  0  0  0  0
  6 10  1  0  0  0  0
  7  2  1  0  0  0  0
  9  6  1  0  0  0  0
  9 12  1  0  0  0  0
 11  6  1  0  0  0  0
 13  9  1  0  0  0  0
M  RAD  2   9   2  14   2
M  END
$$$$
