butane_opt
 OpenBabel08242015403D

 14 11  0  0  0  0  0  0  0  0999 V2000
   -3.9220    0.3669   -0.0629 C   0  0  0  0  0  0  0  0  0  0  0  0
   -2.6731   -0.6845    0.1942 C   0  0  0  0  0  0  0  0  0  0  0  0
   -4.8216   -0.3198   -0.7390 H   0  0  0  0  0  0  0  0  0  0  0  0
   -3.8207    0.5497   -0.7445 H   0  0  0  0  0  0  0  0  0  0  0  0
   -4.2847    1.2604    1.0048 H   0  0  0  0  0  0  0  0  0  0  0  0
   -1.3977    0.0743    0.0855 C   0  0  0  0  0  0  0  0  0  0  0  0
   -2.6366   -1.3315   -0.7010 H   0  0  0  0  0  0  0  0  0  0  0  0
   -2.6094   -1.4692    1.1788 H   0  0  0  0  0  0  0  0  0  0  0  0
   -0.1929   -0.6188   -0.0507 C   0  0  0  0  0  0  0  0  0  0  0  0
   -1.4181    0.5360    0.8203 H   0  0  0  0  0  0  0  0  0  0  0  0
   -1.5713    1.0989   -1.0322 H   0  0  0  0  0  0  0  0  0  0  0  0
   -0.3196   -1.2488    0.7403 H   0  0  0  0  0  0  0  0  0  0  0  0
    1.0062    0.3398    0.0751 H   0  0  0  0  0  0  0  0  0  0  0  0
   -0.3728   -1.5167   -1.1462 H   0  0  0  0  0  0  0  0  0  0  0  0
  1  2  1  0  0  0  0
  1  5  1  0  0  0  0
  2  8  1  0  0  0  0
  3  1  1  0  0  0  0
  4  1  1  0  0  0  0
  6  2  1  0  0  0  0
  6 10  1  0  0  0  0
  7  2  1  0  0  0  0
  9  6  1  0  0  0  0
  9 12  1  0  0  0  0
 14  9  1  0  0  0  0
M  RAD  4   6   2   9   2  11   2  13   2
M  END
$$$$
