butane_opt
 OpenBabel08242015403D

 14 12  0  0  0  0  0  0  0  0999 V2000
   -3.9448    0.2046    0.1873 C   0  0  0  0  0  0  0  0  0  0  0  0
   -2.7711   -0.5503   -0.1614 C   0  0  0  0  0  0  0  0  0  0  0  0
   -5.0727   -0.6152    0.7362 H   0  0  0  0  0  0  0  0  0  0  0  0
   -4.2858    1.2326   -0.8936 H   0  0  0  0  0  0  0  0  0  0  0  0
   -3.7600    0.5246    0.8873 H   0  0  0  0  0  0  0  0  0  0  0  0
   -1.4430    0.2321   -0.1868 C   0  0  0  0  0  0  0  0  0  0  0  0
   -2.8255   -1.4138   -1.0657 H   0  0  0  0  0  0  0  0  0  0  0  0
   -2.4787   -1.0004    0.6066 H   0  0  0  0  0  0  0  0  0  0  0  0
   -0.0566   -0.7252    0.2088 C   0  0  0  0  0  0  0  0  0  0  0  0
   -1.6047    1.2608    0.8019 H   0  0  0  0  0  0  0  0  0  0  0  0
   -1.2148    0.7820   -0.9850 H   0  0  0  0  0  0  0  0  0  0  0  0
   -0.1354   -1.4836    1.1684 H   0  0  0  0  0  0  0  0  0  0  0  0
    0.6127   -0.2007    0.2651 H   0  0  0  0  0  0  0  0  0  0  0  0
    0.3706   -1.5559   -0.7177 H   0  0  0  0  0  0  0  0  0  0  0  0
  1  3  1  0  0  0  0
  1  5  1  0  0  0  0
  2  1  1  0  0  0  0
  2  8  1  0  0  0  0
  6  2  1  0  0  0  0
  6  9  1  0  0  0  0
  6 10  1  0  0  0  0
  7  2  1  0  0  0  0
  9 13  1  0  0  0  0
  9 12  1  0  0  0  0
 11  6  1  0  0  0  0
 14  9  1  0  0  0  0
M  RAD  2   1   2   4   2
M  END
$$$$
