14
butane_opt
C  -3.971105   0.266778   0.111682
C  -2.729183  -0.665843  -0.099247
H  -4.851533  -0.190899  -0.050023
H  -4.272823   0.680243  -0.664479
H  -3.826356   1.269728   1.070642
C  -1.365141   0.210995  -0.022744
H  -2.804431  -1.482189  -1.160417
H  -2.463218  -0.944626   0.519603
C  -0.155907  -0.668999   0.161713
H  -1.359648   0.547855   0.717681
H  -1.074760   0.954891  -1.031893
H   0.241805  -1.907358   1.516824
H   0.616126  -0.261734  -0.659846
H  -0.557295  -0.870083  -0.573480
