14
butane_opt
C  -3.904192   0.215884   0.095087
C  -2.670054  -0.583182  -0.007204
H  -4.875436  -0.513956  -0.632602
H  -3.632800   0.214448  -0.363800
H  -4.087814   1.614875   1.393265
C  -1.460251   0.238885  -0.066564
H  -2.696654  -1.303474  -0.901974
H  -2.794018  -1.082222   0.980171
C  -0.157182  -0.667473   0.126361
H  -1.435420   0.325326   0.285518
H  -1.557660   1.182733  -1.203598
H  -0.158840  -1.600490   1.108354
H   0.556804  -0.435669  -0.125839
H  -0.009267  -1.367470  -0.772831
