14
butane_opt
C  -4.017794   0.359560  -0.150059
C  -2.678559  -0.724200   0.229555
H  -4.889658  -0.281094  -0.030268
H  -4.099415   0.896336  -0.979752
H  -3.902783   0.982985   0.741027
C  -1.356606   0.133186   0.094077
H  -2.335818  -1.131255  -0.269949
H  -2.784856  -1.600224   1.236930
C  -0.155348  -0.604407  -0.108976
H  -1.388289   0.883461   0.947720
H  -1.313721   0.576949  -0.721968
H  -0.456609  -0.802039   0.596387
H   0.686531   0.028425   0.327694
H  -0.079344  -1.986223  -1.264970
