butane_opt
 OpenBabel08242015403D

 14 12  0  0  0  0  0  0  0  0999 V2000
   -3.9397    0.2838    0.1086 C   0  0  0  0  0  0  0  0  0  0  0  0
   -2.6368   -0.6497   -0.0175 C   0  0  0  0  0  0  0  0  0  0  0  0
   -4.8342   -0.2361   -0.4250 H   0  0  0  0  0  0  0  0  0  0  0  0
   -3.8426    0.3874   -0.5258 H   0  0  0  0  0  0  0  0  0  0  0  0
   -4.1005    1.3284    1.2257 H   0  0  0  0  0  0  0  0  0  0  0  0
   -1.4401    0.2128   -0.0754 C   0  0  0  0  0  0  0  0  0  0  0  0
   -2.8269   -1.4910   -0.9639 H   0  0  0  0  0  0  0  0  0  0  0  0
   -2.4296   -1.3979    0.8023 H   0  0  0  0  0  0  0  0  0  0  0  0
   -0.2076   -0.6969    0.1393 C   0  0  0  0  0  0  0  0  0  0  0  0
   -1.5171    0.5311    0.5524 H   0  0  0  0  0  0  0  0  0  0  0  0
   -1.1510    1.1320   -1.2050 H   0  0  0  0  0  0  0  0  0  0  0  0
   -0.2312   -1.3203    0.9522 H   0  0  0  0  0  0  0  0  0  0  0  0
    0.7125   -0.0155   -0.1506 H   0  0  0  0  0  0  0  0  0  0  0  0
   -0.1180   -1.1696   -0.6643 H   0  0  0  0  0  0  0  0  0  0  0  0
  2  1  1  0  0  0  0
  2  8  1  0  0  0  0
  3  1  1  0  0  0  0
  4  1  1  0  0  0  0
  6  2  1  0  0  0  0
  6  9  1  0  0  0  0
  6 10  1  0  0  0  0
  7  2  1  0  0  0  0
  9 12  1  0  0  0  0
 11  6  1  0  0  0  0
 13  9  1  0  0  0  0
 14  9  1  0  0  0  0
M  RAD  2   1   2   5   2
M  END
$$$$
