14
butane_opt
C  -3.986820   0.303610   0.060417
C  -2.609808  -0.637964   0.088029
H  -4.970287  -0.379398  -0.026336
H  -3.693693   1.175767  -0.984426
H  -4.091081   0.701966   0.784796
C  -1.410315   0.130871  -0.065610
H  -2.670986  -1.411965  -0.797942
H  -2.591715  -1.317534   1.102677
C  -0.202453  -0.685033   0.036283
H  -1.422389   0.689948   0.828194
H  -1.369913   0.905720  -1.043417
H  -0.704151  -0.523317   0.541817
H   0.781537   0.068362   0.671545
H   0.213902  -1.727777  -1.176949
