butane_opt
 OpenBabel08242015403D

 14 11  0  0  0  0  0  0  0  0999 V2000
   -3.9099    0.3158    0.1553 C   0  0  0  0  0  1  0  0  0  0  0  0
   -2.6658   -0.6779   -0.0498 C   0  0  0  0  0  0  0  0  0  0  0  0
   -4.6056   -0.0525   -0.5663 H   0  0  0  0  0  0  0  0  0  0  0  0
   -3.6274    0.2726   -0.2484 H   0  0  0  0  0  0  0  0  0  0  0  0
   -4.4986    1.6756    1.4576 H   0  0  0  0  0  0  0  0  0  0  0  0
   -1.3911    0.1022   -0.2279 C   0  0  0  0  0  0  0  0  0  0  0  0
   -2.7243   -1.5427   -0.8843 H   0  0  0  0  0  0  0  0  0  0  0  0
   -2.5844   -1.4522    0.9992 H   0  0  0  0  0  0  0  0  0  0  0  0
   -0.1919   -0.5946    0.1696 C   0  0  0  0  0  0  0  0  0  0  0  0
   -1.6350    0.7494    0.6602 H   0  0  0  0  0  0  0  0  0  0  0  0
   -1.3788    0.6941   -1.1376 H   0  0  0  0  0  0  0  0  0  0  0  0
   -0.4157   -1.5307    1.2431 H   0  0  0  0  0  0  0  0  0  0  0  0
    0.5747    0.0071   -0.0328 H   0  0  0  0  0  0  0  0  0  0  0  0
   -0.2579   -1.0070   -0.5140 H   0  0  0  0  0  0  0  0  0  0  0  0
  2  8  1  0  0  0  0
  3  1  1  0  0  0  0
  4  2  1  0  0  0  0
  6  2  1  0  0  0  0
  6  9  1  0  0  0  0
  6 10  1  0  0  0  0
  7  2  1  0  0  0  0
  9 12  1  0  0  0  0
 11  6  1  0  0  0  0
 13  9  1  0  0  0  0
 14  9  1  0  0  0  0
M  RAD  1   5   2
M  END
$$$$
