butane_opt
 OpenBabel08242015403D

 14 13  0  0  0  0  0  0  0  0999 V2000
   -4.0514    0.2971    0.1320 C   0  0  0  0  0  0  0  0  0  0  0  0
   -2.6829   -0.6302   -0.1706 C   0  0  0  0  0  0  0  0  0  0  0  0
   -4.8269   -0.2400    0.7560 H   0  0  0  0  0  0  0  0  0  0  0  0
   -4.4269    1.1463   -0.7886 H   0  0  0  0  0  0  0  0  0  0  0  0
   -3.7421    0.7015    0.7985 H   0  0  0  0  0  0  0  0  0  0  0  0
   -1.3071    0.1302   -0.0769 C   0  0  0  0  0  0  0  0  0  0  0  0
   -2.6851   -1.4481   -1.1575 H   0  0  0  0  0  0  0  0  0  0  0  0
   -2.6878   -1.3855    0.6891 H   0  0  0  0  0  0  0  0  0  0  0  0
   -0.1617   -0.6586    0.1875 C   0  0  0  0  0  0  0  0  0  0  0  0
   -1.5633    1.0279    0.8680 H   0  0  0  0  0  0  0  0  0  0  0  0
   -1.2274    0.7076   -0.9269 H   0  0  0  0  0  0  0  0  0  0  0  0
   -0.0013   -1.4697    1.1774 H   0  0  0  0  0  0  0  0  0  0  0  0
    0.7138    0.0191   -0.1393 H   0  0  0  0  0  0  0  0  0  0  0  0
   -0.1730   -1.1625   -0.6976 H   0  0  0  0  0  0  0  0  0  0  0  0
  1  3  1  0  0  0  0
  1  5  1  0  0  0  0
  2  6  1  0  0  0  0
  2  1  1  0  0  0  0
  2  8  1  0  0  0  0
  4  1  1  0  0  0  0
  6  9  1  0  0  0  0
  6 10  1  0  0  0  0
  7  2  1  0  0  0  0
  9 12  1  0  0  0  0
 11  6  1  0  0  0  0
 13  9  1  0  0  0  0
 14  9  1  0  0  0  0
M  END
$$$$
