butane_opt
 OpenBabel08242015403D

 14 13  0  0  0  0  0  0  0  0999 V2000
   -3.9505    0.3414   -0.1721 C   0  0  0  0  0  0  0  0  0  0  0  0
   -2.6797   -0.6328    0.1415 C   0  0  0  0  0  0  0  0  0  0  0  0
   -4.7535   -0.2864    0.2105 H   0  0  0  0  0  0  0  0  0  0  0  0
   -3.8459    0.9719   -1.0448 H   0  0  0  0  0  0  0  0  0  0  0  0
   -3.9132    0.6452    0.4090 H   0  0  0  0  0  0  0  0  0  0  0  0
   -1.3706    0.0812    0.2738 C   0  0  0  0  0  0  0  0  0  0  0  0
   -2.3175   -1.0905   -0.4976 H   0  0  0  0  0  0  0  0  0  0  0  0
   -3.0562   -1.4249    1.1872 H   0  0  0  0  0  0  0  0  0  0  0  0
   -0.2428   -0.6356   -0.1506 C   0  0  0  0  0  0  0  0  0  0  0  0
   -1.3039    0.9966    1.1847 H   0  0  0  0  0  0  0  0  0  0  0  0
   -1.4824    0.4259   -0.4194 H   0  0  0  0  0  0  0  0  0  0  0  0
    0.2006   -1.3223    0.8450 H   0  0  0  0  0  0  0  0  0  0  0  0
    0.7380    0.0662   -0.6606 H   0  0  0  0  0  0  0  0  0  0  0  0
   -0.4481   -1.2559   -0.8777 H   0  0  0  0  0  0  0  0  0  0  0  0
  1  2  1  0  0  0  0
  1  3  1  0  0  0  0
  1  5  1  0  0  0  0
  2  6  1  0  0  0  0
  2  8  1  0  0  0  0
  4  1  1  0  0  0  0
  6 10  1  0  0  0  0
  7  2  1  0  0  0  0
  9  6  1  0  0  0  0
  9 12  1  0  0  0  0
 11  6  1  0  0  0  0
 13  9  1  0  0  0  0
 14  9  1  0  0  0  0
M  END
$$$$
