butane_opt
 OpenBabel08242015403D

 14  9  0  0  0  0  0  0  0  0999 V2000
   -3.9135    0.3104    0.1037 C   0  0  0  0  0  0  0  0  0  0  0  0
   -2.6648   -0.6676   -0.1060 C   0  0  0  0  0  0  0  0  0  0  0  0
   -4.8197   -0.2675   -0.1361 H   0  0  0  0  0  0  0  0  0  0  0  0
   -3.9597    0.6124   -0.6312 H   0  0  0  0  0  0  0  0  0  0  0  0
   -4.0616    1.4998    1.2433 H   0  0  0  0  0  0  0  0  0  0  0  0
   -1.3734    0.1263   -0.0494 C   0  0  0  0  0  0  0  0  0  0  0  0
   -2.7130   -1.3554   -0.8359 H   0  0  0  0  0  0  0  0  0  0  0  0
   -2.6868   -1.1254    0.6971 H   0  0  0  0  0  0  0  0  0  0  0  0
   -0.1872   -0.6801    0.0892 C   0  0  0  0  0  1  0  0  0  0  0  0
   -1.2935    0.7529    0.8774 H   0  0  0  0  0  0  0  0  0  0  0  0
   -1.5219    0.6185   -0.8789 H   0  0  0  0  0  0  0  0  0  0  0  0
   -0.3724   -1.8917    1.4791 H   0  0  0  0  0  0  0  0  0  0  0  0
    0.7679    0.1709   -0.4630 H   0  0  0  0  0  0  0  0  0  0  0  0
   -0.6772   -0.5306   -0.2250 H   0  0  0  0  0  0  0  0  0  0  0  0
  2  1  1  0  0  0  0
  2  8  1  0  0  0  0
  3  1  1  0  0  0  0
  4  1  1  0  0  0  0
  6 10  1  0  0  0  0
  7  2  1  0  0  0  0
 11  6  1  0  0  0  0
 13  9  1  0  0  0  0
 14  6  1  0  0  0  0
M  RAD  5   1   2   2   2   5   2   6   2  12   2
M  END
$$$$
