butane_opt
 OpenBabel08242015403D

 14  9  0  0  0  0  0  0  0  0999 V2000
   -4.0528    0.2543    0.1411 C   0  0  0  0  0  0  0  0  0  0  0  0
   -2.6854   -0.6117   -0.1494 C   0  0  0  0  0  0  0  0  0  0  0  0
   -5.0533   -0.4060   -0.0574 H   0  0  0  0  0  0  0  0  0  0  0  0
   -4.0087    0.5601   -0.4850 H   0  0  0  0  0  0  0  0  0  0  0  0
   -3.7976    1.3786    1.2906 H   0  0  0  0  0  0  0  0  0  0  0  0
   -1.3485    0.2300   -0.0407 C   0  0  0  0  0  0  0  0  0  0  0  0
   -2.9120   -1.5547   -1.3511 H   0  0  0  0  0  0  0  0  0  0  0  0
   -2.7237   -1.0820    0.7041 H   0  0  0  0  0  0  0  0  0  0  0  0
   -0.1254   -0.7149    0.1496 C   0  0  0  0  0  0  0  0  0  0  0  0
   -1.4858    0.5193    0.5839 H   0  0  0  0  0  0  0  0  0  0  0  0
   -1.1694    1.2065   -1.0932 H   0  0  0  0  0  0  0  0  0  0  0  0
    0.1877   -1.9868    1.5322 H   0  0  0  0  0  0  0  0  0  0  0  0
    0.7644   -0.1688   -0.5120 H   0  0  0  0  0  0  0  0  0  0  0  0
   -0.2691   -0.8338   -0.2827 H   0  0  0  0  0  0  0  0  0  0  0  0
  2  6  1  0  0  0  0
  2  1  1  0  0  0  0
  2  8  1  0  0  0  0
  3  1  1  0  0  0  0
  4  1  1  0  0  0  0
  6  9  1  0  0  0  0
  6 10  1  0  0  0  0
 11  6  1  0  0  0  0
 13  9  1  0  0  0  0
M  RAD  7   1   2   2   2   5   2   7   2   9   3  12   2  14   2
M  END
$$$$
