butane_opt
 OpenBabel08242015403D

 14 13  0  0  0  0  0  0  0  0999 V2000
   -3.9395    0.2752    0.0580 C   0  0  0  0  0  0  0  0  0  0  0  0
   -2.6857   -0.6359    0.0198 C   0  0  0  0  0  0  0  0  0  0  0  0
   -4.8230   -0.2750    0.0302 H   0  0  0  0  0  0  0  0  0  0  0  0
   -3.9640    0.8954   -0.8593 H   0  0  0  0  0  0  0  0  0  0  0  0
   -3.9464    0.9416    0.9306 H   0  0  0  0  0  0  0  0  0  0  0  0
   -1.3997    0.1767   -0.0429 C   0  0  0  0  0  0  0  0  0  0  0  0
   -2.7603   -1.3361   -0.8357 H   0  0  0  0  0  0  0  0  0  0  0  0
   -2.6940   -1.1931    0.8429 H   0  0  0  0  0  0  0  0  0  0  0  0
   -0.1800   -0.6874    0.0703 C   0  0  0  0  0  0  0  0  0  0  0  0
   -1.4262    0.8355    0.7911 H   0  0  0  0  0  0  0  0  0  0  0  0
   -1.3664    0.8373   -0.9624 H   0  0  0  0  0  0  0  0  0  0  0  0
   -0.2467   -1.2470    0.9140 H   0  0  0  0  0  0  0  0  0  0  0  0
    0.7750   -0.0700    0.1469 H   0  0  0  0  0  0  0  0  0  0  0  0
   -0.1231   -1.3953   -0.8267 H   0  0  0  0  0  0  0  0  0  0  0  0
  1  5  1  0  0  0  0
  2  1  1  0  0  0  0
  2  8  1  0  0  0  0
  3  1  1  0  0  0  0
  4  1  1  0  0  0  0
  6  2  1  0  0  0  0
  6  9  1  0  0  0  0
  6 10  1  0  0  0  0
  7  2  1  0  0  0  0
  9 13  1  0  0  0  0
  9 12  1  0  0  0  0
 11  6  1  0  0  0  0
 14  9  1  0  0  0  0
M  END
$$$$
