14
butane_opt
C  -3.954739   0.298864   0.171314
C  -2.614254  -0.642262  -0.060208
H  -4.657833  -0.116683  -0.045968
H  -3.911717   0.400425  -0.448603
H  -4.211995   1.221340   1.090875
C  -1.414234   0.138207  -0.166695
H  -2.683142  -1.439896  -0.905465
H  -2.401625  -1.269653   0.695836
C  -0.274255  -0.636482   0.152414
H  -1.508987   0.559510   0.418648
H  -0.936397   0.914148  -1.303672
H  -0.508681  -1.254331   1.014361
H   0.717725   0.037346   0.438249
H   0.132479  -1.391322  -0.642965
