butane_opt
 OpenBabel08242015403D

 14 13  0  0  0  0  0  0  0  0999 V2000
   -3.9866    0.2747    0.2305 C   0  0  0  0  0  0  0  0  0  0  0  0
   -2.6800   -0.6301   -0.1989 C   0  0  0  0  0  0  0  0  0  0  0  0
   -4.9794   -0.4102    0.6196 H   0  0  0  0  0  0  0  0  0  0  0  0
   -4.4976    1.1845   -0.8073 H   0  0  0  0  0  0  0  0  0  0  0  0
   -3.6675    0.5112    0.8450 H   0  0  0  0  0  0  0  0  0  0  0  0
   -1.4260    0.2163   -0.2108 C   0  0  0  0  0  0  0  0  0  0  0  0
   -3.0449   -1.6470   -1.1529 H   0  0  0  0  0  0  0  0  0  0  0  0
   -2.6500   -1.0691    0.5428 H   0  0  0  0  0  0  0  0  0  0  0  0
   -0.1145   -0.6707    0.2331 C   0  0  0  0  0  0  0  0  0  0  0  0
   -1.4550    1.0945    0.7473 H   0  0  0  0  0  0  0  0  0  0  0  0
   -1.2021    0.6946   -1.0283 H   0  0  0  0  0  0  0  0  0  0  0  0
   -0.0829   -1.5552    1.4128 H   0  0  0  0  0  0  0  0  0  0  0  0
    0.6583   -0.1548    0.2695 H   0  0  0  0  0  0  0  0  0  0  0  0
    0.3493   -1.4036   -0.7090 H   0  0  0  0  0  0  0  0  0  0  0  0
  1  3  1  0  0  0  0
  1  5  1  0  0  0  0
  2  1  1  0  0  0  0
  2  8  1  0  0  0  0
  4  1  1  0  0  0  0
  6  2  1  0  0  0  0
  6  9  1  0  0  0  0
  6 10  1  0  0  0  0
  7  2  1  0  0  0  0
  9 13  1  0  0  0  0
  9 12  1  0  0  0  0
 11  6  1  0  0  0  0
 14  9  1  0  0  0  0
M  END
$$$$
