14
butane_opt
C  -3.944801   0.204567   0.187273
C  -2.771069  -0.550317  -0.161385
H  -5.072706  -0.615179   0.736179
H  -4.285751   1.232606  -0.893598
H  -3.760035   0.524557   0.887284
C  -1.442996   0.232079  -0.186832
H  -2.825473  -1.413772  -1.065686
H  -2.478670  -1.000377   0.606586
C  -0.056620  -0.725168   0.208775
H  -1.604715   1.260771   0.801883
H  -1.214774   0.781974  -0.984964
H  -0.135410  -1.483608   1.168364
H   0.612705  -0.200703   0.265129
H   0.370630  -1.555929  -0.717686
