butane_opt
 OpenBabel08242015403D

 14 13  0  0  0  0  0  0  0  0999 V2000
   -3.9636    0.3613   -0.1506 C   0  0  0  0  0  0  0  0  0  0  0  0
   -2.6996   -0.6983    0.1374 C   0  0  0  0  0  0  0  0  0  0  0  0
   -4.8604   -0.2541    0.0263 H   0  0  0  0  0  0  0  0  0  0  0  0
   -4.0718    0.8870   -1.0216 H   0  0  0  0  0  0  0  0  0  0  0  0
   -4.2864    0.9014    0.5513 H   0  0  0  0  0  0  0  0  0  0  0  0
   -1.3568    0.1513    0.2027 C   0  0  0  0  0  0  0  0  0  0  0  0
   -2.7569   -1.3523   -0.5715 H   0  0  0  0  0  0  0  0  0  0  0  0
   -2.9221   -1.5533    1.3122 H   0  0  0  0  0  0  0  0  0  0  0  0
   -0.1624   -0.6222   -0.1048 C   0  0  0  0  0  0  0  0  0  0  0  0
   -1.2494    1.0184    1.3325 H   0  0  0  0  0  0  0  0  0  0  0  0
   -1.1610    0.4338   -0.5446 H   0  0  0  0  0  0  0  0  0  0  0  0
    0.3372   -1.4265    0.8514 H   0  0  0  0  0  0  0  0  0  0  0  0
    0.6163   -0.1508   -0.7020 H   0  0  0  0  0  0  0  0  0  0  0  0
   -0.5099   -1.2374   -0.8223 H   0  0  0  0  0  0  0  0  0  0  0  0
  1  3  1  0  0  0  0
  1  2  1  0  0  0  0
  1  5  1  0  0  0  0
  2  6  1  0  0  0  0
  2  8  1  0  0  0  0
  4  1  1  0  0  0  0
  6 10  1  0  0  0  0
  7  2  1  0  0  0  0
  9  6  1  0  0  0  0
  9 12  1  0  0  0  0
 11  6  1  0  0  0  0
 13  9  1  0  0  0  0
 14  9  1  0  0  0  0
M  END
$$$$
