butane_opt
 OpenBabel08242015403D

 14  9  0  0  0  0  0  0  0  0999 V2000
   -3.9791    0.2099    0.1511 C   0  0  0  0  0  0  0  0  0  0  0  0
   -2.7847   -0.6052   -0.0308 C   0  0  0  0  0  0  0  0  0  0  0  0
   -4.9408   -0.4260   -0.6609 H   0  0  0  0  0  0  0  0  0  0  0  0
   -3.5967    0.1674   -0.3965 H   0  0  0  0  0  0  0  0  0  0  0  0
   -3.9959    1.5377    1.3982 H   0  0  0  0  0  0  0  0  0  0  0  0
   -1.3940    0.3212   -0.1953 C   0  0  0  0  0  0  0  0  0  0  0  0
   -2.9399   -1.0777   -0.8222 H   0  0  0  0  0  0  0  0  0  0  0  0
   -2.5254   -1.2877    0.6855 H   0  0  0  0  0  0  0  0  0  0  0  0
   -0.0986   -0.7489    0.1494 C   0  0  0  0  0  0  0  0  0  0  0  0
   -1.3479    0.9952    0.6809 H   0  0  0  0  0  0  0  0  0  0  0  0
   -1.4432    0.9439   -1.1006 H   0  0  0  0  0  0  0  0  0  0  0  0
    0.0840   -1.7916    1.4036 H   0  0  0  0  0  0  0  0  0  0  0  0
    0.6770   -0.5195    0.0258 H   0  0  0  0  0  0  0  0  0  0  0  0
    0.0848   -1.1800   -0.5573 H   0  0  0  0  0  0  0  0  0  0  0  0
  2  8  1  0  0  0  0
  3  1  1  0  0  0  0
  4  1  1  0  0  0  0
  6  9  1  0  0  0  0
  6 10  1  0  0  0  0
  7  2  1  0  0  0  0
 11  6  1  0  0  0  0
 13  9  1  0  0  0  0
 14  9  1  0  0  0  0
M  RAD  6   1   3   2   3   5   2   6   2   9   2  12   2
M  END
$$$$
