butane_opt
 OpenBabel08242015403D

 14 11  0  0  0  0  0  0  0  0999 V2000
   -3.9330    0.1826    0.1671 C   0  0  0  0  0  0  0  0  0  0  0  0
   -2.7864   -0.5562   -0.1568 C   0  0  0  0  0  0  0  0  0  0  0  0
   -4.7986   -0.2114   -0.0351 H   0  0  0  0  0  0  0  0  0  0  0  0
   -4.1733    1.0534   -0.7698 H   0  0  0  0  0  0  0  0  0  0  0  0
   -4.0411    0.7733    0.9737 H   0  0  0  0  0  0  0  0  0  0  0  0
   -1.3703    0.2775   -0.0381 C   0  0  0  0  0  0  0  0  0  0  0  0
   -2.9929   -1.5011   -1.2953 H   0  0  0  0  0  0  0  0  0  0  0  0
   -2.5633   -1.0963    0.7006 H   0  0  0  0  0  0  0  0  0  0  0  0
   -0.0841   -0.7423    0.1463 C   0  0  0  0  0  0  0  0  0  0  0  0
   -1.3531    0.8857    0.8214 H   0  0  0  0  0  0  0  0  0  0  0  0
   -1.4103    0.8734   -0.8378 H   0  0  0  0  0  0  0  0  0  0  0  0
    0.1376   -1.9672    1.3692 H   0  0  0  0  0  0  0  0  0  0  0  0
    0.5898   -0.3248   -0.5367 H   0  0  0  0  0  0  0  0  0  0  0  0
   -0.2645   -0.9076   -0.3548 H   0  0  0  0  0  0  0  0  0  0  0  0
  1  5  1  0  0  0  0
  2  6  1  0  0  0  0
  2  1  1  0  0  0  0
  2  8  1  0  0  0  0
  3  1  1  0  0  0  0
  4  1  1  0  0  0  0
  6  9  1  0  0  0  0
  6 10  1  0  0  0  0
  7  2  1  0  0  0  0
 11  6  1  0  0  0  0
 13  9  1  0  0  0  0
M  RAD  3   9   3  12   2  14   2
M  END
$$$$
