butane_opt
 OpenBabel08242015403D

 14 12  0  0  0  0  0  0  0  0999 V2000
   -3.9995    0.2625    0.1873 C   0  0  0  0  0  0  0  0  0  0  0  0
   -2.7156   -0.5801   -0.1883 C   0  0  0  0  0  0  0  0  0  0  0  0
   -5.1064   -0.4684    0.1449 H   0  0  0  0  0  0  0  0  0  0  0  0
   -3.9549    0.6136   -0.5449 H   0  0  0  0  0  0  0  0  0  0  0  0
   -3.7575    0.9950    1.0417 H   0  0  0  0  0  0  0  0  0  0  0  0
   -1.3629    0.2461   -0.0922 C   0  0  0  0  0  0  0  0  0  0  0  0
   -3.0295   -1.5459   -1.1823 H   0  0  0  0  0  0  0  0  0  0  0  0
   -2.5933   -0.8257    0.4717 H   0  0  0  0  0  0  0  0  0  0  0  0
   -0.1363   -0.7390    0.2422 C   0  0  0  0  0  0  0  0  0  0  0  0
   -1.5257    0.6164    0.5618 H   0  0  0  0  0  0  0  0  0  0  0  0
   -1.2448    0.8707   -1.1150 H   0  0  0  0  0  0  0  0  0  0  0  0
    0.2341   -1.9782    1.3646 H   0  0  0  0  0  0  0  0  0  0  0  0
    0.7330   -0.0378   -0.6374 H   0  0  0  0  0  0  0  0  0  0  0  0
   -0.2280   -0.9750   -0.3972 H   0  0  0  0  0  0  0  0  0  0  0  0
  1  5  1  0  0  0  0
  2  6  1  0  0  0  0
  2  1  1  0  0  0  0
  2  8  1  0  0  0  0
  3  1  1  0  0  0  0
  4  1  1  0  0  0  0
  6  9  1  0  0  0  0
  6 10  1  0  0  0  0
  7  2  1  0  0  0  0
 11  6  1  0  0  0  0
 13  9  1  0  0  0  0
 14  9  1  0  0  0  0
M  RAD  2   9   2  12   2
M  END
$$$$
