14
butane_opt
C  -3.851900   0.266167  -0.111799
C  -2.726525  -0.564987   0.136886
H  -5.135334  -0.593966   0.558319
H  -3.820969   1.414378  -1.408161
H  -3.919257   0.492535   0.389448
C  -1.412875   0.134613   0.175835
H  -2.532032  -1.008858  -0.491207
H  -2.794353  -1.262285   1.078771
C  -0.202649  -0.703603  -0.109867
H  -1.183726   1.083284   1.085084
H  -1.726971   0.490148  -0.484295
H  -0.226804  -1.015959   0.623303
H   0.729494  -0.098716   0.207326
H  -0.061077  -1.604710  -1.248062
