14
butane_opt
C  -3.918821   0.314093  -0.120886
C  -2.627859  -0.616753   0.141994
H  -5.050097  -0.428077   0.169182
H  -3.792424   1.120184  -1.238967
H  -4.175479   0.608160   0.500762
C  -1.396799   0.152191   0.241012
H  -2.483433  -1.313487  -0.704545
H  -2.971192  -1.321504   1.103356
C  -0.220499  -0.663190  -0.096888
H  -1.383708   0.696058   1.029519
H  -1.342824   0.715118  -0.510521
H   0.113784  -1.305922   0.631325
H   0.803813  -0.074966  -0.427414
H  -0.752942  -1.383977  -1.095978
