14
butane_opt
C  -4.001026   0.307711   0.026050
C  -2.663704  -0.743296   0.003724
H  -4.766730  -0.133674  -0.095315
H  -3.997356   0.793676  -0.797054
H  -4.019687   1.242872   0.989777
C  -1.408198   0.199700   0.056694
H  -2.793379  -1.644658  -0.959394
H  -2.825348  -1.057324   0.720636
C  -0.118016  -0.657593   0.082813
H  -1.635236   0.688766   0.819774
H  -1.257916   0.819040  -0.941241
H   0.292332  -1.620642   1.043236
H   0.660437  -0.028444  -0.796898
H  -0.440976  -0.756288  -0.525751
