butane_opt
 OpenBabel08242015403D

 14 11  0  0  0  0  0  0  0  0999 V2000
   -3.8428    0.2438   -0.0951 C   0  0  0  0  0  0  0  0  0  0  0  0
   -2.6931   -0.5440    0.1297 C   0  0  0  0  0  0  0  0  0  0  0  0
   -4.8861   -0.5692   -0.0836 H   0  0  0  0  0  0  0  0  0  0  0  0
   -4.0188    1.0290   -1.0591 H   0  0  0  0  0  0  0  0  0  0  0  0
   -3.8589    0.6327    0.6339 H   0  0  0  0  0  0  0  0  0  0  0  0
   -1.4148    0.2080    0.1441 C   0  0  0  0  0  0  0  0  0  0  0  0
   -2.6050   -1.3245   -0.6902 H   0  0  0  0  0  0  0  0  0  0  0  0
   -2.8607   -1.3516    1.0102 H   0  0  0  0  0  0  0  0  0  0  0  0
   -0.2343   -0.6851   -0.0801 C   0  0  0  0  0  0  0  0  0  0  0  0
   -1.1304    1.2445    1.2847 H   0  0  0  0  0  0  0  0  0  0  0  0
   -1.8366    0.5847   -0.5189 H   0  0  0  0  0  0  0  0  0  0  0  0
    0.0583   -1.8414    1.0309 H   0  0  0  0  0  0  0  0  0  0  0  0
    0.5693   -0.1869   -0.4457 H   0  0  0  0  0  0  0  0  0  0  0  0
   -0.2313   -1.3548   -0.8952 H   0  0  0  0  0  0  0  0  0  0  0  0
  1  3  1  0  0  0  0
  1  2  1  0  0  0  0
  1  5  1  0  0  0  0
  2  6  1  0  0  0  0
  2  8  1  0  0  0  0
  4  1  1  0  0  0  0
  7  2  1  0  0  0  0
  9  6  1  0  0  0  0
 11  6  1  0  0  0  0
 13  9  1  0  0  0  0
 14  9  1  0  0  0  0
M  RAD  4   6   2   9   2  10   2  12   2
M  END
$$$$
