14
butane_opt
C  -3.934359   0.326230   0.053663
C  -2.647603  -0.631776   0.029978
H  -4.847176  -0.379929  -0.469326
H  -3.858566   0.598372  -0.681348
H  -4.008133   1.137870   1.008854
C  -1.385872   0.127507   0.025282
H  -2.723280  -1.485811  -0.955803
H  -2.793953  -0.970858   0.687104
C  -0.198203  -0.673113   0.085278
H  -1.451061   0.784006   0.624431
H  -1.256409   0.755481  -0.912577
H  -0.069873  -1.839523   1.214642
H   0.864425   0.159077  -0.746065
H  -0.885457  -1.001621  -0.593058
