butane_opt
 OpenBabel08242015403D

 14 11  0  0  0  0  0  0  0  0999 V2000
   -4.0037    0.2992   -0.1423 C   0  0  0  0  0  0  0  0  0  0  0  0
   -2.7157   -0.6381    0.1219 C   0  0  0  0  0  0  0  0  0  0  0  0
   -4.8945   -0.3346   -0.0908 H   0  0  0  0  0  0  0  0  0  0  0  0
   -4.1359    1.4663   -1.3060 H   0  0  0  0  0  0  0  0  0  0  0  0
   -4.1260    0.7463    0.6593 H   0  0  0  0  0  0  0  0  0  0  0  0
   -1.3320    0.1149    0.2567 C   0  0  0  0  0  0  0  0  0  0  0  0
   -2.5045   -1.1054   -0.6113 H   0  0  0  0  0  0  0  0  0  0  0  0
   -2.8057   -1.6212    1.2133 H   0  0  0  0  0  0  0  0  0  0  0  0
   -0.1800   -0.6598   -0.1209 C   0  0  0  0  0  0  0  0  0  0  0  0
   -1.1195    1.1563    1.5048 H   0  0  0  0  0  0  0  0  0  0  0  0
   -1.3179    0.3884   -0.4933 H   0  0  0  0  0  0  0  0  0  0  0  0
    0.3885   -1.4043    0.7917 H   0  0  0  0  0  0  0  0  0  0  0  0
    0.8594   -0.0458   -0.7677 H   0  0  0  0  0  0  0  0  0  0  0  0
   -0.5949   -1.0554   -0.8806 H   0  0  0  0  0  0  0  0  0  0  0  0
  1  3  1  0  0  0  0
  1  2  1  0  0  0  0
  1  5  1  0  0  0  0
  2  6  1  0  0  0  0
  2  8  1  0  0  0  0
  7  2  1  0  0  0  0
  9  6  1  0  0  0  0
  9 12  1  0  0  0  0
 11  6  1  0  0  0  0
 13  9  1  0  0  0  0
 14  9  1  0  0  0  0
M  RAD  4   1   2   4   2   6   2  10   2
M  END
$$$$
