14
butane_opt
C  -3.951168   0.299977  -0.139136
C  -2.610386  -0.595497   0.315376
H  -4.955431  -0.370118  -0.883955
H  -3.406858   0.656691  -0.836002
H  -4.648059   1.080425   0.580244
C  -1.386658   0.098013   0.148935
H  -2.462957  -1.365129  -0.437590
H  -2.891091  -1.394486   1.391742
C  -0.242527  -0.645515  -0.140557
H  -1.226312   0.900581   1.039843
H  -1.441416   0.792449  -0.757362
H   0.145420  -1.178504   0.553863
H   0.731343   0.005915  -0.124073
H  -0.586755  -1.510592  -1.269441
