butane_opt
 OpenBabel08242015403D

 14 10  0  0  0  0  0  0  0  0999 V2000
   -3.9336    0.3443    0.0852 C   0  0  0  0  0  0  0  0  0  0  0  0
   -2.6915   -0.7259    0.0344 C   0  0  0  0  0  0  0  0  0  0  0  0
   -4.9716   -0.4112   -0.5637 H   0  0  0  0  0  0  0  0  0  0  0  0
   -3.8685    0.3080   -0.2928 H   0  0  0  0  0  0  0  0  0  0  0  0
   -4.2166    1.7498    1.3822 H   0  0  0  0  0  0  0  0  0  0  0  0
   -1.3699    0.1702   -0.1664 C   0  0  0  0  0  0  0  0  0  0  0  0
   -2.7668   -1.3852   -0.8603 H   0  0  0  0  0  0  0  0  0  0  0  0
   -2.5712   -1.2848    0.8001 H   0  0  0  0  0  0  0  0  0  0  0  0
   -0.1999   -0.6375    0.0992 C   0  0  0  0  0  0  0  0  0  0  0  0
   -1.4444    0.8119    0.6128 H   0  0  0  0  0  0  0  0  0  0  0  0
   -1.2642    0.6760   -0.9333 H   0  0  0  0  0  0  0  0  0  0  0  0
   -0.4058   -1.6113    1.2945 H   0  0  0  0  0  0  0  0  0  0  0  0
    0.7136   -0.1240   -0.1641 H   0  0  0  0  0  0  0  0  0  0  0  0
    0.1054   -1.0278   -0.3904 H   0  0  0  0  0  0  0  0  0  0  0  0
  2  1  1  0  0  0  0
  2  8  1  0  0  0  0
  3  1  1  0  0  0  0
  6  2  1  0  0  0  0
  6  9  1  0  0  0  0
  6 10  1  0  0  0  0
  7  2  1  0  0  0  0
 11  6  1  0  0  0  0
 13  9  1  0  0  0  0
 14  9  1  0  0  0  0
M  RAD  5   1   3   4   2   5   2   9   2  12   2
M  END
$$$$
