butane_opt
 OpenBabel08242015403D

 14 13  0  0  0  0  0  0  0  0999 V2000
   -3.9627    0.3679    0.1785 C   0  0  0  0  0  0  0  0  0  0  0  0
   -2.7195   -0.7548   -0.1881 C   0  0  0  0  0  0  0  0  0  0  0  0
   -4.7053   -0.1446    0.6168 H   0  0  0  0  0  0  0  0  0  0  0  0
   -4.6319    0.9583   -0.5402 H   0  0  0  0  0  0  0  0  0  0  0  0
   -3.7297    0.7765    0.8360 H   0  0  0  0  0  0  0  0  0  0  0  0
   -1.3657    0.1905   -0.0951 C   0  0  0  0  0  0  0  0  0  0  0  0
   -2.8977   -1.6007   -1.1708 H   0  0  0  0  0  0  0  0  0  0  0  0
   -2.8401   -1.1209    0.5117 H   0  0  0  0  0  0  0  0  0  0  0  0
   -0.1292   -0.6648    0.1997 C   0  0  0  0  0  0  0  0  0  0  0  0
   -1.4553    0.5074    0.5031 H   0  0  0  0  0  0  0  0  0  0  0  0
   -1.1890    0.9992   -1.2707 H   0  0  0  0  0  0  0  0  0  0  0  0
   -0.3395   -1.2224    1.2340 H   0  0  0  0  0  0  0  0  0  0  0  0
    0.7576    0.0656    0.1219 H   0  0  0  0  0  0  0  0  0  0  0  0
    0.0740   -1.3206   -0.5625 H   0  0  0  0  0  0  0  0  0  0  0  0
  1  3  1  0  0  0  0
  1  5  1  0  0  0  0
  2  6  1  0  0  0  0
  2  1  1  0  0  0  0
  2  8  1  0  0  0  0
  4  1  1  0  0  0  0
  6  9  1  0  0  0  0
  6 10  1  0  0  0  0
  7  2  1  0  0  0  0
  9 12  1  0  0  0  0
 11  6  1  0  0  0  0
 13  9  1  0  0  0  0
 14  9  1  0  0  0  0
M  END
$$$$
