butane_opt
 OpenBabel08242015403D

 14 11  0  0  0  0  0  0  0  0999 V2000
   -3.9931    0.1797    0.2167 C   0  0  0  0  0  0  0  0  0  0  0  0
   -2.7482   -0.5549   -0.0739 C   0  0  0  0  0  0  0  0  0  0  0  0
   -4.9305   -0.3400   -0.3640 H   0  0  0  0  0  0  0  0  0  0  0  0
   -3.8277    0.7026   -0.6182 H   0  0  0  0  0  0  0  0  0  0  0  0
   -4.0610    1.1672    1.4198 H   0  0  0  0  0  0  0  0  0  0  0  0
   -1.3880    0.2209   -0.2048 C   0  0  0  0  0  0  0  0  0  0  0  0
   -2.9813   -1.2622   -1.0393 H   0  0  0  0  0  0  0  0  0  0  0  0
   -2.7349   -0.9559    0.7499 H   0  0  0  0  0  0  0  0  0  0  0  0
   -0.0579   -0.7455    0.1897 C   0  0  0  0  0  0  0  0  0  0  0  0
   -1.8018    0.7541    0.4262 H   0  0  0  0  0  0  0  0  0  0  0  0
   -1.3013    1.2059   -1.4766 H   0  0  0  0  0  0  0  0  0  0  0  0
   -0.1833   -1.3208    1.0997 H   0  0  0  0  0  0  0  0  0  0  0  0
    0.7862   -0.1103    0.4766 H   0  0  0  0  0  0  0  0  0  0  0  0
    0.2687   -1.5637   -0.7672 H   0  0  0  0  0  0  0  0  0  0  0  0
  2  1  1  0  0  0  0
  2  8  1  0  0  0  0
  3  1  1  0  0  0  0
  4  1  1  0  0  0  0
  6  2  1  0  0  0  0
  6  9  1  0  0  0  0
  6 10  1  0  0  0  0
  7  2  1  0  0  0  0
  9 13  1  0  0  0  0
  9 12  1  0  0  0  0
 14  9  1  0  0  0  0
M  RAD  4   1   2   5   2   6   2  11   2
M  END
$$$$
