14
butane_opt
C  -3.920146   0.187860   0.174086
C  -2.671312  -0.488198  -0.111507
H  -5.025318  -0.481226  -0.098567
H  -3.764709   0.620948  -0.640637
H  -3.916095   1.073965   1.064011
C  -1.431218   0.169610  -0.083252
H  -2.923402  -1.411904  -1.110530
H  -2.304217  -0.991920   0.520188
C  -0.216626  -0.746933   0.155439
H  -1.492089   0.873305   0.691898
H  -1.431172   1.055647  -1.216896
H  -0.117448  -1.633372   1.358731
H   0.770398  -0.126076  -0.313501
H   0.065621  -0.945486  -0.394437
