butane_opt
 OpenBabel08242015403D

 14 13  0  0  0  0  0  0  0  0999 V2000
   -3.8844    0.2904    0.1642 C   0  0  0  0  0  0  0  0  0  0  0  0
   -2.7521   -0.6688   -0.2192 C   0  0  0  0  0  0  0  0  0  0  0  0
   -4.7148   -0.2124    0.8256 H   0  0  0  0  0  0  0  0  0  0  0  0
   -4.3299    1.0811   -0.8250 H   0  0  0  0  0  0  0  0  0  0  0  0
   -3.6693    0.7953    0.9351 H   0  0  0  0  0  0  0  0  0  0  0  0
   -1.4210    0.1850   -0.0819 C   0  0  0  0  0  0  0  0  0  0  0  0
   -2.7348   -1.2911   -1.0274 H   0  0  0  0  0  0  0  0  0  0  0  0
   -2.6054   -1.1707    0.5406 H   0  0  0  0  0  0  0  0  0  0  0  0
   -0.1837   -0.6961    0.1658 C   0  0  0  0  0  0  0  0  0  0  0  0
   -1.2856    0.9347    0.6435 H   0  0  0  0  0  0  0  0  0  0  0  0
   -1.4840    0.6774   -0.9082 H   0  0  0  0  0  0  0  0  0  0  0  0
   -0.2607   -1.6845    1.3064 H   0  0  0  0  0  0  0  0  0  0  0  0
    0.8554    0.2107    0.1567 H   0  0  0  0  0  0  0  0  0  0  0  0
    0.0554   -1.1035   -0.4956 H   0  0  0  0  0  0  0  0  0  0  0  0
  1  3  1  0  0  0  0
  1  5  1  0  0  0  0
  2  6  1  0  0  0  0
  2  1  1  0  0  0  0
  2  8  1  0  0  0  0
  4  1  1  0  0  0  0
  6  9  1  0  0  0  0
  6 10  1  0  0  0  0
  7  2  1  0  0  0  0
  9 12  1  0  0  0  0
 11  6  1  0  0  0  0
 13  9  1  0  0  0  0
 14  9  1  0  0  0  0
M  END
$$$$
