butane_opt
 OpenBabel08242015403D

 14 13  0  0  0  0  0  0  0  0999 V2000
   -3.9690    0.2553   -0.1499 C   0  0  0  0  0  0  0  0  0  0  0  0
   -2.7893   -0.5727    0.2934 C   0  0  0  0  0  0  0  0  0  0  0  0
   -4.9806   -0.5009   -0.6950 H   0  0  0  0  0  0  0  0  0  0  0  0
   -3.7263    0.7456   -0.9300 H   0  0  0  0  0  0  0  0  0  0  0  0
   -4.3216    1.0148    0.7928 H   0  0  0  0  0  0  0  0  0  0  0  0
   -1.3695    0.2060    0.1443 C   0  0  0  0  0  0  0  0  0  0  0  0
   -2.7508   -1.1368   -0.5569 H   0  0  0  0  0  0  0  0  0  0  0  0
   -2.6149   -1.2487    1.1884 H   0  0  0  0  0  0  0  0  0  0  0  0
   -0.1039   -0.7058   -0.1400 C   0  0  0  0  0  0  0  0  0  0  0  0
   -1.0455    0.8638    0.9864 H   0  0  0  0  0  0  0  0  0  0  0  0
   -1.4779    0.7537   -0.6603 H   0  0  0  0  0  0  0  0  0  0  0  0
    0.0804   -1.4192    0.6980 H   0  0  0  0  0  0  0  0  0  0  0  0
    0.6905   -0.1560   -0.0525 H   0  0  0  0  0  0  0  0  0  0  0  0
   -0.0676   -1.6243   -1.1169 H   0  0  0  0  0  0  0  0  0  0  0  0
  1  2  1  0  0  0  0
  1  5  1  0  0  0  0
  2  8  1  0  0  0  0
  3  1  1  0  0  0  0
  4  1  1  0  0  0  0
  6  2  1  0  0  0  0
  6 10  1  0  0  0  0
  7  2  1  0  0  0  0
  9 13  1  0  0  0  0
  9  6  1  0  0  0  0
  9 12  1  0  0  0  0
 11  6  1  0  0  0  0
 14  9  1  0  0  0  0
M  END
$$$$
