14
butane_opt
C  -3.986636   0.274668   0.230461
C  -2.680047  -0.630069  -0.198854
H  -4.979373  -0.410230   0.619609
H  -4.497598   1.184543  -0.807303
H  -3.667509   0.511188   0.844996
C  -1.425968   0.216255  -0.210775
H  -3.044851  -1.647017  -1.152945
H  -2.649966  -1.069112   0.542786
C  -0.114515  -0.670681   0.233091
H  -1.455001   1.094539   0.747291
H  -1.202086   0.694603  -1.028269
H  -0.082885  -1.555187   1.412791
H   0.658309  -0.154763   0.269486
H   0.349272  -1.403616  -0.709023
