14
butane_opt
C  -4.048750   0.291523  -0.068502
C  -2.672485  -0.631306   0.107360
H  -4.750240  -0.283075   0.676857
H  -4.069192   1.692012  -1.442500
H  -4.218263   0.306484   0.292969
C  -1.366050   0.118414   0.146101
H  -2.775531  -1.544945  -0.871838
H  -2.901210  -1.122938   0.952327
C  -0.086011  -0.632172  -0.058564
H  -1.214281   0.990299   1.264067
H  -1.435515   0.590517  -0.591443
H  -0.037187  -1.201947   0.837804
H   0.842897   0.012368  -0.046472
H  -0.408974  -1.626411  -1.211309
