14
butane_opt
C  -3.866500   0.302153  -0.131611
C  -2.653269  -0.679623   0.216329
H  -4.642426  -0.172056  -0.462853
H  -3.643173   0.630060  -0.883365
H  -4.535337   1.025047   0.640045
C  -1.429606   0.138630   0.136067
H  -2.586514  -1.066215  -0.495980
H  -2.709707  -1.393977   1.288673
C  -0.222360  -0.638373  -0.112743
H  -1.254486   0.956168   1.162179
H  -1.821694   0.620447  -0.538821
H   0.000728  -1.231590   0.882493
H   0.711526   0.018689  -0.338964
H  -0.505967  -1.346022  -1.076607
