14
butane_opt
C  -3.943882   0.231631   0.015850
C  -2.749345  -0.609957  -0.001345
H  -4.845771  -0.279469   0.663882
H  -4.286339   1.456166  -1.277939
H  -3.435322   0.432215   0.540125
C  -1.407231   0.272444   0.120630
H  -2.778725  -1.362013  -0.960325
H  -3.070134  -1.035592   0.842175
C  -0.096279  -0.737119   0.003178
H  -1.609470   0.668722   0.672422
H  -1.291556   0.820335  -0.813835
H  -0.109123  -1.194135   0.864450
H   0.862605  -0.179511   0.200772
H  -0.106721  -1.656440  -1.030497
