butane_opt
 OpenBabel08242015403D

 14 13  0  0  0  0  0  0  0  0999 V2000
   -3.9007    0.1943   -0.0999 C   0  0  0  0  0  0  0  0  0  0  0  0
   -2.7024   -0.4978    0.1129 C   0  0  0  0  0  0  0  0  0  0  0  0
   -5.1155   -0.6093   -0.1015 H   0  0  0  0  0  0  0  0  0  0  0  0
   -3.5508    0.8935   -1.0973 H   0  0  0  0  0  0  0  0  0  0  0  0
   -3.8341    1.0440    0.7777 H   0  0  0  0  0  0  0  0  0  0  0  0
   -1.4668    0.1803    0.2377 C   0  0  0  0  0  0  0  0  0  0  0  0
   -2.5585   -1.2221   -0.8619 H   0  0  0  0  0  0  0  0  0  0  0  0
   -2.9864   -1.1979    0.9870 H   0  0  0  0  0  0  0  0  0  0  0  0
   -0.1353   -0.7184   -0.0635 C   0  0  0  0  0  0  0  0  0  0  0  0
   -1.2302    0.8573    1.0068 H   0  0  0  0  0  0  0  0  0  0  0  0
   -1.6017    0.9473   -0.7131 H   0  0  0  0  0  0  0  0  0  0  0  0
    0.3040   -1.6853    0.9232 H   0  0  0  0  0  0  0  0  0  0  0  0
    0.5581   -0.2618   -0.8755 H   0  0  0  0  0  0  0  0  0  0  0  0
   -0.5039   -1.1805   -0.7848 H   0  0  0  0  0  0  0  0  0  0  0  0
  1  2  1  0  0  0  0
  1  5  1  0  0  0  0
  2  6  1  0  0  0  0
  2  8  1  0  0  0  0
  3  1  1  0  0  0  0
  4  1  1  0  0  0  0
  6 10  1  0  0  0  0
  7  2  1  0  0  0  0
  9  6  1  0  0  0  0
  9 12  1  0  0  0  0
 11  6  1  0  0  0  0
 13  9  1  0  0  0  0
 14  9  1  0  0  0  0
M  END
$$$$
