butane_opt
 OpenBabel08242015403D

 14 11  0  0  0  0  0  0  0  0999 V2000
   -3.9725    0.2616   -0.1042 C   0  0  0  0  0  0  0  0  0  0  0  0
   -2.7833   -0.5829    0.2026 C   0  0  0  0  0  0  0  0  0  0  0  0
   -4.9438   -0.4459    0.0821 H   0  0  0  0  0  0  0  0  0  0  0  0
   -3.5649    0.9545   -1.1225 H   0  0  0  0  0  0  0  0  0  0  0  0
   -4.0748    0.6160    0.4771 H   0  0  0  0  0  0  0  0  0  0  0  0
   -1.3819    0.2298    0.0820 C   0  0  0  0  0  0  0  0  0  0  0  0
   -2.7897   -0.9274   -0.3835 H   0  0  0  0  0  0  0  0  0  0  0  0
   -2.4543   -1.4544    1.1489 H   0  0  0  0  0  0  0  0  0  0  0  0
   -0.1459   -0.7594   -0.0994 C   0  0  0  0  0  0  0  0  0  0  0  0
   -1.1881    1.0649    1.1233 H   0  0  0  0  0  0  0  0  0  0  0  0
   -1.4575    0.6782   -0.5921 H   0  0  0  0  0  0  0  0  0  0  0  0
   -0.1322   -0.9052    0.4293 H   0  0  0  0  0  0  0  0  0  0  0  0
    0.7458   -0.0826    0.5197 H   0  0  0  0  0  0  0  0  0  0  0  0
    0.2205   -1.7846   -1.2830 H   0  0  0  0  0  0  0  0  0  0  0  0
  1  3  1  0  0  0  0
  1  2  1  0  0  0  0
  1  5  1  0  0  0  0
  2  8  1  0  0  0  0
  4  1  1  0  0  0  0
  6  2  1  0  0  0  0
  6 10  1  0  0  0  0
  7  2  1  0  0  0  0
  9  6  1  0  0  0  0
  9 13  1  0  0  0  0
 11  6  1  0  0  0  0
M  RAD  3   9   3  12   2  14   2
M  END
$$$$
