14
butane_opt
C  -3.910472   0.226034  -0.125975
C  -2.705639  -0.481651   0.290822
H  -4.786585  -0.476399  -0.720760
H  -3.304872   0.536042  -1.049735
H  -4.329984   0.838829   0.585610
C  -1.409806   0.186418   0.160727
H  -2.652840  -1.014299  -0.291010
H  -3.136308  -1.296448   1.343060
C  -0.190074  -0.766951  -0.161873
H  -1.451163   0.877941   0.996121
H  -1.553906   0.848653  -0.718834
H   0.217399  -0.997468   0.492168
H   0.862893  -0.111934   0.115020
H  -0.318242  -1.640894  -1.268482
