butane_opt
 OpenBabel08242015403D

 14 12  0  0  0  0  0  0  0  0999 V2000
   -3.8967    0.2124   -0.1842 C   0  0  0  0  0  0  0  0  0  0  0  0
   -2.6943   -0.5312    0.2528 C   0  0  0  0  0  0  0  0  0  0  0  0
   -5.0708   -0.6889   -0.4842 H   0  0  0  0  0  0  0  0  0  0  0  0
   -3.3830    0.4324   -0.9357 H   0  0  0  0  0  0  0  0  0  0  0  0
   -4.0586    1.2616    0.8679 H   0  0  0  0  0  0  0  0  0  0  0  0
   -1.4156    0.2329    0.1865 C   0  0  0  0  0  0  0  0  0  0  0  0
   -2.5384   -0.8027   -0.3518 H   0  0  0  0  0  0  0  0  0  0  0  0
   -3.0053   -1.4210    1.4555 H   0  0  0  0  0  0  0  0  0  0  0  0
   -0.2075   -0.7796   -0.1742 C   0  0  0  0  0  0  0  0  0  0  0  0
   -1.4722    1.0710    1.1946 H   0  0  0  0  0  0  0  0  0  0  0  0
   -1.5449    0.9759   -0.6552 H   0  0  0  0  0  0  0  0  0  0  0  0
    0.1090   -1.4038    0.6750 H   0  0  0  0  0  0  0  0  0  0  0  0
    0.6657   -0.0291   -0.2037 H   0  0  0  0  0  0  0  0  0  0  0  0
   -0.1358   -1.5505   -1.0606 H   0  0  0  0  0  0  0  0  0  0  0  0
  1  2  1  0  0  0  0
  1  5  1  0  0  0  0
  3  1  1  0  0  0  0
  4  1  1  0  0  0  0
  6  2  1  0  0  0  0
  6 10  1  0  0  0  0
  7  2  1  0  0  0  0
  9  6  1  0  0  0  0
  9 12  1  0  0  0  0
 11  6  1  0  0  0  0
 13  9  1  0  0  0  0
 14  9  1  0  0  0  0
M  RAD  2   2   2   8   2
M  END
$$$$
