14
butane_opt
C  -3.948133   0.261542   0.004574
C  -2.705672  -0.620263   0.035539
H  -4.869547  -0.364799   0.184324
H  -3.997039   0.991609  -0.950507
H  -3.916301   0.797209   0.773055
C  -1.402659   0.202730   0.041064
H  -2.710003  -1.258409  -0.806123
H  -2.725706  -1.241858   0.904624
C  -0.155434  -0.701206   0.026954
H  -1.401640   0.896362   0.909977
H  -1.419113   0.826489  -0.862429
H  -0.053587  -1.273965   0.863883
H   0.743935  -0.140972  -0.007349
H  -0.134331  -1.417298  -0.880134
