butane_opt
 OpenBabel08242015403D

 14 12  0  0  0  0  0  0  0  0999 V2000
   -3.8757    0.2002    0.1181 C   0  0  0  0  0  0  0  0  0  0  0  0
   -2.7391   -0.5234   -0.0787 C   0  0  0  0  0  0  0  0  0  0  0  0
   -4.9559   -0.4420    0.6164 H   0  0  0  0  0  0  0  0  0  0  0  0
   -4.0437    1.0976   -0.8936 H   0  0  0  0  0  0  0  0  0  0  0  0
   -3.4743    0.6208    0.8773 H   0  0  0  0  0  0  0  0  0  0  0  0
   -1.4670    0.2241   -0.0840 C   0  0  0  0  0  0  0  0  0  0  0  0
   -2.8342   -1.6872   -1.3439 H   0  0  0  0  0  0  0  0  0  0  0  0
   -2.7162   -0.7899    0.5708 H   0  0  0  0  0  0  0  0  0  0  0  0
   -0.1504   -0.7549    0.1090 C   0  0  0  0  0  0  0  0  0  0  0  0
   -1.3464    0.9371    0.8122 H   0  0  0  0  0  0  0  0  0  0  0  0
   -1.1994    1.0016   -0.9122 H   0  0  0  0  0  0  0  0  0  0  0  0
   -0.0752   -1.5584    1.2545 H   0  0  0  0  0  0  0  0  0  0  0  0
    0.5122   -0.4576    0.1762 H   0  0  0  0  0  0  0  0  0  0  0  0
   -0.0456   -0.9968   -0.4665 H   0  0  0  0  0  0  0  0  0  0  0  0
  1  3  1  0  0  0  0
  1  5  1  0  0  0  0
  2  1  1  0  0  0  0
  2  8  1  0  0  0  0
  4  1  1  0  0  0  0
  6  2  1  0  0  0  0
  6  9  1  0  0  0  0
  6 10  1  0  0  0  0
  9 13  1  0  0  0  0
  9 12  1  0  0  0  0
 11  6  1  0  0  0  0
 14  9  1  0  0  0  0
M  RAD  2   2   2   7   2
M  END
$$$$
