14
butane_opt
C  -3.979449   0.257987  -0.108213
C  -2.724230  -0.547952   0.168955
H  -5.077708  -0.514644  -0.482309
H  -3.676848   0.594598  -0.898381
H  -4.089876   1.024094   0.778914
C  -1.392321   0.164491   0.192894
H  -2.685083  -1.178077  -0.530980
H  -2.993889  -1.301386   1.167007
C  -0.098018  -0.694133  -0.067005
H  -1.113487   0.762546   0.999537
H  -1.569448   1.122863  -0.961659
H   0.113890  -1.284690   0.715098
H   0.677678  -0.457991  -0.444867
H  -0.264287  -1.447584  -1.122867
