14
butane_opt
C  -3.943118   0.269910   0.015748
C  -2.689061  -0.612159   0.058233
H  -4.841141  -0.291774   0.024896
H  -3.936453   0.942600  -0.915539
H  -3.978869   0.897702   0.845438
C  -1.396864   0.163604  -0.002671
H  -2.745827  -1.307718  -0.802422
H  -2.701383  -1.278928   0.977287
C  -0.174749  -0.687483   0.029311
H  -1.356407   0.853346   0.861107
H  -1.414864   0.807836  -0.872483
H  -0.220446  -1.169535   0.844206
H   0.770498  -0.076567   0.162526
H  -0.154879  -1.452371  -0.908463
