14
butane_opt
C  -4.028704   0.360232   0.134451
C  -2.695259  -0.710018  -0.091521
H  -5.026005  -0.265386  -0.265056
H  -4.064520   0.439034  -0.588966
H  -4.134102   1.408493   1.287416
C  -1.361947   0.095276  -0.081922
H  -2.579253  -1.490869  -1.042342
H  -2.408759  -1.255390   0.686702
C  -0.130906  -0.623670   0.170028
H  -1.318934   0.622151   0.568813
H  -1.319431   0.959056  -1.171325
H   0.147702  -1.497708   1.170455
H   0.844189  -0.050286  -0.307376
H  -0.563497  -0.785560  -0.349125
