14
butane_opt
C  -3.930249   0.181200  -0.089420
C  -2.763346  -0.540522   0.262618
H  -4.985717  -0.506829  -0.924913
H  -3.494470   0.540543  -0.803093
H  -4.377190   1.260413   0.801011
C  -1.437036   0.229806   0.032824
H  -2.869774  -0.849361  -0.318932
H  -2.749431  -1.273403   1.211505
C  -0.053383  -0.723572  -0.069597
H  -1.460836   1.090666   1.101508
H  -1.814214   0.667664  -0.688809
H   0.123644  -1.357820   0.719271
H   0.796330  -0.213126  -0.112139
H   0.014303  -1.653155  -1.189472
