14
butane_opt
C  -3.867161   0.188635   0.064430
C  -2.714886  -0.478158   0.087129
H  -5.112046  -0.580401  -0.719467
H  -3.555412   0.295611  -0.562632
H  -4.253463   1.173768   1.157442
C  -1.478258   0.214870  -0.119352
H  -2.573317  -1.071607  -0.793120
H  -2.541594  -1.261642   1.163260
C  -0.166677  -0.730120   0.074746
H  -1.443116   1.112879   0.838677
H  -1.469747   0.674146  -0.992899
H  -0.152331  -1.587134   1.064122
H   0.783337  -0.137834  -0.073004
H   0.064802  -1.503732  -0.889818
