butane_opt
 OpenBabel08242015403D

 14 13  0  0  0  0  0  0  0  0999 V2000
   -3.9989    0.3440    0.1991 C   0  0  0  0  0  0  0  0  0  0  0  0
   -2.7090   -0.7134   -0.1430 C   0  0  0  0  0  0  0  0  0  0  0  0
   -4.7888   -0.1316    0.2058 H   0  0  0  0  0  0  0  0  0  0  0  0
   -4.4146    1.1313   -0.7212 H   0  0  0  0  0  0  0  0  0  0  0  0
   -4.0746    0.8284    0.9528 H   0  0  0  0  0  0  0  0  0  0  0  0
   -1.2965    0.1719   -0.1433 C   0  0  0  0  0  0  0  0  0  0  0  0
   -2.8488   -1.8130   -1.1151 H   0  0  0  0  0  0  0  0  0  0  0  0
   -2.6901   -1.2799    0.6828 H   0  0  0  0  0  0  0  0  0  0  0  0
   -0.1590   -0.6579    0.1754 C   0  0  0  0  0  0  0  0  0  0  0  0
   -1.4689    0.8453    0.6715 H   0  0  0  0  0  0  0  0  0  0  0  0
   -1.2814    0.8101   -1.0746 H   0  0  0  0  0  0  0  0  0  0  0  0
   -0.3770   -1.4006    1.0594 H   0  0  0  0  0  0  0  0  0  0  0  0
    0.8761   -0.0180    0.1659 H   0  0  0  0  0  0  0  0  0  0  0  0
   -0.0126   -1.1096   -0.4594 H   0  0  0  0  0  0  0  0  0  0  0  0
  1  3  1  0  0  0  0
  1  5  1  0  0  0  0
  2  1  1  0  0  0  0
  2  8  1  0  0  0  0
  4  1  1  0  0  0  0
  6  2  1  0  0  0  0
  6  9  1  0  0  0  0
  6 10  1  0  0  0  0
  7  2  1  0  0  0  0
  9 12  1  0  0  0  0
 11  6  1  0  0  0  0
 13  9  1  0  0  0  0
 14  9  1  0  0  0  0
M  END
$$$$
