butane_opt
 OpenBabel08242015403D

 14 13  0  0  0  0  0  0  0  0999 V2000
   -3.9373    0.2606    0.0593 C   0  0  0  0  0  0  0  0  0  0  0  0
   -2.7100   -0.6247    0.0090 C   0  0  0  0  0  0  0  0  0  0  0  0
   -4.8527   -0.3251    0.0523 H   0  0  0  0  0  0  0  0  0  0  0  0
   -3.9966    0.8715   -0.8270 H   0  0  0  0  0  0  0  0  0  0  0  0
   -3.9228    0.9773    0.9190 H   0  0  0  0  0  0  0  0  0  0  0  0
   -1.4090    0.1993   -0.0461 C   0  0  0  0  0  0  0  0  0  0  0  0
   -2.8061   -1.2960   -0.8388 H   0  0  0  0  0  0  0  0  0  0  0  0
   -2.6745   -1.2083    0.8843 H   0  0  0  0  0  0  0  0  0  0  0  0
   -0.1583   -0.7038    0.0668 C   0  0  0  0  0  0  0  0  0  0  0  0
   -1.4368    0.8804    0.8100 H   0  0  0  0  0  0  0  0  0  0  0  0
   -1.3316    0.8313   -0.9576 H   0  0  0  0  0  0  0  0  0  0  0  0
   -0.1902   -1.2978    0.9583 H   0  0  0  0  0  0  0  0  0  0  0  0
    0.7707   -0.0912    0.1591 H   0  0  0  0  0  0  0  0  0  0  0  0
   -0.0136   -1.3945   -0.7968 H   0  0  0  0  0  0  0  0  0  0  0  0
  1  5  1  0  0  0  0
  2  1  1  0  0  0  0
  2  8  1  0  0  0  0
  3  1  1  0  0  0  0
  4  1  1  0  0  0  0
  6  2  1  0  0  0  0
  6  9  1  0  0  0  0
  6 10  1  0  0  0  0
  7  2  1  0  0  0  0
  9 13  1  0  0  0  0
  9 12  1  0  0  0  0
 11  6  1  0  0  0  0
 14  9  1  0  0  0  0
M  END
$$$$
