butane_opt
 OpenBabel08242015403D

 14 10  0  0  0  0  0  0  0  0999 V2000
   -3.9533    0.3326   -0.1313 C   0  0  0  0  0  0  0  0  0  0  0  0
   -2.6871   -0.7341    0.2435 C   0  0  0  0  0  0  0  0  0  0  0  0
   -4.7722   -0.1588    0.0546 H   0  0  0  0  0  0  0  0  0  0  0  0
   -4.2493    1.1006   -1.2063 H   0  0  0  0  0  0  0  0  0  0  0  0
   -3.9964    0.8222    0.4927 H   0  0  0  0  0  0  0  0  0  0  0  0
   -1.3856    0.1539    0.0978 C   0  0  0  0  0  0  0  0  0  0  0  0
   -2.5338   -1.2833   -0.3687 H   0  0  0  0  0  0  0  0  0  0  0  0
   -2.8142   -1.6755    1.3525 H   0  0  0  0  0  0  0  0  0  0  0  0
   -0.1447   -0.6388   -0.1208 C   0  0  0  0  0  0  0  0  0  0  0  0
   -1.4753    1.0418    1.1115 H   0  0  0  0  0  0  0  0  0  0  0  0
   -1.4442    0.8048   -0.7876 H   0  0  0  0  0  0  0  0  0  0  0  0
   -0.4265   -0.5537    0.4752 H   0  0  0  0  0  0  0  0  0  0  0  0
    0.7169   -0.0498    0.6655 H   0  0  0  0  0  0  0  0  0  0  0  0
   -0.0094   -1.8946   -1.5285 H   0  0  0  0  0  0  0  0  0  0  0  0
  1  3  1  0  0  0  0
  1  2  1  0  0  0  0
  1  5  1  0  0  0  0
  2  8  1  0  0  0  0
  4  1  1  0  0  0  0
  6 10  1  0  0  0  0
  7  2  1  0  0  0  0
  9 12  1  0  0  0  0
  9 13  1  0  0  0  0
 11  6  1  0  0  0  0
M  RAD  4   2   2   6   3   9   3  14   2
M  END
$$$$
