14
butane_opt
C  -3.945160   0.218195   0.109010
C  -2.749912  -0.619106  -0.039791
H  -4.837458  -0.411051  -0.061624
H  -3.915061   0.439756  -0.381703
H  -4.048032   1.332331   1.366779
C  -1.460377   0.333189  -0.148563
H  -2.830357  -1.401078  -1.090901
H  -2.922684  -1.122818   0.866612
C  -0.058402  -0.774621   0.175323
H  -1.557032   0.569037   0.307875
H  -1.321103   1.088340  -1.193102
H   0.068328  -1.310966   1.049977
H   0.797959  -0.137918   0.163039
H   0.125732  -1.424015  -0.664750
