14
butane_opt
C  -3.914926   0.215055  -0.143422
C  -2.710185  -0.626188   0.146595
H  -4.873785  -0.408188   0.592381
H  -4.125841   1.504103  -1.455705
H  -3.866616   0.490184   0.437635
C  -1.478163   0.273378   0.215422
H  -2.890108  -1.302823  -0.779516
H  -2.882672  -1.330554   1.020760
C  -0.051198  -0.716706  -0.091092
H  -1.518858   1.030430   1.273640
H  -1.422568   0.832755  -0.686068
H   0.374139  -1.082248   0.656240
H   0.595362  -0.266342  -0.093891
H  -0.530087  -1.690300  -1.128808
