butane_opt
 OpenBabel08242015403D

 14  9  0  0  0  0  0  0  0  0999 V2000
   -4.0440    0.2796   -0.0842 C   0  0  0  0  0  0  0  0  0  0  0  0
   -2.6534   -0.6402    0.2292 C   0  0  0  0  0  0  0  0  0  0  0  0
   -4.7870   -0.0149   -0.2429 H   0  0  0  0  0  0  0  0  0  0  0  0
   -3.9426    1.3366   -1.2666 H   0  0  0  0  0  0  0  0  0  0  0  0
   -4.1450    0.7122    0.6164 H   0  0  0  0  0  0  0  0  0  0  0  0
   -1.3672    0.0836    0.0751 C   0  0  0  0  0  0  0  0  0  0  0  0
   -2.7198   -1.2377   -0.5164 H   0  0  0  0  0  0  0  0  0  0  0  0
   -2.7223   -1.3850    1.3255 H   0  0  0  0  0  0  0  0  0  0  0  0
   -0.1428   -0.6577   -0.0683 C   0  0  0  0  0  1  0  0  0  0  0  0
   -1.1228    0.7903    1.0398 H   0  0  0  0  0  0  0  0  0  0  0  0
   -1.4844    0.7121   -0.8878 H   0  0  0  0  0  0  0  0  0  0  0  0
   -0.3269   -0.3798    0.2669 H   0  0  0  0  0  0  0  0  0  0  0  0
    0.8693    0.0489    0.5442 H   0  0  0  0  0  0  0  0  0  0  0  0
   -0.1722   -1.8182   -1.3799 H   0  0  0  0  0  0  0  0  0  0  0  0
  1  2  1  0  0  0  0
  1  5  1  0  0  0  0
  2  8  1  0  0  0  0
  3  1  1  0  0  0  0
  6 12  1  0  0  0  0
  6 10  1  0  0  0  0
  7  2  1  0  0  0  0
  9 13  1  0  0  0  0
 11  6  1  0  0  0  0
M  RAD  5   1   2   2   2   4   2   6   2  14   2
M  END
$$$$
