butane_opt
 OpenBabel08242015403D

 14  9  0  0  0  0  0  0  0  0999 V2000
   -3.8912    0.2110    0.0919 C   0  0  0  0  0  1  0  0  0  0  0  0
   -2.7184   -0.5669   -0.0248 C   0  0  0  0  0  0  0  0  0  0  0  0
   -4.9498   -0.4082   -0.5765 H   0  0  0  0  0  0  0  0  0  0  0  0
   -3.6250    0.1418   -0.3238 H   0  0  0  0  0  0  0  0  0  0  0  0
   -3.8611    1.5575    1.5700 H   0  0  0  0  0  0  0  0  0  0  0  0
   -1.4067    0.2599   -0.1149 C   0  0  0  0  0  0  0  0  0  0  0  0
   -2.6822   -1.2838   -0.8832 H   0  0  0  0  0  0  0  0  0  0  0  0
   -2.6618   -1.1312    0.8156 H   0  0  0  0  0  0  0  0  0  0  0  0
   -0.2226   -0.7541    0.1713 C   0  0  0  0  0  0  0  0  0  0  0  0
   -1.3360    0.6984    0.6129 H   0  0  0  0  0  0  0  0  0  0  0  0
   -1.4946    1.2891   -1.4492 H   0  0  0  0  0  0  0  0  0  0  0  0
   -0.0831   -1.5983    1.1965 H   0  0  0  0  0  0  0  0  0  0  0  0
    0.6618   -0.2189   -0.3101 H   0  0  0  0  0  0  0  0  0  0  0  0
   -0.1167   -1.3524   -0.6024 H   0  0  0  0  0  0  0  0  0  0  0  0
  2  8  1  0  0  0  0
  3  1  1  0  0  0  0
  4  2  1  0  0  0  0
  6  9  1  0  0  0  0
  6 10  1  0  0  0  0
  7  2  1  0  0  0  0
  9 12  1  0  0  0  0
 13  9  1  0  0  0  0
 14  9  1  0  0  0  0
M  RAD  4   2   2   5   2   6   3  11   2
M  END
$$$$
