14
butane_opt
C  -3.977506   0.206931  -0.026775
C  -2.706028  -0.521290   0.057094
H  -4.822346  -0.350429   0.589416
H  -4.068301   1.383953  -1.321668
H  -3.716437   0.372378   0.491375
C  -1.404378   0.196039   0.039387
H  -3.162738  -1.190612  -0.780825
H  -2.670971  -1.408574   1.146426
C  -0.085214  -0.730790  -0.025953
H  -1.521289   1.151056   1.185679
H  -1.568719   0.558341  -0.620945
H  -0.105773  -1.074183   0.596982
H   0.682942  -0.097572   0.569264
H   0.003004  -1.602264  -1.037310
