butane_opt
 OpenBabel08242015403D

 14 13  0  0  0  0  0  0  0  0999 V2000
   -3.9060    0.2840    0.2179 C   0  0  0  0  0  0  0  0  0  0  0  0
   -2.6468   -0.7084   -0.1420 C   0  0  0  0  0  0  0  0  0  0  0  0
   -4.7006   -0.2276    0.0834 H   0  0  0  0  0  0  0  0  0  0  0  0
   -4.0516    0.9625   -0.6434 H   0  0  0  0  0  0  0  0  0  0  0  0
   -3.6003    1.0084    1.2451 H   0  0  0  0  0  0  0  0  0  0  0  0
   -1.4401    0.1790   -0.2382 C   0  0  0  0  0  0  0  0  0  0  0  0
   -2.9587   -1.1238   -0.8346 H   0  0  0  0  0  0  0  0  0  0  0  0
   -2.3346   -1.2345    0.6785 H   0  0  0  0  0  0  0  0  0  0  0  0
   -0.2320   -0.6567    0.1952 C   0  0  0  0  0  0  0  0  0  0  0  0
   -1.6880    0.8504    0.5912 H   0  0  0  0  0  0  0  0  0  0  0  0
   -1.3551    0.7998   -1.3028 H   0  0  0  0  0  0  0  0  0  0  0  0
   -0.7290   -1.0948    1.1614 H   0  0  0  0  0  0  0  0  0  0  0  0
    0.8017   -0.0453    0.7678 H   0  0  0  0  0  0  0  0  0  0  0  0
    0.2377   -1.5302   -0.7643 H   0  0  0  0  0  0  0  0  0  0  0  0
  1  5  1  0  0  0  0
  2  1  1  0  0  0  0
  2  8  1  0  0  0  0
  3  1  1  0  0  0  0
  4  1  1  0  0  0  0
  6  2  1  0  0  0  0
  6  9  1  0  0  0  0
  6 10  1  0  0  0  0
  7  2  1  0  0  0  0
  9 13  1  0  0  0  0
  9 12  1  0  0  0  0
 11  6  1  0  0  0  0
 14  9  1  0  0  0  0
M  END
$$$$
