14
butane_opt
C  -3.862998   0.232104   0.157500
C  -2.762548  -0.601629  -0.126224
H  -4.758031  -0.459734  -0.027843
H  -3.981896   0.575485  -0.574209
H  -3.799223   1.279326   1.422377
C  -1.429685   0.256837  -0.153366
H  -2.729153  -1.408802  -1.137816
H  -2.679105  -0.945194   0.494281
C  -0.134742  -0.736195   0.145089
H  -1.457305   1.046643   0.738908
H  -1.428613   0.687310  -0.868581
H  -0.135319  -2.189175   1.657293
H   0.637752  -0.212367  -0.325316
H  -0.361187  -0.664502  -0.074201
