butane_opt
 OpenBabel08242015403D

 14 13  0  0  0  0  0  0  0  0999 V2000
   -3.9736    0.2314   -0.1725 C   0  0  0  0  0  0  0  0  0  0  0  0
   -2.7937   -0.5509    0.2452 C   0  0  0  0  0  0  0  0  0  0  0  0
   -4.9683   -0.5412   -0.2663 H   0  0  0  0  0  0  0  0  0  0  0  0
   -3.6728    0.9454   -1.1364 H   0  0  0  0  0  0  0  0  0  0  0  0
   -4.0256    0.5906    0.3681 H   0  0  0  0  0  0  0  0  0  0  0  0
   -1.4220    0.2753    0.2711 C   0  0  0  0  0  0  0  0  0  0  0  0
   -2.4630   -1.4990   -0.6175 H   0  0  0  0  0  0  0  0  0  0  0  0
   -3.0793   -1.0148    1.0527 H   0  0  0  0  0  0  0  0  0  0  0  0
   -0.0922   -0.7940   -0.1606 C   0  0  0  0  0  0  0  0  0  0  0  0
   -0.9662    1.2434    1.3372 H   0  0  0  0  0  0  0  0  0  0  0  0
   -1.5274    0.8230   -0.5612 H   0  0  0  0  0  0  0  0  0  0  0  0
    0.5122   -1.5659    0.8672 H   0  0  0  0  0  0  0  0  0  0  0  0
    0.7470   -0.2287   -0.9194 H   0  0  0  0  0  0  0  0  0  0  0  0
   -0.2053   -1.1846   -0.8745 H   0  0  0  0  0  0  0  0  0  0  0  0
  1  2  1  0  0  0  0
  1  5  1  0  0  0  0
  2  6  1  0  0  0  0
  2  8  1  0  0  0  0
  3  1  1  0  0  0  0
  4  1  1  0  0  0  0
  6 10  1  0  0  0  0
  7  2  1  0  0  0  0
  9  6  1  0  0  0  0
  9 12  1  0  0  0  0
 11  6  1  0  0  0  0
 13  9  1  0  0  0  0
 14  9  1  0  0  0  0
M  END
$$$$
