butane_opt
 OpenBabel08242015403D

 14 12  0  0  0  0  0  0  0  0999 V2000
   -3.9293    0.2382    0.0427 C   0  0  0  0  0  0  0  0  0  0  0  0
   -2.8009   -0.5740    0.0819 C   0  0  0  0  0  0  0  0  0  0  0  0
   -4.9117   -0.4073    0.0823 H   0  0  0  0  0  0  0  0  0  0  0  0
   -4.0806    1.1259   -1.0241 H   0  0  0  0  0  0  0  0  0  0  0  0
   -4.0652    0.5191    0.6589 H   0  0  0  0  0  0  0  0  0  0  0  0
   -1.3676    0.2397   -0.0050 C   0  0  0  0  0  0  0  0  0  0  0  0
   -3.1183   -1.0858   -0.8816 H   0  0  0  0  0  0  0  0  0  0  0  0
   -2.6874   -1.1867    0.9397 H   0  0  0  0  0  0  0  0  0  0  0  0
   -0.0790   -0.7208    0.0239 C   0  0  0  0  0  0  0  0  0  0  0  0
   -1.6031    0.7659    0.7067 H   0  0  0  0  0  0  0  0  0  0  0  0
   -1.4030    0.8812   -0.9310 H   0  0  0  0  0  0  0  0  0  0  0  0
   -0.2274   -1.1122    0.6084 H   0  0  0  0  0  0  0  0  0  0  0  0
    0.8530   -0.1546    0.6217 H   0  0  0  0  0  0  0  0  0  0  0  0
    0.3439   -2.0313   -1.1717 H   0  0  0  0  0  0  0  0  0  0  0  0
  1  2  1  0  0  0  0
  1  3  1  0  0  0  0
  1  5  1  0  0  0  0
  2  8  1  0  0  0  0
  4  1  1  0  0  0  0
  6  9  1  0  0  0  0
  6  2  1  0  0  0  0
  6 10  1  0  0  0  0
  7  2  1  0  0  0  0
  9 12  1  0  0  0  0
  9 13  1  0  0  0  0
 11  6  1  0  0  0  0
M  RAD  2   9   2  14   2
M  END
$$$$
