butane_opt
 OpenBabel08242015403D

 14  9  0  0  0  0  0  0  0  0999 V2000
   -3.9976    0.3563    0.0775 C   0  0  0  0  0  0  0  0  0  0  0  0
   -2.6548   -0.7657   -0.0666 C   0  0  0  0  0  0  0  0  0  0  0  0
   -4.8799   -0.2186    0.0923 H   0  0  0  0  0  0  0  0  0  0  0  0
   -4.1281    0.7674   -0.6668 H   0  0  0  0  0  0  0  0  0  0  0  0
   -4.2459    1.1574    0.9832 H   0  0  0  0  0  0  0  0  0  0  0  0
   -1.3843    0.1402    0.0543 C   0  0  0  0  0  0  0  0  0  0  0  0
   -2.6223   -1.6945   -1.0961 H   0  0  0  0  0  0  0  0  0  0  0  0
   -2.6054   -1.0197    0.4855 H   0  0  0  0  0  0  0  0  0  0  0  0
   -0.1628   -0.6273    0.0579 C   0  0  0  0  0  1  0  0  0  0  0  0
   -1.2486    0.8456    0.7515 H   0  0  0  0  0  0  0  0  0  0  0  0
   -1.2214    0.8253   -0.9550 H   0  0  0  0  0  0  0  0  0  0  0  0
    0.0072   -1.9584    1.3766 H   0  0  0  0  0  0  0  0  0  0  0  0
    0.5643   -0.0306   -0.6374 H   0  0  0  0  0  0  0  0  0  0  0  0
   -0.2569   -0.3876   -0.2419 H   0  0  0  0  0  0  0  0  0  0  0  0
  1  3  1  0  0  0  0
  1  5  1  0  0  0  0
  2  1  1  0  0  0  0
  4  1  1  0  0  0  0
  6 10  1  0  0  0  0
  7  2  1  0  0  0  0
 11  6  1  0  0  0  0
 13  9  1  0  0  0  0
 14  6  1  0  0  0  0
M  RAD  4   2   3   6   2   8   2  12   2
M  END
$$$$
