butane_opt
 OpenBabel08242015403D

 14  9  0  0  0  0  0  0  0  0999 V2000
   -3.8741    0.1982    0.0362 C   0  0  0  0  0  1  0  0  0  0  0  0
   -2.6983   -0.5432    0.0435 C   0  0  0  0  0  0  0  0  0  0  0  0
   -4.7460   -0.2588   -0.5663 H   0  0  0  0  0  0  0  0  0  0  0  0
   -3.4977    0.1145   -0.4040 H   0  0  0  0  0  0  0  0  0  0  0  0
   -4.1609    1.4565    1.1924 H   0  0  0  0  0  0  0  0  0  0  0  0
   -1.4557    0.2442   -0.0261 C   0  0  0  0  0  0  0  0  0  0  0  0
   -2.5734   -1.1183   -0.7404 H   0  0  0  0  0  0  0  0  0  0  0  0
   -2.6719   -1.5605    1.0059 H   0  0  0  0  0  0  0  0  0  0  0  0
   -0.1910   -0.7385    0.0409 C   0  0  0  0  0  0  0  0  0  0  0  0
   -1.6924    0.9388    0.7887 H   0  0  0  0  0  0  0  0  0  0  0  0
   -1.1794    1.0533   -1.0620 H   0  0  0  0  0  0  0  0  0  0  0  0
   -0.1376   -1.6162    1.1014 H   0  0  0  0  0  0  0  0  0  0  0  0
    0.6682   -0.1914   -0.2762 H   0  0  0  0  0  0  0  0  0  0  0  0
   -0.3775   -1.2434   -0.6500 H   0  0  0  0  0  0  0  0  0  0  0  0
  3  1  1  0  0  0  0
  4  2  1  0  0  0  0
  6  9  1  0  0  0  0
  6 10  1  0  0  0  0
  7  2  1  0  0  0  0
  9 12  1  0  0  0  0
 11  6  1  0  0  0  0
 13  9  1  0  0  0  0
 14  9  1  0  0  0  0
M  RAD  4   2   3   5   2   6   2   8   2
M  END
$$$$
