butane_opt
 OpenBabel08242015403D

 14 12  0  0  0  0  0  0  0  0999 V2000
   -3.9537    0.2251   -0.2010 C   0  0  0  0  0  0  0  0  0  0  0  0
   -2.7376   -0.5761    0.1751 C   0  0  0  0  0  0  0  0  0  0  0  0
   -4.9324   -0.6118   -0.0861 H   0  0  0  0  0  0  0  0  0  0  0  0
   -3.8870    0.9696   -1.1397 H   0  0  0  0  0  0  0  0  0  0  0  0
   -3.9228    0.8652    0.6670 H   0  0  0  0  0  0  0  0  0  0  0  0
   -1.4085    0.3243    0.2692 C   0  0  0  0  0  0  0  0  0  0  0  0
   -2.7021   -1.1494   -0.6006 H   0  0  0  0  0  0  0  0  0  0  0  0
   -3.0745   -1.5145    1.3552 H   0  0  0  0  0  0  0  0  0  0  0  0
   -0.1311   -0.7898   -0.1335 C   0  0  0  0  0  0  0  0  0  0  0  0
   -1.0412    1.2352    1.2156 H   0  0  0  0  0  0  0  0  0  0  0  0
   -1.6003    0.6299   -0.3721 H   0  0  0  0  0  0  0  0  0  0  0  0
    0.4733   -1.5306    0.8583 H   0  0  0  0  0  0  0  0  0  0  0  0
    0.7513   -0.1845   -0.9069 H   0  0  0  0  0  0  0  0  0  0  0  0
   -0.2882   -1.3750   -0.8721 H   0  0  0  0  0  0  0  0  0  0  0  0
  1  3  1  0  0  0  0
  1  2  1  0  0  0  0
  1  5  1  0  0  0  0
  2  6  1  0  0  0  0
  4  1  1  0  0  0  0
  6 10  1  0  0  0  0
  7  2  1  0  0  0  0
  9  6  1  0  0  0  0
  9 12  1  0  0  0  0
 11  6  1  0  0  0  0
 13  9  1  0  0  0  0
 14  9  1  0  0  0  0
M  RAD  2   2   2   8   2
M  END
$$$$
