butane_opt
 OpenBabel08242015403D

 14 11  0  0  0  0  0  0  0  0999 V2000
   -3.9009    0.1928   -0.1754 C   0  0  0  0  0  0  0  0  0  0  0  0
   -2.6954   -0.5262    0.1386 C   0  0  0  0  0  0  0  0  0  0  0  0
   -4.7675   -0.3503    0.5045 H   0  0  0  0  0  0  0  0  0  0  0  0
   -4.0523    1.1727   -1.3664 H   0  0  0  0  0  0  0  0  0  0  0  0
   -3.8188    0.5183    0.5372 H   0  0  0  0  0  0  0  0  0  0  0  0
   -1.4473    0.2071    0.2415 C   0  0  0  0  0  0  0  0  0  0  0  0
   -2.4330   -0.9959   -0.4454 H   0  0  0  0  0  0  0  0  0  0  0  0
   -2.7748   -1.5814    1.2340 H   0  0  0  0  0  0  0  0  0  0  0  0
   -0.1546   -0.7215   -0.1434 C   0  0  0  0  0  0  0  0  0  0  0  0
   -1.3026    1.0724    1.2999 H   0  0  0  0  0  0  0  0  0  0  0  0
   -1.6906    0.7580   -0.5000 H   0  0  0  0  0  0  0  0  0  0  0  0
   -0.1449   -1.1208    0.5674 H   0  0  0  0  0  0  0  0  0  0  0  0
    0.6935   -0.2362    0.0447 H   0  0  0  0  0  0  0  0  0  0  0  0
   -0.3106   -1.5293   -1.2077 H   0  0  0  0  0  0  0  0  0  0  0  0
  1  2  1  0  0  0  0
  1  3  1  0  0  0  0
  1  5  1  0  0  0  0
  2  6  1  0  0  0  0
  6 10  1  0  0  0  0
  7  2  1  0  0  0  0
  9 13  1  0  0  0  0
  9  6  1  0  0  0  0
  9 12  1  0  0  0  0
 11  6  1  0  0  0  0
 14  9  1  0  0  0  0
M  RAD  4   1   2   2   2   4   2   8   2
M  END
$$$$
