butane_opt
 OpenBabel08242015403D

 14 10  0  0  0  0  0  0  0  0999 V2000
   -3.8836    0.2295   -0.1707 C   0  0  0  0  0  0  0  0  0  0  0  0
   -2.6871   -0.5679    0.1961 C   0  0  0  0  0  0  0  0  0  0  0  0
   -4.8182   -0.4028    0.3966 H   0  0  0  0  0  0  0  0  0  0  0  0
   -4.1391    1.2332   -1.2419 H   0  0  0  0  0  0  0  0  0  0  0  0
   -3.6431    0.4789    0.3720 H   0  0  0  0  0  0  0  0  0  0  0  0
   -1.3772    0.2268    0.1992 C   0  0  0  0  0  0  0  0  0  0  0  0
   -2.4995   -1.0634   -0.5019 H   0  0  0  0  0  0  0  0  0  0  0  0
   -2.9183   -1.2483    1.1948 H   0  0  0  0  0  0  0  0  0  0  0  0
   -0.2445   -0.6922   -0.1507 C   0  0  0  0  0  0  0  0  0  0  0  0
   -1.4187    1.0827    1.2061 H   0  0  0  0  0  0  0  0  0  0  0  0
   -1.4421    0.4413   -0.5550 H   0  0  0  0  0  0  0  0  0  0  0  0
   -0.0998   -1.2778    0.7886 H   0  0  0  0  0  0  0  0  0  0  0  0
    0.5900   -0.2938    0.1358 H   0  0  0  0  0  0  0  0  0  0  0  0
   -0.3137   -1.7894   -1.3065 H   0  0  0  0  0  0  0  0  0  0  0  0
  1  5  1  0  0  0  0
  1  3  1  0  0  0  0
  2  8  1  0  0  0  0
  4  1  1  0  0  0  0
  6 10  1  0  0  0  0
  7  2  1  0  0  0  0
  9 13  1  0  0  0  0
  9  6  1  0  0  0  0
  9 12  1  0  0  0  0
 11  6  1  0  0  0  0
M  RAD  5   1   2   2   3   6   2   9   2  14   2
M  END
$$$$
