butane_opt
 OpenBabel08242015403D

 14  9  0  0  0  0  0  0  0  0999 V2000
   -3.9761    0.2843    0.0907 C   0  0  0  0  0  0  0  0  0  0  0  0
   -2.6780   -0.7006   -0.1503 C   0  0  0  0  0  0  0  0  0  0  0  0
   -4.8160   -0.1060    0.0504 H   0  0  0  0  0  0  0  0  0  0  0  0
   -4.2262    0.6830   -0.6977 H   0  0  0  0  0  0  0  0  0  0  0  0
   -4.1978    1.5798    1.3839 H   0  0  0  0  0  0  0  0  0  0  0  0
   -1.3946    0.1134   -0.0146 C   0  0  0  0  0  0  0  0  0  0  0  0
   -2.5480   -1.3563   -1.0540 H   0  0  0  0  0  0  0  0  0  0  0  0
   -2.5638   -1.2985    0.7929 H   0  0  0  0  0  0  0  0  0  0  0  0
   -0.1470   -0.5995    0.1252 C   0  0  0  0  0  1  0  0  0  0  0  0
   -1.2321    0.6893    0.8841 H   0  0  0  0  0  0  0  0  0  0  0  0
   -1.3477    0.8279   -0.8822 H   0  0  0  0  0  0  0  0  0  0  0  0
    0.0538   -1.9279    1.4848 H   0  0  0  0  0  0  0  0  0  0  0  0
    0.7525   -0.1183   -0.7301 H   0  0  0  0  0  0  0  0  0  0  0  0
   -0.5234   -0.5939   -0.2682 H   0  0  0  0  0  0  0  0  0  0  0  0
  2  1  1  0  0  0  0
  2  8  1  0  0  0  0
  3  1  1  0  0  0  0
  4  1  1  0  0  0  0
  6 10  1  0  0  0  0
  7  2  1  0  0  0  0
 11  6  1  0  0  0  0
 13  9  1  0  0  0  0
 14  6  1  0  0  0  0
M  RAD  5   1   2   2   2   5   2   6   2  12   2
M  END
$$$$
