butane_opt
 OpenBabel08242015403D

 14  8  0  0  0  0  0  0  0  0999 V2000
   -3.8544    0.2117    0.1531 C   0  0  0  0  0 15  0  0  0  0  0  0
   -2.7370   -0.5106   -0.0447 C   0  0  0  0  0  0  0  0  0  0  0  0
   -4.9169   -0.4805   -0.6875 H   0  0  0  0  0  0  0  0  0  0  0  0
   -3.4646    0.1710   -0.2265 H   0  0  0  0  0  0  0  0  0  0  0  0
   -4.0046    1.5787    1.4126 H   0  0  0  0  0  0  0  0  0  0  0  0
   -1.4739    0.2281   -0.1518 C   0  0  0  0  0  0  0  0  0  0  0  0
   -2.9669   -1.2987   -1.0421 H   0  0  0  0  0  0  0  0  0  0  0  0
   -2.7121   -1.1835    0.8835 H   0  0  0  0  0  0  0  0  0  0  0  0
   -0.1793   -0.7781    0.1490 C   0  0  0  0  0  0  0  0  0  0  0  0
   -1.2961    0.7377    0.5693 H   0  0  0  0  0  0  0  0  0  0  0  0
   -1.5603    1.0152   -1.3053 H   0  0  0  0  0  0  0  0  0  0  0  0
   -0.4095   -1.8035    1.2920 H   0  0  0  0  0  0  0  0  0  0  0  0
    0.9941    0.0671   -0.1496 H   0  0  0  0  0  0  0  0  0  0  0  0
    0.2284   -1.0909   -0.4686 H   0  0  0  0  0  0  0  0  0  0  0  0
  2  8  1  0  0  0  0
  4  2  1  0  0  0  0
  6  9  1  0  0  0  0
  6 10  1  0  0  0  0
  7  2  1  0  0  0  0
 11  6  1  0  0  0  0
 13  9  1  0  0  0  0
 14  9  1  0  0  0  0
M  RAD  6   2   2   3   2   5   2   6   2   9   2  12   2
M  END
$$$$
