butane_opt
 OpenBabel08242015403D

 14 10  0  0  0  0  0  0  0  0999 V2000
   -4.0207    0.3490    0.0765 C   0  0  0  0  0  0  0  0  0  0  0  0
   -2.7058   -0.6930   -0.1056 C   0  0  0  0  0  0  0  0  0  0  0  0
   -4.7983   -0.1525    0.4063 H   0  0  0  0  0  0  0  0  0  0  0  0
   -4.3874    0.8476   -0.7125 H   0  0  0  0  0  0  0  0  0  0  0  0
   -3.7197    0.9379    0.9109 H   0  0  0  0  0  0  0  0  0  0  0  0
   -1.3656    0.1205   -0.0016 C   0  0  0  0  0  0  0  0  0  0  0  0
   -2.7508   -1.2852   -1.0735 H   0  0  0  0  0  0  0  0  0  0  0  0
   -2.9052   -1.2685    0.7570 H   0  0  0  0  0  0  0  0  0  0  0  0
   -0.1258   -0.6761    0.0678 C   0  0  0  0  0  0  0  0  0  0  0  0
   -1.4150    0.8218    0.8630 H   0  0  0  0  0  0  0  0  0  0  0  0
   -1.2635    0.6136   -0.8182 H   0  0  0  0  0  0  0  0  0  0  0  0
   -0.0390   -1.6578    1.2875 H   0  0  0  0  0  0  0  0  0  0  0  0
    0.9927    0.2094   -0.0836 H   0  0  0  0  0  0  0  0  0  0  0  0
   -0.1915   -0.6867   -0.4666 H   0  0  0  0  0  0  0  0  0  0  0  0
  1  3  1  0  0  0  0
  1  5  1  0  0  0  0
  2  1  1  0  0  0  0
  2  8  1  0  0  0  0
  4  1  1  0  0  0  0
  6  9  1  0  0  0  0
  6 10  1  0  0  0  0
  7  2  1  0  0  0  0
 11  6  1  0  0  0  0
 13  9  1  0  0  0  0
M  RAD  5   2   2   6   2   9   3  12   2  14   2
M  END
$$$$
