14
butane_opt
C  -3.894781   0.233093  -0.103653
C  -2.666520  -0.547836   0.100974
H  -4.883097  -0.378146   0.757432
H  -4.056241   1.353525  -1.352995
H  -3.786187   0.173576   0.299116
C  -1.422369   0.218763   0.168296
H  -2.523037  -1.043727  -0.591193
H  -2.835768  -1.430804   1.153867
C  -0.197774  -0.744200  -0.103797
H  -1.352141   1.063418   1.134646
H  -1.909858   0.413427  -0.531698
H  -0.295720  -0.902698   0.521290
H   0.849023   0.017707   0.390345
H  -0.052299  -1.622068  -1.134744
