butane_opt
 OpenBabel08242015403D

 14 13  0  0  0  0  0  0  0  0999 V2000
   -3.9559    0.2687    0.0467 C   0  0  0  0  0  0  0  0  0  0  0  0
   -2.6912   -0.6184    0.0055 C   0  0  0  0  0  0  0  0  0  0  0  0
   -4.8654   -0.3126    0.1214 H   0  0  0  0  0  0  0  0  0  0  0  0
   -4.0009    0.8835   -0.8557 H   0  0  0  0  0  0  0  0  0  0  0  0
   -3.8870    0.9076    0.9181 H   0  0  0  0  0  0  0  0  0  0  0  0
   -1.4007    0.1739   -0.0183 C   0  0  0  0  0  0  0  0  0  0  0  0
   -2.6758   -1.3276   -0.8824 H   0  0  0  0  0  0  0  0  0  0  0  0
   -2.6400   -1.2105    0.8655 H   0  0  0  0  0  0  0  0  0  0  0  0
   -0.1699   -0.6893    0.0543 C   0  0  0  0  0  0  0  0  0  0  0  0
   -1.4179    0.8705    0.8500 H   0  0  0  0  0  0  0  0  0  0  0  0
   -1.3560    0.8327   -0.9266 H   0  0  0  0  0  0  0  0  0  0  0  0
   -0.2487   -1.3284    0.9823 H   0  0  0  0  0  0  0  0  0  0  0  0
    0.7719   -0.0876    0.0498 H   0  0  0  0  0  0  0  0  0  0  0  0
   -0.0932   -1.3147   -0.7442 H   0  0  0  0  0  0  0  0  0  0  0  0
  1  3  1  0  0  0  0
  1  5  1  0  0  0  0
  2  1  1  0  0  0  0
  2  8  1  0  0  0  0
  4  1  1  0  0  0  0
  6  2  1  0  0  0  0
  6  9  1  0  0  0  0
  6 10  1  0  0  0  0
  7  2  1  0  0  0  0
  9 12  1  0  0  0  0
 11  6  1  0  0  0  0
 13  9  1  0  0  0  0
 14  9  1  0  0  0  0
M  END
$$$$
