butane_opt
 OpenBabel08242015403D

 14 13  0  0  0  0  0  0  0  0999 V2000
   -3.8293    0.2095   -0.1757 C   0  0  0  0  0  0  0  0  0  0  0  0
   -2.6783   -0.5312    0.1512 C   0  0  0  0  0  0  0  0  0  0  0  0
   -4.9405   -0.3804   -0.2040 H   0  0  0  0  0  0  0  0  0  0  0  0
   -4.0703    0.6889   -0.9680 H   0  0  0  0  0  0  0  0  0  0  0  0
   -3.7616    0.7829    0.6868 H   0  0  0  0  0  0  0  0  0  0  0  0
   -1.4557    0.2643    0.2534 C   0  0  0  0  0  0  0  0  0  0  0  0
   -2.7899   -1.0204   -0.6430 H   0  0  0  0  0  0  0  0  0  0  0  0
   -2.9613   -1.4416    1.1873 H   0  0  0  0  0  0  0  0  0  0  0  0
   -0.1786   -0.7706   -0.1157 C   0  0  0  0  0  0  0  0  0  0  0  0
   -1.3724    1.1238    1.1574 H   0  0  0  0  0  0  0  0  0  0  0  0
   -1.6829    0.5613   -0.4021 H   0  0  0  0  0  0  0  0  0  0  0  0
    0.2907   -1.6823    0.8974 H   0  0  0  0  0  0  0  0  0  0  0  0
    0.6801   -0.2202   -0.8153 H   0  0  0  0  0  0  0  0  0  0  0  0
   -0.6614   -0.9604   -0.7909 H   0  0  0  0  0  0  0  0  0  0  0  0
  1  2  1  0  0  0  0
  1  5  1  0  0  0  0
  2  6  1  0  0  0  0
  2  8  1  0  0  0  0
  3  1  1  0  0  0  0
  4  1  1  0  0  0  0
  6 10  1  0  0  0  0
  7  2  1  0  0  0  0
  9  6  1  0  0  0  0
  9 12  1  0  0  0  0
 11  6  1  0  0  0  0
 13  9  1  0  0  0  0
 14  9  1  0  0  0  0
M  END
$$$$
