14
butane_opt
C  -4.019563   0.351640   0.180290
C  -2.705636  -0.725051  -0.192690
H  -4.892204  -0.082607   0.560609
H  -4.458174   0.993491  -0.686570
H  -3.804511   0.795118   1.039961
C  -1.345699   0.140135  -0.132012
H  -3.011543  -1.454930  -1.232551
H  -2.443351  -1.248210   0.613598
C  -0.118195  -0.652603   0.157155
H  -1.587758   0.726082   0.652609
H  -1.403506   0.678244  -0.915549
H  -0.314542  -1.494975   1.294950
H   0.947889   0.214115   0.312462
H   0.150761  -0.907605  -0.344324
