butane_opt
 OpenBabel08242015403D

 14 13  0  0  0  0  0  0  0  0999 V2000
   -3.9932    0.3225   -0.0627 C   0  0  0  0  0  0  0  0  0  0  0  0
   -2.5977   -0.6576    0.0720 C   0  0  0  0  0  0  0  0  0  0  0  0
   -4.9424   -0.3434   -0.0708 H   0  0  0  0  0  0  0  0  0  0  0  0
   -4.0129    0.7052   -0.7902 H   0  0  0  0  0  0  0  0  0  0  0  0
   -3.9314    1.0698    0.9560 H   0  0  0  0  0  0  0  0  0  0  0  0
   -1.4096    0.1017    0.0781 C   0  0  0  0  0  0  0  0  0  0  0  0
   -2.5120   -1.2465   -0.6943 H   0  0  0  0  0  0  0  0  0  0  0  0
   -2.7683   -1.3979    1.0523 H   0  0  0  0  0  0  0  0  0  0  0  0
   -0.1887   -0.6164   -0.0024 C   0  0  0  0  0  0  0  0  0  0  0  0
   -1.1254    1.1075    0.9797 H   0  0  0  0  0  0  0  0  0  0  0  0
   -1.5089    0.6369   -0.7446 H   0  0  0  0  0  0  0  0  0  0  0  0
   -0.3050   -1.6185    1.0782 H   0  0  0  0  0  0  0  0  0  0  0  0
    0.7321    0.0448   -0.4770 H   0  0  0  0  0  0  0  0  0  0  0  0
   -0.3852   -1.2403   -0.8265 H   0  0  0  0  0  0  0  0  0  0  0  0
  1  2  1  0  0  0  0
  1  5  1  0  0  0  0
  2  6  1  0  0  0  0
  2  8  1  0  0  0  0
  3  1  1  0  0  0  0
  4  1  1  0  0  0  0
  6 10  1  0  0  0  0
  7  2  1  0  0  0  0
  9  6  1  0  0  0  0
  9 12  1  0  0  0  0
 11  6  1  0  0  0  0
 13  9  1  0  0  0  0
 14  9  1  0  0  0  0
M  END
$$$$
