butane_opt
 OpenBabel08242015403D

 14 13  0  0  0  0  0  0  0  0999 V2000
   -3.9559    0.2828    0.1992 C   0  0  0  0  0  0  0  0  0  0  0  0
   -2.7552   -0.5865   -0.2190 C   0  0  0  0  0  0  0  0  0  0  0  0
   -4.7875   -0.3234    0.8803 H   0  0  0  0  0  0  0  0  0  0  0  0
   -4.7194    0.8758   -0.6276 H   0  0  0  0  0  0  0  0  0  0  0  0
   -3.5940    0.6560    0.9721 H   0  0  0  0  0  0  0  0  0  0  0  0
   -1.3323    0.1597   -0.2117 C   0  0  0  0  0  0  0  0  0  0  0  0
   -2.7180   -1.3437   -1.1225 H   0  0  0  0  0  0  0  0  0  0  0  0
   -2.8108   -1.0095    0.5091 H   0  0  0  0  0  0  0  0  0  0  0  0
   -0.1236   -0.7065    0.2267 C   0  0  0  0  0  0  0  0  0  0  0  0
   -1.6068    0.8013    0.6696 H   0  0  0  0  0  0  0  0  0  0  0  0
   -1.2424    0.8103   -0.9836 H   0  0  0  0  0  0  0  0  0  0  0  0
   -0.3034   -1.4218    1.2009 H   0  0  0  0  0  0  0  0  0  0  0  0
    0.7480   -0.0254    0.4386 H   0  0  0  0  0  0  0  0  0  0  0  0
    0.0292   -1.2774   -0.4273 H   0  0  0  0  0  0  0  0  0  0  0  0
  1  3  1  0  0  0  0
  1  5  1  0  0  0  0
  2  6  1  0  0  0  0
  2  1  1  0  0  0  0
  2  8  1  0  0  0  0
  4  1  1  0  0  0  0
  6  9  1  0  0  0  0
  6 10  1  0  0  0  0
  7  2  1  0  0  0  0
  9 13  1  0  0  0  0
  9 12  1  0  0  0  0
 11  6  1  0  0  0  0
 14  9  1  0  0  0  0
M  END
$$$$
