14
butane_opt
C  -3.900861   0.245560   0.173928
C  -2.728521  -0.548687  -0.142188
H  -4.868269  -0.486106   0.995334
H  -4.159706   0.925168  -0.757030
H  -3.492558   0.569442   0.818955
C  -1.412272   0.218096  -0.162905
H  -2.933659  -1.817286  -1.443053
H  -2.611952  -0.826025   0.419220
C  -0.187452  -0.714561   0.190443
H  -1.604424   0.887097   0.667169
H  -1.314825   1.067956  -1.067771
H  -0.224621  -1.652540   1.252971
H   0.562082  -0.254042   0.360494
H   0.356274  -1.292506  -0.498253
