butane_opt
 OpenBabel08242015403D

 14 11  0  0  0  0  0  0  0  0999 V2000
   -4.0147    0.3255   -0.1456 C   0  0  0  0  0  0  0  0  0  0  0  0
   -2.6875   -0.6695    0.2487 C   0  0  0  0  0  0  0  0  0  0  0  0
   -4.7960   -0.2128   -0.6808 H   0  0  0  0  0  0  0  0  0  0  0  0
   -3.7801    0.8575   -0.8746 H   0  0  0  0  0  0  0  0  0  0  0  0
   -4.6696    1.0340    0.6295 H   0  0  0  0  0  0  0  0  0  0  0  0
   -1.3502    0.1274    0.1573 C   0  0  0  0  0  0  0  0  0  0  0  0
   -2.5606   -1.0417   -0.2677 H   0  0  0  0  0  0  0  0  0  0  0  0
   -2.8465   -1.7391    1.5657 H   0  0  0  0  0  0  0  0  0  0  0  0
   -0.1745   -0.6300   -0.1478 C   0  0  0  0  0  0  0  0  0  0  0  0
   -0.8951    0.8823    1.1870 H   0  0  0  0  0  0  0  0  0  0  0  0
   -1.2727    0.6989   -0.8020 H   0  0  0  0  0  0  0  0  0  0  0  0
    0.0868   -0.9551    0.4402 H   0  0  0  0  0  0  0  0  0  0  0  0
    0.8022   -0.1295    0.1839 H   0  0  0  0  0  0  0  0  0  0  0  0
   -0.3782   -1.7036   -1.3041 H   0  0  0  0  0  0  0  0  0  0  0  0
  1  2  1  0  0  0  0
  1  5  1  0  0  0  0
  3  1  1  0  0  0  0
  4  1  1  0  0  0  0
  6  2  1  0  0  0  0
  6 10  1  0  0  0  0
  7  2  1  0  0  0  0
  9  6  1  0  0  0  0
  9 13  1  0  0  0  0
  9 12  1  0  0  0  0
 11  6  1  0  0  0  0
M  RAD  4   2   2   8   2   9   2  14   2
M  END
$$$$
