butane_opt
 OpenBabel08242015403D

 14 12  0  0  0  0  0  0  0  0999 V2000
   -3.9150    0.1653   -0.1655 C   0  0  0  0  0  0  0  0  0  0  0  0
   -2.6799   -0.4912    0.1365 C   0  0  0  0  0  0  0  0  0  0  0  0
   -4.9238   -0.5862    0.0043 H   0  0  0  0  0  0  0  0  0  0  0  0
   -4.0684    1.2796   -1.2353 H   0  0  0  0  0  0  0  0  0  0  0  0
   -3.8729    0.5735    0.4880 H   0  0  0  0  0  0  0  0  0  0  0  0
   -1.4631    0.2224    0.2715 C   0  0  0  0  0  0  0  0  0  0  0  0
   -2.7222   -0.9812   -0.4692 H   0  0  0  0  0  0  0  0  0  0  0  0
   -3.1073   -1.3758    1.2849 H   0  0  0  0  0  0  0  0  0  0  0  0
   -0.0970   -0.7697   -0.1491 C   0  0  0  0  0  0  0  0  0  0  0  0
   -1.2623    1.2157    1.3786 H   0  0  0  0  0  0  0  0  0  0  0  0
   -1.7743    0.6869   -0.3941 H   0  0  0  0  0  0  0  0  0  0  0  0
    0.2384   -1.3802    0.7606 H   0  0  0  0  0  0  0  0  0  0  0  0
    0.7452   -0.1575   -0.5555 H   0  0  0  0  0  0  0  0  0  0  0  0
   -0.3642   -1.2940   -0.9926 H   0  0  0  0  0  0  0  0  0  0  0  0
  1  3  1  0  0  0  0
  1  2  1  0  0  0  0
  1  5  1  0  0  0  0
  2  6  1  0  0  0  0
  2  8  1  0  0  0  0
  6 10  1  0  0  0  0
  7  2  1  0  0  0  0
  9  6  1  0  0  0  0
  9 12  1  0  0  0  0
 11  6  1  0  0  0  0
 13  9  1  0  0  0  0
 14  9  1  0  0  0  0
M  RAD  2   1   2   4   2
M  END
$$$$
