14
butane_opt
C  -3.960116   0.324690   0.025610
C  -2.642765  -0.676835  -0.010176
H  -4.698105  -0.148052  -0.449114
H  -4.156618   0.533001  -0.391362
H  -3.957347   1.331254   1.103277
C  -1.383091   0.093767  -0.014771
H  -2.636283  -1.469620  -0.800743
H  -2.663577  -1.382858   0.937436
C  -0.230579  -0.638885   0.059203
H  -1.466386   0.924566   1.018791
H  -1.506627   0.819727  -0.902406
H  -0.008357  -1.726648   1.240851
H   0.977875   0.180028  -0.542007
H  -0.386725  -0.701684  -0.432166
