14
butane_opt
C  -3.908054   0.238161   0.134045
C  -2.811708  -0.652347  -0.067804
H  -4.699859  -0.298433   0.492996
H  -3.889462   1.040619  -0.699843
H  -3.948433   0.855143   0.967326
C  -1.415674   0.268039  -0.178773
H  -2.899189  -1.071317  -0.845659
H  -2.573435  -1.234316   0.804349
C  -0.087977  -0.739165   0.124988
H  -1.647478   1.045255   0.699533
H  -1.165776   0.775777  -1.010326
H  -0.590741  -1.083085   0.844985
H   0.760203  -0.292150   0.781961
H   0.332674  -1.616814  -0.784662
