14
butane_opt
C  -3.921701   0.191454   0.112937
C  -2.731381  -0.536547  -0.109635
H  -4.926453  -0.546878   0.096923
H  -3.788497   0.643247  -0.748987
H  -3.935393   1.151420   1.113313
C  -1.443481   0.282481   0.002714
H  -2.653805  -1.448031  -1.201943
H  -2.681609  -0.872070   0.566453
C  -0.127513  -0.781495   0.114805
H  -1.331481   0.635855   0.713588
H  -1.704918   0.951386  -0.903517
H   0.098538  -2.062778   1.378479
H   0.896641  -0.004082  -0.627308
H  -0.276112  -0.767262  -0.253960
