14
butane_opt
C  -3.971005   0.279906   0.225886
C  -2.640121  -0.577157  -0.143722
H  -4.906666  -0.221519   0.423894
H  -4.279258   0.758643  -0.550699
H  -3.713194   0.821330   0.918034
C  -1.428246   0.110495  -0.178922
H  -2.596710  -1.625298  -1.188173
H  -2.565315  -1.080344   0.595264
C  -0.217772  -0.674578   0.206597
H  -1.497608   0.516622   0.393842
H  -1.046702   1.155348  -1.468180
H  -0.654957  -1.016346   1.109512
H   0.941991   0.046902   0.605042
H   0.349176  -1.484064  -0.741978
