14
butane_opt
C  -3.934912   0.227852  -0.105327
C  -2.726895  -0.603347   0.131016
H  -4.883789  -0.246388  -0.153195
H  -3.794836   0.987473  -1.280487
H  -4.120336   0.526063   0.426373
C  -1.451919   0.280735   0.262563
H  -2.769517  -1.375169  -0.710549
H  -2.895134  -1.322633   1.137595
C  -0.108065  -0.742220  -0.102598
H  -1.310582   1.151642   1.187425
H  -1.599989   0.863494  -0.514713
H   0.654491  -1.613978   0.816170
H   0.761300  -0.148243  -0.782383
H  -0.423587  -1.235093  -0.920255
