14
butane_opt
C  -4.009235   0.226352  -0.050438
C  -2.734841  -0.569277   0.063861
H  -4.995110  -0.332956   0.683967
H  -4.320227   1.587703  -1.486806
H  -3.640842  -0.018206   0.272276
C  -1.344005   0.212460   0.129583
H  -2.610647  -1.177834  -0.630699
H  -2.946514  -1.229313   1.070432
C  -0.140993  -0.738376  -0.087112
H  -1.292412   1.475103   1.374588
H  -1.426794   0.651128  -0.551907
H   0.042552  -1.064059   0.688572
H   0.661639  -0.311279   0.207622
H   0.258556  -1.647943  -0.991191
