14
butane_opt
C  -3.904139   0.230120  -0.163924
C  -2.724198  -0.564935   0.256365
H  -4.934487  -0.530572  -0.633903
H  -3.477505   0.554787  -0.799998
H  -4.017375   1.430968   1.095171
C  -1.445571   0.225216   0.141674
H  -2.775753  -1.295029  -0.554056
H  -3.015982  -1.314900   1.220967
C  -0.141455  -0.765459  -0.110890
H  -1.326786   0.750641   0.949104
H  -1.579626   1.133477  -0.807832
H   0.219612  -1.330075   0.735690
H   0.790453  -0.047174  -0.188083
H  -0.327937  -1.336420  -1.000960
