butane_opt
 OpenBabel08242015403D

 14 10  0  0  0  0  0  0  0  0999 V2000
   -3.9352    0.3043   -0.0311 C   0  0  0  0  0  0  0  0  0  0  0  0
   -2.6226   -0.6459    0.1199 C   0  0  0  0  0  0  0  0  0  0  0  0
   -4.8085   -0.3075    0.4155 H   0  0  0  0  0  0  0  0  0  0  0  0
   -3.9706    1.4121   -1.2289 H   0  0  0  0  0  0  0  0  0  0  0  0
   -3.8110    0.4082    0.3062 H   0  0  0  0  0  0  0  0  0  0  0  0
   -1.3790    0.1705    0.1135 C   0  0  0  0  0  0  0  0  0  0  0  0
   -2.6347   -1.4362   -0.9448 H   0  0  0  0  0  0  0  0  0  0  0  0
   -2.7248   -1.1879    0.8405 H   0  0  0  0  0  0  0  0  0  0  0  0
   -0.2795   -0.6906   -0.0419 C   0  0  0  0  0  0  0  0  0  0  0  0
   -1.1286    0.7306    0.9832 H   0  0  0  0  0  0  0  0  0  0  0  0
   -1.6362    0.6683   -0.7227 H   0  0  0  0  0  0  0  0  0  0  0  0
   -0.4279   -0.8531    0.6167 H   0  0  0  0  0  0  0  0  0  0  0  0
    0.7406   -0.0013    0.1374 H   0  0  0  0  0  0  0  0  0  0  0  0
   -0.0491   -1.5234   -0.9589 H   0  0  0  0  0  0  0  0  0  0  0  0
  1  2  1  0  0  0  0
  1  3  1  0  0  0  0
  2  8  1  0  0  0  0
  6 10  1  0  0  0  0
  7  2  1  0  0  0  0
  9  6  1  0  0  0  0
  9 13  1  0  0  0  0
  9 12  1  0  0  0  0
 11  6  1  0  0  0  0
 14  9  1  0  0  0  0
M  RAD  5   1   3   2   2   4   2   5   2   6   2
M  END
$$$$
