butane_opt
 OpenBabel08242015403D

 14 12  0  0  0  0  0  0  0  0999 V2000
   -4.0196    0.3516    0.1803 C   0  0  0  0  0  0  0  0  0  0  0  0
   -2.7056   -0.7251   -0.1927 C   0  0  0  0  0  0  0  0  0  0  0  0
   -4.8922   -0.0826    0.5606 H   0  0  0  0  0  0  0  0  0  0  0  0
   -4.4582    0.9935   -0.6866 H   0  0  0  0  0  0  0  0  0  0  0  0
   -3.8045    0.7951    1.0400 H   0  0  0  0  0  0  0  0  0  0  0  0
   -1.3457    0.1401   -0.1320 C   0  0  0  0  0  0  0  0  0  0  0  0
   -3.0115   -1.4549   -1.2326 H   0  0  0  0  0  0  0  0  0  0  0  0
   -2.4434   -1.2482    0.6136 H   0  0  0  0  0  0  0  0  0  0  0  0
   -0.1182   -0.6526    0.1572 C   0  0  0  0  0  0  0  0  0  0  0  0
   -1.5878    0.7261    0.6526 H   0  0  0  0  0  0  0  0  0  0  0  0
   -1.4035    0.6782   -0.9155 H   0  0  0  0  0  0  0  0  0  0  0  0
   -0.3145   -1.4950    1.2950 H   0  0  0  0  0  0  0  0  0  0  0  0
    0.9479    0.2141    0.3125 H   0  0  0  0  0  0  0  0  0  0  0  0
    0.1508   -0.9076   -0.3443 H   0  0  0  0  0  0  0  0  0  0  0  0
  1  3  1  0  0  0  0
  1  5  1  0  0  0  0
  2  6  1  0  0  0  0
  2  1  1  0  0  0  0
  2  8  1  0  0  0  0
  4  1  1  0  0  0  0
  6  9  1  0  0  0  0
  6 10  1  0  0  0  0
  7  2  1  0  0  0  0
  9 13  1  0  0  0  0
  9 12  1  0  0  0  0
 11  6  1  0  0  0  0
M  RAD  2   9   2  14   2
M  END
$$$$
