14
butane_opt
C  -4.011499   0.297941   0.039987
C  -2.726403  -0.702635   0.022611
H  -4.577338  -0.033411  -0.389570
H  -3.752339   0.617665  -0.704646
H  -4.233779   1.132324   1.052934
C  -1.420419   0.197889   0.050701
H  -2.931196  -1.475713  -1.087945
H  -2.451790  -1.130563   0.710344
C  -0.100274  -0.672949   0.050846
H  -1.313206   0.688179   0.778647
H  -1.314464   0.914646  -0.885113
H   0.056680  -1.686720   1.208078
H   0.857096   0.028147  -0.773316
H  -0.309672  -0.910819  -0.402293
