14
butane_opt
C  -3.875748   0.200179   0.118144
C  -2.739121  -0.523425  -0.078710
H  -4.955888  -0.441976   0.616372
H  -4.043711   1.097631  -0.893621
H  -3.474269   0.620816   0.877307
C  -1.466964   0.224091  -0.084048
H  -2.834239  -1.687196  -1.343919
H  -2.716214  -0.789860   0.570835
C  -0.150415  -0.754917   0.108957
H  -1.346417   0.937104   0.812153
H  -1.199408   1.001607  -0.912197
H  -0.075207  -1.558406   1.254454
H   0.512151  -0.457583   0.176229
H  -0.045561  -0.996810  -0.466549
