14
butane_opt
C  -3.940075   0.246553   0.033784
C  -2.707941  -0.607648   0.034813
H  -4.831357  -0.322061  -0.046144
H  -3.936822   0.779481  -0.823905
H  -4.034183   1.041118   0.985677
C  -1.406333   0.205009  -0.016381
H  -2.740778  -1.300250  -0.825708
H  -2.709866  -1.203285   0.912958
C  -0.147347  -0.704757   0.040477
H  -1.415018   0.824674   0.814759
H  -1.398968   0.860294  -0.923219
H  -0.184523  -1.357011   0.986752
H   0.727933  -0.137520   0.047509
H  -0.067842  -1.333386  -0.787510
