14
butane_opt
C  -3.874107   0.198172   0.036182
C  -2.698295  -0.543209   0.043519
H  -4.746030  -0.258830  -0.566338
H  -3.497653   0.114489  -0.404000
H  -4.160886   1.456468   1.192419
C  -1.455744   0.244231  -0.026081
H  -2.573437  -1.118321  -0.740405
H  -2.671925  -1.560471   1.005854
C  -0.191018  -0.738533   0.040860
H  -1.692393   0.938768   0.788723
H  -1.179391   1.053301  -1.061962
H  -0.137609  -1.616219   1.101426
H   0.668222  -0.191358  -0.276186
H  -0.377526  -1.243362  -0.649959
