14
butane_opt
C  -3.946906   0.263837   0.040978
C  -2.700146  -0.621709   0.021435
H  -4.848562  -0.302278  -0.115640
H  -3.939238   0.760608  -0.780760
H  -4.006949   1.086470   0.984780
C  -1.400436   0.180957  -0.017136
H  -2.701927  -1.259974  -0.804037
H  -2.670298  -1.283448   0.938972
C  -0.157557  -0.696630   0.051234
H  -1.417654   0.841145   0.790114
H  -1.384670   0.851557  -0.933394
H  -0.161292  -1.312298   0.972333
H   0.771827  -0.087773   0.011368
H  -0.196475  -1.289318  -0.764855
