butane_opt
 OpenBabel08242015403D

 14  8  0  0  0  0  0  0  0  0999 V2000
   -3.9473    0.1978   -0.0921 C   0  0  0  0  0  1  0  0  0  0  0  0
   -2.6970   -0.4999    0.2524 C   0  0  0  0  0  0  0  0  0  0  0  0
   -4.9566   -0.5235    0.0650 H   0  0  0  0  0  0  0  0  0  0  0  0
   -3.4971    1.2803   -1.3976 H   0  0  0  0  0  0  0  0  0  0  0  0
   -3.8034    0.3074    0.5136 H   0  0  0  0  0  0  0  0  0  0  0  0
   -1.4345    0.2586    0.0772 C   0  0  0  0  0  0  0  0  0  0  0  0
   -2.4081   -1.2754   -0.6683 H   0  0  0  0  0  0  0  0  0  0  0  0
   -2.6591   -1.3585    1.2987 H   0  0  0  0  0  0  0  0  0  0  0  0
   -0.1757   -0.7618   -0.0881 C   0  0  0  0  0  1  0  0  0  0  0  0
   -1.4456    0.9095    1.0037 H   0  0  0  0  0  0  0  0  0  0  0  0
   -1.5514    0.7316   -0.7358 H   0  0  0  0  0  0  0  0  0  0  0  0
   -0.3064   -0.5104    0.2995 H   0  0  0  0  0  0  0  0  0  0  0  0
    0.6341   -0.1408    0.5610 H   0  0  0  0  0  0  0  0  0  0  0  0
    0.0488   -2.2373   -1.4365 H   0  0  0  0  0  0  0  0  0  0  0  0
  1  3  1  0  0  0  0
  2  5  1  0  0  0  0
  2  8  1  0  0  0  0
  6 12  1  0  0  0  0
  6 10  1  0  0  0  0
  7  2  1  0  0  0  0
  9 13  1  0  0  0  0
 11  6  1  0  0  0  0
M  RAD  4   2   2   4   2   6   2  14   2
M  END
$$$$
