butane_opt
 OpenBabel08242015403D

 14 13  0  0  0  0  0  0  0  0999 V2000
   -3.8760    0.3300    0.1415 C   0  0  0  0  0  0  0  0  0  0  0  0
   -2.6818   -0.6708   -0.0979 C   0  0  0  0  0  0  0  0  0  0  0  0
   -4.7396   -0.2750    0.4403 H   0  0  0  0  0  0  0  0  0  0  0  0
   -4.4609    0.9167   -0.7762 H   0  0  0  0  0  0  0  0  0  0  0  0
   -3.8344    1.0432    1.1950 H   0  0  0  0  0  0  0  0  0  0  0  0
   -1.4189    0.1327   -0.1941 C   0  0  0  0  0  0  0  0  0  0  0  0
   -2.8311   -1.2588   -0.9984 H   0  0  0  0  0  0  0  0  0  0  0  0
   -2.5500   -1.4799    0.9397 H   0  0  0  0  0  0  0  0  0  0  0  0
   -0.2182   -0.6315    0.1715 C   0  0  0  0  0  0  0  0  0  0  0  0
   -1.5596    0.6426    0.5442 H   0  0  0  0  0  0  0  0  0  0  0  0
   -0.9444    0.6321   -1.0485 H   0  0  0  0  0  0  0  0  0  0  0  0
   -0.5161   -1.0687    0.9170 H   0  0  0  0  0  0  0  0  0  0  0  0
    0.7507    0.0543    0.8243 H   0  0  0  0  0  0  0  0  0  0  0  0
    0.0077   -1.5735   -0.8815 H   0  0  0  0  0  0  0  0  0  0  0  0
  1  3  1  0  0  0  0
  1  5  1  0  0  0  0
  2  1  1  0  0  0  0
  2  8  1  0  0  0  0
  4  1  1  0  0  0  0
  6  2  1  0  0  0  0
  6  9  1  0  0  0  0
  6 10  1  0  0  0  0
  7  2  1  0  0  0  0
  9 13  1  0  0  0  0
  9 12  1  0  0  0  0
 11  6  1  0  0  0  0
 14  9  1  0  0  0  0
M  END
$$$$
