butane_opt
 OpenBabel08242015403D

 14 13  0  0  0  0  0  0  0  0999 V2000
   -3.9837    0.2246   -0.1908 C   0  0  0  0  0  0  0  0  0  0  0  0
   -2.7736   -0.5771    0.2236 C   0  0  0  0  0  0  0  0  0  0  0  0
   -5.0514   -0.4545    0.1612 H   0  0  0  0  0  0  0  0  0  0  0  0
   -3.7037    0.9889   -1.3061 H   0  0  0  0  0  0  0  0  0  0  0  0
   -3.9373    0.6061    0.5705 H   0  0  0  0  0  0  0  0  0  0  0  0
   -1.4186    0.2918    0.2271 C   0  0  0  0  0  0  0  0  0  0  0  0
   -2.6054   -1.2194   -0.5519 H   0  0  0  0  0  0  0  0  0  0  0  0
   -2.6161   -1.3094    1.0123 H   0  0  0  0  0  0  0  0  0  0  0  0
   -0.0967   -0.7410   -0.1562 C   0  0  0  0  0  0  0  0  0  0  0  0
   -1.1354    1.2557    1.3058 H   0  0  0  0  0  0  0  0  0  0  0  0
   -1.6629    0.5533   -0.3807 H   0  0  0  0  0  0  0  0  0  0  0  0
    0.2828   -1.6555    0.8129 H   0  0  0  0  0  0  0  0  0  0  0  0
    0.7496   -0.2630   -0.3730 H   0  0  0  0  0  0  0  0  0  0  0  0
   -0.0809   -1.3457   -1.0450 H   0  0  0  0  0  0  0  0  0  0  0  0
  1  3  1  0  0  0  0
  1  2  1  0  0  0  0
  1  5  1  0  0  0  0
  2  6  1  0  0  0  0
  2  8  1  0  0  0  0
  4  1  1  0  0  0  0
  6 10  1  0  0  0  0
  7  2  1  0  0  0  0
  9  6  1  0  0  0  0
  9 12  1  0  0  0  0
 11  6  1  0  0  0  0
 13  9  1  0  0  0  0
 14  9  1  0  0  0  0
M  END
$$$$
