14
butane_opt
C  -3.957572   0.166275   0.165273
C  -2.736416  -0.574216  -0.136752
H  -4.694945  -0.281428   0.571827
H  -4.198570   1.034071  -0.784472
H  -3.724978   0.650451   0.971467
C  -1.417532   0.274203  -0.094386
H  -2.779560  -1.533247  -1.231587
H  -2.587567  -0.662817   0.452263
C  -0.123211  -0.749623   0.124062
H  -1.607486   0.840448   0.678713
H  -1.323829   1.161827  -1.047387
H  -0.102235  -1.756026   1.305877
H   0.608458  -0.240328   0.296775
H   0.227123  -1.113628  -0.447887
