14
butane_opt
C  -4.023458   0.296641  -0.016116
C  -2.714047  -0.670884   0.144198
H  -4.795136  -0.214801   0.069392
H  -4.052927   1.088605  -0.979778
H  -4.106898   0.721587   0.604513
C  -1.370391   0.196342  -0.051646
H  -2.649655  -1.113105  -0.463721
H  -2.690186  -1.517735   1.192272
C  -0.113603  -0.658150  -0.016865
H  -1.164881   1.017774   0.855665
H  -1.163768   0.482874  -0.788573
H  -0.360930  -0.696371   0.600541
H   0.582886  -0.216531   0.876397
H   0.044700  -2.022428  -1.323073
