butane_opt
 OpenBabel08242015403D

 14 10  0  0  0  0  0  0  0  0999 V2000
   -3.8630    0.2321    0.1575 C   0  0  0  0  0  0  0  0  0  0  0  0
   -2.7625   -0.6016   -0.1262 C   0  0  0  0  0  0  0  0  0  0  0  0
   -4.7580   -0.4597   -0.0278 H   0  0  0  0  0  0  0  0  0  0  0  0
   -3.9819    0.5755   -0.5742 H   0  0  0  0  0  0  0  0  0  0  0  0
   -3.7992    1.2793    1.4224 H   0  0  0  0  0  0  0  0  0  0  0  0
   -1.4297    0.2568   -0.1534 C   0  0  0  0  0  0  0  0  0  0  0  0
   -2.7292   -1.4088   -1.1378 H   0  0  0  0  0  0  0  0  0  0  0  0
   -2.6791   -0.9452    0.4943 H   0  0  0  0  0  0  0  0  0  0  0  0
   -0.1347   -0.7362    0.1451 C   0  0  0  0  0  1  0  0  0  0  0  0
   -1.4573    1.0466    0.7389 H   0  0  0  0  0  0  0  0  0  0  0  0
   -1.4286    0.6873   -0.8686 H   0  0  0  0  0  0  0  0  0  0  0  0
   -0.1353   -2.1892    1.6573 H   0  0  0  0  0  0  0  0  0  0  0  0
    0.6378   -0.2124   -0.3253 H   0  0  0  0  0  0  0  0  0  0  0  0
   -0.3612   -0.6645   -0.0742 H   0  0  0  0  0  0  0  0  0  0  0  0
  2  1  1  0  0  0  0
  2  8  1  0  0  0  0
  3  1  1  0  0  0  0
  4  1  1  0  0  0  0
  6  2  1  0  0  0  0
  6 14  1  0  0  0  0
  6 10  1  0  0  0  0
  7  2  1  0  0  0  0
 11  6  1  0  0  0  0
 13  9  1  0  0  0  0
M  RAD  3   1   2   5   2  12   2
M  END
$$$$
