butane_opt
 OpenBabel08242015403D

 14 13  0  0  0  0  0  0  0  0999 V2000
   -4.0052    0.2676    0.1517 C   0  0  0  0  0  0  0  0  0  0  0  0
   -2.7071   -0.6435   -0.1325 C   0  0  0  0  0  0  0  0  0  0  0  0
   -4.8298   -0.3027    0.4365 H   0  0  0  0  0  0  0  0  0  0  0  0
   -4.1614    1.1344   -0.8257 H   0  0  0  0  0  0  0  0  0  0  0  0
   -3.5712    0.6140    0.7398 H   0  0  0  0  0  0  0  0  0  0  0  0
   -1.4057    0.2558   -0.1026 C   0  0  0  0  0  0  0  0  0  0  0  0
   -2.9543   -1.5063   -1.1434 H   0  0  0  0  0  0  0  0  0  0  0  0
   -2.8152   -1.1380    0.6523 H   0  0  0  0  0  0  0  0  0  0  0  0
   -0.0915   -0.7079    0.1468 C   0  0  0  0  0  0  0  0  0  0  0  0
   -1.4636    1.0448    0.8596 H   0  0  0  0  0  0  0  0  0  0  0  0
   -1.3688    0.4656   -0.7349 H   0  0  0  0  0  0  0  0  0  0  0  0
    0.0106   -1.5126    1.2858 H   0  0  0  0  0  0  0  0  0  0  0  0
    0.5650   -0.2675   -0.2153 H   0  0  0  0  0  0  0  0  0  0  0  0
    0.0481   -1.0362   -0.3951 H   0  0  0  0  0  0  0  0  0  0  0  0
  1  3  1  0  0  0  0
  1  5  1  0  0  0  0
  2  6  1  0  0  0  0
  2  1  1  0  0  0  0
  2  8  1  0  0  0  0
  4  1  1  0  0  0  0
  6  9  1  0  0  0  0
  6 10  1  0  0  0  0
  7  2  1  0  0  0  0
  9 12  1  0  0  0  0
 11  6  1  0  0  0  0
 13  9  1  0  0  0  0
 14  9  1  0  0  0  0
M  END
$$$$
