butane_opt
 OpenBabel08242015403D

 14 11  0  0  0  0  0  0  0  0999 V2000
   -3.9703    0.1773   -0.0172 C   0  0  0  0  0  0  0  0  0  0  0  0
   -2.7246   -0.5612    0.0802 C   0  0  0  0  0  0  0  0  0  0  0  0
   -4.8579   -0.3480    0.1741 H   0  0  0  0  0  0  0  0  0  0  0  0
   -3.8742    1.1947   -1.2618 H   0  0  0  0  0  0  0  0  0  0  0  0
   -4.1550    0.3143    0.3841 H   0  0  0  0  0  0  0  0  0  0  0  0
   -1.4427    0.3196    0.1276 C   0  0  0  0  0  0  0  0  0  0  0  0
   -2.8137   -1.2663   -0.8024 H   0  0  0  0  0  0  0  0  0  0  0  0
   -2.6694   -1.1136    0.9837 H   0  0  0  0  0  0  0  0  0  0  0  0
   -0.1131   -0.7588   -0.0611 C   0  0  0  0  0  0  0  0  0  0  0  0
   -1.1527    1.0582    1.0383 H   0  0  0  0  0  0  0  0  0  0  0  0
   -1.5066    0.8224   -0.5988 H   0  0  0  0  0  0  0  0  0  0  0  0
    0.4070   -1.3669    0.7191 H   0  0  0  0  0  0  0  0  0  0  0  0
    0.6765   -0.3403    0.0217 H   0  0  0  0  0  0  0  0  0  0  0  0
   -0.0368   -1.5591   -0.8050 H   0  0  0  0  0  0  0  0  0  0  0  0
  1  2  1  0  0  0  0
  1  3  1  0  0  0  0
  2  6  1  0  0  0  0
  2  8  1  0  0  0  0
  6 10  1  0  0  0  0
  7  2  1  0  0  0  0
  9 13  1  0  0  0  0
  9  6  1  0  0  0  0
  9 12  1  0  0  0  0
 11  6  1  0  0  0  0
 14  9  1  0  0  0  0
M  RAD  3   1   3   4   2   5   2
M  END
$$$$
