butane_opt
 OpenBabel08242015403D

 14  9  0  0  0  0  0  0  0  0999 V2000
   -3.9352    0.2392    0.0442 C   0  0  0  0  0  0  0  0  0  0  0  0
   -2.7625   -0.6043    0.0401 C   0  0  0  0  0  0  0  0  0  0  0  0
   -4.8480   -0.3409   -0.4061 H   0  0  0  0  0  0  0  0  0  0  0  0
   -3.6166    0.4129   -0.5164 H   0  0  0  0  0  0  0  0  0  0  0  0
   -4.2987    1.3846    1.2179 H   0  0  0  0  0  0  0  0  0  0  0  0
   -1.3827    0.2518   -0.0513 C   0  0  0  0  0  0  0  0  0  0  0  0
   -2.7756   -1.2883   -0.7111 H   0  0  0  0  0  0  0  0  0  0  0  0
   -2.5818   -1.2136    1.0398 H   0  0  0  0  0  0  0  0  0  0  0  0
   -0.1392   -0.6999    0.0893 C   0  0  0  0  0  0  0  0  0  0  0  0
   -1.4370    0.4245    0.5132 H   0  0  0  0  0  0  0  0  0  0  0  0
   -1.2280    1.0455   -1.1676 H   0  0  0  0  0  0  0  0  0  0  0  0
   -0.0027   -1.2585    0.9607 H   0  0  0  0  0  0  0  0  0  0  0  0
    0.4894   -0.3759    0.0977 H   0  0  0  0  0  0  0  0  0  0  0  0
   -0.0664   -1.5467   -1.0210 H   0  0  0  0  0  0  0  0  0  0  0  0
  2  8  1  0  0  0  0
  3  1  1  0  0  0  0
  4  1  1  0  0  0  0
  6  9  1  0  0  0  0
  7  2  1  0  0  0  0
  9 13  1  0  0  0  0
  9 12  1  0  0  0  0
 11  6  1  0  0  0  0
 14  9  1  0  0  0  0
M  RAD  5   1   3   2   3   5   2   6   3  10   2
M  END
$$$$
