14
butane_opt
C  -3.919638   0.279772  -0.086696
C  -2.683314  -0.609979   0.140424
H  -4.699551  -0.185076  -0.203728
H  -4.023107   0.901455  -0.857584
H  -4.090274   1.018287   0.871898
C  -1.410077   0.107232   0.085166
H  -2.450244  -1.165042  -0.593858
H  -3.022808  -1.291285   1.142683
C  -0.211644  -0.685512  -0.036367
H  -1.169803   1.009783   1.095458
H  -1.388326   0.455954  -0.783132
H  -0.182199  -1.118812   0.754005
H   0.985385  -0.001228  -0.401249
H  -0.298982  -1.148824  -0.809577
