butane_opt
 OpenBabel08242015403D

 14 12  0  0  0  0  0  0  0  0999 V2000
   -4.0573    0.3469   -0.1316 C   0  0  0  0  0  0  0  0  0  0  0  0
   -2.6751   -0.6622    0.1594 C   0  0  0  0  0  0  0  0  0  0  0  0
   -4.9284   -0.3263   -0.3344 H   0  0  0  0  0  0  0  0  0  0  0  0
   -4.0979    1.0560   -1.1117 H   0  0  0  0  0  0  0  0  0  0  0  0
   -4.3031    0.8234    0.6145 H   0  0  0  0  0  0  0  0  0  0  0  0
   -1.3890    0.0787    0.2245 C   0  0  0  0  0  0  0  0  0  0  0  0
   -2.4452   -1.0943   -0.5848 H   0  0  0  0  0  0  0  0  0  0  0  0
   -2.8119   -1.7875    1.3891 H   0  0  0  0  0  0  0  0  0  0  0  0
   -0.0983   -0.6036   -0.1199 C   0  0  0  0  0  0  0  0  0  0  0  0
   -0.9987    0.9530    1.2735 H   0  0  0  0  0  0  0  0  0  0  0  0
   -1.3253    0.4919   -0.5276 H   0  0  0  0  0  0  0  0  0  0  0  0
    0.1732   -1.2546    0.5740 H   0  0  0  0  0  0  0  0  0  0  0  0
    0.7420   -0.0041   -0.4638 H   0  0  0  0  0  0  0  0  0  0  0  0
   -0.3963   -1.2171   -0.9964 H   0  0  0  0  0  0  0  0  0  0  0  0
  1  2  1  0  0  0  0
  1  5  1  0  0  0  0
  2  6  1  0  0  0  0
  3  1  1  0  0  0  0
  4  1  1  0  0  0  0
  6 10  1  0  0  0  0
  7  2  1  0  0  0  0
  9  6  1  0  0  0  0
  9 12  1  0  0  0  0
 11  6  1  0  0  0  0
 13  9  1  0  0  0  0
 14  9  1  0  0  0  0
M  RAD  2   2   2   8   2
M  END
$$$$
