butane_opt
 OpenBabel08242015403D

 14 13  0  0  0  0  0  0  0  0999 V2000
   -3.9442    0.2713    0.0163 C   0  0  0  0  0  0  0  0  0  0  0  0
   -2.7052   -0.6316    0.0298 C   0  0  0  0  0  0  0  0  0  0  0  0
   -4.8258   -0.2667    0.1586 H   0  0  0  0  0  0  0  0  0  0  0  0
   -4.0492    1.0087   -0.9555 H   0  0  0  0  0  0  0  0  0  0  0  0
   -3.9068    0.7765    0.7725 H   0  0  0  0  0  0  0  0  0  0  0  0
   -1.4043    0.1894    0.0294 C   0  0  0  0  0  0  0  0  0  0  0  0
   -2.7194   -1.3333   -0.8257 H   0  0  0  0  0  0  0  0  0  0  0  0
   -2.7061   -1.2321    0.9107 H   0  0  0  0  0  0  0  0  0  0  0  0
   -0.1579   -0.6910    0.0278 C   0  0  0  0  0  0  0  0  0  0  0  0
   -1.3723    0.8731    0.9051 H   0  0  0  0  0  0  0  0  0  0  0  0
   -1.4248    0.8002   -0.8562 H   0  0  0  0  0  0  0  0  0  0  0  0
   -0.1301   -1.2815    0.8907 H   0  0  0  0  0  0  0  0  0  0  0  0
    0.7743   -0.0782    0.0363 H   0  0  0  0  0  0  0  0  0  0  0  0
   -0.1353   -1.3815   -0.8535 H   0  0  0  0  0  0  0  0  0  0  0  0
  1  2  1  0  0  0  0
  1  3  1  0  0  0  0
  1  5  1  0  0  0  0
  2  8  1  0  0  0  0
  4  1  1  0  0  0  0
  6  2  1  0  0  0  0
  6 10  1  0  0  0  0
  7  2  1  0  0  0  0
  9  6  1  0  0  0  0
  9 13  1  0  0  0  0
  9 12  1  0  0  0  0
 11  6  1  0  0  0  0
 14  9  1  0  0  0  0
M  END
$$$$
