14
butane_opt
C  -3.935489   0.186587   0.188446
C  -2.667374  -0.570968  -0.246765
H  -4.959191  -0.593294   0.713784
H  -4.603754   1.032961  -0.631363
H  -3.364706   0.697679   1.012995
C  -1.443499   0.280506  -0.116761
H  -3.006238  -1.293799  -1.048662
H  -2.657602  -0.882100   0.373118
C  -0.141274  -0.745499   0.205284
H  -1.610792   0.793038   0.653986
H  -1.256199   1.164669  -1.063225
H  -0.037335  -1.740455   1.380585
H   0.518137  -0.291207   0.187284
H   0.238825  -1.222673  -0.522429
