butane_opt
 OpenBabel08242015403D

 14 12  0  0  0  0  0  0  0  0999 V2000
   -3.9944    0.3133   -0.1037 C   0  0  0  0  0  0  0  0  0  0  0  0
   -2.6597   -0.7438    0.1895 C   0  0  0  0  0  0  0  0  0  0  0  0
   -4.6273   -0.1296   -0.2587 H   0  0  0  0  0  0  0  0  0  0  0  0
   -4.0033    1.3542   -1.3953 H   0  0  0  0  0  0  0  0  0  0  0  0
   -4.4244    0.6653    0.4847 H   0  0  0  0  0  0  0  0  0  0  0  0
   -1.3468    0.1989    0.2566 C   0  0  0  0  0  0  0  0  0  0  0  0
   -2.6402   -1.4556   -0.7720 H   0  0  0  0  0  0  0  0  0  0  0  0
   -2.7150   -1.2176    1.0326 H   0  0  0  0  0  0  0  0  0  0  0  0
   -0.1913   -0.6479   -0.1456 C   0  0  0  0  0  0  0  0  0  0  0  0
   -1.5680    0.8884    1.1640 H   0  0  0  0  0  0  0  0  0  0  0  0
   -1.4495    0.5609   -0.3909 H   0  0  0  0  0  0  0  0  0  0  0  0
    0.1528   -1.5463    0.8579 H   0  0  0  0  0  0  0  0  0  0  0  0
    0.9720    0.1173   -0.6627 H   0  0  0  0  0  0  0  0  0  0  0  0
   -0.4567   -1.0732   -1.0325 H   0  0  0  0  0  0  0  0  0  0  0  0
  1  2  1  0  0  0  0
  1  5  1  0  0  0  0
  2  6  1  0  0  0  0
  2  8  1  0  0  0  0
  3  1  1  0  0  0  0
  6 10  1  0  0  0  0
  7  2  1  0  0  0  0
  9  6  1  0  0  0  0
  9 12  1  0  0  0  0
 11  6  1  0  0  0  0
 13  9  1  0  0  0  0
 14  9  1  0  0  0  0
M  RAD  2   1   2   4   2
M  END
$$$$
