butane_opt
 OpenBabel08242015403D

 14 10  0  0  0  0  0  0  0  0999 V2000
   -3.8948    0.2331   -0.1037 C   0  0  0  0  0  1  0  0  0  0  0  0
   -2.6665   -0.5478    0.1010 C   0  0  0  0  0  0  0  0  0  0  0  0
   -4.8831   -0.3781    0.7574 H   0  0  0  0  0  0  0  0  0  0  0  0
   -4.0562    1.3535   -1.3530 H   0  0  0  0  0  0  0  0  0  0  0  0
   -3.7862    0.1736    0.2991 H   0  0  0  0  0  0  0  0  0  0  0  0
   -1.4224    0.2188    0.1683 C   0  0  0  0  0  0  0  0  0  0  0  0
   -2.5230   -1.0437   -0.5912 H   0  0  0  0  0  0  0  0  0  0  0  0
   -2.8358   -1.4308    1.1539 H   0  0  0  0  0  0  0  0  0  0  0  0
   -0.1978   -0.7442   -0.1038 C   0  0  0  0  0  0  0  0  0  0  0  0
   -1.3521    1.0634    1.1346 H   0  0  0  0  0  0  0  0  0  0  0  0
   -1.9099    0.4134   -0.5317 H   0  0  0  0  0  0  0  0  0  0  0  0
   -0.2957   -0.9027    0.5213 H   0  0  0  0  0  0  0  0  0  0  0  0
    0.8490    0.0177    0.3903 H   0  0  0  0  0  0  0  0  0  0  0  0
   -0.0523   -1.6221   -1.1347 H   0  0  0  0  0  0  0  0  0  0  0  0
  1  3  1  0  0  0  0
  2  5  1  0  0  0  0
  2  8  1  0  0  0  0
  6 10  1  0  0  0  0
  7  2  1  0  0  0  0
  9  6  1  0  0  0  0
  9 13  1  0  0  0  0
  9 12  1  0  0  0  0
 11  6  1  0  0  0  0
 14  9  1  0  0  0  0
M  RAD  3   2   2   4   2   6   2
M  END
$$$$
