butane_opt
 OpenBabel08242015403D

 14 12  0  0  0  0  0  0  0  0999 V2000
   -4.0416    0.3067    0.1883 C   0  0  0  0  0  0  0  0  0  0  0  0
   -2.6712   -0.6664   -0.1461 C   0  0  0  0  0  0  0  0  0  0  0  0
   -5.0983   -0.4746    0.6196 H   0  0  0  0  0  0  0  0  0  0  0  0
   -4.2557    1.0619   -0.8098 H   0  0  0  0  0  0  0  0  0  0  0  0
   -4.0218    0.9889    1.0251 H   0  0  0  0  0  0  0  0  0  0  0  0
   -1.3306    0.1748   -0.1502 C   0  0  0  0  0  0  0  0  0  0  0  0
   -2.8794   -1.7759   -1.3413 H   0  0  0  0  0  0  0  0  0  0  0  0
   -2.4545   -0.9566    0.3767 H   0  0  0  0  0  0  0  0  0  0  0  0
   -0.1402   -0.6683    0.2190 C   0  0  0  0  0  0  0  0  0  0  0  0
   -1.6896    0.7903    0.7325 H   0  0  0  0  0  0  0  0  0  0  0  0
   -1.0119    0.9011   -1.1680 H   0  0  0  0  0  0  0  0  0  0  0  0
   -0.0985   -1.6417    1.2001 H   0  0  0  0  0  0  0  0  0  0  0  0
    0.8460   -0.0507   -0.0557 H   0  0  0  0  0  0  0  0  0  0  0  0
   -0.1439   -1.0497   -0.4427 H   0  0  0  0  0  0  0  0  0  0  0  0
  1  3  1  0  0  0  0
  1  5  1  0  0  0  0
  2  1  1  0  0  0  0
  2  8  1  0  0  0  0
  4  1  1  0  0  0  0
  6  2  1  0  0  0  0
  6  9  1  0  0  0  0
  6 10  1  0  0  0  0
  9 12  1  0  0  0  0
 11  6  1  0  0  0  0
 13  9  1  0  0  0  0
 14  9  1  0  0  0  0
M  RAD  2   2   2   7   2
M  END
$$$$
