14
butane_opt
C  -4.052572   0.271227   0.171826
C  -2.677731  -0.626007  -0.147561
H  -4.970993  -0.246354   0.086730
H  -3.936686   0.879058  -0.702093
H  -3.929441   1.044273   1.309945
C  -1.381799   0.168689  -0.107857
H  -2.835458  -1.727990  -1.431236
H  -2.406239  -0.941038   0.449644
C  -0.133070  -0.687855   0.218052
H  -1.141661   0.793139   0.771590
H  -1.285930   0.890692  -1.102666
H  -0.112712  -1.790977   1.390952
H   0.838829  -0.134571  -0.726469
H  -0.284512  -0.712733  -0.157499
