14
butane_opt
C  -3.953737   0.225093  -0.200970
C  -2.737635  -0.576115   0.175110
H  -4.932387  -0.611797  -0.086060
H  -3.887025   0.969630  -1.139661
H  -3.922811   0.865162   0.666954
C  -1.408495   0.324326   0.269205
H  -2.702135  -1.149432  -0.600593
H  -3.074461  -1.514474   1.355200
C  -0.131053  -0.789816  -0.133527
H  -1.041199   1.235185   1.215590
H  -1.600290   0.629909  -0.372069
H   0.473274  -1.530597   0.858268
H   0.751343  -0.184499  -0.906878
H  -0.288246  -1.374961  -0.872135
