14
butane_opt
C  -4.020691   0.349038   0.076508
C  -2.705826  -0.692975  -0.105624
H  -4.798338  -0.152533   0.406292
H  -4.387424   0.847603  -0.712483
H  -3.719652   0.937857   0.910864
C  -1.365649   0.120534  -0.001613
H  -2.750813  -1.285174  -1.073530
H  -2.905177  -1.268548   0.757008
C  -0.125789  -0.676085   0.067813
H  -1.414972   0.821814   0.863036
H  -1.263453   0.613615  -0.818246
H  -0.038988  -1.657801   1.287548
H   0.992732   0.209388  -0.083581
H  -0.191508  -0.686659  -0.466612
