14
butane_opt
C  -3.983596   0.204561  -0.116152
C  -2.691984  -0.658478   0.261029
H  -4.817519  -0.248167  -0.626791
H  -3.596533   0.917187  -0.976130
H  -4.503774   1.113583   0.804923
C  -1.424180   0.277844   0.125987
H  -2.519180  -1.283075  -0.502208
H  -3.027964  -1.226930   1.334281
C  -0.086561  -0.724296  -0.148779
H  -1.200646   1.046653   1.058969
H  -1.596899   1.033643  -0.775445
H   0.011132  -1.339580   0.693683
H   0.775965  -0.142715   0.145370
H  -0.274414  -1.591997  -1.147755
