butane_opt
 OpenBabel08242015403D

 14 12  0  0  0  0  0  0  0  0999 V2000
   -3.9460    0.2503    0.0881 C   0  0  0  0  0  0  0  0  0  0  0  0
   -2.7318   -0.6105   -0.0326 C   0  0  0  0  0  0  0  0  0  0  0  0
   -4.8190   -0.2460   -0.2109 H   0  0  0  0  0  0  0  0  0  0  0  0
   -3.8456    0.6408   -0.6890 H   0  0  0  0  0  0  0  0  0  0  0  0
   -4.2056    0.8328    0.9330 H   0  0  0  0  0  0  0  0  0  0  0  0
   -1.4177    0.2108    0.0340 C   0  0  0  0  0  0  0  0  0  0  0  0
   -2.7503   -1.3960   -1.0375 H   0  0  0  0  0  0  0  0  0  0  0  0
   -2.7761   -0.9540    0.6122 H   0  0  0  0  0  0  0  0  0  0  0  0
   -0.0859   -0.6721    0.0704 C   0  0  0  0  0  0  0  0  0  0  0  0
   -1.6931    0.7364    0.8403 H   0  0  0  0  0  0  0  0  0  0  0  0
   -1.4021    0.8774   -0.9734 H   0  0  0  0  0  0  0  0  0  0  0  0
    0.1101   -1.7553    1.3203 H   0  0  0  0  0  0  0  0  0  0  0  0
    0.7079   -0.3464   -0.7700 H   0  0  0  0  0  0  0  0  0  0  0  0
   -0.1894   -0.9905   -0.4742 H   0  0  0  0  0  0  0  0  0  0  0  0
  1  5  1  0  0  0  0
  2  6  1  0  0  0  0
  2  1  1  0  0  0  0
  2  8  1  0  0  0  0
  3  1  1  0  0  0  0
  4  1  1  0  0  0  0
  6  9  1  0  0  0  0
  6 10  1  0  0  0  0
  7  2  1  0  0  0  0
 11  6  1  0  0  0  0
 13  9  1  0  0  0  0
 14  9  1  0  0  0  0
M  RAD  2   9   2  12   2
M  END
$$$$
