butane_opt
 OpenBabel08242015403D

 14 11  0  0  0  0  0  0  0  0999 V2000
   -3.9344    0.2742   -0.1414 C   0  0  0  0  0  0  0  0  0  0  0  0
   -2.6299   -0.5863    0.1879 C   0  0  0  0  0  0  0  0  0  0  0  0
   -4.7360   -0.3744    0.8178 H   0  0  0  0  0  0  0  0  0  0  0  0
   -4.0677    1.6533   -1.5818 H   0  0  0  0  0  0  0  0  0  0  0  0
   -3.8845    0.3394    0.3549 H   0  0  0  0  0  0  0  0  0  0  0  0
   -1.3852    0.1073    0.1817 C   0  0  0  0  0  0  0  0  0  0  0  0
   -2.6427   -1.5286   -0.7253 H   0  0  0  0  0  0  0  0  0  0  0  0
   -2.8570   -1.0506    1.0716 H   0  0  0  0  0  0  0  0  0  0  0  0
   -0.2370   -0.6669   -0.1300 C   0  0  0  0  0  0  0  0  0  0  0  0
   -1.4484    0.8684    1.0303 H   0  0  0  0  0  0  0  0  0  0  0  0
   -1.5556    0.6113   -0.4677 H   0  0  0  0  0  0  0  0  0  0  0  0
   -0.3029   -0.8760    0.4822 H   0  0  0  0  0  0  0  0  0  0  0  0
    0.8634    0.1824    0.3291 H   0  0  0  0  0  0  0  0  0  0  0  0
   -0.1705   -1.7744   -1.1502 H   0  0  0  0  0  0  0  0  0  0  0  0
  1  2  1  0  0  0  0
  1  3  1  0  0  0  0
  2  8  1  0  0  0  0
  6  2  1  0  0  0  0
  6 10  1  0  0  0  0
  7  2  1  0  0  0  0
  9  6  1  0  0  0  0
  9 13  1  0  0  0  0
  9 12  1  0  0  0  0
 11  6  1  0  0  0  0
 14  9  1  0  0  0  0
M  RAD  3   1   3   4   2   5   2
M  END
$$$$
