14
butane_opt
C  -3.955861   0.263944   0.025206
C  -2.703069  -0.612207   0.032826
H  -4.838443  -0.298173  -0.003574
H  -3.977521   0.871074  -0.855542
H  -4.009461   0.985254   0.922838
C  -1.397999   0.178632   0.007899
H  -2.735641  -1.359823  -0.890565
H  -2.721901  -1.199334   0.883447
C  -0.151523  -0.691164   0.037592
H  -1.370703   0.849644   0.847125
H  -1.335490   0.785709  -0.856477
H  -0.090411  -1.437488   1.022209
H   0.794398  -0.095614  -0.098088
H  -0.232967  -1.234776  -0.754812
