14
butane_opt
C  -3.986825   0.192195   0.070491
C  -2.720053  -0.572528  -0.053532
H  -5.037465  -0.476905  -0.190983
H  -3.686884   0.590639  -0.751605
H  -4.056932   1.082182   1.224891
C  -1.433630   0.293947  -0.013633
H  -2.927631  -1.147523  -0.866245
H  -2.458885  -0.988194   0.759289
C  -0.091461  -0.749748   0.052971
H  -1.369099   1.067097   0.942599
H  -1.236035   0.765492  -0.829622
H   0.137656  -2.134746   1.371831
H   0.694823  -0.391906  -0.420275
H  -0.240338  -0.842834  -0.395912
