butane_opt
 OpenBabel08242015403D

 14 13  0  0  0  0  0  0  0  0999 V2000
   -3.9387    0.2693    0.0547 C   0  0  0  0  0  0  0  0  0  0  0  0
   -2.6848   -0.6246   -0.0095 C   0  0  0  0  0  0  0  0  0  0  0  0
   -4.8412   -0.3133    0.1029 H   0  0  0  0  0  0  0  0  0  0  0  0
   -4.0416    0.8856   -0.8350 H   0  0  0  0  0  0  0  0  0  0  0  0
   -3.9051    0.9460    0.9208 H   0  0  0  0  0  0  0  0  0  0  0  0
   -1.4121    0.1768   -0.0210 C   0  0  0  0  0  0  0  0  0  0  0  0
   -2.7274   -1.3330   -0.8780 H   0  0  0  0  0  0  0  0  0  0  0  0
   -2.7221   -1.2327    0.8993 H   0  0  0  0  0  0  0  0  0  0  0  0
   -0.1749   -0.6829    0.0634 C   0  0  0  0  0  0  0  0  0  0  0  0
   -1.4248    0.8485    0.8249 H   0  0  0  0  0  0  0  0  0  0  0  0
   -1.3640    0.8241   -0.9318 H   0  0  0  0  0  0  0  0  0  0  0  0
   -0.1598   -1.3587    1.0295 H   0  0  0  0  0  0  0  0  0  0  0  0
    0.7581   -0.0671    0.0335 H   0  0  0  0  0  0  0  0  0  0  0  0
   -0.0811   -1.3292   -0.7769 H   0  0  0  0  0  0  0  0  0  0  0  0
  1  3  1  0  0  0  0
  1  5  1  0  0  0  0
  2  1  1  0  0  0  0
  2  8  1  0  0  0  0
  4  1  1  0  0  0  0
  6  2  1  0  0  0  0
  6  9  1  0  0  0  0
  6 10  1  0  0  0  0
  7  2  1  0  0  0  0
  9 12  1  0  0  0  0
 11  6  1  0  0  0  0
 13  9  1  0  0  0  0
 14  9  1  0  0  0  0
M  END
$$$$
