butane_opt
 OpenBabel08242015403D

 14 13  0  0  0  0  0  0  0  0999 V2000
   -3.9349    0.2279   -0.1053 C   0  0  0  0  0  0  0  0  0  0  0  0
   -2.7269   -0.6033    0.1310 C   0  0  0  0  0  0  0  0  0  0  0  0
   -4.8838   -0.2464   -0.1532 H   0  0  0  0  0  0  0  0  0  0  0  0
   -3.7948    0.9875   -1.2805 H   0  0  0  0  0  0  0  0  0  0  0  0
   -4.1203    0.5261    0.4264 H   0  0  0  0  0  0  0  0  0  0  0  0
   -1.4519    0.2807    0.2626 C   0  0  0  0  0  0  0  0  0  0  0  0
   -2.7695   -1.3752   -0.7105 H   0  0  0  0  0  0  0  0  0  0  0  0
   -2.8951   -1.3226    1.1376 H   0  0  0  0  0  0  0  0  0  0  0  0
   -0.1081   -0.7422   -0.1026 C   0  0  0  0  0  0  0  0  0  0  0  0
   -1.3106    1.1516    1.1874 H   0  0  0  0  0  0  0  0  0  0  0  0
   -1.6000    0.8635   -0.5147 H   0  0  0  0  0  0  0  0  0  0  0  0
    0.6545   -1.6140    0.8162 H   0  0  0  0  0  0  0  0  0  0  0  0
    0.7613   -0.1482   -0.7824 H   0  0  0  0  0  0  0  0  0  0  0  0
   -0.4236   -1.2351   -0.9203 H   0  0  0  0  0  0  0  0  0  0  0  0
  1  2  1  0  0  0  0
  1  5  1  0  0  0  0
  2  6  1  0  0  0  0
  2  8  1  0  0  0  0
  3  1  1  0  0  0  0
  4  1  1  0  0  0  0
  6 10  1  0  0  0  0
  7  2  1  0  0  0  0
  9  6  1  0  0  0  0
  9 12  1  0  0  0  0
 11  6  1  0  0  0  0
 13  9  1  0  0  0  0
 14  9  1  0  0  0  0
M  END
$$$$
