14
butane_opt
C  -4.005183   0.267612   0.151685
C  -2.707148  -0.643486  -0.132524
H  -4.829766  -0.302655   0.436451
H  -4.161405   1.134381  -0.825744
H  -3.571180   0.613986   0.739792
C  -1.405653   0.255826  -0.102625
H  -2.954256  -1.506338  -1.143422
H  -2.815240  -1.138035   0.652266
C  -0.091518  -0.707936   0.146784
H  -1.463639   1.044841   0.859643
H  -1.368785   0.465647  -0.734918
H   0.010558  -1.512622   1.285751
H   0.564988  -0.267537  -0.215316
H   0.048071  -1.036234  -0.395145
