butane_opt
 OpenBabel08242015403D

 14 12  0  0  0  0  0  0  0  0999 V2000
   -3.8600    0.2340    0.1184 C   0  0  0  0  0  0  0  0  0  0  0  0
   -2.7132   -0.5882   -0.1232 C   0  0  0  0  0  0  0  0  0  0  0  0
   -4.6617   -0.3319    0.4352 H   0  0  0  0  0  0  0  0  0  0  0  0
   -3.8995    0.9248   -0.6778 H   0  0  0  0  0  0  0  0  0  0  0  0
   -3.8005    0.9650    0.9866 H   0  0  0  0  0  0  0  0  0  0  0  0
   -1.4342    0.2020   -0.1013 C   0  0  0  0  0  0  0  0  0  0  0  0
   -3.1897   -1.3313   -0.9302 H   0  0  0  0  0  0  0  0  0  0  0  0
   -2.5357   -1.2501    0.7530 H   0  0  0  0  0  0  0  0  0  0  0  0
   -0.1855   -0.6763    0.1296 C   0  0  0  0  0  0  0  0  0  0  0  0
   -1.5555    1.0409    0.7958 H   0  0  0  0  0  0  0  0  0  0  0  0
   -1.4442    0.7906   -1.0085 H   0  0  0  0  0  0  0  0  0  0  0  0
   -0.3860   -1.6893    1.3133 H   0  0  0  0  0  0  0  0  0  0  0  0
    0.7294   -0.2187    0.1684 H   0  0  0  0  0  0  0  0  0  0  0  0
    0.0032   -1.4108   -0.6734 H   0  0  0  0  0  0  0  0  0  0  0  0
  1  3  1  0  0  0  0
  1  5  1  0  0  0  0
  2  6  1  0  0  0  0
  2  1  1  0  0  0  0
  2  8  1  0  0  0  0
  4  1  1  0  0  0  0
  6  9  1  0  0  0  0
  6 10  1  0  0  0  0
  7  2  1  0  0  0  0
  9 13  1  0  0  0  0
 11  6  1  0  0  0  0
 14  9  1  0  0  0  0
M  RAD  2   9   2  12   2
M  END
$$$$
