14
butane_opt
C  -3.920689   0.193236   0.195458
C  -2.748411  -0.518736  -0.269049
H  -4.976258  -0.468286   0.868608
H  -4.330426   1.034789  -0.699677
H  -3.388732   0.466102   0.847632
C  -1.467325   0.226010  -0.118658
H  -2.777450  -1.315992  -1.070238
H  -2.540330  -1.130768   0.694126
C  -0.113158  -0.742029   0.215557
H  -1.597007   1.028476   0.748967
H  -1.237412   1.080468  -1.120079
H   0.079159  -1.516510   1.129928
H   0.619033  -0.264066   0.293519
H   0.135715  -1.330083  -0.552775
