14
butane_opt
C  -3.967216   0.257848   0.205077
C  -2.795238  -0.597010  -0.140273
H  -4.854235  -0.299276   0.490400
H  -3.963057   0.708374  -0.640910
H  -3.690217   1.043707   1.291182
C  -1.403122   0.216427  -0.228465
H  -2.885143  -1.397431  -1.260551
H  -2.575668  -1.172056   0.654960
C  -0.084735  -0.712417   0.174765
H  -1.574224   0.802227   0.604513
H  -1.279629   0.988804  -1.268742
H  -0.706883  -1.556472   1.346516
H   1.019402  -0.035416   0.699958
H   0.453484  -1.505888  -0.578359
