butane_opt
 OpenBabel08242015403D

 14 13  0  0  0  0  0  0  0  0999 V2000
   -3.9530    0.2699    0.0346 C   0  0  0  0  0  0  0  0  0  0  0  0
   -2.6827   -0.6158    0.0041 C   0  0  0  0  0  0  0  0  0  0  0  0
   -4.8759   -0.3314    0.0854 H   0  0  0  0  0  0  0  0  0  0  0  0
   -4.0362    0.8608   -0.8432 H   0  0  0  0  0  0  0  0  0  0  0  0
   -3.9305    0.9810    0.9401 H   0  0  0  0  0  0  0  0  0  0  0  0
   -1.4025    0.1698   -0.0050 C   0  0  0  0  0  0  0  0  0  0  0  0
   -2.7579   -1.3215   -0.8784 H   0  0  0  0  0  0  0  0  0  0  0  0
   -2.6676   -1.2606    0.9017 H   0  0  0  0  0  0  0  0  0  0  0  0
   -0.1632   -0.6796    0.0576 C   0  0  0  0  0  0  0  0  0  0  0  0
   -1.4101    0.8703    0.8301 H   0  0  0  0  0  0  0  0  0  0  0  0
   -1.3434    0.7831   -0.8869 H   0  0  0  0  0  0  0  0  0  0  0  0
   -0.1183   -1.4070    1.0223 H   0  0  0  0  0  0  0  0  0  0  0  0
    0.7545   -0.1044   -0.0461 H   0  0  0  0  0  0  0  0  0  0  0  0
   -0.2186   -1.2712   -0.7695 H   0  0  0  0  0  0  0  0  0  0  0  0
  1  3  1  0  0  0  0
  1  5  1  0  0  0  0
  2  1  1  0  0  0  0
  2  8  1  0  0  0  0
  4  1  1  0  0  0  0
  6  2  1  0  0  0  0
  6  9  1  0  0  0  0
  6 10  1  0  0  0  0
  7  2  1  0  0  0  0
  9 12  1  0  0  0  0
 11  6  1  0  0  0  0
 13  9  1  0  0  0  0
 14  9  1  0  0  0  0
M  END
$$$$
