butane_opt
 OpenBabel08242015403D

 14 13  0  0  0  0  0  0  0  0999 V2000
   -3.9471    0.2678    0.0487 C   0  0  0  0  0  0  0  0  0  0  0  0
   -2.7060   -0.6169    0.0026 C   0  0  0  0  0  0  0  0  0  0  0  0
   -4.8544   -0.2922    0.0283 H   0  0  0  0  0  0  0  0  0  0  0  0
   -3.9667    0.8517   -0.8395 H   0  0  0  0  0  0  0  0  0  0  0  0
   -3.9471    0.9792    0.9278 H   0  0  0  0  0  0  0  0  0  0  0  0
   -1.3947    0.1800   -0.0179 C   0  0  0  0  0  0  0  0  0  0  0  0
   -2.7524   -1.3656   -0.8960 H   0  0  0  0  0  0  0  0  0  0  0  0
   -2.6948   -1.2317    0.9023 H   0  0  0  0  0  0  0  0  0  0  0  0
   -0.1624   -0.6858    0.0627 C   0  0  0  0  0  0  0  0  0  0  0  0
   -1.3975    0.8830    0.8614 H   0  0  0  0  0  0  0  0  0  0  0  0
   -1.3792    0.7617   -0.8942 H   0  0  0  0  0  0  0  0  0  0  0  0
   -0.1152   -1.4194    1.0411 H   0  0  0  0  0  0  0  0  0  0  0  0
    0.7265   -0.1142   -0.1124 H   0  0  0  0  0  0  0  0  0  0  0  0
   -0.1275   -1.2568   -0.7224 H   0  0  0  0  0  0  0  0  0  0  0  0
  1  5  1  0  0  0  0
  2  1  1  0  0  0  0
  2  8  1  0  0  0  0
  3  1  1  0  0  0  0
  4  1  1  0  0  0  0
  6  2  1  0  0  0  0
  6  9  1  0  0  0  0
  6 10  1  0  0  0  0
  7  2  1  0  0  0  0
  9 12  1  0  0  0  0
 11  6  1  0  0  0  0
 13  9  1  0  0  0  0
 14  9  1  0  0  0  0
M  END
$$$$
