butane_opt
 OpenBabel08242015403D

 14 13  0  0  0  0  0  0  0  0999 V2000
   -3.9248    0.2304    0.1730 C   0  0  0  0  0  0  0  0  0  0  0  0
   -2.7540   -0.5976   -0.1254 C   0  0  0  0  0  0  0  0  0  0  0  0
   -4.8778   -0.5334    0.2259 H   0  0  0  0  0  0  0  0  0  0  0  0
   -4.4026    0.7492   -0.6991 H   0  0  0  0  0  0  0  0  0  0  0  0
   -3.7011    0.8264    1.0149 H   0  0  0  0  0  0  0  0  0  0  0  0
   -1.4253    0.3466   -0.1572 C   0  0  0  0  0  0  0  0  0  0  0  0
   -2.8419   -1.1281   -0.8456 H   0  0  0  0  0  0  0  0  0  0  0  0
   -2.9559   -1.2160    0.8894 H   0  0  0  0  0  0  0  0  0  0  0  0
   -0.0839   -0.7850    0.1622 C   0  0  0  0  0  0  0  0  0  0  0  0
   -1.4601    0.7050    0.5017 H   0  0  0  0  0  0  0  0  0  0  0  0
   -1.2222    1.0235   -1.1210 H   0  0  0  0  0  0  0  0  0  0  0  0
   -0.3458   -1.2348    0.9627 H   0  0  0  0  0  0  0  0  0  0  0  0
    0.7966   -0.1628    0.6516 H   0  0  0  0  0  0  0  0  0  0  0  0
    0.2896   -1.8596   -0.8097 H   0  0  0  0  0  0  0  0  0  0  0  0
  1  3  1  0  0  0  0
  1  5  1  0  0  0  0
  2  1  1  0  0  0  0
  2  8  1  0  0  0  0
  4  1  1  0  0  0  0
  6  2  1  0  0  0  0
  6  9  1  0  0  0  0
  6 10  1  0  0  0  0
  7  2  1  0  0  0  0
  9 13  1  0  0  0  0
  9 12  1  0  0  0  0
 11  6  1  0  0  0  0
 14  9  1  0  0  0  0
M  END
$$$$
