14
butane_opt
C  -3.929380   0.331076  -0.163664
C  -2.689781  -0.631762   0.201473
H  -4.745235  -0.220112  -0.082752
H  -3.671917   1.153279  -1.279899
H  -4.407897   0.803984   0.567493
C  -1.418340   0.057128   0.245194
H  -2.673150  -1.542603  -0.655754
H  -2.721334  -1.211622   1.059785
C  -0.189594  -0.664603  -0.112063
H  -0.953553   0.950592   1.260049
H  -1.596681   0.502520  -0.482534
H   0.225448  -1.236041   0.716434
H   0.960339   0.157630  -0.839436
H  -0.746042  -0.856339  -0.847796
