butane_opt
 OpenBabel08242015403D

 14 13  0  0  0  0  0  0  0  0999 V2000
   -3.9349    0.2627    0.0032 C   0  0  0  0  0  0  0  0  0  0  0  0
   -2.7039   -0.6188    0.0473 C   0  0  0  0  0  0  0  0  0  0  0  0
   -4.8506   -0.3388    0.1148 H   0  0  0  0  0  0  0  0  0  0  0  0
   -3.9726    0.9847   -0.9695 H   0  0  0  0  0  0  0  0  0  0  0  0
   -3.9200    0.8532    0.8143 H   0  0  0  0  0  0  0  0  0  0  0  0
   -1.4143    0.1865    0.0347 C   0  0  0  0  0  0  0  0  0  0  0  0
   -2.6745   -1.2716   -0.7818 H   0  0  0  0  0  0  0  0  0  0  0  0
   -2.7542   -1.2572    0.9592 H   0  0  0  0  0  0  0  0  0  0  0  0
   -0.1644   -0.7007    0.0087 C   0  0  0  0  0  0  0  0  0  0  0  0
   -1.3532    0.9538    0.9229 H   0  0  0  0  0  0  0  0  0  0  0  0
   -1.4183    0.7925   -0.8328 H   0  0  0  0  0  0  0  0  0  0  0  0
   -0.1582   -1.2799    0.9171 H   0  0  0  0  0  0  0  0  0  0  0  0
    0.7726   -0.0756    0.0227 H   0  0  0  0  0  0  0  0  0  0  0  0
   -0.0883   -1.3919   -0.8644 H   0  0  0  0  0  0  0  0  0  0  0  0
  1  2  1  0  0  0  0
  1  3  1  0  0  0  0
  1  5  1  0  0  0  0
  2  8  1  0  0  0  0
  4  1  1  0  0  0  0
  6  2  1  0  0  0  0
  6 10  1  0  0  0  0
  7  2  1  0  0  0  0
  9 13  1  0  0  0  0
  9  6  1  0  0  0  0
  9 12  1  0  0  0  0
 11  6  1  0  0  0  0
 14  9  1  0  0  0  0
M  END
$$$$
