14
butane_opt
C  -3.855281   0.242989  -0.093157
C  -2.717612  -0.570857   0.172123
H  -4.674326  -0.381887   0.165220
H  -3.784737   1.344032  -1.418208
H  -3.913675   0.261159   0.339972
C  -1.428184   0.238312   0.188703
H  -2.800019  -1.348188  -0.746963
H  -2.677438  -1.250321   1.069158
C  -0.197988  -0.749173  -0.129503
H  -1.514654   0.902186   1.084316
H  -1.640649   0.799040  -0.458312
H   0.003633  -1.062906   0.521855
H   0.734875  -0.014772   0.108776
H  -0.364778  -1.615606  -0.978926
