14
butane_opt
C  -3.967983   0.229248  -0.082736
C  -2.726595  -0.590950   0.234131
H  -5.009075  -0.456406   0.100971
H  -4.022052   1.394178  -1.386531
H  -4.185653   0.264274   0.294012
C  -1.401685   0.248144   0.110896
H  -2.781153  -1.143760  -0.491456
H  -2.824109  -1.209541   1.181309
C  -0.040232  -0.746597  -0.123064
H  -1.644410   0.950644   0.956868
H  -1.476892   0.840070  -0.619237
H  -0.276034  -0.541712   0.147783
H   0.808075  -0.179149   0.704612
H   0.088022  -2.110402  -1.289568
