butane_opt
 OpenBabel08242015403D

 14 12  0  0  0  0  0  0  0  0999 V2000
   -3.8474    0.1971   -0.1778 C   0  0  0  0  0  0  0  0  0  0  0  0
   -2.7174   -0.5832    0.3147 C   0  0  0  0  0  0  0  0  0  0  0  0
   -4.8496   -0.3863   -0.7757 H   0  0  0  0  0  0  0  0  0  0  0  0
   -3.5387    0.5261   -0.8695 H   0  0  0  0  0  0  0  0  0  0  0  0
   -4.1683    1.5216    1.0105 H   0  0  0  0  0  0  0  0  0  0  0  0
   -1.4434    0.2399    0.1466 C   0  0  0  0  0  0  0  0  0  0  0  0
   -2.5379   -1.1274   -0.3765 H   0  0  0  0  0  0  0  0  0  0  0  0
   -2.9151   -1.2020    1.2493 H   0  0  0  0  0  0  0  0  0  0  0  0
   -0.1785   -0.7291   -0.1148 C   0  0  0  0  0  0  0  0  0  0  0  0
   -1.4282    0.6611    0.8985 H   0  0  0  0  0  0  0  0  0  0  0  0
   -1.4454    0.9787   -0.8526 H   0  0  0  0  0  0  0  0  0  0  0  0
   -0.0949   -1.0499    0.6431 H   0  0  0  0  0  0  0  0  0  0  0  0
    0.5893   -0.3053   -0.3358 H   0  0  0  0  0  0  0  0  0  0  0  0
   -0.3437   -1.6413   -1.1810 H   0  0  0  0  0  0  0  0  0  0  0  0
  1  2  1  0  0  0  0
  2  8  1  0  0  0  0
  3  1  1  0  0  0  0
  4  1  1  0  0  0  0
  6  2  1  0  0  0  0
  6 10  1  0  0  0  0
  7  2  1  0  0  0  0
  9  6  1  0  0  0  0
  9 12  1  0  0  0  0
 11  6  1  0  0  0  0
 13  9  1  0  0  0  0
 14  9  1  0  0  0  0
M  RAD  2   1   2   5   2
M  END
$$$$
