14
butane_opt
C  -3.872391   0.323358   0.208516
C  -2.687826  -0.658018  -0.142632
H  -4.653924  -0.161900   0.194594
H  -4.464261   0.637746  -0.411215
H  -3.720390   1.179387   1.240358
C  -1.434764   0.129692  -0.257351
H  -2.793079  -1.371805  -1.012713
H  -2.687665  -1.536979   0.879305
C  -0.230842  -0.651459   0.228548
H  -1.527845   0.639341   0.375767
H  -0.924209   0.970107  -1.313850
H  -0.665737  -1.008001   0.932302
H   0.842817  -0.010870   0.874168
H   0.257413  -1.505817  -0.781094
