butane_opt
 OpenBabel08242015403D

 14 13  0  0  0  0  0  0  0  0999 V2000
   -3.9800    0.2622   -0.1008 C   0  0  0  0  0  0  0  0  0  0  0  0
   -2.7246   -0.5650    0.2496 C   0  0  0  0  0  0  0  0  0  0  0  0
   -4.6931   -0.3601   -0.5051 H   0  0  0  0  0  0  0  0  0  0  0  0
   -3.4961    0.7419   -1.0217 H   0  0  0  0  0  0  0  0  0  0  0  0
   -4.6202    1.0399    0.6103 H   0  0  0  0  0  0  0  0  0  0  0  0
   -1.3968    0.1673    0.1227 C   0  0  0  0  0  0  0  0  0  0  0  0
   -2.7332   -1.3525   -0.6498 H   0  0  0  0  0  0  0  0  0  0  0  0
   -2.9426   -1.1453    1.2316 H   0  0  0  0  0  0  0  0  0  0  0  0
   -0.1257   -0.7293   -0.0858 C   0  0  0  0  0  0  0  0  0  0  0  0
   -1.1992    0.8254    1.0220 H   0  0  0  0  0  0  0  0  0  0  0  0
   -1.4290    0.5830   -0.7045 H   0  0  0  0  0  0  0  0  0  0  0  0
    0.2091   -1.0816    0.5882 H   0  0  0  0  0  0  0  0  0  0  0  0
    0.9321    0.0278   -0.4155 H   0  0  0  0  0  0  0  0  0  0  0  0
   -0.3351   -1.3280   -0.9232 H   0  0  0  0  0  0  0  0  0  0  0  0
  1  2  1  0  0  0  0
  1  5  1  0  0  0  0
  2  8  1  0  0  0  0
  3  1  1  0  0  0  0
  4  1  1  0  0  0  0
  6  2  1  0  0  0  0
  6 10  1  0  0  0  0
  7  2  1  0  0  0  0
  9  6  1  0  0  0  0
  9 12  1  0  0  0  0
 11  6  1  0  0  0  0
 13  9  1  0  0  0  0
 14  9  1  0  0  0  0
M  END
$$$$
