butane_opt
 OpenBabel08242015403D

 14 13  0  0  0  0  0  0  0  0999 V2000
   -3.8836    0.2999    0.1824 C   0  0  0  0  0  0  0  0  0  0  0  0
   -2.6919   -0.7142   -0.0757 C   0  0  0  0  0  0  0  0  0  0  0  0
   -4.6990   -0.1542    0.0349 H   0  0  0  0  0  0  0  0  0  0  0  0
   -3.7552    0.9113   -0.7648 H   0  0  0  0  0  0  0  0  0  0  0  0
   -4.0433    1.2386    1.0405 H   0  0  0  0  0  0  0  0  0  0  0  0
   -1.3949    0.1600   -0.1458 C   0  0  0  0  0  0  0  0  0  0  0  0
   -2.8917   -1.3353   -0.9336 H   0  0  0  0  0  0  0  0  0  0  0  0
   -2.4913   -1.1188    0.6203 H   0  0  0  0  0  0  0  0  0  0  0  0
   -0.2472   -0.6673    0.1682 C   0  0  0  0  0  0  0  0  0  0  0  0
   -1.4256    0.5695    0.5068 H   0  0  0  0  0  0  0  0  0  0  0  0
   -1.5518    0.9392   -1.2711 H   0  0  0  0  0  0  0  0  0  0  0  0
   -0.4775   -1.0863    1.0679 H   0  0  0  0  0  0  0  0  0  0  0  0
    0.8651    0.0822    0.4214 H   0  0  0  0  0  0  0  0  0  0  0  0
   -0.0020   -1.4362   -0.8053 H   0  0  0  0  0  0  0  0  0  0  0  0
  1  5  1  0  0  0  0
  2  1  1  0  0  0  0
  2  8  1  0  0  0  0
  3  1  1  0  0  0  0
  4  1  1  0  0  0  0
  6  2  1  0  0  0  0
  6  9  1  0  0  0  0
  6 10  1  0  0  0  0
  7  2  1  0  0  0  0
  9 13  1  0  0  0  0
  9 12  1  0  0  0  0
 11  6  1  0  0  0  0
 14  9  1  0  0  0  0
M  END
$$$$
