14
butane_opt
C  -3.905524   0.247944  -0.052602
C  -2.721682  -0.532333   0.060108
H  -5.080576  -0.651732   0.848997
H  -3.783299   1.500110  -1.335456
H  -3.647487  -0.004688   0.278718
C  -1.422439   0.214244   0.123856
H  -2.785667  -1.247421  -0.830200
H  -2.690970  -1.003767   0.851956
C  -0.158003  -0.747144  -0.016049
H  -1.247692   1.169283   1.018915
H  -1.615901   0.582626  -0.531112
H  -0.075399  -1.034250   0.649109
H   0.676250  -0.424704   0.024335
H  -0.235253  -1.585167  -0.994794
