butane_opt
 OpenBabel08242015403D

 14 10  0  0  0  0  0  0  0  0999 V2000
   -3.8803    0.2061   -0.0760 C   0  0  0  0  0  0  0  0  0  0  0  0
   -2.7123   -0.5577    0.0369 C   0  0  0  0  0  0  0  0  0  0  0  0
   -4.8121   -0.5382    0.7697 H   0  0  0  0  0  0  0  0  0  0  0  0
   -4.1990    1.4666   -1.3904 H   0  0  0  0  0  0  0  0  0  0  0  0
   -3.9767    0.3121    0.4762 H   0  0  0  0  0  0  0  0  0  0  0  0
   -1.4201    0.2621    0.1757 C   0  0  0  0  0  0  0  0  0  0  0  0
   -3.1155   -1.1813   -0.6336 H   0  0  0  0  0  0  0  0  0  0  0  0
   -2.8865   -1.2491    1.0105 H   0  0  0  0  0  0  0  0  0  0  0  0
   -0.1346   -0.7597   -0.0330 C   0  0  0  0  0  0  0  0  0  0  0  0
   -1.4433    1.0276    1.0968 H   0  0  0  0  0  0  0  0  0  0  0  0
   -1.3557    1.0692   -0.7509 H   0  0  0  0  0  0  0  0  0  0  0  0
    0.1151   -1.0647    0.5601 H   0  0  0  0  0  0  0  0  0  0  0  0
    0.6523   -0.2426    0.0913 H   0  0  0  0  0  0  0  0  0  0  0  0
   -0.1829   -1.8990   -1.1472 H   0  0  0  0  0  0  0  0  0  0  0  0
  1  2  1  0  0  0  0
  1  3  1  0  0  0  0
  2  6  1  0  0  0  0
  2  8  1  0  0  0  0
  6 10  1  0  0  0  0
  7  2  1  0  0  0  0
  9 13  1  0  0  0  0
  9  6  1  0  0  0  0
  9 12  1  0  0  0  0
 11  6  1  0  0  0  0
M  RAD  5   1   3   4   2   5   2   9   2  14   2
M  END
$$$$
