14
butane_opt
C  -4.030286   0.313281   0.063683
C  -2.687043  -0.694569  -0.054260
H  -4.632249  -0.047501  -0.093812
H  -4.056042   0.540812  -0.516957
H  -4.095443   1.433288   1.131853
C  -1.374312   0.122207   0.003740
H  -2.864172  -1.631798  -1.107711
H  -2.816685  -1.184943   0.897858
C  -0.124038  -0.619847   0.089839
H  -1.398102   0.491316   0.668759
H  -1.300557   1.093376  -1.099046
H   0.095047  -1.593303   1.224526
H   0.808462  -0.083904  -0.399580
H  -0.237709  -0.884244  -0.413261
