14
butane_opt
C  -3.914029   0.306584  -0.101069
C  -2.641266  -0.684569   0.153523
H  -4.679744  -0.270864   0.396303
H  -3.878326   1.631632  -1.488832
H  -3.945819   0.443302   0.360486
C  -1.384960   0.180928   0.189812
H  -2.758910  -1.551692  -0.857404
H  -2.947261  -1.191707   1.153887
C  -0.245476  -0.681661  -0.073505
H  -1.374424   1.107386   1.156933
H  -1.407920   0.545043  -0.513681
H  -0.186720  -1.102001   0.601670
H   0.783065   0.038325  -0.399372
H  -0.416584  -1.523807  -1.098444
