14
butane_opt
C  -3.986590   0.253132  -0.057958
C  -2.702805  -0.655125   0.200456
H  -4.793998  -0.099977   0.014317
H  -4.241512   1.262889  -1.146385
H  -4.031979   0.838195   0.688196
C  -1.366485   0.192734   0.019627
H  -2.457071  -1.444486  -0.540528
H  -2.968079  -1.436009   1.217255
C  -0.150182  -0.697447  -0.022621
H  -1.340219   0.839859   0.842344
H  -1.427221   0.935412  -1.034631
H  -0.234100  -0.457773   0.198324
H   0.816439   0.040378   0.756437
H   0.116361  -2.048356  -1.322346
