14
butane_opt
C  -3.995989   0.314455  -0.105122
C  -2.672405  -0.728810   0.145924
H  -4.714603  -0.035234   0.063372
H  -3.809362   1.039630  -1.126853
H  -4.161929   1.007143   0.649551
C  -1.374337   0.153306   0.195424
H  -2.349050  -1.359961  -0.686083
H  -3.047656  -1.478589   1.094855
C  -0.151225  -0.630968  -0.083070
H  -1.405288   0.796530   0.926977
H  -1.551052   0.787557  -0.619634
H   0.033300  -1.159633   0.666423
H   0.750651   0.004845  -0.376887
H  -0.484803  -1.323014  -0.954600
