14
butane_opt
C  -3.883589   0.299902   0.182378
C  -2.691950  -0.714162  -0.075737
H  -4.698980  -0.154185   0.034944
H  -3.755223   0.911347  -0.764832
H  -4.043275   1.238585   1.040501
C  -1.394923   0.160000  -0.145820
H  -2.891680  -1.335252  -0.933571
H  -2.491324  -1.118843   0.620301
C  -0.247159  -0.667329   0.168237
H  -1.425567   0.569515   0.506841
H  -1.551846   0.939235  -1.271058
H  -0.477480  -1.086319   1.067886
H   0.865096   0.082239   0.421428
H  -0.001969  -1.436208  -0.805333
