14
butane_opt
C  -3.934272   0.274237   0.032186
C  -2.641138  -0.677937   0.014509
H  -4.472427  -0.041356  -0.104034
H  -4.076852   0.723033  -0.693508
H  -4.121182   1.264158   1.004744
C  -1.416394   0.129027   0.041755
H  -2.533948  -1.750879  -1.062986
H  -2.481889  -0.839825   0.632492
C  -0.246796  -0.633372   0.066571
H  -1.362789   0.742521   0.700180
H  -1.364501   0.836979  -0.870631
H  -0.179192  -1.930253   1.341018
H   0.793537   0.181772  -0.765180
H  -0.388863  -0.718960  -0.523761
