butane_opt
 OpenBabel08242015403D

 14 11  0  0  0  0  0  0  0  0999 V2000
   -3.9321    0.2845    0.1112 C   0  0  0  0  0  0  0  0  0  0  0  0
   -2.7085   -0.6068    0.0169 C   0  0  0  0  0  0  0  0  0  0  0  0
   -4.8144   -0.3171    0.2349 H   0  0  0  0  0  0  0  0  0  0  0  0
   -3.9124    0.6379   -0.8258 H   0  0  0  0  0  0  0  0  0  0  0  0
   -4.0148    1.2248    1.1668 H   0  0  0  0  0  0  0  0  0  0  0  0
   -1.3797    0.1358   -0.1675 C   0  0  0  0  0  0  0  0  0  0  0  0
   -2.8242   -1.5986   -1.0696 H   0  0  0  0  0  0  0  0  0  0  0  0
   -2.3772   -1.0444    0.6779 H   0  0  0  0  0  0  0  0  0  0  0  0
   -0.2180   -0.7208    0.1352 C   0  0  0  0  0  0  0  0  0  0  0  0
   -1.3955    0.6759    0.5999 H   0  0  0  0  0  0  0  0  0  0  0  0
   -1.4083    1.2231   -1.2480 H   0  0  0  0  0  0  0  0  0  0  0  0
   -0.6476   -1.0881    0.9235 H   0  0  0  0  0  0  0  0  0  0  0  0
    1.0857    0.2140    0.6278 H   0  0  0  0  0  0  0  0  0  0  0  0
    0.1344   -1.4884   -0.7699 H   0  0  0  0  0  0  0  0  0  0  0  0
  1  3  1  0  0  0  0
  1  5  1  0  0  0  0
  2  1  1  0  0  0  0
  2  8  1  0  0  0  0
  4  1  1  0  0  0  0
  6  2  1  0  0  0  0
  6  9  1  0  0  0  0
  6 10  1  0  0  0  0
  7  2  1  0  0  0  0
  9 12  1  0  0  0  0
 14  9  1  0  0  0  0
M  RAD  4   6   2   9   2  11   2  13   2
M  END
$$$$
