14
butane_opt
C  -3.929958   0.291908  -0.190191
C  -2.657026  -0.698854   0.363167
H  -4.778183  -0.169168  -0.680532
H  -3.432014   0.862708  -1.049045
H  -4.247802   1.239171   0.672765
C  -1.428584   0.157675   0.169996
H  -2.569287  -1.210426  -0.349715
H  -2.619961  -1.191923   1.191675
C  -0.255466  -0.637975  -0.206657
H  -0.887075   0.635773   1.110463
H  -1.488267   0.749860  -0.722470
H  -0.126958  -1.065818   0.627530
H   0.651542  -0.063894   0.226574
H  -0.313894  -1.620136  -1.218009
