butane_opt
 OpenBabel08242015403D

 14 12  0  0  0  0  0  0  0  0999 V2000
   -3.9996    0.2874   -0.1354 C   0  0  0  0  0  0  0  0  0  0  0  0
   -2.7024   -0.6775    0.1338 C   0  0  0  0  0  0  0  0  0  0  0  0
   -4.6916    0.0460    0.0658 H   0  0  0  0  0  0  0  0  0  0  0  0
   -3.9730    1.2070   -1.0889 H   0  0  0  0  0  0  0  0  0  0  0  0
   -4.3536    0.9267    0.7211 H   0  0  0  0  0  0  0  0  0  0  0  0
   -1.3112    0.1248    0.2085 C   0  0  0  0  0  0  0  0  0  0  0  0
   -2.8450   -1.3091   -0.7231 H   0  0  0  0  0  0  0  0  0  0  0  0
   -2.7488   -1.4704    1.0564 H   0  0  0  0  0  0  0  0  0  0  0  0
   -0.1624   -0.6264   -0.1264 C   0  0  0  0  0  0  0  0  0  0  0  0
   -1.1602    1.0923    1.3376 H   0  0  0  0  0  0  0  0  0  0  0  0
   -1.6350    0.5278   -0.5545 H   0  0  0  0  0  0  0  0  0  0  0  0
   -0.0589   -1.6624    1.0320 H   0  0  0  0  0  0  0  0  0  0  0  0
    0.8240    0.0297   -0.5327 H   0  0  0  0  0  0  0  0  0  0  0  0
   -0.3222   -1.0965   -0.8218 H   0  0  0  0  0  0  0  0  0  0  0  0
  1  3  1  0  0  0  0
  1  2  1  0  0  0  0
  1  5  1  0  0  0  0
  2  6  1  0  0  0  0
  2  8  1  0  0  0  0
  4  1  1  0  0  0  0
  6 10  1  0  0  0  0
  7  2  1  0  0  0  0
  9  6  1  0  0  0  0
 11  6  1  0  0  0  0
 13  9  1  0  0  0  0
 14  9  1  0  0  0  0
M  RAD  2   9   2  12   2
M  END
$$$$
