butane_opt
 OpenBabel08242015403D

 14  9  0  0  0  0  0  0  0  0999 V2000
   -3.9583    0.2451    0.1452 C   0  0  0  0  0  0  0  0  0  0  0  0
   -2.7229   -0.6036   -0.1643 C   0  0  0  0  0  0  0  0  0  0  0  0
   -4.8876   -0.2922    0.0543 H   0  0  0  0  0  0  0  0  0  0  0  0
   -4.0981    0.2855   -0.4298 H   0  0  0  0  0  0  0  0  0  0  0  0
   -3.9725    1.4217    1.2613 H   0  0  0  0  0  0  0  0  0  0  0  0
   -1.4577    0.2397   -0.0738 C   0  0  0  0  0  0  0  0  0  0  0  0
   -2.6613   -1.4919   -1.0367 H   0  0  0  0  0  0  0  0  0  0  0  0
   -2.7484   -1.0521    0.6458 H   0  0  0  0  0  0  0  0  0  0  0  0
   -0.0671   -0.7024    0.1510 C   0  0  0  0  0  1  0  0  0  0  0  0
   -1.5548    0.6233    0.6356 H   0  0  0  0  0  0  0  0  0  0  0  0
   -1.2379    0.8202   -1.0671 H   0  0  0  0  0  0  0  0  0  0  0  0
   -0.0319   -2.1225    1.5602 H   0  0  0  0  0  0  0  0  0  0  0  0
    0.9152   -0.0734   -0.5216 H   0  0  0  0  0  0  0  0  0  0  0  0
   -0.2733   -0.6978   -0.2140 H   0  0  0  0  0  0  0  0  0  0  0  0
  2  6  1  0  0  0  0
  2  1  1  0  0  0  0
  2  8  1  0  0  0  0
  3  1  1  0  0  0  0
  6 10  1  0  0  0  0
  7  2  1  0  0  0  0
 11  6  1  0  0  0  0
 13  9  1  0  0  0  0
 14  6  1  0  0  0  0
M  RAD  4   1   3   4   2   5   2  12   2
M  END
$$$$
