14
butane_opt
C  -3.948893   0.248975   0.050983
C  -2.789193  -0.570017  -0.040118
H  -4.956169  -0.368783  -0.065106
H  -4.166713   0.592385  -0.755757
H  -3.776999   1.007956   1.027851
C  -1.361631   0.226223   0.035292
H  -2.853837  -1.441772  -1.147607
H  -2.943288  -1.010186   0.587161
C  -0.077843  -0.740121   0.094396
H  -1.314701   0.805576   0.758910
H  -1.703152   0.824057  -0.746036
H   0.428641  -1.886517   1.319788
H   0.630471  -0.261492  -0.832361
H  -0.231584  -0.705011  -0.292854
