butane_opt
 OpenBabel08242015403D

 14  9  0  0  0  0  0  0  0  0999 V2000
   -3.9246    0.3622    0.0764 C   0  0  0  0  0  0  0  0  0  0  0  0
   -2.6449   -0.7159   -0.0885 C   0  0  0  0  0  0  0  0  0  0  0  0
   -4.9177   -0.3263    0.0123 H   0  0  0  0  0  0  0  0  0  0  0  0
   -4.1772    0.8245   -0.6665 H   0  0  0  0  0  0  0  0  0  0  0  0
   -3.9603    1.1996    0.9899 H   0  0  0  0  0  0  0  0  0  0  0  0
   -1.4261    0.0730    0.0426 C   0  0  0  0  0  0  0  0  0  0  0  0
   -2.6679   -1.4853   -1.0379 H   0  0  0  0  0  0  0  0  0  0  0  0
   -2.8328   -1.1615    0.6913 H   0  0  0  0  0  0  0  0  0  0  0  0
   -0.1634   -0.6339    0.1020 C   0  0  0  0  0  1  0  0  0  0  0  0
   -1.3267    0.8230    0.9165 H   0  0  0  0  0  0  0  0  0  0  0  0
   -1.4545    0.8466   -1.0906 H   0  0  0  0  0  0  0  0  0  0  0  0
   -0.2026   -1.7774    1.3198 H   0  0  0  0  0  0  0  0  0  0  0  0
    0.8771    0.3127   -0.7606 H   0  0  0  0  0  0  0  0  0  0  0  0
   -0.4926   -0.7315   -0.4453 H   0  0  0  0  0  0  0  0  0  0  0  0
  1  5  1  0  0  0  0
  2  1  1  0  0  0  0
  2  8  1  0  0  0  0
  3  1  1  0  0  0  0
  4  1  1  0  0  0  0
  6 10  1  0  0  0  0
  7  2  1  0  0  0  0
 11  6  1  0  0  0  0
 14  9  1  0  0  0  0
M  RAD  4   2   2   6   3  12   2  13   2
M  END
$$$$
