14
butane_opt
C  -3.926819   0.351936   0.114676
C  -2.665058  -0.690766  -0.066566
H  -4.896966  -0.233427   0.126042
H  -4.047890   0.630339  -0.565618
H  -3.712850   1.144744   1.079607
C  -1.389877   0.130043  -0.126961
H  -2.648905  -1.116914  -0.760583
H  -2.715896  -1.402545   0.854110
C  -0.251371  -0.654782   0.107998
H  -1.340539   0.599683   0.613214
H  -1.405853   0.706330  -1.160104
H  -0.449080  -1.197627   1.060855
H   0.852453   0.266403   0.662428
H   0.053627  -1.473970  -0.773835
