butane_opt
 OpenBabel08242015403D

 14 12  0  0  0  0  0  0  0  0999 V2000
   -3.9963    0.2608   -0.1847 C   0  0  0  0  0  0  0  0  0  0  0  0
   -2.6864   -0.6380    0.3216 C   0  0  0  0  0  0  0  0  0  0  0  0
   -4.8972   -0.3788   -0.6204 H   0  0  0  0  0  0  0  0  0  0  0  0
   -3.5918    0.6862   -0.9644 H   0  0  0  0  0  0  0  0  0  0  0  0
   -4.3256    1.0142    0.7968 H   0  0  0  0  0  0  0  0  0  0  0  0
   -1.4015    0.2285    0.2149 C   0  0  0  0  0  0  0  0  0  0  0  0
   -2.5678   -1.0223   -0.2931 H   0  0  0  0  0  0  0  0  0  0  0  0
   -3.0915   -1.2630    1.2435 H   0  0  0  0  0  0  0  0  0  0  0  0
   -0.0806   -0.7120   -0.1914 C   0  0  0  0  0  0  0  0  0  0  0  0
   -1.3855    0.8083    0.8383 H   0  0  0  0  0  0  0  0  0  0  0  0
   -1.4362    0.9942   -0.8129 H   0  0  0  0  0  0  0  0  0  0  0  0
   -0.1697   -1.1109    0.4847 H   0  0  0  0  0  0  0  0  0  0  0  0
    0.7492   -0.1315    0.1280 H   0  0  0  0  0  0  0  0  0  0  0  0
   -0.3052   -1.7869   -1.2894 H   0  0  0  0  0  0  0  0  0  0  0  0
  1  2  1  0  0  0  0
  1  5  1  0  0  0  0
  2  8  1  0  0  0  0
  3  1  1  0  0  0  0
  4  1  1  0  0  0  0
  6  2  1  0  0  0  0
  6 10  1  0  0  0  0
  7  2  1  0  0  0  0
  9 13  1  0  0  0  0
  9  6  1  0  0  0  0
  9 12  1  0  0  0  0
 11  6  1  0  0  0  0
M  RAD  2   9   2  14   2
M  END
$$$$
