butane_opt
 OpenBabel08242015403D

 14 13  0  0  0  0  0  0  0  0999 V2000
   -3.9987    0.2073    0.1257 C   0  0  0  0  0  0  0  0  0  0  0  0
   -2.7335   -0.5748   -0.0338 C   0  0  0  0  0  0  0  0  0  0  0  0
   -4.8704   -0.3393    0.3865 H   0  0  0  0  0  0  0  0  0  0  0  0
   -4.1289    0.6316   -0.5953 H   0  0  0  0  0  0  0  0  0  0  0  0
   -3.8962    1.0245    1.1071 H   0  0  0  0  0  0  0  0  0  0  0  0
   -1.4337    0.2911   -0.2213 C   0  0  0  0  0  0  0  0  0  0  0  0
   -2.8949   -1.3368   -0.8857 H   0  0  0  0  0  0  0  0  0  0  0  0
   -2.6702   -1.0713    0.6813 H   0  0  0  0  0  0  0  0  0  0  0  0
   -0.0588   -0.7725    0.1494 C   0  0  0  0  0  0  0  0  0  0  0  0
   -1.5077    0.8453    0.5687 H   0  0  0  0  0  0  0  0  0  0  0  0
   -1.3039    0.8470   -1.0017 H   0  0  0  0  0  0  0  0  0  0  0  0
   -0.5716   -1.3769    1.0022 H   0  0  0  0  0  0  0  0  0  0  0  0
    0.9617    0.1091    0.7202 H   0  0  0  0  0  0  0  0  0  0  0  0
    0.5535   -1.6179   -0.7800 H   0  0  0  0  0  0  0  0  0  0  0  0
  1  3  1  0  0  0  0
  1  5  1  0  0  0  0
  2  1  1  0  0  0  0
  2  8  1  0  0  0  0
  4  1  1  0  0  0  0
  6  2  1  0  0  0  0
  6  9  1  0  0  0  0
  6 10  1  0  0  0  0
  7  2  1  0  0  0  0
  9 13  1  0  0  0  0
  9 12  1  0  0  0  0
 11  6  1  0  0  0  0
 14  9  1  0  0  0  0
M  END
$$$$
