14
butane_opt
C  -3.998737   0.207335   0.125727
C  -2.733478  -0.574760  -0.033756
H  -4.870440  -0.339308   0.386508
H  -4.128911   0.631581  -0.595341
H  -3.896175   1.024486   1.107109
C  -1.433734   0.291080  -0.221262
H  -2.894909  -1.336836  -0.885671
H  -2.670172  -1.071334   0.681349
C  -0.058793  -0.772451   0.149426
H  -1.507750   0.845266   0.568726
H  -1.303925   0.847046  -1.001744
H  -0.571554  -1.376852   1.002247
H   0.961661   0.109101   0.720232
H   0.553510  -1.617944  -0.780024
