14
butane_opt
C  -3.964375   0.245470   0.136804
C  -2.733573  -0.634344  -0.126081
H  -4.981117  -0.460605   0.600031
H  -4.321293   0.934133  -0.793601
H  -3.702718   0.710882   0.897879
C  -1.359505   0.311750  -0.095970
H  -3.039177  -1.242771  -1.079805
H  -2.638928  -1.046029   0.637714
C  -0.148787  -0.752228   0.104814
H  -1.227910   1.051142   0.699865
H  -1.390530   0.904735  -0.976810
H  -0.250171  -1.714866   1.313155
H   0.749642  -0.339867   0.535109
H   0.288033  -1.359323  -0.595245
