14
butane_opt
C  -3.839273   0.253939   0.099732
C  -2.755022  -0.616608  -0.017575
H  -4.990280  -0.585680   0.170655
H  -3.929526   0.697295  -0.643490
H  -3.717831   0.910558   1.014787
C  -1.436231   0.269013  -0.139148
H  -2.848728  -1.339275  -0.927268
H  -2.386571  -0.835378   0.776849
C  -0.204990  -0.747570   0.150628
H  -1.404120   0.723577   0.539213
H  -1.418438   1.070964  -1.151783
H  -0.393770  -1.170250   1.066867
H   0.599344  -0.227461   0.367869
H   0.320095  -1.710045  -0.941728
