14
butane_opt
C  -4.000117   0.228398  -0.153587
C  -2.749944  -0.611049   0.232042
H  -4.909350  -0.192275  -0.323585
H  -3.642966   1.029065  -1.292217
H  -4.254070   0.835523   0.503074
C  -1.381079   0.204231   0.248175
H  -2.575883  -1.277068  -0.603892
H  -2.696848  -1.235987   1.025184
C  -0.101044  -0.686576  -0.142799
H  -1.104875   1.077684   1.212297
H  -1.710192   0.513987  -0.464691
H   0.614432  -1.415158   0.806008
H   0.571995  -0.398199  -0.695696
H  -0.526709  -1.030008  -0.889500
