14
butane_opt
C  -3.911359   0.370822   0.196069
C  -2.645740  -0.682650  -0.253242
H  -4.821907  -0.235730   0.892417
H  -4.385197   1.028756  -0.728411
H  -3.561360   0.729163   1.007388
C  -1.392709   0.095711  -0.158476
H  -2.808212  -1.432780  -1.314571
H  -2.756945  -1.358777   0.704740
C  -0.243222  -0.661729   0.237982
H  -1.589687   0.850132   0.760003
H  -1.138556   0.685546  -1.051078
H  -0.285403  -1.250928   1.277158
H   0.937266   0.213563   0.048023
H  -0.345855  -1.102044  -0.415756
