14
butane_opt
C  -3.880762   0.245731   0.039752
C  -2.741726  -0.601028  -0.025866
H  -4.703964  -0.282300   0.516574
H  -4.072933   1.254327  -1.122425
H  -3.340502   0.460193   0.692400
C  -1.448140   0.239517   0.025414
H  -2.822773  -1.173921  -0.977318
H  -2.599612  -1.292125   0.878905
C  -0.190447  -0.744490   0.022798
H  -1.340260   0.944914   0.969419
H  -1.467892   0.768544  -0.784754
H  -0.406711  -1.244260   1.054117
H   0.784782   0.001031   0.285694
H   0.047599  -1.565969  -0.899031
