14
butane_opt
C  -4.026361   0.328917   0.080154
C  -2.704483  -0.653780  -0.137339
H  -4.969165  -0.102285   1.068865
H  -4.645817   1.231413  -0.931031
H  -3.831935   0.711276   0.846827
C  -1.312687   0.107276  -0.077757
H  -2.795041  -1.600826  -1.210063
H  -2.477468  -1.336389   0.780168
C  -0.161077  -0.654532   0.125326
H  -1.214113   0.929616   0.929383
H  -1.062878   0.585449  -0.725308
H  -0.380484  -1.354032   1.184181
H   0.854892   0.079593   0.126000
H  -0.030320  -1.116637  -0.534932
