14
butane_opt
C  -3.927590   0.305626   0.141855
C  -2.652682  -0.644622  -0.027777
H  -4.684835  -0.069107  -0.364610
H  -3.907892   0.581926  -0.604347
H  -3.878508   1.257250   1.308922
C  -1.405257   0.088695  -0.130575
H  -3.016543  -1.480384  -1.068443
H  -2.608490  -1.213969   0.694026
C  -0.229732  -0.606490   0.105198
H  -1.361549   0.619087   0.607151
H  -1.418330   1.015208  -1.137473
H  -0.544890  -1.573195   1.325786
H   0.803304  -0.008434   0.207228
H   0.101293  -1.272676  -0.567080
