butane_opt
 OpenBabel08242015403D

 14 13  0  0  0  0  0  0  0  0999 V2000
   -3.9546    0.2758    0.0375 C   0  0  0  0  0  0  0  0  0  0  0  0
   -2.7065   -0.6262    0.0331 C   0  0  0  0  0  0  0  0  0  0  0  0
   -4.8451   -0.3242   -0.0987 H   0  0  0  0  0  0  0  0  0  0  0  0
   -3.9643    0.7577   -0.7658 H   0  0  0  0  0  0  0  0  0  0  0  0
   -4.0038    1.0559    0.9863 H   0  0  0  0  0  0  0  0  0  0  0  0
   -1.3884    0.1817   -0.0314 C   0  0  0  0  0  0  0  0  0  0  0  0
   -2.7237   -1.2946   -0.8263 H   0  0  0  0  0  0  0  0  0  0  0  0
   -2.7278   -1.2310    0.9104 H   0  0  0  0  0  0  0  0  0  0  0  0
   -0.1588   -0.6955    0.0509 C   0  0  0  0  0  0  0  0  0  0  0  0
   -1.3811    0.8535    0.8342 H   0  0  0  0  0  0  0  0  0  0  0  0
   -1.4192    0.8081   -0.9119 H   0  0  0  0  0  0  0  0  0  0  0  0
   -0.1790   -1.3788    1.0085 H   0  0  0  0  0  0  0  0  0  0  0  0
    0.8092   -0.0501    0.0190 H   0  0  0  0  0  0  0  0  0  0  0  0
   -0.0981   -1.2922   -0.7791 H   0  0  0  0  0  0  0  0  0  0  0  0
  1  5  1  0  0  0  0
  2  1  1  0  0  0  0
  2  8  1  0  0  0  0
  3  1  1  0  0  0  0
  4  1  1  0  0  0  0
  6  2  1  0  0  0  0
  6  9  1  0  0  0  0
  6 10  1  0  0  0  0
  7  2  1  0  0  0  0
  9 12  1  0  0  0  0
 11  6  1  0  0  0  0
 13  9  1  0  0  0  0
 14  9  1  0  0  0  0
M  END
$$$$
