14
butane_opt
C  -3.977629   0.231568   0.205478
C  -2.711822  -0.559752  -0.254391
H  -4.865592  -0.542307   0.902584
H  -4.284395   1.115444  -0.785054
H  -3.248700   0.578350   0.937719
C  -1.455898   0.243154  -0.144223
H  -3.076643  -1.382615  -1.300951
H  -2.799633  -1.186023   0.661598
C  -0.069812  -0.743954   0.216349
H  -1.525169   0.931320   0.679373
H  -1.544624   0.941455  -0.912657
H  -0.389082  -1.576585   1.236376
H   0.849774  -0.128143   0.253606
H   0.419185  -1.251743  -0.531972
