butane_opt
 OpenBabel08242015403D

 14 13  0  0  0  0  0  0  0  0999 V2000
   -3.9590    0.2117   -0.1632 C   0  0  0  0  0  0  0  0  0  0  0  0
   -2.7171   -0.5466    0.1866 C   0  0  0  0  0  0  0  0  0  0  0  0
   -4.9537   -0.3586   -0.0741 H   0  0  0  0  0  0  0  0  0  0  0  0
   -3.6222    0.8426   -1.0752 H   0  0  0  0  0  0  0  0  0  0  0  0
   -4.3451    0.6048    0.4276 H   0  0  0  0  0  0  0  0  0  0  0  0
   -1.3998    0.2399    0.2549 C   0  0  0  0  0  0  0  0  0  0  0  0
   -2.7515   -1.4177   -0.7088 H   0  0  0  0  0  0  0  0  0  0  0  0
   -2.7786   -1.1188    1.0954 H   0  0  0  0  0  0  0  0  0  0  0  0
   -0.0684   -0.7367   -0.1013 C   0  0  0  0  0  0  0  0  0  0  0  0
   -1.3854    1.2092    1.1927 H   0  0  0  0  0  0  0  0  0  0  0  0
   -1.8455    0.8377   -0.4977 H   0  0  0  0  0  0  0  0  0  0  0  0
    0.4217   -1.6666    0.8591 H   0  0  0  0  0  0  0  0  0  0  0  0
    0.7622   -0.1982   -0.9460 H   0  0  0  0  0  0  0  0  0  0  0  0
   -0.7569   -1.2549   -0.9277 H   0  0  0  0  0  0  0  0  0  0  0  0
  1  3  1  0  0  0  0
  1  2  1  0  0  0  0
  1  5  1  0  0  0  0
  2  6  1  0  0  0  0
  2  8  1  0  0  0  0
  4  1  1  0  0  0  0
  6 10  1  0  0  0  0
  7  2  1  0  0  0  0
  9  6  1  0  0  0  0
  9 12  1  0  0  0  0
 11  6  1  0  0  0  0
 13  9  1  0  0  0  0
 14  9  1  0  0  0  0
M  END
$$$$
