butane_opt
 OpenBabel08242015403D

 14 13  0  0  0  0  0  0  0  0999 V2000
   -3.8595    0.2539    0.1954 C   0  0  0  0  0  0  0  0  0  0  0  0
   -2.7085   -0.6156   -0.1316 C   0  0  0  0  0  0  0  0  0  0  0  0
   -4.9920   -0.4731    0.1647 H   0  0  0  0  0  0  0  0  0  0  0  0
   -3.8893    0.5099   -0.4015 H   0  0  0  0  0  0  0  0  0  0  0  0
   -3.9453    1.1015    1.1095 H   0  0  0  0  0  0  0  0  0  0  0  0
   -1.4380    0.2218   -0.2315 C   0  0  0  0  0  0  0  0  0  0  0  0
   -2.7532   -1.2353   -0.9688 H   0  0  0  0  0  0  0  0  0  0  0  0
   -2.3568   -1.1120    0.6292 H   0  0  0  0  0  0  0  0  0  0  0  0
   -0.1995   -0.7216    0.1689 C   0  0  0  0  0  0  0  0  0  0  0  0
   -1.7328    1.0009    0.7396 H   0  0  0  0  0  0  0  0  0  0  0  0
   -1.1863    0.9095   -1.0482 H   0  0  0  0  0  0  0  0  0  0  0  0
   -0.4373   -1.5684    1.2885 H   0  0  0  0  0  0  0  0  0  0  0  0
    0.6371   -0.1727    0.3180 H   0  0  0  0  0  0  0  0  0  0  0  0
    0.1327   -1.1627   -0.3742 H   0  0  0  0  0  0  0  0  0  0  0  0
  1  5  1  0  0  0  0
  2  1  1  0  0  0  0
  2  8  1  0  0  0  0
  3  1  1  0  0  0  0
  4  1  1  0  0  0  0
  6  2  1  0  0  0  0
  6  9  1  0  0  0  0
  6 10  1  0  0  0  0
  7  2  1  0  0  0  0
  9 13  1  0  0  0  0
  9 12  1  0  0  0  0
 11  6  1  0  0  0  0
 14  9  1  0  0  0  0
M  END
$$$$
