butane_opt
 OpenBabel08242015403D

 14 12  0  0  0  0  0  0  0  0999 V2000
   -3.8393    0.2539    0.0997 C   0  0  0  0  0  0  0  0  0  0  0  0
   -2.7550   -0.6166   -0.0176 C   0  0  0  0  0  0  0  0  0  0  0  0
   -4.9903   -0.5857    0.1707 H   0  0  0  0  0  0  0  0  0  0  0  0
   -3.9295    0.6973   -0.6435 H   0  0  0  0  0  0  0  0  0  0  0  0
   -3.7178    0.9106    1.0148 H   0  0  0  0  0  0  0  0  0  0  0  0
   -1.4362    0.2690   -0.1391 C   0  0  0  0  0  0  0  0  0  0  0  0
   -2.8487   -1.3393   -0.9273 H   0  0  0  0  0  0  0  0  0  0  0  0
   -2.3866   -0.8354    0.7768 H   0  0  0  0  0  0  0  0  0  0  0  0
   -0.2050   -0.7476    0.1506 C   0  0  0  0  0  0  0  0  0  0  0  0
   -1.4041    0.7236    0.5392 H   0  0  0  0  0  0  0  0  0  0  0  0
   -1.4184    1.0710   -1.1518 H   0  0  0  0  0  0  0  0  0  0  0  0
   -0.3938   -1.1703    1.0669 H   0  0  0  0  0  0  0  0  0  0  0  0
    0.5993   -0.2275    0.3679 H   0  0  0  0  0  0  0  0  0  0  0  0
    0.3201   -1.7100   -0.9417 H   0  0  0  0  0  0  0  0  0  0  0  0
  1  3  1  0  0  0  0
  1  5  1  0  0  0  0
  2  1  1  0  0  0  0
  2  8  1  0  0  0  0
  4  1  1  0  0  0  0
  6  2  1  0  0  0  0
  6  9  1  0  0  0  0
  6 10  1  0  0  0  0
  7  2  1  0  0  0  0
  9 13  1  0  0  0  0
  9 12  1  0  0  0  0
 11  6  1  0  0  0  0
M  RAD  2   9   2  14   2
M  END
$$$$
