butane_opt
 OpenBabel08242015403D

 14 13  0  0  0  0  0  0  0  0999 V2000
   -4.0122    0.2970    0.0313 C   0  0  0  0  0  0  0  0  0  0  0  0
   -2.6766   -0.6230    0.0392 C   0  0  0  0  0  0  0  0  0  0  0  0
   -4.9464   -0.2077   -0.0611 H   0  0  0  0  0  0  0  0  0  0  0  0
   -4.3028    0.8254   -0.8349 H   0  0  0  0  0  0  0  0  0  0  0  0
   -3.7721    1.1654    1.1325 H   0  0  0  0  0  0  0  0  0  0  0  0
   -1.3130    0.1112   -0.0857 C   0  0  0  0  0  0  0  0  0  0  0  0
   -2.8871   -1.3021   -0.7790 H   0  0  0  0  0  0  0  0  0  0  0  0
   -2.5672   -1.4263    1.0910 H   0  0  0  0  0  0  0  0  0  0  0  0
   -0.1879   -0.6425    0.0645 C   0  0  0  0  0  0  0  0  0  0  0  0
   -1.3308    0.7774    0.8026 H   0  0  0  0  0  0  0  0  0  0  0  0
   -1.4425    0.6426   -0.9871 H   0  0  0  0  0  0  0  0  0  0  0  0
   -0.4327   -1.2100    0.9431 H   0  0  0  0  0  0  0  0  0  0  0  0
    0.7339    0.0670    0.4828 H   0  0  0  0  0  0  0  0  0  0  0  0
    0.1690   -1.4948   -0.9771 H   0  0  0  0  0  0  0  0  0  0  0  0
  1  2  1  0  0  0  0
  1  5  1  0  0  0  0
  2  8  1  0  0  0  0
  3  1  1  0  0  0  0
  4  1  1  0  0  0  0
  6  2  1  0  0  0  0
  6  9  1  0  0  0  0
  6 10  1  0  0  0  0
  7  2  1  0  0  0  0
  9 13  1  0  0  0  0
  9 12  1  0  0  0  0
 11  6  1  0  0  0  0
 14  9  1  0  0  0  0
M  END
$$$$
