butane_opt
 OpenBabel08242015403D

 14 13  0  0  0  0  0  0  0  0999 V2000
   -3.9838    0.3321   -0.1869 C   0  0  0  0  0  0  0  0  0  0  0  0
   -2.6834   -0.6280    0.2335 C   0  0  0  0  0  0  0  0  0  0  0  0
   -4.8672   -0.1894   -0.1798 H   0  0  0  0  0  0  0  0  0  0  0  0
   -3.6302    0.9084   -1.1814 H   0  0  0  0  0  0  0  0  0  0  0  0
   -4.3273    0.8035    0.6097 H   0  0  0  0  0  0  0  0  0  0  0  0
   -1.3468    0.0593    0.2664 C   0  0  0  0  0  0  0  0  0  0  0  0
   -2.2608   -1.2875   -0.6970 H   0  0  0  0  0  0  0  0  0  0  0  0
   -2.7725   -1.3347    1.1924 H   0  0  0  0  0  0  0  0  0  0  0  0
   -0.2491   -0.6396   -0.1507 C   0  0  0  0  0  0  0  0  0  0  0  0
   -1.1715    0.9838    1.3624 H   0  0  0  0  0  0  0  0  0  0  0  0
   -1.2372    0.6766   -0.6103 H   0  0  0  0  0  0  0  0  0  0  0  0
    0.3213   -1.3196    0.7590 H   0  0  0  0  0  0  0  0  0  0  0  0
    0.8786    0.0434   -0.8358 H   0  0  0  0  0  0  0  0  0  0  0  0
   -0.8266   -1.2055   -0.9042 H   0  0  0  0  0  0  0  0  0  0  0  0
  1  3  1  0  0  0  0
  1  2  1  0  0  0  0
  1  5  1  0  0  0  0
  2  6  1  0  0  0  0
  2  8  1  0  0  0  0
  4  1  1  0  0  0  0
  6 10  1  0  0  0  0
  7  2  1  0  0  0  0
  9  6  1  0  0  0  0
  9 12  1  0  0  0  0
 11  6  1  0  0  0  0
 13  9  1  0  0  0  0
 14  9  1  0  0  0  0
M  END
$$$$
