14
butane_opt
C  -3.878020   0.200619   0.047737
C  -2.677326  -0.527485   0.045872
H  -4.643114  -0.360418  -0.509444
H  -3.577532   0.133505  -0.432649
H  -3.905710   1.464111   1.132969
C  -1.488201   0.210637   0.006009
H  -2.794872  -1.358823  -0.876073
H  -3.032461  -1.138396   0.863172
C  -0.161895  -0.727588   0.027371
H  -1.655773   0.655081   0.554494
H  -1.457302   1.183607  -1.173648
H   0.053546  -1.718603   1.229567
H   0.621001  -0.176584  -0.105780
H  -0.199665  -1.037337  -0.632402
