butane_opt
 OpenBabel08242015403D

 14 12  0  0  0  0  0  0  0  0999 V2000
   -3.9911    0.2213    0.1129 C   0  0  0  0  0  0  0  0  0  0  0  0
   -2.7265   -0.5410   -0.1525 C   0  0  0  0  0  0  0  0  0  0  0  0
   -4.8362   -0.4135    0.2886 H   0  0  0  0  0  0  0  0  0  0  0  0
   -4.1121    0.7549   -0.7241 H   0  0  0  0  0  0  0  0  0  0  0  0
   -3.9494    0.8286    1.0796 H   0  0  0  0  0  0  0  0  0  0  0  0
   -1.4437    0.2577   -0.0066 C   0  0  0  0  0  0  0  0  0  0  0  0
   -3.0093   -1.5623   -1.1850 H   0  0  0  0  0  0  0  0  0  0  0  0
   -2.6563   -1.2217    0.8278 H   0  0  0  0  0  0  0  0  0  0  0  0
   -0.0668   -0.7658    0.1267 C   0  0  0  0  0  0  0  0  0  0  0  0
   -1.5425    0.8239    0.6783 H   0  0  0  0  0  0  0  0  0  0  0  0
   -1.2009    1.0126   -0.9490 H   0  0  0  0  0  0  0  0  0  0  0  0
    0.2563   -1.6919    1.2602 H   0  0  0  0  0  0  0  0  0  0  0  0
    0.9205   -0.1825   -0.3288 H   0  0  0  0  0  0  0  0  0  0  0  0
   -0.1355   -0.8473   -0.4344 H   0  0  0  0  0  0  0  0  0  0  0  0
  1  3  1  0  0  0  0
  1  5  1  0  0  0  0
  2  6  1  0  0  0  0
  2  1  1  0  0  0  0
  2  8  1  0  0  0  0
  4  1  1  0  0  0  0
  6  9  1  0  0  0  0
  6 10  1  0  0  0  0
  7  2  1  0  0  0  0
  9 12  1  0  0  0  0
 11  6  1  0  0  0  0
 13  9  1  0  0  0  0
M  RAD  2   9   2  14   2
M  END
$$$$
