butane_opt
 OpenBabel08242015403D

 14 10  0  0  0  0  0  0  0  0999 V2000
   -4.0555    0.3091    0.1524 C   0  0  0  0  0  0  0  0  0  0  0  0
   -2.6376   -0.7397   -0.1346 C   0  0  0  0  0  0  0  0  0  0  0  0
   -4.7765   -0.0531   -0.0778 H   0  0  0  0  0  0  0  0  0  0  0  0
   -3.9744    0.4696   -0.3236 H   0  0  0  0  0  0  0  0  0  0  0  0
   -4.0321    1.5159    1.3282 H   0  0  0  0  0  0  0  0  0  0  0  0
   -1.3413    0.1951   -0.1602 C   0  0  0  0  0  0  0  0  0  0  0  0
   -2.8564   -1.1921   -0.8955 H   0  0  0  0  0  0  0  0  0  0  0  0
   -2.7278   -1.3679    0.8011 H   0  0  0  0  0  0  0  0  0  0  0  0
   -0.1816   -0.6403    0.1805 C   0  0  0  0  0  0  0  0  0  0  0  0
   -1.6324    0.7136    0.5279 H   0  0  0  0  0  0  0  0  0  0  0  0
   -0.9191    0.8473   -0.9314 H   0  0  0  0  0  0  0  0  0  0  0  0
   -0.2514   -1.7087    1.3190 H   0  0  0  0  0  0  0  0  0  0  0  0
    0.7617   -0.0297   -0.1318 H   0  0  0  0  0  0  0  0  0  0  0  0
   -0.0671   -1.1496   -0.5818 H   0  0  0  0  0  0  0  0  0  0  0  0
  2  1  1  0  0  0  0
  2  8  1  0  0  0  0
  3  1  1  0  0  0  0
  6  2  1  0  0  0  0
  6  9  1  0  0  0  0
  6 10  1  0  0  0  0
  7  2  1  0  0  0  0
 11  6  1  0  0  0  0
 13  9  1  0  0  0  0
 14  9  1  0  0  0  0
M  RAD  5   1   3   4   2   5   2   9   2  12   2
M  END
$$$$
