14
butane_opt
C  -3.905400   0.308963   0.194082
C  -2.606711  -0.682380  -0.070652
H  -4.960328  -0.373126  -0.063878
H  -4.179879   0.913898  -0.688479
H  -3.995894   1.173862   1.233076
C  -1.389651   0.118204  -0.160765
H  -2.572012  -1.515368  -1.058793
H  -2.677920  -1.028255   0.608912
C  -0.234152  -0.647756   0.175489
H  -1.580587   0.528574   0.354504
H  -1.518722   1.051562  -1.329472
H  -0.768661  -1.164232   0.904905
H   0.899837   0.116154   0.479728
H  -0.014032  -1.337085  -0.635126
