butane_opt
 OpenBabel08242015403D

 14  9  0  0  0  0  0  0  0  0999 V2000
   -3.8780    0.2006    0.0477 C   0  0  0  0  0  1  0  0  0  0  0  0
   -2.6773   -0.5275    0.0459 C   0  0  0  0  0  0  0  0  0  0  0  0
   -4.6431   -0.3604   -0.5094 H   0  0  0  0  0  0  0  0  0  0  0  0
   -3.5775    0.1335   -0.4326 H   0  0  0  0  0  0  0  0  0  0  0  0
   -3.9057    1.4641    1.1330 H   0  0  0  0  0  0  0  0  0  0  0  0
   -1.4882    0.2106    0.0060 C   0  0  0  0  0  0  0  0  0  0  0  0
   -2.7949   -1.3588   -0.8761 H   0  0  0  0  0  0  0  0  0  0  0  0
   -3.0325   -1.1384    0.8632 H   0  0  0  0  0  0  0  0  0  0  0  0
   -0.1619   -0.7276    0.0274 C   0  0  0  0  0  0  0  0  0  0  0  0
   -1.6558    0.6551    0.5545 H   0  0  0  0  0  0  0  0  0  0  0  0
   -1.4573    1.1836   -1.1736 H   0  0  0  0  0  0  0  0  0  0  0  0
    0.0535   -1.7186    1.2296 H   0  0  0  0  0  0  0  0  0  0  0  0
    0.6210   -0.1766   -0.1058 H   0  0  0  0  0  0  0  0  0  0  0  0
   -0.1997   -1.0373   -0.6324 H   0  0  0  0  0  0  0  0  0  0  0  0
  2  8  1  0  0  0  0
  3  1  1  0  0  0  0
  4  2  1  0  0  0  0
  6  9  1  0  0  0  0
  6  2  1  0  0  0  0
  6 10  1  0  0  0  0
  7  2  1  0  0  0  0
 13  9  1  0  0  0  0
 14  9  1  0  0  0  0
M  RAD  5   5   2   6   2   9   2  11   2  12   2
M  END
$$$$
