butane_opt
 OpenBabel08242015403D

 14 11  0  0  0  0  0  0  0  0999 V2000
   -4.0581    0.2060   -0.1170 C   0  0  0  0  0  0  0  0  0  0  0  0
   -2.6829   -0.5387    0.1009 C   0  0  0  0  0  0  0  0  0  0  0  0
   -4.9628   -0.5612    0.5825 H   0  0  0  0  0  0  0  0  0  0  0  0
   -4.1972    1.5379   -1.5125 H   0  0  0  0  0  0  0  0  0  0  0  0
   -3.4418    0.1531    0.2941 H   0  0  0  0  0  0  0  0  0  0  0  0
   -1.3887    0.2557    0.2381 C   0  0  0  0  0  0  0  0  0  0  0  0
   -2.5168   -1.1191   -0.4899 H   0  0  0  0  0  0  0  0  0  0  0  0
   -3.0129   -1.2536    1.0890 H   0  0  0  0  0  0  0  0  0  0  0  0
   -0.0881   -0.7506   -0.1568 C   0  0  0  0  0  0  0  0  0  0  0  0
   -1.4361    1.1532    1.2538 H   0  0  0  0  0  0  0  0  0  0  0  0
   -1.4984    0.4926   -0.3779 H   0  0  0  0  0  0  0  0  0  0  0  0
    0.0063   -1.1195    0.6663 H   0  0  0  0  0  0  0  0  0  0  0  0
    0.6655   -0.3607   -0.0128 H   0  0  0  0  0  0  0  0  0  0  0  0
    0.0058   -1.4451   -0.9481 H   0  0  0  0  0  0  0  0  0  0  0  0
  1  5  1  0  0  0  0
  1  3  1  0  0  0  0
  2  6  1  0  0  0  0
  2  8  1  0  0  0  0
  6 10  1  0  0  0  0
  7  2  1  0  0  0  0
  9 13  1  0  0  0  0
  9  6  1  0  0  0  0
  9 12  1  0  0  0  0
 11  6  1  0  0  0  0
 14  9  1  0  0  0  0
M  RAD  3   1   3   2   2   4   2
M  END
$$$$
