butane_opt
 OpenBabel08242015403D

 14 13  0  0  0  0  0  0  0  0999 V2000
   -3.9745    0.2982    0.0826 C   0  0  0  0  0  0  0  0  0  0  0  0
   -2.7053   -0.6857   -0.1056 C   0  0  0  0  0  0  0  0  0  0  0  0
   -4.7026   -0.1355    0.6263 H   0  0  0  0  0  0  0  0  0  0  0  0
   -4.5346    1.0878   -0.8568 H   0  0  0  0  0  0  0  0  0  0  0  0
   -3.5923    0.8844    0.9379 H   0  0  0  0  0  0  0  0  0  0  0  0
   -1.3494    0.1813   -0.0552 C   0  0  0  0  0  0  0  0  0  0  0  0
   -2.9463   -1.3725   -1.0341 H   0  0  0  0  0  0  0  0  0  0  0  0
   -2.6917   -1.3719    0.8224 H   0  0  0  0  0  0  0  0  0  0  0  0
   -0.1736   -0.6795    0.1185 C   0  0  0  0  0  0  0  0  0  0  0  0
   -1.4320    0.9373    0.8479 H   0  0  0  0  0  0  0  0  0  0  0  0
   -1.4370    0.7956   -1.0458 H   0  0  0  0  0  0  0  0  0  0  0  0
   -0.3831   -1.3483    1.2591 H   0  0  0  0  0  0  0  0  0  0  0  0
    0.9048    0.1167    0.2110 H   0  0  0  0  0  0  0  0  0  0  0  0
    0.1602   -1.3899   -0.8422 H   0  0  0  0  0  0  0  0  0  0  0  0
  1  3  1  0  0  0  0
  1  5  1  0  0  0  0
  2  6  1  0  0  0  0
  2  1  1  0  0  0  0
  2  8  1  0  0  0  0
  4  1  1  0  0  0  0
  6  9  1  0  0  0  0
  6 10  1  0  0  0  0
  7  2  1  0  0  0  0
  9 13  1  0  0  0  0
  9 12  1  0  0  0  0
 11  6  1  0  0  0  0
 14  9  1  0  0  0  0
M  END
$$$$
