butane_opt
 OpenBabel08242015403D

 14 13  0  0  0  0  0  0  0  0999 V2000
   -3.9898    0.2429    0.1672 C   0  0  0  0  0  0  0  0  0  0  0  0
   -2.7351   -0.6300   -0.0626 C   0  0  0  0  0  0  0  0  0  0  0  0
   -4.8503   -0.3119    0.0823 H   0  0  0  0  0  0  0  0  0  0  0  0
   -3.9831    0.6724   -0.5243 H   0  0  0  0  0  0  0  0  0  0  0  0
   -3.8041    1.0625    1.2657 H   0  0  0  0  0  0  0  0  0  0  0  0
   -1.4317    0.2141   -0.2327 C   0  0  0  0  0  0  0  0  0  0  0  0
   -3.0048   -1.4024   -1.0177 H   0  0  0  0  0  0  0  0  0  0  0  0
   -2.6840   -0.8177    0.6017 H   0  0  0  0  0  0  0  0  0  0  0  0
   -0.0397   -0.7112    0.2097 C   0  0  0  0  0  0  0  0  0  0  0  0
   -1.4178    0.5804    0.4625 H   0  0  0  0  0  0  0  0  0  0  0  0
   -1.6243    1.1703   -1.2703 H   0  0  0  0  0  0  0  0  0  0  0  0
   -0.4617   -1.1739    1.0286 H   0  0  0  0  0  0  0  0  0  0  0  0
    0.7464   -0.0870    0.5622 H   0  0  0  0  0  0  0  0  0  0  0  0
    0.3933   -1.5844   -0.7249 H   0  0  0  0  0  0  0  0  0  0  0  0
  1  5  1  0  0  0  0
  2  1  1  0  0  0  0
  2  8  1  0  0  0  0
  3  1  1  0  0  0  0
  4  1  1  0  0  0  0
  6  2  1  0  0  0  0
  6  9  1  0  0  0  0
  6 10  1  0  0  0  0
  7  2  1  0  0  0  0
  9 13  1  0  0  0  0
  9 12  1  0  0  0  0
 11  6  1  0  0  0  0
 14  9  1  0  0  0  0
M  END
$$$$
