14
butane_opt
C  -3.978602   0.315542   0.207583
C  -2.737597  -0.701612  -0.086638
H  -4.682848  -0.161205   0.196291
H  -4.331076   0.959734  -0.773824
H  -3.946216   1.025879   1.106931
C  -1.325636   0.176014  -0.251285
H  -2.850603  -1.586682  -1.064730
H  -2.428230  -1.210532   0.844788
C  -0.171835  -0.696185   0.191688
H  -1.529313   0.901855   0.611688
H  -1.083553   0.887510  -1.266416
H  -0.727451  -1.016835   0.816786
H   0.832324   0.080388   0.792894
H   0.294544  -1.450665  -0.615950
