14
butane_opt
C  -3.958293   0.245052   0.145215
C  -2.722938  -0.603609  -0.164294
H  -4.887551  -0.292181   0.054281
H  -4.098120   0.285496  -0.429844
H  -3.972544   1.421699   1.261264
C  -1.457678   0.239691  -0.073758
H  -2.661252  -1.491853  -1.036723
H  -2.748383  -1.052085   0.645762
C  -0.067096  -0.702396   0.150953
H  -1.554846   0.623306   0.635615
H  -1.237924   0.820171  -1.067127
H  -0.031914  -2.122491   1.560196
H   0.915176  -0.073365  -0.521613
H  -0.273324  -0.697836  -0.213962
