butane_opt
 OpenBabel08242015403D

 14 12  0  0  0  0  0  0  0  0999 V2000
   -3.9437    0.1721    0.0476 C   0  0  0  0  0  0  0  0  0  0  0  0
   -2.7367   -0.5347    0.0767 C   0  0  0  0  0  0  0  0  0  0  0  0
   -4.8553   -0.4842   -0.5225 H   0  0  0  0  0  0  0  0  0  0  0  0
   -3.7889    0.4111   -0.7027 H   0  0  0  0  0  0  0  0  0  0  0  0
   -4.1894    1.4555    1.1597 H   0  0  0  0  0  0  0  0  0  0  0  0
   -1.4162    0.2589   -0.1089 C   0  0  0  0  0  0  0  0  0  0  0  0
   -2.8475   -1.0799   -0.7055 H   0  0  0  0  0  0  0  0  0  0  0  0
   -2.6788   -1.2312    1.1261 H   0  0  0  0  0  0  0  0  0  0  0  0
   -0.0722   -0.7628    0.0465 C   0  0  0  0  0  0  0  0  0  0  0  0
   -1.3318    0.9426    0.7337 H   0  0  0  0  0  0  0  0  0  0  0  0
   -1.7829    0.7891   -0.8517 H   0  0  0  0  0  0  0  0  0  0  0  0
   -0.1456   -1.4283    1.0074 H   0  0  0  0  0  0  0  0  0  0  0  0
    0.7214   -0.1768    0.2976 H   0  0  0  0  0  0  0  0  0  0  0  0
   -0.0315   -1.3248   -0.7651 H   0  0  0  0  0  0  0  0  0  0  0  0
  1  2  1  0  0  0  0
  2  8  1  0  0  0  0
  3  1  1  0  0  0  0
  4  1  1  0  0  0  0
  6  9  1  0  0  0  0
  6  2  1  0  0  0  0
  6 10  1  0  0  0  0
  7  2  1  0  0  0  0
  9 13  1  0  0  0  0
  9 12  1  0  0  0  0
 11  6  1  0  0  0  0
 14  9  1  0  0  0  0
M  RAD  2   1   2   5   2
M  END
$$$$
