14
butane_opt
C  -3.946128   0.199234  -0.068327
C  -2.764571  -0.524558   0.029933
H  -4.816219  -0.460595   0.854976
H  -4.249076   1.616819  -1.490614
H  -3.678293   0.174149   0.422104
C  -1.408560   0.205374   0.157013
H  -2.904464  -1.134915  -0.758304
H  -2.875686  -1.040904   1.043661
C  -0.075450  -0.758001  -0.014896
H  -1.293596   1.067729   1.177957
H  -1.405759   0.909220  -0.752057
H   0.194849  -1.058575   0.706083
H   0.884342  -0.209762   0.165699
H  -0.501098  -1.820052  -1.269438
