butane_opt
 OpenBabel08242015403D

 14 13  0  0  0  0  0  0  0  0999 V2000
   -3.9322    0.2524    0.0487 C   0  0  0  0  0  0  0  0  0  0  0  0
   -2.7160   -0.6151   -0.0034 C   0  0  0  0  0  0  0  0  0  0  0  0
   -4.8846   -0.3617    0.1518 H   0  0  0  0  0  0  0  0  0  0  0  0
   -4.0391    0.9415   -0.8823 H   0  0  0  0  0  0  0  0  0  0  0  0
   -3.9112    0.8966    0.8852 H   0  0  0  0  0  0  0  0  0  0  0  0
   -1.4120    0.2115   -0.0080 C   0  0  0  0  0  0  0  0  0  0  0  0
   -2.7661   -1.2884   -0.8675 H   0  0  0  0  0  0  0  0  0  0  0  0
   -2.6760   -1.2235    0.8639 H   0  0  0  0  0  0  0  0  0  0  0  0
   -0.1431   -0.7093    0.0674 C   0  0  0  0  0  0  0  0  0  0  0  0
   -1.4500    0.8287    0.7917 H   0  0  0  0  0  0  0  0  0  0  0  0
   -1.3883    0.8623   -0.9428 H   0  0  0  0  0  0  0  0  0  0  0  0
   -0.1306   -1.2689    0.9450 H   0  0  0  0  0  0  0  0  0  0  0  0
    0.7561   -0.1365    0.0549 H   0  0  0  0  0  0  0  0  0  0  0  0
   -0.0846   -1.4028   -0.8278 H   0  0  0  0  0  0  0  0  0  0  0  0
  1  3  1  0  0  0  0
  1  5  1  0  0  0  0
  2  1  1  0  0  0  0
  2  8  1  0  0  0  0
  4  1  1  0  0  0  0
  6  2  1  0  0  0  0
  6  9  1  0  0  0  0
  6 10  1  0  0  0  0
  7  2  1  0  0  0  0
  9 12  1  0  0  0  0
 11  6  1  0  0  0  0
 13  9  1  0  0  0  0
 14  9  1  0  0  0  0
M  END
$$$$
