14
butane_opt
C  -3.814807   0.214020   0.096923
C  -2.745373  -0.542845  -0.097552
H  -4.753966  -0.317714  -0.091924
H  -3.692622   0.585313  -0.682689
H  -4.033687   0.946251   1.046391
C  -1.448314   0.232163   0.037227
H  -2.935743  -1.392443  -1.165676
H  -2.760105  -1.096095   0.644591
C  -0.182439  -0.731568   0.117098
H  -1.641893   0.819513   0.746368
H  -1.595372   0.944653  -0.867166
H   0.397651  -1.991032   1.304226
H   0.678490  -0.280373  -0.865573
H  -0.404485  -0.727270  -0.371737
