14
butane_opt
C  -4.063994   0.314833   0.039902
C  -2.660910  -0.680546   0.108267
H  -4.788098  -0.173725  -0.108547
H  -3.889407   1.278630  -1.020923
H  -3.985941   0.619200   0.646608
C  -1.401043   0.159701  -0.018379
H  -2.658151  -1.359032  -0.731679
H  -2.519715  -1.455570   0.926385
C  -0.139564  -0.645761   0.025445
H  -1.194624   0.639776   0.674952
H  -1.378816   0.708506  -0.870053
H  -0.393472  -0.632881   0.469426
H   0.923947  -0.045285   0.639388
H   0.001888  -1.773040  -1.141885
