14
butane_opt
C  -3.917217   0.221351  -0.116562
C  -2.800249  -0.597363   0.123179
H  -4.733380  -0.314572  -0.048449
H  -3.996277   0.727666  -1.095536
H  -4.020807   0.855687   0.638175
C  -1.383513   0.251714   0.258358
H  -2.633094  -1.164689  -0.648664
H  -3.166533  -1.032443   1.026613
C  -0.114072  -0.757036  -0.133548
H  -1.508945   1.044021   1.109372
H  -1.503733   0.951117  -0.661718
H   0.587766  -1.738813   1.011826
H   0.694695  -0.278404  -0.627211
H  -0.178989  -0.958733  -0.781327
