butane_opt
 OpenBabel08242015403D

 14 11  0  0  0  0  0  0  0  0999 V2000
   -3.9097    0.3230   -0.1049 C   0  0  0  0  0  1  0  0  0  0  0  0
   -2.6901   -0.6412    0.0901 C   0  0  0  0  0  0  0  0  0  0  0  0
   -4.9063   -0.2641    0.5167 H   0  0  0  0  0  0  0  0  0  0  0  0
   -4.2247    1.5006   -1.3557 H   0  0  0  0  0  0  0  0  0  0  0  0
   -3.9407    0.2087    0.1348 H   0  0  0  0  0  0  0  0  0  0  0  0
   -1.3658    0.1416    0.2661 C   0  0  0  0  0  0  0  0  0  0  0  0
   -2.6178   -1.4085   -0.7621 H   0  0  0  0  0  0  0  0  0  0  0  0
   -2.8091   -1.3856    1.0955 H   0  0  0  0  0  0  0  0  0  0  0  0
   -0.2126   -0.6427   -0.0996 C   0  0  0  0  0  0  0  0  0  0  0  0
   -1.1986    0.8110    1.1952 H   0  0  0  0  0  0  0  0  0  0  0  0
   -1.5044    0.6933   -0.6984 H   0  0  0  0  0  0  0  0  0  0  0  0
    0.2767   -1.0932    0.6459 H   0  0  0  0  0  0  0  0  0  0  0  0
    0.6175   -0.0718   -0.1329 H   0  0  0  0  0  0  0  0  0  0  0  0
   -0.5982   -1.6011   -1.0838 H   0  0  0  0  0  0  0  0  0  0  0  0
  1  3  1  0  0  0  0
  2  5  1  0  0  0  0
  2  6  1  0  0  0  0
  2  8  1  0  0  0  0
  6 10  1  0  0  0  0
  7  2  1  0  0  0  0
  9  6  1  0  0  0  0
  9 12  1  0  0  0  0
 11  6  1  0  0  0  0
 13  9  1  0  0  0  0
 14  9  1  0  0  0  0
M  RAD  1   4   2
M  END
$$$$
