14
butane_opt
C  -3.876300   0.252345   0.089018
C  -2.602719  -0.627583   0.004577
H  -5.098962  -0.487233   0.101306
H  -3.972728   0.908396  -0.760752
H  -3.911902   0.832454   1.077494
C  -1.446259   0.209824  -0.082909
H  -2.711697  -1.212774  -0.801567
H  -2.708398  -1.198706   0.841864
C  -0.249321  -0.706482   0.113036
H  -1.705941   0.719877   0.538730
H  -1.087616   1.310629  -1.300081
H  -0.437344  -0.864570   0.718328
H   0.607283  -0.115833   0.574593
H   0.138169  -1.985362  -1.119971
