butane_opt
 OpenBabel08242015403D

 14 12  0  0  0  0  0  0  0  0999 V2000
   -4.0089    0.2030    0.1401 C   0  0  0  0  0  0  0  0  0  0  0  0
   -2.6706   -0.5102   -0.0508 C   0  0  0  0  0  0  0  0  0  0  0  0
   -4.8819   -0.5564    0.4301 H   0  0  0  0  0  0  0  0  0  0  0  0
   -4.0031    0.7164   -0.6788 H   0  0  0  0  0  0  0  0  0  0  0  0
   -3.6346    1.0599    1.1453 H   0  0  0  0  0  0  0  0  0  0  0  0
   -1.4175    0.2239   -0.2025 C   0  0  0  0  0  0  0  0  0  0  0  0
   -2.7590   -1.4573   -1.0362 H   0  0  0  0  0  0  0  0  0  0  0  0
   -2.9248   -1.1000    0.7578 H   0  0  0  0  0  0  0  0  0  0  0  0
   -0.1317   -0.7317    0.1858 C   0  0  0  0  0  0  0  0  0  0  0  0
   -1.5044    0.6037    0.4380 H   0  0  0  0  0  0  0  0  0  0  0  0
   -1.2982    1.1217   -1.2276 H   0  0  0  0  0  0  0  0  0  0  0  0
   -0.3593   -1.0781    0.9369 H   0  0  0  0  0  0  0  0  0  0  0  0
    0.7345   -0.2077    0.7481 H   0  0  0  0  0  0  0  0  0  0  0  0
    0.3528   -1.7961   -0.9309 H   0  0  0  0  0  0  0  0  0  0  0  0
  1  3  1  0  0  0  0
  1  5  1  0  0  0  0
  2  1  1  0  0  0  0
  2  8  1  0  0  0  0
  4  1  1  0  0  0  0
  6  2  1  0  0  0  0
  6  9  1  0  0  0  0
  6 10  1  0  0  0  0
  7  2  1  0  0  0  0
  9 13  1  0  0  0  0
  9 12  1  0  0  0  0
 11  6  1  0  0  0  0
M  RAD  2   9   2  14   2
M  END
$$$$
