butane_opt
 OpenBabel08242015403D

 14 12  0  0  0  0  0  0  0  0999 V2000
   -3.9659    0.2922    0.1109 C   0  0  0  0  0  0  0  0  0  0  0  0
   -2.6282   -0.6057   -0.0729 C   0  0  0  0  0  0  0  0  0  0  0  0
   -4.9156   -0.2870    0.2142 H   0  0  0  0  0  0  0  0  0  0  0  0
   -3.9441    0.4961   -0.5123 H   0  0  0  0  0  0  0  0  0  0  0  0
   -3.9720    1.0697    0.8746 H   0  0  0  0  0  0  0  0  0  0  0  0
   -1.3874    0.0936   -0.1340 C   0  0  0  0  0  0  0  0  0  0  0  0
   -2.7308   -0.9533   -0.7317 H   0  0  0  0  0  0  0  0  0  0  0  0
   -2.4825   -1.4349    1.0903 H   0  0  0  0  0  0  0  0  0  0  0  0
   -0.2092   -0.6383    0.1372 C   0  0  0  0  0  0  0  0  0  0  0  0
   -1.4943    0.7367    0.5874 H   0  0  0  0  0  0  0  0  0  0  0  0
   -1.3856    0.8404   -1.0903 H   0  0  0  0  0  0  0  0  0  0  0  0
   -0.5347   -0.9880    0.8725 H   0  0  0  0  0  0  0  0  0  0  0  0
    0.6941   -0.0321    0.6124 H   0  0  0  0  0  0  0  0  0  0  0  0
    0.0221   -1.6732   -0.9679 H   0  0  0  0  0  0  0  0  0  0  0  0
  1  3  1  0  0  0  0
  1  5  1  0  0  0  0
  2  1  1  0  0  0  0
  2  8  1  0  0  0  0
  4  1  1  0  0  0  0
  6  2  1  0  0  0  0
  6  9  1  0  0  0  0
  6 10  1  0  0  0  0
  7  2  1  0  0  0  0
  9 13  1  0  0  0  0
  9 12  1  0  0  0  0
 11  6  1  0  0  0  0
M  RAD  2   9   2  14   2
M  END
$$$$
