14
butane_opt
C  -3.881512   0.191333   0.092846
C  -2.703319  -0.557861  -0.122585
H  -4.908688  -0.393352   0.431839
H  -4.079064   0.970752  -0.784649
H  -3.573307   0.721416   0.942300
C  -1.458729   0.294326  -0.050224
H  -2.852814  -1.301032  -0.973415
H  -2.372381  -1.340091   0.839504
C  -0.189801  -0.750473   0.104289
H  -1.551207   1.001127   0.872635
H  -1.292836   0.943337  -0.858531
H  -0.087224  -1.676640   1.264389
H   0.696585  -0.221247   0.183185
H  -0.172418  -1.328654  -0.785151
