14
butane_opt
C  -3.906541   0.320426  -0.115254
C  -2.667210  -0.616708   0.066456
H  -4.896994  -0.522228   0.496074
H  -4.135399   1.049631  -1.044856
H  -3.754492   0.874368   0.601891
C  -1.412677   0.108273   0.151967
H  -2.587046  -1.278149  -0.719993
H  -2.882861  -1.404470   1.136785
C  -0.219892  -0.661673  -0.048192
H  -1.057935   0.951625   1.236133
H  -1.463832   0.635866  -0.654017
H   0.052529  -1.264806   0.850868
H   0.657601  -0.092913  -0.287224
H  -0.478217  -1.211083  -0.811885
