14
butane_opt
C  -3.974869   0.316902   0.190519
C  -2.723526  -0.684562  -0.113764
H  -4.757023  -0.163090   0.525277
H  -4.028532   0.878700  -0.592714
H  -3.760358   0.884294   1.141233
C  -1.380374   0.203802  -0.239844
H  -3.056767  -1.589046  -1.083899
H  -2.691416  -1.012829   0.417044
C  -0.141310  -0.670165   0.221142
H  -1.688183   0.652448   0.456770
H  -1.092468   0.882609  -1.172824
H  -0.424100  -1.315706   1.182066
H   0.925132  -0.058644   0.589340
H   0.111616  -1.564925  -0.726725
