14
butane_opt
C  -3.913958   0.231396  -0.155682
C  -2.664533  -0.597705   0.188371
H  -4.991334  -0.585120  -0.005582
H  -3.484659   1.111383  -1.304954
H  -4.156985   0.520489   0.575129
C  -1.448135   0.258142   0.269025
H  -2.771070  -1.322865  -0.782715
H  -2.632502  -0.969945   0.961184
C  -0.169252  -0.722587  -0.119676
H  -1.227158   1.250469   1.288067
H  -1.594626   0.774182  -0.589638
H   0.304399  -1.763213   0.971811
H   0.549781  -0.257065  -0.908255
H  -0.626096  -1.307434  -0.950066
