14
butane_opt
C  -3.974099   0.345406  -0.024944
C  -2.752725  -0.675249   0.185829
H  -4.897726  -0.153135  -0.071176
H  -3.856489   1.196361  -1.032505
H  -4.458734   0.646872   0.515085
C  -1.348392   0.105550   0.030934
H  -2.489684  -1.473802  -0.676545
H  -2.706150  -1.375628   1.189949
C  -0.161481  -0.627698  -0.061323
H  -1.128002   0.819261   0.917668
H  -1.297499   0.711706  -0.967135
H  -0.245817  -0.764505   0.606540
H   0.863809  -0.006130   0.707596
H  -0.003842  -1.849522  -1.361346
