butane_opt
 OpenBabel08242015403D

 14 13  0  0  0  0  0  0  0  0999 V2000
   -3.9430    0.2563    0.0269 C   0  0  0  0  0  0  0  0  0  0  0  0
   -2.7046   -0.6085    0.0435 C   0  0  0  0  0  0  0  0  0  0  0  0
   -4.8570   -0.3418   -0.1086 H   0  0  0  0  0  0  0  0  0  0  0  0
   -3.9208    0.7734   -0.8088 H   0  0  0  0  0  0  0  0  0  0  0  0
   -4.0218    1.0194    0.9492 H   0  0  0  0  0  0  0  0  0  0  0  0
   -1.4149    0.1945   -0.0131 C   0  0  0  0  0  0  0  0  0  0  0  0
   -2.7402   -1.3040   -0.8122 H   0  0  0  0  0  0  0  0  0  0  0  0
   -2.6952   -1.2457    0.9481 H   0  0  0  0  0  0  0  0  0  0  0  0
   -0.1475   -0.6968    0.0438 C   0  0  0  0  0  0  0  0  0  0  0  0
   -1.3615    0.8802    0.8553 H   0  0  0  0  0  0  0  0  0  0  0  0
   -1.4053    0.8188   -0.9235 H   0  0  0  0  0  0  0  0  0  0  0  0
   -0.1135   -1.3411    0.9554 H   0  0  0  0  0  0  0  0  0  0  0  0
    0.7369   -0.1649   -0.0147 H   0  0  0  0  0  0  0  0  0  0  0  0
   -0.1197   -1.3171   -0.8010 H   0  0  0  0  0  0  0  0  0  0  0  0
  1  2  1  0  0  0  0
  1  5  1  0  0  0  0
  2  8  1  0  0  0  0
  3  1  1  0  0  0  0
  4  1  1  0  0  0  0
  6  2  1  0  0  0  0
  6  9  1  0  0  0  0
  6 10  1  0  0  0  0
  7  2  1  0  0  0  0
  9 12  1  0  0  0  0
 11  6  1  0  0  0  0
 13  9  1  0  0  0  0
 14  9  1  0  0  0  0
M  END
$$$$
