butane_opt
 OpenBabel08242015403D

 14  8  0  0  0  0  0  0  0  0999 V2000
   -3.9990    0.2257   -0.0739 C   0  0  0  0  0  1  0  0  0  0  0  0
   -2.7614   -0.5701    0.1375 C   0  0  0  0  0  0  0  0  0  0  0  0
   -5.0036   -0.3120    0.5824 H   0  0  0  0  0  0  0  0  0  0  0  0
   -3.9787    1.4833   -1.3965 H   0  0  0  0  0  0  0  0  0  0  0  0
   -3.7562    0.4193    0.3824 H   0  0  0  0  0  0  0  0  0  0  0  0
   -1.3570    0.2219    0.0907 C   0  0  0  0  0  0  0  0  0  0  0  0
   -2.9082   -1.2308   -0.6562 H   0  0  0  0  0  0  0  0  0  0  0  0
   -2.8758   -1.4596    1.0678 H   0  0  0  0  0  0  0  0  0  0  0  0
   -0.0528   -0.7546   -0.0772 C   0  0  0  0  0  0  0  0  0  0  0  0
   -1.6744    1.3743    1.2254 H   0  0  0  0  0  0  0  0  0  0  0  0
   -1.3951    0.5962   -0.6291 H   0  0  0  0  0  0  0  0  0  0  0  0
   -0.0927   -0.9849    0.4887 H   0  0  0  0  0  0  0  0  0  0  0  0
    0.8245   -0.1391    0.4599 H   0  0  0  0  0  0  0  0  0  0  0  0
   -0.1195   -1.6842   -1.1055 H   0  0  0  0  0  0  0  0  0  0  0  0
  1  3  1  0  0  0  0
  2  5  1  0  0  0  0
  2  8  1  0  0  0  0
  7  2  1  0  0  0  0
  9  6  1  0  0  0  0
  9 13  1  0  0  0  0
 11  6  1  0  0  0  0
 14  9  1  0  0  0  0
M  RAD  6   2   2   4   2   6   3   9   2  10   2  12   2
M  END
$$$$
