14
butane_opt
C  -3.909718   0.322955  -0.104906
C  -2.690115  -0.641197   0.090112
H  -4.906285  -0.264077   0.516663
H  -4.224654   1.500646  -1.355720
H  -3.940699   0.208699   0.134783
C  -1.365841   0.141582   0.266127
H  -2.617753  -1.408550  -0.762083
H  -2.809145  -1.385552   1.095493
C  -0.212584  -0.642661  -0.099595
H  -1.198575   0.811000   1.195250
H  -1.504392   0.693295  -0.698446
H   0.276686  -1.093152   0.645863
H   0.617488  -0.071847  -0.132852
H  -0.598183  -1.601077  -1.083772
