14
butane_opt
C  -3.930450   0.303712  -0.115135
C  -2.639847  -0.660107   0.207649
H  -4.768128  -0.202088   0.379522
H  -4.050070   1.212946  -1.277340
H  -4.153568   0.572925   0.475633
C  -1.382279   0.097555   0.057918
H  -2.378328  -1.049764  -0.326754
H  -2.490809  -1.459415   1.158756
C  -0.252329  -0.619775  -0.100954
H  -0.985928   1.058779   1.132787
H  -1.699663   0.471933  -0.704495
H  -0.591805  -0.523525   0.509775
H   0.605252  -0.045229   0.810113
H  -0.046348  -1.984706  -1.378341
