14
butane_opt
C  -3.967669   0.226960   0.138302
C  -2.759300  -0.538912  -0.077314
H  -5.007328  -0.481191   0.157014
H  -4.244620   0.720391  -0.619541
H  -3.560385   0.790301   1.134433
C  -1.420026   0.264463  -0.176403
H  -2.914739  -1.163097  -0.818165
H  -2.798983  -1.201818   0.805540
C  -0.114564  -0.755712   0.174155
H  -1.348416   0.792259   0.480318
H  -1.186506   0.974521  -1.199099
H  -0.124258  -1.155024   0.954903
H   0.848491  -0.184659   0.656153
H   0.439342  -1.937953  -0.865929
