14
butane_opt
C  -3.933222   0.256195   0.020215
C  -2.701299  -0.608704   0.042468
H  -4.843730  -0.321114  -0.096733
H  -3.979842   0.760886  -0.796558
H  -4.013049   0.999035   0.953909
C  -1.409626   0.200097   0.005152
H  -2.719451  -1.307955  -0.840613
H  -2.679977  -1.228076   0.915754
C  -0.160189  -0.702671   0.041703
H  -1.416167   0.798859   0.812737
H  -1.391781   0.846186  -0.916789
H  -0.084322  -1.353929   0.964772
H   0.731521  -0.098884  -0.068251
H  -0.167025  -1.307746  -0.793063
