14
butane_opt
C  -3.847450   0.197142  -0.177837
C  -2.717388  -0.583217   0.314670
H  -4.849583  -0.386332  -0.775719
H  -3.538743   0.526055  -0.869496
H  -4.168331   1.521600   1.010507
C  -1.443399   0.239889   0.146579
H  -2.537871  -1.127406  -0.376453
H  -2.915098  -1.202022   1.249273
C  -0.178475  -0.729055  -0.114837
H  -1.428214   0.661130   0.898486
H  -1.445371   0.978713  -0.852578
H  -0.094897  -1.049938   0.643126
H   0.589270  -0.305250  -0.335831
H  -0.343726  -1.641282  -1.181030
