14
butane_opt
C  -3.934140   0.232643   0.119044
C  -2.741295  -0.611930  -0.091279
H  -4.628226  -0.133978  -0.536057
H  -3.918752   0.462053  -0.454303
H  -3.995295   1.270150   1.249334
C  -1.440803   0.207765  -0.057071
H  -2.744244  -1.410120  -0.991326
H  -2.534919  -1.212392   0.921641
C  -0.122095  -0.690569   0.100834
H  -1.330727   0.887359   0.835811
H  -1.549080   0.873792  -0.992034
H  -0.029202  -1.995171   1.400270
H   0.736648  -0.066634  -0.511562
H  -0.187722  -0.776746  -0.259227
