14
butane_opt
C  -3.989805   0.242896   0.167154
C  -2.735094  -0.630029  -0.062636
H  -4.850285  -0.311890   0.082278
H  -3.983074   0.672385  -0.524324
H  -3.804071   1.062466   1.265673
C  -1.431708   0.214080  -0.232742
H  -3.004815  -1.402391  -1.017663
H  -2.683977  -0.817722   0.601672
C  -0.039675  -0.711178   0.209671
H  -1.417775   0.580442   0.462520
H  -1.624313   1.170348  -1.270286
H  -0.461721  -1.173855   1.028627
H   0.746389  -0.086996   0.562161
H   0.393343  -1.584437  -0.724890
