butane_opt
 OpenBabel08242015403D

 14 13  0  0  0  0  0  0  0  0999 V2000
   -3.9457    0.2753   -0.0039 C   0  0  0  0  0  0  0  0  0  0  0  0
   -2.7078   -0.6301    0.0444 C   0  0  0  0  0  0  0  0  0  0  0  0
   -4.8793   -0.3040    0.0344 H   0  0  0  0  0  0  0  0  0  0  0  0
   -3.9824    0.8798   -0.8965 H   0  0  0  0  0  0  0  0  0  0  0  0
   -4.0063    0.9719    0.8635 H   0  0  0  0  0  0  0  0  0  0  0  0
   -1.3952    0.1798    0.0464 C   0  0  0  0  0  0  0  0  0  0  0  0
   -2.6656   -1.3092   -0.7915 H   0  0  0  0  0  0  0  0  0  0  0  0
   -2.7227   -1.3010    0.9474 H   0  0  0  0  0  0  0  0  0  0  0  0
   -0.1615   -0.6876    0.0140 C   0  0  0  0  0  0  0  0  0  0  0  0
   -1.3081    0.8816    0.9199 H   0  0  0  0  0  0  0  0  0  0  0  0
   -1.4056    0.8051   -0.8607 H   0  0  0  0  0  0  0  0  0  0  0  0
   -0.0643   -1.3558    0.9412 H   0  0  0  0  0  0  0  0  0  0  0  0
    0.7371   -0.1055   -0.1139 H   0  0  0  0  0  0  0  0  0  0  0  0
   -0.2039   -1.2798   -0.7984 H   0  0  0  0  0  0  0  0  0  0  0  0
  1  3  1  0  0  0  0
  1  2  1  0  0  0  0
  1  5  1  0  0  0  0
  2  6  1  0  0  0  0
  2  8  1  0  0  0  0
  4  1  1  0  0  0  0
  6 10  1  0  0  0  0
  7  2  1  0  0  0  0
  9  6  1  0  0  0  0
  9 12  1  0  0  0  0
 11  6  1  0  0  0  0
 13  9  1  0  0  0  0
 14  9  1  0  0  0  0
M  END
$$$$
