butane_opt
 OpenBabel08242015403D

 14 12  0  0  0  0  0  0  0  0999 V2000
   -3.9644    0.2455    0.1368 C   0  0  0  0  0  0  0  0  0  0  0  0
   -2.7336   -0.6343   -0.1261 C   0  0  0  0  0  0  0  0  0  0  0  0
   -4.9811   -0.4606    0.6000 H   0  0  0  0  0  0  0  0  0  0  0  0
   -4.3213    0.9341   -0.7936 H   0  0  0  0  0  0  0  0  0  0  0  0
   -3.7027    0.7109    0.8979 H   0  0  0  0  0  0  0  0  0  0  0  0
   -1.3595    0.3118   -0.0960 C   0  0  0  0  0  0  0  0  0  0  0  0
   -3.0392   -1.2428   -1.0798 H   0  0  0  0  0  0  0  0  0  0  0  0
   -2.6389   -1.0460    0.6377 H   0  0  0  0  0  0  0  0  0  0  0  0
   -0.1488   -0.7522    0.1048 C   0  0  0  0  0  0  0  0  0  0  0  0
   -1.2279    1.0511    0.6999 H   0  0  0  0  0  0  0  0  0  0  0  0
   -1.3905    0.9047   -0.9768 H   0  0  0  0  0  0  0  0  0  0  0  0
   -0.2502   -1.7149    1.3132 H   0  0  0  0  0  0  0  0  0  0  0  0
    0.7496   -0.3399    0.5351 H   0  0  0  0  0  0  0  0  0  0  0  0
    0.2880   -1.3593   -0.5952 H   0  0  0  0  0  0  0  0  0  0  0  0
  1  3  1  0  0  0  0
  1  5  1  0  0  0  0
  2  6  1  0  0  0  0
  2  1  1  0  0  0  0
  2  8  1  0  0  0  0
  4  1  1  0  0  0  0
  6  9  1  0  0  0  0
  6 10  1  0  0  0  0
  7  2  1  0  0  0  0
  9 13  1  0  0  0  0
 11  6  1  0  0  0  0
 14  9  1  0  0  0  0
M  RAD  2   9   2  12   2
M  END
$$$$
