14
butane_opt
C  -3.918725   0.333220  -0.108184
C  -2.661342  -0.655171   0.092059
H  -4.898725  -0.240878   0.624721
H  -4.448616   1.572133  -1.337570
H  -3.644217   0.130504   0.284828
C  -1.431207   0.093930   0.174414
H  -2.783002  -1.208325  -0.671233
H  -2.738376  -1.457925   1.173126
C  -0.157954  -0.643135  -0.110416
H  -1.303637   1.023961   1.381572
H  -1.648068   0.523514  -0.539075
H  -0.338233  -0.951086   0.637128
H   0.872964   0.183172   0.277109
H  -0.113289  -1.554044  -1.105554
