butane_opt
 OpenBabel08242015403D

 14 11  0  0  0  0  0  0  0  0999 V2000
   -3.9741    0.3454   -0.0249 C   0  0  0  0  0  0  0  0  0  0  0  0
   -2.7527   -0.6752    0.1858 C   0  0  0  0  0  0  0  0  0  0  0  0
   -4.8977   -0.1531   -0.0712 H   0  0  0  0  0  0  0  0  0  0  0  0
   -3.8565    1.1964   -1.0325 H   0  0  0  0  0  0  0  0  0  0  0  0
   -4.4587    0.6469    0.5151 H   0  0  0  0  0  0  0  0  0  0  0  0
   -1.3484    0.1056    0.0309 C   0  0  0  0  0  0  0  0  0  0  0  0
   -2.4897   -1.4738   -0.6765 H   0  0  0  0  0  0  0  0  0  0  0  0
   -2.7062   -1.3756    1.1899 H   0  0  0  0  0  0  0  0  0  0  0  0
   -0.1615   -0.6277   -0.0613 C   0  0  0  0  0  0  0  0  0  0  0  0
   -1.1280    0.8193    0.9177 H   0  0  0  0  0  0  0  0  0  0  0  0
   -1.2975    0.7117   -0.9671 H   0  0  0  0  0  0  0  0  0  0  0  0
   -0.2458   -0.7645    0.6065 H   0  0  0  0  0  0  0  0  0  0  0  0
    0.8638   -0.0061    0.7076 H   0  0  0  0  0  0  0  0  0  0  0  0
   -0.0038   -1.8495   -1.3613 H   0  0  0  0  0  0  0  0  0  0  0  0
  1  2  1  0  0  0  0
  1  5  1  0  0  0  0
  2  8  1  0  0  0  0
  3  1  1  0  0  0  0
  4  1  1  0  0  0  0
  6 10  1  0  0  0  0
  7  2  1  0  0  0  0
  9  6  1  0  0  0  0
  9 12  1  0  0  0  0
  9 13  1  0  0  0  0
 11  6  1  0  0  0  0
M  RAD  4   2   2   6   2   9   2  14   2
M  END
$$$$
