14
butane_opt
C  -3.942849   0.263508   0.030161
C  -2.708867  -0.606995   0.020522
H  -4.910363  -0.387593   0.028039
H  -3.948580   0.820139  -0.825269
H  -3.954999   0.971167   0.928752
C  -1.407671   0.197657   0.003017
H  -2.760902  -1.364977  -0.886011
H  -2.677422  -1.157146   0.849631
C  -0.150249  -0.706006   0.046259
H  -1.360168   0.823463   0.827694
H  -1.387226   0.840868  -0.877388
H  -0.075106  -1.457357   1.025552
H   0.737373  -0.107545  -0.088184
H  -0.162461  -1.235140  -0.721382
