14
butane_opt
C  -3.933268   0.172115   0.030442
C  -2.741900  -0.520401  -0.009186
H  -4.784363  -0.289987   0.902480
H  -4.205230   1.258983  -1.247503
H  -3.905578   0.262261   0.552844
C  -1.422539   0.284415  -0.002650
H  -2.796307  -1.459049  -1.079096
H  -2.603013  -1.201302   0.860964
C  -0.116485  -0.763859   0.043777
H  -1.532017   1.217822   0.969877
H  -1.415871   0.637513  -0.649106
H   0.058804  -1.207630   0.899796
H   0.619433  -0.218654   0.191914
H   0.150957  -1.531339  -0.766717
