butane_opt
 OpenBabel08242015403D

 14 12  0  0  0  0  0  0  0  0999 V2000
   -3.9294    0.3311   -0.1637 C   0  0  0  0  0  0  0  0  0  0  0  0
   -2.6898   -0.6318    0.2015 C   0  0  0  0  0  0  0  0  0  0  0  0
   -4.7452   -0.2201   -0.0828 H   0  0  0  0  0  0  0  0  0  0  0  0
   -3.6719    1.1533   -1.2799 H   0  0  0  0  0  0  0  0  0  0  0  0
   -4.4079    0.8040    0.5675 H   0  0  0  0  0  0  0  0  0  0  0  0
   -1.4183    0.0571    0.2452 C   0  0  0  0  0  0  0  0  0  0  0  0
   -2.6732   -1.5426   -0.6558 H   0  0  0  0  0  0  0  0  0  0  0  0
   -2.7213   -1.2116    1.0598 H   0  0  0  0  0  0  0  0  0  0  0  0
   -0.1896   -0.6646   -0.1121 C   0  0  0  0  0  0  0  0  0  0  0  0
   -0.9536    0.9506    1.2600 H   0  0  0  0  0  0  0  0  0  0  0  0
   -1.5967    0.5025   -0.4825 H   0  0  0  0  0  0  0  0  0  0  0  0
    0.2254   -1.2360    0.7164 H   0  0  0  0  0  0  0  0  0  0  0  0
    0.9603    0.1576   -0.8394 H   0  0  0  0  0  0  0  0  0  0  0  0
   -0.7460   -0.8563   -0.8478 H   0  0  0  0  0  0  0  0  0  0  0  0
  1  3  1  0  0  0  0
  1  2  1  0  0  0  0
  1  5  1  0  0  0  0
  2  6  1  0  0  0  0
  2  8  1  0  0  0  0
  4  1  1  0  0  0  0
  6 10  1  0  0  0  0
  7  2  1  0  0  0  0
  9  6  1  0  0  0  0
  9 12  1  0  0  0  0
 11  6  1  0  0  0  0
 14  9  1  0  0  0  0
M  RAD  2   9   2  13   2
M  END
$$$$
