butane_opt
 OpenBabel08242015403D

 14 13  0  0  0  0  0  0  0  0999 V2000
   -3.9382    0.2525   -0.0160 C   0  0  0  0  0  0  0  0  0  0  0  0
   -2.7032   -0.6041    0.0771 C   0  0  0  0  0  0  0  0  0  0  0  0
   -4.8997   -0.3737   -0.0448 H   0  0  0  0  0  0  0  0  0  0  0  0
   -3.8569    0.8624   -0.9002 H   0  0  0  0  0  0  0  0  0  0  0  0
   -3.9688    0.9370    0.8490 H   0  0  0  0  0  0  0  0  0  0  0  0
   -1.4131    0.1931    0.0397 C   0  0  0  0  0  0  0  0  0  0  0  0
   -2.6519   -1.1992   -0.7078 H   0  0  0  0  0  0  0  0  0  0  0  0
   -2.7512   -1.2735    1.0264 H   0  0  0  0  0  0  0  0  0  0  0  0
   -0.1574   -0.7008   -0.0004 C   0  0  0  0  0  0  0  0  0  0  0  0
   -1.4195    0.8979    0.9102 H   0  0  0  0  0  0  0  0  0  0  0  0
   -1.4347    0.8234   -0.8459 H   0  0  0  0  0  0  0  0  0  0  0  0
   -0.0962   -1.2745    0.8466 H   0  0  0  0  0  0  0  0  0  0  0  0
    0.7388   -0.1106    0.0127 H   0  0  0  0  0  0  0  0  0  0  0  0
   -0.1402   -1.4635   -0.9183 H   0  0  0  0  0  0  0  0  0  0  0  0
  1  2  1  0  0  0  0
  1  5  1  0  0  0  0
  2  8  1  0  0  0  0
  3  1  1  0  0  0  0
  4  1  1  0  0  0  0
  6  2  1  0  0  0  0
  6 10  1  0  0  0  0
  7  2  1  0  0  0  0
  9 13  1  0  0  0  0
  9  6  1  0  0  0  0
  9 12  1  0  0  0  0
 11  6  1  0  0  0  0
 14  9  1  0  0  0  0
M  END
$$$$
