butane_opt
 OpenBabel08242015403D

 14 13  0  0  0  0  0  0  0  0999 V2000
   -3.8747    0.2284    0.1359 C   0  0  0  0  0  0  0  0  0  0  0  0
   -2.7088   -0.5929   -0.1604 C   0  0  0  0  0  0  0  0  0  0  0  0
   -4.7026   -0.2591    0.5524 H   0  0  0  0  0  0  0  0  0  0  0  0
   -4.1704    0.7395   -0.5841 H   0  0  0  0  0  0  0  0  0  0  0  0
   -3.7063    0.8134    1.0099 H   0  0  0  0  0  0  0  0  0  0  0  0
   -1.4433    0.2588   -0.0818 C   0  0  0  0  0  0  0  0  0  0  0  0
   -2.5027   -1.3722   -1.1028 H   0  0  0  0  0  0  0  0  0  0  0  0
   -2.8100   -1.2878    0.6516 H   0  0  0  0  0  0  0  0  0  0  0  0
   -0.2011   -0.7529    0.1668 C   0  0  0  0  0  0  0  0  0  0  0  0
   -1.7030    0.9135    0.7433 H   0  0  0  0  0  0  0  0  0  0  0  0
   -1.3859    1.0021   -1.0841 H   0  0  0  0  0  0  0  0  0  0  0  0
   -0.0993   -1.5718    1.2652 H   0  0  0  0  0  0  0  0  0  0  0  0
    0.8669   -0.0143   -0.0269 H   0  0  0  0  0  0  0  0  0  0  0  0
   -0.0980   -1.1075   -0.6461 H   0  0  0  0  0  0  0  0  0  0  0  0
  1  3  1  0  0  0  0
  1  5  1  0  0  0  0
  2  6  1  0  0  0  0
  2  1  1  0  0  0  0
  2  8  1  0  0  0  0
  4  1  1  0  0  0  0
  6  9  1  0  0  0  0
  6 10  1  0  0  0  0
  7  2  1  0  0  0  0
  9 12  1  0  0  0  0
 11  6  1  0  0  0  0
 13  9  1  0  0  0  0
 14  9  1  0  0  0  0
M  END
$$$$
