butane_opt
 OpenBabel08242015403D

 14 11  0  0  0  0  0  0  0  0999 V2000
   -3.9037    0.1910    0.0590 C   0  0  0  0  0  0  0  0  0  0  0  0
   -2.7261   -0.5397   -0.0301 C   0  0  0  0  0  0  0  0  0  0  0  0
   -4.8822   -0.3910   -0.0697 H   0  0  0  0  0  0  0  0  0  0  0  0
   -3.7785    0.6410   -0.8675 H   0  0  0  0  0  0  0  0  0  0  0  0
   -3.9976    1.0400    1.0003 H   0  0  0  0  0  0  0  0  0  0  0  0
   -1.4639    0.2390    0.0177 C   0  0  0  0  0  0  0  0  0  0  0  0
   -2.7570   -1.3920   -0.9339 H   0  0  0  0  0  0  0  0  0  0  0  0
   -2.5617   -0.9906    0.7680 H   0  0  0  0  0  0  0  0  0  0  0  0
   -0.0932   -0.7593    0.0587 C   0  0  0  0  0  1  0  0  0  0  0  0
   -1.7213    1.1252    0.8697 H   0  0  0  0  0  0  0  0  0  0  0  0
   -1.3704    0.6819   -0.7033 H   0  0  0  0  0  0  0  0  0  0  0  0
   -0.0148   -1.8287    1.1811 H   0  0  0  0  0  0  0  0  0  0  0  0
    0.8179   -0.2573   -0.7732 H   0  0  0  0  0  0  0  0  0  0  0  0
   -0.4474   -0.6722   -0.2450 H   0  0  0  0  0  0  0  0  0  0  0  0
  1  5  1  0  0  0  0
  2  6  1  0  0  0  0
  2  1  1  0  0  0  0
  2  8  1  0  0  0  0
  3  1  1  0  0  0  0
  4  1  1  0  0  0  0
  6 10  1  0  0  0  0
  7  2  1  0  0  0  0
 11  6  1  0  0  0  0
 13  9  1  0  0  0  0
 14  6  1  0  0  0  0
M  RAD  1  12   2
M  END
$$$$
