butane_opt
 OpenBabel08242015403D

 14 11  0  0  0  0  0  0  0  0999 V2000
   -4.0016    0.3067    0.0928 C   0  0  0  0  0  0  0  0  0  0  0  0
   -2.7034   -0.7177   -0.0443 C   0  0  0  0  0  0  0  0  0  0  0  0
   -4.8587   -0.1348   -0.1551 H   0  0  0  0  0  0  0  0  0  0  0  0
   -3.8359    0.6013   -0.5400 H   0  0  0  0  0  0  0  0  0  0  0  0
   -4.0531    1.4391    1.2758 H   0  0  0  0  0  0  0  0  0  0  0  0
   -1.3992    0.2173   -0.1067 C   0  0  0  0  0  0  0  0  0  0  0  0
   -2.6193   -1.5282   -1.0878 H   0  0  0  0  0  0  0  0  0  0  0  0
   -2.8006   -1.3075    0.8912 H   0  0  0  0  0  0  0  0  0  0  0  0
   -0.1660   -0.6606    0.1032 C   0  0  0  0  0  0  0  0  0  0  0  0
   -1.1410    0.8210    0.8345 H   0  0  0  0  0  0  0  0  0  0  0  0
   -1.2479    0.7050   -0.8515 H   0  0  0  0  0  0  0  0  0  0  0  0
   -0.0802   -1.7767    1.4725 H   0  0  0  0  0  0  0  0  0  0  0  0
    0.7952   -0.1054   -0.3491 H   0  0  0  0  0  0  0  0  0  0  0  0
    0.0154   -0.9065   -0.4867 H   0  0  0  0  0  0  0  0  0  0  0  0
  2  1  1  0  0  0  0
  2  8  1  0  0  0  0
  3  1  1  0  0  0  0
  4  1  1  0  0  0  0
  6  2  1  0  0  0  0
  6  9  1  0  0  0  0
  6 10  1  0  0  0  0
  7  2  1  0  0  0  0
 11  6  1  0  0  0  0
 13  9  1  0  0  0  0
 14  9  1  0  0  0  0
M  RAD  4   1   2   5   2   9   2  12   2
M  END
$$$$
