butane_opt
 OpenBabel08242015403D

 14 12  0  0  0  0  0  0  0  0999 V2000
   -3.9503    0.2831    0.1109 C   0  0  0  0  0  0  0  0  0  0  0  0
   -2.7679   -0.6589   -0.0384 C   0  0  0  0  0  0  0  0  0  0  0  0
   -4.7925   -0.3182   -0.0489 H   0  0  0  0  0  0  0  0  0  0  0  0
   -4.1433    0.9056   -0.6278 H   0  0  0  0  0  0  0  0  0  0  0  0
   -3.8503    1.0998    1.1306 H   0  0  0  0  0  0  0  0  0  0  0  0
   -1.3887    0.1870   -0.0973 C   0  0  0  0  0  0  0  0  0  0  0  0
   -2.9105   -1.1978   -0.8515 H   0  0  0  0  0  0  0  0  0  0  0  0
   -2.4114   -1.2010    0.7129 H   0  0  0  0  0  0  0  0  0  0  0  0
   -0.1230   -0.6884    0.1504 C   0  0  0  0  0  0  0  0  0  0  0  0
   -1.5641    0.4508    0.5354 H   0  0  0  0  0  0  0  0  0  0  0  0
   -1.1339    1.1201   -1.3338 H   0  0  0  0  0  0  0  0  0  0  0  0
   -0.3359   -1.0519    0.8237 H   0  0  0  0  0  0  0  0  0  0  0  0
    0.9399   -0.0526    0.4631 H   0  0  0  0  0  0  0  0  0  0  0  0
   -0.0763   -1.6929   -0.9283 H   0  0  0  0  0  0  0  0  0  0  0  0
  1  5  1  0  0  0  0
  2  1  1  0  0  0  0
  2  8  1  0  0  0  0
  3  1  1  0  0  0  0
  4  1  1  0  0  0  0
  6  2  1  0  0  0  0
  6  9  1  0  0  0  0
  6 10  1  0  0  0  0
  7  2  1  0  0  0  0
  9 13  1  0  0  0  0
  9 12  1  0  0  0  0
 14  9  1  0  0  0  0
M  RAD  2   6   2  11   2
M  END
$$$$
