butane_opt
 OpenBabel08242015403D

 14 12  0  0  0  0  0  0  0  0999 V2000
   -4.0356    0.3261    0.1022 C   0  0  0  0  0  0  0  0  0  0  0  0
   -2.6901   -0.6567    0.0164 C   0  0  0  0  0  0  0  0  0  0  0  0
   -5.0128   -0.2608    0.1941 H   0  0  0  0  0  0  0  0  0  0  0  0
   -4.0129    0.5985   -0.5444 H   0  0  0  0  0  0  0  0  0  0  0  0
   -3.8829    1.0153    1.1419 H   0  0  0  0  0  0  0  0  0  0  0  0
   -1.4155    0.1345   -0.1865 C   0  0  0  0  0  0  0  0  0  0  0  0
   -2.7047   -1.5890   -0.9781 H   0  0  0  0  0  0  0  0  0  0  0  0
   -2.5064   -1.1622    0.7548 H   0  0  0  0  0  0  0  0  0  0  0  0
   -0.1329   -0.6866    0.1239 C   0  0  0  0  0  0  0  0  0  0  0  0
   -1.3214    0.7759    0.6006 H   0  0  0  0  0  0  0  0  0  0  0  0
   -1.1277    1.0566   -1.3865 H   0  0  0  0  0  0  0  0  0  0  0  0
   -0.4094   -0.9540    0.9474 H   0  0  0  0  0  0  0  0  0  0  0  0
    0.8635    0.1002    0.8547 H   0  0  0  0  0  0  0  0  0  0  0  0
    0.3310   -1.4694   -0.7998 H   0  0  0  0  0  0  0  0  0  0  0  0
  1  3  1  0  0  0  0
  1  5  1  0  0  0  0
  2  1  1  0  0  0  0
  2  8  1  0  0  0  0
  4  1  1  0  0  0  0
  6  2  1  0  0  0  0
  6  9  1  0  0  0  0
  6 10  1  0  0  0  0
  7  2  1  0  0  0  0
  9 13  1  0  0  0  0
  9 12  1  0  0  0  0
 14  9  1  0  0  0  0
M  RAD  2   6   2  11   2
M  END
$$$$
