butane_opt
 OpenBabel08242015403D

 14 10  0  0  0  0  0  0  0  0999 V2000
   -3.8817    0.2274    0.1434 C   0  0  0  0  0  1  0  0  0  0  0  0
   -2.6881   -0.5401    0.0073 C   0  0  0  0  0  0  0  0  0  0  0  0
   -4.8722   -0.6140   -0.3838 H   0  0  0  0  0  0  0  0  0  0  0  0
   -3.7701    0.1750   -0.3851 H   0  0  0  0  0  0  0  0  0  0  0  0
   -3.9052    1.3196    1.2764 H   0  0  0  0  0  0  0  0  0  0  0  0
   -1.4608    0.2399   -0.2286 C   0  0  0  0  0  0  0  0  0  0  0  0
   -2.7085   -1.3779   -0.9575 H   0  0  0  0  0  0  0  0  0  0  0  0
   -2.6527   -1.2948    0.7443 H   0  0  0  0  0  0  0  0  0  0  0  0
   -0.1827   -0.7068    0.1512 C   0  0  0  0  0  0  0  0  0  0  0  0
   -1.3355    0.9010    0.6131 H   0  0  0  0  0  0  0  0  0  0  0  0
   -1.6429    1.0867   -1.2432 H   0  0  0  0  0  0  0  0  0  0  0  0
   -0.2574   -1.5779    1.1653 H   0  0  0  0  0  0  0  0  0  0  0  0
    0.5024   -0.2931    0.5150 H   0  0  0  0  0  0  0  0  0  0  0  0
    0.1891   -1.4812   -0.6729 H   0  0  0  0  0  0  0  0  0  0  0  0
  2  8  1  0  0  0  0
  3  1  1  0  0  0  0
  4  2  1  0  0  0  0
  6  9  1  0  0  0  0
  6 10  1  0  0  0  0
  7  2  1  0  0  0  0
  9 13  1  0  0  0  0
  9 12  1  0  0  0  0
 11  6  1  0  0  0  0
 14  9  1  0  0  0  0
M  RAD  3   2   2   5   2   6   2
M  END
$$$$
