14
butane_opt
C  -3.996663   0.294973  -0.119132
C  -2.691821  -0.695689   0.147509
H  -4.805684  -0.190851   0.350211
H  -3.929473   1.373319  -1.267274
H  -3.879410   0.431603   0.495329
C  -1.431906   0.225671   0.149094
H  -2.536233  -1.284223  -0.726899
H  -2.937587  -1.528841   1.253272
C  -0.132423  -0.677477  -0.063307
H  -1.290107   1.218501   1.230371
H  -1.274375   0.559146  -0.540816
H   0.113448  -1.046341   0.608508
H   0.644653   0.013383  -0.263686
H  -0.141165  -1.765380  -1.167639
