14
butane_opt
C  -4.028033   0.314733   0.159916
C  -2.697793  -0.697526  -0.115120
H  -4.654855   0.009086   0.381283
H  -4.206057   1.132416  -0.915376
H  -3.923376   0.798087   0.894874
C  -1.374196   0.136455  -0.059932
H  -2.965332  -1.722101  -1.254417
H  -2.444777  -0.958412   0.610686
C  -0.148944  -0.619400   0.127519
H  -1.388457   0.524431   0.563037
H  -1.168664   0.738860  -0.970284
H  -0.151888  -1.493185   1.145449
H   0.860650  -0.140920   0.192312
H  -0.044597  -0.890979  -0.542474
