butane_opt
 OpenBabel08242015403D

 14 13  0  0  0  0  0  0  0  0999 V2000
   -4.0041    0.3391    0.1710 C   0  0  0  0  0  0  0  0  0  0  0  0
   -2.6656   -0.7195   -0.2167 C   0  0  0  0  0  0  0  0  0  0  0  0
   -4.8548   -0.0476    0.9168 H   0  0  0  0  0  0  0  0  0  0  0  0
   -4.4976    1.2645   -0.8506 H   0  0  0  0  0  0  0  0  0  0  0  0
   -3.6020    0.5453    0.9218 H   0  0  0  0  0  0  0  0  0  0  0  0
   -1.3679    0.1454   -0.1521 C   0  0  0  0  0  0  0  0  0  0  0  0
   -3.1730   -1.5261   -1.2069 H   0  0  0  0  0  0  0  0  0  0  0  0
   -2.3867   -1.2249    0.5670 H   0  0  0  0  0  0  0  0  0  0  0  0
   -0.1779   -0.6221    0.2029 C   0  0  0  0  0  0  0  0  0  0  0  0
   -1.4416    0.8457    0.7250 H   0  0  0  0  0  0  0  0  0  0  0  0
   -1.1561    0.5746   -0.7542 H   0  0  0  0  0  0  0  0  0  0  0  0
   -0.0956   -1.4352    1.2287 H   0  0  0  0  0  0  0  0  0  0  0  0
    0.6298   -0.0432    0.2877 H   0  0  0  0  0  0  0  0  0  0  0  0
    0.0813   -1.0915   -0.5020 H   0  0  0  0  0  0  0  0  0  0  0  0
  1  3  1  0  0  0  0
  1  5  1  0  0  0  0
  2  6  1  0  0  0  0
  2  1  1  0  0  0  0
  2  8  1  0  0  0  0
  4  1  1  0  0  0  0
  6  9  1  0  0  0  0
  6 10  1  0  0  0  0
  7  2  1  0  0  0  0
  9 13  1  0  0  0  0
  9 12  1  0  0  0  0
 11  6  1  0  0  0  0
 14  9  1  0  0  0  0
M  END
$$$$
