14
butane_opt
C  -3.996678   0.226357   0.204740
C  -2.709525  -0.605556  -0.200722
H  -4.909420  -0.360891   0.209581
H  -4.176865   0.766662  -0.630571
H  -4.033301   0.905985   1.020569
C  -1.355101   0.259843  -0.121785
H  -2.825235  -1.357371  -1.118647
H  -2.613473  -1.014730   0.608613
C  -0.149474  -0.697604   0.180931
H  -1.652078   1.023441   0.809000
H  -1.209913   0.681917  -0.959919
H   0.231483  -2.150122   1.526281
H   0.735914  -0.303828  -0.269010
H  -0.039883  -0.857287  -0.438827
