14
butane_opt
C  -3.953777   0.265511  -0.198142
C  -2.802744  -0.577742   0.181846
H  -4.883645  -0.497844   0.159232
H  -4.086274   0.992050  -1.174255
H  -4.105193   0.644768   0.433430
C  -1.352944   0.190632   0.300565
H  -2.618400  -0.971147  -0.470740
H  -3.008754  -1.261319   1.145353
C  -0.076919  -0.725296  -0.185074
H  -1.208006   1.047486   1.291967
H  -1.704433   0.589357  -0.532955
H   0.280428  -1.340369   0.815593
H   0.801291  -0.264371  -0.471639
H  -0.244782  -1.250704  -0.938651
