14
butane_opt
C  -3.918872   0.294800  -0.125492
C  -2.667767  -0.622345   0.119899
H  -4.717989  -0.194742   0.671859
H  -4.070627   1.237508  -1.169464
H  -3.891604   0.517831   0.535258
C  -1.447168   0.071429   0.187026
H  -2.489894  -1.228425  -0.605420
H  -2.761158  -1.182887   0.988461
C  -0.150676  -0.645555  -0.078454
H  -1.366990   0.726783   0.884178
H  -1.407255   0.835646  -0.767359
H  -0.404842  -0.817304   0.510184
H   0.754379   0.060494   0.227847
H  -0.447974  -1.605476  -1.119258
