14
butane_opt
C  -3.935344   0.197622   0.166933
C  -2.774633  -0.569623  -0.165704
H  -4.930404  -0.392965   0.825629
H  -4.270473   1.368899  -1.026157
H  -3.554422   0.573457   0.765378
C  -1.431190   0.317185  -0.126724
H  -3.115064  -1.589823  -1.216773
H  -2.728115  -1.086731   0.699417
C  -0.060909  -0.754525   0.198978
H  -1.300266   0.990559   0.820755
H  -1.237273   0.740461  -0.957441
H  -0.193292  -1.406611   1.168177
H   0.594075  -0.337159   0.054640
H   0.173821  -1.623037  -0.649928
