14
butane_opt
C  -4.019233   0.294610   0.116000
C  -2.741030  -0.663853   0.021303
H  -4.792529  -0.183023  -0.916124
H  -3.801957   0.485918  -0.590715
H  -4.443899   1.521650   1.255513
C  -1.339308   0.158830  -0.113999
H  -2.678580  -1.151047  -0.709292
H  -2.687136  -1.400397   1.039215
C  -0.101895  -0.685543   0.056088
H  -1.213379   0.789448   0.880706
H  -1.153237   0.667230  -0.921404
H  -0.253801  -1.394954   1.188049
H   0.676881  -0.160685  -0.102089
H  -0.223847  -0.914655  -0.583885
