14
butane_opt
C  -3.968252   0.252949   0.158866
C  -2.745010  -0.565519  -0.080086
H  -4.888990  -0.243545  -0.174251
H  -3.970657   0.525480  -0.549085
H  -3.677225   1.088624   1.077910
C  -1.393751   0.185519  -0.160957
H  -2.975756  -1.032474  -0.676934
H  -2.939834  -1.384312   0.917431
C  -0.103801  -0.718997   0.142218
H  -1.670633   0.717626   0.548043
H  -1.205605   0.886305  -1.111878
H  -0.252410  -1.173943   0.929618
H   0.802061  -0.109278   0.521847
H   0.232243  -1.588744  -0.786510
