14
butane_opt
C  -3.917439   0.253797   0.051292
C  -2.707270  -0.605921  -0.007862
H  -4.848746  -0.341627   0.143237
H  -4.022317   0.895875  -0.869588
H  -3.869958   0.894012   0.899039
C  -1.414171   0.192322  -0.016368
H  -2.772744  -1.290619  -0.854660
H  -2.706776  -1.190450   0.840420
C  -0.161518  -0.701441   0.065422
H  -1.401795   0.901167   0.836573
H  -1.439593   0.824183  -0.917184
H  -0.185237  -1.370057   1.006626
H   0.711007  -0.129934   0.013108
H  -0.079737  -1.335537  -0.767156
