butane_opt
 OpenBabel08242015403D

 14 11  0  0  0  0  0  0  0  0999 V2000
   -4.0361    0.3538    0.0791 C   0  0  0  0  0  0  0  0  0  0  0  0
   -2.6200   -0.7655    0.0474 C   0  0  0  0  0  0  0  0  0  0  0  0
   -4.8455   -0.1771   -0.8362 H   0  0  0  0  0  0  0  0  0  0  0  0
   -3.8025    0.3783   -0.4874 H   0  0  0  0  0  0  0  0  0  0  0  0
   -4.6252    1.4251    1.2969 H   0  0  0  0  0  0  0  0  0  0  0  0
   -1.3589    0.1856   -0.0976 C   0  0  0  0  0  0  0  0  0  0  0  0
   -2.6595   -1.1779   -0.5991 H   0  0  0  0  0  0  0  0  0  0  0  0
   -2.7446   -1.4951    1.0797 H   0  0  0  0  0  0  0  0  0  0  0  0
   -0.1945   -0.6220    0.0545 C   0  0  0  0  0  0  0  0  0  0  0  0
   -1.3544    0.8373    0.7578 H   0  0  0  0  0  0  0  0  0  0  0  0
   -1.2567    0.6145   -1.0248 H   0  0  0  0  0  0  0  0  0  0  0  0
   -0.1773   -1.4398    1.1322 H   0  0  0  0  0  0  0  0  0  0  0  0
    0.8598    0.0828   -0.0917 H   0  0  0  0  0  0  0  0  0  0  0  0
    0.0399   -1.3099   -0.7419 H   0  0  0  0  0  0  0  0  0  0  0  0
  2  1  1  0  0  0  0
  2  8  1  0  0  0  0
  3  1  1  0  0  0  0
  6  2  1  0  0  0  0
  6  9  1  0  0  0  0
  6 10  1  0  0  0  0
  7  2  1  0  0  0  0
  9 12  1  0  0  0  0
 11  6  1  0  0  0  0
 13  9  1  0  0  0  0
 14  9  1  0  0  0  0
M  RAD  3   1   3   4   2   5   2
M  END
$$$$
