14
butane_opt
C  -3.965584   0.244583  -0.045352
C  -2.746593  -0.517932   0.009698
H  -4.949765  -0.442830   0.772517
H  -4.178630   1.062055  -1.099828
H  -3.449017   0.591794   0.626586
C  -1.430483   0.197367   0.067136
H  -2.658240  -1.324988  -0.853667
H  -2.933528  -1.429684   1.091214
C  -0.116352  -0.736825   0.012877
H  -1.274074   1.002374   1.019117
H  -1.186096   0.677455  -0.629471
H   0.061580  -1.223686   0.813170
H   0.649986  -0.139162   0.043385
H   0.000229  -1.478970  -0.909194
