butane_opt
 OpenBabel08242015403D

 14  9  0  0  0  0  0  0  0  0999 V2000
   -3.9086    0.2314   -0.1251 C   0  0  0  0  0  0  0  0  0  0  0  0
   -2.6986   -0.5183    0.2033 C   0  0  0  0  0  0  0  0  0  0  0  0
   -4.9662   -0.5468   -0.0139 H   0  0  0  0  0  0  0  0  0  0  0  0
   -3.7433    0.9621   -1.0251 H   0  0  0  0  0  0  0  0  0  0  0  0
   -3.7206    0.4508    0.5720 H   0  0  0  0  0  0  0  0  0  0  0  0
   -1.5064    0.2024    0.1017 C   0  0  0  0  0  0  0  0  0  0  0  0
   -2.6578   -0.9221   -0.3892 H   0  0  0  0  0  0  0  0  0  0  0  0
   -2.5578   -1.6302    1.4330 H   0  0  0  0  0  0  0  0  0  0  0  0
   -0.1172   -0.7368   -0.0883 C   0  0  0  0  0  1  0  0  0  0  0  0
   -1.3321    1.0559    0.9247 H   0  0  0  0  0  0  0  0  0  0  0  0
   -1.4285    0.9015   -0.8217 H   0  0  0  0  0  0  0  0  0  0  0  0
   -0.3959   -0.6038    0.3426 H   0  0  0  0  0  0  0  0  0  0  0  0
    0.6645   -0.1027    0.6918 H   0  0  0  0  0  0  0  0  0  0  0  0
   -0.0811   -2.2536   -1.5111 H   0  0  0  0  0  0  0  0  0  0  0  0
  1  3  1  0  0  0  0
  1  5  1  0  0  0  0
  4  1  1  0  0  0  0
  6  2  1  0  0  0  0
  6 12  1  0  0  0  0
  6 10  1  0  0  0  0
  7  2  1  0  0  0  0
  9 13  1  0  0  0  0
 11  6  1  0  0  0  0
M  RAD  4   1   2   2   3   8   2  14   2
M  END
$$$$
