butane_opt
 OpenBabel08242015403D

 14 12  0  0  0  0  0  0  0  0999 V2000
   -4.0402    0.3180    0.1738 C   0  0  0  0  0  0  0  0  0  0  0  0
   -2.6900   -0.6760   -0.1639 C   0  0  0  0  0  0  0  0  0  0  0  0
   -4.9400   -0.2516    0.3028 H   0  0  0  0  0  0  0  0  0  0  0  0
   -4.0400    0.7146   -0.6841 H   0  0  0  0  0  0  0  0  0  0  0  0
   -3.8421    1.2933    1.2000 H   0  0  0  0  0  0  0  0  0  0  0  0
   -1.3509    0.1393   -0.0824 C   0  0  0  0  0  0  0  0  0  0  0  0
   -2.3471   -1.6024   -1.2626 H   0  0  0  0  0  0  0  0  0  0  0  0
   -2.5986   -1.0655    0.5822 H   0  0  0  0  0  0  0  0  0  0  0  0
   -0.1795   -0.6627    0.1811 C   0  0  0  0  0  0  0  0  0  0  0  0
   -1.4186    0.4122    0.5288 H   0  0  0  0  0  0  0  0  0  0  0  0
   -1.1436    1.0197   -1.0813 H   0  0  0  0  0  0  0  0  0  0  0  0
   -0.1897   -1.6437    1.3870 H   0  0  0  0  0  0  0  0  0  0  0  0
    0.8676    0.1121   -0.2562 H   0  0  0  0  0  0  0  0  0  0  0  0
   -0.2597   -0.8577   -0.4755 H   0  0  0  0  0  0  0  0  0  0  0  0
  1  3  1  0  0  0  0
  1  5  1  0  0  0  0
  2  6  1  0  0  0  0
  2  1  1  0  0  0  0
  2  8  1  0  0  0  0
  4  1  1  0  0  0  0
  6  9  1  0  0  0  0
  6 10  1  0  0  0  0
  7  2  1  0  0  0  0
 11  6  1  0  0  0  0
 13  9  1  0  0  0  0
 14  9  1  0  0  0  0
M  RAD  2   9   2  12   2
M  END
$$$$
