14
butane_opt
C  -3.909729   0.202711   0.237154
C  -2.813275  -0.536540  -0.217696
H  -4.607309  -0.296306   0.571608
H  -4.407591   1.128216  -0.938167
H  -3.582321   0.572591   0.915234
C  -1.409117   0.259205  -0.140891
H  -3.101632  -1.624266  -1.325988
H  -2.517372  -1.110747   0.542481
C  -0.068718  -0.739022   0.237088
H  -1.547382   0.677786   0.637313
H  -1.261836   1.147309  -1.217848
H  -0.152157  -1.394975   1.117925
H   0.600433  -0.324968   0.271587
H  -0.007811  -1.451603  -0.575703
