butane_opt
 OpenBabel08242015403D

 14 13  0  0  0  0  0  0  0  0999 V2000
   -3.9458    0.2539    0.0032 C   0  0  0  0  0  0  0  0  0  0  0  0
   -2.7101   -0.6139    0.0530 C   0  0  0  0  0  0  0  0  0  0  0  0
   -4.8864   -0.3533   -0.0005 H   0  0  0  0  0  0  0  0  0  0  0  0
   -3.9653    0.9054   -0.9350 H   0  0  0  0  0  0  0  0  0  0  0  0
   -3.9425    0.8862    0.8536 H   0  0  0  0  0  0  0  0  0  0  0  0
   -1.4111    0.2096    0.0401 C   0  0  0  0  0  0  0  0  0  0  0  0
   -2.6542   -1.3016   -0.7722 H   0  0  0  0  0  0  0  0  0  0  0  0
   -2.7695   -1.2201    0.9343 H   0  0  0  0  0  0  0  0  0  0  0  0
   -0.1523   -0.7032    0.0136 C   0  0  0  0  0  0  0  0  0  0  0  0
   -1.3794    0.8766    0.8923 H   0  0  0  0  0  0  0  0  0  0  0  0
   -1.4088    0.8551   -0.8636 H   0  0  0  0  0  0  0  0  0  0  0  0
   -0.0189   -1.3423    0.9072 H   0  0  0  0  0  0  0  0  0  0  0  0
    0.7499   -0.1441   -0.0521 H   0  0  0  0  0  0  0  0  0  0  0  0
   -0.1188   -1.3911   -0.8453 H   0  0  0  0  0  0  0  0  0  0  0  0
  1  2  1  0  0  0  0
  1  5  1  0  0  0  0
  2  8  1  0  0  0  0
  3  1  1  0  0  0  0
  4  1  1  0  0  0  0
  6  2  1  0  0  0  0
  6 10  1  0  0  0  0
  7  2  1  0  0  0  0
  9  6  1  0  0  0  0
  9 12  1  0  0  0  0
 11  6  1  0  0  0  0
 13  9  1  0  0  0  0
 14  9  1  0  0  0  0
M  END
$$$$
