butane_opt
 OpenBabel08242015403D

 14 13  0  0  0  0  0  0  0  0999 V2000
   -3.9641    0.2730   -0.0157 C   0  0  0  0  0  0  0  0  0  0  0  0
   -2.6950   -0.6229    0.0608 C   0  0  0  0  0  0  0  0  0  0  0  0
   -4.8349   -0.3193    0.0216 H   0  0  0  0  0  0  0  0  0  0  0  0
   -3.9381    0.9352   -0.9505 H   0  0  0  0  0  0  0  0  0  0  0  0
   -4.0412    0.9308    0.8193 H   0  0  0  0  0  0  0  0  0  0  0  0
   -1.4041    0.1701    0.0683 C   0  0  0  0  0  0  0  0  0  0  0  0
   -2.6570   -1.3176   -0.8074 H   0  0  0  0  0  0  0  0  0  0  0  0
   -2.7449   -1.2764    0.9843 H   0  0  0  0  0  0  0  0  0  0  0  0
   -0.1559   -0.6809   -0.0027 C   0  0  0  0  0  0  0  0  0  0  0  0
   -1.3662    0.8466    0.9401 H   0  0  0  0  0  0  0  0  0  0  0  0
   -1.3542    0.7879   -0.8058 H   0  0  0  0  0  0  0  0  0  0  0  0
   -0.0045   -1.3531    0.9199 H   0  0  0  0  0  0  0  0  0  0  0  0
    0.7851   -0.0579   -0.1693 H   0  0  0  0  0  0  0  0  0  0  0  0
   -0.2468   -1.3030   -0.8361 H   0  0  0  0  0  0  0  0  0  0  0  0
  1  3  1  0  0  0  0
  1  2  1  0  0  0  0
  1  5  1  0  0  0  0
  2  6  1  0  0  0  0
  2  8  1  0  0  0  0
  4  1  1  0  0  0  0
  6 10  1  0  0  0  0
  7  2  1  0  0  0  0
  9  6  1  0  0  0  0
  9 12  1  0  0  0  0
 11  6  1  0  0  0  0
 13  9  1  0  0  0  0
 14  9  1  0  0  0  0
M  END
$$$$
