butane_opt
 OpenBabel08242015403D

 14  8  0  0  0  0  0  0  0  0999 V2000
   -3.9199    0.3614   -0.1129 C   0  0  0  0  0  0  0  0  0  0  0  0
   -2.6679   -0.7308    0.1441 C   0  0  0  0  0  1  0  0  0  0  0  0
   -4.8080   -0.2934    0.1384 H   0  0  0  0  0  0  0  0  0  0  0  0
   -4.1598    1.3321   -1.1829 H   0  0  0  0  0  0  0  0  0  0  0  0
   -4.0029    0.6453    0.5830 H   0  0  0  0  0  0  0  0  0  0  0  0
   -1.3948    0.1426    0.1178 C   0  0  0  0  0  0  0  0  0  0  0  0
   -2.7952   -0.9642   -0.3106 H   0  0  0  0  0  0  0  0  0  0  0  0
   -2.6028   -1.7305    1.3838 H   0  0  0  0  0  0  0  0  0  0  0  0
   -0.1938   -0.6248   -0.0934 C   0  0  0  0  0  1  0  0  0  0  0  0
   -1.3964    0.8206    1.0561 H   0  0  0  0  0  0  0  0  0  0  0  0
   -1.3566    0.4723   -0.6428 H   0  0  0  0  0  0  0  0  0  0  0  0
   -0.3673   -0.6409    0.3335 H   0  0  0  0  0  0  0  0  0  0  0  0
    0.7934    0.0605    0.5759 H   0  0  0  0  0  0  0  0  0  0  0  0
   -0.2350   -1.9169   -1.3031 H   0  0  0  0  0  0  0  0  0  0  0  0
  1  3  1  0  0  0  0
  1  2  1  0  0  0  0
  1  5  1  0  0  0  0
  4  1  1  0  0  0  0
  6 12  1  0  0  0  0
  6 10  1  0  0  0  0
  9 13  1  0  0  0  0
 11  6  1  0  0  0  0
M  RAD  4   6   2   7   2   8   2  14   2
M  END
$$$$
