14
butane_opt
C  -3.921403   0.356044   0.051335
C  -2.589012  -0.675164  -0.091112
H  -4.833960  -0.375732  -0.133746
H  -4.314739   0.588004  -0.463768
H  -3.860605   1.076447   1.103069
C  -1.412166   0.086586   0.035355
H  -2.643603  -1.355012  -0.974462
H  -2.541128  -1.393885   0.933132
C  -0.271784  -0.608492   0.074478
H  -1.317207   0.768465   0.780752
H  -1.353558   0.827233  -1.017994
H  -0.120623  -1.688981   1.351638
H   0.714769  -0.028616  -0.426450
H  -0.432800  -0.785508  -0.496222
