butane_opt
 OpenBabel08242015403D

 14 11  0  0  0  0  0  0  0  0999 V2000
   -3.9598    0.2370   -0.0993 C   0  0  0  0  0  0  0  0  0  0  0  0
   -2.7216   -0.6160    0.2152 C   0  0  0  0  0  0  0  0  0  0  0  0
   -4.9639   -0.4203    0.1306 H   0  0  0  0  0  0  0  0  0  0  0  0
   -3.8964    1.0608   -1.1277 H   0  0  0  0  0  0  0  0  0  0  0  0
   -4.0729    0.4102    0.5293 H   0  0  0  0  0  0  0  0  0  0  0  0
   -1.3849    0.3148    0.0868 C   0  0  0  0  0  0  0  0  0  0  0  0
   -2.4557   -1.0460   -0.4060 H   0  0  0  0  0  0  0  0  0  0  0  0
   -2.9402   -1.4269    1.3141 H   0  0  0  0  0  0  0  0  0  0  0  0
   -0.1517   -0.7449   -0.1296 C   0  0  0  0  0  0  0  0  0  0  0  0
   -1.3613    1.0220    0.9730 H   0  0  0  0  0  0  0  0  0  0  0  0
   -1.6148    0.7701   -0.8449 H   0  0  0  0  0  0  0  0  0  0  0  0
   -0.1856   -0.7161    0.3303 H   0  0  0  0  0  0  0  0  0  0  0  0
    0.7174   -0.3483    0.9654 H   0  0  0  0  0  0  0  0  0  0  0  0
    0.3759   -2.0906   -1.3671 H   0  0  0  0  0  0  0  0  0  0  0  0
  1  3  1  0  0  0  0
  1  2  1  0  0  0  0
  1  5  1  0  0  0  0
  2  8  1  0  0  0  0
  4  1  1  0  0  0  0
  6  2  1  0  0  0  0
  6 10  1  0  0  0  0
  7  2  1  0  0  0  0
  9  6  1  0  0  0  0
  9 13  1  0  0  0  0
 11  6  1  0  0  0  0
M  RAD  3   9   3  12   2  14   2
M  END
$$$$
