butane_opt
 OpenBabel08242015403D

 14 12  0  0  0  0  0  0  0  0999 V2000
   -4.0192    0.2946    0.1160 C   0  0  0  0  0  0  0  0  0  0  0  0
   -2.7410   -0.6639    0.0213 C   0  0  0  0  0  0  0  0  0  0  0  0
   -4.7925   -0.1830   -0.9161 H   0  0  0  0  0  0  0  0  0  0  0  0
   -3.8020    0.4859   -0.5907 H   0  0  0  0  0  0  0  0  0  0  0  0
   -4.4439    1.5216    1.2555 H   0  0  0  0  0  0  0  0  0  0  0  0
   -1.3393    0.1588   -0.1140 C   0  0  0  0  0  0  0  0  0  0  0  0
   -2.6786   -1.1510   -0.7093 H   0  0  0  0  0  0  0  0  0  0  0  0
   -2.6871   -1.4004    1.0392 H   0  0  0  0  0  0  0  0  0  0  0  0
   -0.1019   -0.6855    0.0561 C   0  0  0  0  0  0  0  0  0  0  0  0
   -1.2134    0.7894    0.8807 H   0  0  0  0  0  0  0  0  0  0  0  0
   -1.1532    0.6672   -0.9214 H   0  0  0  0  0  0  0  0  0  0  0  0
   -0.2538   -1.3950    1.1880 H   0  0  0  0  0  0  0  0  0  0  0  0
    0.6769   -0.1607   -0.1021 H   0  0  0  0  0  0  0  0  0  0  0  0
   -0.2238   -0.9147   -0.5839 H   0  0  0  0  0  0  0  0  0  0  0  0
  2  1  1  0  0  0  0
  2  8  1  0  0  0  0
  3  1  1  0  0  0  0
  4  1  1  0  0  0  0
  6  2  1  0  0  0  0
  6  9  1  0  0  0  0
  6 10  1  0  0  0  0
  7  2  1  0  0  0  0
  9 12  1  0  0  0  0
 11  6  1  0  0  0  0
 13  9  1  0  0  0  0
 14  9  1  0  0  0  0
M  RAD  2   1   2   5   2
M  END
$$$$
