14
butane_opt
C  -4.038438   0.319939  -0.029124
C  -2.645359  -0.673901   0.153484
H  -5.038521  -0.259600   0.037224
H  -4.005860   1.232461  -1.017808
H  -4.433395   0.633574   0.596128
C  -1.335680   0.119234  -0.010970
H  -2.588580  -1.119866  -0.544830
H  -2.715705  -1.490240   1.222764
C  -0.151828  -0.627689  -0.028778
H  -1.352412   0.846935   1.014307
H  -1.398978   0.549485  -0.709780
H  -0.445092  -0.616960   0.544458
H   0.811046  -0.003913   0.591303
H   0.190948  -1.916689  -1.419935
