butane_opt
 OpenBabel08242015403D

 14 13  0  0  0  0  0  0  0  0999 V2000
   -3.9117    0.2741   -0.0974 C   0  0  0  0  0  0  0  0  0  0  0  0
   -2.6503   -0.6128    0.2243 C   0  0  0  0  0  0  0  0  0  0  0  0
   -4.8023   -0.2795   -0.4457 H   0  0  0  0  0  0  0  0  0  0  0  0
   -3.3783    0.8863   -0.9842 H   0  0  0  0  0  0  0  0  0  0  0  0
   -4.2392    1.0487    0.9163 H   0  0  0  0  0  0  0  0  0  0  0  0
   -1.4641    0.0921    0.1006 C   0  0  0  0  0  0  0  0  0  0  0  0
   -2.7466   -1.1604   -0.5346 H   0  0  0  0  0  0  0  0  0  0  0  0
   -2.8336   -1.2731    1.1794 H   0  0  0  0  0  0  0  0  0  0  0  0
   -0.2034   -0.6413   -0.1018 C   0  0  0  0  0  0  0  0  0  0  0  0
   -1.0888    0.8465    1.0606 H   0  0  0  0  0  0  0  0  0  0  0  0
   -1.7900    0.8519   -1.0235 H   0  0  0  0  0  0  0  0  0  0  0  0
   -0.2906   -1.0820    0.7304 H   0  0  0  0  0  0  0  0  0  0  0  0
    0.9454    0.0061    0.2261 H   0  0  0  0  0  0  0  0  0  0  0  0
   -0.1158   -1.6396   -1.1761 H   0  0  0  0  0  0  0  0  0  0  0  0
  1  2  1  0  0  0  0
  1  5  1  0  0  0  0
  2  8  1  0  0  0  0
  3  1  1  0  0  0  0
  4  1  1  0  0  0  0
  6  2  1  0  0  0  0
  6 10  1  0  0  0  0
  7  2  1  0  0  0  0
  9  6  1  0  0  0  0
  9 13  1  0  0  0  0
  9 12  1  0  0  0  0
 11  6  1  0  0  0  0
 14  9  1  0  0  0  0
M  END
$$$$
