butane_opt
 OpenBabel08242015403D

 14 10  0  0  0  0  0  0  0  0999 V2000
   -3.9532    0.2158    0.1026 C   0  0  0  0  0  0  0  0  0  0  0  0
   -2.7521   -0.5467   -0.0257 C   0  0  0  0  0  0  0  0  0  0  0  0
   -4.8713   -0.4995   -0.3127 H   0  0  0  0  0  0  0  0  0  0  0  0
   -3.9359    0.3003   -0.4708 H   0  0  0  0  0  0  0  0  0  0  0  0
   -4.0488    1.5106    1.4117 H   0  0  0  0  0  0  0  0  0  0  0  0
   -1.4047    0.2665   -0.0887 C   0  0  0  0  0  0  0  0  0  0  0  0
   -2.8553   -1.4268   -0.9707 H   0  0  0  0  0  0  0  0  0  0  0  0
   -3.0446   -1.1340    0.7816 H   0  0  0  0  0  0  0  0  0  0  0  0
   -0.0969   -0.8124    0.1030 C   0  0  0  0  0  0  0  0  0  0  0  0
   -1.5421    0.5925    0.5813 H   0  0  0  0  0  0  0  0  0  0  0  0
   -1.1458    1.4015   -1.2600 H   0  0  0  0  0  0  0  0  0  0  0  0
   -0.0350   -1.4983    1.1662 H   0  0  0  0  0  0  0  0  0  0  0  0
    0.9695   -0.1514    0.0498 H   0  0  0  0  0  0  0  0  0  0  0  0
    0.0006   -1.0498   -0.5346 H   0  0  0  0  0  0  0  0  0  0  0  0
  2  1  1  0  0  0  0
  2  8  1  0  0  0  0
  3  1  1  0  0  0  0
  6  2  1  0  0  0  0
  6  9  1  0  0  0  0
  6 10  1  0  0  0  0
  7  2  1  0  0  0  0
  9 12  1  0  0  0  0
 13  9  1  0  0  0  0
 14  9  1  0  0  0  0
M  RAD  5   1   3   4   2   5   2   6   2  11   2
M  END
$$$$
