14
butane_opt
C  -3.896800   0.235460  -0.150076
C  -2.716358  -0.559975   0.207846
H  -4.780048  -0.383888   0.364348
H  -3.822111   1.011121  -1.127379
H  -3.826483   0.594749   0.535483
C  -1.385999   0.217079   0.093801
H  -2.566583  -0.807136  -0.309088
H  -2.986277  -1.644997   1.408929
C  -0.209541  -0.703048  -0.107504
H  -1.246238   0.970514   1.146336
H  -1.647783   0.791543  -0.734208
H  -0.390267  -0.720452   0.213179
H   0.558163  -0.277818   0.880281
H   0.179961  -2.298127  -1.535658
