butane_opt
 OpenBabel08242015403D

 14 12  0  0  0  0  0  0  0  0999 V2000
   -3.9291    0.3159   -0.1584 C   0  0  0  0  0  0  0  0  0  0  0  0
   -2.6291   -0.6446    0.2511 C   0  0  0  0  0  0  0  0  0  0  0  0
   -4.8523   -0.1868   -0.6185 H   0  0  0  0  0  0  0  0  0  0  0  0
   -3.5253    0.5318   -0.7772 H   0  0  0  0  0  0  0  0  0  0  0  0
   -4.5486    1.2461    0.7360 H   0  0  0  0  0  0  0  0  0  0  0  0
   -1.4204    0.1086    0.1382 C   0  0  0  0  0  0  0  0  0  0  0  0
   -2.5068   -0.9894   -0.2752 H   0  0  0  0  0  0  0  0  0  0  0  0
   -2.7651   -1.6209    1.2773 H   0  0  0  0  0  0  0  0  0  0  0  0
   -0.2001   -0.6719   -0.1572 C   0  0  0  0  0  0  0  0  0  0  0  0
   -1.0173    0.8733    1.1791 H   0  0  0  0  0  0  0  0  0  0  0  0
   -1.7651    0.5643   -0.5021 H   0  0  0  0  0  0  0  0  0  0  0  0
   -0.3535   -1.1735    0.6925 H   0  0  0  0  0  0  0  0  0  0  0  0
    0.9764    0.2934   -0.1725 H   0  0  0  0  0  0  0  0  0  0  0  0
   -0.5371   -1.2885   -0.9246 H   0  0  0  0  0  0  0  0  0  0  0  0
  1  2  1  0  0  0  0
  1  5  1  0  0  0  0
  2  8  1  0  0  0  0
  3  1  1  0  0  0  0
  4  1  1  0  0  0  0
  6  2  1  0  0  0  0
  6 10  1  0  0  0  0
  7  2  1  0  0  0  0
  9  6  1  0  0  0  0
  9 12  1  0  0  0  0
 11  6  1  0  0  0  0
 14  9  1  0  0  0  0
M  RAD  2   9   2  13   2
M  END
$$$$
