14
butane_opt
C  -3.933307   0.281631  -0.107079
C  -2.636775  -0.635022   0.260601
H  -4.703741  -0.128786  -0.713587
H  -3.533749   0.486633  -0.887560
H  -4.608768   1.333559   1.011642
C  -1.435178   0.103374   0.042094
H  -2.733191  -1.253767  -0.567981
H  -2.607737  -1.455993   1.312125
C  -0.155420  -0.655400  -0.091565
H  -1.432139   0.982413   1.144393
H  -1.382107   0.756978  -0.751960
H  -0.284805  -1.106067   0.752572
H   0.733711   0.056573  -0.113691
H  -0.524083  -1.288739  -0.982186
