butane_opt
 OpenBabel08242015403D

 14 13  0  0  0  0  0  0  0  0999 V2000
   -3.9646    0.3284    0.2109 C   0  0  0  0  0  0  0  0  0  0  0  0
   -2.6636   -0.7093   -0.0896 C   0  0  0  0  0  0  0  0  0  0  0  0
   -4.7727   -0.0740    0.2299 H   0  0  0  0  0  0  0  0  0  0  0  0
   -3.8881    0.8343   -0.5439 H   0  0  0  0  0  0  0  0  0  0  0  0
   -4.0476    1.2780    1.1650 H   0  0  0  0  0  0  0  0  0  0  0  0
   -1.3594    0.0975   -0.2674 C   0  0  0  0  0  0  0  0  0  0  0  0
   -3.0170   -1.6336   -1.1901 H   0  0  0  0  0  0  0  0  0  0  0  0
   -2.3853   -1.0391    0.5818 H   0  0  0  0  0  0  0  0  0  0  0  0
   -0.2416   -0.5929    0.2211 C   0  0  0  0  0  0  0  0  0  0  0  0
   -1.6736    0.4100    0.4476 H   0  0  0  0  0  0  0  0  0  0  0  0
   -1.0627    0.8550   -1.2341 H   0  0  0  0  0  0  0  0  0  0  0  0
   -0.3876   -1.1014    1.1835 H   0  0  0  0  0  0  0  0  0  0  0  0
    0.7052   -0.0464    0.5907 H   0  0  0  0  0  0  0  0  0  0  0  0
    0.1766   -1.4075   -0.6927 H   0  0  0  0  0  0  0  0  0  0  0  0
  1  3  1  0  0  0  0
  1  5  1  0  0  0  0
  2  1  1  0  0  0  0
  2  8  1  0  0  0  0
  4  1  1  0  0  0  0
  6  2  1  0  0  0  0
  6  9  1  0  0  0  0
  6 10  1  0  0  0  0
  7  2  1  0  0  0  0
  9 13  1  0  0  0  0
  9 12  1  0  0  0  0
 11  6  1  0  0  0  0
 14  9  1  0  0  0  0
M  END
$$$$
