butane_opt
 OpenBabel08242015403D

 14  8  0  0  0  0  0  0  0  0999 V2000
   -3.8586    0.1937   -0.0723 C   0  0  0  0  0  1  0  0  0  0  0  0
   -2.7246   -0.5712    0.1348 C   0  0  0  0  0  0  0  0  0  0  0  0
   -4.7548   -0.3873    0.8011 H   0  0  0  0  0  0  0  0  0  0  0  0
   -4.0293    1.5612   -1.4965 H   0  0  0  0  0  0  0  0  0  0  0  0
   -3.8023    0.1916    0.2947 H   0  0  0  0  0  0  0  0  0  0  0  0
   -1.4525    0.2704    0.1163 C   0  0  0  0  0  0  0  0  0  0  0  0
   -2.5595   -1.4553   -0.9439 H   0  0  0  0  0  0  0  0  0  0  0  0
   -2.9026   -1.0314    0.9792 H   0  0  0  0  0  0  0  0  0  0  0  0
   -0.1929   -0.7571   -0.0599 C   0  0  0  0  0  0  0  0  0  0  0  0
   -1.3551    1.1710    1.2143 H   0  0  0  0  0  0  0  0  0  0  0  0
   -1.7397    0.8834   -0.6221 H   0  0  0  0  0  0  0  0  0  0  0  0
   -0.0490   -1.0980    0.6322 H   0  0  0  0  0  0  0  0  0  0  0  0
    0.9266   -0.1312    0.2722 H   0  0  0  0  0  0  0  0  0  0  0  0
   -0.0103   -1.7940   -1.1806 H   0  0  0  0  0  0  0  0  0  0  0  0
  1  3  1  0  0  0  0
  2  5  1  0  0  0  0
  2  8  1  0  0  0  0
  6 10  1  0  0  0  0
  9  6  1  0  0  0  0
  9 13  1  0  0  0  0
  9 12  1  0  0  0  0
 11  6  1  0  0  0  0
M  RAD  6   2   3   4   2   6   2   7   2   9   2  14   2
M  END
$$$$
