butane_opt
 OpenBabel08242015403D

 14 13  0  0  0  0  0  0  0  0999 V2000
   -3.9083    0.2290   -0.0239 C   0  0  0  0  0  0  0  0  0  0  0  0
   -2.7573   -0.6023    0.0727 C   0  0  0  0  0  0  0  0  0  0  0  0
   -4.8218   -0.5650   -0.1677 H   0  0  0  0  0  0  0  0  0  0  0  0
   -3.5735    0.7715   -0.9832 H   0  0  0  0  0  0  0  0  0  0  0  0
   -4.0773    0.9620    0.6815 H   0  0  0  0  0  0  0  0  0  0  0  0
   -1.4134    0.2813    0.1006 C   0  0  0  0  0  0  0  0  0  0  0  0
   -2.7657   -1.1026   -0.5943 H   0  0  0  0  0  0  0  0  0  0  0  0
   -2.8641   -1.0836    0.9561 H   0  0  0  0  0  0  0  0  0  0  0  0
   -0.1162   -0.7416   -0.0273 C   0  0  0  0  0  0  0  0  0  0  0  0
   -1.4560    1.1238    1.1557 H   0  0  0  0  0  0  0  0  0  0  0  0
   -1.5529    0.6987   -0.7186 H   0  0  0  0  0  0  0  0  0  0  0  0
    0.1552   -1.7065    1.0488 H   0  0  0  0  0  0  0  0  0  0  0  0
    0.6343   -0.3649   -0.5789 H   0  0  0  0  0  0  0  0  0  0  0  0
   -0.3466   -1.2273   -0.7896 H   0  0  0  0  0  0  0  0  0  0  0  0
  1  2  1  0  0  0  0
  1  5  1  0  0  0  0
  2  6  1  0  0  0  0
  2  8  1  0  0  0  0
  3  1  1  0  0  0  0
  4  1  1  0  0  0  0
  6 10  1  0  0  0  0
  7  2  1  0  0  0  0
  9  6  1  0  0  0  0
  9 12  1  0  0  0  0
 11  6  1  0  0  0  0
 13  9  1  0  0  0  0
 14  9  1  0  0  0  0
M  END
$$$$
