14
butane_opt
C  -3.908615   0.231400  -0.125068
C  -2.698553  -0.518259   0.203340
H  -4.966237  -0.546797  -0.013925
H  -3.743334   0.962143  -1.025104
H  -3.720589   0.450781   0.571981
C  -1.506427   0.202380   0.101663
H  -2.657832  -0.922124  -0.389227
H  -2.557782  -1.630171   1.433033
C  -0.117244  -0.736756  -0.088340
H  -1.332122   1.055851   0.924750
H  -1.428499   0.901488  -0.821695
H  -0.395887  -0.603779   0.342569
H   0.664507  -0.102741   0.691762
H  -0.081145  -2.253633  -1.511088
