butane_opt
 OpenBabel08242015403D

 14 13  0  0  0  0  0  0  0  0999 V2000
   -3.9605    0.1946    0.0339 C   0  0  0  0  0  0  0  0  0  0  0  0
   -2.7370   -0.5897    0.0427 C   0  0  0  0  0  0  0  0  0  0  0  0
   -4.9493   -0.3829    0.0632 H   0  0  0  0  0  0  0  0  0  0  0  0
   -3.9890    0.7757   -0.7530 H   0  0  0  0  0  0  0  0  0  0  0  0
   -3.7285    0.8571    0.9211 H   0  0  0  0  0  0  0  0  0  0  0  0
   -1.4605    0.2929   -0.0136 C   0  0  0  0  0  0  0  0  0  0  0  0
   -2.6748   -1.1993   -0.8211 H   0  0  0  0  0  0  0  0  0  0  0  0
   -2.8519   -1.0755    0.8185 H   0  0  0  0  0  0  0  0  0  0  0  0
   -0.1109   -0.7486    0.0419 C   0  0  0  0  0  0  0  0  0  0  0  0
   -1.4950    0.6487    0.7159 H   0  0  0  0  0  0  0  0  0  0  0  0
   -1.2558    1.2104   -1.1323 H   0  0  0  0  0  0  0  0  0  0  0  0
    0.2140   -1.1142    0.8642 H   0  0  0  0  0  0  0  0  0  0  0  0
    0.6719   -0.4035    0.4290 H   0  0  0  0  0  0  0  0  0  0  0  0
    0.2516   -1.6211   -0.9350 H   0  0  0  0  0  0  0  0  0  0  0  0
  1  2  1  0  0  0  0
  1  3  1  0  0  0  0
  1  5  1  0  0  0  0
  2  8  1  0  0  0  0
  4  1  1  0  0  0  0
  6  9  1  0  0  0  0
  6  2  1  0  0  0  0
  6 10  1  0  0  0  0
  7  2  1  0  0  0  0
  9 13  1  0  0  0  0
  9 12  1  0  0  0  0
 11  6  1  0  0  0  0
 14  9  1  0  0  0  0
M  END
$$$$
