butane_opt
 OpenBabel08242015403D

 14  8  0  0  0  0  0  0  0  0999 V2000
   -3.9627    0.2126    0.1880 C   0  0  0  0  0  1  0  0  0  0  0  0
   -2.7499   -0.6243   -0.0557 C   0  0  0  0  0  0  0  0  0  0  0  0
   -4.8110   -0.4113   -0.7340 H   0  0  0  0  0  0  0  0  0  0  0  0
   -3.5911    0.1575   -0.3063 H   0  0  0  0  0  0  0  0  0  0  0  0
   -4.2933    1.6684    1.4458 H   0  0  0  0  0  0  0  0  0  0  0  0
   -1.4210    0.3133   -0.1685 C   0  0  0  0  0  1  0  0  0  0  0  0
   -2.9492   -1.3723   -0.9243 H   0  0  0  0  0  0  0  0  0  0  0  0
   -2.6807   -0.8687    0.6444 H   0  0  0  0  0  0  0  0  0  0  0  0
   -0.1143   -0.7909    0.1860 C   0  0  0  0  0  0  0  0  0  0  0  0
   -1.2200    0.5593    0.3725 H   0  0  0  0  0  0  0  0  0  0  0  0
   -1.4502    1.2864   -1.3649 H   0  0  0  0  0  0  0  0  0  0  0  0
   -0.1045   -1.6622    1.2659 H   0  0  0  0  0  0  0  0  0  0  0  0
    0.7801   -0.1279   -0.1330 H   0  0  0  0  0  0  0  0  0  0  0  0
    0.2783   -1.0681   -0.5058 H   0  0  0  0  0  0  0  0  0  0  0  0
  2  8  1  0  0  0  0
  3  1  1  0  0  0  0
  4  2  1  0  0  0  0
  6  9  1  0  0  0  0
  7  2  1  0  0  0  0
  9 12  1  0  0  0  0
 13  9  1  0  0  0  0
 14  9  1  0  0  0  0
M  RAD  4   2   2   5   2  10   2  11   2
M  END
$$$$
