butane_opt
 OpenBabel08242015403D

 14 12  0  0  0  0  0  0  0  0999 V2000
   -3.9141    0.2123   -0.0549 C   0  0  0  0  0  0  0  0  0  0  0  0
   -2.6931   -0.5548    0.1173 C   0  0  0  0  0  0  0  0  0  0  0  0
   -4.9179   -0.3915   -0.3083 H   0  0  0  0  0  0  0  0  0  0  0  0
   -3.6835    0.9401   -1.0861 H   0  0  0  0  0  0  0  0  0  0  0  0
   -3.8262    0.9348    0.7452 H   0  0  0  0  0  0  0  0  0  0  0  0
   -1.4283    0.1830    0.0991 C   0  0  0  0  0  0  0  0  0  0  0  0
   -2.8386   -1.0111   -0.5867 H   0  0  0  0  0  0  0  0  0  0  0  0
   -2.8099   -1.2116    1.0373 H   0  0  0  0  0  0  0  0  0  0  0  0
   -0.1617   -0.7302   -0.0571 C   0  0  0  0  0  0  0  0  0  0  0  0
   -1.2722    1.1762    1.3253 H   0  0  0  0  0  0  0  0  0  0  0  0
   -1.6096    0.6952   -0.6803 H   0  0  0  0  0  0  0  0  0  0  0  0
   -0.0555   -1.5523    1.0027 H   0  0  0  0  0  0  0  0  0  0  0  0
    0.7321   -0.0582   -0.4286 H   0  0  0  0  0  0  0  0  0  0  0  0
   -0.3806   -1.3415   -0.8529 H   0  0  0  0  0  0  0  0  0  0  0  0
  1  2  1  0  0  0  0
  1  5  1  0  0  0  0
  2  8  1  0  0  0  0
  3  1  1  0  0  0  0
  4  1  1  0  0  0  0
  6  2  1  0  0  0  0
  7  2  1  0  0  0  0
  9  6  1  0  0  0  0
  9 12  1  0  0  0  0
 11  6  1  0  0  0  0
 13  9  1  0  0  0  0
 14  9  1  0  0  0  0
M  RAD  2   6   2  10   2
M  END
$$$$
