14
butane_opt
C  -3.972680   0.266847   0.183591
C  -2.708192  -0.601218  -0.215889
H  -5.074330  -0.468974   0.795462
H  -4.626491   1.029932  -0.704110
H  -3.503244   0.649810   0.937467
C  -1.388417   0.214807  -0.108188
H  -2.664294  -1.618715  -1.401280
H  -2.505169  -0.997669   0.415361
C  -0.135445  -0.703838   0.258645
H  -1.351359   0.742325   0.683662
H  -1.390493   1.062405  -1.290922
H  -0.207020  -1.623761   1.265553
H   0.841033  -0.043820  -0.123342
H  -0.063510  -1.321595  -0.546832
