butane_opt
 OpenBabel08242015403D

 14 13  0  0  0  0  0  0  0  0999 V2000
   -3.9508    0.2058   -0.2006 C   0  0  0  0  0  0  0  0  0  0  0  0
   -2.7737   -0.6062    0.3128 C   0  0  0  0  0  0  0  0  0  0  0  0
   -4.8470   -0.2738   -0.6681 H   0  0  0  0  0  0  0  0  0  0  0  0
   -3.7145    0.5558   -0.8946 H   0  0  0  0  0  0  0  0  0  0  0  0
   -4.1769    1.2394    0.7944 H   0  0  0  0  0  0  0  0  0  0  0  0
   -1.4427    0.2937    0.1692 C   0  0  0  0  0  0  0  0  0  0  0  0
   -2.6860   -1.1462   -0.4425 H   0  0  0  0  0  0  0  0  0  0  0  0
   -2.8102   -1.5741    1.3994 H   0  0  0  0  0  0  0  0  0  0  0  0
   -0.0467   -0.7135   -0.1549 C   0  0  0  0  0  0  0  0  0  0  0  0
   -1.1892    1.1612    1.1403 H   0  0  0  0  0  0  0  0  0  0  0  0
   -1.7217    0.7394   -0.6779 H   0  0  0  0  0  0  0  0  0  0  0  0
    0.0524   -1.4700    0.7486 H   0  0  0  0  0  0  0  0  0  0  0  0
    0.6750   -0.2536   -0.2594 H   0  0  0  0  0  0  0  0  0  0  0  0
   -0.0388   -1.6356   -1.2079 H   0  0  0  0  0  0  0  0  0  0  0  0
  1  2  1  0  0  0  0
  1  5  1  0  0  0  0
  2  8  1  0  0  0  0
  3  1  1  0  0  0  0
  4  1  1  0  0  0  0
  6  2  1  0  0  0  0
  6 10  1  0  0  0  0
  7  2  1  0  0  0  0
  9  6  1  0  0  0  0
  9 12  1  0  0  0  0
 11  6  1  0  0  0  0
 13  9  1  0  0  0  0
 14  9  1  0  0  0  0
M  END
$$$$
