butane_opt
 OpenBabel08242015403D

 14 13  0  0  0  0  0  0  0  0999 V2000
   -3.9616    0.2329    0.0998 C   0  0  0  0  0  0  0  0  0  0  0  0
   -2.7132   -0.6032    0.0136 C   0  0  0  0  0  0  0  0  0  0  0  0
   -5.0032   -0.3813   -0.4303 H   0  0  0  0  0  0  0  0  0  0  0  0
   -3.8241    0.5969   -0.5766 H   0  0  0  0  0  0  0  0  0  0  0  0
   -4.2481    1.2405    1.1373 H   0  0  0  0  0  0  0  0  0  0  0  0
   -1.3950    0.2379   -0.0751 C   0  0  0  0  0  0  0  0  0  0  0  0
   -2.8777   -1.3082   -0.9223 H   0  0  0  0  0  0  0  0  0  0  0  0
   -2.6433   -1.4307    0.8537 H   0  0  0  0  0  0  0  0  0  0  0  0
   -0.1476   -0.6798    0.1118 C   0  0  0  0  0  0  0  0  0  0  0  0
   -1.4892    0.5885    0.5198 H   0  0  0  0  0  0  0  0  0  0  0  0
   -1.5099    1.1522   -1.1836 H   0  0  0  0  0  0  0  0  0  0  0  0
    0.2803   -1.3573    1.0085 H   0  0  0  0  0  0  0  0  0  0  0  0
    0.7232   -0.2822    0.2748 H   0  0  0  0  0  0  0  0  0  0  0  0
    0.1491   -1.5577   -0.9937 H   0  0  0  0  0  0  0  0  0  0  0  0
  1  5  1  0  0  0  0
  2  1  1  0  0  0  0
  2  8  1  0  0  0  0
  3  1  1  0  0  0  0
  4  1  1  0  0  0  0
  6  2  1  0  0  0  0
  6  9  1  0  0  0  0
  6 10  1  0  0  0  0
  7  2  1  0  0  0  0
  9 13  1  0  0  0  0
  9 12  1  0  0  0  0
 11  6  1  0  0  0  0
 14  9  1  0  0  0  0
M  END
$$$$
