butane_opt
 OpenBabel08242015403D

 14 13  0  0  0  0  0  0  0  0999 V2000
   -3.9717    0.3390    0.0992 C   0  0  0  0  0  0  0  0  0  0  0  0
   -2.6716   -0.6884    0.1029 C   0  0  0  0  0  0  0  0  0  0  0  0
   -4.7646   -0.1418   -0.6842 H   0  0  0  0  0  0  0  0  0  0  0  0
   -3.5950    0.7101   -0.7037 H   0  0  0  0  0  0  0  0  0  0  0  0
   -4.1931    1.3610    1.1253 H   0  0  0  0  0  0  0  0  0  0  0  0
   -1.3313    0.0631   -0.1190 C   0  0  0  0  0  0  0  0  0  0  0  0
   -2.6719   -1.5346   -0.9681 H   0  0  0  0  0  0  0  0  0  0  0  0
   -2.5964   -1.2916    0.8796 H   0  0  0  0  0  0  0  0  0  0  0  0
   -0.2558   -0.5832    0.0888 C   0  0  0  0  0  0  0  0  0  0  0  0
   -1.4614    0.7244    0.6079 H   0  0  0  0  0  0  0  0  0  0  0  0
   -1.2569    0.8423   -1.0858 H   0  0  0  0  0  0  0  0  0  0  0  0
   -0.2446   -1.1735    0.8604 H   0  0  0  0  0  0  0  0  0  0  0  0
    0.6114   -0.0911    0.0780 H   0  0  0  0  0  0  0  0  0  0  0  0
   -0.1401   -1.4186   -0.7211 H   0  0  0  0  0  0  0  0  0  0  0  0
  1  2  1  0  0  0  0
  1  5  1  0  0  0  0
  2  8  1  0  0  0  0
  3  1  1  0  0  0  0
  4  1  1  0  0  0  0
  6  9  1  0  0  0  0
  6  2  1  0  0  0  0
  6 10  1  0  0  0  0
  7  2  1  0  0  0  0
  9 12  1  0  0  0  0
 11  6  1  0  0  0  0
 13  9  1  0  0  0  0
 14  9  1  0  0  0  0
M  END
$$$$
