14
butane_opt
C  -3.953527   0.275093  -0.154564
C  -2.707770  -0.624534   0.305241
H  -4.728977  -0.336619  -0.680743
H  -3.813731   0.545339  -0.880583
H  -4.472970   1.365753   0.808859
C  -1.356909   0.186299   0.143870
H  -2.446321  -1.408276  -0.515986
H  -2.817938  -1.353718   1.171788
C  -0.221882  -0.666860  -0.112560
H  -1.216635   0.761116   0.991889
H  -1.227411   0.968437  -0.800268
H   0.068480  -1.317214   0.722563
H   0.724191  -0.094082  -0.367110
H  -0.213615  -1.638747  -1.185584
