butane_opt
 OpenBabel08242015403D

 14 11  0  0  0  0  0  0  0  0999 V2000
   -3.8561    0.1908    0.1118 C   0  0  0  0  0  0  0  0  0  0  0  0
   -2.7369   -0.5806   -0.1094 C   0  0  0  0  0  0  0  0  0  0  0  0
   -4.7208   -0.2892    0.0882 H   0  0  0  0  0  0  0  0  0  0  0  0
   -3.7882    0.4756   -0.5022 H   0  0  0  0  0  0  0  0  0  0  0  0
   -3.7508    1.1977    1.1720 H   0  0  0  0  0  0  0  0  0  0  0  0
   -1.4703    0.2538   -0.0555 C   0  0  0  0  0  0  0  0  0  0  0  0
   -3.0033   -1.5012   -1.2155 H   0  0  0  0  0  0  0  0  0  0  0  0
   -2.4768   -0.9819    0.6237 H   0  0  0  0  0  0  0  0  0  0  0  0
   -0.1454   -0.7517    0.1775 C   0  0  0  0  0  0  0  0  0  0  0  0
   -1.8027    0.9232    0.5721 H   0  0  0  0  0  0  0  0  0  0  0  0
   -1.4442    1.2801   -1.2184 H   0  0  0  0  0  0  0  0  0  0  0  0
    0.2476   -1.7019    1.3884 H   0  0  0  0  0  0  0  0  0  0  0  0
    0.6760   -0.2770   -0.4898 H   0  0  0  0  0  0  0  0  0  0  0  0
   -0.4481   -0.9780   -0.3946 H   0  0  0  0  0  0  0  0  0  0  0  0
  1  5  1  0  0  0  0
  2  6  1  0  0  0  0
  2  1  1  0  0  0  0
  2  8  1  0  0  0  0
  3  1  1  0  0  0  0
  4  1  1  0  0  0  0
  6  9  1  0  0  0  0
  6 10  1  0  0  0  0
  7  2  1  0  0  0  0
 13  9  1  0  0  0  0
 14  9  1  0  0  0  0
M  RAD  4   6   2   9   2  11   2  12   2
M  END
$$$$
