14
butane_opt
C  -3.971669   0.338957   0.099242
C  -2.671598  -0.688417   0.102911
H  -4.764585  -0.141773  -0.684196
H  -3.594988   0.710110  -0.703722
H  -4.193126   1.360955   1.125324
C  -1.331287   0.063081  -0.118979
H  -2.671872  -1.534569  -0.968124
H  -2.596426  -1.291569   0.879595
C  -0.255803  -0.583216   0.088763
H  -1.461406   0.724404   0.607935
H  -1.256932   0.842319  -1.085792
H  -0.244569  -1.173483   0.860379
H   0.611412  -0.091123   0.077984
H  -0.140072  -1.418638  -0.721081
