butane_opt
 OpenBabel08242015403D

 14 13  0  0  0  0  0  0  0  0999 V2000
   -3.9354    0.2736    0.0202 C   0  0  0  0  0  0  0  0  0  0  0  0
   -2.6987   -0.6281    0.0557 C   0  0  0  0  0  0  0  0  0  0  0  0
   -4.8662   -0.3501   -0.0627 H   0  0  0  0  0  0  0  0  0  0  0  0
   -3.8877    0.8665   -0.8825 H   0  0  0  0  0  0  0  0  0  0  0  0
   -4.0689    1.0160    0.8967 H   0  0  0  0  0  0  0  0  0  0  0  0
   -1.3980    0.1843    0.0087 C   0  0  0  0  0  0  0  0  0  0  0  0
   -2.7050   -1.3226   -0.8320 H   0  0  0  0  0  0  0  0  0  0  0  0
   -2.6577   -1.2741    0.9351 H   0  0  0  0  0  0  0  0  0  0  0  0
   -0.1789   -0.6893    0.0272 C   0  0  0  0  0  0  0  0  0  0  0  0
   -1.3530    0.8365    0.8602 H   0  0  0  0  0  0  0  0  0  0  0  0
   -1.3792    0.8355   -0.9142 H   0  0  0  0  0  0  0  0  0  0  0  0
   -0.1437   -1.3109    0.9097 H   0  0  0  0  0  0  0  0  0  0  0  0
    0.7498   -0.0857    0.0225 H   0  0  0  0  0  0  0  0  0  0  0  0
   -0.1748   -1.3698   -0.8258 H   0  0  0  0  0  0  0  0  0  0  0  0
  1  2  1  0  0  0  0
  1  5  1  0  0  0  0
  2  8  1  0  0  0  0
  3  1  1  0  0  0  0
  4  1  1  0  0  0  0
  6  9  1  0  0  0  0
  6  2  1  0  0  0  0
  6 10  1  0  0  0  0
  7  2  1  0  0  0  0
  9 12  1  0  0  0  0
 11  6  1  0  0  0  0
 13  9  1  0  0  0  0
 14  9  1  0  0  0  0
M  END
$$$$
