butane_opt
 OpenBabel08242015403D

 14 13  0  0  0  0  0  0  0  0999 V2000
   -3.8955    0.2310    0.1434 C   0  0  0  0  0  0  0  0  0  0  0  0
   -2.7357   -0.5813   -0.0354 C   0  0  0  0  0  0  0  0  0  0  0  0
   -4.9347   -0.2838   -0.2517 H   0  0  0  0  0  0  0  0  0  0  0  0
   -4.0146    0.4785   -0.4802 H   0  0  0  0  0  0  0  0  0  0  0  0
   -3.7199    1.1521    1.2790 H   0  0  0  0  0  0  0  0  0  0  0  0
   -1.4482    0.2101   -0.2058 C   0  0  0  0  0  0  0  0  0  0  0  0
   -2.8574   -1.0723   -0.8360 H   0  0  0  0  0  0  0  0  0  0  0  0
   -2.6175   -1.3655    0.8448 H   0  0  0  0  0  0  0  0  0  0  0  0
   -0.1946   -0.7322    0.1595 C   0  0  0  0  0  0  0  0  0  0  0  0
   -1.5816    0.8890    0.5968 H   0  0  0  0  0  0  0  0  0  0  0  0
   -0.9067    1.0743   -1.2405 H   0  0  0  0  0  0  0  0  0  0  0  0
   -0.0860   -1.0804    0.9230 H   0  0  0  0  0  0  0  0  0  0  0  0
    0.6450   -0.2290    0.5240 H   0  0  0  0  0  0  0  0  0  0  0  0
    0.3300   -1.6130   -0.6965 H   0  0  0  0  0  0  0  0  0  0  0  0
  1  5  1  0  0  0  0
  2  1  1  0  0  0  0
  2  8  1  0  0  0  0
  3  1  1  0  0  0  0
  4  1  1  0  0  0  0
  6  2  1  0  0  0  0
  6  9  1  0  0  0  0
  6 10  1  0  0  0  0
  7  2  1  0  0  0  0
  9 13  1  0  0  0  0
  9 12  1  0  0  0  0
 11  6  1  0  0  0  0
 14  9  1  0  0  0  0
M  END
$$$$
