14
butane_opt
C  -3.955194   0.274525   0.004342
C  -2.686939  -0.637125   0.043687
H  -4.856968  -0.318320   0.119790
H  -3.990104   0.955585  -0.966106
H  -4.004410   0.865737   0.821994
C  -1.401203   0.186743   0.037982
H  -2.703665  -1.330798  -0.803024
H  -2.716485  -1.239961   0.923522
C  -0.158715  -0.683758   0.015678
H  -1.312911   0.893368   0.927726
H  -1.439380   0.820295  -0.866169
H  -0.150790  -1.325730   0.932606
H   0.741366  -0.102833  -0.009309
H  -0.165760  -1.370954  -0.860558
