14
butane_opt
C  -3.950771   0.205803  -0.200592
C  -2.773730  -0.606197   0.312810
H  -4.846953  -0.273766  -0.668126
H  -3.714535   0.555819  -0.894604
H  -4.176863   1.239400   0.794441
C  -1.442730   0.293703   0.169229
H  -2.685958  -1.146204  -0.442545
H  -2.810152  -1.574075   1.399407
C  -0.046735  -0.713481  -0.154865
H  -1.189216   1.161171   1.140284
H  -1.721660   0.739429  -0.677941
H   0.052430  -1.470039   0.748630
H   0.675024  -0.253552  -0.259359
H  -0.038759  -1.635607  -1.207863
