14
butane_opt
C  -3.865623   0.256262   0.005158
C  -2.666626  -0.610418   0.031839
H  -4.853805  -0.271747  -0.322334
H  -3.930213   0.672014  -0.834572
H  -3.848515   0.886219   0.756776
C  -1.477361   0.217464   0.072821
H  -2.825897  -1.034610  -0.686286
H  -2.868723  -1.514722   1.110711
C  -0.178657  -0.721851   0.012854
H  -1.479435   0.992183   0.814709
H  -1.626883   0.709475  -0.683576
H   0.136669  -1.271362   0.921925
H   0.824411  -0.105343  -0.328909
H  -0.311281  -1.227918  -0.783291
