14
butane_opt
C  -3.964783   0.327574   0.115905
C  -2.685742  -0.748220   0.014080
H  -4.809044  -0.294459  -0.752369
H  -3.914620   0.431551  -0.264326
H  -4.218034   1.504544   1.290672
C  -1.388794   0.203262  -0.090214
H  -2.529801  -1.414932  -0.895223
H  -2.829557  -1.172471   0.690247
C  -0.174772  -0.627715   0.113451
H  -1.527063   0.437502   0.496718
H  -1.366081   1.112346  -1.287285
H  -0.067405  -1.597377   1.171263
H   0.835302  -0.072628  -0.092896
H  -0.087396  -1.248574  -0.670786
