butane_opt
 OpenBabel08242015403D

 14 12  0  0  0  0  0  0  0  0999 V2000
   -4.0457    0.3152   -0.0590 C   0  0  0  0  0  0  0  0  0  0  0  0
   -2.6454   -0.7570    0.1451 C   0  0  0  0  0  0  0  0  0  0  0  0
   -4.8848   -0.1173    0.3774 H   0  0  0  0  0  0  0  0  0  0  0  0
   -3.9274    1.4080   -1.3164 H   0  0  0  0  0  0  0  0  0  0  0  0
   -4.2282    0.9032    0.6019 H   0  0  0  0  0  0  0  0  0  0  0  0
   -1.3804    0.1468    0.1024 C   0  0  0  0  0  0  0  0  0  0  0  0
   -2.8149   -1.5554   -0.9307 H   0  0  0  0  0  0  0  0  0  0  0  0
   -2.7033   -1.2199    0.8687 H   0  0  0  0  0  0  0  0  0  0  0  0
   -0.1388   -0.6124   -0.0468 C   0  0  0  0  0  0  0  0  0  0  0  0
   -1.3486    0.9952    1.0942 H   0  0  0  0  0  0  0  0  0  0  0  0
   -1.2731    0.5970   -0.7643 H   0  0  0  0  0  0  0  0  0  0  0  0
    0.0357   -1.1847    0.8625 H   0  0  0  0  0  0  0  0  0  0  0  0
    0.7845   -0.0572   -0.0722 H   0  0  0  0  0  0  0  0  0  0  0  0
   -0.1885   -1.3183   -0.9977 H   0  0  0  0  0  0  0  0  0  0  0  0
  1  2  1  0  0  0  0
  1  3  1  0  0  0  0
  1  5  1  0  0  0  0
  2  8  1  0  0  0  0
  6  2  1  0  0  0  0
  6 10  1  0  0  0  0
  7  2  1  0  0  0  0
  9  6  1  0  0  0  0
  9 12  1  0  0  0  0
 11  6  1  0  0  0  0
 13  9  1  0  0  0  0
 14  9  1  0  0  0  0
M  RAD  2   1   2   4   2
M  END
$$$$
