butane_opt
 OpenBabel08242015403D

 14 11  0  0  0  0  0  0  0  0999 V2000
   -3.8743    0.2589   -0.0463 C   0  0  0  0  0  0  0  0  0  0  0  0
   -2.6842   -0.5412    0.1870 C   0  0  0  0  0  0  0  0  0  0  0  0
   -4.8190   -0.4565   -0.1896 H   0  0  0  0  0  0  0  0  0  0  0  0
   -3.7463    1.1233   -1.0875 H   0  0  0  0  0  0  0  0  0  0  0  0
   -3.8984    0.7037    0.5354 H   0  0  0  0  0  0  0  0  0  0  0  0
   -1.4405    0.1127    0.0474 C   0  0  0  0  0  0  0  0  0  0  0  0
   -2.9195   -0.9995   -0.5181 H   0  0  0  0  0  0  0  0  0  0  0  0
   -2.9022   -1.5387    1.2801 H   0  0  0  0  0  0  0  0  0  0  0  0
   -0.1944   -0.7199   -0.0957 C   0  0  0  0  0  1  0  0  0  0  0  0
   -1.5724    1.0188    1.0649 H   0  0  0  0  0  0  0  0  0  0  0  0
   -1.4772    0.7395   -0.7821 H   0  0  0  0  0  0  0  0  0  0  0  0
   -0.4116   -0.6399    0.4558 H   0  0  0  0  0  0  0  0  0  0  0  0
    0.8333    0.0742    0.6347 H   0  0  0  0  0  0  0  0  0  0  0  0
    0.1734   -1.8230   -1.1866 H   0  0  0  0  0  0  0  0  0  0  0  0
  1  2  1  0  0  0  0
  1  5  1  0  0  0  0
  2  8  1  0  0  0  0
  3  1  1  0  0  0  0
  4  1  1  0  0  0  0
  6  2  1  0  0  0  0
  6 12  1  0  0  0  0
  6 10  1  0  0  0  0
  7  2  1  0  0  0  0
  9 13  1  0  0  0  0
 11  6  1  0  0  0  0
M  RAD  1  14   2
M  END
$$$$
