butane_opt
 OpenBabel08242015403D

 14 12  0  0  0  0  0  0  0  0999 V2000
   -4.0182    0.3419   -0.0503 C   0  0  0  0  0  0  0  0  0  0  0  0
   -2.7331   -0.7302    0.1933 C   0  0  0  0  0  0  0  0  0  0  0  0
   -4.7803    0.0090   -0.7371 H   0  0  0  0  0  0  0  0  0  0  0  0
   -3.5802    0.4307   -0.6726 H   0  0  0  0  0  0  0  0  0  0  0  0
   -4.3949    1.5979    1.0921 H   0  0  0  0  0  0  0  0  0  0  0  0
   -1.3483    0.1466   -0.0005 C   0  0  0  0  0  0  0  0  0  0  0  0
   -2.6227   -1.3821   -0.7116 H   0  0  0  0  0  0  0  0  0  0  0  0
   -2.7093   -1.5794    1.2404 H   0  0  0  0  0  0  0  0  0  0  0  0
   -0.1510   -0.6360   -0.0392 C   0  0  0  0  0  0  0  0  0  0  0  0
   -0.9394    0.9300    0.8252 H   0  0  0  0  0  0  0  0  0  0  0  0
   -1.4952    0.6651   -0.7971 H   0  0  0  0  0  0  0  0  0  0  0  0
   -0.2464   -1.3160    1.0455 H   0  0  0  0  0  0  0  0  0  0  0  0
    0.8638   -0.0378   -0.1256 H   0  0  0  0  0  0  0  0  0  0  0  0
   -0.1588   -1.2411   -0.8718 H   0  0  0  0  0  0  0  0  0  0  0  0
  1  2  1  0  0  0  0
  2  8  1  0  0  0  0
  3  1  1  0  0  0  0
  4  1  1  0  0  0  0
  6  2  1  0  0  0  0
  6 10  1  0  0  0  0
  7  2  1  0  0  0  0
  9  6  1  0  0  0  0
  9 12  1  0  0  0  0
 11  6  1  0  0  0  0
 13  9  1  0  0  0  0
 14  9  1  0  0  0  0
M  RAD  2   1   2   5   2
M  END
$$$$
