14
butane_opt
C  -3.911852   0.335456  -0.164444
C  -2.687505  -0.653319   0.259943
H  -4.834928  -0.273714   0.278462
H  -3.858853   1.302895  -1.302983
H  -4.111805   0.841173   0.763813
C  -1.381009   0.029327   0.086641
H  -2.606884  -1.062061  -0.448209
H  -2.846706  -1.514803   1.258726
C  -0.215753  -0.623983  -0.144757
H  -1.317665   1.050484   1.197481
H  -1.491089   0.486150  -0.614034
H  -0.573947  -0.696729   0.426002
H   0.952425   0.209959   0.643963
H  -0.023349  -1.830651  -1.278573
