butane_opt
 OpenBabel08242015403D

 14 11  0  0  0  0  0  0  0  0999 V2000
   -3.9097    0.2027    0.2372 C   0  0  0  0  0  0  0  0  0  0  0  0
   -2.8133   -0.5365   -0.2177 C   0  0  0  0  0  0  0  0  0  0  0  0
   -4.6073   -0.2963    0.5716 H   0  0  0  0  0  0  0  0  0  0  0  0
   -4.4076    1.1282   -0.9382 H   0  0  0  0  0  0  0  0  0  0  0  0
   -3.5823    0.5726    0.9152 H   0  0  0  0  0  0  0  0  0  0  0  0
   -1.4091    0.2592   -0.1409 C   0  0  0  0  0  0  0  0  0  0  0  0
   -3.1016   -1.6243   -1.3260 H   0  0  0  0  0  0  0  0  0  0  0  0
   -2.5174   -1.1107    0.5425 H   0  0  0  0  0  0  0  0  0  0  0  0
   -0.0687   -0.7390    0.2371 C   0  0  0  0  0  0  0  0  0  0  0  0
   -1.5474    0.6778    0.6373 H   0  0  0  0  0  0  0  0  0  0  0  0
   -1.2618    1.1473   -1.2178 H   0  0  0  0  0  0  0  0  0  0  0  0
   -0.1522   -1.3950    1.1179 H   0  0  0  0  0  0  0  0  0  0  0  0
    0.6004   -0.3250    0.2716 H   0  0  0  0  0  0  0  0  0  0  0  0
   -0.0078   -1.4516   -0.5757 H   0  0  0  0  0  0  0  0  0  0  0  0
  1  3  1  0  0  0  0
  1  5  1  0  0  0  0
  2  6  1  0  0  0  0
  2  1  1  0  0  0  0
  2  8  1  0  0  0  0
  6  9  1  0  0  0  0
  6 10  1  0  0  0  0
  9 13  1  0  0  0  0
  9 12  1  0  0  0  0
 11  6  1  0  0  0  0
 14  9  1  0  0  0  0
M  RAD  4   1   2   2   2   4   2   7   2
M  END
$$$$
