butane_opt
 OpenBabel08242015403D

 14 10  0  0  0  0  0  0  0  0999 V2000
   -3.8586    0.3029    0.1100 C   0  0  0  0  0  0  0  0  0  0  0  0
   -2.6745   -0.6628    0.0543 C   0  0  0  0  0  0  0  0  0  0  0  0
   -4.8253   -0.4064   -0.6459 H   0  0  0  0  0  0  0  0  0  0  0  0
   -3.7416    0.4138   -0.4075 H   0  0  0  0  0  0  0  0  0  0  0  0
   -4.3706    1.7178    1.4118 H   0  0  0  0  0  0  0  0  0  0  0  0
   -1.4290    0.1346   -0.1213 C   0  0  0  0  0  0  0  0  0  0  0  0
   -2.9608   -1.5500   -1.0244 H   0  0  0  0  0  0  0  0  0  0  0  0
   -2.8040   -1.0284    0.7033 H   0  0  0  0  0  0  0  0  0  0  0  0
   -0.1869   -0.6653    0.1033 C   0  0  0  0  0  0  0  0  0  0  0  0
   -1.4634    0.4961    0.5639 H   0  0  0  0  0  0  0  0  0  0  0  0
   -1.3223    1.0712   -1.3593 H   0  0  0  0  0  0  0  0  0  0  0  0
   -0.5272   -1.5102    1.1168 H   0  0  0  0  0  0  0  0  0  0  0  0
    0.6495    0.0314   -0.0252 H   0  0  0  0  0  0  0  0  0  0  0  0
    0.1270   -1.0340   -0.5681 H   0  0  0  0  0  0  0  0  0  0  0  0
  2  1  1  0  0  0  0
  2  8  1  0  0  0  0
  3  1  1  0  0  0  0
  6  2  1  0  0  0  0
  6  9  1  0  0  0  0
  6 10  1  0  0  0  0
  7  2  1  0  0  0  0
  9 12  1  0  0  0  0
 13  9  1  0  0  0  0
 14  9  1  0  0  0  0
M  RAD  5   1   3   4   2   5   2   6   2  11   2
M  END
$$$$
