butane_opt
 OpenBabel08242015403D

 14 13  0  0  0  0  0  0  0  0999 V2000
   -3.8814    0.2145    0.0935 C   0  0  0  0  0  0  0  0  0  0  0  0
   -2.6754   -0.5539   -0.0082 C   0  0  0  0  0  0  0  0  0  0  0  0
   -4.9698   -0.6456    0.1316 H   0  0  0  0  0  0  0  0  0  0  0  0
   -3.8699    0.8332   -0.6752 H   0  0  0  0  0  0  0  0  0  0  0  0
   -3.8392    0.7837    0.8238 H   0  0  0  0  0  0  0  0  0  0  0  0
   -1.4580    0.2811   -0.1350 C   0  0  0  0  0  0  0  0  0  0  0  0
   -2.8636   -1.0684   -0.6008 H   0  0  0  0  0  0  0  0  0  0  0  0
   -2.5871   -1.2629    0.9719 H   0  0  0  0  0  0  0  0  0  0  0  0
   -0.1895   -0.7451    0.0619 C   0  0  0  0  0  0  0  0  0  0  0  0
   -1.6904    0.9797    0.7145 H   0  0  0  0  0  0  0  0  0  0  0  0
   -1.3560    0.7056   -0.9227 H   0  0  0  0  0  0  0  0  0  0  0  0
   -0.3791   -1.1755    0.8844 H   0  0  0  0  0  0  0  0  0  0  0  0
    0.7670   -0.2385    0.8313 H   0  0  0  0  0  0  0  0  0  0  0  0
    0.2362   -1.7763   -0.9157 H   0  0  0  0  0  0  0  0  0  0  0  0
  1  3  1  0  0  0  0
  1  5  1  0  0  0  0
  2  1  1  0  0  0  0
  2  8  1  0  0  0  0
  4  1  1  0  0  0  0
  6  2  1  0  0  0  0
  6  9  1  0  0  0  0
  6 10  1  0  0  0  0
  7  2  1  0  0  0  0
  9 13  1  0  0  0  0
  9 12  1  0  0  0  0
 11  6  1  0  0  0  0
 14  9  1  0  0  0  0
M  END
$$$$
