butane_opt
 OpenBabel08242015403D

 14 12  0  0  0  0  0  0  0  0999 V2000
   -3.9593    0.1868   -0.1646 C   0  0  0  0  0  0  0  0  0  0  0  0
   -2.7669   -0.5111    0.1527 C   0  0  0  0  0  0  0  0  0  0  0  0
   -4.7665   -0.4638   -0.0253 H   0  0  0  0  0  0  0  0  0  0  0  0
   -3.7760    0.9379   -1.1250 H   0  0  0  0  0  0  0  0  0  0  0  0
   -4.0814    0.8153    0.5882 H   0  0  0  0  0  0  0  0  0  0  0  0
   -1.4718    0.2536    0.2969 C   0  0  0  0  0  0  0  0  0  0  0  0
   -2.5112   -1.3424   -0.7727 H   0  0  0  0  0  0  0  0  0  0  0  0
   -3.1375   -1.1655    1.0845 H   0  0  0  0  0  0  0  0  0  0  0  0
   -0.0126   -0.7334   -0.1311 C   0  0  0  0  0  0  0  0  0  0  0  0
   -1.1920    0.7142    1.1957 H   0  0  0  0  0  0  0  0  0  0  0  0
   -1.7132    0.7817   -0.4690 H   0  0  0  0  0  0  0  0  0  0  0  0
    0.5470   -1.6804    0.9708 H   0  0  0  0  0  0  0  0  0  0  0  0
    0.7775   -0.3197   -0.9403 H   0  0  0  0  0  0  0  0  0  0  0  0
   -0.6231   -1.0662   -0.8442 H   0  0  0  0  0  0  0  0  0  0  0  0
  1  3  1  0  0  0  0
  1  2  1  0  0  0  0
  1  5  1  0  0  0  0
  2  6  1  0  0  0  0
  2  8  1  0  0  0  0
  4  1  1  0  0  0  0
  6 10  1  0  0  0  0
  7  2  1  0  0  0  0
  9  6  1  0  0  0  0
 11  6  1  0  0  0  0
 13  9  1  0  0  0  0
 14  9  1  0  0  0  0
M  RAD  2   9   2  12   2
M  END
$$$$
