butane_opt
 OpenBabel08242015403D

 14 11  0  0  0  0  0  0  0  0999 V2000
   -3.8789    0.1977   -0.1073 C   0  0  0  0  0  0  0  0  0  0  0  0
   -2.7061   -0.4956    0.2135 C   0  0  0  0  0  0  0  0  0  0  0  0
   -4.8471   -0.5325   -0.0693 H   0  0  0  0  0  0  0  0  0  0  0  0
   -3.7370    1.0829   -1.2606 H   0  0  0  0  0  0  0  0  0  0  0  0
   -4.1654    0.5055    0.5862 H   0  0  0  0  0  0  0  0  0  0  0  0
   -1.4763    0.2459    0.1401 C   0  0  0  0  0  0  0  0  0  0  0  0
   -2.6085   -0.9801   -0.3805 H   0  0  0  0  0  0  0  0  0  0  0  0
   -2.9547   -1.3577    1.2437 H   0  0  0  0  0  0  0  0  0  0  0  0
   -0.1427   -0.7587   -0.0848 C   0  0  0  0  0  0  0  0  0  0  0  0
   -1.4925    0.6622    0.9066 H   0  0  0  0  0  0  0  0  0  0  0  0
   -1.4386    0.8063   -0.6657 H   0  0  0  0  0  0  0  0  0  0  0  0
   -0.1886   -0.7050    0.3014 H   0  0  0  0  0  0  0  0  0  0  0  0
    0.9175   -0.0861    0.2766 H   0  0  0  0  0  0  0  0  0  0  0  0
   -0.0336   -2.1319   -1.5551 H   0  0  0  0  0  0  0  0  0  0  0  0
  1  3  1  0  0  0  0
  1  2  1  0  0  0  0
  1  5  1  0  0  0  0
  2  8  1  0  0  0  0
  4  1  1  0  0  0  0
  6  2  1  0  0  0  0
  6 10  1  0  0  0  0
  7  2  1  0  0  0  0
  9  6  1  0  0  0  0
  9 13  1  0  0  0  0
 11  6  1  0  0  0  0
M  RAD  3   9   3  12   2  14   2
M  END
$$$$
