butane_opt
 OpenBabel08242015403D

 14 10  0  0  0  0  0  0  0  0999 V2000
   -3.8907    0.3126    0.0896 C   0  0  0  0  0  0  0  0  0  0  0  0
   -2.6695   -0.7105   -0.0410 C   0  0  0  0  0  0  0  0  0  0  0  0
   -4.7467   -0.1517   -0.1917 H   0  0  0  0  0  0  0  0  0  0  0  0
   -3.7664    0.7017   -0.6480 H   0  0  0  0  0  0  0  0  0  0  0  0
   -4.1838    1.3018    1.0821 H   0  0  0  0  0  0  0  0  0  0  0  0
   -1.4237    0.1339    0.0126 C   0  0  0  0  0  0  0  0  0  0  0  0
   -2.5860   -1.5912   -1.0655 H   0  0  0  0  0  0  0  0  0  0  0  0
   -2.2566   -1.0556    0.6126 H   0  0  0  0  0  0  0  0  0  0  0  0
   -0.2471   -0.6311    0.0621 C   0  0  0  0  0  1  0  0  0  0  0  0
   -1.2980    0.5773    0.7287 H   0  0  0  0  0  0  0  0  0  0  0  0
   -1.4412    0.8153   -1.0842 H   0  0  0  0  0  0  0  0  0  0  0  0
   -0.1957   -1.5800    1.3853 H   0  0  0  0  0  0  0  0  0  0  0  0
    0.6452   -0.1360   -0.4510 H   0  0  0  0  0  0  0  0  0  0  0  0
   -0.4285   -0.5930   -0.3070 H   0  0  0  0  0  0  0  0  0  0  0  0
  1  5  1  0  0  0  0
  2  1  1  0  0  0  0
  2  8  1  0  0  0  0
  3  1  1  0  0  0  0
  4  1  1  0  0  0  0
  6 10  1  0  0  0  0
  7  2  1  0  0  0  0
 11  6  1  0  0  0  0
 13  9  1  0  0  0  0
 14  6  1  0  0  0  0
M  RAD  3   2   2   6   2  12   2
M  END
$$$$
