14
butane_opt
C  -3.973776   0.316292  -0.144794
C  -2.691744  -0.677434   0.205956
H  -4.697898  -0.275447  -0.539668
H  -4.004101   0.413959  -0.616855
H  -4.496362   1.472837   1.008527
C  -1.325986   0.164578   0.138690
H  -2.692337  -1.069100  -0.556009
H  -2.942243  -1.597089   1.226106
C  -0.177110  -0.646859  -0.095236
H  -1.229983   0.776172   1.007254
H  -1.428096   0.820609  -0.858326
H   0.032784  -1.547836   0.886401
H   0.742250   0.016767  -0.243656
H  -0.304979  -1.350262  -1.047016
