butane_opt
 OpenBabel08242015403D

 14 13  0  0  0  0  0  0  0  0999 V2000
   -4.0191    0.2792    0.1570 C   0  0  0  0  0  0  0  0  0  0  0  0
   -2.7254   -0.6167   -0.0228 C   0  0  0  0  0  0  0  0  0  0  0  0
   -5.0292   -0.4583   -0.1282 H   0  0  0  0  0  0  0  0  0  0  0  0
   -3.8240    0.4300   -0.4785 H   0  0  0  0  0  0  0  0  0  0  0  0
   -3.8764    0.8896    1.0568 H   0  0  0  0  0  0  0  0  0  0  0  0
   -1.4199    0.2483   -0.1847 C   0  0  0  0  0  0  0  0  0  0  0  0
   -2.8671   -1.4572   -0.9852 H   0  0  0  0  0  0  0  0  0  0  0  0
   -2.7045   -0.9438    0.8259 H   0  0  0  0  0  0  0  0  0  0  0  0
   -0.0433   -0.7087    0.1371 C   0  0  0  0  0  0  0  0  0  0  0  0
   -1.4507    0.7006    0.4588 H   0  0  0  0  0  0  0  0  0  0  0  0
   -1.3203    1.0857   -1.1718 H   0  0  0  0  0  0  0  0  0  0  0  0
   -0.5565   -1.2844    1.1675 H   0  0  0  0  0  0  0  0  0  0  0  0
    0.6226   -0.3590    0.4987 H   0  0  0  0  0  0  0  0  0  0  0  0
    0.4801   -1.5747   -0.8568 H   0  0  0  0  0  0  0  0  0  0  0  0
  1  5  1  0  0  0  0
  2  1  1  0  0  0  0
  2  8  1  0  0  0  0
  3  1  1  0  0  0  0
  4  1  1  0  0  0  0
  6  2  1  0  0  0  0
  6  9  1  0  0  0  0
  6 10  1  0  0  0  0
  7  2  1  0  0  0  0
  9 13  1  0  0  0  0
  9 12  1  0  0  0  0
 11  6  1  0  0  0  0
 14  9  1  0  0  0  0
M  END
$$$$
