butane_opt
 OpenBabel08242015403D

 14 12  0  0  0  0  0  0  0  0999 V2000
   -4.0413    0.3321   -0.2042 C   0  0  0  0  0  0  0  0  0  0  0  0
   -2.6755   -0.7156    0.3073 C   0  0  0  0  0  0  0  0  0  0  0  0
   -4.8644   -0.1806   -0.6281 H   0  0  0  0  0  0  0  0  0  0  0  0
   -3.8223    0.7953   -1.0160 H   0  0  0  0  0  0  0  0  0  0  0  0
   -4.5452    1.3492    0.8536 H   0  0  0  0  0  0  0  0  0  0  0  0
   -1.3355    0.1302    0.2585 C   0  0  0  0  0  0  0  0  0  0  0  0
   -2.4280   -1.3665   -0.6299 H   0  0  0  0  0  0  0  0  0  0  0  0
   -3.0381   -1.5142    1.4154 H   0  0  0  0  0  0  0  0  0  0  0  0
   -0.1233   -0.6474   -0.2052 C   0  0  0  0  0  0  0  0  0  0  0  0
   -1.4071    0.6376    0.9494 H   0  0  0  0  0  0  0  0  0  0  0  0
   -1.5392    0.8792   -0.6646 H   0  0  0  0  0  0  0  0  0  0  0  0
    0.1643   -1.1701    0.7837 H   0  0  0  0  0  0  0  0  0  0  0  0
    1.0245    0.2511   -0.2985 H   0  0  0  0  0  0  0  0  0  0  0  0
   -0.4976   -1.3134   -1.1586 H   0  0  0  0  0  0  0  0  0  0  0  0
  1  2  1  0  0  0  0
  2  8  1  0  0  0  0
  3  1  1  0  0  0  0
  4  1  1  0  0  0  0
  6  2  1  0  0  0  0
  6 10  1  0  0  0  0
  7  2  1  0  0  0  0
  9  6  1  0  0  0  0
  9 12  1  0  0  0  0
 11  6  1  0  0  0  0
 13  9  1  0  0  0  0
 14  9  1  0  0  0  0
M  RAD  2   1   2   5   2
M  END
$$$$
