butane_opt
 OpenBabel08242015403D

 14 12  0  0  0  0  0  0  0  0999 V2000
   -3.9353    0.1976    0.1669 C   0  0  0  0  0  0  0  0  0  0  0  0
   -2.7746   -0.5696   -0.1657 C   0  0  0  0  0  0  0  0  0  0  0  0
   -4.9304   -0.3930    0.8256 H   0  0  0  0  0  0  0  0  0  0  0  0
   -4.2705    1.3689   -1.0262 H   0  0  0  0  0  0  0  0  0  0  0  0
   -3.5544    0.5735    0.7654 H   0  0  0  0  0  0  0  0  0  0  0  0
   -1.4312    0.3172   -0.1267 C   0  0  0  0  0  0  0  0  0  0  0  0
   -3.1151   -1.5898   -1.2168 H   0  0  0  0  0  0  0  0  0  0  0  0
   -2.7281   -1.0867    0.6994 H   0  0  0  0  0  0  0  0  0  0  0  0
   -0.0609   -0.7545    0.1990 C   0  0  0  0  0  0  0  0  0  0  0  0
   -1.3003    0.9906    0.8208 H   0  0  0  0  0  0  0  0  0  0  0  0
   -1.2373    0.7405   -0.9574 H   0  0  0  0  0  0  0  0  0  0  0  0
   -0.1933   -1.4066    1.1682 H   0  0  0  0  0  0  0  0  0  0  0  0
    0.5941   -0.3372    0.0546 H   0  0  0  0  0  0  0  0  0  0  0  0
    0.1738   -1.6230   -0.6499 H   0  0  0  0  0  0  0  0  0  0  0  0
  1  5  1  0  0  0  0
  1  3  1  0  0  0  0
  2  6  1  0  0  0  0
  2  1  1  0  0  0  0
  2  8  1  0  0  0  0
  6  9  1  0  0  0  0
  6 10  1  0  0  0  0
  7  2  1  0  0  0  0
  9 12  1  0  0  0  0
 11  6  1  0  0  0  0
 13  9  1  0  0  0  0
 14  9  1  0  0  0  0
M  RAD  2   1   2   4   2
M  END
$$$$
