14
butane_opt
C  -3.963110   0.371730   0.090633
C  -2.684407  -0.689161  -0.085533
H  -4.911158  -0.360219  -0.081264
H  -3.868751   0.647993  -0.703607
H  -3.951701   1.176292   0.968622
C  -1.360258   0.097585   0.021017
H  -2.652231  -1.569473  -1.085862
H  -2.510782  -1.051260   0.541973
C  -0.232814  -0.631056   0.151119
H  -1.431341   0.554647   0.837208
H  -1.451870   0.820927  -0.911253
H   0.210894  -1.835020   1.427768
H   0.966030   0.162873  -1.060606
H  -0.622527  -0.739820  -0.540438
