14
butane_opt
C  -3.990053   0.323675  -0.046043
C  -2.751330  -0.641191   0.064324
H  -4.777476  -0.223346   0.621428
H  -4.255311   1.630244  -1.402506
H  -3.953238   0.356896   0.461919
C  -1.333886   0.063216   0.169274
H  -2.463548  -1.476223  -0.833970
H  -2.806241  -1.128371   0.830316
C  -0.114882  -0.632430  -0.060297
H  -1.109513   0.889541   1.020983
H  -1.470742   0.648747  -0.632898
H  -0.410648  -1.047780   0.718943
H   0.733704  -0.036395  -0.118395
H  -0.214997  -1.413365  -0.823395
