butane_opt
 OpenBabel08242015403D

 14 13  0  0  0  0  0  0  0  0999 V2000
   -3.9683    0.2529    0.1589 C   0  0  0  0  0  0  0  0  0  0  0  0
   -2.7450   -0.5655   -0.0801 C   0  0  0  0  0  0  0  0  0  0  0  0
   -4.8890   -0.2435   -0.1743 H   0  0  0  0  0  0  0  0  0  0  0  0
   -3.9707    0.5255   -0.5491 H   0  0  0  0  0  0  0  0  0  0  0  0
   -3.6772    1.0886    1.0779 H   0  0  0  0  0  0  0  0  0  0  0  0
   -1.3938    0.1855   -0.1610 C   0  0  0  0  0  0  0  0  0  0  0  0
   -2.9758   -1.0325   -0.6769 H   0  0  0  0  0  0  0  0  0  0  0  0
   -2.9398   -1.3843    0.9174 H   0  0  0  0  0  0  0  0  0  0  0  0
   -0.1038   -0.7190    0.1422 C   0  0  0  0  0  0  0  0  0  0  0  0
   -1.6706    0.7176    0.5480 H   0  0  0  0  0  0  0  0  0  0  0  0
   -1.2056    0.8863   -1.1119 H   0  0  0  0  0  0  0  0  0  0  0  0
   -0.2524   -1.1739    0.9296 H   0  0  0  0  0  0  0  0  0  0  0  0
    0.8021   -0.1093    0.5218 H   0  0  0  0  0  0  0  0  0  0  0  0
    0.2322   -1.5887   -0.7865 H   0  0  0  0  0  0  0  0  0  0  0  0
  1  5  1  0  0  0  0
  2  1  1  0  0  0  0
  2  8  1  0  0  0  0
  3  1  1  0  0  0  0
  4  1  1  0  0  0  0
  6  2  1  0  0  0  0
  6  9  1  0  0  0  0
  6 10  1  0  0  0  0
  7  2  1  0  0  0  0
  9 13  1  0  0  0  0
  9 12  1  0  0  0  0
 11  6  1  0  0  0  0
 14  9  1  0  0  0  0
M  END
$$$$
