butane_opt
 OpenBabel08242015403D

 14  8  0  0  0  0  0  0  0  0999 V2000
   -3.9119    0.3355   -0.1644 C   0  0  0  0  0  0  0  0  0  0  0  0
   -2.6875   -0.6533    0.2599 C   0  0  0  0  0  0  0  0  0  0  0  0
   -4.8349   -0.2737    0.2785 H   0  0  0  0  0  0  0  0  0  0  0  0
   -3.8589    1.3029   -1.3030 H   0  0  0  0  0  0  0  0  0  0  0  0
   -4.1118    0.8412    0.7638 H   0  0  0  0  0  0  0  0  0  0  0  0
   -1.3810    0.0293    0.0866 C   0  0  0  0  0  1  0  0  0  0  0  0
   -2.6069   -1.0621   -0.4482 H   0  0  0  0  0  0  0  0  0  0  0  0
   -2.8467   -1.5148    1.2587 H   0  0  0  0  0  0  0  0  0  0  0  0
   -0.2158   -0.6240   -0.1448 C   0  0  0  0  0  1  0  0  0  0  0  0
   -1.3177    1.0505    1.1975 H   0  0  0  0  0  0  0  0  0  0  0  0
   -1.4911    0.4862   -0.6140 H   0  0  0  0  0  0  0  0  0  0  0  0
   -0.5739   -0.6967    0.4260 H   0  0  0  0  0  0  0  0  0  0  0  0
    0.9524    0.2100    0.6440 H   0  0  0  0  0  0  0  0  0  0  0  0
   -0.0233   -1.8307   -1.2786 H   0  0  0  0  0  0  0  0  0  0  0  0
  1  2  1  0  0  0  0
  1  3  1  0  0  0  0
  1  5  1  0  0  0  0
  2  8  1  0  0  0  0
  4  1  1  0  0  0  0
  7  2  1  0  0  0  0
  9 12  1  0  0  0  0
 11  6  1  0  0  0  0
M  RAD  4   2   2  10   2  13   2  14   2
M  END
$$$$
