14
butane_opt
C  -3.968211   0.228518  -0.004418
C  -2.692306  -0.608629   0.118031
H  -4.987315  -0.392451   0.184917
H  -3.825107   1.144984  -1.120597
H  -4.167927   0.653194   0.811833
C  -1.422804   0.284867   0.005099
H  -2.819943  -1.247069  -0.737879
H  -2.944138  -1.450459   1.215514
C  -0.127916  -0.719863   0.019317
H  -1.518566   0.709891   0.685551
H  -1.291655   0.946875  -1.084806
H   0.021665  -0.591457   0.455261
H   0.624634  -0.191459   0.703647
H   0.407762  -2.283882  -1.429294
