14
butane_opt
C  -3.895768   0.195784  -0.170458
C  -2.742929  -0.546850   0.219448
H  -4.827179  -0.547643   0.361850
H  -3.641533   1.019090  -1.171725
H  -3.680522   0.691536   0.708083
C  -1.464830   0.232850   0.132432
H  -2.451133  -0.687568  -0.257428
H  -2.985900  -1.393300   1.389917
C  -0.120675  -0.750011  -0.136664
H  -1.670642   1.015044   0.941844
H  -1.677225   0.785663  -0.737045
H  -0.336738  -0.700125   0.265119
H   0.726257  -0.083554   0.769963
H   0.204296  -2.188424  -1.437775
