butane_opt
 OpenBabel08242015403D

 14 12  0  0  0  0  0  0  0  0999 V2000
   -3.8722    0.2391   -0.2005 C   0  0  0  0  0  0  0  0  0  0  0  0
   -2.7293   -0.5325    0.2322 C   0  0  0  0  0  0  0  0  0  0  0  0
   -4.8640   -0.5673   -0.5248 H   0  0  0  0  0  0  0  0  0  0  0  0
   -3.4639    0.6171   -0.9686 H   0  0  0  0  0  0  0  0  0  0  0  0
   -4.1117    1.0257    0.8460 H   0  0  0  0  0  0  0  0  0  0  0  0
   -1.4899    0.2059    0.2318 C   0  0  0  0  0  0  0  0  0  0  0  0
   -2.7502   -0.9096   -0.3030 H   0  0  0  0  0  0  0  0  0  0  0  0
   -2.7956   -1.6322    1.3989 H   0  0  0  0  0  0  0  0  0  0  0  0
   -0.1613   -0.7701   -0.1498 C   0  0  0  0  0  0  0  0  0  0  0  0
   -1.3585    1.0045    1.2555 H   0  0  0  0  0  0  0  0  0  0  0  0
   -1.4505    0.9560   -0.6111 H   0  0  0  0  0  0  0  0  0  0  0  0
    0.1542   -1.2039    0.5908 H   0  0  0  0  0  0  0  0  0  0  0  0
    0.9621   -0.0251   -0.4842 H   0  0  0  0  0  0  0  0  0  0  0  0
   -0.3229   -1.4405   -1.1559 H   0  0  0  0  0  0  0  0  0  0  0  0
  1  2  1  0  0  0  0
  1  5  1  0  0  0  0
  3  1  1  0  0  0  0
  4  1  1  0  0  0  0
  6  2  1  0  0  0  0
  6 10  1  0  0  0  0
  7  2  1  0  0  0  0
  9  6  1  0  0  0  0
  9 12  1  0  0  0  0
 11  6  1  0  0  0  0
 13  9  1  0  0  0  0
 14  9  1  0  0  0  0
M  RAD  2   2   2   8   2
M  END
$$$$
