butane_opt
 OpenBabel08242015403D

 14 10  0  0  0  0  0  0  0  0999 V2000
   -3.8538    0.2157    0.1427 C   0  0  0  0  0  1  0  0  0  0  0  0
   -2.7182   -0.5077   -0.0455 C   0  0  0  0  0  0  0  0  0  0  0  0
   -4.9757   -0.4940   -0.3513 H   0  0  0  0  0  0  0  0  0  0  0  0
   -3.6555    0.0572   -0.2385 H   0  0  0  0  0  0  0  0  0  0  0  0
   -4.0519    1.4811    1.4059 H   0  0  0  0  0  0  0  0  0  0  0  0
   -1.4146    0.2514   -0.1890 C   0  0  0  0  0  0  0  0  0  0  0  0
   -2.5868   -1.3390   -1.0235 H   0  0  0  0  0  0  0  0  0  0  0  0
   -2.8489   -1.0651    0.7899 H   0  0  0  0  0  0  0  0  0  0  0  0
   -0.2023   -0.7714    0.1944 C   0  0  0  0  0  0  0  0  0  0  0  0
   -1.5046    0.4952    0.4940 H   0  0  0  0  0  0  0  0  0  0  0  0
   -1.3527    1.0002   -1.2209 H   0  0  0  0  0  0  0  0  0  0  0  0
   -0.2473   -1.5945    1.0890 H   0  0  0  0  0  0  0  0  0  0  0  0
    0.6126   -0.1728   -0.0717 H   0  0  0  0  0  0  0  0  0  0  0  0
   -0.0933   -1.1314   -0.5355 H   0  0  0  0  0  0  0  0  0  0  0  0
  2  8  1  0  0  0  0
  3  1  1  0  0  0  0
  4  2  1  0  0  0  0
  6  9  1  0  0  0  0
  6 10  1  0  0  0  0
  7  2  1  0  0  0  0
  9 12  1  0  0  0  0
 11  6  1  0  0  0  0
 13  9  1  0  0  0  0
 14  9  1  0  0  0  0
M  RAD  3   2   2   5   2   6   2
M  END
$$$$
