butane_opt
 OpenBabel08242015403D

 14 12  0  0  0  0  0  0  0  0999 V2000
   -4.0562    0.3194    0.1556 C   0  0  0  0  0  0  0  0  0  0  0  0
   -2.6876   -0.6748   -0.0548 C   0  0  0  0  0  0  0  0  0  0  0  0
   -5.0375   -0.2005    0.0345 H   0  0  0  0  0  0  0  0  0  0  0  0
   -4.3310    0.9821   -0.7338 H   0  0  0  0  0  0  0  0  0  0  0  0
   -3.9616    1.0679    1.1455 H   0  0  0  0  0  0  0  0  0  0  0  0
   -1.3411    0.1424   -0.1725 C   0  0  0  0  0  0  0  0  0  0  0  0
   -2.7903   -1.4584   -1.1591 H   0  0  0  0  0  0  0  0  0  0  0  0
   -2.4835   -1.3423    0.8392 H   0  0  0  0  0  0  0  0  0  0  0  0
   -0.1548   -0.6673    0.2073 C   0  0  0  0  0  0  0  0  0  0  0  0
   -1.2790    0.4964    0.4782 H   0  0  0  0  0  0  0  0  0  0  0  0
   -1.0429    1.0144   -1.2573 H   0  0  0  0  0  0  0  0  0  0  0  0
   -0.2083   -0.9540    0.8140 H   0  0  0  0  0  0  0  0  0  0  0  0
    1.0096    0.2112    0.5333 H   0  0  0  0  0  0  0  0  0  0  0  0
   -0.0318   -1.7070   -0.9201 H   0  0  0  0  0  0  0  0  0  0  0  0
  1  5  1  0  0  0  0
  2  1  1  0  0  0  0
  2  8  1  0  0  0  0
  3  1  1  0  0  0  0
  4  1  1  0  0  0  0
  6  2  1  0  0  0  0
  6  9  1  0  0  0  0
  6 10  1  0  0  0  0
  7  2  1  0  0  0  0
  9 13  1  0  0  0  0
  9 12  1  0  0  0  0
 11  6  1  0  0  0  0
M  RAD  2   9   2  14   2
M  END
$$$$
