butane_opt
 OpenBabel08242015403D

 14 12  0  0  0  0  0  0  0  0999 V2000
   -3.9403    0.3219    0.0525 C   0  0  0  0  0  0  0  0  0  0  0  0
   -2.7392   -0.7091    0.0428 C   0  0  0  0  0  0  0  0  0  0  0  0
   -4.6939   -0.0550    0.4638 H   0  0  0  0  0  0  0  0  0  0  0  0
   -4.3200    0.9343   -0.7835 H   0  0  0  0  0  0  0  0  0  0  0  0
   -4.1995    1.0172    0.8878 H   0  0  0  0  0  0  0  0  0  0  0  0
   -1.3450    0.1757   -0.1403 C   0  0  0  0  0  0  0  0  0  0  0  0
   -2.7229   -1.4025   -0.8179 H   0  0  0  0  0  0  0  0  0  0  0  0
   -2.6142   -1.3389    0.9380 H   0  0  0  0  0  0  0  0  0  0  0  0
   -0.1691   -0.6707    0.0847 C   0  0  0  0  0  0  0  0  0  0  0  0
   -1.2359    0.8403    0.5568 H   0  0  0  0  0  0  0  0  0  0  0  0
   -1.3394    0.5684   -0.9201 H   0  0  0  0  0  0  0  0  0  0  0  0
   -0.7295   -0.8533    0.7536 H   0  0  0  0  0  0  0  0  0  0  0  0
    0.8927    0.0298    0.8569 H   0  0  0  0  0  0  0  0  0  0  0  0
    0.2688   -1.6084   -0.9771 H   0  0  0  0  0  0  0  0  0  0  0  0
  1  3  1  0  0  0  0
  1  5  1  0  0  0  0
  2  1  1  0  0  0  0
  2  8  1  0  0  0  0
  4  1  1  0  0  0  0
  6  9  1  0  0  0  0
  6 10  1  0  0  0  0
  7  2  1  0  0  0  0
  9 12  1  0  0  0  0
  9 13  1  0  0  0  0
 11  6  1  0  0  0  0
 14  9  1  0  0  0  0
M  RAD  2   2   2   6   2
M  END
$$$$
