butane_opt
 OpenBabel08242015403D

 14 10  0  0  0  0  0  0  0  0999 V2000
   -3.8473    0.2046   -0.0200 C   0  0  0  0  0  1  0  0  0  0  0  0
   -2.7399   -0.5259    0.0791 C   0  0  0  0  0  0  0  0  0  0  0  0
   -4.7856   -0.3156    0.2718 H   0  0  0  0  0  0  0  0  0  0  0  0
   -3.8541    1.2303   -1.3590 H   0  0  0  0  0  0  0  0  0  0  0  0
   -3.5031    0.3356    0.4626 H   0  0  0  0  0  0  0  0  0  0  0  0
   -1.4595    0.2110    0.1178 C   0  0  0  0  0  0  0  0  0  0  0  0
   -2.8620   -1.3109   -0.7496 H   0  0  0  0  0  0  0  0  0  0  0  0
   -2.7407   -1.1338    0.8405 H   0  0  0  0  0  0  0  0  0  0  0  0
   -0.1718   -0.7361    0.0023 C   0  0  0  0  0  0  0  0  0  0  0  0
   -1.5421    1.0580    1.0346 H   0  0  0  0  0  0  0  0  0  0  0  0
   -1.6183    0.8808   -0.8712 H   0  0  0  0  0  0  0  0  0  0  0  0
    0.1110   -1.0908    0.6636 H   0  0  0  0  0  0  0  0  0  0  0  0
    0.7167   -0.2907   -0.0672 H   0  0  0  0  0  0  0  0  0  0  0  0
   -0.3507   -1.6559   -1.0208 H   0  0  0  0  0  0  0  0  0  0  0  0
  1  3  1  0  0  0  0
  2  5  1  0  0  0  0
  2  8  1  0  0  0  0
  6 10  1  0  0  0  0
  7  2  1  0  0  0  0
  9  6  1  0  0  0  0
  9 12  1  0  0  0  0
 11  6  1  0  0  0  0
 13  9  1  0  0  0  0
 14  9  1  0  0  0  0
M  RAD  3   2   2   4   2   6   2
M  END
$$$$
