14
butane_opt
C  -3.962786   0.258234   0.124699
C  -2.735947  -0.616096  -0.053348
H  -4.949920  -0.471675  -0.210131
H  -4.188451   0.565831  -0.618294
H  -3.843919   1.131764   1.263218
C  -1.429683   0.272449  -0.059091
H  -2.782175  -1.753067  -1.179007
H  -2.795351  -0.996229   0.516539
C  -0.081150  -0.748404   0.133309
H  -1.412302   0.861652   0.664556
H  -1.170717   1.035161  -1.227099
H   0.070080  -1.812140   1.271733
H   0.648236  -0.347430  -0.414613
H  -0.047410  -0.674258  -0.293106
