butane_opt
 OpenBabel08242015403D

 14 13  0  0  0  0  0  0  0  0999 V2000
   -3.9233    0.2528    0.0479 C   0  0  0  0  0  0  0  0  0  0  0  0
   -2.7050   -0.6030    0.0148 C   0  0  0  0  0  0  0  0  0  0  0  0
   -4.8492   -0.3665    0.0560 H   0  0  0  0  0  0  0  0  0  0  0  0
   -3.9989    0.8504   -0.8297 H   0  0  0  0  0  0  0  0  0  0  0  0
   -3.8997    0.9258    0.9182 H   0  0  0  0  0  0  0  0  0  0  0  0
   -1.4103    0.2053   -0.0240 C   0  0  0  0  0  0  0  0  0  0  0  0
   -2.6973   -1.2781   -0.8523 H   0  0  0  0  0  0  0  0  0  0  0  0
   -2.7287   -1.2094    0.9106 H   0  0  0  0  0  0  0  0  0  0  0  0
   -0.1701   -0.7100    0.0593 C   0  0  0  0  0  0  0  0  0  0  0  0
   -1.4487    0.8188    0.7650 H   0  0  0  0  0  0  0  0  0  0  0  0
   -1.3905    0.8705   -0.9570 H   0  0  0  0  0  0  0  0  0  0  0  0
   -0.1870   -1.2681    0.9445 H   0  0  0  0  0  0  0  0  0  0  0  0
    0.7768   -0.1074    0.1369 H   0  0  0  0  0  0  0  0  0  0  0  0
   -0.0890   -1.4551   -0.8316 H   0  0  0  0  0  0  0  0  0  0  0  0
  1  3  1  0  0  0  0
  1  5  1  0  0  0  0
  2  1  1  0  0  0  0
  2  8  1  0  0  0  0
  4  1  1  0  0  0  0
  6  2  1  0  0  0  0
  6  9  1  0  0  0  0
  6 10  1  0  0  0  0
  7  2  1  0  0  0  0
  9 13  1  0  0  0  0
  9 12  1  0  0  0  0
 11  6  1  0  0  0  0
 14  9  1  0  0  0  0
M  END
$$$$
