butane_opt
 OpenBabel08242015403D

 14  9  0  0  0  0  0  0  0  0999 V2000
   -4.0179    0.3073    0.0493 C   0  0  0  0  0  0  0  0  0  0  0  0
   -2.7000   -0.6796   -0.0052 C   0  0  0  0  0  0  0  0  0  0  0  0
   -4.7616   -0.1497   -0.3338 H   0  0  0  0  0  0  0  0  0  0  0  0
   -4.0090    0.3230   -0.4762 H   0  0  0  0  0  0  0  0  0  0  0  0
   -4.3959    1.4849    1.1150 H   0  0  0  0  0  0  0  0  0  0  0  0
   -1.3537    0.1318   -0.0201 C   0  0  0  0  0  0  0  0  0  0  0  0
   -2.5854   -1.3605   -0.6953 H   0  0  0  0  0  0  0  0  0  0  0  0
   -2.4651   -1.3254    0.8521 H   0  0  0  0  0  0  0  0  0  0  0  0
   -0.1784   -0.6475    0.0382 C   0  0  0  0  0  0  0  0  0  0  0  0
   -1.2294    0.8363    0.8306 H   0  0  0  0  0  0  0  0  0  0  0  0
   -1.2452    0.8838   -0.9953 H   0  0  0  0  0  0  0  0  0  0  0  0
   -0.0551   -1.7265    1.2064 H   0  0  0  0  0  0  0  0  0  0  0  0
    0.6929    0.0498   -0.2321 H   0  0  0  0  0  0  0  0  0  0  0  0
    0.0029   -0.8263   -0.4712 H   0  0  0  0  0  0  0  0  0  0  0  0
  2  1  1  0  0  0  0
  2  8  1  0  0  0  0
  3  1  1  0  0  0  0
  6  2  1  0  0  0  0
  6  9  1  0  0  0  0
  6 10  1  0  0  0  0
  7  2  1  0  0  0  0
 11  6  1  0  0  0  0
 13  9  1  0  0  0  0
M  RAD  6   1   3   4   2   5   2   9   3  12   2  14   2
M  END
$$$$
