14
butane_opt
C  -3.847322   0.204640  -0.019969
C  -2.739860  -0.525880   0.079074
H  -4.785579  -0.315628   0.271817
H  -3.854056   1.230321  -1.358992
H  -3.503115   0.335628   0.462585
C  -1.459470   0.211029   0.117751
H  -2.861965  -1.310943  -0.749597
H  -2.740696  -1.133829   0.840460
C  -0.171767  -0.736131   0.002290
H  -1.542057   1.058037   1.034568
H  -1.618294   0.880819  -0.871223
H   0.111049  -1.090767   0.663620
H   0.716719  -0.290746  -0.067180
H  -0.350698  -1.655928  -1.020839
