14
butane_opt
C  -3.836532   0.180462  -0.114996
C  -2.700684  -0.549328   0.192803
H  -4.934550  -0.556512  -0.136100
H  -3.906849   1.140669  -1.285677
H  -4.099205   0.624732   0.565053
C  -1.471522   0.282820   0.236948
H  -2.491390  -1.259950  -0.763911
H  -2.717963  -1.052591   0.947353
C  -0.169947  -0.774242  -0.127366
H  -1.522724   0.984815   1.166653
H  -1.566468   0.800411  -0.657818
H   0.161811  -1.537360   0.783081
H   0.727160  -0.076531  -0.467508
H  -0.456630  -1.244225  -0.975818
