butane_opt
 OpenBabel08242015403D

 14 12  0  0  0  0  0  0  0  0999 V2000
   -3.9397    0.1658   -0.0817 C   0  0  0  0  0  0  0  0  0  0  0  0
   -2.6540   -0.5056    0.1061 C   0  0  0  0  0  0  0  0  0  0  0  0
   -4.9403   -0.3678   -0.1755 H   0  0  0  0  0  0  0  0  0  0  0  0
   -3.7358    0.7346   -0.9410 H   0  0  0  0  0  0  0  0  0  0  0  0
   -3.8916    0.8530    0.8257 H   0  0  0  0  0  0  0  0  0  0  0  0
   -1.4393    0.2562    0.1812 C   0  0  0  0  0  0  0  0  0  0  0  0
   -2.4282   -1.3492   -0.9290 H   0  0  0  0  0  0  0  0  0  0  0  0
   -3.0592   -1.2115    1.0032 H   0  0  0  0  0  0  0  0  0  0  0  0
   -0.1913   -0.7445   -0.0757 C   0  0  0  0  0  0  0  0  0  0  0  0
   -1.3965    1.0295    1.0073 H   0  0  0  0  0  0  0  0  0  0  0  0
   -1.4813    0.8869   -0.5886 H   0  0  0  0  0  0  0  0  0  0  0  0
    0.6045   -1.7822    1.1312 H   0  0  0  0  0  0  0  0  0  0  0  0
    0.5367   -0.3653   -0.7380 H   0  0  0  0  0  0  0  0  0  0  0  0
   -0.5063   -0.9834   -0.6282 H   0  0  0  0  0  0  0  0  0  0  0  0
  1  2  1  0  0  0  0
  1  5  1  0  0  0  0
  2  6  1  0  0  0  0
  2  8  1  0  0  0  0
  3  1  1  0  0  0  0
  4  1  1  0  0  0  0
  6 10  1  0  0  0  0
  7  2  1  0  0  0  0
  9  6  1  0  0  0  0
 11  6  1  0  0  0  0
 13  9  1  0  0  0  0
 14  9  1  0  0  0  0
M  RAD  2   9   2  12   2
M  END
$$$$
