butane_opt
 OpenBabel08242015403D

 14 13  0  0  0  0  0  0  0  0999 V2000
   -3.9475    0.2567   -0.1662 C   0  0  0  0  0  0  0  0  0  0  0  0
   -2.6570   -0.6651    0.2968 C   0  0  0  0  0  0  0  0  0  0  0  0
   -4.7361   -0.2842   -0.8942 H   0  0  0  0  0  0  0  0  0  0  0  0
   -3.6407    0.8350   -1.0771 H   0  0  0  0  0  0  0  0  0  0  0  0
   -4.4327    1.3357    0.7776 H   0  0  0  0  0  0  0  0  0  0  0  0
   -1.4438    0.1542    0.1751 C   0  0  0  0  0  0  0  0  0  0  0  0
   -2.9430   -1.0359   -0.3753 H   0  0  0  0  0  0  0  0  0  0  0  0
   -2.7916   -1.5839    1.3903 H   0  0  0  0  0  0  0  0  0  0  0  0
   -0.1663   -0.6489   -0.1781 C   0  0  0  0  0  0  0  0  0  0  0  0
   -1.1943    1.1610    1.2499 H   0  0  0  0  0  0  0  0  0  0  0  0
   -1.6409    0.7342   -0.4796 H   0  0  0  0  0  0  0  0  0  0  0  0
    0.1277   -1.3241    0.6549 H   0  0  0  0  0  0  0  0  0  0  0  0
    0.8309   -0.0977   -0.3279 H   0  0  0  0  0  0  0  0  0  0  0  0
   -0.0650   -1.3659   -1.0317 H   0  0  0  0  0  0  0  0  0  0  0  0
  1  2  1  0  0  0  0
  1  5  1  0  0  0  0
  2  8  1  0  0  0  0
  3  1  1  0  0  0  0
  4  1  1  0  0  0  0
  6  2  1  0  0  0  0
  6 10  1  0  0  0  0
  7  2  1  0  0  0  0
  9  6  1  0  0  0  0
  9 12  1  0  0  0  0
 11  6  1  0  0  0  0
 13  9  1  0  0  0  0
 14  9  1  0  0  0  0
M  END
$$$$
