butane_opt
 OpenBabel08242015403D

 14 12  0  0  0  0  0  0  0  0999 V2000
   -3.9394    0.2470    0.1596 C   0  0  0  0  0  0  0  0  0  0  0  0
   -2.7437   -0.5812   -0.0497 C   0  0  0  0  0  0  0  0  0  0  0  0
   -5.1350   -0.5044    0.1140 H   0  0  0  0  0  0  0  0  0  0  0  0
   -4.2000    0.9113   -0.6750 H   0  0  0  0  0  0  0  0  0  0  0  0
   -3.7736    0.9683    1.0408 H   0  0  0  0  0  0  0  0  0  0  0  0
   -1.4196    0.2062   -0.1956 C   0  0  0  0  0  0  0  0  0  0  0  0
   -2.8749   -1.1489   -0.8750 H   0  0  0  0  0  0  0  0  0  0  0  0
   -2.5428   -1.2190    0.7981 H   0  0  0  0  0  0  0  0  0  0  0  0
   -0.1143   -0.7014    0.1296 C   0  0  0  0  0  0  0  0  0  0  0  0
   -1.2729    0.5975    0.5646 H   0  0  0  0  0  0  0  0  0  0  0  0
   -1.2539    0.8639   -1.0948 H   0  0  0  0  0  0  0  0  0  0  0  0
   -0.6196   -1.1081    0.8999 H   0  0  0  0  0  0  0  0  0  0  0  0
    0.6873   -0.2626    1.0290 H   0  0  0  0  0  0  0  0  0  0  0  0
    0.6024   -1.6764   -0.9315 H   0  0  0  0  0  0  0  0  0  0  0  0
  1  5  1  0  0  0  0
  2  1  1  0  0  0  0
  2  8  1  0  0  0  0
  3  1  1  0  0  0  0
  4  1  1  0  0  0  0
  6  2  1  0  0  0  0
  6  9  1  0  0  0  0
  6 10  1  0  0  0  0
  7  2  1  0  0  0  0
  9 12  1  0  0  0  0
  9 13  1  0  0  0  0
 11  6  1  0  0  0  0
M  RAD  2   9   2  14   2
M  END
$$$$
