butane_opt
 OpenBabel08242015403D

 14 13  0  0  0  0  0  0  0  0999 V2000
   -3.9374    0.2646    0.0453 C   0  0  0  0  0  0  0  0  0  0  0  0
   -2.6955   -0.6116    0.0081 C   0  0  0  0  0  0  0  0  0  0  0  0
   -4.8552   -0.3193    0.0124 H   0  0  0  0  0  0  0  0  0  0  0  0
   -3.9816    0.8603   -0.8099 H   0  0  0  0  0  0  0  0  0  0  0  0
   -3.9334    0.9844    0.9283 H   0  0  0  0  0  0  0  0  0  0  0  0
   -1.4092    0.1720   -0.0054 C   0  0  0  0  0  0  0  0  0  0  0  0
   -2.7081   -1.3485   -0.8874 H   0  0  0  0  0  0  0  0  0  0  0  0
   -2.6689   -1.2310    0.8603 H   0  0  0  0  0  0  0  0  0  0  0  0
   -0.1680   -0.6908    0.0564 C   0  0  0  0  0  0  0  0  0  0  0  0
   -1.4635    0.8103    0.8105 H   0  0  0  0  0  0  0  0  0  0  0  0
   -1.3440    0.8502   -0.9342 H   0  0  0  0  0  0  0  0  0  0  0  0
   -0.1236   -1.3480    0.9892 H   0  0  0  0  0  0  0  0  0  0  0  0
    0.7579   -0.0717   -0.0557 H   0  0  0  0  0  0  0  0  0  0  0  0
   -0.1827   -1.2616   -0.7213 H   0  0  0  0  0  0  0  0  0  0  0  0
  1  5  1  0  0  0  0
  2  1  1  0  0  0  0
  2  8  1  0  0  0  0
  3  1  1  0  0  0  0
  4  1  1  0  0  0  0
  6  2  1  0  0  0  0
  6  9  1  0  0  0  0
  6 10  1  0  0  0  0
  7  2  1  0  0  0  0
  9 12  1  0  0  0  0
 11  6  1  0  0  0  0
 13  9  1  0  0  0  0
 14  9  1  0  0  0  0
M  END
$$$$
