butane_opt
 OpenBabel08242015403D

 14 13  0  0  0  0  0  0  0  0999 V2000
   -3.9460    0.2500   -0.0104 C   0  0  0  0  0  0  0  0  0  0  0  0
   -2.7189   -0.5962    0.0835 C   0  0  0  0  0  0  0  0  0  0  0  0
   -4.8828   -0.3381   -0.1368 H   0  0  0  0  0  0  0  0  0  0  0  0
   -3.8886    0.8430   -0.9118 H   0  0  0  0  0  0  0  0  0  0  0  0
   -4.0419    0.9542    0.8653 H   0  0  0  0  0  0  0  0  0  0  0  0
   -1.3983    0.2007    0.0309 C   0  0  0  0  0  0  0  0  0  0  0  0
   -2.7289   -1.2483   -0.7345 H   0  0  0  0  0  0  0  0  0  0  0  0
   -2.7382   -1.2916    1.0040 H   0  0  0  0  0  0  0  0  0  0  0  0
   -0.1459   -0.7169    0.0053 C   0  0  0  0  0  0  0  0  0  0  0  0
   -1.3435    0.9301    0.9369 H   0  0  0  0  0  0  0  0  0  0  0  0
   -1.4551    0.8043   -0.8231 H   0  0  0  0  0  0  0  0  0  0  0  0
   -0.0731   -1.2992    0.8493 H   0  0  0  0  0  0  0  0  0  0  0  0
    0.7869   -0.1082   -0.0542 H   0  0  0  0  0  0  0  0  0  0  0  0
   -0.1422   -1.3705   -0.8696 H   0  0  0  0  0  0  0  0  0  0  0  0
  1  2  1  0  0  0  0
  1  5  1  0  0  0  0
  2  8  1  0  0  0  0
  3  1  1  0  0  0  0
  4  1  1  0  0  0  0
  6  2  1  0  0  0  0
  6 10  1  0  0  0  0
  7  2  1  0  0  0  0
  9  6  1  0  0  0  0
  9 12  1  0  0  0  0
 11  6  1  0  0  0  0
 13  9  1  0  0  0  0
 14  9  1  0  0  0  0
M  END
$$$$
