butane_opt
 OpenBabel08242015403D

 14 13  0  0  0  0  0  0  0  0999 V2000
   -3.9325    0.2765   -0.1805 C   0  0  0  0  0  0  0  0  0  0  0  0
   -2.6716   -0.6622    0.2364 C   0  0  0  0  0  0  0  0  0  0  0  0
   -4.6645   -0.0696   -0.3088 H   0  0  0  0  0  0  0  0  0  0  0  0
   -3.6982    0.7356   -1.0258 H   0  0  0  0  0  0  0  0  0  0  0  0
   -4.1519    1.3314    0.8260 H   0  0  0  0  0  0  0  0  0  0  0  0
   -1.4014    0.1725    0.1992 C   0  0  0  0  0  0  0  0  0  0  0  0
   -2.5636   -1.0295   -0.4142 H   0  0  0  0  0  0  0  0  0  0  0  0
   -2.8780   -1.6557    1.3339 H   0  0  0  0  0  0  0  0  0  0  0  0
   -0.2150   -0.7080   -0.1758 C   0  0  0  0  0  0  0  0  0  0  0  0
   -1.1418    0.8924    1.1905 H   0  0  0  0  0  0  0  0  0  0  0  0
   -1.4870    0.6903   -0.6780 H   0  0  0  0  0  0  0  0  0  0  0  0
   -0.2768   -1.0920    0.6243 H   0  0  0  0  0  0  0  0  0  0  0  0
    0.9310    0.0019   -0.0677 H   0  0  0  0  0  0  0  0  0  0  0  0
   -0.4581   -1.1755   -0.9468 H   0  0  0  0  0  0  0  0  0  0  0  0
  1  2  1  0  0  0  0
  1  5  1  0  0  0  0
  2  8  1  0  0  0  0
  3  1  1  0  0  0  0
  4  1  1  0  0  0  0
  6  2  1  0  0  0  0
  6 10  1  0  0  0  0
  7  2  1  0  0  0  0
  9 13  1  0  0  0  0
  9  6  1  0  0  0  0
  9 12  1  0  0  0  0
 11  6  1  0  0  0  0
 14  9  1  0  0  0  0
M  END
$$$$
