14
butane_opt
C  -4.017916   0.307345   0.049283
C  -2.699988  -0.679611  -0.005232
H  -4.761644  -0.149711  -0.333814
H  -4.009020   0.323023  -0.476247
H  -4.395886   1.484859   1.114989
C  -1.353729   0.131765  -0.020062
H  -2.585440  -1.360458  -0.695338
H  -2.465074  -1.325392   0.852138
C  -0.178392  -0.647468   0.038202
H  -1.229383   0.836303   0.830602
H  -1.245209   0.883821  -0.995252
H  -0.055132  -1.726480   1.206379
H   0.692949   0.049750  -0.232084
H   0.002943  -0.826308  -0.471178
