14
butane_opt
C  -3.919821   0.313590   0.133305
C  -2.637160  -0.736955  -0.146353
H  -4.562463  -0.095738   0.072533
H  -4.112105   0.481237  -0.305196
H  -3.736813   1.411733   1.278199
C  -1.457517   0.121990  -0.115421
H  -2.521049  -1.319730  -0.995812
H  -2.843619  -1.045964   0.657889
C  -0.207631  -0.620281   0.196285
H  -1.574474   0.831712   0.627896
H  -1.339324   0.813720  -1.115952
H  -0.275208  -1.708199   1.308770
H   0.808816  -0.024680  -0.501339
H  -0.261092  -0.727011  -0.294067
