14
butane_opt
C  -3.971699   0.243708  -0.047791
C  -2.765096  -0.563804   0.086990
H  -5.072599  -0.557211   0.509580
H  -4.056930   1.260643  -1.181786
H  -3.895399   0.688788   0.673252
C  -1.393243   0.208086   0.077905
H  -2.899037  -1.476506  -0.979681
H  -2.692577  -1.038537   0.957068
C  -0.097399  -0.729730  -0.029806
H  -1.108737   0.886605   1.004201
H  -1.325903   0.892916  -0.778684
H  -0.023073  -1.281378   0.852679
H   0.779842  -0.231324   0.176007
H   0.042825  -1.538538  -0.873779
