14
butane_opt
C  -3.994269   0.239661   0.208488
C  -2.731095  -0.551808  -0.093339
H  -5.015728  -0.552191   0.152997
H  -3.908549   0.712447  -0.657269
H  -3.574863   0.645731   0.980009
C  -1.387042   0.257532  -0.278683
H  -3.148974  -1.104850  -0.842662
H  -2.513628  -0.999644   0.670626
C  -0.106739  -0.785588   0.230619
H  -1.361120   1.017096   0.572321
H  -1.321922   0.907247  -1.124238
H  -0.469099  -1.093609   0.797324
H   0.622146  -0.255664   0.820032
H   0.326639  -1.733326  -0.791911
