14
butane_opt
C  -3.942903   0.201852   0.215891
C  -2.780945  -0.525598  -0.121311
H  -4.939857  -0.459843   0.039844
H  -4.124536   0.755518  -0.564525
H  -3.836317   0.946446   1.139490
C  -1.389705   0.214934  -0.173228
H  -2.880047  -1.204699  -0.969658
H  -2.624067  -0.976401   0.606283
C  -0.064703  -0.746363   0.215204
H  -1.798314   0.577329   0.337064
H  -1.083600   1.148206  -1.507155
H  -0.309418  -1.228968   0.942667
H   0.641403  -0.154619   0.590290
H   0.113850  -1.674018  -0.840206
