14
butane_opt
C  -3.947970   0.256939   0.043783
C  -2.710336  -0.605139   0.011924
H  -4.875862  -0.369074   0.086754
H  -3.965948   0.885861  -0.834467
H  -3.957169   0.944039   0.913647
C  -1.400092   0.198104  -0.024502
H  -2.820106  -1.282235  -0.831382
H  -2.688300  -1.253308   0.906701
C  -0.143519  -0.708902   0.052544
H  -1.418853   0.881286   0.825595
H  -1.392370   0.838015  -0.929992
H  -0.203001  -1.300826   0.941641
H   0.789420  -0.115764   0.148690
H  -0.063152  -1.393253  -0.795351
