14
butane_opt
C  -3.964256   0.313585   0.115653
C  -2.632913  -0.688820  -0.159666
H  -4.706249  -0.149091   0.143476
H  -4.124712   0.650305  -0.601989
H  -3.841718   1.184007   1.153036
C  -1.359539   0.154054  -0.037923
H  -2.825598  -1.341391  -1.077501
H  -2.440037  -1.379809   0.797116
C  -0.218389  -0.647010   0.148851
H  -1.772430   0.683398   0.731478
H  -1.349670   0.794701  -0.835375
H  -0.231739  -1.736865   1.145486
H   0.783623   0.036392  -0.478842
H  -0.432983  -0.728182  -0.298425
