14
butane_opt
C  -3.957059   0.330411  -0.114904
C  -2.590042  -0.705547   0.182281
H  -4.883244  -0.262768   0.347282
H  -4.125745   1.228385  -1.249408
H  -3.937790   0.716612   0.485818
C  -1.386853   0.138758   0.137429
H  -2.506241  -1.112779  -0.452419
H  -2.733200  -1.537413   1.288717
C  -0.242568  -0.622837  -0.096669
H  -1.238822   0.658205   0.744012
H  -1.314770   0.776856  -0.693121
H  -0.648723  -0.518538   0.425864
H   0.626992  -0.006600   0.687627
H  -0.125233  -2.136721  -1.554533
