butane_opt
 OpenBabel08242015403D

 14 11  0  0  0  0  0  0  0  0999 V2000
   -3.9164    0.1849    0.1075 C   0  0  0  0  0  0  0  0  0  0  0  0
   -2.7232   -0.5816    0.0700 C   0  0  0  0  0  0  0  0  0  0  0  0
   -4.8077   -0.3217   -0.8146 H   0  0  0  0  0  0  0  0  0  0  0  0
   -3.5034    0.4438   -0.6100 H   0  0  0  0  0  0  0  0  0  0  0  0
   -4.0552    1.3711    1.1177 H   0  0  0  0  0  0  0  0  0  0  0  0
   -1.4113    0.3125   -0.0952 C   0  0  0  0  0  0  0  0  0  0  0  0
   -3.0596   -1.2102   -0.7302 H   0  0  0  0  0  0  0  0  0  0  0  0
   -2.8639   -1.2121    0.8705 H   0  0  0  0  0  0  0  0  0  0  0  0
   -0.1262   -0.7951    0.0593 C   0  0  0  0  0  0  0  0  0  0  0  0
   -1.7200    0.8827    0.6506 H   0  0  0  0  0  0  0  0  0  0  0  0
   -1.2887    1.0842   -1.0715 H   0  0  0  0  0  0  0  0  0  0  0  0
   -0.1967   -1.3622    0.9170 H   0  0  0  0  0  0  0  0  0  0  0  0
    0.6154   -0.3451    0.0835 H   0  0  0  0  0  0  0  0  0  0  0  0
    0.0078   -1.2905   -0.6651 H   0  0  0  0  0  0  0  0  0  0  0  0
  2  1  1  0  0  0  0
  2  8  1  0  0  0  0
  3  1  1  0  0  0  0
  4  1  1  0  0  0  0
  6  9  1  0  0  0  0
  6 10  1  0  0  0  0
  7  2  1  0  0  0  0
  9 13  1  0  0  0  0
  9 12  1  0  0  0  0
 11  6  1  0  0  0  0
 14  9  1  0  0  0  0
M  RAD  4   1   2   2   2   5   2   6   2
M  END
$$$$
