14
butane_opt
C  -3.886854   0.302772   0.125569
C  -2.646810  -0.655455  -0.144328
H  -4.865889  -0.278968   0.001625
H  -4.132904   0.887514  -0.598765
H  -4.079776   1.200466   1.133828
C  -1.469300   0.044874  -0.050468
H  -2.711569  -1.291758  -1.027049
H  -2.445638  -1.097186   0.570694
C  -0.198545  -0.619496   0.133477
H  -1.397304   0.906536   0.868747
H  -1.315699   0.591928  -0.716512
H  -0.222592  -1.885679   1.576659
H   0.939277   0.187558  -0.804191
H  -0.379673  -0.561293  -0.284928
