butane_opt
 OpenBabel08242015403D

 14 13  0  0  0  0  0  0  0  0999 V2000
   -3.8863    0.3074    0.1715 C   0  0  0  0  0  0  0  0  0  0  0  0
   -2.6714   -0.7082   -0.1622 C   0  0  0  0  0  0  0  0  0  0  0  0
   -4.7526   -0.1609    0.6392 H   0  0  0  0  0  0  0  0  0  0  0  0
   -4.3911    1.0322   -0.5726 H   0  0  0  0  0  0  0  0  0  0  0  0
   -3.5847    0.6462    0.9132 H   0  0  0  0  0  0  0  0  0  0  0  0
   -1.4281    0.1676   -0.1200 C   0  0  0  0  0  0  0  0  0  0  0  0
   -2.5439   -1.5300   -1.2500 H   0  0  0  0  0  0  0  0  0  0  0  0
   -2.7245   -0.9913    0.5955 H   0  0  0  0  0  0  0  0  0  0  0  0
   -0.1836   -0.6395    0.1841 C   0  0  0  0  0  0  0  0  0  0  0  0
   -1.7120    0.5334    0.5262 H   0  0  0  0  0  0  0  0  0  0  0  0
   -1.4443    1.1671   -1.2052 H   0  0  0  0  0  0  0  0  0  0  0  0
   -0.3857   -1.2846    1.1435 H   0  0  0  0  0  0  0  0  0  0  0  0
    0.7191   -0.0788    0.5177 H   0  0  0  0  0  0  0  0  0  0  0  0
   -0.1932   -1.3475   -0.7359 H   0  0  0  0  0  0  0  0  0  0  0  0
  1  3  1  0  0  0  0
  1  5  1  0  0  0  0
  2  6  1  0  0  0  0
  2  1  1  0  0  0  0
  2  8  1  0  0  0  0
  4  1  1  0  0  0  0
  6  9  1  0  0  0  0
  6 10  1  0  0  0  0
  7  2  1  0  0  0  0
  9 13  1  0  0  0  0
  9 12  1  0  0  0  0
 11  6  1  0  0  0  0
 14  9  1  0  0  0  0
M  END
$$$$
