14
butane_opt
C  -3.945146   0.221361   0.163422
C  -2.653319  -0.542755  -0.161133
H  -5.043751  -0.601653   0.736626
H  -4.447219   1.193211  -0.902252
H  -3.213357   0.592371   0.810569
C  -1.447243   0.245174  -0.053551
H  -2.530116  -1.550406  -1.234853
H  -2.703861  -1.042995   0.552847
C  -0.211339  -0.748254   0.158243
H  -1.575867   0.755206   0.604823
H  -1.154519   0.974815  -1.169379
H  -0.236164  -1.444454   1.161636
H   0.906355  -0.078870   0.222079
H   0.072316  -1.356606  -0.652970
