butane_opt
 OpenBabel08242015403D

 14 11  0  0  0  0  0  0  0  0999 V2000
   -3.9761    0.2439    0.0800 C   0  0  0  0  0  0  0  0  0  0  0  0
   -2.7604   -0.5663   -0.0624 C   0  0  0  0  0  0  0  0  0  0  0  0
   -5.0513   -0.4152   -0.2287 H   0  0  0  0  0  0  0  0  0  0  0  0
   -3.8816    0.6875   -0.6156 H   0  0  0  0  0  0  0  0  0  0  0  0
   -3.8704    0.8953    0.9946 H   0  0  0  0  0  0  0  0  0  0  0  0
   -1.3819    0.2262    0.0525 C   0  0  0  0  0  0  0  0  0  0  0  0
   -2.9239   -1.4781   -1.0818 H   0  0  0  0  0  0  0  0  0  0  0  0
   -2.8419   -0.7831    0.5374 H   0  0  0  0  0  0  0  0  0  0  0  0
   -0.0681   -0.7044    0.0640 C   0  0  0  0  0  0  0  0  0  0  0  0
   -1.1529    0.7548    0.6786 H   0  0  0  0  0  0  0  0  0  0  0  0
   -1.5480    0.9099   -0.7931 H   0  0  0  0  0  0  0  0  0  0  0  0
    0.1995   -2.3206    1.5534 H   0  0  0  0  0  0  0  0  0  0  0  0
    0.5572   -0.2702   -0.7450 H   0  0  0  0  0  0  0  0  0  0  0  0
   -0.2621   -0.8851   -0.3754 H   0  0  0  0  0  0  0  0  0  0  0  0
  1  5  1  0  0  0  0
  2  6  1  0  0  0  0
  2  1  1  0  0  0  0
  2  8  1  0  0  0  0
  3  1  1  0  0  0  0
  4  1  1  0  0  0  0
  6  9  1  0  0  0  0
  6 10  1  0  0  0  0
  7  2  1  0  0  0  0
 11  6  1  0  0  0  0
 13  9  1  0  0  0  0
M  RAD  3   9   3  12   2  14   2
M  END
$$$$
