14
butane_opt
C  -3.930968   0.209506   0.117857
C  -2.737247  -0.592917  -0.076538
H  -4.940457  -0.474686  -0.145701
H  -4.230227   0.724988  -0.651607
H  -3.787828   1.295456   1.266282
C  -1.445125   0.239805  -0.073414
H  -2.734163  -1.279716  -0.950570
H  -2.548267  -1.319694   0.865298
C  -0.103374  -0.696843   0.125621
H  -1.447643   0.753728   0.660568
H  -1.178582   1.002709  -1.255367
H  -0.101564  -1.575058   1.088692
H   0.424733  -0.289964   0.119820
H   0.170566  -1.270410  -0.662361
