butane_opt
 OpenBabel08242015403D

 14  9  0  0  0  0  0  0  0  0999 V2000
   -3.9633    0.2926    0.1677 C   0  0  0  0  0  0  0  0  0  0  0  0
   -2.7274   -0.6364   -0.1784 C   0  0  0  0  0  0  0  0  0  0  0  0
   -4.7959   -0.3757    0.1296 H   0  0  0  0  0  0  0  0  0  0  0  0
   -4.2288    0.7758   -0.5403 H   0  0  0  0  0  0  0  0  0  0  0  0
   -4.0015    1.1619    1.2894 H   0  0  0  0  0  0  0  0  0  0  0  0
   -1.3504    0.1479   -0.1012 C   0  0  0  0  0  0  0  0  0  0  0  0
   -2.7631   -1.4327   -1.2043 H   0  0  0  0  0  0  0  0  0  0  0  0
   -2.6611   -0.8821    0.3348 H   0  0  0  0  0  0  0  0  0  0  0  0
   -0.1367   -0.6839    0.2250 C   0  0  0  0  0  0  0  0  0  0  0  0
   -1.5387    0.6898    0.7377 H   0  0  0  0  0  0  0  0  0  0  0  0
   -1.1903    0.8750   -1.1607 H   0  0  0  0  0  0  0  0  0  0  0  0
    0.1871   -1.9311    1.5884 H   0  0  0  0  0  0  0  0  0  0  0  0
    0.9021   -0.0014   -0.6258 H   0  0  0  0  0  0  0  0  0  0  0  0
   -0.7924   -0.7682   -0.3580 H   0  0  0  0  0  0  0  0  0  0  0  0
  1  5  1  0  0  0  0
  2  1  1  0  0  0  0
  3  1  1  0  0  0  0
  4  1  1  0  0  0  0
  6 10  1  0  0  0  0
  7  2  1  0  0  0  0
 11  6  1  0  0  0  0
 13  9  1  0  0  0  0
 14  9  1  0  0  0  0
M  RAD  5   2   3   6   3   8   2   9   3  12   2
M  END
$$$$
