14
butane_opt
C  -3.939732   0.165840  -0.081698
C  -2.653969  -0.505616   0.106147
H  -4.940319  -0.367836  -0.175490
H  -3.735822   0.734593  -0.940976
H  -3.891600   0.853035   0.825728
C  -1.439330   0.256154   0.181240
H  -2.428233  -1.349161  -0.929047
H  -3.059211  -1.211471   1.003226
C  -0.191283  -0.744538  -0.075735
H  -1.396502   1.029517   1.007308
H  -1.481287   0.886948  -0.588642
H   0.604467  -1.782223   1.131163
H   0.536717  -0.365306  -0.737998
H  -0.506285  -0.983384  -0.628227
