butane_opt
 OpenBabel08242015403D

 14 11  0  0  0  0  0  0  0  0999 V2000
   -4.0252    0.2716    0.1139 C   0  0  0  0  0  1  0  0  0  0  0  0
   -2.6703   -0.6543   -0.0683 C   0  0  0  0  0  0  0  0  0  0  0  0
   -4.8132   -0.0978   -0.6653 H   0  0  0  0  0  0  0  0  0  0  0  0
   -3.9041    0.1703   -0.2234 H   0  0  0  0  0  0  0  0  0  0  0  0
   -4.1476    1.9690    1.6095 H   0  0  0  0  0  0  0  0  0  0  0  0
   -1.3535    0.1364   -0.1413 C   0  0  0  0  0  0  0  0  0  0  0  0
   -2.6635   -1.1814   -0.7773 H   0  0  0  0  0  0  0  0  0  0  0  0
   -2.6566   -1.4849    1.0074 H   0  0  0  0  0  0  0  0  0  0  0  0
   -0.1427   -0.6478    0.1576 C   0  0  0  0  0  0  0  0  0  0  0  0
   -1.5235    0.5417    0.5439 H   0  0  0  0  0  0  0  0  0  0  0  0
   -1.5104    0.8459   -1.2448 H   0  0  0  0  0  0  0  0  0  0  0  0
   -0.3389   -1.5095    1.2547 H   0  0  0  0  0  0  0  0  0  0  0  0
    0.9411    0.1791   -0.2872 H   0  0  0  0  0  0  0  0  0  0  0  0
   -0.1465   -1.1301   -0.4224 H   0  0  0  0  0  0  0  0  0  0  0  0
  2  8  1  0  0  0  0
  3  1  1  0  0  0  0
  4  2  1  0  0  0  0
  6  2  1  0  0  0  0
  6  9  1  0  0  0  0
  6 10  1  0  0  0  0
  7  2  1  0  0  0  0
  9 12  1  0  0  0  0
 11  6  1  0  0  0  0
 13  9  1  0  0  0  0
 14  9  1  0  0  0  0
M  RAD  1   5   2
M  END
$$$$
