14
butane_opt
C  -3.958492   0.231791  -0.009009
C  -2.709436  -0.531651   0.016959
H  -4.929565  -0.489695   0.854127
H  -3.992748   1.181702  -1.151600
H  -3.719603   0.135820   0.589022
C  -1.454757   0.212172   0.069366
H  -2.871550  -1.266829  -0.901968
H  -2.630317  -0.987576   0.701972
C  -0.128548  -0.725357  -0.009739
H  -1.294099   0.829829   0.886675
H  -1.578047   0.876363  -0.720727
H  -0.150771  -1.216930   0.802210
H   0.711081  -0.199984   0.426399
H   0.426394  -1.573767  -0.908973
