butane_opt
 OpenBabel08242015403D

 14 10  0  0  0  0  0  0  0  0999 V2000
   -3.8988    0.1948    0.1433 C   0  0  0  0  0  0  0  0  0  0  0  0
   -2.7221   -0.5132   -0.1430 C   0  0  0  0  0  0  0  0  0  0  0  0
   -5.0581   -0.5894    0.3382 H   0  0  0  0  0  0  0  0  0  0  0  0
   -3.9888    0.5852   -0.5891 H   0  0  0  0  0  0  0  0  0  0  0  0
   -3.7904    1.2151    1.0952 H   0  0  0  0  0  0  0  0  0  0  0  0
   -1.4427    0.2808   -0.0843 C   0  0  0  0  0  0  0  0  0  0  0  0
   -2.9899   -1.5493   -1.2987 H   0  0  0  0  0  0  0  0  0  0  0  0
   -2.5470   -0.8324    0.4657 H   0  0  0  0  0  0  0  0  0  0  0  0
   -0.1254   -0.7961    0.1626 C   0  0  0  0  0  0  0  0  0  0  0  0
   -1.3752    0.9068    0.5436 H   0  0  0  0  0  0  0  0  0  0  0  0
   -1.3971    0.7228   -0.8724 H   0  0  0  0  0  0  0  0  0  0  0  0
   -0.1840   -2.1384    1.6337 H   0  0  0  0  0  0  0  0  0  0  0  0
    0.8823   -0.1121   -0.5357 H   0  0  0  0  0  0  0  0  0  0  0  0
   -0.2307   -0.6967   -0.1617 H   0  0  0  0  0  0  0  0  0  0  0  0
  1  3  1  0  0  0  0
  1  5  1  0  0  0  0
  2  6  1  0  0  0  0
  2  1  1  0  0  0  0
  2  8  1  0  0  0  0
  4  1  1  0  0  0  0
  6  9  1  0  0  0  0
  6 10  1  0  0  0  0
 11  6  1  0  0  0  0
 13  9  1  0  0  0  0
M  RAD  5   2   2   7   2   9   3  12   2  14   2
M  END
$$$$
