butane_opt
 OpenBabel08242015403D

 14 13  0  0  0  0  0  0  0  0999 V2000
   -3.9150    0.2415   -0.1419 C   0  0  0  0  0  0  0  0  0  0  0  0
   -2.6702   -0.5418    0.2199 C   0  0  0  0  0  0  0  0  0  0  0  0
   -5.0198   -0.4707   -0.2889 H   0  0  0  0  0  0  0  0  0  0  0  0
   -3.6508    0.7695   -0.8783 H   0  0  0  0  0  0  0  0  0  0  0  0
   -4.4424    0.8364    0.6463 H   0  0  0  0  0  0  0  0  0  0  0  0
   -1.3850    0.1877    0.1803 C   0  0  0  0  0  0  0  0  0  0  0  0
   -2.4887   -1.1584   -0.6107 H   0  0  0  0  0  0  0  0  0  0  0  0
   -2.8837   -1.4481    1.2366 H   0  0  0  0  0  0  0  0  0  0  0  0
   -0.1908   -0.7035   -0.1087 C   0  0  0  0  0  0  0  0  0  0  0  0
   -1.2668    0.7320    0.9393 H   0  0  0  0  0  0  0  0  0  0  0  0
   -1.7253    0.8545   -0.6585 H   0  0  0  0  0  0  0  0  0  0  0  0
    0.1348   -1.0426    0.6228 H   0  0  0  0  0  0  0  0  0  0  0  0
    0.6154   -0.2639   -0.1657 H   0  0  0  0  0  0  0  0  0  0  0  0
   -0.3199   -1.5306   -1.1748 H   0  0  0  0  0  0  0  0  0  0  0  0
  1  2  1  0  0  0  0
  1  5  1  0  0  0  0
  2  8  1  0  0  0  0
  3  1  1  0  0  0  0
  4  1  1  0  0  0  0
  6  2  1  0  0  0  0
  6 10  1  0  0  0  0
  7  2  1  0  0  0  0
  9  6  1  0  0  0  0
  9 12  1  0  0  0  0
 11  6  1  0  0  0  0
 13  9  1  0  0  0  0
 14  9  1  0  0  0  0
M  END
$$$$
