14
butane_opt
C  -3.845455   0.224125  -0.172990
C  -2.714748  -0.526323   0.225403
H  -4.824849  -0.468068  -0.618397
H  -3.463566   0.426849  -0.849676
H  -4.236332   1.145013   0.820471
C  -1.399700   0.220463   0.149961
H  -2.665913  -0.912599  -0.354662
H  -2.961875  -1.570036   1.609703
C  -0.211250  -0.776403  -0.109617
H  -1.427245   1.172249   1.232236
H  -1.773947   0.757553  -0.619161
H   0.179803  -1.214285   0.598442
H   0.744303  -0.000095  -0.496440
H  -0.519861  -1.530998  -0.981841
