butane_opt
 OpenBabel08242015403D

 14 13  0  0  0  0  0  0  0  0999 V2000
   -3.9653    0.2779   -0.0088 C   0  0  0  0  0  0  0  0  0  0  0  0
   -2.6976   -0.6312    0.0673 C   0  0  0  0  0  0  0  0  0  0  0  0
   -4.8793   -0.3237   -0.0161 H   0  0  0  0  0  0  0  0  0  0  0  0
   -3.9931    0.9028   -0.9238 H   0  0  0  0  0  0  0  0  0  0  0  0
   -3.9953    0.9812    0.8591 H   0  0  0  0  0  0  0  0  0  0  0  0
   -1.3848    0.1761    0.0330 C   0  0  0  0  0  0  0  0  0  0  0  0
   -2.6780   -1.2393   -0.7295 H   0  0  0  0  0  0  0  0  0  0  0  0
   -2.7385   -1.3288    1.0252 H   0  0  0  0  0  0  0  0  0  0  0  0
   -0.1666   -0.6890    0.0029 C   0  0  0  0  0  0  0  0  0  0  0  0
   -1.3095    0.8458    0.9118 H   0  0  0  0  0  0  0  0  0  0  0  0
   -1.3932    0.7981   -0.8602 H   0  0  0  0  0  0  0  0  0  0  0  0
   -0.1385   -1.2233    0.8484 H   0  0  0  0  0  0  0  0  0  0  0  0
    0.8019   -0.0746    0.0886 H   0  0  0  0  0  0  0  0  0  0  0  0
   -0.1322   -1.4092   -0.9007 H   0  0  0  0  0  0  0  0  0  0  0  0
  1  2  1  0  0  0  0
  1  5  1  0  0  0  0
  2  8  1  0  0  0  0
  3  1  1  0  0  0  0
  4  1  1  0  0  0  0
  6  2  1  0  0  0  0
  6 10  1  0  0  0  0
  7  2  1  0  0  0  0
  9  6  1  0  0  0  0
  9 13  1  0  0  0  0
  9 12  1  0  0  0  0
 11  6  1  0  0  0  0
 14  9  1  0  0  0  0
M  END
$$$$
