butane_opt
 OpenBabel08242015403D

 14 10  0  0  0  0  0  0  0  0999 V2000
   -3.9779    0.3162   -0.0985 C   0  0  0  0  0  0  0  0  0  0  0  0
   -2.6283   -0.7417    0.1760 C   0  0  0  0  0  0  0  0  0  0  0  0
   -4.8450   -0.1897    0.0246 H   0  0  0  0  0  0  0  0  0  0  0  0
   -3.9079    1.0167   -0.9897 H   0  0  0  0  0  0  0  0  0  0  0  0
   -4.2737    1.0580    0.6446 H   0  0  0  0  0  0  0  0  0  0  0  0
   -1.3634    0.1262    0.1123 C   0  0  0  0  0  0  0  0  0  0  0  0
   -2.3619   -1.0921   -0.4479 H   0  0  0  0  0  0  0  0  0  0  0  0
   -2.7069   -1.4032    1.0943 H   0  0  0  0  0  0  0  0  0  0  0  0
   -0.2059   -0.6173   -0.0484 C   0  0  0  0  0  0  0  0  0  0  0  0
   -1.1841    0.6974    0.8151 H   0  0  0  0  0  0  0  0  0  0  0  0
   -1.6071    1.0254   -0.7949 H   0  0  0  0  0  0  0  0  0  0  0  0
   -0.3880   -0.8182    0.5038 H   0  0  0  0  0  0  0  0  0  0  0  0
    0.7091    0.0150    0.3062 H   0  0  0  0  0  0  0  0  0  0  0  0
   -0.3440   -1.8358   -1.4211 H   0  0  0  0  0  0  0  0  0  0  0  0
  1  3  1  0  0  0  0
  1  2  1  0  0  0  0
  1  5  1  0  0  0  0
  2  8  1  0  0  0  0
  4  1  1  0  0  0  0
  6 10  1  0  0  0  0
  7  2  1  0  0  0  0
  9  6  1  0  0  0  0
  9 13  1  0  0  0  0
 11  6  1  0  0  0  0
M  RAD  5   2   2   6   2   9   3  12   2  14   2
M  END
$$$$
