butane_opt
 OpenBabel08242015403D

 14 11  0  0  0  0  0  0  0  0999 V2000
   -3.8952    0.2809   -0.1543 C   0  0  0  0  0  0  0  0  0  0  0  0
   -2.6826   -0.5793    0.2144 C   0  0  0  0  0  0  0  0  0  0  0  0
   -4.8046   -0.1806    0.2044 H   0  0  0  0  0  0  0  0  0  0  0  0
   -3.9911    1.2784   -1.3654 H   0  0  0  0  0  0  0  0  0  0  0  0
   -4.1080    0.6895    0.5077 H   0  0  0  0  0  0  0  0  0  0  0  0
   -1.3963    0.0535    0.2172 C   0  0  0  0  0  0  0  0  0  0  0  0
   -2.4731   -1.5221   -0.8283 H   0  0  0  0  0  0  0  0  0  0  0  0
   -2.8046   -1.1478    1.0478 H   0  0  0  0  0  0  0  0  0  0  0  0
   -0.2367   -0.6853   -0.1505 C   0  0  0  0  0  0  0  0  0  0  0  0
   -1.2085    1.0505    1.3212 H   0  0  0  0  0  0  0  0  0  0  0  0
   -1.4543    0.6530   -0.4479 H   0  0  0  0  0  0  0  0  0  0  0  0
   -0.2365   -1.1955    0.7402 H   0  0  0  0  0  0  0  0  0  0  0  0
    0.9775    0.1886   -0.5185 H   0  0  0  0  0  0  0  0  0  0  0  0
   -0.3830   -1.0840   -0.7792 H   0  0  0  0  0  0  0  0  0  0  0  0
  1  3  1  0  0  0  0
  1  2  1  0  0  0  0
  1  5  1  0  0  0  0
  2  6  1  0  0  0  0
  2  8  1  0  0  0  0
  6 10  1  0  0  0  0
  7  2  1  0  0  0  0
  9  6  1  0  0  0  0
  9 12  1  0  0  0  0
 11  6  1  0  0  0  0
 14  9  1  0  0  0  0
M  RAD  4   1   2   4   2   9   2  13   2
M  END
$$$$
