14
butane_opt
C  -3.891895   0.196602  -0.159483
C  -2.671872  -0.529853   0.307306
H  -4.831499  -0.434776  -0.462566
H  -3.225521   0.634910  -1.115544
H  -4.122634   0.751045   0.747023
C  -1.466308   0.243278   0.115717
H  -2.822037  -0.907947  -0.444504
H  -2.733685  -1.127050   1.264686
C  -0.198871  -0.738266  -0.137578
H  -1.398032   0.989196   1.121616
H  -1.647824   0.724951  -0.608100
H   0.103801  -1.200388   0.534562
H   0.616312  -0.240134   0.161029
H  -0.220676  -1.757070  -1.286462
