14
butane_opt
C  -3.958423   0.272699   0.023153
C  -2.698242  -0.631822   0.025032
H  -4.858746  -0.311751   0.005323
H  -4.034001   0.870853  -0.861778
H  -4.001660   0.991791   0.910768
C  -1.399117   0.174226   0.018091
H  -2.712050  -1.325258  -0.857276
H  -2.668069  -1.218451   0.880562
C  -0.152815  -0.688599   0.032683
H  -1.347593   0.885102   0.900314
H  -1.397033   0.827554  -0.879696
H  -0.133643  -1.448717   1.020330
H   0.827946  -0.053744  -0.102055
H  -0.194393  -1.202282  -0.746211
