14
butane_opt
C  -3.987991   0.248234  -0.131863
C  -2.729675  -0.637505   0.314327
H  -4.900128  -0.321991  -0.824406
H  -3.385388   0.675294  -0.943505
H  -4.536959   1.184893   0.820122
C  -1.369575   0.316585   0.089057
H  -2.629650  -1.116361  -0.456689
H  -3.007642  -1.451661   1.288607
C  -0.152780  -0.762164  -0.121957
H  -1.087693   1.000781   1.049135
H  -1.415776   0.488680  -0.585144
H   0.284597  -1.266008   0.509076
H   0.775058  -0.176385  -0.079475
H  -0.232517  -1.458655  -1.080417
