butane_opt
 OpenBabel08242015403D

 14 12  0  0  0  0  0  0  0  0999 V2000
   -3.9863    0.2200    0.1596 C   0  0  0  0  0  0  0  0  0  0  0  0
   -2.7689   -0.5812   -0.1201 C   0  0  0  0  0  0  0  0  0  0  0  0
   -4.9779   -0.3424    0.3967 H   0  0  0  0  0  0  0  0  0  0  0  0
   -3.9458    1.2345   -1.0799 H   0  0  0  0  0  0  0  0  0  0  0  0
   -3.8101    0.7216    1.0174 H   0  0  0  0  0  0  0  0  0  0  0  0
   -1.4451    0.2275   -0.0600 C   0  0  0  0  0  0  0  0  0  0  0  0
   -2.9345   -1.4892   -1.1869 H   0  0  0  0  0  0  0  0  0  0  0  0
   -2.7592   -1.0430    0.5335 H   0  0  0  0  0  0  0  0  0  0  0  0
   -0.0355   -0.7425    0.1411 C   0  0  0  0  0  0  0  0  0  0  0  0
   -1.4210    0.9400    0.7980 H   0  0  0  0  0  0  0  0  0  0  0  0
   -1.2353    1.0025   -1.0020 H   0  0  0  0  0  0  0  0  0  0  0  0
   -0.1378   -1.4984    1.1755 H   0  0  0  0  0  0  0  0  0  0  0  0
    1.0015   -0.1362   -0.1847 H   0  0  0  0  0  0  0  0  0  0  0  0
    0.0298   -1.3210   -0.4978 H   0  0  0  0  0  0  0  0  0  0  0  0
  1  3  1  0  0  0  0
  1  5  1  0  0  0  0
  2  6  1  0  0  0  0
  2  1  1  0  0  0  0
  2  8  1  0  0  0  0
  6  9  1  0  0  0  0
  6 10  1  0  0  0  0
  7  2  1  0  0  0  0
  9 12  1  0  0  0  0
 11  6  1  0  0  0  0
 13  9  1  0  0  0  0
 14  9  1  0  0  0  0
M  RAD  2   1   2   4   2
M  END
$$$$
