14
butane_opt
C  -3.899277   0.183016   0.093974
C  -2.722217  -0.533831  -0.026679
H  -4.882931  -0.455279  -0.358735
H  -3.751610   0.463607  -0.399862
H  -3.828433   1.210865   1.177669
C  -1.468312   0.255105  -0.102180
H  -2.707563  -1.424943  -0.913239
H  -2.588377  -1.102200   0.771869
C  -0.193540  -0.719435   0.158684
H  -1.509281   0.673280   0.650437
H  -1.385115   1.229286  -1.158896
H   0.445948  -1.621097   1.140502
H   0.600265  -0.270535  -0.156188
H  -0.046154  -1.418051  -0.751723
