butane_opt
 OpenBabel08242015403D

 14 13  0  0  0  0  0  0  0  0999 V2000
   -3.9319    0.3333   -0.1686 C   0  0  0  0  0  0  0  0  0  0  0  0
   -2.6880   -0.6272    0.2471 C   0  0  0  0  0  0  0  0  0  0  0  0
   -4.9072   -0.4799   -0.6352 H   0  0  0  0  0  0  0  0  0  0  0  0
   -3.6082    0.5546   -0.7933 H   0  0  0  0  0  0  0  0  0  0  0  0
   -4.0303    1.2465    0.8900 H   0  0  0  0  0  0  0  0  0  0  0  0
   -1.4142    0.1268    0.1778 C   0  0  0  0  0  0  0  0  0  0  0  0
   -2.4788   -0.9897   -0.3558 H   0  0  0  0  0  0  0  0  0  0  0  0
   -2.8489   -1.5715    1.2395 H   0  0  0  0  0  0  0  0  0  0  0  0
   -0.2175   -0.7001   -0.1214 C   0  0  0  0  0  0  0  0  0  0  0  0
   -1.1233    0.7058    0.9758 H   0  0  0  0  0  0  0  0  0  0  0  0
   -1.4029    0.7234   -0.6918 H   0  0  0  0  0  0  0  0  0  0  0  0
   -0.1300   -0.9794    0.5337 H   0  0  0  0  0  0  0  0  0  0  0  0
    0.7945   -0.0061   -0.3266 H   0  0  0  0  0  0  0  0  0  0  0  0
   -0.2898   -1.2580   -1.0084 H   0  0  0  0  0  0  0  0  0  0  0  0
  1  2  1  0  0  0  0
  1  5  1  0  0  0  0
  2  8  1  0  0  0  0
  3  1  1  0  0  0  0
  4  1  1  0  0  0  0
  6  2  1  0  0  0  0
  6 10  1  0  0  0  0
  7  2  1  0  0  0  0
  9  6  1  0  0  0  0
  9 12  1  0  0  0  0
 11  6  1  0  0  0  0
 13  9  1  0  0  0  0
 14  9  1  0  0  0  0
M  END
$$$$
