14
butane_opt
C  -3.853818   0.215740   0.142693
C  -2.718232  -0.507681  -0.045494
H  -4.975730  -0.494008  -0.351290
H  -3.655479   0.057191  -0.238548
H  -4.051927   1.481108   1.405886
C  -1.414567   0.251445  -0.188957
H  -2.586777  -1.338979  -1.023487
H  -2.848917  -1.065100   0.789940
C  -0.202300  -0.771436   0.194446
H  -1.504561   0.495175   0.494012
H  -1.352678   1.000245  -1.220944
H  -0.247289  -1.594537   1.089014
H   0.612595  -0.172781  -0.071718
H  -0.093313  -1.131402  -0.535534
