14
butane_opt
C  -3.964034   0.217335   0.117125
C  -2.697481  -0.492502  -0.076594
H  -4.931110  -0.495516  -0.321325
H  -4.056995   0.413138  -0.582656
H  -3.974125   0.938712   1.139648
C  -1.441673   0.204276  -0.002010
H  -2.889273  -1.505962  -1.128668
H  -2.521395  -1.051756   0.663810
C  -0.104424  -0.730373   0.126717
H  -1.458477   0.777192   0.603344
H  -1.213549   1.136282  -1.193200
H   0.184245  -1.938258   1.318078
H   0.716211  -0.182172  -0.485374
H  -0.344596  -0.964613  -0.495913
