butane_opt
 OpenBabel08242015403D

 14 12  0  0  0  0  0  0  0  0999 V2000
   -4.0099    0.2229   -0.1192 C   0  0  0  0  0  0  0  0  0  0  0  0
   -2.7421   -0.5532    0.0939 C   0  0  0  0  0  0  0  0  0  0  0  0
   -4.9973   -0.5080    0.1334 H   0  0  0  0  0  0  0  0  0  0  0  0
   -3.9067    0.9604   -1.1555 H   0  0  0  0  0  0  0  0  0  0  0  0
   -4.0924    0.8144    0.6815 H   0  0  0  0  0  0  0  0  0  0  0  0
   -1.3925    0.2056    0.2388 C   0  0  0  0  0  0  0  0  0  0  0  0
   -2.6846   -1.1241   -0.5279 H   0  0  0  0  0  0  0  0  0  0  0  0
   -2.8443   -1.1562    0.9887 H   0  0  0  0  0  0  0  0  0  0  0  0
   -0.0714   -0.7295   -0.1013 C   0  0  0  0  0  0  0  0  0  0  0  0
   -1.1723    1.0799    1.2116 H   0  0  0  0  0  0  0  0  0  0  0  0
   -1.3178    0.8196   -0.6378 H   0  0  0  0  0  0  0  0  0  0  0  0
    0.2237   -1.7125    1.0226 H   0  0  0  0  0  0  0  0  0  0  0  0
    0.7463   -0.3205   -0.5995 H   0  0  0  0  0  0  0  0  0  0  0  0
   -0.3460   -1.1118   -0.9974 H   0  0  0  0  0  0  0  0  0  0  0  0
  1  2  1  0  0  0  0
  1  3  1  0  0  0  0
  1  5  1  0  0  0  0
  2  6  1  0  0  0  0
  2  8  1  0  0  0  0
  4  1  1  0  0  0  0
  6 10  1  0  0  0  0
  7  2  1  0  0  0  0
  9  6  1  0  0  0  0
 11  6  1  0  0  0  0
 13  9  1  0  0  0  0
 14  9  1  0  0  0  0
M  RAD  2   9   2  12   2
M  END
$$$$
