butane_opt
 OpenBabel08242015403D

 14 11  0  0  0  0  0  0  0  0999 V2000
   -3.9643    0.3136    0.1157 C   0  0  0  0  0  0  0  0  0  0  0  0
   -2.6329   -0.6888   -0.1597 C   0  0  0  0  0  0  0  0  0  0  0  0
   -4.7062   -0.1491    0.1435 H   0  0  0  0  0  0  0  0  0  0  0  0
   -4.1247    0.6503   -0.6020 H   0  0  0  0  0  0  0  0  0  0  0  0
   -3.8417    1.1840    1.1530 H   0  0  0  0  0  0  0  0  0  0  0  0
   -1.3595    0.1541   -0.0379 C   0  0  0  0  0  0  0  0  0  0  0  0
   -2.8256   -1.3414   -1.0775 H   0  0  0  0  0  0  0  0  0  0  0  0
   -2.4400   -1.3798    0.7971 H   0  0  0  0  0  0  0  0  0  0  0  0
   -0.2184   -0.6470    0.1489 C   0  0  0  0  0  0  0  0  0  0  0  0
   -1.7724    0.6834    0.7315 H   0  0  0  0  0  0  0  0  0  0  0  0
   -1.3497    0.7947   -0.8354 H   0  0  0  0  0  0  0  0  0  0  0  0
   -0.2317   -1.7369    1.1455 H   0  0  0  0  0  0  0  0  0  0  0  0
    0.7836    0.0364   -0.4788 H   0  0  0  0  0  0  0  0  0  0  0  0
   -0.4330   -0.7282   -0.2984 H   0  0  0  0  0  0  0  0  0  0  0  0
  1  3  1  0  0  0  0
  1  5  1  0  0  0  0
  2  1  1  0  0  0  0
  2  8  1  0  0  0  0
  4  1  1  0  0  0  0
  6 10  1  0  0  0  0
  7  2  1  0  0  0  0
  9 12  1  0  0  0  0
 11  6  1  0  0  0  0
 13  9  1  0  0  0  0
 14  6  1  0  0  0  0
M  RAD  3   2   2   6   2   9   3
M  END
$$$$
