butane_opt
 OpenBabel08242015403D

 14 13  0  0  0  0  0  0  0  0999 V2000
   -3.8677    0.2991   -0.1711 C   0  0  0  0  0  0  0  0  0  0  0  0
   -2.6385   -0.7084    0.2184 C   0  0  0  0  0  0  0  0  0  0  0  0
   -4.8325   -0.1601   -0.5283 H   0  0  0  0  0  0  0  0  0  0  0  0
   -3.8833    0.9006   -1.0509 H   0  0  0  0  0  0  0  0  0  0  0  0
   -4.3233    1.0300    0.8075 H   0  0  0  0  0  0  0  0  0  0  0  0
   -1.4102    0.1528    0.2013 C   0  0  0  0  0  0  0  0  0  0  0  0
   -2.3337   -1.1384   -0.3669 H   0  0  0  0  0  0  0  0  0  0  0  0
   -2.8159   -1.4674    1.4032 H   0  0  0  0  0  0  0  0  0  0  0  0
   -0.2245   -0.6605   -0.1326 C   0  0  0  0  0  0  0  0  0  0  0  0
   -1.5010    1.1083    1.2068 H   0  0  0  0  0  0  0  0  0  0  0  0
   -1.5585    0.5479   -0.4888 H   0  0  0  0  0  0  0  0  0  0  0  0
   -0.0066   -1.1404    0.6226 H   0  0  0  0  0  0  0  0  0  0  0  0
    0.7122   -0.0383   -0.6518 H   0  0  0  0  0  0  0  0  0  0  0  0
   -0.7522   -1.1194   -0.9276 H   0  0  0  0  0  0  0  0  0  0  0  0
  1  2  1  0  0  0  0
  1  5  1  0  0  0  0
  2  8  1  0  0  0  0
  3  1  1  0  0  0  0
  4  1  1  0  0  0  0
  6  2  1  0  0  0  0
  6 10  1  0  0  0  0
  7  2  1  0  0  0  0
  9  6  1  0  0  0  0
  9 12  1  0  0  0  0
 11  6  1  0  0  0  0
 13  9  1  0  0  0  0
 14  9  1  0  0  0  0
M  END
$$$$
