butane_opt
 OpenBabel08242015403D

 14  9  0  0  0  0  0  0  0  0999 V2000
   -3.8527    0.2007   -0.1485 C   0  0  0  0  0  1  0  0  0  0  0  0
   -2.6773   -0.5672    0.1514 C   0  0  0  0  0  0  0  0  0  0  0  0
   -4.8116   -0.5710    0.6972 H   0  0  0  0  0  0  0  0  0  0  0  0
   -4.3149    1.5194   -1.5444 H   0  0  0  0  0  0  0  0  0  0  0  0
   -3.4857    0.1479    0.3143 H   0  0  0  0  0  0  0  0  0  0  0  0
   -1.4646    0.2609    0.2489 C   0  0  0  0  0  0  0  0  0  0  0  0
   -2.6428   -1.0647   -0.5472 H   0  0  0  0  0  0  0  0  0  0  0  0
   -2.8303   -1.1164    0.9663 H   0  0  0  0  0  0  0  0  0  0  0  0
   -0.1611   -0.7511   -0.1221 C   0  0  0  0  0  0  0  0  0  0  0  0
   -1.4779    1.1316    1.0512 H   0  0  0  0  0  0  0  0  0  0  0  0
   -1.6681    0.8489   -0.6023 H   0  0  0  0  0  0  0  0  0  0  0  0
   -0.2528   -1.0620    0.4917 H   0  0  0  0  0  0  0  0  0  0  0  0
    0.6612   -0.1573    0.2085 H   0  0  0  0  0  0  0  0  0  0  0  0
   -0.2712   -1.9015   -1.2718 H   0  0  0  0  0  0  0  0  0  0  0  0
  1  3  1  0  0  0  0
  2  5  1  0  0  0  0
  2  8  1  0  0  0  0
  6 10  1  0  0  0  0
  7  2  1  0  0  0  0
  9 13  1  0  0  0  0
  9  6  1  0  0  0  0
  9 12  1  0  0  0  0
 11  6  1  0  0  0  0
M  RAD  5   2   2   4   2   6   2   9   2  14   2
M  END
$$$$
