butane_opt
 OpenBabel08242015403D

 14 13  0  0  0  0  0  0  0  0999 V2000
   -3.9651    0.3026    0.0983 C   0  0  0  0  0  0  0  0  0  0  0  0
   -2.7333   -0.6807   -0.0447 C   0  0  0  0  0  0  0  0  0  0  0  0
   -4.6849   -0.0537    0.2233 H   0  0  0  0  0  0  0  0  0  0  0  0
   -4.6388    0.9803   -0.7345 H   0  0  0  0  0  0  0  0  0  0  0  0
   -4.0063    0.8687    0.8686 H   0  0  0  0  0  0  0  0  0  0  0  0
   -1.3922    0.1457   -0.0795 C   0  0  0  0  0  0  0  0  0  0  0  0
   -2.4340   -1.3284   -0.8576 H   0  0  0  0  0  0  0  0  0  0  0  0
   -2.8162   -1.5201    1.0036 H   0  0  0  0  0  0  0  0  0  0  0  0
   -0.1156   -0.6351    0.0925 C   0  0  0  0  0  0  0  0  0  0  0  0
   -1.3566    0.8164    0.7918 H   0  0  0  0  0  0  0  0  0  0  0  0
   -1.2546    0.7655   -1.1405 H   0  0  0  0  0  0  0  0  0  0  0  0
   -0.4624   -1.1115    0.8832 H   0  0  0  0  0  0  0  0  0  0  0  0
    0.8055    0.1248    0.5165 H   0  0  0  0  0  0  0  0  0  0  0  0
    0.2710   -1.5792   -0.9434 H   0  0  0  0  0  0  0  0  0  0  0  0
  1  3  1  0  0  0  0
  1  5  1  0  0  0  0
  2  1  1  0  0  0  0
  2  8  1  0  0  0  0
  4  1  1  0  0  0  0
  6  2  1  0  0  0  0
  6  9  1  0  0  0  0
  6 10  1  0  0  0  0
  7  2  1  0  0  0  0
  9 13  1  0  0  0  0
  9 12  1  0  0  0  0
 11  6  1  0  0  0  0
 14  9  1  0  0  0  0
M  END
$$$$
