butane_opt
 OpenBabel08242015403D

 14 11  0  0  0  0  0  0  0  0999 V2000
   -3.9735    0.3313    0.0799 C   0  0  0  0  0  0  0  0  0  0  0  0
   -2.6750   -0.7291   -0.0668 C   0  0  0  0  0  0  0  0  0  0  0  0
   -4.9864   -0.2025    0.0189 H   0  0  0  0  0  0  0  0  0  0  0  0
   -4.0928    0.6775   -0.5521 H   0  0  0  0  0  0  0  0  0  0  0  0
   -4.3058    1.1022    1.1158 H   0  0  0  0  0  0  0  0  0  0  0  0
   -1.3831    0.1645   -0.0064 C   0  0  0  0  0  0  0  0  0  0  0  0
   -2.6453   -1.4756   -1.0797 H   0  0  0  0  0  0  0  0  0  0  0  0
   -2.6086   -1.1183    0.5970 H   0  0  0  0  0  0  0  0  0  0  0  0
   -0.1632   -0.5915    0.0752 C   0  0  0  0  0  0  0  0  0  0  0  0
   -1.4478    0.7558    0.7964 H   0  0  0  0  0  0  0  0  0  0  0  0
   -1.2676    0.7186   -0.8587 H   0  0  0  0  0  0  0  0  0  0  0  0
    0.0112   -2.0673    1.5499 H   0  0  0  0  0  0  0  0  0  0  0  0
    0.6995   -0.1120   -0.5693 H   0  0  0  0  0  0  0  0  0  0  0  0
   -0.0753   -0.8481   -0.4718 H   0  0  0  0  0  0  0  0  0  0  0  0
  1  5  1  0  0  0  0
  2  6  1  0  0  0  0
  2  1  1  0  0  0  0
  2  8  1  0  0  0  0
  3  1  1  0  0  0  0
  4  1  1  0  0  0  0
  6  9  1  0  0  0  0
  6 10  1  0  0  0  0
  7  2  1  0  0  0  0
 11  6  1  0  0  0  0
 13  9  1  0  0  0  0
M  RAD  3   9   3  12   2  14   2
M  END
$$$$
