14
butane_opt
C  -3.888731   0.253106   0.146788
C  -2.796704  -0.541892  -0.029922
H  -4.780516  -0.468028  -0.248309
H  -3.523089   0.187975  -0.424922
H  -4.083742   1.401776   1.322279
C  -1.432103   0.211970  -0.169070
H  -3.097301  -1.476091  -1.212183
H  -2.403759  -1.116284   0.628185
C  -0.109286  -0.752632   0.181286
H  -1.551696   0.653035   0.556461
H  -1.387401   1.160633  -1.367829
H  -0.249835  -1.532257   1.319909
H   0.914661  -0.135414   0.014882
H  -0.147030  -1.189384  -0.603556
