14
butane_opt
C  -3.963905   0.273127  -0.002803
C  -2.691701  -0.639216   0.058643
H  -4.850956  -0.281338   0.006835
H  -3.985877   0.958408  -0.920326
H  -3.997706   0.896770   0.834267
C  -1.391055   0.186576   0.044993
H  -2.696787  -1.299641  -0.793631
H  -2.754611  -1.246377   0.927530
C  -0.156927  -0.690252   0.011489
H  -1.336629   0.838578   0.902422
H  -1.423679   0.810715  -0.858020
H  -0.094890  -1.281055   0.866849
H   0.756602  -0.080672  -0.045180
H  -0.199904  -1.341773  -0.831253
