butane_opt
 OpenBabel08242015403D

 14 13  0  0  0  0  0  0  0  0999 V2000
   -3.9761    0.2125    0.1795 C   0  0  0  0  0  0  0  0  0  0  0  0
   -2.7168   -0.5844   -0.1944 C   0  0  0  0  0  0  0  0  0  0  0  0
   -4.9156   -0.6608    0.7462 H   0  0  0  0  0  0  0  0  0  0  0  0
   -4.3079    1.2299   -0.8568 H   0  0  0  0  0  0  0  0  0  0  0  0
   -3.5108    0.7176    1.0013 H   0  0  0  0  0  0  0  0  0  0  0  0
   -1.3906    0.2707   -0.1531 C   0  0  0  0  0  0  0  0  0  0  0  0
   -2.9756   -1.2766   -1.1050 H   0  0  0  0  0  0  0  0  0  0  0  0
   -2.6171   -1.0302    0.6055 H   0  0  0  0  0  0  0  0  0  0  0  0
   -0.1443   -0.7222    0.1860 C   0  0  0  0  0  0  0  0  0  0  0  0
   -1.4636    0.8644    0.7660 H   0  0  0  0  0  0  0  0  0  0  0  0
   -1.5217    0.7407   -0.9067 H   0  0  0  0  0  0  0  0  0  0  0  0
   -0.2385   -1.4770    1.1984 H   0  0  0  0  0  0  0  0  0  0  0  0
    0.5684   -0.3318    0.2568 H   0  0  0  0  0  0  0  0  0  0  0  0
    0.6943   -1.3642   -0.5271 H   0  0  0  0  0  0  0  0  0  0  0  0
  1  3  1  0  0  0  0
  1  5  1  0  0  0  0
  2  6  1  0  0  0  0
  2  1  1  0  0  0  0
  2  8  1  0  0  0  0
  4  1  1  0  0  0  0
  6  9  1  0  0  0  0
  6 10  1  0  0  0  0
  7  2  1  0  0  0  0
  9 13  1  0  0  0  0
  9 12  1  0  0  0  0
 11  6  1  0  0  0  0
 14  9  1  0  0  0  0
M  END
$$$$
