14
butane_opt
C  -3.961345   0.275860   0.009834
C  -2.697398  -0.631287   0.052355
H  -4.836382  -0.316993  -0.109374
H  -3.949186   0.811209  -0.852550
H  -4.048379   1.054494   0.909395
C  -1.390159   0.178106   0.018103
H  -2.724236  -1.239468  -0.745046
H  -2.698117  -1.307478   0.983138
C  -0.166777  -0.688212   0.021566
H  -1.341355   0.813097   0.860862
H  -1.339762   0.799733  -0.888388
H  -0.074470  -1.279658   0.886647
H   0.738818  -0.089798   0.006517
H  -0.165148  -1.325860  -0.825607
