14
butane_opt
C  -3.935360   0.269052  -0.011471
C  -2.687330  -0.624905   0.063994
H  -4.856178  -0.309463  -0.001848
H  -3.995565   0.925014  -0.946279
H  -4.036302   0.943693   0.849268
C  -1.407913   0.176408   0.045433
H  -2.680444  -1.315380  -0.783391
H  -2.721805  -1.277487   0.949753
C  -0.170050  -0.688208   0.007673
H  -1.298291   0.917708   0.965697
H  -1.453587   0.765264  -0.803256
H  -0.138045  -1.352952   0.914209
H   0.785800  -0.068182  -0.143352
H  -0.215400  -1.279935  -0.823561
