butane_opt
 OpenBabel08242015403D

 14 11  0  0  0  0  0  0  0  0999 V2000
   -3.9634    0.2195    0.0695 C   0  0  0  0  0  0  0  0  0  0  0  0
   -2.7514   -0.5659    0.0421 C   0  0  0  0  0  0  0  0  0  0  0  0
   -4.9128   -0.3651   -0.2239 H   0  0  0  0  0  0  0  0  0  0  0  0
   -3.5463    0.3987   -0.6577 H   0  0  0  0  0  0  0  0  0  0  0  0
   -4.2260    0.9458    1.0089 H   0  0  0  0  0  0  0  0  0  0  0  0
   -1.4052    0.2952   -0.0679 C   0  0  0  0  0  0  0  0  0  0  0  0
   -2.9513   -1.2277   -0.9131 H   0  0  0  0  0  0  0  0  0  0  0  0
   -2.6281   -0.9472    0.7963 H   0  0  0  0  0  0  0  0  0  0  0  0
   -0.1460   -0.7708    0.1057 C   0  0  0  0  0  0  0  0  0  0  0  0
   -1.1344    0.7912    0.6360 H   0  0  0  0  0  0  0  0  0  0  0  0
   -1.3885    0.9622   -1.1084 H   0  0  0  0  0  0  0  0  0  0  0  0
    0.1612   -1.3739    0.9419 H   0  0  0  0  0  0  0  0  0  0  0  0
    0.6866   -0.3611   -0.0349 H   0  0  0  0  0  0  0  0  0  0  0  0
    0.1168   -1.4653   -0.7439 H   0  0  0  0  0  0  0  0  0  0  0  0
  1  5  1  0  0  0  0
  2  8  1  0  0  0  0
  3  1  1  0  0  0  0
  4  1  1  0  0  0  0
  6  9  1  0  0  0  0
  6 10  1  0  0  0  0
  7  2  1  0  0  0  0
  9 12  1  0  0  0  0
 11  6  1  0  0  0  0
 13  9  1  0  0  0  0
 14  9  1  0  0  0  0
M  RAD  3   1   2   2   3   6   2
M  END
$$$$
