14
butane_opt
C  -4.002919   0.312433  -0.087086
C  -2.725290  -0.705553   0.139436
H  -4.817019  -0.216286  -0.178134
H  -3.754766   1.113380  -1.107085
H  -4.426142   0.862683   0.612444
C  -1.371788   0.169830   0.168415
H  -2.577174  -1.343075  -0.730172
H  -2.872466  -1.482567   1.272836
C  -0.107725  -0.659021  -0.114126
H  -1.445724   1.283619   1.261636
H  -1.604835   0.451741  -0.548032
H   0.236492  -1.448053   0.853606
H   0.969190   0.028191  -0.563449
H  -0.287355  -1.075306  -0.697146
