14
butane_opt
C  -4.065337   0.335042   0.199566
C  -2.673679  -0.673493  -0.243785
H  -4.833302  -0.110100   0.731765
H  -4.498362   1.030591  -0.657936
H  -3.759646   0.766591   1.067360
C  -1.322549   0.142709  -0.143815
H  -2.934023  -1.417435  -1.159125
H  -2.394008  -1.341626   0.617645
C  -0.175055  -0.657283   0.218870
H  -1.497349   0.490847   0.539794
H  -0.873354   0.693616  -1.136039
H  -0.134786  -1.209892   1.155736
H   0.754916   0.052847   0.409064
H  -0.050764  -1.123985  -0.515023
