14
butane_opt
C  -3.867681   0.299116  -0.171055
C  -2.638492  -0.708446   0.218412
H  -4.832453  -0.160129  -0.528256
H  -3.883318   0.900642  -1.050879
H  -4.323322   1.030001   0.807461
C  -1.410246   0.152808   0.201310
H  -2.333654  -1.138387  -0.366914
H  -2.815905  -1.467353   1.403183
C  -0.224466  -0.660524  -0.132599
H  -1.501002   1.108306   1.206801
H  -1.558524   0.547943  -0.488755
H  -0.006607  -1.140361   0.622592
H   0.712248  -0.038346  -0.651800
H  -0.752208  -1.119410  -0.927633
