14
butane_opt
C  -3.943197   0.252544  -0.088807
C  -2.681393  -0.611145   0.123862
H  -4.822596  -0.495131  -0.175095
H  -3.868366   0.794580  -0.824133
H  -4.361184   1.156712   0.954172
C  -1.431897   0.199371   0.132764
H  -2.774106  -1.430540  -0.939080
H  -2.988036  -1.225362   1.101645
C  -0.118303  -0.680306  -0.020897
H  -1.589731   0.869549   0.928364
H  -1.281166   0.850841  -0.781831
H   0.549956  -1.604037   0.945079
H   0.722434  -0.153952  -0.681400
H  -0.499750  -1.152126  -0.795270
