butane_opt
 OpenBabel08242015403D

 14 11  0  0  0  0  0  0  0  0999 V2000
   -3.8756    0.1811   -0.0662 C   0  0  0  0  0  0  0  0  0  0  0  0
   -2.6894   -0.5245    0.2125 C   0  0  0  0  0  0  0  0  0  0  0  0
   -4.8596   -0.3454   -0.2345 H   0  0  0  0  0  0  0  0  0  0  0  0
   -3.8487    0.9668   -1.0507 H   0  0  0  0  0  0  0  0  0  0  0  0
   -4.0068    0.7257    0.6643 H   0  0  0  0  0  0  0  0  0  0  0  0
   -1.4969    0.2207    0.0530 C   0  0  0  0  0  0  0  0  0  0  0  0
   -2.7171   -1.0255   -0.6839 H   0  0  0  0  0  0  0  0  0  0  0  0
   -2.8414   -1.3827    1.2288 H   0  0  0  0  0  0  0  0  0  0  0  0
   -0.1186   -0.7240   -0.0209 C   0  0  0  0  0  0  0  0  0  0  0  0
   -1.3398    0.8495    0.8421 H   0  0  0  0  0  0  0  0  0  0  0  0
   -1.5009    1.0365   -0.9670 H   0  0  0  0  0  0  0  0  0  0  0  0
   -0.1926   -0.8384    0.3917 H   0  0  0  0  0  0  0  0  0  0  0  0
    0.7814   -0.0783    0.5020 H   0  0  0  0  0  0  0  0  0  0  0  0
   -0.2875   -2.2761   -1.4680 H   0  0  0  0  0  0  0  0  0  0  0  0
  1  2  1  0  0  0  0
  1  5  1  0  0  0  0
  2  8  1  0  0  0  0
  3  1  1  0  0  0  0
  4  1  1  0  0  0  0
  6  2  1  0  0  0  0
  6 10  1  0  0  0  0
  7  2  1  0  0  0  0
  9  6  1  0  0  0  0
  9 13  1  0  0  0  0
 11  6  1  0  0  0  0
M  RAD  3   9   3  12   2  14   2
M  END
$$$$
