14
butane_opt
C  -3.933653   0.224711   0.169834
C  -2.777810  -0.554785  -0.070454
H  -4.927931  -0.430314  -0.216176
H  -4.005824   0.614617  -0.507134
H  -3.820078   1.070082   1.265200
C  -1.437620   0.227438  -0.218922
H  -3.053324  -1.051702  -0.813195
H  -2.756196  -1.167983   0.824453
C  -0.051291  -0.741002   0.146973
H  -1.194700   0.745404   0.547627
H  -1.430187   0.983178  -1.054512
H  -0.582797  -1.347440   1.206920
H   0.744786  -0.229426   0.724376
H   0.432497  -1.604445  -0.871963
