14
butane_opt
C  -3.951522   0.335260  -0.105426
C  -2.598647  -0.707267   0.192283
H  -4.953142  -0.287896   0.226061
H  -3.957713   1.205926  -1.199107
H  -3.884586   0.727445   0.554559
C  -1.437914   0.086240   0.132712
H  -2.536532  -1.094339  -0.452271
H  -2.659205  -1.377650   1.149226
C  -0.211856  -0.603147  -0.074252
H  -1.196618   0.564004   0.870542
H  -1.500847   0.924373  -1.048789
H  -0.653243  -0.378748   0.437610
H   0.679922   0.017670   0.640633
H   0.003873  -2.139903  -1.598306
