14
butane_opt
C  -3.931927   0.252304   0.036174
C  -2.705260  -0.593510  -0.000492
H  -4.886694  -0.369838   0.050647
H  -4.001550   0.810264  -0.823628
H  -3.923144   0.999109   0.960673
C  -1.407453   0.194786  -0.000666
H  -2.714438  -1.307384  -0.862334
H  -2.713523  -1.239761   0.914871
C  -0.163164  -0.707235   0.055060
H  -1.389377   0.839282   0.849254
H  -1.399648   0.835966  -0.917763
H  -0.107432  -1.414499   1.039579
H   0.749445  -0.095780  -0.096144
H  -0.135863  -1.285244  -0.741289
