butane_opt
 OpenBabel08242015403D

 14 13  0  0  0  0  0  0  0  0999 V2000
   -3.9521    0.2616   -0.0128 C   0  0  0  0  0  0  0  0  0  0  0  0
   -2.7037   -0.6235    0.0870 C   0  0  0  0  0  0  0  0  0  0  0  0
   -4.8440   -0.2956   -0.0762 H   0  0  0  0  0  0  0  0  0  0  0  0
   -3.9482    0.8879   -0.8928 H   0  0  0  0  0  0  0  0  0  0  0  0
   -4.0604    1.0238    0.8806 H   0  0  0  0  0  0  0  0  0  0  0  0
   -1.3916    0.1824    0.0296 C   0  0  0  0  0  0  0  0  0  0  0  0
   -2.7099   -1.3051   -0.7539 H   0  0  0  0  0  0  0  0  0  0  0  0
   -2.7291   -1.2476    0.9558 H   0  0  0  0  0  0  0  0  0  0  0  0
   -0.1549   -0.6905    0.0055 C   0  0  0  0  0  0  0  0  0  0  0  0
   -1.3141    0.8355    0.8712 H   0  0  0  0  0  0  0  0  0  0  0  0
   -1.4266    0.8278   -0.8619 H   0  0  0  0  0  0  0  0  0  0  0  0
   -0.1298   -1.2747    0.8725 H   0  0  0  0  0  0  0  0  0  0  0  0
    0.7478   -0.1100    0.0364 H   0  0  0  0  0  0  0  0  0  0  0  0
   -0.1753   -1.3780   -0.8956 H   0  0  0  0  0  0  0  0  0  0  0  0
  1  2  1  0  0  0  0
  1  5  1  0  0  0  0
  2  8  1  0  0  0  0
  3  1  1  0  0  0  0
  4  1  1  0  0  0  0
  6  2  1  0  0  0  0
  6 10  1  0  0  0  0
  7  2  1  0  0  0  0
  9  6  1  0  0  0  0
  9 13  1  0  0  0  0
  9 12  1  0  0  0  0
 11  6  1  0  0  0  0
 14  9  1  0  0  0  0
M  END
$$$$
