14
butane_opt
C  -3.877146   0.299503   0.194004
C  -2.622109  -0.667143  -0.122015
H  -4.810590  -0.314940   0.329893
H  -4.426372   0.944011  -0.606513
H  -3.720309   1.179916   1.275687
C  -1.445959   0.087993  -0.186849
H  -2.749779  -1.566667  -1.176886
H  -2.657213  -1.122999   0.722147
C  -0.220608  -0.616593   0.188965
H  -1.729400   0.447829   0.323781
H  -1.105769   1.183832  -1.522940
H  -0.652331  -0.960857   1.010287
H   0.657093   0.030041   0.815352
H   0.164231  -1.546526  -0.645458
