14
butane_opt
C  -3.963363   0.219520   0.069518
C  -2.751372  -0.565876   0.042150
H  -4.912831  -0.365120  -0.223923
H  -3.546302   0.398705  -0.657690
H  -4.225954   0.945813   1.008900
C  -1.405187   0.295231  -0.067854
H  -2.951322  -1.227712  -0.913120
H  -2.628113  -0.947166   0.796307
C  -0.145989  -0.770815   0.105673
H  -1.134368   0.791241   0.635997
H  -1.388526   0.962234  -1.108410
H   0.161187  -1.373924   0.941900
H   0.686645  -0.361085  -0.034869
H   0.116844  -1.465264  -0.743876
