14
butane_opt
C  -3.916379   0.184905   0.107543
C  -2.723233  -0.581577   0.070022
H  -4.807682  -0.321714  -0.814581
H  -3.503443   0.443777  -0.609989
H  -4.055150   1.371090   1.117745
C  -1.411292   0.312544  -0.095186
H  -3.059623  -1.210189  -0.730166
H  -2.863903  -1.212142   0.870506
C  -0.126173  -0.795147   0.059336
H  -1.720033   0.882722   0.650619
H  -1.288706   1.084245  -1.071539
H  -0.196722  -1.362216   0.916964
H   0.615392  -0.345136   0.083506
H   0.007825  -1.290499  -0.665137
