butane_opt
 OpenBabel08242015403D

 14 12  0  0  0  0  0  0  0  0999 V2000
   -3.9585    0.2318   -0.0090 C   0  0  0  0  0  0  0  0  0  0  0  0
   -2.7094   -0.5317    0.0170 C   0  0  0  0  0  0  0  0  0  0  0  0
   -4.9296   -0.4897    0.8541 H   0  0  0  0  0  0  0  0  0  0  0  0
   -3.9927    1.1817   -1.1516 H   0  0  0  0  0  0  0  0  0  0  0  0
   -3.7196    0.1358    0.5890 H   0  0  0  0  0  0  0  0  0  0  0  0
   -1.4548    0.2122    0.0694 C   0  0  0  0  0  0  0  0  0  0  0  0
   -2.8716   -1.2668   -0.9020 H   0  0  0  0  0  0  0  0  0  0  0  0
   -2.6303   -0.9876    0.7020 H   0  0  0  0  0  0  0  0  0  0  0  0
   -0.1285   -0.7254   -0.0097 C   0  0  0  0  0  0  0  0  0  0  0  0
   -1.2941    0.8298    0.8867 H   0  0  0  0  0  0  0  0  0  0  0  0
   -1.5780    0.8764   -0.7207 H   0  0  0  0  0  0  0  0  0  0  0  0
   -0.1508   -1.2169    0.8022 H   0  0  0  0  0  0  0  0  0  0  0  0
    0.7111   -0.2000    0.4264 H   0  0  0  0  0  0  0  0  0  0  0  0
    0.4264   -1.5738   -0.9090 H   0  0  0  0  0  0  0  0  0  0  0  0
  1  5  1  0  0  0  0
  1  3  1  0  0  0  0
  2  6  1  0  0  0  0
  2  8  1  0  0  0  0
  4  1  1  0  0  0  0
  6 10  1  0  0  0  0
  7  2  1  0  0  0  0
  9  6  1  0  0  0  0
  9 13  1  0  0  0  0
  9 12  1  0  0  0  0
 11  6  1  0  0  0  0
 14  9  1  0  0  0  0
M  RAD  2   1   2   2   2
M  END
$$$$
