butane_opt
 OpenBabel08242015403D

 14 12  0  0  0  0  0  0  0  0999 V2000
   -3.9310    0.2095    0.1179 C   0  0  0  0  0  0  0  0  0  0  0  0
   -2.7372   -0.5929   -0.0765 C   0  0  0  0  0  0  0  0  0  0  0  0
   -4.9405   -0.4747   -0.1457 H   0  0  0  0  0  0  0  0  0  0  0  0
   -4.2302    0.7250   -0.6516 H   0  0  0  0  0  0  0  0  0  0  0  0
   -3.7878    1.2955    1.2663 H   0  0  0  0  0  0  0  0  0  0  0  0
   -1.4451    0.2398   -0.0734 C   0  0  0  0  0  0  0  0  0  0  0  0
   -2.7342   -1.2797   -0.9506 H   0  0  0  0  0  0  0  0  0  0  0  0
   -2.5483   -1.3197    0.8653 H   0  0  0  0  0  0  0  0  0  0  0  0
   -0.1034   -0.6968    0.1256 C   0  0  0  0  0  0  0  0  0  0  0  0
   -1.4476    0.7537    0.6606 H   0  0  0  0  0  0  0  0  0  0  0  0
   -1.1786    1.0027   -1.2554 H   0  0  0  0  0  0  0  0  0  0  0  0
   -0.1016   -1.5751    1.0887 H   0  0  0  0  0  0  0  0  0  0  0  0
    0.4247   -0.2900    0.1198 H   0  0  0  0  0  0  0  0  0  0  0  0
    0.1706   -1.2704   -0.6624 H   0  0  0  0  0  0  0  0  0  0  0  0
  2  6  1  0  0  0  0
  2  1  1  0  0  0  0
  2  8  1  0  0  0  0
  3  1  1  0  0  0  0
  4  1  1  0  0  0  0
  6  9  1  0  0  0  0
  6 10  1  0  0  0  0
  7  2  1  0  0  0  0
  9 12  1  0  0  0  0
 11  6  1  0  0  0  0
 13  9  1  0  0  0  0
 14  9  1  0  0  0  0
M  RAD  2   1   2   5   2
M  END
$$$$
