14
butane_opt
C  -3.842293   0.215697  -0.106175
C  -2.719832  -0.522948   0.229231
H  -4.996606  -0.497941  -0.547019
H  -3.213200   0.518508  -0.930183
H  -4.218370   1.154186   0.849587
C  -1.438981   0.233497   0.085818
H  -2.874697  -0.924988  -0.491540
H  -2.652566  -1.595194   1.406298
C  -0.236957  -0.721288  -0.116836
H  -1.309685   1.040758   1.089652
H  -1.649098   0.645935  -0.786275
H  -0.031229  -1.321974   0.809427
H   0.633244  -0.190008   0.106972
H   0.120027  -1.785630  -1.164279
