butane_opt
 OpenBabel08242015403D

 14 13  0  0  0  0  0  0  0  0999 V2000
   -3.8963    0.3026    0.1023 C   0  0  0  0  0  0  0  0  0  0  0  0
   -2.6963   -0.6956   -0.0082 C   0  0  0  0  0  0  0  0  0  0  0  0
   -4.6812   -0.1164    0.2053 H   0  0  0  0  0  0  0  0  0  0  0  0
   -4.0488    1.0681   -0.8778 H   0  0  0  0  0  0  0  0  0  0  0  0
   -3.6688    0.8952    1.0531 H   0  0  0  0  0  0  0  0  0  0  0  0
   -1.4429    0.1495   -0.1040 C   0  0  0  0  0  0  0  0  0  0  0  0
   -2.8598   -1.5807   -1.0091 H   0  0  0  0  0  0  0  0  0  0  0  0
   -2.4569   -1.0859    0.7186 H   0  0  0  0  0  0  0  0  0  0  0  0
   -0.2199   -0.6590    0.0994 C   0  0  0  0  0  0  0  0  0  0  0  0
   -1.2906    0.7292    0.6855 H   0  0  0  0  0  0  0  0  0  0  0  0
   -1.2175    1.1927   -1.1719 H   0  0  0  0  0  0  0  0  0  0  0  0
   -0.6974   -1.1156    0.9315 H   0  0  0  0  0  0  0  0  0  0  0  0
    0.8482   -0.0518    0.6003 H   0  0  0  0  0  0  0  0  0  0  0  0
    0.0842   -1.5641   -0.8275 H   0  0  0  0  0  0  0  0  0  0  0  0
  1  3  1  0  0  0  0
  1  5  1  0  0  0  0
  2  1  1  0  0  0  0
  2  8  1  0  0  0  0
  4  1  1  0  0  0  0
  6  2  1  0  0  0  0
  6  9  1  0  0  0  0
  6 10  1  0  0  0  0
  7  2  1  0  0  0  0
  9 13  1  0  0  0  0
  9 12  1  0  0  0  0
 11  6  1  0  0  0  0
 14  9  1  0  0  0  0
M  END
$$$$
