14
butane_opt
C  -3.965099   0.302593   0.098294
C  -2.733299  -0.680715  -0.044725
H  -4.684854  -0.053734   0.223286
H  -4.638825   0.980307  -0.734536
H  -4.006347   0.868708   0.868629
C  -1.392167   0.145700  -0.079522
H  -2.433960  -1.328352  -0.857598
H  -2.816177  -1.520140   1.003625
C  -0.115562  -0.635130   0.092464
H  -1.356634   0.816392   0.791826
H  -1.254574   0.765534  -1.140523
H  -0.462360  -1.111505   0.883172
H   0.805481   0.124814   0.516472
H   0.270994  -1.579199  -0.943396
