14
butane_opt
C  -3.886993   0.189247   0.134858
C  -2.677953  -0.471863  -0.086276
H  -5.055613  -0.598724  -0.256019
H  -3.817911   0.726452  -0.570779
H  -3.642799   0.976117   1.097161
C  -1.500622   0.180078  -0.033065
H  -2.809270  -1.636096  -1.259597
H  -2.742787  -0.864570   0.533275
C  -0.162049  -0.750659   0.128527
H  -1.298195   0.875450   0.767847
H  -1.663389   0.992235  -1.085260
H   0.172370  -1.931949   1.384165
H   0.680734  -0.185401  -0.623899
H  -0.106953  -0.597808  -0.183522
