14
butane_opt
C  -4.038376   0.300344   0.167498
C  -2.638721  -0.699921  -0.072566
H  -4.754668  -0.136880   0.422932
H  -4.160455   1.267900  -0.959089
H  -3.969434   0.868482   0.968410
C  -1.385315   0.158754  -0.136834
H  -2.868048  -1.600177  -1.127294
H  -2.562404  -1.237752   0.761159
C  -0.177070  -0.603960   0.109785
H  -1.447132   0.611736   0.595852
H  -1.007638   0.716649  -1.156438
H  -0.371898  -1.084673   1.108812
H   0.712388  -0.196124   0.819370
H   0.238033  -1.492860  -0.841322
