butane_opt
 OpenBabel08242015403D

 14  8  0  0  0  0  0  0  0  0999 V2000
   -3.8887    0.2531    0.1468 C   0  0  0  0  0  0  0  0  0  0  0  0
   -2.7967   -0.5419   -0.0299 C   0  0  0  0  0  1  0  0  0  0  0  0
   -4.7805   -0.4680   -0.2483 H   0  0  0  0  0  0  0  0  0  0  0  0
   -3.5231    0.1880   -0.4249 H   0  0  0  0  0  0  0  0  0  0  0  0
   -4.0837    1.4018    1.3223 H   0  0  0  0  0  0  0  0  0  0  0  0
   -1.4321    0.2120   -0.1691 C   0  0  0  0  0  0  0  0  0  0  0  0
   -3.0973   -1.4761   -1.2122 H   0  0  0  0  0  0  0  0  0  0  0  0
   -2.4038   -1.1163    0.6282 H   0  0  0  0  0  0  0  0  0  0  0  0
   -0.1093   -0.7526    0.1813 C   0  0  0  0  0  0  0  0  0  0  0  0
   -1.5517    0.6530    0.5565 H   0  0  0  0  0  0  0  0  0  0  0  0
   -1.3874    1.1606   -1.3678 H   0  0  0  0  0  0  0  0  0  0  0  0
   -0.2498   -1.5323    1.3199 H   0  0  0  0  0  0  0  0  0  0  0  0
    0.9147   -0.1354    0.0149 H   0  0  0  0  0  0  0  0  0  0  0  0
   -0.1470   -1.1894   -0.6036 H   0  0  0  0  0  0  0  0  0  0  0  0
  2  8  1  0  0  0  0
  3  1  1  0  0  0  0
  4  1  1  0  0  0  0
  6  9  1  0  0  0  0
  6 10  1  0  0  0  0
  9 12  1  0  0  0  0
 13  9  1  0  0  0  0
 14  9  1  0  0  0  0
M  RAD  5   1   3   5   2   6   3   7   2  11   2
M  END
$$$$
