butane_opt
 OpenBabel08242015403D

 14 13  0  0  0  0  0  0  0  0999 V2000
   -3.9918    0.2616    0.0076 C   0  0  0  0  0  0  0  0  0  0  0  0
   -2.7579   -0.6303    0.1123 C   0  0  0  0  0  0  0  0  0  0  0  0
   -4.8726   -0.2852    0.2293 H   0  0  0  0  0  0  0  0  0  0  0  0
   -4.1292    1.0407   -1.0439 H   0  0  0  0  0  0  0  0  0  0  0  0
   -3.8728    1.1753    0.9307 H   0  0  0  0  0  0  0  0  0  0  0  0
   -1.3731    0.1449   -0.0918 C   0  0  0  0  0  0  0  0  0  0  0  0
   -2.6232   -1.1213   -0.6195 H   0  0  0  0  0  0  0  0  0  0  0  0
   -2.6577   -1.3093    1.0662 H   0  0  0  0  0  0  0  0  0  0  0  0
   -0.1035   -0.6643    0.0073 C   0  0  0  0  0  0  0  0  0  0  0  0
   -1.4514    0.8669    0.8100 H   0  0  0  0  0  0  0  0  0  0  0  0
   -1.2620    0.5274   -0.9563 H   0  0  0  0  0  0  0  0  0  0  0  0
   -0.4724   -0.8868    0.5921 H   0  0  0  0  0  0  0  0  0  0  0  0
    0.8542   -0.0411    0.9621 H   0  0  0  0  0  0  0  0  0  0  0  0
    0.1792   -1.7686   -0.9837 H   0  0  0  0  0  0  0  0  0  0  0  0
  1  2  1  0  0  0  0
  1  3  1  0  0  0  0
  1  5  1  0  0  0  0
  2  8  1  0  0  0  0
  4  1  1  0  0  0  0
  6  9  1  0  0  0  0
  6  2  1  0  0  0  0
  6 10  1  0  0  0  0
  7  2  1  0  0  0  0
  9 12  1  0  0  0  0
  9 13  1  0  0  0  0
 11  6  1  0  0  0  0
 14  9  1  0  0  0  0
M  END
$$$$
