butane_opt
 OpenBabel08242015403D

 14 10  0  0  0  0  0  0  0  0999 V2000
   -3.8997    0.1828    0.1287 C   0  0  0  0  0  0  0  0  0  0  0  0
   -2.6915   -0.4782   -0.0855 C   0  0  0  0  0  0  0  0  0  0  0  0
   -5.0642   -0.4919   -0.2485 H   0  0  0  0  0  0  0  0  0  0  0  0
   -3.7771    0.2725   -0.5635 H   0  0  0  0  0  0  0  0  0  0  0  0
   -3.8092    1.1069    1.0933 H   0  0  0  0  0  0  0  0  0  0  0  0
   -1.4199    0.2059   -0.0136 C   0  0  0  0  0  0  0  0  0  0  0  0
   -2.6927   -1.2702   -1.0522 H   0  0  0  0  0  0  0  0  0  0  0  0
   -2.6104   -0.7689    0.5163 H   0  0  0  0  0  0  0  0  0  0  0  0
   -0.2141   -0.7673    0.1224 C   0  0  0  0  0  0  0  0  0  0  0  0
   -1.8132    0.6666    0.7914 H   0  0  0  0  0  0  0  0  0  0  0  0
   -1.2766    1.1590   -1.1398 H   0  0  0  0  0  0  0  0  0  0  0  0
    0.1940   -1.9489    1.3099 H   0  0  0  0  0  0  0  0  0  0  0  0
    0.7125   -0.1859   -0.7204 H   0  0  0  0  0  0  0  0  0  0  0  0
   -0.1710   -0.7581   -0.2988 H   0  0  0  0  0  0  0  0  0  0  0  0
  1  5  1  0  0  0  0
  2  1  1  0  0  0  0
  2  8  1  0  0  0  0
  3  1  1  0  0  0  0
  4  1  1  0  0  0  0
  6  9  1  0  0  0  0
  6 10  1  0  0  0  0
  7  2  1  0  0  0  0
 11  6  1  0  0  0  0
 13  9  1  0  0  0  0
M  RAD  5   2   2   6   2   9   3  12   2  14   2
M  END
$$$$
