butane_opt
 OpenBabel08242015403D

 14 11  0  0  0  0  0  0  0  0999 V2000
   -3.8805    0.2594   -0.0606 C   0  0  0  0  0  1  0  0  0  0  0  0
   -2.6692   -0.6199    0.0306 C   0  0  0  0  0  0  0  0  0  0  0  0
   -4.7711   -0.3492    0.7813 H   0  0  0  0  0  0  0  0  0  0  0  0
   -4.1286    1.4919   -1.2379 H   0  0  0  0  0  0  0  0  0  0  0  0
   -3.5162    0.2362    0.4259 H   0  0  0  0  0  0  0  0  0  0  0  0
   -1.4219    0.1831    0.1087 C   0  0  0  0  0  0  0  0  0  0  0  0
   -2.7710   -0.9909   -0.6675 H   0  0  0  0  0  0  0  0  0  0  0  0
   -2.8913   -1.1720    1.0205 H   0  0  0  0  0  0  0  0  0  0  0  0
   -0.2472   -0.6987   -0.0043 C   0  0  0  0  0  0  0  0  0  0  0  0
   -1.3311    1.0432    1.0481 H   0  0  0  0  0  0  0  0  0  0  0  0
   -1.4412    0.6465   -0.6742 H   0  0  0  0  0  0  0  0  0  0  0  0
    0.1598   -0.8932    0.4969 H   0  0  0  0  0  0  0  0  0  0  0  0
    0.6254   -0.2597    0.2879 H   0  0  0  0  0  0  0  0  0  0  0  0
   -0.3433   -1.7127   -1.0134 H   0  0  0  0  0  0  0  0  0  0  0  0
  1  3  1  0  0  0  0
  2  6  1  0  0  0  0
  2  5  1  0  0  0  0
  2  8  1  0  0  0  0
  6 10  1  0  0  0  0
  7  2  1  0  0  0  0
  9  6  1  0  0  0  0
  9 13  1  0  0  0  0
  9 12  1  0  0  0  0
 11  6  1  0  0  0  0
 14  9  1  0  0  0  0
M  RAD  1   4   2
M  END
$$$$
