butane_opt
 OpenBabel08242015403D

 14 12  0  0  0  0  0  0  0  0999 V2000
   -3.9717    0.2437   -0.0478 C   0  0  0  0  0  0  0  0  0  0  0  0
   -2.7651   -0.5638    0.0870 C   0  0  0  0  0  0  0  0  0  0  0  0
   -5.0726   -0.5572    0.5096 H   0  0  0  0  0  0  0  0  0  0  0  0
   -4.0569    1.2606   -1.1818 H   0  0  0  0  0  0  0  0  0  0  0  0
   -3.8954    0.6888    0.6733 H   0  0  0  0  0  0  0  0  0  0  0  0
   -1.3932    0.2081    0.0779 C   0  0  0  0  0  0  0  0  0  0  0  0
   -2.8990   -1.4765   -0.9797 H   0  0  0  0  0  0  0  0  0  0  0  0
   -2.6926   -1.0385    0.9571 H   0  0  0  0  0  0  0  0  0  0  0  0
   -0.0974   -0.7297   -0.0298 C   0  0  0  0  0  0  0  0  0  0  0  0
   -1.1087    0.8866    1.0042 H   0  0  0  0  0  0  0  0  0  0  0  0
   -1.3259    0.8929   -0.7787 H   0  0  0  0  0  0  0  0  0  0  0  0
   -0.0231   -1.2814    0.8527 H   0  0  0  0  0  0  0  0  0  0  0  0
    0.7798   -0.2313    0.1760 H   0  0  0  0  0  0  0  0  0  0  0  0
    0.0428   -1.5385   -0.8738 H   0  0  0  0  0  0  0  0  0  0  0  0
  1  2  1  0  0  0  0
  1  3  1  0  0  0  0
  1  5  1  0  0  0  0
  2  8  1  0  0  0  0
  6  2  1  0  0  0  0
  6 10  1  0  0  0  0
  7  2  1  0  0  0  0
  9  6  1  0  0  0  0
  9 13  1  0  0  0  0
  9 12  1  0  0  0  0
 11  6  1  0  0  0  0
 14  9  1  0  0  0  0
M  RAD  2   1   2   4   2
M  END
$$$$
