butane_opt
 OpenBabel08242015403D

 14 13  0  0  0  0  0  0  0  0999 V2000
   -3.9484    0.2690    0.0393 C   0  0  0  0  0  0  0  0  0  0  0  0
   -2.7067   -0.6279    0.0315 C   0  0  0  0  0  0  0  0  0  0  0  0
   -4.8646   -0.3135    0.0261 H   0  0  0  0  0  0  0  0  0  0  0  0
   -3.9794    0.8016   -0.8264 H   0  0  0  0  0  0  0  0  0  0  0  0
   -4.0468    0.9867    0.9284 H   0  0  0  0  0  0  0  0  0  0  0  0
   -1.3967    0.1876   -0.0213 C   0  0  0  0  0  0  0  0  0  0  0  0
   -2.7271   -1.3022   -0.8423 H   0  0  0  0  0  0  0  0  0  0  0  0
   -2.7006   -1.2143    0.8723 H   0  0  0  0  0  0  0  0  0  0  0  0
   -0.1487   -0.6973    0.0521 C   0  0  0  0  0  0  0  0  0  0  0  0
   -1.3622    0.8273    0.7963 H   0  0  0  0  0  0  0  0  0  0  0  0
   -1.4249    0.8974   -0.9566 H   0  0  0  0  0  0  0  0  0  0  0  0
   -0.1903   -1.2728    0.9367 H   0  0  0  0  0  0  0  0  0  0  0  0
    0.7504   -0.0877    0.1137 H   0  0  0  0  0  0  0  0  0  0  0  0
   -0.0674   -1.3809   -0.8129 H   0  0  0  0  0  0  0  0  0  0  0  0
  1  5  1  0  0  0  0
  2  1  1  0  0  0  0
  2  8  1  0  0  0  0
  3  1  1  0  0  0  0
  4  1  1  0  0  0  0
  6  2  1  0  0  0  0
  6  9  1  0  0  0  0
  6 10  1  0  0  0  0
  7  2  1  0  0  0  0
  9 13  1  0  0  0  0
  9 12  1  0  0  0  0
 11  6  1  0  0  0  0
 14  9  1  0  0  0  0
M  END
$$$$
