14
butane_opt
C  -3.884669   0.228742  -0.205301
C  -2.659875  -0.574584   0.245453
H  -4.853135  -0.388431   0.095394
H  -3.872307   1.100346  -1.239222
H  -3.892192   0.512330   0.517349
C  -1.498448   0.205780   0.266753
H  -2.422550  -1.235642  -0.693423
H  -2.782323  -1.042458   1.043546
C  -0.184630  -0.672077  -0.163348
H  -1.173868   0.907642   1.227705
H  -1.492793   0.608423  -0.433097
H  -0.034215  -1.474498   0.791596
H   0.679380  -0.254037  -0.576157
H  -0.419179  -1.466627  -1.055166
