butane_opt
 OpenBabel08242015403D

 14  9  0  0  0  0  0  0  0  0999 V2000
   -3.9860    0.2831    0.1445 C   0  0  0  0  0  0  0  0  0  0  0  0
   -2.7101   -0.6869   -0.1166 C   0  0  0  0  0  0  0  0  0  0  0  0
   -4.5585    0.0329   -0.0015 H   0  0  0  0  0  0  0  0  0  0  0  0
   -3.9678    0.4981   -0.4836 H   0  0  0  0  0  0  0  0  0  0  0  0
   -4.1000    1.3741    1.2893 H   0  0  0  0  0  0  0  0  0  0  0  0
   -1.3815    0.1453   -0.0924 C   0  0  0  0  0  0  0  0  0  0  0  0
   -2.9191   -1.4476   -1.1652 H   0  0  0  0  0  0  0  0  0  0  0  0
   -2.6518   -0.8994    0.5175 H   0  0  0  0  0  0  0  0  0  0  0  0
   -0.1556   -0.6807    0.1722 C   0  0  0  0  0  1  0  0  0  0  0  0
   -1.5388    0.7393    0.5608 H   0  0  0  0  0  0  0  0  0  0  0  0
   -0.9026    0.9407   -1.1551 H   0  0  0  0  0  0  0  0  0  0  0  0
    0.0780   -1.6824    1.5111 H   0  0  0  0  0  0  0  0  0  0  0  0
    0.7013   -0.0667   -0.5236 H   0  0  0  0  0  0  0  0  0  0  0  0
   -0.3898   -0.6862   -0.3078 H   0  0  0  0  0  0  0  0  0  0  0  0
  2  1  1  0  0  0  0
  2  8  1  0  0  0  0
  3  1  1  0  0  0  0
  4  1  1  0  0  0  0
  6 10  1  0  0  0  0
  7  2  1  0  0  0  0
 11  6  1  0  0  0  0
 13  9  1  0  0  0  0
 14  6  1  0  0  0  0
M  RAD  5   1   2   2   2   5   2   6   2  12   2
M  END
$$$$
