butane_opt
 OpenBabel08242015403D

 14 12  0  0  0  0  0  0  0  0999 V2000
   -3.8963    0.3263    0.1143 C   0  0  0  0  0  0  0  0  0  0  0  0
   -2.6765   -0.7334    0.0213 C   0  0  0  0  0  0  0  0  0  0  0  0
   -4.7429   -0.0992   -0.7174 H   0  0  0  0  0  0  0  0  0  0  0  0
   -3.7141    0.7082   -0.5874 H   0  0  0  0  0  0  0  0  0  0  0  0
   -4.2573    1.4304    1.2007 H   0  0  0  0  0  0  0  0  0  0  0  0
   -1.3748    0.1181   -0.0950 C   0  0  0  0  0  0  0  0  0  0  0  0
   -2.6234   -1.2510   -0.7141 H   0  0  0  0  0  0  0  0  0  0  0  0
   -2.6950   -1.3692    0.8990 H   0  0  0  0  0  0  0  0  0  0  0  0
   -0.2126   -0.6353    0.0708 C   0  0  0  0  0  0  0  0  0  0  0  0
   -1.4846    0.8547    0.5999 H   0  0  0  0  0  0  0  0  0  0  0  0
   -1.4291    0.7014   -0.9353 H   0  0  0  0  0  0  0  0  0  0  0  0
   -0.5123   -1.3251    1.0567 H   0  0  0  0  0  0  0  0  0  0  0  0
    0.6886   -0.0549    0.0300 H   0  0  0  0  0  0  0  0  0  0  0  0
   -0.3306   -0.9924   -0.6785 H   0  0  0  0  0  0  0  0  0  0  0  0
  2  1  1  0  0  0  0
  2  8  1  0  0  0  0
  3  1  1  0  0  0  0
  4  1  1  0  0  0  0
  6  2  1  0  0  0  0
  6  9  1  0  0  0  0
  6 10  1  0  0  0  0
  7  2  1  0  0  0  0
  9 12  1  0  0  0  0
 11  6  1  0  0  0  0
 13  9  1  0  0  0  0
 14  9  1  0  0  0  0
M  RAD  2   1   2   5   2
M  END
$$$$
