butane_opt
 OpenBabel08242015403D

 14 10  0  0  0  0  0  0  0  0999 V2000
   -3.9234    0.2080    0.0977 C   0  0  0  0  0  0  0  0  0  0  0  0
   -2.7747   -0.5136   -0.0469 C   0  0  0  0  0  0  0  0  0  0  0  0
   -4.8800   -0.4618   -0.2179 H   0  0  0  0  0  0  0  0  0  0  0  0
   -3.9943    0.7118   -0.8945 H   0  0  0  0  0  0  0  0  0  0  0  0
   -3.9471    0.8471    0.9810 H   0  0  0  0  0  0  0  0  0  0  0  0
   -1.4703    0.2032    0.0471 C   0  0  0  0  0  0  0  0  0  0  0  0
   -2.9535   -1.6065   -1.1526 H   0  0  0  0  0  0  0  0  0  0  0  0
   -2.7083   -0.7819    0.6246 H   0  0  0  0  0  0  0  0  0  0  0  0
   -0.0645   -0.7615    0.0717 C   0  0  0  0  0  0  0  0  0  0  0  0
   -1.4549    1.0024    0.8676 H   0  0  0  0  0  0  0  0  0  0  0  0
   -1.2706    1.0393   -0.9691 H   0  0  0  0  0  0  0  0  0  0  0  0
    0.3189   -2.0508    1.3391 H   0  0  0  0  0  0  0  0  0  0  0  0
    0.8381   -0.1503   -0.7652 H   0  0  0  0  0  0  0  0  0  0  0  0
   -0.1604   -0.6568   -0.3616 H   0  0  0  0  0  0  0  0  0  0  0  0
  1  5  1  0  0  0  0
  2  6  1  0  0  0  0
  2  1  1  0  0  0  0
  2  8  1  0  0  0  0
  3  1  1  0  0  0  0
  4  1  1  0  0  0  0
  6  9  1  0  0  0  0
  6 10  1  0  0  0  0
 11  6  1  0  0  0  0
 13  9  1  0  0  0  0
M  RAD  5   2   2   7   2   9   3  12   2  14   2
M  END
$$$$
