14
butane_opt
C  -3.976467   0.334385  -0.153728
C  -2.734163  -0.648773   0.225269
H  -4.739173  -0.199584  -0.229138
H  -3.829085   1.225521  -1.187897
H  -4.504488   0.675083   0.303115
C  -1.403568   0.089738   0.285062
H  -2.797591  -1.405843  -0.678710
H  -2.667425  -1.346016   1.171742
C  -0.107730  -0.648341  -0.186690
H  -1.057337   0.945532   1.304721
H  -1.295813   0.481149  -0.626526
H   0.221135  -1.428213   0.770302
H   0.907278   0.173912  -0.389825
H  -0.636803  -1.072528  -1.038866
