14
butane_opt
C  -3.991520   0.278910   0.093578
C  -2.638227  -0.657567  -0.124245
H  -4.829349  -0.216900   0.048764
H  -3.998847   0.635340  -0.705535
H  -3.881826   1.356474   1.308063
C  -1.387476   0.120478   0.033714
H  -2.675983  -1.579762  -1.182411
H  -2.417099  -1.113227   0.619777
C  -0.213837  -0.623107   0.133456
H  -1.463516   0.709379   0.635427
H  -1.298804   1.090998  -1.154383
H   0.143377  -2.023417   1.502257
H   0.603966   0.002176  -0.715041
H  -0.456987  -0.744848  -0.442570
