butane_opt
 OpenBabel08242015403D

 14 12  0  0  0  0  0  0  0  0999 V2000
   -3.9988    0.3294   -0.1699 C   0  0  0  0  0  0  0  0  0  0  0  0
   -2.6970   -0.7521    0.2896 C   0  0  0  0  0  0  0  0  0  0  0  0
   -4.5976    0.0114   -0.8269 H   0  0  0  0  0  0  0  0  0  0  0  0
   -3.7647    0.6739   -0.9067 H   0  0  0  0  0  0  0  0  0  0  0  0
   -4.2904    1.2433    0.8175 H   0  0  0  0  0  0  0  0  0  0  0  0
   -1.4269    0.1486    0.1354 C   0  0  0  0  0  0  0  0  0  0  0  0
   -2.3681   -0.9790   -0.1127 H   0  0  0  0  0  0  0  0  0  0  0  0
   -2.9709   -1.6580    1.3173 H   0  0  0  0  0  0  0  0  0  0  0  0
   -0.1333   -0.6572   -0.1201 C   0  0  0  0  0  0  0  0  0  0  0  0
   -1.1445    0.9810    1.1619 H   0  0  0  0  0  0  0  0  0  0  0  0
   -1.3503    0.6673   -0.6164 H   0  0  0  0  0  0  0  0  0  0  0  0
    0.0610   -0.8626    0.4918 H   0  0  0  0  0  0  0  0  0  0  0  0
    0.8717    0.0180   -0.2201 H   0  0  0  0  0  0  0  0  0  0  0  0
   -0.4604   -1.3690   -1.2947 H   0  0  0  0  0  0  0  0  0  0  0  0
  1  2  1  0  0  0  0
  1  5  1  0  0  0  0
  2  8  1  0  0  0  0
  3  1  1  0  0  0  0
  4  1  1  0  0  0  0
  6 10  1  0  0  0  0
  7  6  1  0  0  0  0
  9  6  1  0  0  0  0
  9 12  1  0  0  0  0
 11  6  1  0  0  0  0
 13  9  1  0  0  0  0
 14  9  1  0  0  0  0
M  RAD  1   2   3
M  END
$$$$
