butane_opt
 OpenBabel08242015403D

 14 13  0  0  0  0  0  0  0  0999 V2000
   -3.9015    0.3111   -0.1205 C   0  0  0  0  0  0  0  0  0  0  0  0
   -2.6786   -0.6204    0.0804 C   0  0  0  0  0  0  0  0  0  0  0  0
   -4.8921   -0.2931    0.3881 H   0  0  0  0  0  0  0  0  0  0  0  0
   -3.9890    1.1686   -1.1986 H   0  0  0  0  0  0  0  0  0  0  0  0
   -3.9623    0.7234    0.6479 H   0  0  0  0  0  0  0  0  0  0  0  0
   -1.4169    0.0727    0.2498 C   0  0  0  0  0  0  0  0  0  0  0  0
   -2.6124   -1.3901   -0.7310 H   0  0  0  0  0  0  0  0  0  0  0  0
   -2.8914   -1.1286    1.0349 H   0  0  0  0  0  0  0  0  0  0  0  0
   -0.2135   -0.6412   -0.0913 C   0  0  0  0  0  0  0  0  0  0  0  0
   -1.4113    0.7900    1.2167 H   0  0  0  0  0  0  0  0  0  0  0  0
   -1.3561    0.7913   -0.8117 H   0  0  0  0  0  0  0  0  0  0  0  0
    0.1072   -1.4444    0.8632 H   0  0  0  0  0  0  0  0  0  0  0  0
    0.9708    0.0854   -0.5378 H   0  0  0  0  0  0  0  0  0  0  0  0
   -0.5138   -1.1798   -0.8575 H   0  0  0  0  0  0  0  0  0  0  0  0
  1  2  1  0  0  0  0
  1  3  1  0  0  0  0
  1  5  1  0  0  0  0
  2  6  1  0  0  0  0
  2  8  1  0  0  0  0
  4  1  1  0  0  0  0
  6 10  1  0  0  0  0
  7  2  1  0  0  0  0
  9  6  1  0  0  0  0
  9 12  1  0  0  0  0
 11  6  1  0  0  0  0
 13  9  1  0  0  0  0
 14  9  1  0  0  0  0
M  END
$$$$
