butane_opt
 OpenBabel08242015403D

 14 13  0  0  0  0  0  0  0  0999 V2000
   -3.9765    0.3344   -0.1537 C   0  0  0  0  0  0  0  0  0  0  0  0
   -2.7342   -0.6488    0.2253 C   0  0  0  0  0  0  0  0  0  0  0  0
   -4.7392   -0.1996   -0.2291 H   0  0  0  0  0  0  0  0  0  0  0  0
   -3.8291    1.2255   -1.1879 H   0  0  0  0  0  0  0  0  0  0  0  0
   -4.5045    0.6751    0.3031 H   0  0  0  0  0  0  0  0  0  0  0  0
   -1.4036    0.0897    0.2851 C   0  0  0  0  0  0  0  0  0  0  0  0
   -2.7976   -1.4058   -0.6787 H   0  0  0  0  0  0  0  0  0  0  0  0
   -2.6674   -1.3460    1.1717 H   0  0  0  0  0  0  0  0  0  0  0  0
   -0.1077   -0.6483   -0.1867 C   0  0  0  0  0  0  0  0  0  0  0  0
   -1.0573    0.9455    1.3047 H   0  0  0  0  0  0  0  0  0  0  0  0
   -1.2958    0.4811   -0.6265 H   0  0  0  0  0  0  0  0  0  0  0  0
    0.2211   -1.4282    0.7703 H   0  0  0  0  0  0  0  0  0  0  0  0
    0.9073    0.1739   -0.3898 H   0  0  0  0  0  0  0  0  0  0  0  0
   -0.6368   -1.0725   -1.0389 H   0  0  0  0  0  0  0  0  0  0  0  0
  1  2  1  0  0  0  0
  1  5  1  0  0  0  0
  2  6  1  0  0  0  0
  2  8  1  0  0  0  0
  3  1  1  0  0  0  0
  4  1  1  0  0  0  0
  6 10  1  0  0  0  0
  7  2  1  0  0  0  0
  9  6  1  0  0  0  0
  9 12  1  0  0  0  0
 11  6  1  0  0  0  0
 13  9  1  0  0  0  0
 14  9  1  0  0  0  0
M  END
$$$$
