butane_opt
 OpenBabel08242015403D

 14  9  0  0  0  0  0  0  0  0999 V2000
   -3.8795    0.2295    0.1406 C   0  0  0  0  0 15  0  0  0  0  0  0
   -2.6984   -0.5052   -0.0583 C   0  0  0  0  0  0  0  0  0  0  0  0
   -5.1763   -0.5624   -0.4556 H   0  0  0  0  0  0  0  0  0  0  0  0
   -3.6427   -0.0786   -0.1852 H   0  0  0  0  0  0  0  0  0  0  0  0
   -4.0587    1.5549    1.3655 H   0  0  0  0  0  0  0  0  0  0  0  0
   -1.4575    0.1650   -0.1847 C   0  0  0  0  0  0  0  0  0  0  0  0
   -2.7631   -1.1431   -0.9146 H   0  0  0  0  0  0  0  0  0  0  0  0
   -2.6099   -1.3767    0.7837 H   0  0  0  0  0  0  0  0  0  0  0  0
   -0.1527   -0.7118    0.1952 C   0  0  0  0  0  0  0  0  0  0  0  0
   -1.5749    0.8043    0.5877 H   0  0  0  0  0  0  0  0  0  0  0  0
   -1.5078    1.1084   -1.3167 H   0  0  0  0  0  0  0  0  0  0  0  0
    0.0184   -1.5430    1.2374 H   0  0  0  0  0  0  0  0  0  0  0  0
    0.6792   -0.2398   -0.0602 H   0  0  0  0  0  0  0  0  0  0  0  0
   -0.1157   -1.1944   -0.5834 H   0  0  0  0  0  0  0  0  0  0  0  0
  2  8  1  0  0  0  0
  4  2  1  0  0  0  0
  6  9  1  0  0  0  0
  6 10  1  0  0  0  0
  7  2  1  0  0  0  0
  9 12  1  0  0  0  0
 11  6  1  0  0  0  0
 13  9  1  0  0  0  0
 14  9  1  0  0  0  0
M  RAD  4   2   2   3   2   5   2   6   2
M  END
$$$$
