butane_opt
 OpenBabel08242015403D

 14 12  0  0  0  0  0  0  0  0999 V2000
   -3.9893    0.2537   -0.1485 C   0  0  0  0  0  0  0  0  0  0  0  0
   -2.7360   -0.6155    0.2295 C   0  0  0  0  0  0  0  0  0  0  0  0
   -4.7934   -0.2273   -0.4241 H   0  0  0  0  0  0  0  0  0  0  0  0
   -3.9044    1.2206   -1.3371 H   0  0  0  0  0  0  0  0  0  0  0  0
   -4.3254    0.7677    0.5393 H   0  0  0  0  0  0  0  0  0  0  0  0
   -1.3454    0.1531    0.2891 C   0  0  0  0  0  0  0  0  0  0  0  0
   -2.4236   -1.3647   -0.6556 H   0  0  0  0  0  0  0  0  0  0  0  0
   -2.9703   -0.9597    1.0874 H   0  0  0  0  0  0  0  0  0  0  0  0
   -0.1258   -0.7238   -0.1773 C   0  0  0  0  0  0  0  0  0  0  0  0
   -1.0829    0.9622    1.2365 H   0  0  0  0  0  0  0  0  0  0  0  0
   -1.6959    0.5938   -0.4348 H   0  0  0  0  0  0  0  0  0  0  0  0
    0.2227   -1.5344    0.6760 H   0  0  0  0  0  0  0  0  0  0  0  0
    0.8148    0.1154   -0.8008 H   0  0  0  0  0  0  0  0  0  0  0  0
   -0.4836   -0.8353   -0.7398 H   0  0  0  0  0  0  0  0  0  0  0  0
  1  2  1  0  0  0  0
  1  5  1  0  0  0  0
  2  6  1  0  0  0  0
  2  8  1  0  0  0  0
  3  1  1  0  0  0  0
  6 10  1  0  0  0  0
  7  2  1  0  0  0  0
  9  6  1  0  0  0  0
  9 12  1  0  0  0  0
 11  6  1  0  0  0  0
 13  9  1  0  0  0  0
 14  9  1  0  0  0  0
M  RAD  2   1   2   4   2
M  END
$$$$
