14
butane_opt
C  -3.896318   0.326307   0.114307
C  -2.676530  -0.733425   0.021294
H  -4.742876  -0.099164  -0.717402
H  -3.714057   0.708228  -0.587449
H  -4.257275   1.430388   1.200660
C  -1.374774   0.118122  -0.094985
H  -2.623398  -1.251042  -0.714064
H  -2.695012  -1.369205   0.899038
C  -0.212622  -0.635285   0.070818
H  -1.484629   0.854677   0.599889
H  -1.429124   0.701408  -0.935289
H  -0.512266  -1.325066   1.056673
H   0.688564  -0.054933   0.030043
H  -0.330562  -0.992448  -0.678517
