butane_opt
 OpenBabel08242015403D

 14  9  0  0  0  0  0  0  0  0999 V2000
   -3.9771    0.3595   -0.1271 C   0  0  0  0  0  0  0  0  0  0  0  0
   -2.7428   -0.7468    0.2294 C   0  0  0  0  0  0  0  0  0  0  0  0
   -4.6801   -0.0628   -0.3011 H   0  0  0  0  0  0  0  0  0  0  0  0
   -3.8981    0.9560   -1.0721 H   0  0  0  0  0  0  0  0  0  0  0  0
   -4.3825    0.8807    0.5837 H   0  0  0  0  0  0  0  0  0  0  0  0
   -1.3352    0.1381    0.1658 C   0  0  0  0  0  0  0  0  0  0  0  0
   -2.6873   -1.1935   -0.4126 H   0  0  0  0  0  0  0  0  0  0  0  0
   -2.5913   -1.6021    1.4233 H   0  0  0  0  0  0  0  0  0  0  0  0
   -0.1830   -0.6586   -0.0850 C   0  0  0  0  0  1  0  0  0  0  0  0
   -1.3139    0.7444    0.8983 H   0  0  0  0  0  0  0  0  0  0  0  0
   -1.2430    1.0617   -0.9395 H   0  0  0  0  0  0  0  0  0  0  0  0
   -0.1829   -0.5340    0.2898 H   0  0  0  0  0  0  0  0  0  0  0  0
    0.8626    0.0784    0.2382 H   0  0  0  0  0  0  0  0  0  0  0  0
   -0.0973   -1.9078   -1.5810 H   0  0  0  0  0  0  0  0  0  0  0  0
  1  2  1  0  0  0  0
  1  5  1  0  0  0  0
  2  8  1  0  0  0  0
  3  1  1  0  0  0  0
  4  1  1  0  0  0  0
  6 12  1  0  0  0  0
  6 10  1  0  0  0  0
  7  2  1  0  0  0  0
  9 13  1  0  0  0  0
M  RAD  4   2   2   6   3  11   2  14   2
M  END
$$$$
