14
butane_opt
C  -3.960585   0.271226   0.001907
C  -2.695955  -0.637319   0.069750
H  -4.820593  -0.286097  -0.093655
H  -3.940911   0.878223  -0.853560
H  -4.025334   1.016160   0.913290
C  -1.398611   0.172095   0.018062
H  -2.669655  -1.308993  -0.774828
H  -2.751431  -1.266009   0.938545
C  -0.159345  -0.674272   0.020796
H  -1.362535   0.844057   0.868844
H  -1.409061   0.858196  -0.908743
H  -0.083345  -1.292172   0.906738
H   0.758936  -0.092432   0.002207
H  -0.160742  -1.398680  -0.878556
