butane_opt
 OpenBabel08242015403D

 14 13  0  0  0  0  0  0  0  0999 V2000
   -3.9606    0.2625   -0.0197 C   0  0  0  0  0  0  0  0  0  0  0  0
   -2.6929   -0.6270    0.0640 C   0  0  0  0  0  0  0  0  0  0  0  0
   -4.8399   -0.2977    0.0299 H   0  0  0  0  0  0  0  0  0  0  0  0
   -3.9900    0.9327   -0.9533 H   0  0  0  0  0  0  0  0  0  0  0  0
   -3.9800    0.9385    0.8541 H   0  0  0  0  0  0  0  0  0  0  0  0
   -1.3918    0.1843    0.0568 C   0  0  0  0  0  0  0  0  0  0  0  0
   -2.6595   -1.2642   -0.7557 H   0  0  0  0  0  0  0  0  0  0  0  0
   -2.7494   -1.2755    0.9462 H   0  0  0  0  0  0  0  0  0  0  0  0
   -0.1632   -0.6867    0.0014 C   0  0  0  0  0  0  0  0  0  0  0  0
   -1.3262    0.9092    0.9348 H   0  0  0  0  0  0  0  0  0  0  0  0
   -1.4492    0.7651   -0.7972 H   0  0  0  0  0  0  0  0  0  0  0  0
   -0.0236   -1.3666    0.9147 H   0  0  0  0  0  0  0  0  0  0  0  0
    0.7141   -0.0988   -0.0964 H   0  0  0  0  0  0  0  0  0  0  0  0
   -0.2213   -1.3068   -0.8548 H   0  0  0  0  0  0  0  0  0  0  0  0
  1  3  1  0  0  0  0
  1  2  1  0  0  0  0
  1  5  1  0  0  0  0
  2  8  1  0  0  0  0
  4  1  1  0  0  0  0
  6  2  1  0  0  0  0
  6 10  1  0  0  0  0
  7  2  1  0  0  0  0
  9  6  1  0  0  0  0
  9 12  1  0  0  0  0
 11  6  1  0  0  0  0
 13  9  1  0  0  0  0
 14  9  1  0  0  0  0
M  END
$$$$
