butane_opt
 OpenBabel08242015403D

 14 12  0  0  0  0  0  0  0  0999 V2000
   -3.9256    0.2632   -0.1058 C   0  0  0  0  0  0  0  0  0  0  0  0
   -2.6991   -0.6614    0.2355 C   0  0  0  0  0  0  0  0  0  0  0  0
   -4.6249   -0.0803   -0.6724 H   0  0  0  0  0  0  0  0  0  0  0  0
   -3.4850    0.6628   -0.8689 H   0  0  0  0  0  0  0  0  0  0  0  0
   -4.3236    1.3191    0.9659 H   0  0  0  0  0  0  0  0  0  0  0  0
   -1.3716    0.2252    0.1486 C   0  0  0  0  0  0  0  0  0  0  0  0
   -2.6559   -1.3222   -0.5256 H   0  0  0  0  0  0  0  0  0  0  0  0
   -2.6954   -1.3917    1.0876 H   0  0  0  0  0  0  0  0  0  0  0  0
   -0.2187   -0.6896   -0.1138 C   0  0  0  0  0  0  0  0  0  0  0  0
   -1.3074    0.6077    0.6607 H   0  0  0  0  0  0  0  0  0  0  0  0
   -1.6452    0.8928   -0.8464 H   0  0  0  0  0  0  0  0  0  0  0  0
   -0.1366   -1.3399    0.6492 H   0  0  0  0  0  0  0  0  0  0  0  0
    0.8248   -0.0053    0.0806 H   0  0  0  0  0  0  0  0  0  0  0  0
   -0.4213   -1.4123   -1.0005 H   0  0  0  0  0  0  0  0  0  0  0  0
  1  2  1  0  0  0  0
  2  8  1  0  0  0  0
  3  1  1  0  0  0  0
  4  1  1  0  0  0  0
  6  2  1  0  0  0  0
  6 10  1  0  0  0  0
  7  2  1  0  0  0  0
  9 13  1  0  0  0  0
  9  6  1  0  0  0  0
  9 12  1  0  0  0  0
 11  6  1  0  0  0  0
 14  9  1  0  0  0  0
M  RAD  2   1   2   5   2
M  END
$$$$
