14
butane_opt
C  -3.883648   0.303793   0.113616
C  -2.655904  -0.678556   0.005357
H  -4.896653  -0.362713   0.416394
H  -3.841459   0.891169  -0.739888
H  -3.819152   0.933351   0.956051
C  -1.423444   0.188136  -0.154085
H  -2.738779  -1.488857  -1.072334
H  -2.772549  -0.889579   0.533356
C  -0.226378  -0.665528   0.135303
H  -1.342827   0.711191   0.655386
H  -1.354176   0.901264  -1.168155
H  -0.660307  -1.216194   1.095207
H   0.629952  -0.254379   0.526809
H   0.038977  -1.507136  -0.932389
