butane_opt
 OpenBabel08242015403D

 14 12  0  0  0  0  0  0  0  0999 V2000
   -4.0041    0.3404   -0.1512 C   0  0  0  0  0  0  0  0  0  0  0  0
   -2.6755   -0.7677    0.2659 C   0  0  0  0  0  0  0  0  0  0  0  0
   -4.8531   -0.2422   -0.6282 H   0  0  0  0  0  0  0  0  0  0  0  0
   -3.8367    0.5692   -0.8038 H   0  0  0  0  0  0  0  0  0  0  0  0
   -4.5818    1.5196    0.9768 H   0  0  0  0  0  0  0  0  0  0  0  0
   -1.4083    0.1449    0.1472 C   0  0  0  0  0  0  0  0  0  0  0  0
   -2.3756   -1.3780   -0.4942 H   0  0  0  0  0  0  0  0  0  0  0  0
   -2.9440   -1.3169    1.2508 H   0  0  0  0  0  0  0  0  0  0  0  0
   -0.1401   -0.6202   -0.1039 C   0  0  0  0  0  0  0  0  0  0  0  0
   -1.0891    0.8411    1.0185 H   0  0  0  0  0  0  0  0  0  0  0  0
   -1.2736    0.9421   -0.9916 H   0  0  0  0  0  0  0  0  0  0  0  0
    0.1015   -1.3376    0.7068 H   0  0  0  0  0  0  0  0  0  0  0  0
    0.7124    0.0871   -0.3282 H   0  0  0  0  0  0  0  0  0  0  0  0
   -0.1781   -1.3444   -1.0961 H   0  0  0  0  0  0  0  0  0  0  0  0
  1  2  1  0  0  0  0
  2  8  1  0  0  0  0
  3  1  1  0  0  0  0
  4  1  1  0  0  0  0
  6  2  1  0  0  0  0
  6 10  1  0  0  0  0
  7  2  1  0  0  0  0
  9  6  1  0  0  0  0
  9 12  1  0  0  0  0
 11  6  1  0  0  0  0
 13  9  1  0  0  0  0
 14  9  1  0  0  0  0
M  RAD  2   1   2   5   2
M  END
$$$$
