butane_opt
 OpenBabel08242015403D

 14 13  0  0  0  0  0  0  0  0999 V2000
   -3.9089    0.3327    0.2285 C   0  0  0  0  0  0  0  0  0  0  0  0
   -2.6500   -0.7068   -0.1137 C   0  0  0  0  0  0  0  0  0  0  0  0
   -4.7210   -0.0762   -0.2006 H   0  0  0  0  0  0  0  0  0  0  0  0
   -3.8599    0.6284   -0.3886 H   0  0  0  0  0  0  0  0  0  0  0  0
   -4.0714    1.0855    1.1503 H   0  0  0  0  0  0  0  0  0  0  0  0
   -1.3871    0.1480   -0.2715 C   0  0  0  0  0  0  0  0  0  0  0  0
   -2.7107   -1.2682   -0.8031 H   0  0  0  0  0  0  0  0  0  0  0  0
   -2.3410   -1.4137    0.7238 H   0  0  0  0  0  0  0  0  0  0  0  0
   -0.3089   -0.6601    0.1992 C   0  0  0  0  0  0  0  0  0  0  0  0
   -1.5291    0.7589    0.6038 H   0  0  0  0  0  0  0  0  0  0  0  0
   -1.1861    0.8193   -1.0947 H   0  0  0  0  0  0  0  0  0  0  0  0
   -0.7416   -1.0764    1.0614 H   0  0  0  0  0  0  0  0  0  0  0  0
    0.8623    0.0982    0.5108 H   0  0  0  0  0  0  0  0  0  0  0  0
    0.2731   -1.3687   -0.6658 H   0  0  0  0  0  0  0  0  0  0  0  0
  1  5  1  0  0  0  0
  2  1  1  0  0  0  0
  2  8  1  0  0  0  0
  3  1  1  0  0  0  0
  4  1  1  0  0  0  0
  6  2  1  0  0  0  0
  6  9  1  0  0  0  0
  6 10  1  0  0  0  0
  7  2  1  0  0  0  0
  9 13  1  0  0  0  0
  9 12  1  0  0  0  0
 11  6  1  0  0  0  0
 14  9  1  0  0  0  0
M  END
$$$$
