butane_opt
 OpenBabel08242015403D

 14 11  0  0  0  0  0  0  0  0999 V2000
   -3.9164    0.1851    0.1759 C   0  0  0  0  0  0  0  0  0  0  0  0
   -2.8024   -0.5101   -0.1818 C   0  0  0  0  0  0  0  0  0  0  0  0
   -4.8761   -0.5360    0.7571 H   0  0  0  0  0  0  0  0  0  0  0  0
   -4.3844    1.3079   -0.9536 H   0  0  0  0  0  0  0  0  0  0  0  0
   -3.4180    0.4893    0.7163 H   0  0  0  0  0  0  0  0  0  0  0  0
   -1.4322    0.2128   -0.0891 C   0  0  0  0  0  0  0  0  0  0  0  0
   -2.7044   -1.2189   -0.9708 H   0  0  0  0  0  0  0  0  0  0  0  0
   -2.8290   -0.9809    0.5233 H   0  0  0  0  0  0  0  0  0  0  0  0
   -0.0515   -0.7485    0.1290 C   0  0  0  0  0  0  0  0  0  0  0  0
   -1.5347    1.2012    0.8547 H   0  0  0  0  0  0  0  0  0  0  0  0
   -1.3881    0.7091   -0.9173 H   0  0  0  0  0  0  0  0  0  0  0  0
   -0.2796   -1.5904    1.3668 H   0  0  0  0  0  0  0  0  0  0  0  0
    0.6928   -0.2426    0.2276 H   0  0  0  0  0  0  0  0  0  0  0  0
    0.1574   -1.3231   -0.5958 H   0  0  0  0  0  0  0  0  0  0  0  0
  1  5  1  0  0  0  0
  1  3  1  0  0  0  0
  2  1  1  0  0  0  0
  2  8  1  0  0  0  0
  6  9  1  0  0  0  0
  6 10  1  0  0  0  0
  7  2  1  0  0  0  0
  9 13  1  0  0  0  0
  9 12  1  0  0  0  0
 11  6  1  0  0  0  0
 14  9  1  0  0  0  0
M  RAD  4   1   2   2   2   4   2   6   2
M  END
$$$$
