14
butane_opt
C  -3.868389   0.234437  -0.097044
C  -2.689424  -0.601999   0.078533
H  -4.775182  -0.475728   0.742509
H  -4.001291   1.465330  -1.460930
H  -3.636089   0.133838   0.317271
C  -1.442485   0.261945   0.182116
H  -2.493693  -0.732913  -0.515092
H  -2.777471  -1.383607   1.158102
C  -0.225643  -0.750493  -0.083865
H  -1.368025   1.185907   1.219651
H  -1.245630   0.607773  -0.532415
H  -0.137802  -0.938738   0.537957
H   0.596547  -0.293329   0.292411
H  -0.416749  -1.814927  -1.377960
