14
butane_opt
C  -3.878029   0.231608  -0.080012
C  -2.746496  -0.538366   0.042832
H  -5.083735  -0.684350   0.847959
H  -4.065651   1.290650  -1.293858
H  -3.698763   0.341724   0.406009
C  -1.391486   0.251324   0.132766
H  -2.577797  -1.009387  -0.745358
H  -2.849363  -1.245938   0.992768
C  -0.161118  -0.776525  -0.009782
H  -1.519924   1.187361   1.216464
H  -1.565442   0.482516  -0.503342
H   0.124462  -1.136543   0.652743
H   0.742743  -0.338123  -0.219597
H  -0.341771  -1.397957  -0.980583
