butane_opt
 OpenBabel08242015403D

 14 12  0  0  0  0  0  0  0  0999 V2000
   -3.9469    0.3080    0.1228 C   0  0  0  0  0  0  0  0  0  0  0  0
   -2.7168   -0.6446   -0.0318 C   0  0  0  0  0  0  0  0  0  0  0  0
   -4.8528   -0.1226   -0.4365 H   0  0  0  0  0  0  0  0  0  0  0  0
   -3.7169    0.4363   -0.4796 H   0  0  0  0  0  0  0  0  0  0  0  0
   -4.3543    1.6650    1.3875 H   0  0  0  0  0  0  0  0  0  0  0  0
   -1.3720    0.0553   -0.1572 C   0  0  0  0  0  0  0  0  0  0  0  0
   -2.5773   -1.2031   -0.7215 H   0  0  0  0  0  0  0  0  0  0  0  0
   -2.6894   -1.4019    1.0214 H   0  0  0  0  0  0  0  0  0  0  0  0
   -0.1911   -0.6395    0.1413 C   0  0  0  0  0  0  0  0  0  0  0  0
   -1.5317    0.6617    0.5047 H   0  0  0  0  0  0  0  0  0  0  0  0
   -1.2435    0.7751   -1.0267 H   0  0  0  0  0  0  0  0  0  0  0  0
   -0.2679   -1.2294    1.0071 H   0  0  0  0  0  0  0  0  0  0  0  0
    0.9755    0.1716    0.0759 H   0  0  0  0  0  0  0  0  0  0  0  0
   -0.0804   -1.1608   -0.7180 H   0  0  0  0  0  0  0  0  0  0  0  0
  2  1  1  0  0  0  0
  2  8  1  0  0  0  0
  3  1  1  0  0  0  0
  4  1  1  0  0  0  0
  6  2  1  0  0  0  0
  6  9  1  0  0  0  0
  6 10  1  0  0  0  0
  7  2  1  0  0  0  0
  9 12  1  0  0  0  0
 11  6  1  0  0  0  0
 13  9  1  0  0  0  0
 14  9  1  0  0  0  0
M  RAD  2   1   2   5   2
M  END
$$$$
