butane_opt
 OpenBabel08242015403D

 14 10  0  0  0  0  0  0  0  0999 V2000
   -4.0046    0.3214    0.1198 C   0  0  0  0  0  0  0  0  0  0  0  0
   -2.6325   -0.7299   -0.0509 C   0  0  0  0  0  0  0  0  0  0  0  0
   -4.7932   -0.2022   -0.2520 H   0  0  0  0  0  0  0  0  0  0  0  0
   -4.0970    0.9982   -0.8687 H   0  0  0  0  0  0  0  0  0  0  0  0
   -4.3611    0.9394    0.8888 H   0  0  0  0  0  0  0  0  0  0  0  0
   -1.3838    0.1583   -0.0072 C   0  0  0  0  0  0  0  0  0  0  0  0
   -2.7621   -1.5688   -0.9296 H   0  0  0  0  0  0  0  0  0  0  0  0
   -2.7854   -1.0432    0.7614 H   0  0  0  0  0  0  0  0  0  0  0  0
   -0.1384   -0.6622    0.0577 C   0  0  0  0  0  0  0  0  0  0  0  0
   -1.4405    0.9511    1.0220 H   0  0  0  0  0  0  0  0  0  0  0  0
   -1.3184    0.8017   -0.9840 H   0  0  0  0  0  0  0  0  0  0  0  0
   -0.0588   -1.6390    1.3734 H   0  0  0  0  0  0  0  0  0  0  0  0
    0.9158    0.1162   -0.4288 H   0  0  0  0  0  0  0  0  0  0  0  0
   -0.4317   -0.8515   -0.5505 H   0  0  0  0  0  0  0  0  0  0  0  0
  1  5  1  0  0  0  0
  2  1  1  0  0  0  0
  2  8  1  0  0  0  0
  3  1  1  0  0  0  0
  4  1  1  0  0  0  0
  6 10  1  0  0  0  0
  7  2  1  0  0  0  0
 11  6  1  0  0  0  0
 13  9  1  0  0  0  0
 14  9  1  0  0  0  0
M  RAD  4   2   2   6   3   9   3  12   2
M  END
$$$$
