butane_opt
 OpenBabel08242015403D

 14 12  0  0  0  0  0  0  0  0999 V2000
   -3.8740    0.2751   -0.1662 C   0  0  0  0  0  0  0  0  0  0  0  0
   -2.6701   -0.6494    0.2874 C   0  0  0  0  0  0  0  0  0  0  0  0
   -4.5725   -0.0433    0.0228 H   0  0  0  0  0  0  0  0  0  0  0  0
   -4.0467    1.2392   -1.2199 H   0  0  0  0  0  0  0  0  0  0  0  0
   -4.1954    0.6784    0.6428 H   0  0  0  0  0  0  0  0  0  0  0  0
   -1.4232    0.1282    0.1402 C   0  0  0  0  0  0  0  0  0  0  0  0
   -2.4927   -1.3135   -0.5017 H   0  0  0  0  0  0  0  0  0  0  0  0
   -2.5783   -1.2687    1.0283 H   0  0  0  0  0  0  0  0  0  0  0  0
   -0.2248   -0.6294   -0.1344 C   0  0  0  0  0  0  0  0  0  0  0  0
   -1.1581    0.6876    0.9422 H   0  0  0  0  0  0  0  0  0  0  0  0
   -1.6522    0.6809   -0.7063 H   0  0  0  0  0  0  0  0  0  0  0  0
   -0.4063   -0.8462    0.5888 H   0  0  0  0  0  0  0  0  0  0  0  0
    0.7679    0.1405    0.5534 H   0  0  0  0  0  0  0  0  0  0  0  0
   -0.3974   -1.8984   -1.4871 H   0  0  0  0  0  0  0  0  0  0  0  0
  1  3  1  0  0  0  0
  1  2  1  0  0  0  0
  1  5  1  0  0  0  0
  2  8  1  0  0  0  0
  4  1  1  0  0  0  0
  6  2  1  0  0  0  0
  6 10  1  0  0  0  0
  7  2  1  0  0  0  0
  9  6  1  0  0  0  0
  9 13  1  0  0  0  0
  9 12  1  0  0  0  0
 11  6  1  0  0  0  0
M  RAD  2   9   2  14   2
M  END
$$$$
