14
butane_opt
C  -3.998779   0.329377  -0.169907
C  -2.696976  -0.752064   0.289620
H  -4.597596   0.011442  -0.826885
H  -3.764668   0.673882  -0.906704
H  -4.290350   1.243259   0.817539
C  -1.426878   0.148620   0.135443
H  -2.368066  -0.978961  -0.112719
H  -2.970851  -1.657999   1.317321
C  -0.133318  -0.657188  -0.120114
H  -1.144476   0.981049   1.161915
H  -1.350304   0.667264  -0.616439
H   0.061007  -0.862622   0.491849
H   0.871730   0.017980  -0.220072
H  -0.460427  -1.368987  -1.294709
