butane_opt
 OpenBabel08242015403D

 14 13  0  0  0  0  0  0  0  0999 V2000
   -3.9406    0.2631    0.0226 C   0  0  0  0  0  0  0  0  0  0  0  0
   -2.6972   -0.6021    0.0155 C   0  0  0  0  0  0  0  0  0  0  0  0
   -4.8852   -0.3781    0.1888 H   0  0  0  0  0  0  0  0  0  0  0  0
   -4.0214    0.9664   -0.9603 H   0  0  0  0  0  0  0  0  0  0  0  0
   -3.8748    0.8208    0.8146 H   0  0  0  0  0  0  0  0  0  0  0  0
   -1.4071    0.1880    0.0179 C   0  0  0  0  0  0  0  0  0  0  0  0
   -2.7384   -1.2609   -0.8246 H   0  0  0  0  0  0  0  0  0  0  0  0
   -2.7350   -1.2488    0.9460 H   0  0  0  0  0  0  0  0  0  0  0  0
   -0.1583   -0.6944    0.0362 C   0  0  0  0  0  0  0  0  0  0  0  0
   -1.3867    0.8594    0.8753 H   0  0  0  0  0  0  0  0  0  0  0  0
   -1.3931    0.7535   -0.8383 H   0  0  0  0  0  0  0  0  0  0  0  0
   -0.1218   -1.2961    0.9191 H   0  0  0  0  0  0  0  0  0  0  0  0
    0.7307   -0.1302    0.0545 H   0  0  0  0  0  0  0  0  0  0  0  0
   -0.1544   -1.4108   -0.8527 H   0  0  0  0  0  0  0  0  0  0  0  0
  1  3  1  0  0  0  0
  1  5  1  0  0  0  0
  2  6  1  0  0  0  0
  2  1  1  0  0  0  0
  2  8  1  0  0  0  0
  4  1  1  0  0  0  0
  6  9  1  0  0  0  0
  6 10  1  0  0  0  0
  7  2  1  0  0  0  0
  9 13  1  0  0  0  0
  9 12  1  0  0  0  0
 11  6  1  0  0  0  0
 14  9  1  0  0  0  0
M  END
$$$$
