butane_opt
 OpenBabel08242015403D

 14  9  0  0  0  0  0  0  0  0999 V2000
   -3.9067    0.1701   -0.1190 C   0  0  0  0  0  0  0  0  0  0  0  0
   -2.7443   -0.5191    0.1230 C   0  0  0  0  0  0  0  0  0  0  0  0
   -4.7052   -0.3438    0.3374 H   0  0  0  0  0  0  0  0  0  0  0  0
   -3.9210    1.2930   -1.4485 H   0  0  0  0  0  0  0  0  0  0  0  0
   -3.8094    0.3603    0.2918 H   0  0  0  0  0  0  0  0  0  0  0  0
   -1.4112    0.2506    0.2311 C   0  0  0  0  0  0  0  0  0  0  0  0
   -2.7250   -0.8783   -0.4795 H   0  0  0  0  0  0  0  0  0  0  0  0
   -2.9957   -1.2918    1.0810 H   0  0  0  0  0  0  0  0  0  0  0  0
   -0.1354   -0.7750   -0.1135 C   0  0  0  0  0  0  0  0  0  0  0  0
   -1.5563    1.2959    1.4577 H   0  0  0  0  0  0  0  0  0  0  0  0
   -1.4634    0.5848   -0.4483 H   0  0  0  0  0  0  0  0  0  0  0  0
    0.1428   -1.3026    0.6531 H   0  0  0  0  0  0  0  0  0  0  0  0
    0.6155   -0.1535   -0.5015 H   0  0  0  0  0  0  0  0  0  0  0  0
   -0.2307   -1.5563   -1.0613 H   0  0  0  0  0  0  0  0  0  0  0  0
  1  2  1  0  0  0  0
  1  3  1  0  0  0  0
  2  8  1  0  0  0  0
  7  2  1  0  0  0  0
  9  6  1  0  0  0  0
  9 12  1  0  0  0  0
 11  6  1  0  0  0  0
 13  9  1  0  0  0  0
 14  9  1  0  0  0  0
M  RAD  6   1   3   2   2   4   2   5   2   6   3  10   2
M  END
$$$$
