butane_opt
 OpenBabel08242015403D

 14 12  0  0  0  0  0  0  0  0999 V2000
   -3.8836    0.3038    0.1136 C   0  0  0  0  0  0  0  0  0  0  0  0
   -2.6559   -0.6786    0.0054 C   0  0  0  0  0  0  0  0  0  0  0  0
   -4.8967   -0.3627    0.4164 H   0  0  0  0  0  0  0  0  0  0  0  0
   -3.8415    0.8912   -0.7399 H   0  0  0  0  0  0  0  0  0  0  0  0
   -3.8192    0.9334    0.9561 H   0  0  0  0  0  0  0  0  0  0  0  0
   -1.4234    0.1881   -0.1541 C   0  0  0  0  0  0  0  0  0  0  0  0
   -2.7388   -1.4889   -1.0723 H   0  0  0  0  0  0  0  0  0  0  0  0
   -2.7725   -0.8896    0.5334 H   0  0  0  0  0  0  0  0  0  0  0  0
   -0.2264   -0.6655    0.1353 C   0  0  0  0  0  0  0  0  0  0  0  0
   -1.3428    0.7112    0.6554 H   0  0  0  0  0  0  0  0  0  0  0  0
   -1.3542    0.9013   -1.1682 H   0  0  0  0  0  0  0  0  0  0  0  0
   -0.6603   -1.2162    1.0952 H   0  0  0  0  0  0  0  0  0  0  0  0
    0.6300   -0.2544    0.5268 H   0  0  0  0  0  0  0  0  0  0  0  0
    0.0390   -1.5071   -0.9324 H   0  0  0  0  0  0  0  0  0  0  0  0
  1  3  1  0  0  0  0
  1  5  1  0  0  0  0
  2  1  1  0  0  0  0
  4  1  1  0  0  0  0
  6  2  1  0  0  0  0
  6  9  1  0  0  0  0
  6 10  1  0  0  0  0
  7  2  1  0  0  0  0
  9 13  1  0  0  0  0
  9 12  1  0  0  0  0
 11  6  1  0  0  0  0
 14  9  1  0  0  0  0
M  RAD  2   2   2   8   2
M  END
$$$$
