butane_opt
 OpenBabel08242015403D

 14 13  0  0  0  0  0  0  0  0999 V2000
   -3.9870    0.1828   -0.1973 C   0  0  0  0  0  0  0  0  0  0  0  0
   -2.7679   -0.5308    0.2798 C   0  0  0  0  0  0  0  0  0  0  0  0
   -4.8713   -0.4125   -0.5556 H   0  0  0  0  0  0  0  0  0  0  0  0
   -3.6449    0.6381   -1.0148 H   0  0  0  0  0  0  0  0  0  0  0  0
   -4.1514    1.0941    0.8255 H   0  0  0  0  0  0  0  0  0  0  0  0
   -1.3716    0.2853    0.2267 C   0  0  0  0  0  0  0  0  0  0  0  0
   -2.4985   -0.9886   -0.4690 H   0  0  0  0  0  0  0  0  0  0  0  0
   -3.0325   -1.2000    1.2045 H   0  0  0  0  0  0  0  0  0  0  0  0
   -0.1224   -0.7640   -0.1399 C   0  0  0  0  0  0  0  0  0  0  0  0
   -0.9933    0.7185    1.0337 H   0  0  0  0  0  0  0  0  0  0  0  0
   -1.6451    0.8397   -0.6524 H   0  0  0  0  0  0  0  0  0  0  0  0
    0.3334   -1.2994    0.8151 H   0  0  0  0  0  0  0  0  0  0  0  0
    0.6993   -0.3104   -0.5670 H   0  0  0  0  0  0  0  0  0  0  0  0
   -0.2117   -1.6550   -1.1903 H   0  0  0  0  0  0  0  0  0  0  0  0
  1  2  1  0  0  0  0
  1  5  1  0  0  0  0
  2  8  1  0  0  0  0
  3  1  1  0  0  0  0
  4  1  1  0  0  0  0
  6  2  1  0  0  0  0
  6 10  1  0  0  0  0
  7  2  1  0  0  0  0
  9  6  1  0  0  0  0
  9 12  1  0  0  0  0
 11  6  1  0  0  0  0
 13  9  1  0  0  0  0
 14  9  1  0  0  0  0
M  END
$$$$
