14
butane_opt
C  -4.008511   0.320982   0.185490
C  -2.732265  -0.706915  -0.115794
H  -4.846635  -0.135307  -0.072798
H  -4.292795   0.512941  -0.406186
H  -3.879160   1.442505   1.433473
C  -1.320013   0.171875  -0.253195
H  -3.043834  -1.327947  -0.993938
H  -2.563173  -1.359679   0.890696
C  -0.143793  -0.666617   0.186528
H  -1.486883   0.676754   0.556872
H  -1.294454   1.094275  -1.299356
H  -0.586274  -1.397513   1.195909
H   1.032266   0.115774   0.730890
H   0.340941  -1.502099  -0.618288
