butane_opt
 OpenBabel08242015403D

 14 12  0  0  0  0  0  0  0  0999 V2000
   -3.8400    0.1710    0.0061 C   0  0  0  0  0  0  0  0  0  0  0  0
   -2.6942   -0.5572   -0.0291 C   0  0  0  0  0  0  0  0  0  0  0  0
   -4.8280   -0.4277   -0.0601 H   0  0  0  0  0  0  0  0  0  0  0  0
   -4.1225    0.7024   -0.7944 H   0  0  0  0  0  0  0  0  0  0  0  0
   -3.6252    1.0818    1.1363 H   0  0  0  0  0  0  0  0  0  0  0  0
   -1.4824    0.2709    0.0247 C   0  0  0  0  0  0  0  0  0  0  0  0
   -2.5982   -1.2151   -0.8476 H   0  0  0  0  0  0  0  0  0  0  0  0
   -2.7698   -1.2038    0.8943 H   0  0  0  0  0  0  0  0  0  0  0  0
   -0.2074   -0.7842    0.0691 C   0  0  0  0  0  0  0  0  0  0  0  0
   -1.3655    1.1480    1.0229 H   0  0  0  0  0  0  0  0  0  0  0  0
   -1.6884    1.0730   -0.7694 H   0  0  0  0  0  0  0  0  0  0  0  0
    0.2369   -1.8161    1.1749 H   0  0  0  0  0  0  0  0  0  0  0  0
    0.7979   -0.0449   -0.5235 H   0  0  0  0  0  0  0  0  0  0  0  0
   -0.3405   -0.9979   -0.5811 H   0  0  0  0  0  0  0  0  0  0  0  0
  1  5  1  0  0  0  0
  2  1  1  0  0  0  0
  2  6  1  0  0  0  0
  2  8  1  0  0  0  0
  3  1  1  0  0  0  0
  4  1  1  0  0  0  0
  6  9  1  0  0  0  0
  6 10  1  0  0  0  0
  7  2  1  0  0  0  0
 11  6  1  0  0  0  0
 13  9  1  0  0  0  0
 14  9  1  0  0  0  0
M  RAD  2   9   2  12   2
M  END
$$$$
