14
butane_opt
C  -3.987718   0.234549   0.199364
C  -2.707729  -0.555849  -0.116388
H  -4.877096  -0.464032   0.135755
H  -4.101432   0.491140  -0.459378
H  -3.663925   1.254754   1.286327
C  -1.380682   0.239348  -0.278654
H  -3.128811  -1.194372  -0.950317
H  -2.751845  -1.382083   0.816755
C  -0.123251  -0.758413   0.225751
H  -1.846317   0.887622   0.436796
H  -1.099545   0.958500  -1.300760
H  -0.353252  -1.213410   1.116681
H   0.917598  -0.003673   0.744035
H   0.252611  -1.717692  -0.755785
