14
butane_opt
C  -4.003656   0.307864  -0.038897
C  -2.670177  -0.665493   0.116515
H  -4.768497  -0.135695   0.197143
H  -4.115933   1.269195  -1.275662
H  -4.110531   0.674417   0.471674
C  -1.384739   0.138025   0.071322
H  -2.624085  -1.014208  -0.460157
H  -2.683294  -1.586826   1.346784
C  -0.128834  -0.663250  -0.032696
H  -1.270845   0.585687   0.837384
H  -1.380155   0.618837  -0.792694
H  -0.430949  -0.378547   0.386297
H   0.966179   0.129139   0.772713
H  -0.357048  -2.018518  -1.544152
