butane_opt
 OpenBabel08242015403D

 14  8  0  0  0  0  0  0  0  0999 V2000
   -4.0329    0.3267    0.1537 C   0  0  0  0  0  0  0  0  0  0  0  0
   -2.6511   -0.6877   -0.1748 C   0  0  0  0  0  0  0  0  0  0  0  0
   -4.9311   -0.3354   -0.1916 H   0  0  0  0  0  0  0  0  0  0  0  0
   -4.1993    0.5166   -0.4252 H   0  0  0  0  0  0  0  0  0  0  0  0
   -4.1147    1.2187    1.1599 H   0  0  0  0  0  0  0  0  0  0  0  0
   -1.3753    0.1416   -0.0392 C   0  0  0  0  0  0  0  0  0  0  0  0
   -2.5968   -1.2235   -1.0149 H   0  0  0  0  0  0  0  0  0  0  0  0
   -2.4063   -1.2150    0.5537 H   0  0  0  0  0  0  0  0  0  0  0  0
   -0.1636   -0.6711    0.1964 C   0  0  0  0  0  1  0  0  0  0  0  0
   -1.2654    0.6927    0.7767 H   0  0  0  0  0  0  0  0  0  0  0  0
   -1.1953    0.8578   -1.1386 H   0  0  0  0  0  0  0  0  0  0  0  0
    0.0096   -1.7488    1.3906 H   0  0  0  0  0  0  0  0  0  0  0  0
    0.8062    0.0371   -0.8360 H   0  0  0  0  0  0  0  0  0  0  0  0
   -0.4485   -0.5895   -0.3837 H   0  0  0  0  0  0  0  0  0  0  0  0
  1  5  1  0  0  0  0
  2  1  1  0  0  0  0
  2  8  1  0  0  0  0
  3  1  1  0  0  0  0
  6 10  1  0  0  0  0
  7  2  1  0  0  0  0
 11  6  1  0  0  0  0
 14  9  1  0  0  0  0
M  RAD  6   1   2   2   2   4   2   6   3  12   2  13   2
M  END
$$$$
