butane_opt
 OpenBabel08242015403D

 14 12  0  0  0  0  0  0  0  0999 V2000
   -3.8674    0.1860   -0.0332 C   0  0  0  0  0  0  0  0  0  0  0  0
   -2.6651   -0.5226    0.2003 C   0  0  0  0  0  0  0  0  0  0  0  0
   -4.7841   -0.3427   -0.7332 H   0  0  0  0  0  0  0  0  0  0  0  0
   -3.4121    0.3756   -0.7304 H   0  0  0  0  0  0  0  0  0  0  0  0
   -4.4836    1.1722    1.0767 H   0  0  0  0  0  0  0  0  0  0  0  0
   -1.4608    0.2443   -0.0060 C   0  0  0  0  0  0  0  0  0  0  0  0
   -2.9539   -1.2887   -0.8688 H   0  0  0  0  0  0  0  0  0  0  0  0
   -2.7282   -1.2598    1.1675 H   0  0  0  0  0  0  0  0  0  0  0  0
   -0.1535   -0.7259    0.0150 C   0  0  0  0  0  0  0  0  0  0  0  0
   -1.3962    0.8577    0.7928 H   0  0  0  0  0  0  0  0  0  0  0  0
   -1.6668    0.9337   -0.9321 H   0  0  0  0  0  0  0  0  0  0  0  0
   -0.1488   -1.2428    0.7300 H   0  0  0  0  0  0  0  0  0  0  0  0
    0.6222   -0.3939   -0.2136 H   0  0  0  0  0  0  0  0  0  0  0  0
   -0.2450   -1.4962   -0.9321 H   0  0  0  0  0  0  0  0  0  0  0  0
  1  2  1  0  0  0  0
  2  8  1  0  0  0  0
  3  1  1  0  0  0  0
  4  1  1  0  0  0  0
  6  9  1  0  0  0  0
  6  2  1  0  0  0  0
  6 10  1  0  0  0  0
  7  2  1  0  0  0  0
  9 12  1  0  0  0  0
 11  6  1  0  0  0  0
 13  9  1  0  0  0  0
 14  9  1  0  0  0  0
M  RAD  2   1   2   5   2
M  END
$$$$
