14
butane_opt
C  -3.901492   0.311075  -0.120475
C  -2.678559  -0.620445   0.080359
H  -4.892091  -0.293096   0.388145
H  -3.988959   1.168570  -1.198577
H  -3.962277   0.723364   0.647905
C  -1.416882   0.072667   0.249800
H  -2.612431  -1.390092  -0.731006
H  -2.891428  -1.128556   1.034937
C  -0.213453  -0.641227  -0.091268
H  -1.411279   0.789956   1.216711
H  -1.356127   0.791274  -0.811699
H   0.107208  -1.444414   0.863192
H   0.970816   0.085449  -0.537822
H  -0.513792  -1.179833  -0.857549
