butane_opt
 OpenBabel08242015403D

 14 10  0  0  0  0  0  0  0  0999 V2000
   -3.9376    0.3028    0.0247 C   0  0  0  0  0  1  0  0  0  0  0  0
   -2.6197   -0.6349    0.0592 C   0  0  0  0  0  0  0  0  0  0  0  0
   -4.7062   -0.1434   -0.5893 H   0  0  0  0  0  0  0  0  0  0  0  0
   -3.6823    0.2439   -0.4360 H   0  0  0  0  0  0  0  0  0  0  0  0
   -4.3027    1.4422    1.1293 H   0  0  0  0  0  0  0  0  0  0  0  0
   -1.4455    0.0801   -0.0003 C   0  0  0  0  0  0  0  0  0  0  0  0
   -2.7083   -1.1888   -0.7355 H   0  0  0  0  0  0  0  0  0  0  0  0
   -2.5534   -1.2245    0.8803 H   0  0  0  0  0  0  0  0  0  0  0  0
   -0.2189   -0.6628    0.0436 C   0  0  0  0  0  0  0  0  0  0  0  0
   -1.5275    0.4217    0.7113 H   0  0  0  0  0  0  0  0  0  0  0  0
   -1.2795    0.9988   -1.0679 H   0  0  0  0  0  0  0  0  0  0  0  0
   -0.1203   -1.3063    0.9495 H   0  0  0  0  0  0  0  0  0  0  0  0
    0.8786    0.3438   -0.2750 H   0  0  0  0  0  0  0  0  0  0  0  0
   -0.4141   -1.0563   -0.5941 H   0  0  0  0  0  0  0  0  0  0  0  0
  2  8  1  0  0  0  0
  3  1  1  0  0  0  0
  4  2  1  0  0  0  0
  6  9  1  0  0  0  0
  6  2  1  0  0  0  0
  6 10  1  0  0  0  0
  7  2  1  0  0  0  0
  9 12  1  0  0  0  0
 11  6  1  0  0  0  0
 14  9  1  0  0  0  0
M  RAD  3   5   2   9   2  13   2
M  END
$$$$
