butane_opt
 OpenBabel08242015403D

 14 11  0  0  0  0  0  0  0  0999 V2000
   -3.9543    0.2719    0.1250 C   0  0  0  0  0  0  0  0  0  0  0  0
   -2.6144   -0.5938   -0.1001 C   0  0  0  0  0  0  0  0  0  0  0  0
   -4.7181   -0.1724    0.7269 H   0  0  0  0  0  0  0  0  0  0  0  0
   -4.1494    1.3808   -1.2532 H   0  0  0  0  0  0  0  0  0  0  0  0
   -3.7707    0.3451    0.6082 H   0  0  0  0  0  0  0  0  0  0  0  0
   -1.4283    0.1121    0.0015 C   0  0  0  0  0  0  0  0  0  0  0  0
   -2.9402   -1.5643   -1.1935 H   0  0  0  0  0  0  0  0  0  0  0  0
   -2.6419   -1.1187    0.5901 H   0  0  0  0  0  0  0  0  0  0  0  0
   -0.2054   -0.6507    0.1077 C   0  0  0  0  0  0  0  0  0  0  0  0
   -1.3471    0.9048    0.8937 H   0  0  0  0  0  0  0  0  0  0  0  0
   -1.5256    0.7582   -0.9464 H   0  0  0  0  0  0  0  0  0  0  0  0
   -0.3101   -1.3296    1.1333 H   0  0  0  0  0  0  0  0  0  0  0  0
    0.8412    0.1182    0.0005 H   0  0  0  0  0  0  0  0  0  0  0  0
   -0.0897   -1.3981   -0.7731 H   0  0  0  0  0  0  0  0  0  0  0  0
  1  3  1  0  0  0  0
  2  6  1  0  0  0  0
  2  1  1  0  0  0  0
  2  8  1  0  0  0  0
  6  9  1  0  0  0  0
  6 10  1  0  0  0  0
  7  2  1  0  0  0  0
  9 12  1  0  0  0  0
 11  6  1  0  0  0  0
 13  9  1  0  0  0  0
 14  9  1  0  0  0  0
M  RAD  3   1   3   4   2   5   2
M  END
$$$$
