butane_opt
 OpenBabel08242015403D

 14  9  0  0  0  0  0  0  0  0999 V2000
   -3.8684    0.2344   -0.0970 C   0  0  0  0  0  1  0  0  0  0  0  0
   -2.6894   -0.6020    0.0785 C   0  0  0  0  0  0  0  0  0  0  0  0
   -4.7752   -0.4757    0.7425 H   0  0  0  0  0  0  0  0  0  0  0  0
   -4.0013    1.4653   -1.4609 H   0  0  0  0  0  0  0  0  0  0  0  0
   -3.6361    0.1338    0.3173 H   0  0  0  0  0  0  0  0  0  0  0  0
   -1.4425    0.2619    0.1821 C   0  0  0  0  0  0  0  0  0  0  0  0
   -2.4937   -0.7329   -0.5151 H   0  0  0  0  0  0  0  0  0  0  0  0
   -2.7775   -1.3836    1.1581 H   0  0  0  0  0  0  0  0  0  0  0  0
   -0.2256   -0.7505   -0.0839 C   0  0  0  0  0  0  0  0  0  0  0  0
   -1.3680    1.1859    1.2197 H   0  0  0  0  0  0  0  0  0  0  0  0
   -1.2456    0.6078   -0.5324 H   0  0  0  0  0  0  0  0  0  0  0  0
   -0.1378   -0.9387    0.5380 H   0  0  0  0  0  0  0  0  0  0  0  0
    0.5965   -0.2933    0.2924 H   0  0  0  0  0  0  0  0  0  0  0  0
   -0.4167   -1.8149   -1.3780 H   0  0  0  0  0  0  0  0  0  0  0  0
  1  3  1  0  0  0  0
  2  5  1  0  0  0  0
  2  8  1  0  0  0  0
  6 10  1  0  0  0  0
  7  2  1  0  0  0  0
  9  6  1  0  0  0  0
  9 13  1  0  0  0  0
  9 12  1  0  0  0  0
 11  6  1  0  0  0  0
M  RAD  5   2   2   4   2   6   2   9   2  14   2
M  END
$$$$
