14
butane_opt
C  -3.884409   0.188197  -0.032183
C  -2.636658  -0.561358   0.137154
H  -4.843478  -0.613333  -0.304375
H  -3.616340   0.814034  -0.861991
H  -3.988982   0.889693   0.831967
C  -1.472786   0.253826   0.020496
H  -2.665878  -0.795850  -0.488109
H  -2.812907  -1.303651   1.069685
C  -0.194439  -0.707451  -0.046104
H  -1.448695   1.122334   1.032535
H  -1.523809   0.674081  -0.792495
H  -0.100149  -1.387870   0.829349
H   0.388141  -0.393761   0.305264
H  -0.114515  -1.633843  -1.128795
