14
butane_opt
C  -3.937705   0.273824   0.018673
C  -2.698050  -0.623669   0.057744
H  -4.858011  -0.320292   0.029294
H  -3.927336   0.910281  -0.912443
H  -3.985054   0.918141   0.873128
C  -1.405030   0.180206   0.002384
H  -2.685320  -1.309917  -0.785457
H  -2.734408  -1.244049   0.920248
C  -0.174110  -0.692058   0.027203
H  -1.339123   0.809130   0.838740
H  -1.389933   0.821438  -0.896823
H  -0.232388  -1.192514   0.830288
H   0.752966  -0.100720   0.138218
H  -0.049597  -1.417585  -0.874744
