butane_opt
 OpenBabel08242015403D

 14 11  0  0  0  0  0  0  0  0999 V2000
   -4.0352    0.3554   -0.1121 C   0  0  0  0  0  0  0  0  0  0  0  0
   -2.7283   -0.7411    0.0236 C   0  0  0  0  0  0  0  0  0  0  0  0
   -4.7629   -0.0305    1.0344 H   0  0  0  0  0  0  0  0  0  0  0  0
   -4.5445    1.5740   -1.1411 H   0  0  0  0  0  0  0  0  0  0  0  0
   -3.4743    0.3675    0.3823 H   0  0  0  0  0  0  0  0  0  0  0  0
   -1.3212    0.1174    0.1478 C   0  0  0  0  0  0  0  0  0  0  0  0
   -2.5814   -1.3289   -0.7247 H   0  0  0  0  0  0  0  0  0  0  0  0
   -2.6624   -1.5492    1.0399 H   0  0  0  0  0  0  0  0  0  0  0  0
   -0.1689   -0.6115   -0.0360 C   0  0  0  0  0  0  0  0  0  0  0  0
   -1.1923    1.0882    1.2201 H   0  0  0  0  0  0  0  0  0  0  0  0
   -1.3675    0.6606   -0.4892 H   0  0  0  0  0  0  0  0  0  0  0  0
   -0.1812   -1.1006    0.7648 H   0  0  0  0  0  0  0  0  0  0  0  0
    0.7341    0.0211    0.0595 H   0  0  0  0  0  0  0  0  0  0  0  0
   -0.0282   -1.5805   -1.0945 H   0  0  0  0  0  0  0  0  0  0  0  0
  1  5  1  0  0  0  0
  1  3  1  0  0  0  0
  2  6  1  0  0  0  0
  2  8  1  0  0  0  0
  6 10  1  0  0  0  0
  7  2  1  0  0  0  0
  9 13  1  0  0  0  0
  9  6  1  0  0  0  0
  9 12  1  0  0  0  0
 11  6  1  0  0  0  0
 14  9  1  0  0  0  0
M  RAD  3   1   3   2   2   4   2
M  END
$$$$
