butane_opt
 OpenBabel08242015403D

 14 11  0  0  0  0  0  0  0  0999 V2000
   -3.9908    0.2201    0.2272 C   0  0  0  0  0  0  0  0  0  0  0  0
   -2.7849   -0.5083   -0.1286 C   0  0  0  0  0  0  0  0  0  0  0  0
   -5.0401   -0.6041    0.2380 H   0  0  0  0  0  0  0  0  0  0  0  0
   -3.9423    0.7397   -0.6917 H   0  0  0  0  0  0  0  0  0  0  0  0
   -3.7822    0.8734    1.0567 H   0  0  0  0  0  0  0  0  0  0  0  0
   -1.3575    0.2359   -0.1859 C   0  0  0  0  0  0  0  0  0  0  0  0
   -3.2144   -1.4017   -1.1747 H   0  0  0  0  0  0  0  0  0  0  0  0
   -2.4606   -0.9764    0.6117 H   0  0  0  0  0  0  0  0  0  0  0  0
   -0.0711   -0.7187    0.2144 C   0  0  0  0  0  0  0  0  0  0  0  0
   -1.6099    0.5898    0.3713 H   0  0  0  0  0  0  0  0  0  0  0  0
   -1.2465    1.1264   -1.4210 H   0  0  0  0  0  0  0  0  0  0  0  0
   -0.4342   -1.3783    1.2668 H   0  0  0  0  0  0  0  0  0  0  0  0
    0.6534   -0.4102    0.5538 H   0  0  0  0  0  0  0  0  0  0  0  0
    0.5151   -1.8248   -0.9427 H   0  0  0  0  0  0  0  0  0  0  0  0
  1  3  1  0  0  0  0
  1  5  1  0  0  0  0
  2  1  1  0  0  0  0
  2  8  1  0  0  0  0
  4  1  1  0  0  0  0
  6  2  1  0  0  0  0
  6  9  1  0  0  0  0
  6 10  1  0  0  0  0
  7  2  1  0  0  0  0
  9 13  1  0  0  0  0
  9 12  1  0  0  0  0
M  RAD  4   6   2   9   2  11   2  14   2
M  END
$$$$
