butane_opt
 OpenBabel08242015403D

 14 13  0  0  0  0  0  0  0  0999 V2000
   -3.9503    0.2578   -0.0074 C   0  0  0  0  0  0  0  0  0  0  0  0
   -2.7086   -0.6024    0.0453 C   0  0  0  0  0  0  0  0  0  0  0  0
   -4.8938   -0.3808    0.1855 H   0  0  0  0  0  0  0  0  0  0  0  0
   -4.0351    0.9715   -0.9500 H   0  0  0  0  0  0  0  0  0  0  0  0
   -3.9272    0.8096    0.7655 H   0  0  0  0  0  0  0  0  0  0  0  0
   -1.3930    0.1996    0.0352 C   0  0  0  0  0  0  0  0  0  0  0  0
   -2.7114   -1.2458   -0.7398 H   0  0  0  0  0  0  0  0  0  0  0  0
   -2.7443   -1.2595    0.9639 H   0  0  0  0  0  0  0  0  0  0  0  0
   -0.1524   -0.7015    0.0171 C   0  0  0  0  0  0  0  0  0  0  0  0
   -1.3611    0.9144    0.9194 H   0  0  0  0  0  0  0  0  0  0  0  0
   -1.4252    0.7733   -0.8048 H   0  0  0  0  0  0  0  0  0  0  0  0
   -0.1059   -1.2660    0.8763 H   0  0  0  0  0  0  0  0  0  0  0  0
    0.7538   -0.1404    0.0299 H   0  0  0  0  0  0  0  0  0  0  0  0
   -0.1154   -1.4936   -0.9100 H   0  0  0  0  0  0  0  0  0  0  0  0
  1  2  1  0  0  0  0
  1  3  1  0  0  0  0
  1  5  1  0  0  0  0
  2  8  1  0  0  0  0
  4  1  1  0  0  0  0
  6  2  1  0  0  0  0
  6 10  1  0  0  0  0
  7  2  1  0  0  0  0
  9 13  1  0  0  0  0
  9  6  1  0  0  0  0
  9 12  1  0  0  0  0
 11  6  1  0  0  0  0
 14  9  1  0  0  0  0
M  END
$$$$
