14
butane_opt
C  -4.032893   0.326683   0.153699
C  -2.651068  -0.687690  -0.174752
H  -4.931108  -0.335399  -0.191646
H  -4.199311   0.516571  -0.425247
H  -4.114733   1.218729   1.159943
C  -1.375264   0.141639  -0.039238
H  -2.596785  -1.223539  -1.014906
H  -2.406251  -1.214972   0.553704
C  -0.163598  -0.671077   0.196362
H  -1.265403   0.692697   0.776667
H  -1.195323   0.857824  -1.138630
H   0.009596  -1.748798   1.390625
H   0.806185   0.037132  -0.836033
H  -0.448541  -0.589543  -0.383689
