butane_opt
 OpenBabel08242015403D

 14 10  0  0  0  0  0  0  0  0999 V2000
   -3.9274    0.2622   -0.1093 C   0  0  0  0  0  0  0  0  0  0  0  0
   -2.6473   -0.5923    0.1567 C   0  0  0  0  0  0  0  0  0  0  0  0
   -4.7862   -0.0833    0.7182 H   0  0  0  0  0  0  0  0  0  0  0  0
   -4.0097    1.3765   -1.3283 H   0  0  0  0  0  0  0  0  0  0  0  0
   -3.8560    0.3698    0.3834 H   0  0  0  0  0  0  0  0  0  0  0  0
   -1.4447    0.1312    0.1307 C   0  0  0  0  0  0  0  0  0  0  0  0
   -2.6543   -1.4964   -0.7614 H   0  0  0  0  0  0  0  0  0  0  0  0
   -2.5329   -1.1266    0.9272 H   0  0  0  0  0  0  0  0  0  0  0  0
   -0.1845   -0.6713   -0.0682 C   0  0  0  0  0  0  0  0  0  0  0  0
   -1.2858    0.7981    1.0274 H   0  0  0  0  0  0  0  0  0  0  0  0
   -1.6348    0.4883   -0.6152 H   0  0  0  0  0  0  0  0  0  0  0  0
   -0.4773   -0.8870    0.5208 H   0  0  0  0  0  0  0  0  0  0  0  0
    0.8861    0.0892    0.2784 H   0  0  0  0  0  0  0  0  0  0  0  0
   -0.2443   -1.4973   -1.0965 H   0  0  0  0  0  0  0  0  0  0  0  0
  1  2  1  0  0  0  0
  1  3  1  0  0  0  0
  2  8  1  0  0  0  0
  6  2  1  0  0  0  0
  6 10  1  0  0  0  0
  7  2  1  0  0  0  0
  9 13  1  0  0  0  0
  9 12  1  0  0  0  0
 11  6  1  0  0  0  0
 14  9  1  0  0  0  0
M  RAD  5   1   3   4   2   5   2   6   2   9   2
M  END
$$$$
