14
butane_opt
C  -3.928603   0.306456   0.039514
C  -2.727727  -0.649292   0.095727
H  -4.622749  -0.045287  -0.856999
H  -3.666449   0.439198  -0.529454
H  -4.149069   1.256751   1.109087
C  -1.390014   0.143063  -0.006523
H  -2.550765  -1.437745  -0.808972
H  -2.603803  -1.441758   0.920314
C  -0.222941  -0.650421   0.014568
H  -1.137462   0.626112   0.760018
H  -1.405763   1.053800  -1.052743
H  -0.147706  -1.391751   1.178743
H   0.650106  -0.080320  -0.134541
H  -0.215893  -1.233295  -0.817918
