14
butane_opt
C  -3.990799   0.220082   0.227249
C  -2.784890  -0.508286  -0.128583
H  -5.040111  -0.604108   0.238019
H  -3.942307   0.739711  -0.691682
H  -3.782219   0.873371   1.056706
C  -1.357472   0.235866  -0.185900
H  -3.214395  -1.401654  -1.174730
H  -2.460605  -0.976425   0.611660
C  -0.071144  -0.718680   0.214448
H  -1.609897   0.589806   0.371307
H  -1.246473   1.126393  -1.420954
H  -0.434236  -1.378338   1.266847
H   0.653404  -0.410246   0.553790
H   0.515133  -1.824775  -0.942724
