14
butane_opt
C  -3.950632   0.319098   0.215413
C  -2.649689  -0.676659  -0.060576
H  -4.801202  -0.105105  -0.551145
H  -3.622922   0.526640  -0.447094
H  -4.136338   1.435631   1.304327
C  -1.402321   0.120725  -0.213751
H  -2.620689  -1.422944  -0.918821
H  -2.555938  -1.184090   0.630046
C  -0.243988  -0.657227   0.168861
H  -1.386501   0.482391   0.499497
H  -1.051415   0.971879  -1.238527
H  -0.505177  -1.369633   1.277095
H   0.943917   0.123860   0.319378
H  -0.364980  -1.185847  -0.684884
