14
butane_opt
C  -3.995381   0.286201  -0.073953
C  -2.721879  -0.666255   0.155120
H  -4.658406  -0.222944   0.409052
H  -4.240099   1.587484  -1.532973
H  -4.032985   0.448620   0.334446
C  -1.413966   0.118086   0.136185
H  -2.638499  -1.231954  -0.582767
H  -2.827169  -1.040505   0.980204
C  -0.109060  -0.663464  -0.073558
H  -1.258087   1.042760   1.101103
H  -1.242433   0.561773  -0.576169
H  -0.067003  -0.902284   0.562583
H   0.975180   0.105511   0.131689
H  -0.175148  -1.688701  -1.223423
