butane_opt
 OpenBabel08242015403D

 14  7  0  0  0  0  0  0  0  0999 V2000
   -4.0037    0.3079   -0.0389 C   0  0  0  0  0  0  0  0  0  0  0  0
   -2.6702   -0.6655    0.1165 C   0  0  0  0  0  0  0  0  0  0  0  0
   -4.7685   -0.1357    0.1971 H   0  0  0  0  0  0  0  0  0  0  0  0
   -4.1159    1.2692   -1.2757 H   0  0  0  0  0  0  0  0  0  0  0  0
   -4.1105    0.6744    0.4717 H   0  0  0  0  0  0  0  0  0  0  0  0
   -1.3847    0.1380    0.0713 C   0  0  0  0  0  0  0  0  0  0  0  0
   -2.6241   -1.0142   -0.4602 H   0  0  0  0  0  0  0  0  0  0  0  0
   -2.6833   -1.5868    1.3468 H   0  0  0  0  0  0  0  0  0  0  0  0
   -0.1288   -0.6633   -0.0327 C   0  0  0  0  0 15  0  0  0  0  0  0
   -1.2708    0.5857    0.8374 H   0  0  0  0  0  0  0  0  0  0  0  0
   -1.3802    0.6188   -0.7927 H   0  0  0  0  0  0  0  0  0  0  0  0
   -0.4309   -0.3785    0.3863 H   0  0  0  0  0  0  0  0  0  0  0  0
    0.9662    0.1291    0.7727 H   0  0  0  0  0  0  0  0  0  0  0  0
   -0.3570   -2.0185   -1.5442 H   0  0  0  0  0  0  0  0  0  0  0  0
  1  2  1  0  0  0  0
  1  3  1  0  0  0  0
  1  5  1  0  0  0  0
  6 12  1  0  0  0  0
  6 10  1  0  0  0  0
  7  2  1  0  0  0  0
 11  6  1  0  0  0  0
M  RAD  7   1   2   2   3   4   2   6   2   8   2  13   2  14   2
M  END
$$$$
