14
butane_opt
C  -3.956222   0.207642  -0.084719
C  -2.772471  -0.571368   0.135464
H  -4.877778  -0.385528  -0.423440
H  -3.791008   0.928750  -1.039201
H  -4.092752   0.710159   0.673154
C  -1.360451   0.331676   0.173944
H  -3.018261  -1.123433  -0.605931
H  -2.813959  -1.422330   1.195809
C  -0.120887  -0.788610  -0.108913
H  -1.359071   1.288911   1.227838
H  -1.602240   0.665767  -0.656124
H   0.310471  -1.703393   0.917519
H   0.828450  -0.165605  -0.457042
H  -0.098954  -1.395256  -0.816062
