butane_opt
 OpenBabel08242015403D

 14 13  0  0  0  0  0  0  0  0999 V2000
   -3.9300    0.3192    0.0819 C   0  0  0  0  0  0  0  0  0  0  0  0
   -2.6674   -0.7337   -0.0101 C   0  0  0  0  0  0  0  0  0  0  0  0
   -4.8768   -0.2773    0.4432 H   0  0  0  0  0  0  0  0  0  0  0  0
   -4.0105    1.1594   -0.8311 H   0  0  0  0  0  0  0  0  0  0  0  0
   -3.9498    1.0972    0.9389 H   0  0  0  0  0  0  0  0  0  0  0  0
   -1.4080    0.1511   -0.1541 C   0  0  0  0  0  0  0  0  0  0  0  0
   -2.8564   -1.2366   -0.7767 H   0  0  0  0  0  0  0  0  0  0  0  0
   -2.2978   -1.3590    0.8472 H   0  0  0  0  0  0  0  0  0  0  0  0
   -0.2104   -0.6443    0.1102 C   0  0  0  0  0  0  0  0  0  0  0  0
   -1.3067    0.9093    0.6110 H   0  0  0  0  0  0  0  0  0  0  0  0
   -1.1903    0.6285   -0.8793 H   0  0  0  0  0  0  0  0  0  0  0  0
   -0.7089   -0.7979    0.8579 H   0  0  0  0  0  0  0  0  0  0  0  0
    0.7011   -0.0484    0.7003 H   0  0  0  0  0  0  0  0  0  0  0  0
    0.0808   -1.6871   -0.8660 H   0  0  0  0  0  0  0  0  0  0  0  0
  1  3  1  0  0  0  0
  1  5  1  0  0  0  0
  2  1  1  0  0  0  0
  2  8  1  0  0  0  0
  4  1  1  0  0  0  0
  6  2  1  0  0  0  0
  6  9  1  0  0  0  0
  6 10  1  0  0  0  0
  7  2  1  0  0  0  0
  9 13  1  0  0  0  0
  9 12  1  0  0  0  0
 11  6  1  0  0  0  0
 14  9  1  0  0  0  0
M  END
$$$$
