butane_opt
 OpenBabel08242015403D

 14 13  0  0  0  0  0  0  0  0999 V2000
   -4.0516    0.3391    0.1965 C   0  0  0  0  0  0  0  0  0  0  0  0
   -2.6676   -0.6563   -0.1740 C   0  0  0  0  0  0  0  0  0  0  0  0
   -4.8701   -0.1288    0.1876 H   0  0  0  0  0  0  0  0  0  0  0  0
   -4.3665    0.7097   -0.4208 H   0  0  0  0  0  0  0  0  0  0  0  0
   -3.9742    1.0995    1.2474 H   0  0  0  0  0  0  0  0  0  0  0  0
   -1.3236    0.0726   -0.2021 C   0  0  0  0  0  0  0  0  0  0  0  0
   -2.9186   -1.2406   -1.0493 H   0  0  0  0  0  0  0  0  0  0  0  0
   -2.6452   -1.4685    0.7820 H   0  0  0  0  0  0  0  0  0  0  0  0
   -0.1815   -0.6387    0.2078 C   0  0  0  0  0  0  0  0  0  0  0  0
   -1.2753    0.6121    0.4798 H   0  0  0  0  0  0  0  0  0  0  0  0
   -1.0962    1.0066   -1.2356 H   0  0  0  0  0  0  0  0  0  0  0  0
   -0.2449   -1.1467    1.1166 H   0  0  0  0  0  0  0  0  0  0  0  0
    0.9939    0.0287    0.6651 H   0  0  0  0  0  0  0  0  0  0  0  0
    0.0274   -1.3183   -0.6350 H   0  0  0  0  0  0  0  0  0  0  0  0
  1  5  1  0  0  0  0
  2  1  1  0  0  0  0
  2  8  1  0  0  0  0
  3  1  1  0  0  0  0
  4  1  1  0  0  0  0
  6  2  1  0  0  0  0
  6  9  1  0  0  0  0
  6 10  1  0  0  0  0
  7  2  1  0  0  0  0
  9 13  1  0  0  0  0
  9 12  1  0  0  0  0
 11  6  1  0  0  0  0
 14  9  1  0  0  0  0
M  END
$$$$
