14
butane_opt
C  -3.960010   0.185887  -0.125034
C  -2.743624  -0.606399   0.212807
H  -4.762489  -0.338711   0.505585
H  -4.032477   1.284757  -1.351738
H  -4.081404   0.443509   0.339978
C  -1.417100   0.340982   0.096440
H  -2.566406  -1.035775  -0.523523
H  -2.933647  -1.306152   1.253341
C  -0.076315  -0.745871  -0.120071
H  -1.268218   1.133420   1.112115
H  -1.652817   0.621137  -0.389920
H  -0.347697  -0.973888   0.446702
H   0.787477  -0.295377   0.584586
H   0.247142  -2.125604  -1.389044
