14
butane_opt
C  -3.944964   0.285604   0.008873
C  -2.648985  -0.625164   0.163116
H  -4.926084  -0.273648   0.105617
H  -3.701823   1.177751  -1.175639
H  -3.925276   0.711312   0.611035
C  -1.393074   0.155969   0.003699
H  -2.426633  -1.281047  -0.666580
H  -2.808550  -1.234625   1.045340
C  -0.254322  -0.702174  -0.046327
H  -1.151159   0.664939   0.748124
H  -1.342269   0.772571  -1.047569
H  -0.620393  -0.489435   0.429363
H   0.719921  -0.097245   1.025184
H   0.059729  -1.804514  -1.227464
