14
butane_opt
C  -3.966564   0.210693   0.183910
C  -2.756403  -0.542399  -0.206644
H  -4.794085  -0.325687   0.425847
H  -4.181322   0.580342  -0.642266
H  -3.664686   0.753141   1.025545
C  -1.453226   0.272543  -0.166624
H  -2.914687  -1.258022  -0.975442
H  -2.535174  -1.133150   0.671767
C  -0.067119  -0.726394   0.220395
H  -1.366050   0.876704   0.717627
H  -1.252381   0.719379  -1.028872
H   0.182957  -1.599111   1.394289
H   0.556355  -0.408072   0.055323
H  -0.125869  -1.254720  -0.538387
