14
butane_opt
C  -3.949837   0.287967  -0.118762
C  -2.656458  -0.614710   0.239832
H  -4.629583  -0.091777   0.264873
H  -4.077296   1.121264  -1.179003
H  -3.896760   0.751889   0.534649
C  -1.386041   0.094967   0.107836
H  -2.342916  -1.331870  -0.586920
H  -2.625976  -1.418704   1.135619
C  -0.250544  -0.640600  -0.077680
H  -1.437054   0.563310   0.702856
H  -1.399040   0.786192  -0.879463
H  -0.614581  -0.362600   0.309082
H   0.974889   0.070735   0.660290
H  -0.092483  -2.035469  -1.437877
