14
butane_opt
C  -3.953085   0.314969   0.172975
C  -2.663202  -0.693134  -0.147778
H  -4.790210  -0.206123   0.566240
H  -4.264119   0.986786  -0.775783
H  -3.625321   0.759992   0.895241
C  -1.441089   0.168740  -0.142988
H  -2.682177  -1.595871  -1.274392
H  -2.338509  -1.177397   0.666821
C  -0.193448  -0.635623   0.162654
H  -1.517677   1.053319   0.768007
H  -1.002423   0.562985  -0.992827
H  -0.271271  -1.595256   1.476917
H   0.620079  -0.087300   0.141815
H  -0.160755  -1.029061  -0.562222
