14
butane_opt
C  -4.009395   0.274900   0.189470
C  -2.672611  -0.723059  -0.195316
H  -4.668574  -0.045779   0.794680
H  -4.836993   1.295969  -0.761079
H  -3.472167   0.948667   1.081336
C  -1.376114   0.164632  -0.160006
H  -2.672471  -1.692760  -1.333239
H  -2.447548  -0.919785   0.428412
C  -0.156019  -0.649036   0.225320
H  -1.599260   0.581460   0.588226
H  -1.083959   0.987703  -1.164932
H  -0.443414  -1.295528   1.171242
H   0.850449  -0.040486   0.308181
H  -0.071854  -1.060356  -0.416710
