butane_opt
 OpenBabel08242015403D

 14 13  0  0  0  0  0  0  0  0999 V2000
   -3.9268    0.2560   -0.0109 C   0  0  0  0  0  0  0  0  0  0  0  0
   -2.7121   -0.5921    0.0773 C   0  0  0  0  0  0  0  0  0  0  0  0
   -4.8466   -0.3644   -0.0937 H   0  0  0  0  0  0  0  0  0  0  0  0
   -3.8836    0.8319   -0.9003 H   0  0  0  0  0  0  0  0  0  0  0  0
   -3.9954    0.9417    0.8565 H   0  0  0  0  0  0  0  0  0  0  0  0
   -1.4156    0.1862    0.0343 C   0  0  0  0  0  0  0  0  0  0  0  0
   -2.7348   -1.2442   -0.7601 H   0  0  0  0  0  0  0  0  0  0  0  0
   -2.7273   -1.2687    0.9994 H   0  0  0  0  0  0  0  0  0  0  0  0
   -0.1594   -0.7050    0.0046 C   0  0  0  0  0  0  0  0  0  0  0  0
   -1.3795    0.9134    0.9247 H   0  0  0  0  0  0  0  0  0  0  0  0
   -1.4185    0.7821   -0.8102 H   0  0  0  0  0  0  0  0  0  0  0  0
   -0.0739   -1.3622    0.8842 H   0  0  0  0  0  0  0  0  0  0  0  0
    0.7725   -0.0723   -0.0619 H   0  0  0  0  0  0  0  0  0  0  0  0
   -0.1721   -1.3692   -0.8631 H   0  0  0  0  0  0  0  0  0  0  0  0
  1  2  1  0  0  0  0
  1  5  1  0  0  0  0
  2  8  1  0  0  0  0
  3  1  1  0  0  0  0
  4  1  1  0  0  0  0
  6  2  1  0  0  0  0
  6 10  1  0  0  0  0
  7  2  1  0  0  0  0
  9  6  1  0  0  0  0
  9 12  1  0  0  0  0
 11  6  1  0  0  0  0
 13  9  1  0  0  0  0
 14  9  1  0  0  0  0
M  END
$$$$
