butane_opt
 OpenBabel08242015403D

 14 12  0  0  0  0  0  0  0  0999 V2000
   -3.9531    0.3150    0.1730 C   0  0  0  0  0  0  0  0  0  0  0  0
   -2.6632   -0.6931   -0.1478 C   0  0  0  0  0  0  0  0  0  0  0  0
   -4.7902   -0.2061    0.5662 H   0  0  0  0  0  0  0  0  0  0  0  0
   -4.2641    0.9868   -0.7758 H   0  0  0  0  0  0  0  0  0  0  0  0
   -3.6253    0.7600    0.8952 H   0  0  0  0  0  0  0  0  0  0  0  0
   -1.4411    0.1687   -0.1430 C   0  0  0  0  0  0  0  0  0  0  0  0
   -2.6822   -1.5959   -1.2744 H   0  0  0  0  0  0  0  0  0  0  0  0
   -2.3385   -1.1774    0.6668 H   0  0  0  0  0  0  0  0  0  0  0  0
   -0.1934   -0.6356    0.1627 C   0  0  0  0  0  0  0  0  0  0  0  0
   -1.5177    1.0533    0.7680 H   0  0  0  0  0  0  0  0  0  0  0  0
   -1.0024    0.5630   -0.9928 H   0  0  0  0  0  0  0  0  0  0  0  0
   -0.2713   -1.5953    1.4769 H   0  0  0  0  0  0  0  0  0  0  0  0
    0.6201   -0.0873    0.1418 H   0  0  0  0  0  0  0  0  0  0  0  0
   -0.1608   -1.0291   -0.5622 H   0  0  0  0  0  0  0  0  0  0  0  0
  1  3  1  0  0  0  0
  1  5  1  0  0  0  0
  2  6  1  0  0  0  0
  2  1  1  0  0  0  0
  2  8  1  0  0  0  0
  4  1  1  0  0  0  0
  6  9  1  0  0  0  0
  6 10  1  0  0  0  0
  7  2  1  0  0  0  0
 11  6  1  0  0  0  0
 13  9  1  0  0  0  0
 14  9  1  0  0  0  0
M  RAD  2   9   2  12   2
M  END
$$$$
