butane_opt
 OpenBabel08242015403D

 14 12  0  0  0  0  0  0  0  0999 V2000
   -3.9752    0.1705    0.1833 C   0  0  0  0  0  0  0  0  0  0  0  0
   -2.7243   -0.5969   -0.1805 C   0  0  0  0  0  0  0  0  0  0  0  0
   -4.7494   -0.2906    0.5413 H   0  0  0  0  0  0  0  0  0  0  0  0
   -4.3790    0.9506   -0.7693 H   0  0  0  0  0  0  0  0  0  0  0  0
   -3.5364    1.0506    1.0431 H   0  0  0  0  0  0  0  0  0  0  0  0
   -1.3956    0.2740   -0.0952 C   0  0  0  0  0  0  0  0  0  0  0  0
   -3.1370   -1.3748   -1.2039 H   0  0  0  0  0  0  0  0  0  0  0  0
   -2.8334   -0.8555    0.6243 H   0  0  0  0  0  0  0  0  0  0  0  0
   -0.0959   -0.7509    0.1823 C   0  0  0  0  0  0  0  0  0  0  0  0
   -1.5684    0.7035    0.5216 H   0  0  0  0  0  0  0  0  0  0  0  0
   -1.2009    1.4341   -1.3596 H   0  0  0  0  0  0  0  0  0  0  0  0
   -0.0769   -1.6041    1.2101 H   0  0  0  0  0  0  0  0  0  0  0  0
    0.6713   -0.2789    0.4361 H   0  0  0  0  0  0  0  0  0  0  0  0
    0.1035   -1.4138   -0.6616 H   0  0  0  0  0  0  0  0  0  0  0  0
  1  3  1  0  0  0  0
  1  5  1  0  0  0  0
  2  6  1  0  0  0  0
  2  1  1  0  0  0  0
  2  8  1  0  0  0  0
  4  1  1  0  0  0  0
  6  9  1  0  0  0  0
  6 10  1  0  0  0  0
  7  2  1  0  0  0  0
  9 13  1  0  0  0  0
  9 12  1  0  0  0  0
 14  9  1  0  0  0  0
M  RAD  2   6   2  11   2
M  END
$$$$
