butane_opt
 OpenBabel08242015403D

 14 11  0  0  0  0  0  0  0  0999 V2000
   -3.9137    0.2559    0.0661 C   0  0  0  0  0  1  0  0  0  0  0  0
   -2.6708   -0.5864    0.0219 C   0  0  0  0  0  0  0  0  0  0  0  0
   -4.9158   -0.4874   -0.5063 H   0  0  0  0  0  0  0  0  0  0  0  0
   -3.7036    0.3591   -0.4968 H   0  0  0  0  0  0  0  0  0  0  0  0
   -3.9134    1.3822    1.1188 H   0  0  0  0  0  0  0  0  0  0  0  0
   -1.4828    0.1788   -0.1211 C   0  0  0  0  0  0  0  0  0  0  0  0
   -2.7436   -0.9738   -0.6029 H   0  0  0  0  0  0  0  0  0  0  0  0
   -2.5887   -1.4047    0.9426 H   0  0  0  0  0  0  0  0  0  0  0  0
   -0.1262   -0.7211    0.1273 C   0  0  0  0  0  0  0  0  0  0  0  0
   -1.4275    0.8153    0.7946 H   0  0  0  0  0  0  0  0  0  0  0  0
   -1.4644    0.7854   -0.9275 H   0  0  0  0  0  0  0  0  0  0  0  0
   -0.3439   -1.1433    0.9165 H   0  0  0  0  0  0  0  0  0  0  0  0
    0.7350   -0.0555   -0.1478 H   0  0  0  0  0  0  0  0  0  0  0  0
   -0.3114   -1.3145   -0.7683 H   0  0  0  0  0  0  0  0  0  0  0  0
  2  8  1  0  0  0  0
  3  1  1  0  0  0  0
  4  2  1  0  0  0  0
  6  2  1  0  0  0  0
  6  9  1  0  0  0  0
  6 10  1  0  0  0  0
  7  2  1  0  0  0  0
  9 12  1  0  0  0  0
 11  6  1  0  0  0  0
 13  9  1  0  0  0  0
 14  9  1  0  0  0  0
M  RAD  1   5   2
M  END
$$$$
