14
butane_opt
C  -4.016770   0.340030   0.145035
C  -2.726909  -0.738313  -0.037721
H  -4.794980  -0.107473   0.154116
H  -4.014354   0.749483  -0.616273
H  -3.939239   1.137721   1.107184
C  -1.353850   0.187492  -0.195925
H  -2.672602  -1.399118  -0.953612
H  -2.611939  -1.325195   0.705668
C  -0.173405  -0.662867   0.200831
H  -1.315827   0.549549   0.534512
H  -0.952601   1.049942  -1.353127
H  -0.253969  -0.722282   0.818387
H   0.746772  -0.223094   0.569043
H   0.000582  -1.684770  -0.880901
