butane_opt
 OpenBabel08242015403D

 14 13  0  0  0  0  0  0  0  0999 V2000
   -3.9562    0.2076   -0.0847 C   0  0  0  0  0  0  0  0  0  0  0  0
   -2.7725   -0.5714    0.1355 C   0  0  0  0  0  0  0  0  0  0  0  0
   -4.8778   -0.3855   -0.4234 H   0  0  0  0  0  0  0  0  0  0  0  0
   -3.7910    0.9287   -1.0392 H   0  0  0  0  0  0  0  0  0  0  0  0
   -4.0928    0.7102    0.6732 H   0  0  0  0  0  0  0  0  0  0  0  0
   -1.3605    0.3317    0.1739 C   0  0  0  0  0  0  0  0  0  0  0  0
   -3.0183   -1.1234   -0.6059 H   0  0  0  0  0  0  0  0  0  0  0  0
   -2.8140   -1.4223    1.1958 H   0  0  0  0  0  0  0  0  0  0  0  0
   -0.1209   -0.7886   -0.1089 C   0  0  0  0  0  0  0  0  0  0  0  0
   -1.3591    1.2889    1.2278 H   0  0  0  0  0  0  0  0  0  0  0  0
   -1.6022    0.6658   -0.6561 H   0  0  0  0  0  0  0  0  0  0  0  0
    0.3105   -1.7034    0.9175 H   0  0  0  0  0  0  0  0  0  0  0  0
    0.8285   -0.1656   -0.4570 H   0  0  0  0  0  0  0  0  0  0  0  0
   -0.0990   -1.3953   -0.8161 H   0  0  0  0  0  0  0  0  0  0  0  0
  1  2  1  0  0  0  0
  1  5  1  0  0  0  0
  2  6  1  0  0  0  0
  2  8  1  0  0  0  0
  3  1  1  0  0  0  0
  4  1  1  0  0  0  0
  6 10  1  0  0  0  0
  7  2  1  0  0  0  0
  9  6  1  0  0  0  0
  9 12  1  0  0  0  0
 11  6  1  0  0  0  0
 13  9  1  0  0  0  0
 14  9  1  0  0  0  0
M  END
$$$$
