14
butane_opt
C  -3.984718   0.296332   0.146317
C  -2.725361  -0.649995  -0.217861
H  -4.876756  -0.204859   1.066597
H  -4.597170   1.305904  -0.780904
H  -3.467733   0.589713   0.877024
C  -1.368432   0.142059  -0.077529
H  -2.787891  -1.482596  -1.207467
H  -2.667250  -1.183285   0.560113
C  -0.075753  -0.654550   0.160849
H  -1.780973   0.692606   0.609378
H  -1.315996   0.811879  -0.846463
H  -0.330773  -1.413627   1.219269
H   0.825579  -0.100708   0.378008
H  -0.178831  -1.069413  -0.585786
