butane_opt
 OpenBabel08242015403D

 14 12  0  0  0  0  0  0  0  0999 V2000
   -4.0085    0.3210    0.1855 C   0  0  0  0  0  0  0  0  0  0  0  0
   -2.7323   -0.7069   -0.1158 C   0  0  0  0  0  0  0  0  0  0  0  0
   -4.8466   -0.1353   -0.0728 H   0  0  0  0  0  0  0  0  0  0  0  0
   -4.2928    0.5129   -0.4062 H   0  0  0  0  0  0  0  0  0  0  0  0
   -3.8792    1.4425    1.4335 H   0  0  0  0  0  0  0  0  0  0  0  0
   -1.3200    0.1719   -0.2532 C   0  0  0  0  0  0  0  0  0  0  0  0
   -3.0438   -1.3279   -0.9939 H   0  0  0  0  0  0  0  0  0  0  0  0
   -2.5632   -1.3597    0.8907 H   0  0  0  0  0  0  0  0  0  0  0  0
   -0.1438   -0.6666    0.1865 C   0  0  0  0  0  0  0  0  0  0  0  0
   -1.4869    0.6768    0.5569 H   0  0  0  0  0  0  0  0  0  0  0  0
   -1.2945    1.0943   -1.2994 H   0  0  0  0  0  0  0  0  0  0  0  0
   -0.5863   -1.3975    1.1959 H   0  0  0  0  0  0  0  0  0  0  0  0
    1.0323    0.1158    0.7309 H   0  0  0  0  0  0  0  0  0  0  0  0
    0.3409   -1.5021   -0.6183 H   0  0  0  0  0  0  0  0  0  0  0  0
  2  1  1  0  0  0  0
  2  8  1  0  0  0  0
  3  1  1  0  0  0  0
  4  1  1  0  0  0  0
  6  2  1  0  0  0  0
  6  9  1  0  0  0  0
  6 10  1  0  0  0  0
  7  2  1  0  0  0  0
  9 13  1  0  0  0  0
  9 12  1  0  0  0  0
 11  6  1  0  0  0  0
 14  9  1  0  0  0  0
M  RAD  2   1   2   5   2
M  END
$$$$
