butane_opt
 OpenBabel08242015403D

 14 11  0  0  0  0  0  0  0  0999 V2000
   -3.9480    0.2210    0.2063 C   0  0  0  0  0  0  0  0  0  0  0  0
   -2.7265   -0.5737   -0.0839 C   0  0  0  0  0  0  0  0  0  0  0  0
   -4.8465   -0.5125    0.0250 H   0  0  0  0  0  0  0  0  0  0  0  0
   -3.8944    0.5442   -0.6215 H   0  0  0  0  0  0  0  0  0  0  0  0
   -3.9173    1.0065    1.1361 H   0  0  0  0  0  0  0  0  0  0  0  0
   -1.4034    0.2969   -0.2038 C   0  0  0  0  0  0  0  0  0  0  0  0
   -2.8262   -1.2178   -0.8903 H   0  0  0  0  0  0  0  0  0  0  0  0
   -2.8815   -1.1465    0.6608 H   0  0  0  0  0  0  0  0  0  0  0  0
   -0.1192   -0.7670    0.2148 C   0  0  0  0  0  0  0  0  0  0  0  0
   -1.8914    0.5394    0.3281 H   0  0  0  0  0  0  0  0  0  0  0  0
   -1.3703    1.2841   -1.3234 H   0  0  0  0  0  0  0  0  0  0  0  0
   -0.2844   -1.0792    0.8430 H   0  0  0  0  0  0  0  0  0  0  0  0
    0.8684   -0.0411    0.5724 H   0  0  0  0  0  0  0  0  0  0  0  0
    0.3643   -1.9735   -0.9111 H   0  0  0  0  0  0  0  0  0  0  0  0
  1  5  1  0  0  0  0
  2  1  1  0  0  0  0
  2  8  1  0  0  0  0
  3  1  1  0  0  0  0
  4  1  1  0  0  0  0
  6  9  1  0  0  0  0
  6 10  1  0  0  0  0
  7  2  1  0  0  0  0
  9 13  1  0  0  0  0
  9 12  1  0  0  0  0
 11  6  1  0  0  0  0
M  RAD  4   2   2   6   2   9   2  14   2
M  END
$$$$
