14
butane_opt
C  -3.959047   0.274951   0.031149
C  -2.701905  -0.636171   0.010817
H  -4.829866  -0.298565  -0.001673
H  -3.999923   0.866868  -0.855144
H  -3.998753   0.978790   0.916549
C  -1.392349   0.182660   0.015873
H  -2.708128  -1.309417  -0.826335
H  -2.674694  -1.241899   0.891967
C  -0.166970  -0.685831   0.044175
H  -1.352241   0.855780   0.874858
H  -1.356942   0.804477  -0.898269
H  -0.033620  -1.429568   1.011517
H   0.762049  -0.084575  -0.110830
H  -0.197489  -1.230582  -0.769799
