14
butane_opt
C  -3.937628   0.302836   0.024739
C  -2.619680  -0.634899   0.059207
H  -4.706217  -0.143351  -0.589268
H  -3.682332   0.243949  -0.435961
H  -4.302679   1.442225   1.129328
C  -1.445532   0.080150  -0.000254
H  -2.708322  -1.188792  -0.735540
H  -2.553372  -1.224466   0.880321
C  -0.218869  -0.662759   0.043565
H  -1.527489   0.421699   0.711348
H  -1.279468   0.998756  -1.067868
H  -0.120327  -1.306251   0.949517
H   0.878576   0.343814  -0.274957
H  -0.414117  -1.056345  -0.594073
