14
butane_opt
C  -3.942583   0.280160  -0.004551
C  -2.687984  -0.637150   0.075521
H  -4.847992  -0.281705  -0.109120
H  -3.872769   0.812846  -0.870449
H  -4.009744   0.987878   0.872515
C  -1.402747   0.173497   0.023737
H  -2.676637  -1.268437  -0.764691
H  -2.685495  -1.312887   0.985423
C  -0.181045  -0.677967   0.015206
H  -1.343170   0.877299   0.905628
H  -1.457367   0.776230  -0.862147
H  -0.135480  -1.275775   0.896267
H   0.729340  -0.079071  -0.055213
H  -0.167281  -1.367438  -0.873428
