14
butane_opt
C  -3.977133   0.359476  -0.127078
C  -2.742753  -0.746846   0.229407
H  -4.680118  -0.062768  -0.301115
H  -3.898054   0.955965  -1.072128
H  -4.382522   0.880665   0.583720
C  -1.335159   0.138137   0.165826
H  -2.687348  -1.193537  -0.412578
H  -2.591311  -1.602136   1.423332
C  -0.183037  -0.658623  -0.084986
H  -1.313862   0.744368   0.898318
H  -1.242974   1.061664  -0.939491
H  -0.182857  -0.533971   0.289822
H   0.862619   0.078370   0.238215
H  -0.097312  -1.907775  -1.580978
