14
butane_opt
C  -3.923606   0.249081  -0.010849
C  -2.697999  -0.597617   0.076660
H  -4.859677  -0.380194   0.025147
H  -3.965556   0.902409  -0.929520
H  -3.938062   0.900001   0.816171
C  -1.415707   0.203112   0.023699
H  -2.704534  -1.208950  -0.739969
H  -2.736078  -1.276772   1.026127
C  -0.172585  -0.704948   0.007659
H  -1.401927   0.885564   0.887690
H  -1.363430   0.773131  -0.815430
H  -0.144185  -1.226193   0.819138
H   0.729177  -0.136254   0.098848
H  -0.107646  -1.509563  -0.937238
