butane_opt
 OpenBabel08242015403D

 14 10  0  0  0  0  0  0  0  0999 V2000
   -3.8785    0.2381    0.0909 C   0  0  0  0  0  1  0  0  0  0  0  0
   -2.6976   -0.5710   -0.0631 C   0  0  0  0  0  0  0  0  0  0  0  0
   -4.8264   -0.4058   -0.2422 H   0  0  0  0  0  0  0  0  0  0  0  0
   -3.8521    0.2056   -0.2946 H   0  0  0  0  0  0  0  0  0  0  0  0
   -4.0808    1.5107    1.3922 H   0  0  0  0  0  0  0  0  0  0  0  0
   -1.3967    0.2195   -0.1140 C   0  0  0  0  0  0  0  0  0  0  0  0
   -2.6105   -1.1993   -0.8281 H   0  0  0  0  0  0  0  0  0  0  0  0
   -2.6787   -1.3076    1.0181 H   0  0  0  0  0  0  0  0  0  0  0  0
   -0.2514   -0.6937    0.1249 C   0  0  0  0  0  0  0  0  0  0  0  0
   -1.2505    0.6400    0.5972 H   0  0  0  0  0  0  0  0  0  0  0  0
   -1.3618    1.0829   -1.2215 H   0  0  0  0  0  0  0  0  0  0  0  0
   -0.2972   -1.7323    1.1800 H   0  0  0  0  0  0  0  0  0  0  0  0
    0.6686   -0.1466    0.1109 H   0  0  0  0  0  0  0  0  0  0  0  0
   -0.0192   -1.4580   -0.6279 H   0  0  0  0  0  0  0  0  0  0  0  0
  2  8  1  0  0  0  0
  3  1  1  0  0  0  0
  4  2  1  0  0  0  0
  6  9  1  0  0  0  0
  6 10  1  0  0  0  0
  7  2  1  0  0  0  0
  9 12  1  0  0  0  0
 11  6  1  0  0  0  0
 13  9  1  0  0  0  0
 14  9  1  0  0  0  0
M  RAD  3   2   2   5   2   6   2
M  END
$$$$
