14
butane_opt
C  -3.943657   0.319062   0.042525
C  -2.699160  -0.722857   0.079760
H  -4.740568  -0.102725   0.086011
H  -4.443260   1.104201  -0.703299
H  -4.106352   1.009995   0.816309
C  -1.308286   0.134419  -0.093724
H  -2.970160  -1.497205  -0.826489
H  -2.528354  -1.092507   0.812986
C  -0.189789  -0.646519   0.068747
H  -1.361594   0.607553   0.642400
H  -1.493514   0.877072  -1.159719
H  -0.595181  -0.738480   0.711692
H   0.759152  -0.035368   0.747277
H   0.142216  -1.617261  -0.924239
