14
butane_opt
C  -3.946167   0.285452   0.158023
C  -2.657854  -0.657455  -0.056435
H  -4.867603  -0.213763   0.268801
H  -3.945516   0.926610  -0.709010
H  -3.882949   1.154699   1.146089
C  -1.400476   0.135461  -0.200164
H  -2.412794  -1.364063  -0.872053
H  -2.525483  -1.249187   0.803903
C  -0.226404  -0.649884   0.123077
H  -1.435675   0.636080   0.415018
H  -1.377655   0.784965  -1.037994
H  -0.913271  -0.986066   0.966594
H   0.865083   0.141613   0.863683
H   0.239298  -1.656515  -0.697257
