14
butane_opt
C  -3.971647   0.241923  -0.058944
C  -2.776996  -0.565922   0.185615
H  -5.106704  -0.614684  -0.072592
H  -3.784763   1.029964  -1.182852
H  -3.848830   0.571722   0.511637
C  -1.390404   0.279676   0.093487
H  -2.817607  -1.132831  -0.591486
H  -2.823270  -1.260791   1.290768
C  -0.101339  -0.752888  -0.080621
H  -1.344573   0.860139   0.886188
H  -1.558554   0.977369  -0.879377
H  -0.083367  -1.022200   0.428432
H   0.866340  -0.162413   0.652966
H   0.347811  -2.179076  -1.371534
