14
butane_opt
C  -3.991623   0.256143  -0.159496
C  -2.703017  -0.698515   0.166375
H  -4.772704  -0.065133   0.607192
H  -4.234490   1.659389  -1.455113
H  -3.842649   0.449530   0.449274
C  -1.405576   0.221549   0.175288
H  -2.649167  -1.271559  -0.574335
H  -2.618226  -1.330747   1.279039
C  -0.127267  -0.671758  -0.132580
H  -1.186598   1.072368   1.191829
H  -1.586262   0.398694  -0.356873
H  -0.356384  -0.939242   0.513316
H   0.814902  -0.023715   0.198647
H   0.129972  -1.675156  -1.142817
