butane_opt
 OpenBabel08242015403D

 14 11  0  0  0  0  0  0  0  0999 V2000
   -3.8967    0.2430   -0.1071 C   0  0  0  0  0  0  0  0  0  0  0  0
   -2.6423   -0.5878    0.1294 C   0  0  0  0  0  0  0  0  0  0  0  0
   -4.7870   -0.5597    0.5109 H   0  0  0  0  0  0  0  0  0  0  0  0
   -3.8511    1.2536   -1.3129 H   0  0  0  0  0  0  0  0  0  0  0  0
   -3.8451    0.6599    0.4414 H   0  0  0  0  0  0  0  0  0  0  0  0
   -1.4459    0.2367    0.1554 C   0  0  0  0  0  0  0  0  0  0  0  0
   -2.7389   -1.3181   -0.7567 H   0  0  0  0  0  0  0  0  0  0  0  0
   -2.9123   -1.3992    1.0969 H   0  0  0  0  0  0  0  0  0  0  0  0
   -0.2207   -0.7268   -0.0936 C   0  0  0  0  0  0  0  0  0  0  0  0
   -1.5758    1.3466    1.2383 H   0  0  0  0  0  0  0  0  0  0  0  0
   -1.5317    0.4004   -0.4988 H   0  0  0  0  0  0  0  0  0  0  0  0
    0.0892   -1.4200    0.8781 H   0  0  0  0  0  0  0  0  0  0  0  0
    0.8234    0.0193   -0.2426 H   0  0  0  0  0  0  0  0  0  0  0  0
   -0.2559   -1.3831   -0.9386 H   0  0  0  0  0  0  0  0  0  0  0  0
  1  2  1  0  0  0  0
  1  5  1  0  0  0  0
  1  3  1  0  0  0  0
  2  6  1  0  0  0  0
  2  8  1  0  0  0  0
  7  2  1  0  0  0  0
  9  6  1  0  0  0  0
  9 12  1  0  0  0  0
 11  6  1  0  0  0  0
 13  9  1  0  0  0  0
 14  9  1  0  0  0  0
M  RAD  4   1   2   4   2   6   2  10   2
M  END
$$$$
