butane_opt
 OpenBabel08242015403D

 14 13  0  0  0  0  0  0  0  0999 V2000
   -4.0476    0.3807   -0.1262 C   0  0  0  0  0  0  0  0  0  0  0  0
   -2.6917   -0.7003    0.1196 C   0  0  0  0  0  0  0  0  0  0  0  0
   -4.8723   -0.3173   -0.0087 H   0  0  0  0  0  0  0  0  0  0  0  0
   -3.8129    0.9084   -0.9926 H   0  0  0  0  0  0  0  0  0  0  0  0
   -4.1991    1.0057    0.6113 H   0  0  0  0  0  0  0  0  0  0  0  0
   -1.3346    0.0965    0.2122 C   0  0  0  0  0  0  0  0  0  0  0  0
   -2.7109   -1.2288   -0.5573 H   0  0  0  0  0  0  0  0  0  0  0  0
   -2.6934   -1.5695    1.1510 H   0  0  0  0  0  0  0  0  0  0  0  0
   -0.1297   -0.6148   -0.1074 C   0  0  0  0  0  0  0  0  0  0  0  0
   -1.1975    0.7134    1.0551 H   0  0  0  0  0  0  0  0  0  0  0  0
   -1.2298    0.6433   -0.4707 H   0  0  0  0  0  0  0  0  0  0  0  0
    0.0310   -1.2885    0.8215 H   0  0  0  0  0  0  0  0  0  0  0  0
    0.7046   -0.1233   -0.4317 H   0  0  0  0  0  0  0  0  0  0  0  0
   -0.6185   -1.1324   -0.9101 H   0  0  0  0  0  0  0  0  0  0  0  0
  1  3  1  0  0  0  0
  1  2  1  0  0  0  0
  1  5  1  0  0  0  0
  2  6  1  0  0  0  0
  2  8  1  0  0  0  0
  4  1  1  0  0  0  0
  6 10  1  0  0  0  0
  7  2  1  0  0  0  0
  9  6  1  0  0  0  0
  9 12  1  0  0  0  0
 11  6  1  0  0  0  0
 13  9  1  0  0  0  0
 14  9  1  0  0  0  0
M  END
$$$$
