butane_opt
 OpenBabel08242015403D

 14 13  0  0  0  0  0  0  0  0999 V2000
   -3.9672    0.3306   -0.0904 C   0  0  0  0  0  0  0  0  0  0  0  0
   -2.6082   -0.6777    0.2178 C   0  0  0  0  0  0  0  0  0  0  0  0
   -4.7054   -0.1114   -0.4982 H   0  0  0  0  0  0  0  0  0  0  0  0
   -3.9243    0.6053   -0.7971 H   0  0  0  0  0  0  0  0  0  0  0  0
   -4.3034    1.0899    0.7729 H   0  0  0  0  0  0  0  0  0  0  0  0
   -1.3871    0.1228    0.0854 C   0  0  0  0  0  0  0  0  0  0  0  0
   -2.6935   -1.5233   -0.6373 H   0  0  0  0  0  0  0  0  0  0  0  0
   -2.6813   -1.3438    1.1609 H   0  0  0  0  0  0  0  0  0  0  0  0
   -0.2673   -0.6359   -0.0732 C   0  0  0  0  0  0  0  0  0  0  0  0
   -1.0412    0.6962    0.9260 H   0  0  0  0  0  0  0  0  0  0  0  0
   -1.4763    0.9678   -0.9084 H   0  0  0  0  0  0  0  0  0  0  0  0
   -0.2999   -1.0254    0.7862 H   0  0  0  0  0  0  0  0  0  0  0  0
    0.8887   -0.0003   -0.0146 H   0  0  0  0  0  0  0  0  0  0  0  0
   -0.0780   -1.4687   -1.0424 H   0  0  0  0  0  0  0  0  0  0  0  0
  1  2  1  0  0  0  0
  1  5  1  0  0  0  0
  2  8  1  0  0  0  0
  3  1  1  0  0  0  0
  4  1  1  0  0  0  0
  6  2  1  0  0  0  0
  6 10  1  0  0  0  0
  7  2  1  0  0  0  0
  9 13  1  0  0  0  0
  9  6  1  0  0  0  0
  9 12  1  0  0  0  0
 11  6  1  0  0  0  0
 14  9  1  0  0  0  0
M  END
$$$$
