14
butane_opt
C  -4.059722   0.320437  -0.015052
C  -2.678734  -0.690455   0.128687
H  -5.033939  -0.173366  -0.074406
H  -4.006282   1.063433  -0.973842
H  -4.240595   1.027720   0.907063
C  -1.340744   0.150633   0.009192
H  -2.521242  -1.644421  -0.846289
H  -2.610823  -1.371803   1.042488
C  -0.161964  -0.644935   0.002806
H  -1.061623   0.684025   0.745221
H  -1.458291   0.834650  -0.970572
H  -0.126521  -1.001751   0.801008
H   0.960926   0.115779   0.362205
H  -0.060054  -1.600350  -1.055015
