butane_opt
 OpenBabel08242015403D

 14  7  0  0  0  0  0  0  0  0999 V2000
   -3.9292    0.2473    0.1600 C   0  0  0  0  0 15  0  0  0  0  0  0
   -2.7907   -0.5903   -0.0246 C   0  0  0  0  0  0  0  0  0  0  0  0
   -4.9039   -0.5112   -0.7810 H   0  0  0  0  0  0  0  0  0  0  0  0
   -3.6356    0.0030   -0.1962 H   0  0  0  0  0  0  0  0  0  0  0  0
   -4.0745    1.5409    1.5040 H   0  0  0  0  0  0  0  0  0  0  0  0
   -1.3924    0.2670   -0.1430 C   0  0  0  0  0  1  0  0  0  0  0  0
   -2.7916   -1.2767   -0.8876 H   0  0  0  0  0  0  0  0  0  0  0  0
   -2.9462   -0.8766    0.6710 H   0  0  0  0  0  0  0  0  0  0  0  0
   -0.1053   -0.7924    0.1411 C   0  0  0  0  0  0  0  0  0  0  0  0
   -1.6422    0.5576    0.3228 H   0  0  0  0  0  0  0  0  0  0  0  0
   -1.4108    1.2898   -1.4806 H   0  0  0  0  0  0  0  0  0  0  0  0
    0.0266   -1.6602    1.2503 H   0  0  0  0  0  0  0  0  0  0  0  0
    0.8738   -0.1430    0.1214 H   0  0  0  0  0  0  0  0  0  0  0  0
    0.0753   -1.0088   -0.5422 H   0  0  0  0  0  0  0  0  0  0  0  0
  2  8  1  0  0  0  0
  4  2  1  0  0  0  0
  6  9  1  0  0  0  0
  7  2  1  0  0  0  0
  9 12  1  0  0  0  0
 13  9  1  0  0  0  0
 14  9  1  0  0  0  0
M  RAD  5   2   2   3   2   5   2  10   2  11   2
M  END
$$$$
