butane_opt
 OpenBabel08242015403D

 14 12  0  0  0  0  0  0  0  0999 V2000
   -3.9462    0.2855    0.1580 C   0  0  0  0  0  0  0  0  0  0  0  0
   -2.6579   -0.6575   -0.0564 C   0  0  0  0  0  0  0  0  0  0  0  0
   -4.8676   -0.2138    0.2688 H   0  0  0  0  0  0  0  0  0  0  0  0
   -3.9455    0.9266   -0.7090 H   0  0  0  0  0  0  0  0  0  0  0  0
   -3.8829    1.1547    1.1461 H   0  0  0  0  0  0  0  0  0  0  0  0
   -1.4005    0.1355   -0.2002 C   0  0  0  0  0  0  0  0  0  0  0  0
   -2.4128   -1.3641   -0.8721 H   0  0  0  0  0  0  0  0  0  0  0  0
   -2.5255   -1.2492    0.8039 H   0  0  0  0  0  0  0  0  0  0  0  0
   -0.2264   -0.6499    0.1231 C   0  0  0  0  0  0  0  0  0  0  0  0
   -1.4357    0.6361    0.4150 H   0  0  0  0  0  0  0  0  0  0  0  0
   -1.3777    0.7850   -1.0380 H   0  0  0  0  0  0  0  0  0  0  0  0
   -0.9133   -0.9861    0.9666 H   0  0  0  0  0  0  0  0  0  0  0  0
    0.8651    0.1416    0.8637 H   0  0  0  0  0  0  0  0  0  0  0  0
    0.2393   -1.6565   -0.6973 H   0  0  0  0  0  0  0  0  0  0  0  0
  1  3  1  0  0  0  0
  1  5  1  0  0  0  0
  2  1  1  0  0  0  0
  2  8  1  0  0  0  0
  4  1  1  0  0  0  0
  6  2  1  0  0  0  0
  6  9  1  0  0  0  0
  6 10  1  0  0  0  0
  7  2  1  0  0  0  0
  9 12  1  0  0  0  0
 11  6  1  0  0  0  0
 14  9  1  0  0  0  0
M  RAD  2   9   2  13   2
M  END
$$$$
