14
butane_opt
C  -3.895469   0.202578   0.178388
C  -2.764623  -0.521758  -0.052997
H  -4.793626  -0.499531  -0.109567
H  -3.912774   0.353896  -0.401275
H  -3.703617   1.265485   1.268087
C  -1.473026   0.191231  -0.241499
H  -2.924508  -1.383016  -1.108152
H  -2.399404  -0.860703   0.726298
C  -0.129993  -0.754975   0.207415
H  -1.587630   0.658063   0.469548
H  -1.423901   1.311637  -1.479879
H  -0.443570  -1.143200   0.985860
H   0.876349  -0.110519   0.507585
H   0.447123  -1.499880  -0.513622
