14
butane_opt
C  -3.878476   0.238128   0.090851
C  -2.697636  -0.571007  -0.063075
H  -4.826417  -0.405776  -0.242155
H  -3.852066   0.205621  -0.294638
H  -4.080797   1.510670   1.392241
C  -1.396707   0.219499  -0.113967
H  -2.610535  -1.199253  -0.828144
H  -2.678750  -1.307563   1.018057
C  -0.251426  -0.693695   0.124872
H  -1.250485   0.639961   0.597182
H  -1.361762   1.082869  -1.221488
H  -0.297152  -1.732298   1.179960
H   0.668568  -0.146586   0.110905
H  -0.019183  -1.457955  -0.627894
