14
butane_opt
C  -3.951691   0.189773   0.158215
C  -2.733981  -0.544676  -0.109028
H  -4.961056  -0.457267  -0.205682
H  -3.728005   0.418681  -0.527971
H  -4.228682   1.281841   1.249956
C  -1.432876   0.289287  -0.089852
H  -3.145353  -1.533120  -1.160087
H  -2.489665  -0.973552   0.461103
C  -0.108562  -0.787591   0.162228
H  -1.367774   0.873573   0.766705
H  -1.130557   1.110589  -1.105579
H   0.303186  -2.071807   1.401429
H   0.559581  -0.272607  -0.577105
H  -0.065006  -0.639035  -0.210150
