14
butane_opt
C  -3.972569   0.286237  -0.083821
C  -2.683171  -0.712840   0.110200
H  -4.704919  -0.200909   0.510582
H  -4.250767   1.599397  -1.288142
H  -4.010872   0.636179   0.476961
C  -1.384603   0.154923   0.147856
H  -2.655707  -1.240168  -0.607159
H  -2.834484  -1.419459   0.981694
C  -0.158965  -0.647235  -0.114770
H  -1.523699   1.045930   1.176269
H  -1.473343   0.516242  -0.545169
H  -0.026691  -1.081179   0.663111
H   0.697616   0.019326   0.312710
H   0.098989  -1.277764  -1.010899
