butane_opt
 OpenBabel08242015403D

 14  9  0  0  0  0  0  0  0  0999 V2000
   -3.8947    0.3220   -0.1033 C   0  0  0  0  0  0  0  0  0  0  0  0
   -2.6079   -0.7071    0.2360 C   0  0  0  0  0  0  0  0  0  0  0  0
   -4.5779   -0.0332    0.2644 H   0  0  0  0  0  0  0  0  0  0  0  0
   -3.8742    1.3014   -1.3565 H   0  0  0  0  0  0  0  0  0  0  0  0
   -4.2805    0.4615    0.3206 H   0  0  0  0  0  0  0  0  0  0  0  0
   -1.4433    0.0944    0.0888 C   0  0  0  0  0  0  0  0  0  0  0  0
   -2.7866   -1.1822   -0.5539 H   0  0  0  0  0  0  0  0  0  0  0  0
   -2.6700   -1.2812    1.1687 H   0  0  0  0  0  0  0  0  0  0  0  0
   -0.2058   -0.5891   -0.0743 C   0  0  0  0  0  1  0  0  0  0  0  0
   -1.2542    0.7469    1.0166 H   0  0  0  0  0  0  0  0  0  0  0  0
   -1.6258    0.6274   -0.6817 H   0  0  0  0  0  0  0  0  0  0  0  0
   -0.4712   -0.5173    0.2649 H   0  0  0  0  0  0  0  0  0  0  0  0
    0.6399    0.0323    0.6657 H   0  0  0  0  0  0  0  0  0  0  0  0
   -0.3313   -2.0612   -1.5348 H   0  0  0  0  0  0  0  0  0  0  0  0
  1  2  1  0  0  0  0
  1  3  1  0  0  0  0
  2  8  1  0  0  0  0
  6  2  1  0  0  0  0
  6 12  1  0  0  0  0
  6 10  1  0  0  0  0
  7  2  1  0  0  0  0
  9 13  1  0  0  0  0
 11  6  1  0  0  0  0
M  RAD  4   1   3   4   2   5   2  14   2
M  END
$$$$
