butane_opt
 OpenBabel08242015403D

 14 13  0  0  0  0  0  0  0  0999 V2000
   -3.9571    0.3074   -0.0676 C   0  0  0  0  0  0  0  0  0  0  0  0
   -2.7337   -0.6811    0.0933 C   0  0  0  0  0  0  0  0  0  0  0  0
   -4.6994   -0.1595    0.2569 H   0  0  0  0  0  0  0  0  0  0  0  0
   -4.4530    0.9440   -1.0628 H   0  0  0  0  0  0  0  0  0  0  0  0
   -4.1326    0.9212    0.7773 H   0  0  0  0  0  0  0  0  0  0  0  0
   -1.3187    0.1749    0.1387 C   0  0  0  0  0  0  0  0  0  0  0  0
   -2.6221   -1.5563   -0.7915 H   0  0  0  0  0  0  0  0  0  0  0  0
   -2.9649   -1.1202    0.7870 H   0  0  0  0  0  0  0  0  0  0  0  0
   -0.1479   -0.6718   -0.0175 C   0  0  0  0  0  0  0  0  0  0  0  0
   -1.4615    0.7408    0.8485 H   0  0  0  0  0  0  0  0  0  0  0  0
   -1.3594    0.7785   -0.8176 H   0  0  0  0  0  0  0  0  0  0  0  0
    0.0916   -1.2445    0.8683 H   0  0  0  0  0  0  0  0  0  0  0  0
    0.7191   -0.1682   -0.4232 H   0  0  0  0  0  0  0  0  0  0  0  0
   -0.2519   -1.1108   -0.7562 H   0  0  0  0  0  0  0  0  0  0  0  0
  1  2  1  0  0  0  0
  1  3  1  0  0  0  0
  1  5  1  0  0  0  0
  2  6  1  0  0  0  0
  2  8  1  0  0  0  0
  4  1  1  0  0  0  0
  6 10  1  0  0  0  0
  7  2  1  0  0  0  0
  9  6  1  0  0  0  0
  9 12  1  0  0  0  0
 11  6  1  0  0  0  0
 13  9  1  0  0  0  0
 14  9  1  0  0  0  0
M  END
$$$$
