butane_opt
 OpenBabel08242015403D

 14  9  0  0  0  0  0  0  0  0999 V2000
   -3.8864    0.1535    0.1544 C   0  0  0  0  0  0  0  0  0  0  0  0
   -2.6892   -0.5468   -0.0403 C   0  0  0  0  0  0  0  0  0  0  0  0
   -4.7807   -0.3945   -0.8320 H   0  0  0  0  0  0  0  0  0  0  0  0
   -3.4475    0.3505   -0.3033 H   0  0  0  0  0  0  0  0  0  0  0  0
   -4.1279    1.5709    1.5024 H   0  0  0  0  0  0  0  0  0  0  0  0
   -1.4914    0.3246   -0.1327 C   0  0  0  0  0  0  0  0  0  0  0  0
   -2.8583   -1.2904   -0.9427 H   0  0  0  0  0  0  0  0  0  0  0  0
   -2.7149   -1.2310    0.7300 H   0  0  0  0  0  0  0  0  0  0  0  0
   -0.1607   -0.7792    0.1691 C   0  0  0  0  0  0  0  0  0  0  0  0
   -1.5535    0.5545    0.3647 H   0  0  0  0  0  0  0  0  0  0  0  0
   -1.4301    1.1268   -1.1409 H   0  0  0  0  0  0  0  0  0  0  0  0
   -0.0416   -1.6024    1.2072 H   0  0  0  0  0  0  0  0  0  0  0  0
    0.7284   -0.1830   -0.3410 H   0  0  0  0  0  0  0  0  0  0  0  0
   -0.0448   -1.2069   -0.5380 H   0  0  0  0  0  0  0  0  0  0  0  0
  2  8  1  0  0  0  0
  3  1  1  0  0  0  0
  4  1  1  0  0  0  0
  6  9  1  0  0  0  0
  7  2  1  0  0  0  0
  9 12  1  0  0  0  0
 11  6  1  0  0  0  0
 13  9  1  0  0  0  0
 14  9  1  0  0  0  0
M  RAD  5   1   3   2   3   5   2   6   3  10   2
M  END
$$$$
