butane_opt
 OpenBabel08242015403D

 14 13  0  0  0  0  0  0  0  0999 V2000
   -3.9990    0.2712   -0.1038 C   0  0  0  0  0  0  0  0  0  0  0  0
   -2.7169   -0.6744    0.2638 C   0  0  0  0  0  0  0  0  0  0  0  0
   -4.8894   -0.4461   -0.7731 H   0  0  0  0  0  0  0  0  0  0  0  0
   -3.6957    0.7911   -1.1289 H   0  0  0  0  0  0  0  0  0  0  0  0
   -4.3805    1.2141    0.8549 H   0  0  0  0  0  0  0  0  0  0  0  0
   -1.4379    0.2444    0.1358 C   0  0  0  0  0  0  0  0  0  0  0  0
   -2.6399   -1.3366   -0.6413 H   0  0  0  0  0  0  0  0  0  0  0  0
   -2.7527   -1.1539    1.0025 H   0  0  0  0  0  0  0  0  0  0  0  0
   -0.1051   -0.7103   -0.0997 C   0  0  0  0  0  0  0  0  0  0  0  0
   -0.9201    0.7635    1.0530 H   0  0  0  0  0  0  0  0  0  0  0  0
   -1.6257    0.7754   -0.6880 H   0  0  0  0  0  0  0  0  0  0  0  0
    0.3568   -1.3275    0.7668 H   0  0  0  0  0  0  0  0  0  0  0  0
    0.8327   -0.1508   -0.3781 H   0  0  0  0  0  0  0  0  0  0  0  0
   -0.2059   -1.1553   -0.9314 H   0  0  0  0  0  0  0  0  0  0  0  0
  1  2  1  0  0  0  0
  1  5  1  0  0  0  0
  2  8  1  0  0  0  0
  3  1  1  0  0  0  0
  4  1  1  0  0  0  0
  6  2  1  0  0  0  0
  6 10  1  0  0  0  0
  7  2  1  0  0  0  0
  9  6  1  0  0  0  0
  9 12  1  0  0  0  0
 11  6  1  0  0  0  0
 13  9  1  0  0  0  0
 14  9  1  0  0  0  0
M  END
$$$$
