14
butane_opt
C  -3.901996   0.237754  -0.071245
C  -2.773777  -0.601345   0.132158
H  -4.822690  -0.414252   0.297370
H  -4.018621   1.165907  -1.315564
H  -3.834079   0.517178   0.648396
C  -1.444112   0.292443   0.094389
H  -2.668690  -1.290606  -0.755987
H  -2.812099  -1.326616   0.987098
C  -0.106575  -0.740142  -0.074375
H  -1.424959   1.206835   1.123406
H  -1.289979   0.652864  -0.516948
H   0.097477  -1.420178   0.895911
H   0.729698  -0.216501   0.077945
H  -0.240417  -1.604905  -1.013978
