butane_opt
 OpenBabel08242015403D

 14 12  0  0  0  0  0  0  0  0999 V2000
   -3.8876    0.2986    0.2117 C   0  0  0  0  0  0  0  0  0  0  0  0
   -2.6490   -0.6795   -0.2610 C   0  0  0  0  0  0  0  0  0  0  0  0
   -4.6829   -0.1704    0.7086 H   0  0  0  0  0  0  0  0  0  0  0  0
   -4.3090    1.2055   -0.7175 H   0  0  0  0  0  0  0  0  0  0  0  0
   -3.6469    0.7154    0.9626 H   0  0  0  0  0  0  0  0  0  0  0  0
   -1.4802    0.1575   -0.1565 C   0  0  0  0  0  0  0  0  0  0  0  0
   -2.9428   -1.5019   -1.1685 H   0  0  0  0  0  0  0  0  0  0  0  0
   -2.4002   -1.2802    0.6875 H   0  0  0  0  0  0  0  0  0  0  0  0
   -0.1854   -0.6483    0.2006 C   0  0  0  0  0  0  0  0  0  0  0  0
   -1.4702    0.9348    0.8826 H   0  0  0  0  0  0  0  0  0  0  0  0
   -1.2697    0.6877   -1.0572 H   0  0  0  0  0  0  0  0  0  0  0  0
   -0.4301   -1.6255    1.5293 H   0  0  0  0  0  0  0  0  0  0  0  0
    0.8349    0.1010    0.2931 H   0  0  0  0  0  0  0  0  0  0  0  0
   -0.3174   -1.0420   -0.6156 H   0  0  0  0  0  0  0  0  0  0  0  0
  1  3  1  0  0  0  0
  1  5  1  0  0  0  0
  2  6  1  0  0  0  0
  2  1  1  0  0  0  0
  2  8  1  0  0  0  0
  4  1  1  0  0  0  0
  6  9  1  0  0  0  0
  6 10  1  0  0  0  0
  7  2  1  0  0  0  0
  9 13  1  0  0  0  0
 11  6  1  0  0  0  0
 14  9  1  0  0  0  0
M  RAD  2   9   2  12   2
M  END
$$$$
