14
butane_opt
C  -4.034762   0.318842  -0.054801
C  -2.642915  -0.756418   0.039486
H  -4.743305  -0.052704   0.708346
H  -4.399466   1.394079  -1.281820
H  -3.930511   0.512665   0.374072
C  -1.388901   0.205788   0.103521
H  -2.632104  -1.276286  -0.598617
H  -2.668907  -1.389623   1.020944
C  -0.181565  -0.639903  -0.037050
H  -1.391458   1.147866   1.264356
H  -1.111954   0.357542  -0.577013
H   0.087854  -1.254318   0.744112
H   0.910390   0.112669   0.028601
H  -0.231777  -1.484141  -0.929161
