butane_opt
 OpenBabel08242015403D

 14 13  0  0  0  0  0  0  0  0999 V2000
   -3.9595    0.2914   -0.1481 C   0  0  0  0  0  0  0  0  0  0  0  0
   -2.7037   -0.7036    0.2512 C   0  0  0  0  0  0  0  0  0  0  0  0
   -4.7555   -0.1127   -0.5027 H   0  0  0  0  0  0  0  0  0  0  0  0
   -3.9684    0.8135   -0.9301 H   0  0  0  0  0  0  0  0  0  0  0  0
   -4.2729    1.3116    0.8035 H   0  0  0  0  0  0  0  0  0  0  0  0
   -1.3817    0.1650    0.1422 C   0  0  0  0  0  0  0  0  0  0  0  0
   -2.6268   -1.3813   -0.5749 H   0  0  0  0  0  0  0  0  0  0  0  0
   -2.8611   -1.4871    1.3899 H   0  0  0  0  0  0  0  0  0  0  0  0
   -0.1263   -0.6103   -0.1144 C   0  0  0  0  0  0  0  0  0  0  0  0
   -1.4504    0.7801    0.9655 H   0  0  0  0  0  0  0  0  0  0  0  0
   -1.5358    0.7764   -0.7958 H   0  0  0  0  0  0  0  0  0  0  0  0
    0.0954   -1.1618    0.7976 H   0  0  0  0  0  0  0  0  0  0  0  0
    0.7256   -0.0876   -0.0933 H   0  0  0  0  0  0  0  0  0  0  0  0
   -0.3551   -1.6223   -1.1998 H   0  0  0  0  0  0  0  0  0  0  0  0
  1  2  1  0  0  0  0
  1  5  1  0  0  0  0
  2  8  1  0  0  0  0
  3  1  1  0  0  0  0
  4  1  1  0  0  0  0
  6  2  1  0  0  0  0
  6 10  1  0  0  0  0
  7  2  1  0  0  0  0
  9 13  1  0  0  0  0
  9  6  1  0  0  0  0
  9 12  1  0  0  0  0
 11  6  1  0  0  0  0
 14  9  1  0  0  0  0
M  END
$$$$
