14
butane_opt
C  -3.915218   0.272929   0.090978
C  -2.669596  -0.643173  -0.066917
H  -4.633814  -0.154667   0.186659
H  -3.852667   0.797129  -0.780900
H  -3.882897   1.160192   0.931467
C  -1.414978   0.155277   0.004121
H  -2.640883  -1.838392  -1.396869
H  -2.594699  -1.066725   0.629340
C  -0.216187  -0.665153   0.106184
H  -1.312674   0.752165   0.798538
H  -1.724618   0.961051  -0.855466
H  -0.027117  -1.875480   1.435960
H   0.699467   0.014817  -0.620712
H  -0.491324  -0.616114  -0.367695
