14
butane_opt
C  -4.022884   0.329809  -0.089424
C  -2.704842  -0.651309   0.185561
H  -4.897933  -0.205520  -0.156358
H  -3.979662   1.199607  -1.139569
H  -4.159819   0.721389   0.651630
C  -1.373845   0.094363   0.089834
H  -2.710992  -1.048349  -0.493504
H  -2.687193  -1.649939   1.410083
C  -0.118967  -0.622677  -0.098633
H  -1.201422   0.847609   1.113000
H  -1.006448   0.631790  -0.694298
H  -0.380638  -0.891066   0.541077
H   0.775722   0.097214   0.475483
H  -0.142824  -1.985512  -1.444404
