butane_opt
 OpenBabel08242015403D

 14 11  0  0  0  0  0  0  0  0999 V2000
   -3.9916    0.2561   -0.1595 C   0  0  0  0  0  0  0  0  0  0  0  0
   -2.7030   -0.6985    0.1664 C   0  0  0  0  0  0  0  0  0  0  0  0
   -4.7727   -0.0651    0.6072 H   0  0  0  0  0  0  0  0  0  0  0  0
   -4.2345    1.6594   -1.4551 H   0  0  0  0  0  0  0  0  0  0  0  0
   -3.8426    0.4495    0.4493 H   0  0  0  0  0  0  0  0  0  0  0  0
   -1.4056    0.2215    0.1753 C   0  0  0  0  0  0  0  0  0  0  0  0
   -2.6492   -1.2716   -0.5743 H   0  0  0  0  0  0  0  0  0  0  0  0
   -2.6182   -1.3307    1.2790 H   0  0  0  0  0  0  0  0  0  0  0  0
   -0.1273   -0.6718   -0.1326 C   0  0  0  0  0  0  0  0  0  0  0  0
   -1.1866    1.0724    1.1918 H   0  0  0  0  0  0  0  0  0  0  0  0
   -1.5863    0.3987   -0.3569 H   0  0  0  0  0  0  0  0  0  0  0  0
   -0.3564   -0.9392    0.5133 H   0  0  0  0  0  0  0  0  0  0  0  0
    0.8149   -0.0237    0.1986 H   0  0  0  0  0  0  0  0  0  0  0  0
    0.1300   -1.6752   -1.1428 H   0  0  0  0  0  0  0  0  0  0  0  0
  1  2  1  0  0  0  0
  1  5  1  0  0  0  0
  1  3  1  0  0  0  0
  2  6  1  0  0  0  0
  2  8  1  0  0  0  0
  6 10  1  0  0  0  0
  7  2  1  0  0  0  0
  9  6  1  0  0  0  0
  9 13  1  0  0  0  0
  9 12  1  0  0  0  0
 14  9  1  0  0  0  0
M  RAD  4   1   2   4   2   6   2  11   2
M  END
$$$$
