14
butane_opt
C  -3.851689   0.222918  -0.025205
C  -2.734705  -0.569333   0.136583
H  -4.900230  -0.470297  -0.775336
H  -3.492688   0.181596  -0.527502
H  -4.016430   1.463333   1.027141
C  -1.480442   0.259410  -0.010325
H  -2.479070  -0.921561  -0.429294
H  -2.912964  -1.396139   1.221803
C  -0.174987  -0.722997  -0.000119
H  -1.332500   0.959830   0.721253
H  -1.265388   0.766928  -0.776602
H   0.097823  -1.576907   0.998322
H   0.589872  -0.297775  -0.133837
H  -0.382424  -1.540268  -1.017095
