butane_opt
 OpenBabel08242015403D

 14  9  0  0  0  0  0  0  0  0999 V2000
   -3.9590    0.2326   -0.1005 C   0  0  0  0  0  0  0  0  0  0  0  0
   -2.6826   -0.6261    0.1750 C   0  0  0  0  0  0  0  0  0  0  0  0
   -4.8568   -0.4484   -0.0847 H   0  0  0  0  0  0  0  0  0  0  0  0
   -3.6405    1.1063   -1.2011 H   0  0  0  0  0  0  0  0  0  0  0  0
   -3.9361    0.7925    0.7736 H   0  0  0  0  0  0  0  0  0  0  0  0
   -1.3757    0.2662    0.0640 C   0  0  0  0  0  0  0  0  0  0  0  0
   -2.6891   -0.7468   -0.1865 H   0  0  0  0  0  0  0  0  0  0  0  0
   -2.7063   -1.6451    1.3907 H   0  0  0  0  0  0  0  0  0  0  0  0
   -0.2065   -0.7370   -0.0890 C   0  0  0  0  0  0  0  0  0  0  0  0
   -1.3776    0.9926    0.9750 H   0  0  0  0  0  0  0  0  0  0  0  0
   -1.5185    0.7803   -0.5722 H   0  0  0  0  0  0  0  0  0  0  0  0
   -0.1449   -0.6147    0.3580 H   0  0  0  0  0  0  0  0  0  0  0  0
    0.6010   -0.3268    0.7353 H   0  0  0  0  0  0  0  0  0  0  0  0
   -0.0454   -2.0269   -1.4363 H   0  0  0  0  0  0  0  0  0  0  0  0
  1  3  1  0  0  0  0
  1  2  1  0  0  0  0
  1  5  1  0  0  0  0
  4  1  1  0  0  0  0
  6  2  1  0  0  0  0
  6 10  1  0  0  0  0
  9  6  1  0  0  0  0
  9 13  1  0  0  0  0
 11  6  1  0  0  0  0
M  RAD  6   2   3   7   2   8   2   9   3  12   2  14   2
M  END
$$$$
