butane_opt
 OpenBabel08242015403D

 14 10  0  0  0  0  0  0  0  0999 V2000
   -3.9995    0.2942   -0.1045 C   0  0  0  0  0  0  0  0  0  0  0  0
   -2.7233   -0.6767    0.2610 C   0  0  0  0  0  0  0  0  0  0  0  0
   -4.9180   -0.4044    0.0781 H   0  0  0  0  0  0  0  0  0  0  0  0
   -3.9323    1.3538   -1.1686 H   0  0  0  0  0  0  0  0  0  0  0  0
   -4.3576    0.7066    0.5325 H   0  0  0  0  0  0  0  0  0  0  0  0
   -1.3288    0.1977    0.0330 C   0  0  0  0  0  0  0  0  0  0  0  0
   -2.8354   -1.2359   -0.4548 H   0  0  0  0  0  0  0  0  0  0  0  0
   -2.7022   -1.2951    1.2009 H   0  0  0  0  0  0  0  0  0  0  0  0
   -0.1143   -0.7038   -0.0811 C   0  0  0  0  0  1  0  0  0  0  0  0
   -1.4747    0.8700    1.0201 H   0  0  0  0  0  0  0  0  0  0  0  0
   -1.3910    0.6828   -0.7380 H   0  0  0  0  0  0  0  0  0  0  0  0
   -0.4273   -0.4302    0.2633 H   0  0  0  0  0  0  0  0  0  0  0  0
    0.7367   -0.0224    0.6932 H   0  0  0  0  0  0  0  0  0  0  0  0
    0.2776   -2.0564   -1.4424 H   0  0  0  0  0  0  0  0  0  0  0  0
  1  3  1  0  0  0  0
  1  2  1  0  0  0  0
  1  5  1  0  0  0  0
  2  8  1  0  0  0  0
  4  1  1  0  0  0  0
  6 12  1  0  0  0  0
  6 10  1  0  0  0  0
  7  2  1  0  0  0  0
  9 13  1  0  0  0  0
 11  6  1  0  0  0  0
M  RAD  3   2   2   6   2  14   2
M  END
$$$$
