butane_opt
 OpenBabel08242015403D

 14 12  0  0  0  0  0  0  0  0999 V2000
   -3.9140    0.2142    0.2137 C   0  0  0  0  0  0  0  0  0  0  0  0
   -2.7189   -0.4823   -0.1119 C   0  0  0  0  0  0  0  0  0  0  0  0
   -5.0362   -0.6550    0.1903 H   0  0  0  0  0  0  0  0  0  0  0  0
   -4.1035    0.8150   -0.7366 H   0  0  0  0  0  0  0  0  0  0  0  0
   -3.4704    0.9204    1.0900 H   0  0  0  0  0  0  0  0  0  0  0  0
   -1.3753    0.2016   -0.1958 C   0  0  0  0  0  0  0  0  0  0  0  0
   -2.7082   -1.4167   -1.0766 H   0  0  0  0  0  0  0  0  0  0  0  0
   -2.7651   -1.0776    0.7895 H   0  0  0  0  0  0  0  0  0  0  0  0
   -0.1632   -0.7447    0.1869 C   0  0  0  0  0  0  0  0  0  0  0  0
   -1.6284    0.5285    0.5253 H   0  0  0  0  0  0  0  0  0  0  0  0
   -1.2823    1.1896   -1.4324 H   0  0  0  0  0  0  0  0  0  0  0  0
   -0.6470   -1.0831    0.9017 H   0  0  0  0  0  0  0  0  0  0  0  0
    0.5047   -0.2829    0.7995 H   0  0  0  0  0  0  0  0  0  0  0  0
    0.2319   -1.7200   -0.7619 H   0  0  0  0  0  0  0  0  0  0  0  0
  1  5  1  0  0  0  0
  2  1  1  0  0  0  0
  2  8  1  0  0  0  0
  3  1  1  0  0  0  0
  4  1  1  0  0  0  0
  6  2  1  0  0  0  0
  6  9  1  0  0  0  0
  6 10  1  0  0  0  0
  7  2  1  0  0  0  0
  9 13  1  0  0  0  0
  9 12  1  0  0  0  0
 14  9  1  0  0  0  0
M  RAD  2   6   2  11   2
M  END
$$$$
