14
butane_opt
C  -3.919799   0.286962   0.075565
C  -2.673214  -0.673002   0.004421
H  -4.684169  -0.225192  -0.632743
H  -3.708963   0.399776  -0.433991
H  -4.111471   1.715475   1.333042
C  -1.374083   0.155344  -0.083972
H  -2.673912  -1.102667  -0.689313
H  -2.635845  -1.509178   1.180224
C  -0.235675  -0.683883   0.070229
H  -1.637755   0.823112   0.630100
H  -1.101463   0.924268  -1.098129
H  -0.310621  -1.485333   1.037786
H   0.742088   0.079535   0.165709
H  -0.462496  -1.139682  -0.773821
