butane_opt
 OpenBabel08242015403D

 14 11  0  0  0  0  0  0  0  0999 V2000
   -3.9107    0.1969    0.1132 C   0  0  0  0  0  0  0  0  0  0  0  0
   -2.6669   -0.5552   -0.0621 C   0  0  0  0  0  0  0  0  0  0  0  0
   -4.7310   -0.4037   -0.3572 H   0  0  0  0  0  0  0  0  0  0  0  0
   -4.0321    0.2341   -0.2996 H   0  0  0  0  0  0  0  0  0  0  0  0
   -4.1228    1.3490    1.2587 H   0  0  0  0  0  0  0  0  0  0  0  0
   -1.4504    0.2653   -0.1124 C   0  0  0  0  0  0  0  0  0  0  0  0
   -3.1097   -1.3899   -1.0560 H   0  0  0  0  0  0  0  0  0  0  0  0
   -2.6408   -1.0080    0.8112 H   0  0  0  0  0  0  0  0  0  0  0  0
   -0.1250   -0.7273    0.1635 C   0  0  0  0  0  0  0  0  0  0  0  0
   -1.6451    0.5839    0.4885 H   0  0  0  0  0  0  0  0  0  0  0  0
   -1.3815    1.0785   -1.1515 H   0  0  0  0  0  0  0  0  0  0  0  0
    0.1924   -1.7088    1.2105 H   0  0  0  0  0  0  0  0  0  0  0  0
    0.7080   -0.3249   -0.1546 H   0  0  0  0  0  0  0  0  0  0  0  0
   -0.3788   -1.0508   -0.4481 H   0  0  0  0  0  0  0  0  0  0  0  0
  2  1  1  0  0  0  0
  2  8  1  0  0  0  0
  3  1  1  0  0  0  0
  6  2  1  0  0  0  0
  6  9  1  0  0  0  0
  6 10  1  0  0  0  0
  7  2  1  0  0  0  0
  9 12  1  0  0  0  0
 11  6  1  0  0  0  0
 13  9  1  0  0  0  0
 14  9  1  0  0  0  0
M  RAD  3   1   3   4   2   5   2
M  END
$$$$
