butane_opt
 OpenBabel08242015403D

 14 13  0  0  0  0  0  0  0  0999 V2000
   -3.9198    0.3362    0.2302 C   0  0  0  0  0  0  0  0  0  0  0  0
   -2.7137   -0.7278   -0.1215 C   0  0  0  0  0  0  0  0  0  0  0  0
   -4.7230   -0.0804    0.0390 H   0  0  0  0  0  0  0  0  0  0  0  0
   -4.0051    0.9131   -0.7126 H   0  0  0  0  0  0  0  0  0  0  0  0
   -3.8128    0.9399    1.1483 H   0  0  0  0  0  0  0  0  0  0  0  0
   -1.3780    0.1707   -0.1737 C   0  0  0  0  0  0  0  0  0  0  0  0
   -2.9596   -1.5382   -1.1819 H   0  0  0  0  0  0  0  0  0  0  0  0
   -2.4570   -1.0463    0.5741 H   0  0  0  0  0  0  0  0  0  0  0  0
   -0.2099   -0.6319    0.1943 C   0  0  0  0  0  0  0  0  0  0  0  0
   -1.6998    0.5797    0.3860 H   0  0  0  0  0  0  0  0  0  0  0  0
   -1.1769    0.8949   -1.2933 H   0  0  0  0  0  0  0  0  0  0  0  0
   -0.5736   -1.4430    1.1833 H   0  0  0  0  0  0  0  0  0  0  0  0
    0.8824    0.0437    0.4034 H   0  0  0  0  0  0  0  0  0  0  0  0
    0.0864   -1.4496   -0.6863 H   0  0  0  0  0  0  0  0  0  0  0  0
  1  5  1  0  0  0  0
  2  1  1  0  0  0  0
  2  8  1  0  0  0  0
  3  1  1  0  0  0  0
  4  1  1  0  0  0  0
  6  2  1  0  0  0  0
  6  9  1  0  0  0  0
  6 10  1  0  0  0  0
  7  2  1  0  0  0  0
  9 13  1  0  0  0  0
  9 12  1  0  0  0  0
 11  6  1  0  0  0  0
 14  9  1  0  0  0  0
M  END
$$$$
