14
butane_opt
C  -3.865899   0.204447  -0.068525
C  -2.743685  -0.524051   0.110683
H  -4.719098  -0.256781   0.043703
H  -3.681745   0.859368  -0.969519
H  -3.716552   0.746843   0.679591
C  -1.441776   0.200670   0.113349
H  -2.332902  -1.305336  -0.812675
H  -2.913152  -1.221151   1.053196
C  -0.234386  -0.717040  -0.058255
H  -1.197738   1.235698   1.240053
H  -1.556900   0.600477  -0.739098
H   0.165061  -1.692009   1.038392
H   0.631444  -0.314535  -0.338920
H  -0.298651  -1.083989  -0.848597
