butane_opt
 OpenBabel08242015403D

 14  8  0  0  0  0  0  0  0  0999 V2000
   -3.9937    0.2971   -0.0891 C   0  0  0  0  0  0  0  0  0  0  0  0
   -2.6977   -0.6857    0.2045 C   0  0  0  0  0  0  0  0  0  0  0  0
   -4.7586   -0.2570    0.0643 H   0  0  0  0  0  0  0  0  0  0  0  0
   -3.9711    1.1133   -1.0743 H   0  0  0  0  0  0  0  0  0  0  0  0
   -4.1073    0.6317    0.6451 H   0  0  0  0  0  0  0  0  0  0  0  0
   -1.4066    0.1896    0.0461 C   0  0  0  0  0  0  0  0  0  0  0  0
   -2.4986   -1.1361   -0.4553 H   0  0  0  0  0  0  0  0  0  0  0  0
   -2.7252   -1.6119    1.4118 H   0  0  0  0  0  0  0  0  0  0  0  0
   -0.1727   -0.6786   -0.1284 C   0  0  0  0  0 15  0  0  0  0  0  0
   -1.1978    1.1815    1.0022 H   0  0  0  0  0  0  0  0  0  0  0  0
   -1.3778    0.7837   -0.8137 H   0  0  0  0  0  0  0  0  0  0  0  0
   -0.3306   -0.6547    0.3974 H   0  0  0  0  0  0  0  0  0  0  0  0
    0.7955   -0.1357    1.0813 H   0  0  0  0  0  0  0  0  0  0  0  0
    0.3756   -1.8675   -1.2832 H   0  0  0  0  0  0  0  0  0  0  0  0
  1  3  1  0  0  0  0
  1  2  1  0  0  0  0
  1  5  1  0  0  0  0
  4  1  1  0  0  0  0
  6 12  1  0  0  0  0
  6 10  1  0  0  0  0
  7  2  1  0  0  0  0
 11  6  1  0  0  0  0
M  RAD  5   2   3   6   2   8   2  13   2  14   2
M  END
$$$$
