butane_opt
 OpenBabel08242015403D

 14 11  0  0  0  0  0  0  0  0999 V2000
   -3.9067    0.2300   -0.1802 C   0  0  0  0  0  0  0  0  0  0  0  0
   -2.7195   -0.5678    0.1652 C   0  0  0  0  0  0  0  0  0  0  0  0
   -5.0004   -0.4448    0.0261 H   0  0  0  0  0  0  0  0  0  0  0  0
   -3.9774    1.1257   -1.3141 H   0  0  0  0  0  0  0  0  0  0  0  0
   -4.1728    0.7210    0.5608 H   0  0  0  0  0  0  0  0  0  0  0  0
   -1.3944    0.2259    0.2624 C   0  0  0  0  0  0  0  0  0  0  0  0
   -2.7755   -0.9450   -0.3109 H   0  0  0  0  0  0  0  0  0  0  0  0
   -3.1157   -1.3318    1.1835 H   0  0  0  0  0  0  0  0  0  0  0  0
   -0.1187   -0.7475   -0.1683 C   0  0  0  0  0  0  0  0  0  0  0  0
   -1.4048    1.1953    1.3747 H   0  0  0  0  0  0  0  0  0  0  0  0
   -1.4504    0.3998   -0.3194 H   0  0  0  0  0  0  0  0  0  0  0  0
    0.3634   -1.4648    0.7987 H   0  0  0  0  0  0  0  0  0  0  0  0
    0.8446   -0.2072   -0.6009 H   0  0  0  0  0  0  0  0  0  0  0  0
   -0.6215   -1.2009   -0.9218 H   0  0  0  0  0  0  0  0  0  0  0  0
  1  3  1  0  0  0  0
  1  2  1  0  0  0  0
  1  5  1  0  0  0  0
  2  6  1  0  0  0  0
  2  8  1  0  0  0  0
  4  1  1  0  0  0  0
  6 10  1  0  0  0  0
  9  6  1  0  0  0  0
  9 12  1  0  0  0  0
 13  9  1  0  0  0  0
 14  9  1  0  0  0  0
M  RAD  4   2   2   6   2   7   2  11   2
M  END
$$$$
