14
butane_opt
C  -3.998966   0.271191  -0.103816
C  -2.716857  -0.674412   0.263814
H  -4.889394  -0.446088  -0.773077
H  -3.695719   0.791082  -1.128886
H  -4.380547   1.214088   0.854913
C  -1.437876   0.244434   0.135761
H  -2.639890  -1.336611  -0.641314
H  -2.752708  -1.153928   1.002533
C  -0.105071  -0.710298  -0.099702
H  -0.920145   0.763484   1.053032
H  -1.625680   0.775444  -0.687967
H   0.356801  -1.327538   0.766796
H   0.832718  -0.150847  -0.378069
H  -0.205913  -1.155344  -0.931431
