butane_opt
 OpenBabel08242015403D

 14 11  0  0  0  0  0  0  0  0999 V2000
   -3.9735    0.2759   -0.0552 C   0  0  0  0  0  0  0  0  0  0  0  0
   -2.6314   -0.5963    0.2004 C   0  0  0  0  0  0  0  0  0  0  0  0
   -4.7070   -0.1185   -0.2389 H   0  0  0  0  0  0  0  0  0  0  0  0
   -3.7467    1.0115   -1.1312 H   0  0  0  0  0  0  0  0  0  0  0  0
   -4.3186    0.7015    0.4697 H   0  0  0  0  0  0  0  0  0  0  0  0
   -1.4300    0.0938    0.0574 C   0  0  0  0  0  0  0  0  0  0  0  0
   -2.5698   -0.9756   -0.3517 H   0  0  0  0  0  0  0  0  0  0  0  0
   -2.7249   -1.5379    1.2084 H   0  0  0  0  0  0  0  0  0  0  0  0
   -0.1756   -0.6346   -0.0905 C   0  0  0  0  0  0  0  0  0  0  0  0
   -1.2872    0.8585    1.1031 H   0  0  0  0  0  0  0  0  0  0  0  0
   -1.4139    0.5381   -0.6229 H   0  0  0  0  0  0  0  0  0  0  0  0
   -0.5484   -0.7851    0.4403 H   0  0  0  0  0  0  0  0  0  0  0  0
    0.9377    0.1188    0.4090 H   0  0  0  0  0  0  0  0  0  0  0  0
   -0.1499   -1.9132   -1.2813 H   0  0  0  0  0  0  0  0  0  0  0  0
  1  2  1  0  0  0  0
  1  5  1  0  0  0  0
  2  8  1  0  0  0  0
  3  1  1  0  0  0  0
  4  1  1  0  0  0  0
  6  2  1  0  0  0  0
  6 10  1  0  0  0  0
  7  2  1  0  0  0  0
  9 13  1  0  0  0  0
  9 12  1  0  0  0  0
 11  6  1  0  0  0  0
M  RAD  3   6   2   9   3  14   2
M  END
$$$$
