14
butane_opt
C  -3.906676   0.229998  -0.180195
C  -2.719489  -0.567813   0.165247
H  -5.000355  -0.444763   0.026140
H  -3.977382   1.125657  -1.314101
H  -4.172767   0.720986   0.560807
C  -1.394358   0.225881   0.262368
H  -2.775526  -0.944994  -0.310896
H  -3.115692  -1.331840   1.183541
C  -0.118733  -0.747485  -0.168335
H  -1.404825   1.195311   1.374676
H  -1.450446   0.399841  -0.319383
H   0.363387  -1.464786   0.798702
H   0.844630  -0.207190  -0.600881
H  -0.621471  -1.200859  -0.921803
