butane_opt
 OpenBabel08242015403D

 14  8  0  0  0  0  0  0  0  0999 V2000
   -3.9516    0.2271    0.0840 C   0  0  0  0  0  1  0  0  0  0  0  0
   -2.8129   -0.5431    0.0740 C   0  0  0  0  0  1  0  0  0  0  0  0
   -5.2087   -0.5820   -0.6502 H   0  0  0  0  0  0  0  0  0  0  0  0
   -3.5230    0.2695   -0.5970 H   0  0  0  0  0  0  0  0  0  0  0  0
   -4.1741    1.4954    1.4144 H   0  0  0  0  0  0  0  0  0  0  0  0
   -1.3849    0.2514   -0.1007 C   0  0  0  0  0  0  0  0  0  0  0  0
   -3.0065   -1.5440   -1.0654 H   0  0  0  0  0  0  0  0  0  0  0  0
   -2.5669   -1.0017    0.8006 H   0  0  0  0  0  0  0  0  0  0  0  0
   -0.0702   -0.7913    0.1095 C   0  0  0  0  0  0  0  0  0  0  0  0
   -1.4718    0.8784    0.5019 H   0  0  0  0  0  0  0  0  0  0  0  0
   -1.3480    1.1280   -1.2260 H   0  0  0  0  0  0  0  0  0  0  0  0
    0.0600   -1.5849    1.1140 H   0  0  0  0  0  0  0  0  0  0  0  0
    0.7263   -0.1929   -0.2259 H   0  0  0  0  0  0  0  0  0  0  0  0
    0.1667   -1.1275   -0.5543 H   0  0  0  0  0  0  0  0  0  0  0  0
  2  8  1  0  0  0  0
  4  1  1  0  0  0  0
  6  9  1  0  0  0  0
  6 10  1  0  0  0  0
  9 12  1  0  0  0  0
 11  6  1  0  0  0  0
 13  9  1  0  0  0  0
 14  9  1  0  0  0  0
M  RAD  4   3   2   5   2   6   2   7   2
M  END
$$$$
