butane_opt
 OpenBabel08242015403D

 14 13  0  0  0  0  0  0  0  0999 V2000
   -4.0071    0.3426   -0.0434 C   0  0  0  0  0  0  0  0  0  0  0  0
   -2.6486   -0.7430    0.1806 C   0  0  0  0  0  0  0  0  0  0  0  0
   -4.8600   -0.1011   -0.6415 H   0  0  0  0  0  0  0  0  0  0  0  0
   -3.7603    0.7256   -0.9402 H   0  0  0  0  0  0  0  0  0  0  0  0
   -4.3377    1.0638    0.7451 H   0  0  0  0  0  0  0  0  0  0  0  0
   -1.3902    0.0967    0.1182 C   0  0  0  0  0  0  0  0  0  0  0  0
   -2.4980   -1.3517   -0.6141 H   0  0  0  0  0  0  0  0  0  0  0  0
   -2.7681   -1.0885    1.0003 H   0  0  0  0  0  0  0  0  0  0  0  0
   -0.1527   -0.5893   -0.0809 C   0  0  0  0  0  0  0  0  0  0  0  0
   -0.9852    0.7085    0.9912 H   0  0  0  0  0  0  0  0  0  0  0  0
   -1.6071    0.8919   -0.8869 H   0  0  0  0  0  0  0  0  0  0  0  0
   -0.1928   -1.2901    0.8679 H   0  0  0  0  0  0  0  0  0  0  0  0
    0.5619   -0.1706   -0.2179 H   0  0  0  0  0  0  0  0  0  0  0  0
   -0.2213   -1.1739   -0.9238 H   0  0  0  0  0  0  0  0  0  0  0  0
  1  2  1  0  0  0  0
  1  5  1  0  0  0  0
  2  8  1  0  0  0  0
  3  1  1  0  0  0  0
  4  1  1  0  0  0  0
  6  2  1  0  0  0  0
  6 10  1  0  0  0  0
  7  2  1  0  0  0  0
  9  6  1  0  0  0  0
  9 12  1  0  0  0  0
 11  6  1  0  0  0  0
 13  9  1  0  0  0  0
 14  9  1  0  0  0  0
M  END
$$$$
