butane_opt
 OpenBabel08242015403D

 14 11  0  0  0  0  0  0  0  0999 V2000
   -3.9466    0.2200   -0.0503 C   0  0  0  0  0  0  0  0  0  0  0  0
   -2.7719   -0.5734    0.1597 C   0  0  0  0  0  0  0  0  0  0  0  0
   -5.0979   -0.5757   -0.1560 H   0  0  0  0  0  0  0  0  0  0  0  0
   -3.9209    1.1471   -1.0898 H   0  0  0  0  0  0  0  0  0  0  0  0
   -3.9077    0.7477    0.5514 H   0  0  0  0  0  0  0  0  0  0  0  0
   -1.4254    0.3133    0.0549 C   0  0  0  0  0  0  0  0  0  0  0  0
   -2.7691   -1.1215   -0.5346 H   0  0  0  0  0  0  0  0  0  0  0  0
   -2.8450   -1.5550    1.3822 H   0  0  0  0  0  0  0  0  0  0  0  0
   -0.0843   -0.7475   -0.0805 C   0  0  0  0  0  0  0  0  0  0  0  0
   -0.9589    0.9876    1.0131 H   0  0  0  0  0  0  0  0  0  0  0  0
   -1.5623    0.6615   -0.7232 H   0  0  0  0  0  0  0  0  0  0  0  0
   -0.2013   -1.0307    0.5509 H   0  0  0  0  0  0  0  0  0  0  0  0
    0.6252   -0.3806    0.6212 H   0  0  0  0  0  0  0  0  0  0  0  0
    0.3913   -1.9451   -1.2547 H   0  0  0  0  0  0  0  0  0  0  0  0
  1  2  1  0  0  0  0
  1  5  1  0  0  0  0
  3  1  1  0  0  0  0
  4  1  1  0  0  0  0
  6  2  1  0  0  0  0
  6 10  1  0  0  0  0
  7  2  1  0  0  0  0
  9  6  1  0  0  0  0
  9 12  1  0  0  0  0
  9 13  1  0  0  0  0
 11  6  1  0  0  0  0
M  RAD  4   2   2   8   2   9   2  14   2
M  END
$$$$
