butane_opt
 OpenBabel08242015403D

 14 12  0  0  0  0  0  0  0  0999 V2000
   -3.9726    0.2862   -0.0838 C   0  0  0  0  0  0  0  0  0  0  0  0
   -2.6832   -0.7128    0.1102 C   0  0  0  0  0  0  0  0  0  0  0  0
   -4.7049   -0.2009    0.5106 H   0  0  0  0  0  0  0  0  0  0  0  0
   -4.2508    1.5994   -1.2881 H   0  0  0  0  0  0  0  0  0  0  0  0
   -4.0109    0.6362    0.4770 H   0  0  0  0  0  0  0  0  0  0  0  0
   -1.3846    0.1549    0.1479 C   0  0  0  0  0  0  0  0  0  0  0  0
   -2.6557   -1.2402   -0.6072 H   0  0  0  0  0  0  0  0  0  0  0  0
   -2.8345   -1.4195    0.9817 H   0  0  0  0  0  0  0  0  0  0  0  0
   -0.1590   -0.6472   -0.1148 C   0  0  0  0  0  0  0  0  0  0  0  0
   -1.5237    1.0459    1.1763 H   0  0  0  0  0  0  0  0  0  0  0  0
   -1.4733    0.5162   -0.5452 H   0  0  0  0  0  0  0  0  0  0  0  0
   -0.0267   -1.0812    0.6631 H   0  0  0  0  0  0  0  0  0  0  0  0
    0.6976    0.0193    0.3127 H   0  0  0  0  0  0  0  0  0  0  0  0
    0.0990   -1.2778   -1.0109 H   0  0  0  0  0  0  0  0  0  0  0  0
  1  2  1  0  0  0  0
  1  5  1  0  0  0  0
  1  3  1  0  0  0  0
  2  6  1  0  0  0  0
  2  8  1  0  0  0  0
  6 10  1  0  0  0  0
  7  2  1  0  0  0  0
  9  6  1  0  0  0  0
  9 13  1  0  0  0  0
  9 12  1  0  0  0  0
 11  6  1  0  0  0  0
 14  9  1  0  0  0  0
M  RAD  2   1   2   4   2
M  END
$$$$
