14
butane_opt
C  -3.882763   0.258324   0.071947
C  -2.689229  -0.633372   0.050612
H  -4.978033  -0.541500  -0.922201
H  -3.722599   0.221584  -0.495505
H  -4.123352   1.739424   1.363300
C  -1.442310   0.238079  -0.091199
H  -2.780332  -1.045486  -0.538537
H  -2.758081  -1.376453   1.044348
C  -0.164260  -0.730856   0.063527
H  -1.576265   0.840567   0.605375
H  -1.112112   0.871598  -0.965339
H  -0.199549  -1.499513   1.054064
H   0.574481  -0.122167  -0.149273
H  -0.151723  -1.212425  -0.654650
