14
butane_opt
C  -3.966556   0.205109   0.073552
C  -2.805430  -0.531283  -0.069622
H  -4.798507  -0.493751   0.030906
H  -3.708115   0.580981  -0.710609
H  -3.844017   1.103723   1.112767
C  -1.403382   0.229772  -0.012586
H  -2.815160  -1.217293  -1.041918
H  -2.743162  -1.010568   0.666350
C  -0.096800  -0.763190   0.074393
H  -1.115596   1.068077   0.993982
H  -1.599168   0.911709  -0.872510
H   0.138794  -1.982252   1.447061
H   0.699063  -0.300741  -0.580843
H   0.027795  -0.826806  -0.278507
