14
butane_opt
C  -3.992261   0.302746   0.197125
C  -2.625051  -0.687654  -0.202319
H  -4.872318  -0.209023   0.706520
H  -4.347339   1.484742  -0.977053
H  -3.462931   0.730370   0.978905
C  -1.405682   0.123337  -0.081282
H  -2.587079  -1.761663  -1.166313
H  -2.411191  -0.874242   0.418028
C  -0.233504  -0.634692   0.175795
H  -1.464467   0.557456   0.550766
H  -1.013920   0.824127  -1.039257
H  -0.503712  -1.431250   1.151968
H   0.806717   0.091563   0.114918
H  -0.105652  -1.070705  -0.417034
