butane_opt
 OpenBabel08242015403D

 14 10  0  0  0  0  0  0  0  0999 V2000
   -3.9827    0.2163    0.1182 C   0  0  0  0  0  1  0  0  0  0  0  0
   -2.7480   -0.5748   -0.0036 C   0  0  0  0  0  0  0  0  0  0  0  0
   -5.0312   -0.4414   -0.5472 H   0  0  0  0  0  0  0  0  0  0  0  0
   -3.7133    0.2824   -0.2708 H   0  0  0  0  0  0  0  0  0  0  0  0
   -4.0953    1.5743    1.3610 H   0  0  0  0  0  0  0  0  0  0  0  0
   -1.3870    0.2428   -0.1522 C   0  0  0  0  0  0  0  0  0  0  0  0
   -2.6730   -1.1923   -0.7899 H   0  0  0  0  0  0  0  0  0  0  0  0
   -2.8104   -1.0129    0.6196 H   0  0  0  0  0  0  0  0  0  0  0  0
   -0.0900   -0.7548    0.1524 C   0  0  0  0  0  0  0  0  0  0  0  0
   -1.3429    0.5630    0.4621 H   0  0  0  0  0  0  0  0  0  0  0  0
   -1.1745    1.2461   -1.2690 H   0  0  0  0  0  0  0  0  0  0  0  0
   -0.0014   -1.4943    1.1875 H   0  0  0  0  0  0  0  0  0  0  0  0
    0.7365   -0.2388    0.0874 H   0  0  0  0  0  0  0  0  0  0  0  0
   -0.3726   -1.3934   -0.6678 H   0  0  0  0  0  0  0  0  0  0  0  0
  2  8  1  0  0  0  0
  3  1  1  0  0  0  0
  4  2  1  0  0  0  0
  6  9  1  0  0  0  0
  6 10  1  0  0  0  0
  7  2  1  0  0  0  0
  9 12  1  0  0  0  0
 11  6  1  0  0  0  0
 13  9  1  0  0  0  0
 14  9  1  0  0  0  0
M  RAD  3   2   2   5   2   6   2
M  END
$$$$
