14
butane_opt
C  -3.956078   0.270743  -0.018636
C  -2.701210  -0.632319   0.076259
H  -4.847230  -0.301377  -0.061377
H  -3.981257   0.831164  -0.872019
H  -4.066217   1.000627   0.878690
C  -1.398182   0.182003   0.039908
H  -2.651242  -1.244884  -0.726188
H  -2.735432  -1.283249   1.000004
C  -0.151027  -0.688418  -0.002876
H  -1.368245   0.902574   0.910163
H  -1.400221   0.777716  -0.838838
H  -0.095189  -1.325191   0.903878
H   0.798393  -0.056099  -0.041618
H  -0.198538  -1.355941  -0.839246
