butane_opt
 OpenBabel08242015403D

 14 13  0  0  0  0  0  0  0  0999 V2000
   -4.0000    0.3455    0.2023 C   0  0  0  0  0  0  0  0  0  0  0  0
   -2.7381   -0.6328   -0.1019 C   0  0  0  0  0  0  0  0  0  0  0  0
   -4.7635   -0.2539    0.0313 H   0  0  0  0  0  0  0  0  0  0  0  0
   -4.1253    0.6715   -0.4677 H   0  0  0  0  0  0  0  0  0  0  0  0
   -3.9650    1.0672    1.0869 H   0  0  0  0  0  0  0  0  0  0  0  0
   -1.3528    0.0726   -0.2528 C   0  0  0  0  0  0  0  0  0  0  0  0
   -2.7016   -1.4869   -1.0650 H   0  0  0  0  0  0  0  0  0  0  0  0
   -2.3433   -1.2975    0.7774 H   0  0  0  0  0  0  0  0  0  0  0  0
   -0.1641   -0.6168    0.1995 C   0  0  0  0  0  0  0  0  0  0  0  0
   -1.2382    0.7769    0.6238 H   0  0  0  0  0  0  0  0  0  0  0  0
   -1.2162    0.6684   -1.2889 H   0  0  0  0  0  0  0  0  0  0  0  0
   -0.4405   -1.2248    1.2122 H   0  0  0  0  0  0  0  0  0  0  0  0
    0.8021    0.0193    0.5909 H   0  0  0  0  0  0  0  0  0  0  0  0
   -0.0127   -1.4069   -0.5968 H   0  0  0  0  0  0  0  0  0  0  0  0
  1  5  1  0  0  0  0
  2  1  1  0  0  0  0
  2  8  1  0  0  0  0
  3  1  1  0  0  0  0
  4  1  1  0  0  0  0
  6  2  1  0  0  0  0
  6  9  1  0  0  0  0
  6 10  1  0  0  0  0
  7  2  1  0  0  0  0
  9 13  1  0  0  0  0
  9 12  1  0  0  0  0
 11  6  1  0  0  0  0
 14  9  1  0  0  0  0
M  END
$$$$
