butane_opt
 OpenBabel08242015403D

 14 13  0  0  0  0  0  0  0  0999 V2000
   -4.0513    0.2975   -0.0584 C   0  0  0  0  0  0  0  0  0  0  0  0
   -2.6323   -0.6358    0.1554 C   0  0  0  0  0  0  0  0  0  0  0  0
   -4.9926   -0.3743   -0.4921 H   0  0  0  0  0  0  0  0  0  0  0  0
   -3.9301    0.8274   -0.9810 H   0  0  0  0  0  0  0  0  0  0  0  0
   -4.2390    1.1257    0.9643 H   0  0  0  0  0  0  0  0  0  0  0  0
   -1.3582    0.1431    0.0338 C   0  0  0  0  0  0  0  0  0  0  0  0
   -2.5995   -1.1745   -0.5652 H   0  0  0  0  0  0  0  0  0  0  0  0
   -2.9458   -1.5629    1.2808 H   0  0  0  0  0  0  0  0  0  0  0  0
   -0.1306   -0.6392   -0.0352 C   0  0  0  0  0  0  0  0  0  0  0  0
   -1.3356    0.9739    1.0159 H   0  0  0  0  0  0  0  0  0  0  0  0
   -1.2370    0.5902   -0.5532 H   0  0  0  0  0  0  0  0  0  0  0  0
    0.0202   -1.2286    0.7994 H   0  0  0  0  0  0  0  0  0  0  0  0
    0.6911   -0.0879   -0.2278 H   0  0  0  0  0  0  0  0  0  0  0  0
   -0.3658   -1.5499   -0.9772 H   0  0  0  0  0  0  0  0  0  0  0  0
  1  2  1  0  0  0  0
  1  5  1  0  0  0  0
  2  8  1  0  0  0  0
  3  1  1  0  0  0  0
  4  1  1  0  0  0  0
  6  2  1  0  0  0  0
  6 10  1  0  0  0  0
  7  2  1  0  0  0  0
  9  6  1  0  0  0  0
  9 12  1  0  0  0  0
 11  6  1  0  0  0  0
 13  9  1  0  0  0  0
 14  9  1  0  0  0  0
M  END
$$$$
