butane_opt
 OpenBabel08242015403D

 14 12  0  0  0  0  0  0  0  0999 V2000
   -3.9351    0.2814    0.1349 C   0  0  0  0  0  0  0  0  0  0  0  0
   -2.6540   -0.5696   -0.1964 C   0  0  0  0  0  0  0  0  0  0  0  0
   -5.0207   -0.5109    0.2974 H   0  0  0  0  0  0  0  0  0  0  0  0
   -4.3020    0.5678   -0.5390 H   0  0  0  0  0  0  0  0  0  0  0  0
   -3.2970    0.7350    1.1211 H   0  0  0  0  0  0  0  0  0  0  0  0
   -1.4504    0.1992   -0.0930 C   0  0  0  0  0  0  0  0  0  0  0  0
   -2.7132   -1.3957   -1.0524 H   0  0  0  0  0  0  0  0  0  0  0  0
   -2.6735   -1.1712    0.7551 H   0  0  0  0  0  0  0  0  0  0  0  0
   -0.1643   -0.7078    0.1912 C   0  0  0  0  0  0  0  0  0  0  0  0
   -1.3693    0.9218    0.8979 H   0  0  0  0  0  0  0  0  0  0  0  0
   -1.4316    0.9005   -1.1160 H   0  0  0  0  0  0  0  0  0  0  0  0
   -0.1446   -1.7589    1.3987 H   0  0  0  0  0  0  0  0  0  0  0  0
    0.6712   -0.1948   -0.2934 H   0  0  0  0  0  0  0  0  0  0  0  0
   -0.2968   -1.0047   -0.4375 H   0  0  0  0  0  0  0  0  0  0  0  0
  1  3  1  0  0  0  0
  1  5  1  0  0  0  0
  2  6  1  0  0  0  0
  2  1  1  0  0  0  0
  2  8  1  0  0  0  0
  4  1  1  0  0  0  0
  6  9  1  0  0  0  0
  6 10  1  0  0  0  0
  7  2  1  0  0  0  0
 11  6  1  0  0  0  0
 13  9  1  0  0  0  0
 14  9  1  0  0  0  0
M  RAD  2   9   2  12   2
M  END
$$$$
