butane_opt
 OpenBabel08242015403D

 14 13  0  0  0  0  0  0  0  0999 V2000
   -3.9266    0.3641   -0.1943 C   0  0  0  0  0  0  0  0  0  0  0  0
   -2.6572   -0.6724    0.2564 C   0  0  0  0  0  0  0  0  0  0  0  0
   -5.0227   -0.4233   -0.5547 H   0  0  0  0  0  0  0  0  0  0  0  0
   -3.7911    0.7122   -1.0773 H   0  0  0  0  0  0  0  0  0  0  0  0
   -3.9390    1.2517    0.8945 H   0  0  0  0  0  0  0  0  0  0  0  0
   -1.4077    0.0962    0.1699 C   0  0  0  0  0  0  0  0  0  0  0  0
   -2.5533   -1.0210   -0.3068 H   0  0  0  0  0  0  0  0  0  0  0  0
   -2.6460   -1.6041    1.3898 H   0  0  0  0  0  0  0  0  0  0  0  0
   -0.2540   -0.6560   -0.1425 C   0  0  0  0  0  0  0  0  0  0  0  0
   -1.0849    0.7792    1.2191 H   0  0  0  0  0  0  0  0  0  0  0  0
   -1.3832    0.5008   -0.5341 H   0  0  0  0  0  0  0  0  0  0  0  0
   -0.0386   -1.0273    0.6163 H   0  0  0  0  0  0  0  0  0  0  0  0
    0.8432    0.1672   -0.2926 H   0  0  0  0  0  0  0  0  0  0  0  0
   -0.4917   -1.3576   -1.0189 H   0  0  0  0  0  0  0  0  0  0  0  0
  1  2  1  0  0  0  0
  1  5  1  0  0  0  0
  2  8  1  0  0  0  0
  3  1  1  0  0  0  0
  4  1  1  0  0  0  0
  6  2  1  0  0  0  0
  6 10  1  0  0  0  0
  7  2  1  0  0  0  0
  9  6  1  0  0  0  0
  9 12  1  0  0  0  0
 11  6  1  0  0  0  0
 13  9  1  0  0  0  0
 14  9  1  0  0  0  0
M  END
$$$$
