14
butane_opt
C  -4.057681   0.295437   0.025149
C  -2.713821  -0.664626   0.033333
H  -4.977708  -0.306616  -0.039304
H  -3.731686   1.302293  -1.262880
H  -4.166804   0.987227   0.747308
C  -1.312351   0.151796   0.106470
H  -2.708163  -1.444987  -0.934551
H  -2.567657  -1.225216   0.842657
C  -0.155630  -0.691907   0.002155
H  -1.159845   0.809180   1.132813
H  -1.354834   0.765770  -0.764978
H   0.025626  -1.403658   1.063576
H   0.845428   0.022102  -0.542532
H  -0.365342  -1.038392  -0.811271
