14
butane_opt
C  -3.987987   0.196718  -0.056991
C  -2.736580  -0.593801   0.100650
H  -4.889256  -0.226285   0.079646
H  -3.881886   1.002956  -1.185220
H  -4.139519   0.656635   0.566460
C  -1.399931   0.258807   0.123457
H  -2.676169  -1.291688  -0.785413
H  -2.534143  -1.276429   0.989535
C  -0.100367  -0.707109  -0.042260
H  -1.149820   1.378978   1.315820
H  -1.574708   0.659662  -0.750520
H   0.379570  -1.598674   0.961993
H   0.495641  -0.424148  -0.384158
H  -0.324057  -1.239416  -0.840006
