14
butane_opt
C  -3.969548   0.208481  -0.187244
C  -2.714094  -0.630919   0.268716
H  -4.838001  -0.258703  -0.574250
H  -3.539574   0.555536  -0.876244
H  -4.461004   1.129157   0.646993
C  -1.423155   0.272915   0.161830
H  -2.509461  -0.828785  -0.208287
H  -2.943245  -1.449250   1.361290
C  -0.073834  -0.739295  -0.151320
H  -1.339487   1.251552   1.256860
H  -1.538196   0.732907  -0.383231
H   0.189043  -1.230619   0.664460
H   0.663688  -0.315090  -0.496416
H  -0.487974  -1.468278  -1.041699
