butane_opt
 OpenBabel08242015403D

 14 13  0  0  0  0  0  0  0  0999 V2000
   -3.9866    0.3246   -0.1844 C   0  0  0  0  0  0  0  0  0  0  0  0
   -2.6893   -0.6802    0.2879 C   0  0  0  0  0  0  0  0  0  0  0  0
   -4.8795   -0.3100   -0.7365 H   0  0  0  0  0  0  0  0  0  0  0  0
   -3.8211    0.6172   -0.8527 H   0  0  0  0  0  0  0  0  0  0  0  0
   -4.4843    1.2821    0.7297 H   0  0  0  0  0  0  0  0  0  0  0  0
   -1.4385    0.1309    0.1498 C   0  0  0  0  0  0  0  0  0  0  0  0
   -2.5266   -0.9957   -0.2873 H   0  0  0  0  0  0  0  0  0  0  0  0
   -2.7128   -1.5413    1.5310 H   0  0  0  0  0  0  0  0  0  0  0  0
   -0.1068   -0.6367   -0.1561 C   0  0  0  0  0  0  0  0  0  0  0  0
   -1.2979    0.8496    1.0878 H   0  0  0  0  0  0  0  0  0  0  0  0
   -1.2428    0.4854   -0.5399 H   0  0  0  0  0  0  0  0  0  0  0  0
    0.1465   -1.1054    0.5874 H   0  0  0  0  0  0  0  0  0  0  0  0
    1.0292    0.1212   -0.1634 H   0  0  0  0  0  0  0  0  0  0  0  0
   -0.5876   -1.5292   -1.0941 H   0  0  0  0  0  0  0  0  0  0  0  0
  1  2  1  0  0  0  0
  1  5  1  0  0  0  0
  2  8  1  0  0  0  0
  3  1  1  0  0  0  0
  4  1  1  0  0  0  0
  6  2  1  0  0  0  0
  6 10  1  0  0  0  0
  7  2  1  0  0  0  0
  9  6  1  0  0  0  0
  9 12  1  0  0  0  0
 11  6  1  0  0  0  0
 13  9  1  0  0  0  0
 14  9  1  0  0  0  0
M  END
$$$$
