14
butane_opt
C  -3.951955   0.270080   0.039510
C  -2.701536  -0.624986   0.008606
H  -4.856852  -0.306909   0.139538
H  -4.026081   0.937678  -0.884049
H  -3.940036   0.896619   0.892577
C  -1.410529   0.176621  -0.014556
H  -2.750987  -1.322030  -0.829500
H  -2.656844  -1.205084   0.860106
C  -0.146600  -0.686337   0.054352
H  -1.420659   0.879882   0.863413
H  -1.349364   0.766664  -0.876452
H  -0.204536  -1.327208   0.968270
H   0.803857  -0.071375   0.014546
H  -0.100233  -1.334491  -0.776272
