butane_opt
 OpenBabel08242015403D

 14 13  0  0  0  0  0  0  0  0999 V2000
   -3.9515    0.2682    0.0305 C   0  0  0  0  0  0  0  0  0  0  0  0
   -2.6914   -0.6277    0.0097 C   0  0  0  0  0  0  0  0  0  0  0  0
   -4.8254   -0.2782    0.1840 H   0  0  0  0  0  0  0  0  0  0  0  0
   -4.0978    0.9905   -0.9092 H   0  0  0  0  0  0  0  0  0  0  0  0
   -3.8581    0.8531    0.8729 H   0  0  0  0  0  0  0  0  0  0  0  0
   -1.4001    0.1784    0.0052 C   0  0  0  0  0  0  0  0  0  0  0  0
   -2.6676   -1.3483   -0.8823 H   0  0  0  0  0  0  0  0  0  0  0  0
   -2.6746   -1.2218    0.8653 H   0  0  0  0  0  0  0  0  0  0  0  0
   -0.1729   -0.6779    0.0535 C   0  0  0  0  0  0  0  0  0  0  0  0
   -1.3808    0.8200    0.8281 H   0  0  0  0  0  0  0  0  0  0  0  0
   -1.3828    0.8084   -0.8723 H   0  0  0  0  0  0  0  0  0  0  0  0
   -0.1463   -1.3165    0.9407 H   0  0  0  0  0  0  0  0  0  0  0  0
    0.7487   -0.0846    0.0260 H   0  0  0  0  0  0  0  0  0  0  0  0
   -0.1534   -1.3749   -0.8088 H   0  0  0  0  0  0  0  0  0  0  0  0
  1  3  1  0  0  0  0
  1  5  1  0  0  0  0
  2  1  1  0  0  0  0
  2  8  1  0  0  0  0
  4  1  1  0  0  0  0
  6  2  1  0  0  0  0
  6  9  1  0  0  0  0
  6 10  1  0  0  0  0
  7  2  1  0  0  0  0
  9 12  1  0  0  0  0
 11  6  1  0  0  0  0
 13  9  1  0  0  0  0
 14  9  1  0  0  0  0
M  END
$$$$
