14
butane_opt
C  -3.973507   0.275856  -0.055181
C  -2.631442  -0.596295   0.200413
H  -4.706978  -0.118459  -0.238885
H  -3.746692   1.011473  -1.131221
H  -4.318643   0.701497   0.469652
C  -1.430041   0.093787   0.057393
H  -2.569794  -0.975591  -0.351703
H  -2.724934  -1.537891   1.208439
C  -0.175604  -0.634597  -0.090543
H  -1.287229   0.858460   1.103091
H  -1.413897   0.538071  -0.622869
H  -0.548424  -0.785113   0.440288
H   0.937708   0.118843   0.408983
H  -0.149947  -1.913201  -1.281347
