butane_opt
 OpenBabel08242015403D

 14 10  0  0  0  0  0  0  0  0999 V2000
   -3.9103    0.2058    0.0921 C   0  0  0  0  0  0  0  0  0  0  0  0
   -2.7674   -0.5871   -0.0119 C   0  0  0  0  0  0  0  0  0  0  0  0
   -4.8613   -0.3707   -0.3469 H   0  0  0  0  0  0  0  0  0  0  0  0
   -3.8119    0.2401   -0.5770 H   0  0  0  0  0  0  0  0  0  0  0  0
   -4.3594    1.3460    1.2301 H   0  0  0  0  0  0  0  0  0  0  0  0
   -1.4291    0.3266   -0.0712 C   0  0  0  0  0  0  0  0  0  0  0  0
   -2.9132   -1.2509   -0.9578 H   0  0  0  0  0  0  0  0  0  0  0  0
   -2.8767   -1.2474    0.9707 H   0  0  0  0  0  0  0  0  0  0  0  0
   -0.0704   -0.8137    0.1336 C   0  0  0  0  0  0  0  0  0  0  0  0
   -1.3921    0.6728    0.6382 H   0  0  0  0  0  0  0  0  0  0  0  0
   -1.3160    1.3833   -1.2587 H   0  0  0  0  0  0  0  0  0  0  0  0
    0.1065   -1.2722    0.9172 H   0  0  0  0  0  0  0  0  0  0  0  0
    0.7193   -0.2609   -0.1073 H   0  0  0  0  0  0  0  0  0  0  0  0
   -0.1194   -1.3456   -0.7053 H   0  0  0  0  0  0  0  0  0  0  0  0
  2  1  1  0  0  0  0
  2  8  1  0  0  0  0
  3  1  1  0  0  0  0
  4  1  1  0  0  0  0
  6  9  1  0  0  0  0
  6 10  1  0  0  0  0
  7  2  1  0  0  0  0
  9 12  1  0  0  0  0
 13  9  1  0  0  0  0
 14  9  1  0  0  0  0
M  RAD  5   1   2   2   2   5   2   6   3  11   2
M  END
$$$$
