butane_opt
 OpenBabel08242015403D

 14 13  0  0  0  0  0  0  0  0999 V2000
   -3.9335    0.2578   -0.0096 C   0  0  0  0  0  0  0  0  0  0  0  0
   -2.7140   -0.6031    0.0487 C   0  0  0  0  0  0  0  0  0  0  0  0
   -4.8454   -0.3602    0.2076 H   0  0  0  0  0  0  0  0  0  0  0  0
   -4.0441    1.0018   -0.9810 H   0  0  0  0  0  0  0  0  0  0  0  0
   -3.9082    0.8249    0.7849 H   0  0  0  0  0  0  0  0  0  0  0  0
   -1.4106    0.1874    0.0439 C   0  0  0  0  0  0  0  0  0  0  0  0
   -2.7401   -1.2760   -0.8077 H   0  0  0  0  0  0  0  0  0  0  0  0
   -2.7449   -1.2459    0.9688 H   0  0  0  0  0  0  0  0  0  0  0  0
   -0.1474   -0.7042    0.0145 C   0  0  0  0  0  0  0  0  0  0  0  0
   -1.3642    0.9150    0.9259 H   0  0  0  0  0  0  0  0  0  0  0  0
   -1.3912    0.7849   -0.8491 H   0  0  0  0  0  0  0  0  0  0  0  0
   -0.1180   -1.2438    0.8448 H   0  0  0  0  0  0  0  0  0  0  0  0
    0.7559   -0.1274    0.0377 H   0  0  0  0  0  0  0  0  0  0  0  0
   -0.1473   -1.4000   -0.8781 H   0  0  0  0  0  0  0  0  0  0  0  0
  1  2  1  0  0  0  0
  1  3  1  0  0  0  0
  1  5  1  0  0  0  0
  2  8  1  0  0  0  0
  4  1  1  0  0  0  0
  6  2  1  0  0  0  0
  6 10  1  0  0  0  0
  7  2  1  0  0  0  0
  9 13  1  0  0  0  0
  9  6  1  0  0  0  0
  9 12  1  0  0  0  0
 11  6  1  0  0  0  0
 14  9  1  0  0  0  0
M  END
$$$$
