14
butane_opt
C  -4.007065   0.342556  -0.043434
C  -2.648609  -0.742994   0.180633
H  -4.859992  -0.101106  -0.641549
H  -3.760309   0.725622  -0.940194
H  -4.337699   1.063819   0.745051
C  -1.390178   0.096694   0.118228
H  -2.497977  -1.351716  -0.614078
H  -2.768069  -1.088516   1.000346
C  -0.152716  -0.589328  -0.080877
H  -0.985244   0.708453   0.991183
H  -1.607095   0.891859  -0.886946
H  -0.192760  -1.290100   0.867919
H   0.561895  -0.170643  -0.217855
H  -0.221326  -1.173910  -0.923815
