butane_opt
 OpenBabel08242015403D

 14 13  0  0  0  0  0  0  0  0999 V2000
   -3.8825    0.2367    0.1150 C   0  0  0  0  0  0  0  0  0  0  0  0
   -2.7127   -0.5584    0.0212 C   0  0  0  0  0  0  0  0  0  0  0  0
   -4.8799   -0.4891   -0.6088 H   0  0  0  0  0  0  0  0  0  0  0  0
   -3.5121    0.5340   -0.6922 H   0  0  0  0  0  0  0  0  0  0  0  0
   -4.2049    1.1472    1.2374 H   0  0  0  0  0  0  0  0  0  0  0  0
   -1.4691    0.1702   -0.0569 C   0  0  0  0  0  0  0  0  0  0  0  0
   -2.5346   -1.3478   -0.9358 H   0  0  0  0  0  0  0  0  0  0  0  0
   -2.4852   -0.9344    0.5834 H   0  0  0  0  0  0  0  0  0  0  0  0
   -0.1623   -0.6815    0.1057 C   0  0  0  0  0  0  0  0  0  0  0  0
   -1.4208    0.6830    0.7179 H   0  0  0  0  0  0  0  0  0  0  0  0
   -1.4588    0.9146   -1.1284 H   0  0  0  0  0  0  0  0  0  0  0  0
   -0.2206   -1.7114    1.2089 H   0  0  0  0  0  0  0  0  0  0  0  0
    0.6893   -0.1680   -0.4388 H   0  0  0  0  0  0  0  0  0  0  0  0
   -0.2565   -1.1213   -0.6587 H   0  0  0  0  0  0  0  0  0  0  0  0
  1  5  1  0  0  0  0
  2  1  1  0  0  0  0
  2  8  1  0  0  0  0
  3  1  1  0  0  0  0
  4  1  1  0  0  0  0
  6  2  1  0  0  0  0
  6  9  1  0  0  0  0
  6 10  1  0  0  0  0
  7  2  1  0  0  0  0
  9 12  1  0  0  0  0
 11  6  1  0  0  0  0
 13  9  1  0  0  0  0
 14  9  1  0  0  0  0
M  END
$$$$
