14
butane_opt
C  -3.954938   0.253198  -0.011665
C  -2.704437  -0.598591   0.063866
H  -4.878074  -0.367803   0.057778
H  -3.994424   0.943080  -0.973402
H  -3.940756   0.862021   0.809742
C  -1.401525   0.196349   0.051171
H  -2.725823  -1.264776  -0.781394
H  -2.753259  -1.256817   0.991897
C  -0.143492  -0.700799   0.002729
H  -1.357572   0.851347   0.913126
H  -1.400328   0.838922  -0.838653
H  -0.099764  -1.285403   0.861633
H   0.734682  -0.127696   0.012019
H  -0.145949  -1.469833  -0.903928
