butane_opt
 OpenBabel08242015403D

 14 13  0  0  0  0  0  0  0  0999 V2000
   -3.9559    0.1936    0.0819 C   0  0  0  0  0  0  0  0  0  0  0  0
   -2.6714   -0.5223   -0.1290 C   0  0  0  0  0  0  0  0  0  0  0  0
   -4.8082   -0.4165    0.7716 H   0  0  0  0  0  0  0  0  0  0  0  0
   -4.1384    0.8413   -0.8495 H   0  0  0  0  0  0  0  0  0  0  0  0
   -3.4708    0.7289    0.9156 H   0  0  0  0  0  0  0  0  0  0  0  0
   -1.4366    0.2792   -0.0530 C   0  0  0  0  0  0  0  0  0  0  0  0
   -2.6407   -1.1782   -1.0350 H   0  0  0  0  0  0  0  0  0  0  0  0
   -2.7244   -1.3267    0.7625 H   0  0  0  0  0  0  0  0  0  0  0  0
   -0.1781   -0.7480    0.1464 C   0  0  0  0  0  0  0  0  0  0  0  0
   -1.3403    0.7767    0.7676 H   0  0  0  0  0  0  0  0  0  0  0  0
   -1.4202    0.6662   -0.8543 H   0  0  0  0  0  0  0  0  0  0  0  0
   -0.0497   -1.3451    1.0307 H   0  0  0  0  0  0  0  0  0  0  0  0
    0.5301   -0.2742    0.0156 H   0  0  0  0  0  0  0  0  0  0  0  0
   -0.0344   -1.3469   -0.6100 H   0  0  0  0  0  0  0  0  0  0  0  0
  1  3  1  0  0  0  0
  1  5  1  0  0  0  0
  2  6  1  0  0  0  0
  2  1  1  0  0  0  0
  2  8  1  0  0  0  0
  4  1  1  0  0  0  0
  6  9  1  0  0  0  0
  6 10  1  0  0  0  0
  7  2  1  0  0  0  0
  9 12  1  0  0  0  0
 11  6  1  0  0  0  0
 13  9  1  0  0  0  0
 14  9  1  0  0  0  0
M  END
$$$$
