butane_opt
 OpenBabel08242015403D

 14 11  0  0  0  0  0  0  0  0999 V2000
   -3.8975    0.3450    0.1636 C   0  0  0  0  0  1  0  0  0  0  0  0
   -2.6737   -0.6786   -0.0640 C   0  0  0  0  0  0  0  0  0  0  0  0
   -4.8743   -0.2849   -0.7310 H   0  0  0  0  0  0  0  0  0  0  0  0
   -3.6075    0.1362   -0.1296 H   0  0  0  0  0  0  0  0  0  0  0  0
   -4.1473    1.6693    1.5128 H   0  0  0  0  0  0  0  0  0  0  0  0
   -1.3730    0.1348   -0.2169 C   0  0  0  0  0  0  0  0  0  0  0  0
   -2.9115   -1.3118   -0.8924 H   0  0  0  0  0  0  0  0  0  0  0  0
   -2.4034   -1.4695    0.9361 H   0  0  0  0  0  0  0  0  0  0  0  0
   -0.2600   -0.6673    0.1814 C   0  0  0  0  0  0  0  0  0  0  0  0
   -1.6666    0.6662    0.4695 H   0  0  0  0  0  0  0  0  0  0  0  0
   -1.1788    0.8636   -1.0643 H   0  0  0  0  0  0  0  0  0  0  0  0
   -0.4880   -1.4525    1.1189 H   0  0  0  0  0  0  0  0  0  0  0  0
    0.6259    0.0832   -0.1199 H   0  0  0  0  0  0  0  0  0  0  0  0
    0.0529   -0.9829   -0.3917 H   0  0  0  0  0  0  0  0  0  0  0  0
  2  8  1  0  0  0  0
  3  1  1  0  0  0  0
  4  2  1  0  0  0  0
  6  2  1  0  0  0  0
  6  9  1  0  0  0  0
  6 10  1  0  0  0  0
  7  2  1  0  0  0  0
  9 12  1  0  0  0  0
 11  6  1  0  0  0  0
 13  9  1  0  0  0  0
 14  9  1  0  0  0  0
M  RAD  1   5   2
M  END
$$$$
