butane_opt
 OpenBabel08242015403D

 14 10  0  0  0  0  0  0  0  0999 V2000
   -3.9801    0.2577    0.1265 C   0  0  0  0  0  0  0  0  0  0  0  0
   -2.7078   -0.6061   -0.0582 C   0  0  0  0  0  0  0  0  0  0  0  0
   -5.1442   -0.5596   -0.2769 H   0  0  0  0  0  0  0  0  0  0  0  0
   -3.9217    0.3027   -0.3439 H   0  0  0  0  0  0  0  0  0  0  0  0
   -3.9410    1.5386    1.2801 H   0  0  0  0  0  0  0  0  0  0  0  0
   -1.4288    0.2024   -0.0961 C   0  0  0  0  0  0  0  0  0  0  0  0
   -2.7395   -1.4881   -1.1288 H   0  0  0  0  0  0  0  0  0  0  0  0
   -2.8955   -1.0698    0.6801 H   0  0  0  0  0  0  0  0  0  0  0  0
   -0.0633   -0.7213    0.1716 C   0  0  0  0  0  0  0  0  0  0  0  0
   -1.6579    0.6544    0.4877 H   0  0  0  0  0  0  0  0  0  0  0  0
   -1.2523    1.3077   -1.2052 H   0  0  0  0  0  0  0  0  0  0  0  0
   -0.0311   -1.5984    1.1756 H   0  0  0  0  0  0  0  0  0  0  0  0
    0.7905   -0.2553   -0.4375 H   0  0  0  0  0  0  0  0  0  0  0  0
   -0.0385   -0.9506   -0.4272 H   0  0  0  0  0  0  0  0  0  0  0  0
  2  1  1  0  0  0  0
  2  8  1  0  0  0  0
  3  1  1  0  0  0  0
  6  2  1  0  0  0  0
  6  9  1  0  0  0  0
  6 10  1  0  0  0  0
  7  2  1  0  0  0  0
  9 12  1  0  0  0  0
 13  9  1  0  0  0  0
 14  9  1  0  0  0  0
M  RAD  5   1   3   4   2   5   2   6   2  11   2
M  END
$$$$
