butane_opt
 OpenBabel08242015403D

 14 13  0  0  0  0  0  0  0  0999 V2000
   -4.0032    0.2739    0.1187 C   0  0  0  0  0  0  0  0  0  0  0  0
   -2.7045   -0.6250   -0.1065 C   0  0  0  0  0  0  0  0  0  0  0  0
   -5.1695   -0.5347    0.6149 H   0  0  0  0  0  0  0  0  0  0  0  0
   -4.1840    1.0789   -0.8700 H   0  0  0  0  0  0  0  0  0  0  0  0
   -3.6011    0.8650    0.9558 H   0  0  0  0  0  0  0  0  0  0  0  0
   -1.3896    0.2018   -0.0850 C   0  0  0  0  0  0  0  0  0  0  0  0
   -2.7972   -1.3353   -0.8586 H   0  0  0  0  0  0  0  0  0  0  0  0
   -2.7481   -1.1073    0.6367 H   0  0  0  0  0  0  0  0  0  0  0  0
   -0.0687   -0.6880    0.1742 C   0  0  0  0  0  0  0  0  0  0  0  0
   -1.3467    0.5604    0.4893 H   0  0  0  0  0  0  0  0  0  0  0  0
   -1.4394    1.0253   -1.1118 H   0  0  0  0  0  0  0  0  0  0  0  0
   -0.4438   -1.0837    0.8311 H   0  0  0  0  0  0  0  0  0  0  0  0
    0.6059   -0.2244    0.4196 H   0  0  0  0  0  0  0  0  0  0  0  0
    0.1221   -1.7085   -0.9102 H   0  0  0  0  0  0  0  0  0  0  0  0
  1  3  1  0  0  0  0
  1  5  1  0  0  0  0
  2  6  1  0  0  0  0
  2  1  1  0  0  0  0
  2  8  1  0  0  0  0
  4  1  1  0  0  0  0
  6  9  1  0  0  0  0
  6 10  1  0  0  0  0
  7  2  1  0  0  0  0
  9 13  1  0  0  0  0
  9 12  1  0  0  0  0
 11  6  1  0  0  0  0
 14  9  1  0  0  0  0
M  END
$$$$
