butane_opt
 OpenBabel08242015403D

 14 12  0  0  0  0  0  0  0  0999 V2000
   -3.9023    0.2130   -0.1929 C   0  0  0  0  0  0  0  0  0  0  0  0
   -2.7243   -0.4865    0.1927 C   0  0  0  0  0  0  0  0  0  0  0  0
   -5.0064   -0.5225    0.1742 H   0  0  0  0  0  0  0  0  0  0  0  0
   -3.6915    0.8535   -1.1673 H   0  0  0  0  0  0  0  0  0  0  0  0
   -3.8789    0.4719    0.4660 H   0  0  0  0  0  0  0  0  0  0  0  0
   -1.4418    0.1969    0.2637 C   0  0  0  0  0  0  0  0  0  0  0  0
   -2.6256   -1.1057   -0.5792 H   0  0  0  0  0  0  0  0  0  0  0  0
   -2.7529   -1.2017    0.9915 H   0  0  0  0  0  0  0  0  0  0  0  0
   -0.1171   -0.7130   -0.1473 C   0  0  0  0  0  0  0  0  0  0  0  0
   -1.3786    1.1371    1.3277 H   0  0  0  0  0  0  0  0  0  0  0  0
   -1.8353    0.5086   -0.3651 H   0  0  0  0  0  0  0  0  0  0  0  0
    0.1960   -1.6730    0.9481 H   0  0  0  0  0  0  0  0  0  0  0  0
    0.5313   -0.3083   -0.6858 H   0  0  0  0  0  0  0  0  0  0  0  0
   -0.3499   -1.1812   -1.0538 H   0  0  0  0  0  0  0  0  0  0  0  0
  1  3  1  0  0  0  0
  1  2  1  0  0  0  0
  1  5  1  0  0  0  0
  2  8  1  0  0  0  0
  4  1  1  0  0  0  0
  6 10  1  0  0  0  0
  7  2  1  0  0  0  0
  9  6  1  0  0  0  0
  9 12  1  0  0  0  0
 11  6  1  0  0  0  0
 13  9  1  0  0  0  0
 14  9  1  0  0  0  0
M  RAD  2   2   2   6   2
M  END
$$$$
