14
butane_opt
C  -3.963295   0.258416   0.037379
C  -2.697285  -0.615700   0.015188
H  -4.877789  -0.359802   0.095319
H  -4.014681   0.953057  -0.881091
H  -3.903689   0.913032   0.902804
C  -1.402877   0.196702  -0.002325
H  -2.713622  -1.349261  -0.876511
H  -2.699001  -1.166481   0.850694
C  -0.150132  -0.700539   0.048164
H  -1.375361   0.851981   0.840448
H  -1.371651   0.803025  -0.899840
H  -0.143418  -1.364510   0.981053
H   0.771400  -0.113029  -0.002226
H  -0.126684  -1.301525  -0.750421
