butane_opt
 OpenBabel08242015403D

 14 12  0  0  0  0  0  0  0  0999 V2000
   -3.9243    0.2251   -0.1542 C   0  0  0  0  0  0  0  0  0  0  0  0
   -2.7578   -0.5660    0.2468 C   0  0  0  0  0  0  0  0  0  0  0  0
   -4.8889   -0.4874   -0.5753 H   0  0  0  0  0  0  0  0  0  0  0  0
   -3.6831    0.5516   -0.9347 H   0  0  0  0  0  0  0  0  0  0  0  0
   -4.2866    1.0487    0.6976 H   0  0  0  0  0  0  0  0  0  0  0  0
   -1.4459    0.2902    0.1523 C   0  0  0  0  0  0  0  0  0  0  0  0
   -2.6935   -1.0692   -0.4003 H   0  0  0  0  0  0  0  0  0  0  0  0
   -2.6643   -1.8140    1.4579 H   0  0  0  0  0  0  0  0  0  0  0  0
   -0.1026   -0.7279   -0.1203 C   0  0  0  0  0  0  0  0  0  0  0  0
   -1.3131    1.1589    1.0406 H   0  0  0  0  0  0  0  0  0  0  0  0
   -1.4978    0.6512   -0.6136 H   0  0  0  0  0  0  0  0  0  0  0  0
    0.2286   -1.0785    0.6387 H   0  0  0  0  0  0  0  0  0  0  0  0
    0.6389   -0.4885   -0.2593 H   0  0  0  0  0  0  0  0  0  0  0  0
   -0.0620   -1.6198   -1.1364 H   0  0  0  0  0  0  0  0  0  0  0  0
  1  2  1  0  0  0  0
  1  5  1  0  0  0  0
  3  1  1  0  0  0  0
  4  1  1  0  0  0  0
  6  2  1  0  0  0  0
  6 10  1  0  0  0  0
  7  2  1  0  0  0  0
  9  6  1  0  0  0  0
  9 12  1  0  0  0  0
 11  6  1  0  0  0  0
 13  9  1  0  0  0  0
 14  9  1  0  0  0  0
M  RAD  2   2   2   8   2
M  END
$$$$
