butane_opt
 OpenBabel08242015403D

 14 13  0  0  0  0  0  0  0  0999 V2000
   -3.9971    0.3139    0.1972 C   0  0  0  0  0  0  0  0  0  0  0  0
   -2.6863   -0.6498   -0.1849 C   0  0  0  0  0  0  0  0  0  0  0  0
   -4.7354   -0.1709    0.7587 H   0  0  0  0  0  0  0  0  0  0  0  0
   -4.6298    1.0456   -0.7683 H   0  0  0  0  0  0  0  0  0  0  0  0
   -3.6692    0.6014    0.8934 H   0  0  0  0  0  0  0  0  0  0  0  0
   -1.3827    0.1381   -0.1742 C   0  0  0  0  0  0  0  0  0  0  0  0
   -2.6323   -1.6347   -1.2966 H   0  0  0  0  0  0  0  0  0  0  0  0
   -2.6719   -1.0889    0.6939 H   0  0  0  0  0  0  0  0  0  0  0  0
   -0.1614   -0.6300    0.1961 C   0  0  0  0  0  0  0  0  0  0  0  0
   -1.1436    0.9580    0.7462 H   0  0  0  0  0  0  0  0  0  0  0  0
   -1.0827    0.6888   -1.1324 H   0  0  0  0  0  0  0  0  0  0  0  0
   -0.4089   -1.5650    1.2413 H   0  0  0  0  0  0  0  0  0  0  0  0
    0.6664   -0.1149    0.4478 H   0  0  0  0  0  0  0  0  0  0  0  0
    0.0176   -1.2388   -0.5285 H   0  0  0  0  0  0  0  0  0  0  0  0
  1  3  1  0  0  0  0
  1  5  1  0  0  0  0
  2  6  1  0  0  0  0
  2  1  1  0  0  0  0
  2  8  1  0  0  0  0
  4  1  1  0  0  0  0
  6  9  1  0  0  0  0
  6 10  1  0  0  0  0
  7  2  1  0  0  0  0
  9 13  1  0  0  0  0
  9 12  1  0  0  0  0
 11  6  1  0  0  0  0
 14  9  1  0  0  0  0
M  END
$$$$
