14
butane_opt
C  -3.955943   0.193624   0.081864
C  -2.671379  -0.522260  -0.128962
H  -4.808193  -0.416525   0.771636
H  -4.138414   0.841256  -0.849475
H  -3.470784   0.728927   0.915566
C  -1.436606   0.279176  -0.053007
H  -2.640674  -1.178235  -1.035047
H  -2.724447  -1.326704   0.762524
C  -0.178072  -0.748034   0.146366
H  -1.340328   0.776686   0.767589
H  -1.420239   0.666206  -0.854312
H  -0.049710  -1.345143   1.030737
H   0.530148  -0.274234   0.015561
H  -0.034432  -1.346882  -0.609995
