butane_opt
 OpenBabel08242015403D

 14 11  0  0  0  0  0  0  0  0999 V2000
   -4.0087    0.3314    0.2012 C   0  0  0  0  0  0  0  0  0  0  0  0
   -2.7277   -0.7136   -0.1493 C   0  0  0  0  0  0  0  0  0  0  0  0
   -4.7320   -0.1579    0.2643 H   0  0  0  0  0  0  0  0  0  0  0  0
   -4.4607    0.6806   -0.3778 H   0  0  0  0  0  0  0  0  0  0  0  0
   -3.8305    1.2982    1.2184 H   0  0  0  0  0  0  0  0  0  0  0  0
   -1.3851    0.0969   -0.2067 C   0  0  0  0  0  0  0  0  0  0  0  0
   -2.7608   -1.3148   -0.9660 H   0  0  0  0  0  0  0  0  0  0  0  0
   -2.3906   -1.2647    0.6724 H   0  0  0  0  0  0  0  0  0  0  0  0
   -0.0819   -0.6440    0.2198 C   0  0  0  0  0  0  0  0  0  0  0  0
   -1.5480    0.3855    0.3017 H   0  0  0  0  0  0  0  0  0  0  0  0
   -1.1921    1.1924   -1.5913 H   0  0  0  0  0  0  0  0  0  0  0  0
   -0.8433   -0.7285    1.0204 H   0  0  0  0  0  0  0  0  0  0  0  0
    0.8719    0.1053    0.7954 H   0  0  0  0  0  0  0  0  0  0  0  0
    0.2834   -1.5266   -0.7063 H   0  0  0  0  0  0  0  0  0  0  0  0
  1  3  1  0  0  0  0
  1  5  1  0  0  0  0
  2  1  1  0  0  0  0
  2  8  1  0  0  0  0
  4  1  1  0  0  0  0
  6  2  1  0  0  0  0
  6  9  1  0  0  0  0
  7  2  1  0  0  0  0
  9 13  1  0  0  0  0
  9 12  1  0  0  0  0
 14  9  1  0  0  0  0
M  RAD  3   6   3  10   2  11   2
M  END
$$$$
