butane_opt
 OpenBabel08242015403D

 14 13  0  0  0  0  0  0  0  0999 V2000
   -3.9103    0.2259    0.1615 C   0  0  0  0  0  0  0  0  0  0  0  0
   -2.7904   -0.5656   -0.0704 C   0  0  0  0  0  0  0  0  0  0  0  0
   -5.0695   -0.4228    0.3071 H   0  0  0  0  0  0  0  0  0  0  0  0
   -4.1067    0.7999   -0.7057 H   0  0  0  0  0  0  0  0  0  0  0  0
   -3.8083    0.8046    0.9639 H   0  0  0  0  0  0  0  0  0  0  0  0
   -1.4063    0.3037   -0.1982 C   0  0  0  0  0  0  0  0  0  0  0  0
   -2.9283   -1.5430   -1.1317 H   0  0  0  0  0  0  0  0  0  0  0  0
   -2.5942   -1.2463    0.8184 H   0  0  0  0  0  0  0  0  0  0  0  0
   -0.1163   -0.7681    0.1458 C   0  0  0  0  0  0  0  0  0  0  0  0
   -1.5478    0.9821    0.6847 H   0  0  0  0  0  0  0  0  0  0  0  0
   -1.0514    0.9495   -0.9809 H   0  0  0  0  0  0  0  0  0  0  0  0
   -0.1586   -1.3379    1.0486 H   0  0  0  0  0  0  0  0  0  0  0  0
    0.5890   -0.3986    0.5908 H   0  0  0  0  0  0  0  0  0  0  0  0
    0.3819   -1.4572   -0.6455 H   0  0  0  0  0  0  0  0  0  0  0  0
  1  3  1  0  0  0  0
  1  5  1  0  0  0  0
  2  1  1  0  0  0  0
  2  8  1  0  0  0  0
  4  1  1  0  0  0  0
  6  2  1  0  0  0  0
  6  9  1  0  0  0  0
  6 10  1  0  0  0  0
  7  2  1  0  0  0  0
  9 13  1  0  0  0  0
  9 12  1  0  0  0  0
 11  6  1  0  0  0  0
 14  9  1  0  0  0  0
M  END
$$$$
