butane_opt
 OpenBabel08242015403D

 14 11  0  0  0  0  0  0  0  0999 V2000
   -3.9832    0.3105    0.1590 C   0  0  0  0  0  0  0  0  0  0  0  0
   -2.7076   -0.6829   -0.0888 C   0  0  0  0  0  0  0  0  0  0  0  0
   -4.7562   -0.1266   -0.2707 H   0  0  0  0  0  0  0  0  0  0  0  0
   -3.8960    0.3327   -0.3427 H   0  0  0  0  0  0  0  0  0  0  0  0
   -4.0713    1.7218    1.5180 H   0  0  0  0  0  0  0  0  0  0  0  0
   -1.3285    0.1111   -0.2011 C   0  0  0  0  0  0  0  0  0  0  0  0
   -2.9540   -1.3994   -0.8974 H   0  0  0  0  0  0  0  0  0  0  0  0
   -2.5015   -1.3753    0.8675 H   0  0  0  0  0  0  0  0  0  0  0  0
   -0.1906   -0.6214    0.1779 C   0  0  0  0  0  0  0  0  0  0  0  0
   -1.3453    0.6501    0.4524 H   0  0  0  0  0  0  0  0  0  0  0  0
   -1.2878    1.1100   -1.2804 H   0  0  0  0  0  0  0  0  0  0  0  0
   -0.5747   -1.4319    1.0459 H   0  0  0  0  0  0  0  0  0  0  0  0
    0.5787   -0.2309    0.3510 H   0  0  0  0  0  0  0  0  0  0  0  0
    0.2852   -1.1328   -0.4925 H   0  0  0  0  0  0  0  0  0  0  0  0
  2  1  1  0  0  0  0
  2  8  1  0  0  0  0
  3  1  1  0  0  0  0
  6  2  1  0  0  0  0
  6  9  1  0  0  0  0
  6 10  1  0  0  0  0
  7  2  1  0  0  0  0
  9 13  1  0  0  0  0
  9 12  1  0  0  0  0
 11  6  1  0  0  0  0
 14  9  1  0  0  0  0
M  RAD  3   1   3   4   2   5   2
M  END
$$$$
