14
butane_opt
C  -3.890646   0.197028   0.017158
C  -2.723888  -0.500289   0.130967
H  -4.936919  -0.557925  -0.495107
H  -3.501611   0.246558  -0.588619
H  -4.089236   1.414457   1.197315
C  -1.404785   0.291960  -0.063568
H  -2.720698  -1.585424  -0.995704
H  -2.651605  -1.121088   0.976268
C  -0.226607  -0.795658   0.048314
H  -1.306598   0.731295   0.704709
H  -1.442702   1.054635  -1.076829
H  -0.086840  -1.585378   0.936073
H   0.582768  -0.116050  -0.066680
H   0.116837  -1.285275  -0.660339
