14
butane_opt
C  -3.869407   0.223682  -0.182418
C  -2.757219  -0.544877   0.310076
H  -4.827037  -0.528392  -0.373984
H  -3.297430   0.756716  -0.948601
H  -3.952330   1.043847   0.813692
C  -1.432992   0.208517   0.097091
H  -2.660699  -0.980944  -0.374618
H  -2.923379  -1.256253   1.294615
C  -0.160139  -0.766906  -0.153959
H  -1.457047   1.121925   1.063149
H  -1.753571   0.647078  -0.460580
H  -0.253972  -1.054446   0.495419
H   0.818411  -0.147751   0.118298
H  -0.077231  -1.540864  -1.048581
