14
butane_opt
C  -3.997083   0.313884   0.197157
C  -2.686318  -0.649759  -0.184888
H  -4.735380  -0.170943   0.758709
H  -4.629765   1.045613  -0.768269
H  -3.669235   0.601379   0.893430
C  -1.382690   0.138105  -0.174221
H  -2.632335  -1.634716  -1.296574
H  -2.671866  -1.088872   0.693893
C  -0.161397  -0.629961   0.196077
H  -1.143587   0.958015   0.746187
H  -1.082661   0.688817  -1.132447
H  -0.408933  -1.565039   1.241319
H   0.666364  -0.114934   0.447827
H   0.017623  -1.238803  -0.528451
