butane_opt
 OpenBabel08242015403D

 14 11  0  0  0  0  0  0  0  0999 V2000
   -4.0026    0.3372    0.1516 C   0  0  0  0  0  1  0  0  0  0  0  0
   -2.7254   -0.6937   -0.0083 C   0  0  0  0  0  0  0  0  0  0  0  0
   -4.8177   -0.0321   -0.6520 H   0  0  0  0  0  0  0  0  0  0  0  0
   -3.8068    0.3048   -0.2571 H   0  0  0  0  0  0  0  0  0  0  0  0
   -4.5102    1.5379    1.2955 H   0  0  0  0  0  0  0  0  0  0  0  0
   -1.3830    0.1147   -0.1921 C   0  0  0  0  0  0  0  0  0  0  0  0
   -2.7111   -1.4602   -1.0008 H   0  0  0  0  0  0  0  0  0  0  0  0
   -2.4780   -1.4951    0.9300 H   0  0  0  0  0  0  0  0  0  0  0  0
   -0.1203   -0.6484    0.1262 C   0  0  0  0  0  0  0  0  0  0  0  0
   -1.5137    0.8160    0.7176 H   0  0  0  0  0  0  0  0  0  0  0  0
   -1.2204    0.7519   -1.2528 H   0  0  0  0  0  0  0  0  0  0  0  0
   -0.2696   -1.4837    1.2170 H   0  0  0  0  0  0  0  0  0  0  0  0
    1.1132    0.1804    0.2021 H   0  0  0  0  0  0  0  0  0  0  0  0
   -0.0940   -0.8690   -0.5823 H   0  0  0  0  0  0  0  0  0  0  0  0
  2  8  1  0  0  0  0
  3  1  1  0  0  0  0
  4  2  1  0  0  0  0
  6  2  1  0  0  0  0
  6  9  1  0  0  0  0
  6 10  1  0  0  0  0
  7  2  1  0  0  0  0
  9 13  1  0  0  0  0
  9 12  1  0  0  0  0
 11  6  1  0  0  0  0
 14  9  1  0  0  0  0
M  RAD  1   5   2
M  END
$$$$
