14
butane_opt
C  -3.984597   0.304483  -0.133398
C  -2.750706  -0.714607   0.212326
H  -4.509503   0.032605  -0.317651
H  -4.001396   1.075210  -1.190551
H  -4.292984   0.870331   0.711427
C  -1.350057   0.140324   0.220499
H  -2.644974  -1.458532  -0.705164
H  -2.781257  -1.082453   0.822910
C  -0.148462  -0.652966  -0.106763
H  -1.331181   1.031882   1.160558
H  -1.302191   0.676697  -0.531647
H   0.315672  -1.528549   0.911058
H   0.794766  -0.071872  -0.890802
H  -0.509597  -0.890500  -0.847651
