butane_opt
 OpenBabel08242015403D

 14 13  0  0  0  0  0  0  0  0999 V2000
   -3.9326    0.2560    0.0360 C   0  0  0  0  0  0  0  0  0  0  0  0
   -2.7079   -0.6094    0.0041 C   0  0  0  0  0  0  0  0  0  0  0  0
   -4.8276   -0.3452    0.0418 H   0  0  0  0  0  0  0  0  0  0  0  0
   -3.9964    0.8528   -0.8296 H   0  0  0  0  0  0  0  0  0  0  0  0
   -3.9238    0.9780    0.9467 H   0  0  0  0  0  0  0  0  0  0  0  0
   -1.4036    0.2064    0.0084 C   0  0  0  0  0  0  0  0  0  0  0  0
   -2.7170   -1.3422   -0.9014 H   0  0  0  0  0  0  0  0  0  0  0  0
   -2.7330   -1.2357    0.8834 H   0  0  0  0  0  0  0  0  0  0  0  0
   -0.1678   -0.7108    0.0554 C   0  0  0  0  0  0  0  0  0  0  0  0
   -1.3997    0.8354    0.8392 H   0  0  0  0  0  0  0  0  0  0  0  0
   -1.4134    0.8673   -0.9220 H   0  0  0  0  0  0  0  0  0  0  0  0
   -0.0943   -1.4223    1.0289 H   0  0  0  0  0  0  0  0  0  0  0  0
    0.7807   -0.0854   -0.1307 H   0  0  0  0  0  0  0  0  0  0  0  0
   -0.1564   -1.2697   -0.7466 H   0  0  0  0  0  0  0  0  0  0  0  0
  1  3  1  0  0  0  0
  1  5  1  0  0  0  0
  2  6  1  0  0  0  0
  2  1  1  0  0  0  0
  2  8  1  0  0  0  0
  4  1  1  0  0  0  0
  6  9  1  0  0  0  0
  6 10  1  0  0  0  0
  7  2  1  0  0  0  0
  9 12  1  0  0  0  0
 11  6  1  0  0  0  0
 13  9  1  0  0  0  0
 14  9  1  0  0  0  0
M  END
$$$$
