14
butane_opt
C  -3.967224   0.330584  -0.090374
C  -2.608246  -0.677697   0.217774
H  -4.705444  -0.111422  -0.498189
H  -3.924308   0.605278  -0.797083
H  -4.303374   1.089887   0.772929
C  -1.387054   0.122757   0.085366
H  -2.693533  -1.523258  -0.637322
H  -2.681278  -1.343832   1.160871
C  -0.267264  -0.635884  -0.073182
H  -1.041232   0.696189   0.925960
H  -1.476287   0.967774  -0.908427
H  -0.299895  -1.025407   0.786201
H   0.888706  -0.000254  -0.014553
H  -0.077998  -1.468723  -1.042355
