butane_opt
 OpenBabel08242015403D

 14 13  0  0  0  0  0  0  0  0999 V2000
   -3.9452    0.2568    0.0223 C   0  0  0  0  0  0  0  0  0  0  0  0
   -2.7080   -0.6070    0.0344 C   0  0  0  0  0  0  0  0  0  0  0  0
   -4.8355   -0.3569   -0.0338 H   0  0  0  0  0  0  0  0  0  0  0  0
   -3.9393    0.8325   -0.8663 H   0  0  0  0  0  0  0  0  0  0  0  0
   -3.9990    0.9602    0.8801 H   0  0  0  0  0  0  0  0  0  0  0  0
   -1.4074    0.1918    0.0169 C   0  0  0  0  0  0  0  0  0  0  0  0
   -2.7208   -1.2690   -0.8132 H   0  0  0  0  0  0  0  0  0  0  0  0
   -2.7555   -1.2317    0.9211 H   0  0  0  0  0  0  0  0  0  0  0  0
   -0.1422   -0.6932    0.0282 C   0  0  0  0  0  0  0  0  0  0  0  0
   -1.4077    0.9173    0.8632 H   0  0  0  0  0  0  0  0  0  0  0  0
   -1.4223    0.7824   -0.8373 H   0  0  0  0  0  0  0  0  0  0  0  0
   -0.0704   -1.4500    1.0173 H   0  0  0  0  0  0  0  0  0  0  0  0
    0.7427   -0.1280   -0.0992 H   0  0  0  0  0  0  0  0  0  0  0  0
   -0.1805   -1.3107   -0.7959 H   0  0  0  0  0  0  0  0  0  0  0  0
  1  2  1  0  0  0  0
  1  5  1  0  0  0  0
  2  8  1  0  0  0  0
  3  1  1  0  0  0  0
  4  1  1  0  0  0  0
  6  9  1  0  0  0  0
  6  2  1  0  0  0  0
  6 10  1  0  0  0  0
  7  2  1  0  0  0  0
  9 12  1  0  0  0  0
 11  6  1  0  0  0  0
 13  9  1  0  0  0  0
 14  9  1  0  0  0  0
M  END
$$$$
