butane_opt
 OpenBabel08242015403D

 14 12  0  0  0  0  0  0  0  0999 V2000
   -3.9880    0.1967   -0.0570 C   0  0  0  0  0  0  0  0  0  0  0  0
   -2.7366   -0.5938    0.1007 C   0  0  0  0  0  0  0  0  0  0  0  0
   -4.8893   -0.2263    0.0796 H   0  0  0  0  0  0  0  0  0  0  0  0
   -3.8819    1.0030   -1.1852 H   0  0  0  0  0  0  0  0  0  0  0  0
   -4.1395    0.6566    0.5665 H   0  0  0  0  0  0  0  0  0  0  0  0
   -1.3999    0.2588    0.1235 C   0  0  0  0  0  0  0  0  0  0  0  0
   -2.6762   -1.2917   -0.7854 H   0  0  0  0  0  0  0  0  0  0  0  0
   -2.5341   -1.2764    0.9895 H   0  0  0  0  0  0  0  0  0  0  0  0
   -0.1004   -0.7071   -0.0423 C   0  0  0  0  0  0  0  0  0  0  0  0
   -1.1498    1.3790    1.3158 H   0  0  0  0  0  0  0  0  0  0  0  0
   -1.5747    0.6597   -0.7505 H   0  0  0  0  0  0  0  0  0  0  0  0
    0.3796   -1.5987    0.9620 H   0  0  0  0  0  0  0  0  0  0  0  0
    0.4956   -0.4241   -0.3842 H   0  0  0  0  0  0  0  0  0  0  0  0
   -0.3241   -1.2394   -0.8400 H   0  0  0  0  0  0  0  0  0  0  0  0
  1  3  1  0  0  0  0
  1  2  1  0  0  0  0
  1  5  1  0  0  0  0
  2  6  1  0  0  0  0
  2  8  1  0  0  0  0
  4  1  1  0  0  0  0
  7  2  1  0  0  0  0
  9  6  1  0  0  0  0
  9 12  1  0  0  0  0
 11  6  1  0  0  0  0
 13  9  1  0  0  0  0
 14  9  1  0  0  0  0
M  RAD  2   6   2  10   2
M  END
$$$$
