butane_opt
 OpenBabel08242015403D

 14 11  0  0  0  0  0  0  0  0999 V2000
   -3.9701    0.3330   -0.0530 C   0  0  0  0  0  0  0  0  0  0  0  0
   -2.7273   -0.6740    0.1077 C   0  0  0  0  0  0  0  0  0  0  0  0
   -4.8810   -0.2344    0.3431 H   0  0  0  0  0  0  0  0  0  0  0  0
   -4.3269    1.2905   -1.1509 H   0  0  0  0  0  0  0  0  0  0  0  0
   -3.9446    0.7329    0.5398 H   0  0  0  0  0  0  0  0  0  0  0  0
   -1.3901    0.1343    0.0800 C   0  0  0  0  0  0  0  0  0  0  0  0
   -2.7961   -1.2459   -0.6570 H   0  0  0  0  0  0  0  0  0  0  0  0
   -2.5918   -1.5348    0.9518 H   0  0  0  0  0  0  0  0  0  0  0  0
   -0.1313   -0.6348   -0.0006 C   0  0  0  0  0  0  0  0  0  0  0  0
   -1.3406    0.6649    0.8689 H   0  0  0  0  0  0  0  0  0  0  0  0
   -1.0379    0.6689   -0.7472 H   0  0  0  0  0  0  0  0  0  0  0  0
   -0.2189   -0.8200    0.5551 H   0  0  0  0  0  0  0  0  0  0  0  0
    0.8937    0.0958    0.2147 H   0  0  0  0  0  0  0  0  0  0  0  0
   -0.1813   -1.9510   -1.2160 H   0  0  0  0  0  0  0  0  0  0  0  0
  1  2  1  0  0  0  0
  1  3  1  0  0  0  0
  1  5  1  0  0  0  0
  2  8  1  0  0  0  0
  4  1  1  0  0  0  0
  6  2  1  0  0  0  0
  6 10  1  0  0  0  0
  7  2  1  0  0  0  0
  9  6  1  0  0  0  0
  9 13  1  0  0  0  0
 11  6  1  0  0  0  0
M  RAD  3   9   3  12   2  14   2
M  END
$$$$
