14
butane_opt
C  -3.926520   0.326474  -0.098512
C  -2.657573  -0.695478   0.195712
H  -4.566713  -0.084825   0.189025
H  -3.676625   1.388121  -1.299300
H  -4.163930   0.623122   0.467630
C  -1.355215   0.106400   0.073515
H  -2.725020  -1.030158  -0.409106
H  -2.662427  -1.670568   1.342593
C  -0.268342  -0.633869  -0.085966
H  -1.191201   0.897141   0.996330
H  -1.655995   0.564752  -0.447010
H  -0.502726  -0.496279   0.232820
H   0.669525   0.093880   0.733990
H  -0.103080  -1.972206  -1.484615
