14
butane_opt
C  -3.899345   0.257266  -0.095302
C  -2.691163  -0.573865   0.227303
H  -4.829145  -0.475035   0.238671
H  -3.603516   1.133650  -1.165253
H  -3.980759   0.752899   0.532951
C  -1.407711   0.187294   0.053318
H  -2.802120  -1.275969  -0.635496
H  -2.909254  -1.315454   1.246930
C  -0.170589  -0.731239  -0.052888
H  -1.609188   0.868144   1.040799
H  -1.365624   0.886564  -0.944989
H  -0.444987  -0.598613   0.227663
H   0.801013  -0.145413   0.637182
H  -0.241079  -1.979218  -1.409370
