butane_opt
 OpenBabel08242015403D

 14 12  0  0  0  0  0  0  0  0999 V2000
   -3.9068    0.2990   -0.1969 C   0  0  0  0  0  0  0  0  0  0  0  0
   -2.6666   -0.6444    0.3152 C   0  0  0  0  0  0  0  0  0  0  0  0
   -4.7834   -0.2270   -0.7690 H   0  0  0  0  0  0  0  0  0  0  0  0
   -3.5875    0.5035   -0.7688 H   0  0  0  0  0  0  0  0  0  0  0  0
   -4.3133    1.2077    0.8535 H   0  0  0  0  0  0  0  0  0  0  0  0
   -1.3896    0.1667    0.1456 C   0  0  0  0  0  0  0  0  0  0  0  0
   -2.1132   -1.1474   -0.2318 H   0  0  0  0  0  0  0  0  0  0  0  0
   -2.8100   -1.7129    1.4441 H   0  0  0  0  0  0  0  0  0  0  0  0
   -0.2570   -0.6581   -0.1531 C   0  0  0  0  0  0  0  0  0  0  0  0
   -1.0550    1.1164    1.1357 H   0  0  0  0  0  0  0  0  0  0  0  0
   -1.5525    0.6752   -0.7402 H   0  0  0  0  0  0  0  0  0  0  0  0
   -0.3402   -1.1082    0.5438 H   0  0  0  0  0  0  0  0  0  0  0  0
    0.6611   -0.1269   -0.2013 H   0  0  0  0  0  0  0  0  0  0  0  0
   -0.4732   -1.6212   -1.1308 H   0  0  0  0  0  0  0  0  0  0  0  0
  1  2  1  0  0  0  0
  1  5  1  0  0  0  0
  3  1  1  0  0  0  0
  4  1  1  0  0  0  0
  6  2  1  0  0  0  0
  6 10  1  0  0  0  0
  7  2  1  0  0  0  0
  9  6  1  0  0  0  0
  9 12  1  0  0  0  0
 11  6  1  0  0  0  0
 13  9  1  0  0  0  0
 14  9  1  0  0  0  0
M  RAD  2   2   2   8   2
M  END
$$$$
