14
butane_opt
C  -3.925819   0.213009   0.061335
C  -2.754386  -0.643893   0.036679
H  -4.959753  -0.375716   0.046863
H  -3.708162   0.708385  -0.723510
H  -4.088234   1.065997   1.005320
C  -1.425313   0.295560  -0.124374
H  -2.835652  -1.012928  -0.692812
H  -2.744928  -1.201734   0.948502
C  -0.104123  -0.743494   0.105429
H  -1.681394   1.137646   0.698519
H  -1.556776   0.786121  -0.999610
H   0.030105  -1.200167   0.734153
H   0.721918  -0.160939   0.377657
H   0.300594  -1.719577  -0.890390
