butane_opt
 OpenBabel08242015403D

 14 13  0  0  0  0  0  0  0  0999 V2000
   -3.9692    0.3130   -0.0218 C   0  0  0  0  0  0  0  0  0  0  0  0
   -2.6844   -0.6258    0.1660 C   0  0  0  0  0  0  0  0  0  0  0  0
   -4.7513   -0.3765   -0.6254 H   0  0  0  0  0  0  0  0  0  0  0  0
   -3.7276    0.6142   -0.7139 H   0  0  0  0  0  0  0  0  0  0  0  0
   -4.0744    1.2022    0.9594 H   0  0  0  0  0  0  0  0  0  0  0  0
   -1.3471    0.1130    0.0286 C   0  0  0  0  0  0  0  0  0  0  0  0
   -2.4974   -1.1041   -0.6749 H   0  0  0  0  0  0  0  0  0  0  0  0
   -2.5681   -1.2682    1.0235 H   0  0  0  0  0  0  0  0  0  0  0  0
   -0.2623   -0.6624   -0.0651 C   0  0  0  0  0  0  0  0  0  0  0  0
   -1.2358    0.7251    0.8237 H   0  0  0  0  0  0  0  0  0  0  0  0
   -1.4434    0.6875   -0.8191 H   0  0  0  0  0  0  0  0  0  0  0  0
   -0.4495   -1.4517    0.9061 H   0  0  0  0  0  0  0  0  0  0  0  0
    0.8647    0.1271    0.2014 H   0  0  0  0  0  0  0  0  0  0  0  0
   -0.0196   -1.2678   -0.9014 H   0  0  0  0  0  0  0  0  0  0  0  0
  1  2  1  0  0  0  0
  1  5  1  0  0  0  0
  2  8  1  0  0  0  0
  3  1  1  0  0  0  0
  4  1  1  0  0  0  0
  6  2  1  0  0  0  0
  6 10  1  0  0  0  0
  7  2  1  0  0  0  0
  9  6  1  0  0  0  0
  9 13  1  0  0  0  0
  9 12  1  0  0  0  0
 11  6  1  0  0  0  0
 14  9  1  0  0  0  0
M  END
$$$$
