butane_opt
 OpenBabel08242015403D

 14 10  0  0  0  0  0  0  0  0999 V2000
   -3.9477    0.3220   -0.1134 C   0  0  0  0  0  0  0  0  0  0  0  0
   -2.6693   -0.6282    0.1789 C   0  0  0  0  0  0  0  0  0  0  0  0
   -5.0229   -0.4563    0.3522 H   0  0  0  0  0  0  0  0  0  0  0  0
   -3.9294    1.3902   -1.3308 H   0  0  0  0  0  0  0  0  0  0  0  0
   -4.0225    0.4430    0.2588 H   0  0  0  0  0  0  0  0  0  0  0  0
   -1.4148    0.1179    0.1573 C   0  0  0  0  0  0  0  0  0  0  0  0
   -2.5509   -1.3252   -0.7764 H   0  0  0  0  0  0  0  0  0  0  0  0
   -2.8387   -1.4965    1.1763 H   0  0  0  0  0  0  0  0  0  0  0  0
   -0.1523   -0.6594   -0.1006 C   0  0  0  0  0  0  0  0  0  0  0  0
   -1.2467    1.2272    1.2470 H   0  0  0  0  0  0  0  0  0  0  0  0
   -1.5088    0.4538   -0.3725 H   0  0  0  0  0  0  0  0  0  0  0  0
   -0.1943   -1.0091    0.6676 H   0  0  0  0  0  0  0  0  0  0  0  0
    0.7493    0.0245   -0.2052 H   0  0  0  0  0  0  0  0  0  0  0  0
   -0.2447   -1.5605   -1.1210 H   0  0  0  0  0  0  0  0  0  0  0  0
  1  2  1  0  0  0  0
  1  3  1  0  0  0  0
  2  8  1  0  0  0  0
  6  2  1  0  0  0  0
  7  2  1  0  0  0  0
  9  6  1  0  0  0  0
  9 12  1  0  0  0  0
 11  6  1  0  0  0  0
 13  9  1  0  0  0  0
 14  9  1  0  0  0  0
M  RAD  5   1   3   4   2   5   2   6   2  10   2
M  END
$$$$
