14
butane_opt
C  -4.033183   0.340952   0.160976
C  -2.689679  -0.722857  -0.200134
H  -4.851724  -0.094735   0.849759
H  -4.474225   1.131068  -0.769063
H  -3.400701   0.711129   0.913527
C  -1.341490   0.113739  -0.137671
H  -2.682196  -1.527650  -1.048829
H  -2.797799  -1.110804   0.615171
C  -0.156856  -0.639528   0.170364
H  -1.387146   1.099063   0.834822
H  -1.152369   0.805916  -0.984175
H  -0.254371  -1.421024   1.344931
H   0.640273  -0.124820   0.257343
H  -0.056575  -1.050217  -0.486576
