butane_opt
 OpenBabel08242015403D

 14 11  0  0  0  0  0  0  0  0999 V2000
   -3.9297    0.3106    0.0664 C   0  0  0  0  0  0  0  0  0  0  0  0
   -2.6921   -0.6767    0.0104 C   0  0  0  0  0  0  0  0  0  0  0  0
   -4.7579   -0.0763   -0.4453 H   0  0  0  0  0  0  0  0  0  0  0  0
   -3.9043    0.3917   -0.5213 H   0  0  0  0  0  0  0  0  0  0  0  0
   -4.0955    1.4376    1.0976 H   0  0  0  0  0  0  0  0  0  0  0  0
   -1.3715    0.1122   -0.0429 C   0  0  0  0  0  0  0  0  0  0  0  0
   -2.2793   -1.1237   -0.6480 H   0  0  0  0  0  0  0  0  0  0  0  0
   -2.7765   -1.2429    1.0137 H   0  0  0  0  0  0  0  0  0  0  0  0
   -0.2401   -0.6855    0.0663 C   0  0  0  0  0  0  0  0  0  0  0  0
   -1.3605    0.6542    0.7466 H   0  0  0  0  0  0  0  0  0  0  0  0
   -1.3365    0.8876   -1.0899 H   0  0  0  0  0  0  0  0  0  0  0  0
   -0.4934   -1.1946    0.9552 H   0  0  0  0  0  0  0  0  0  0  0  0
    0.9514    0.1797   -0.1670 H   0  0  0  0  0  0  0  0  0  0  0  0
   -0.1896   -1.1114   -0.6503 H   0  0  0  0  0  0  0  0  0  0  0  0
  2  1  1  0  0  0  0
  2  8  1  0  0  0  0
  3  1  1  0  0  0  0
  6  2  1  0  0  0  0
  6  9  1  0  0  0  0
  6 10  1  0  0  0  0
  7  2  1  0  0  0  0
  9 12  1  0  0  0  0
 11  6  1  0  0  0  0
 13  9  1  0  0  0  0
 14  9  1  0  0  0  0
M  RAD  3   1   3   4   2   5   2
M  END
$$$$
