butane_opt
 OpenBabel08242015403D

 14 10  0  0  0  0  0  0  0  0999 V2000
   -4.0116    0.3353   -0.1301 C   0  0  0  0  0  0  0  0  0  0  0  0
   -2.6933   -0.7459    0.2034 C   0  0  0  0  0  0  0  0  0  0  0  0
   -4.7442   -0.0980    0.1664 H   0  0  0  0  0  0  0  0  0  0  0  0
   -4.1648    1.0211   -1.0871 H   0  0  0  0  0  0  0  0  0  0  0  0
   -4.0533    0.7955    0.5297 H   0  0  0  0  0  0  0  0  0  0  0  0
   -1.3771    0.1804    0.0839 C   0  0  0  0  0  0  0  0  0  0  0  0
   -2.2317   -1.0936   -0.3250 H   0  0  0  0  0  0  0  0  0  0  0  0
   -2.7729   -1.7572    1.2878 H   0  0  0  0  0  0  0  0  0  0  0  0
   -0.1548   -0.6239   -0.0844 C   0  0  0  0  0  0  0  0  0  0  0  0
   -1.1239    1.0572    1.0579 H   0  0  0  0  0  0  0  0  0  0  0  0
   -1.4433    0.5520   -0.7093 H   0  0  0  0  0  0  0  0  0  0  0  0
   -0.1690   -0.6782    0.3405 H   0  0  0  0  0  0  0  0  0  0  0  0
    0.7246   -0.1418    0.5811 H   0  0  0  0  0  0  0  0  0  0  0  0
   -0.2260   -1.8586   -1.3029 H   0  0  0  0  0  0  0  0  0  0  0  0
  1  3  1  0  0  0  0
  1  2  1  0  0  0  0
  1  5  1  0  0  0  0
  2  8  1  0  0  0  0
  4  1  1  0  0  0  0
  6 10  1  0  0  0  0
  7  2  1  0  0  0  0
  9  6  1  0  0  0  0
  9 13  1  0  0  0  0
 11  6  1  0  0  0  0
M  RAD  5   2   2   6   2   9   3  12   2  14   2
M  END
$$$$
