14
butane_opt
C  -3.905705   0.276183   0.138081
C  -2.681678  -0.644235  -0.059027
H  -4.672058  -0.182795  -0.529439
H  -4.096137   0.464693  -0.341461
H  -4.049162   1.613609   1.544458
C  -1.373022   0.137917  -0.105890
H  -2.845557  -1.449350  -0.879897
H  -2.715695  -1.117895   0.627967
C  -0.185548  -0.662899   0.143432
H  -1.586865   0.395291   0.328024
H  -1.242286   1.152272  -1.402420
H  -0.449605  -1.555206   1.264020
H   0.648074   0.050801   0.047204
H  -0.259425  -1.123328  -0.552127
