butane_opt
 OpenBabel08242015403D

 14 11  0  0  0  0  0  0  0  0999 V2000
   -3.9834    0.2039   -0.0874 C   0  0  0  0  0  0  0  0  0  0  0  0
   -2.7104   -0.6023    0.1640 C   0  0  0  0  0  0  0  0  0  0  0  0
   -4.8896   -0.3043    0.3695 H   0  0  0  0  0  0  0  0  0  0  0  0
   -3.7304    1.1861   -1.1787 H   0  0  0  0  0  0  0  0  0  0  0  0
   -3.9165    0.4521    0.5471 H   0  0  0  0  0  0  0  0  0  0  0  0
   -1.4414    0.3140    0.0880 C   0  0  0  0  0  0  0  0  0  0  0  0
   -2.7381   -1.0914   -0.5463 H   0  0  0  0  0  0  0  0  0  0  0  0
   -2.9564   -1.4108    1.2363 H   0  0  0  0  0  0  0  0  0  0  0  0
   -0.0797   -0.7336   -0.1005 C   0  0  0  0  0  0  0  0  0  0  0  0
   -1.2471    0.9893    0.8284 H   0  0  0  0  0  0  0  0  0  0  0  0
   -1.7238    0.6837   -0.6166 H   0  0  0  0  0  0  0  0  0  0  0  0
   -0.2036   -0.8489    0.4129 H   0  0  0  0  0  0  0  0  0  0  0  0
    0.5311   -0.3232    0.7747 H   0  0  0  0  0  0  0  0  0  0  0  0
    0.4289   -2.0094   -1.2123 H   0  0  0  0  0  0  0  0  0  0  0  0
  1  2  1  0  0  0  0
  1  3  1  0  0  0  0
  1  5  1  0  0  0  0
  2  8  1  0  0  0  0
  4  1  1  0  0  0  0
  6  2  1  0  0  0  0
  6 10  1  0  0  0  0
  7  2  1  0  0  0  0
  9  6  1  0  0  0  0
  9 13  1  0  0  0  0
 11  6  1  0  0  0  0
M  RAD  3   9   3  12   2  14   2
M  END
$$$$
