butane_opt
 OpenBabel08242015403D

 14 12  0  0  0  0  0  0  0  0999 V2000
   -4.0411    0.3184   -0.1727 C   0  0  0  0  0  0  0  0  0  0  0  0
   -2.7030   -0.6911    0.3347 C   0  0  0  0  0  0  0  0  0  0  0  0
   -4.9756   -0.2939   -0.8221 H   0  0  0  0  0  0  0  0  0  0  0  0
   -3.5530    0.5069   -0.9151 H   0  0  0  0  0  0  0  0  0  0  0  0
   -4.4648    1.2933    0.7987 H   0  0  0  0  0  0  0  0  0  0  0  0
   -1.3827    0.1464    0.1093 C   0  0  0  0  0  0  0  0  0  0  0  0
   -2.4240   -1.0000   -0.4291 H   0  0  0  0  0  0  0  0  0  0  0  0
   -2.6265   -1.5964    1.4084 H   0  0  0  0  0  0  0  0  0  0  0  0
   -0.1468   -0.6575   -0.1680 C   0  0  0  0  0  0  0  0  0  0  0  0
   -0.8645    1.1546    1.2693 H   0  0  0  0  0  0  0  0  0  0  0  0
   -1.7150    0.6594   -0.6908 H   0  0  0  0  0  0  0  0  0  0  0  0
    0.0859   -1.1324    0.6575 H   0  0  0  0  0  0  0  0  0  0  0  0
    0.9526   -0.0642    0.0729 H   0  0  0  0  0  0  0  0  0  0  0  0
   -0.1862   -1.4100   -1.0814 H   0  0  0  0  0  0  0  0  0  0  0  0
  1  2  1  0  0  0  0
  1  5  1  0  0  0  0
  2  8  1  0  0  0  0
  3  1  1  0  0  0  0
  4  1  1  0  0  0  0
  6  2  1  0  0  0  0
  7  2  1  0  0  0  0
  9 13  1  0  0  0  0
  9  6  1  0  0  0  0
  9 12  1  0  0  0  0
 11  6  1  0  0  0  0
 14  9  1  0  0  0  0
M  RAD  2   6   2  10   2
M  END
$$$$
