14
butane_opt
C  -3.943191   0.248501  -0.128509
C  -2.635540  -0.650279   0.283106
H  -4.741476  -0.199315  -0.760393
H  -3.575441   0.756319  -1.016813
H  -4.376786   1.163622   0.858767
C  -1.414559   0.154086   0.129190
H  -2.544304  -0.957959  -0.313051
H  -2.913125  -1.238414   1.215598
C  -0.217999  -0.673466  -0.161793
H  -1.071057   1.003287   0.963457
H  -1.598502   0.746242  -0.685459
H  -0.076772  -1.148840   0.789820
H   0.668978  -0.066194   0.112126
H  -0.260606  -1.526356  -1.159700
