butane_opt
 OpenBabel08242015403D

 14  7  0  0  0  0  0  0  0  0999 V2000
   -3.9314    0.3242    0.1425 C   0  0  0  0  0  1  0  0  0  0  0  0
   -2.7253   -0.6543   -0.1069 C   0  0  0  0  0  0  0  0  0  0  0  0
   -4.8959   -0.3708   -0.3417 H   0  0  0  0  0  0  0  0  0  0  0  0
   -3.7792    0.4145   -0.3283 H   0  0  0  0  0  0  0  0  0  0  0  0
   -4.0633    1.6905    1.4105 H   0  0  0  0  0  0  0  0  0  0  0  0
   -1.3666    0.0916   -0.0958 C   0  0  0  0  0  1  0  0  0  0  0  0
   -2.7516   -1.4235   -0.9632 H   0  0  0  0  0  0  0  0  0  0  0  0
   -2.6304   -1.1658    0.7748 H   0  0  0  0  0  0  0  0  0  0  0  0
   -0.1638   -0.6632    0.1449 C   0  0  0  0  0  0  0  0  0  0  0  0
   -1.7382    0.5695    0.6301 H   0  0  0  0  0  0  0  0  0  0  0  0
   -1.1179    1.0513   -1.3645 H   0  0  0  0  0  0  0  0  0  0  0  0
   -0.2470   -1.6675    1.4449 H   0  0  0  0  0  0  0  0  0  0  0  0
    0.8085    0.1510   -0.3230 H   0  0  0  0  0  0  0  0  0  0  0  0
   -0.3923   -0.9042   -0.4303 H   0  0  0  0  0  0  0  0  0  0  0  0
  2  8  1  0  0  0  0
  3  1  1  0  0  0  0
  4  2  1  0  0  0  0
  6 10  1  0  0  0  0
  7  2  1  0  0  0  0
 13  9  1  0  0  0  0
 14  9  1  0  0  0  0
M  RAD  5   2   2   5   2   9   3  11   2  12   2
M  END
$$$$
