14
butane_opt
C  -3.994179   0.209827  -0.166710
C  -2.768228  -0.521601   0.318838
H  -4.912445  -0.534670  -0.885111
H  -3.503869   0.314432  -0.790850
H  -4.237498   1.281675   0.907857
C  -1.427506   0.211338   0.117497
H  -2.695369  -1.175024  -0.434461
H  -2.813913  -1.269296   1.363119
C  -0.052381  -0.724755  -0.131825
H  -1.064043   1.056473   1.018057
H  -1.564212   0.970365  -0.805758
H   0.208263  -1.387237   0.632793
H   0.602874  -0.468565  -0.049552
H  -0.099917  -1.425929  -1.113775
