butane_opt
 OpenBabel08242015403D

 14 13  0  0  0  0  0  0  0  0999 V2000
   -3.9671    0.3224    0.1601 C   0  0  0  0  0  0  0  0  0  0  0  0
   -2.7033   -0.7133   -0.0809 C   0  0  0  0  0  0  0  0  0  0  0  0
   -4.6135   -0.0877    0.2142 H   0  0  0  0  0  0  0  0  0  0  0  0
   -4.4565    1.0081   -0.7875 H   0  0  0  0  0  0  0  0  0  0  0  0
   -3.7776    1.1328    1.2328 H   0  0  0  0  0  0  0  0  0  0  0  0
   -1.3458    0.1544   -0.2088 C   0  0  0  0  0  0  0  0  0  0  0  0
   -2.8174   -1.5029   -0.8547 H   0  0  0  0  0  0  0  0  0  0  0  0
   -2.5230   -1.2075    0.7098 H   0  0  0  0  0  0  0  0  0  0  0  0
   -0.2080   -0.6676    0.1467 C   0  0  0  0  0  0  0  0  0  0  0  0
   -1.4982    0.6644    0.5774 H   0  0  0  0  0  0  0  0  0  0  0  0
   -1.1209    0.7041   -1.0279 H   0  0  0  0  0  0  0  0  0  0  0  0
   -0.7315   -1.0619    1.0659 H   0  0  0  0  0  0  0  0  0  0  0  0
    0.9305    0.1557    0.6727 H   0  0  0  0  0  0  0  0  0  0  0  0
    0.2397   -1.3542   -0.6253 H   0  0  0  0  0  0  0  0  0  0  0  0
  1  3  1  0  0  0  0
  1  5  1  0  0  0  0
  2  1  1  0  0  0  0
  2  8  1  0  0  0  0
  4  1  1  0  0  0  0
  6  2  1  0  0  0  0
  6  9  1  0  0  0  0
  6 10  1  0  0  0  0
  7  2  1  0  0  0  0
  9 13  1  0  0  0  0
  9 12  1  0  0  0  0
 11  6  1  0  0  0  0
 14  9  1  0  0  0  0
M  END
$$$$
