butane_opt
 OpenBabel08242015403D

 14 10  0  0  0  0  0  0  0  0999 V2000
   -3.9158    0.2945   -0.0807 C   0  0  0  0  0  0  0  0  0  0  0  0
   -2.6470   -0.7080    0.1089 C   0  0  0  0  0  0  0  0  0  0  0  0
   -4.7231   -0.0884    0.6384 H   0  0  0  0  0  0  0  0  0  0  0  0
   -4.2525    1.7701   -1.6266 H   0  0  0  0  0  0  0  0  0  0  0  0
   -3.6820    0.3539    0.4479 H   0  0  0  0  0  0  0  0  0  0  0  0
   -1.4504    0.1404    0.1881 C   0  0  0  0  0  0  0  0  0  0  0  0
   -2.6462   -1.4032   -0.7000 H   0  0  0  0  0  0  0  0  0  0  0  0
   -2.5773   -1.1764    0.9064 H   0  0  0  0  0  0  0  0  0  0  0  0
   -0.2010   -0.6497   -0.0780 C   0  0  0  0  0  0  0  0  0  0  0  0
   -1.2687    0.8234    1.0148 H   0  0  0  0  0  0  0  0  0  0  0  0
   -1.4580    0.6943   -0.5908 H   0  0  0  0  0  0  0  0  0  0  0  0
   -0.4672   -0.8717    0.4420 H   0  0  0  0  0  0  0  0  0  0  0  0
    0.8738    0.0533    0.2452 H   0  0  0  0  0  0  0  0  0  0  0  0
   -0.2612   -1.4991   -1.1223 H   0  0  0  0  0  0  0  0  0  0  0  0
  1  2  1  0  0  0  0
  1  3  1  0  0  0  0
  2  6  1  0  0  0  0
  2  8  1  0  0  0  0
  6 12  1  0  0  0  0
  6 10  1  0  0  0  0
  7  2  1  0  0  0  0
  9 13  1  0  0  0  0
 11  6  1  0  0  0  0
 14  9  1  0  0  0  0
M  RAD  4   1   3   4   2   5   2   9   3
M  END
$$$$
