butane_opt
 OpenBabel08242015403D

 14 13  0  0  0  0  0  0  0  0999 V2000
   -3.9310    0.2552    0.0335 C   0  0  0  0  0  0  0  0  0  0  0  0
   -2.7020   -0.5965    0.0270 C   0  0  0  0  0  0  0  0  0  0  0  0
   -4.9066   -0.3884    0.0946 H   0  0  0  0  0  0  0  0  0  0  0  0
   -3.9617    0.8293   -0.8398 H   0  0  0  0  0  0  0  0  0  0  0  0
   -3.8913    0.9586    0.9274 H   0  0  0  0  0  0  0  0  0  0  0  0
   -1.4138    0.1941   -0.0179 C   0  0  0  0  0  0  0  0  0  0  0  0
   -2.7383   -1.2945   -0.8508 H   0  0  0  0  0  0  0  0  0  0  0  0
   -2.6754   -1.2318    0.8847 H   0  0  0  0  0  0  0  0  0  0  0  0
   -0.1606   -0.7016    0.0572 C   0  0  0  0  0  0  0  0  0  0  0  0
   -1.4382    0.7820    0.7652 H   0  0  0  0  0  0  0  0  0  0  0  0
   -1.4102    0.8781   -0.9516 H   0  0  0  0  0  0  0  0  0  0  0  0
   -0.1688   -1.2478    0.9146 H   0  0  0  0  0  0  0  0  0  0  0  0
    0.7454   -0.1337    0.1458 H   0  0  0  0  0  0  0  0  0  0  0  0
   -0.0838   -1.4451   -0.8464 H   0  0  0  0  0  0  0  0  0  0  0  0
  1  3  1  0  0  0  0
  1  5  1  0  0  0  0
  2  1  1  0  0  0  0
  2  8  1  0  0  0  0
  4  1  1  0  0  0  0
  6  2  1  0  0  0  0
  6  9  1  0  0  0  0
  6 10  1  0  0  0  0
  7  2  1  0  0  0  0
  9 13  1  0  0  0  0
  9 12  1  0  0  0  0
 11  6  1  0  0  0  0
 14  9  1  0  0  0  0
M  END
$$$$
