14
butane_opt
C  -3.886147   0.229683   0.129329
C  -2.738117  -0.526427  -0.098224
H  -5.075993  -0.704901   0.390135
H  -3.889833   1.106674  -0.844365
H  -3.895376   0.810759   0.917008
C  -1.396937   0.171352  -0.018949
H  -2.887315  -1.514976  -1.371921
H  -2.628692  -0.827491   0.550250
C  -0.170515  -0.722506   0.117332
H  -1.638426   0.884437   0.798487
H  -1.297851   0.963213  -1.030467
H   0.014173  -1.813457   1.255507
H   0.718000  -0.225170  -0.334443
H  -0.098705  -1.006937  -0.411103
