butane_opt
 OpenBabel08242015403D

 14 11  0  0  0  0  0  0  0  0999 V2000
   -3.9547    0.3030    0.0369 C   0  0  0  0  0  0  0  0  0  0  0  0
   -2.7484   -0.6714    0.0003 C   0  0  0  0  0  0  0  0  0  0  0  0
   -4.8118   -0.2268   -0.2063 H   0  0  0  0  0  0  0  0  0  0  0  0
   -4.0576    0.7390   -0.8146 H   0  0  0  0  0  0  0  0  0  0  0  0
   -4.1506    1.4037    1.0843 H   0  0  0  0  0  0  0  0  0  0  0  0
   -1.3484    0.1664    0.0764 C   0  0  0  0  0  0  0  0  0  0  0  0
   -2.5278   -1.6554   -1.0162 H   0  0  0  0  0  0  0  0  0  0  0  0
   -2.8026   -1.2259    0.8347 H   0  0  0  0  0  0  0  0  0  0  0  0
   -0.1978   -0.6536    0.0281 C   0  0  0  0  0  0  0  0  0  0  0  0
   -1.4078    0.5404    0.8417 H   0  0  0  0  0  0  0  0  0  0  0  0
   -1.0586    0.9667   -1.0339 H   0  0  0  0  0  0  0  0  0  0  0  0
    0.4075   -1.8554    1.2477 H   0  0  0  0  0  0  0  0  0  0  0  0
    0.6276    0.0575   -0.5259 H   0  0  0  0  0  0  0  0  0  0  0  0
   -0.2935   -0.9022   -0.5788 H   0  0  0  0  0  0  0  0  0  0  0  0
  2  1  1  0  0  0  0
  2  6  1  0  0  0  0
  2  8  1  0  0  0  0
  3  1  1  0  0  0  0
  4  1  1  0  0  0  0
  6 10  1  0  0  0  0
  7  2  1  0  0  0  0
  9  6  1  0  0  0  0
 11  6  1  0  0  0  0
 13  9  1  0  0  0  0
 14  9  1  0  0  0  0
M  RAD  4   1   2   5   2   9   2  12   2
M  END
$$$$
