14
butane_opt
C  -3.950942   0.261133   0.140242
C  -2.625063  -0.625762   0.012535
H  -4.771994  -0.268854  -0.876818
H  -3.849615   0.099126  -0.235647
H  -4.142919   1.661725   1.421627
C  -1.443964   0.146203  -0.135355
H  -2.654370  -1.343405  -0.989400
H  -2.397491  -1.036535   0.573360
C  -0.206228  -0.647444   0.121821
H  -1.214544   0.492054   0.583503
H  -1.254149   1.117152  -1.411739
H  -0.474956  -1.726863   1.282389
H   0.650725  -0.175443  -0.066957
H  -0.176983  -0.925904  -0.395759
