14
butane_opt
C  -3.828905   0.230545  -0.041334
C  -2.732492  -0.524530   0.076118
H  -4.874070  -0.694292   0.778002
H  -4.020974   1.166768  -1.119090
H  -3.746815   0.483060   0.574656
C  -1.418856   0.201113   0.033993
H  -2.810295  -1.453338  -0.939357
H  -2.651208  -1.054171   0.892804
C  -0.210930  -0.731261   0.010624
H  -1.388786   1.043388   0.981764
H  -1.564749   0.979449  -0.769536
H  -0.184963  -1.129354   0.666015
H   0.450069  -0.405203   0.373431
H   0.118640  -1.569575  -0.989411
