14
butane_opt
C  -3.944087   0.258500  -0.011249
C  -2.704994  -0.604908   0.069131
H  -4.875482  -0.357956  -0.052604
H  -3.901870   0.827922  -0.899254
H  -3.983495   0.903177   0.850504
C  -1.414720   0.197665   0.038732
H  -2.720723  -1.235792  -0.729167
H  -2.750878  -1.273046   0.966922
C  -0.137472  -0.704160   0.011776
H  -1.389333   0.884436   0.908162
H  -1.452123   0.822104  -0.837386
H  -0.035810  -1.297302   0.868677
H   0.733657  -0.136635  -0.042912
H  -0.229416  -1.379143  -0.890906
