14
butane_opt
C  -3.884465   0.213482  -0.105803
C  -2.748414  -0.588874   0.159416
H  -4.735517  -0.332380   0.415719
H  -3.597578   1.381467  -1.504407
H  -3.947098   0.396783   0.305758
C  -1.443559   0.273415   0.250296
H  -2.662894  -1.343458  -0.818590
H  -2.757855  -1.221777   1.066398
C  -0.154417  -0.743393  -0.132174
H  -1.495233   1.133539   1.138167
H  -1.483980   0.786103  -0.674401
H   0.017783  -1.373864   0.772403
H   0.697430  -0.021178  -0.201207
H  -0.300174  -1.725834  -1.175023
