butane_opt
 OpenBabel08242015403D

 14 12  0  0  0  0  0  0  0  0999 V2000
   -3.9085    0.2042    0.0824 C   0  0  0  0  0  0  0  0  0  0  0  0
   -2.7846   -0.5722   -0.0545 C   0  0  0  0  0  0  0  0  0  0  0  0
   -4.9520   -0.4935    0.5498 H   0  0  0  0  0  0  0  0  0  0  0  0
   -4.2599    1.3027   -1.1380 H   0  0  0  0  0  0  0  0  0  0  0  0
   -3.5907    0.5772    0.8213 H   0  0  0  0  0  0  0  0  0  0  0  0
   -1.4301    0.2763   -0.0294 C   0  0  0  0  0  0  0  0  0  0  0  0
   -2.9329   -1.1894   -0.9741 H   0  0  0  0  0  0  0  0  0  0  0  0
   -2.7041   -1.0423    0.8260 H   0  0  0  0  0  0  0  0  0  0  0  0
   -0.1301   -0.7705    0.0838 C   0  0  0  0  0  0  0  0  0  0  0  0
   -1.4783    1.0768    0.7748 H   0  0  0  0  0  0  0  0  0  0  0  0
   -1.0770    0.6110   -0.8467 H   0  0  0  0  0  0  0  0  0  0  0  0
    0.0732   -1.3432    0.9662 H   0  0  0  0  0  0  0  0  0  0  0  0
    0.6202   -0.2597    0.2628 H   0  0  0  0  0  0  0  0  0  0  0  0
    0.3461   -1.3977   -0.8569 H   0  0  0  0  0  0  0  0  0  0  0  0
  1  3  1  0  0  0  0
  1  5  1  0  0  0  0
  2  6  1  0  0  0  0
  2  1  1  0  0  0  0
  2  8  1  0  0  0  0
  6  9  1  0  0  0  0
  6 10  1  0  0  0  0
  7  2  1  0  0  0  0
  9 13  1  0  0  0  0
  9 12  1  0  0  0  0
 11  6  1  0  0  0  0
 14  9  1  0  0  0  0
M  RAD  2   1   2   4   2
M  END
$$$$
