14
butane_opt
C  -3.942856   0.259275   0.036194
C  -2.705718  -0.610206   0.019083
H  -4.857451  -0.362279   0.041446
H  -3.954667   0.825198  -0.817128
H  -3.960711   0.944706   0.934480
C  -1.408070   0.197449  -0.024304
H  -2.781481  -1.260306  -0.816187
H  -2.707009  -1.225830   0.905385
C  -0.156448  -0.702900   0.058010
H  -1.383788   0.897192   0.850373
H  -1.400953   0.809204  -0.929992
H  -0.108356  -1.313379   0.967661
H   0.743882  -0.139546   0.044835
H  -0.059508  -1.373443  -0.805261
