butane_opt
 OpenBabel08242015403D

 14 11  0  0  0  0  0  0  0  0999 V2000
   -3.9037    0.2195    0.2116 C   0  0  0  0  0  0  0  0  0  0  0  0
   -2.7334   -0.5133   -0.1869 C   0  0  0  0  0  0  0  0  0  0  0  0
   -5.1091   -0.6882    0.6093 H   0  0  0  0  0  0  0  0  0  0  0  0
   -4.1512    1.1794   -0.9357 H   0  0  0  0  0  0  0  0  0  0  0  0
   -3.3830    0.4062    0.7482 H   0  0  0  0  0  0  0  0  0  0  0  0
   -1.3828    0.2383   -0.0962 C   0  0  0  0  0  0  0  0  0  0  0  0
   -2.8322   -1.3376   -1.1731 H   0  0  0  0  0  0  0  0  0  0  0  0
   -2.6088   -0.8663    0.4764 H   0  0  0  0  0  0  0  0  0  0  0  0
   -0.1368   -0.7866    0.1679 C   0  0  0  0  0  0  0  0  0  0  0  0
   -1.7302    0.9248    0.6461 H   0  0  0  0  0  0  0  0  0  0  0  0
   -1.2762    0.8730   -0.9925 H   0  0  0  0  0  0  0  0  0  0  0  0
   -0.3771   -1.3948    1.1276 H   0  0  0  0  0  0  0  0  0  0  0  0
    0.4764   -0.3058    0.1415 H   0  0  0  0  0  0  0  0  0  0  0  0
   -0.0626   -1.2228   -0.4192 H   0  0  0  0  0  0  0  0  0  0  0  0
  1  5  1  0  0  0  0
  2  1  1  0  0  0  0
  2  8  1  0  0  0  0
  4  1  1  0  0  0  0
  6  9  1  0  0  0  0
  6 10  1  0  0  0  0
  7  2  1  0  0  0  0
  9 12  1  0  0  0  0
 11  6  1  0  0  0  0
 13  9  1  0  0  0  0
 14  9  1  0  0  0  0
M  RAD  4   1   2   2   2   3   2   6   2
M  END
$$$$
