14
butane_opt
C  -3.967076   0.322414   0.160070
C  -2.703286  -0.713301  -0.080862
H  -4.613450  -0.087742   0.214250
H  -4.456518   1.008120  -0.787544
H  -3.777553   1.132831   1.232822
C  -1.345777   0.154365  -0.208751
H  -2.817391  -1.502903  -0.854653
H  -2.523016  -1.207497   0.709800
C  -0.207986  -0.667588   0.146668
H  -1.498195   0.664413   0.577401
H  -1.120916   0.704082  -1.027906
H  -0.731460  -1.061865   1.065911
H   0.930546   0.155724   0.672718
H   0.239729  -1.354211  -0.625298
