butane_opt
 OpenBabel08242015403D

 14 12  0  0  0  0  0  0  0  0999 V2000
   -3.9387    0.1773   -0.1729 C   0  0  0  0  0  0  0  0  0  0  0  0
   -2.7117   -0.5481    0.2071 C   0  0  0  0  0  0  0  0  0  0  0  0
   -4.8580   -0.4330   -0.1404 H   0  0  0  0  0  0  0  0  0  0  0  0
   -3.8645    1.0144   -1.1561 H   0  0  0  0  0  0  0  0  0  0  0  0
   -4.1489    0.6537    0.5816 H   0  0  0  0  0  0  0  0  0  0  0  0
   -1.4072    0.2861    0.2675 C   0  0  0  0  0  0  0  0  0  0  0  0
   -2.6224   -1.3778   -0.6269 H   0  0  0  0  0  0  0  0  0  0  0  0
   -2.9189   -1.1402    1.0421 H   0  0  0  0  0  0  0  0  0  0  0  0
   -0.1207   -0.7230   -0.1284 C   0  0  0  0  0  0  0  0  0  0  0  0
   -1.5633    1.1401    1.1664 H   0  0  0  0  0  0  0  0  0  0  0  0
   -1.4903    0.8169   -0.6113 H   0  0  0  0  0  0  0  0  0  0  0  0
    0.7278   -1.7304    0.9771 H   0  0  0  0  0  0  0  0  0  0  0  0
    0.5211   -0.3684   -0.7134 H   0  0  0  0  0  0  0  0  0  0  0  0
   -0.6418   -1.3816   -1.1495 H   0  0  0  0  0  0  0  0  0  0  0  0
  1  3  1  0  0  0  0
  1  2  1  0  0  0  0
  1  5  1  0  0  0  0
  2  6  1  0  0  0  0
  2  8  1  0  0  0  0
  4  1  1  0  0  0  0
  6 10  1  0  0  0  0
  7  2  1  0  0  0  0
  9  6  1  0  0  0  0
 11  6  1  0  0  0  0
 13  9  1  0  0  0  0
 14  9  1  0  0  0  0
M  RAD  2   9   2  12   2
M  END
$$$$
