butane_opt
 OpenBabel08242015403D

 14 12  0  0  0  0  0  0  0  0999 V2000
   -4.0421    0.3244    0.0624 C   0  0  0  0  0  0  0  0  0  0  0  0
   -2.6379   -0.7316    0.0443 C   0  0  0  0  0  0  0  0  0  0  0  0
   -4.8321   -0.1569   -0.7291 H   0  0  0  0  0  0  0  0  0  0  0  0
   -3.9964    0.5671   -0.6594 H   0  0  0  0  0  0  0  0  0  0  0  0
   -4.4563    1.4180    1.2647 H   0  0  0  0  0  0  0  0  0  0  0  0
   -1.3387    0.1287   -0.0459 C   0  0  0  0  0  0  0  0  0  0  0  0
   -2.7601   -1.1326   -0.7464 H   0  0  0  0  0  0  0  0  0  0  0  0
   -2.6396   -1.4896    1.0024 H   0  0  0  0  0  0  0  0  0  0  0  0
   -0.1908   -0.6221    0.0682 C   0  0  0  0  0  0  0  0  0  0  0  0
   -1.1997    0.7484    0.7627 H   0  0  0  0  0  0  0  0  0  0  0  0
   -1.4260    0.7975   -1.0546 H   0  0  0  0  0  0  0  0  0  0  0  0
    0.1029   -1.2802    0.8718 H   0  0  0  0  0  0  0  0  0  0  0  0
    0.6806   -0.0660   -0.0416 H   0  0  0  0  0  0  0  0  0  0  0  0
   -0.0113   -1.0561   -0.7172 H   0  0  0  0  0  0  0  0  0  0  0  0
  2  1  1  0  0  0  0
  2  8  1  0  0  0  0
  3  1  1  0  0  0  0
  4  1  1  0  0  0  0
  6  2  1  0  0  0  0
  6  9  1  0  0  0  0
  6 10  1  0  0  0  0
  7  2  1  0  0  0  0
  9 12  1  0  0  0  0
 11  6  1  0  0  0  0
 13  9  1  0  0  0  0
 14  9  1  0  0  0  0
M  RAD  2   1   2   5   2
M  END
$$$$
