butane_opt
 OpenBabel08242015403D

 14 10  0  0  0  0  0  0  0  0999 V2000
   -3.9441    0.3243    0.1009 C   0  0  0  0  0  0  0  0  0  0  0  0
   -2.6480   -0.6896   -0.1220 C   0  0  0  0  0  0  0  0  0  0  0  0
   -4.8358   -0.2766    0.0526 H   0  0  0  0  0  0  0  0  0  0  0  0
   -4.2283    0.6823   -0.5860 H   0  0  0  0  0  0  0  0  0  0  0  0
   -3.9790    1.1633    1.1105 H   0  0  0  0  0  0  0  0  0  0  0  0
   -1.3794    0.1277   -0.0208 C   0  0  0  0  0  0  0  0  0  0  0  0
   -2.3678   -1.5506   -1.0450 H   0  0  0  0  0  0  0  0  0  0  0  0
   -2.4227   -1.2465    0.6662 H   0  0  0  0  0  0  0  0  0  0  0  0
   -0.2550   -0.6631    0.0915 C   0  0  0  0  0  1  0  0  0  0  0  0
   -1.1417    1.0292    0.9522 H   0  0  0  0  0  0  0  0  0  0  0  0
   -1.3682    0.8535   -1.0525 H   0  0  0  0  0  0  0  0  0  0  0  0
   -0.0989   -1.8228    1.5877 H   0  0  0  0  0  0  0  0  0  0  0  0
    0.6998    0.0105   -0.4565 H   0  0  0  0  0  0  0  0  0  0  0  0
   -0.5421   -0.5107   -0.2571 H   0  0  0  0  0  0  0  0  0  0  0  0
  1  5  1  0  0  0  0
  2  1  1  0  0  0  0
  2  8  1  0  0  0  0
  3  1  1  0  0  0  0
  4  1  1  0  0  0  0
  6 10  1  0  0  0  0
  7  2  1  0  0  0  0
 11  6  1  0  0  0  0
 13  9  1  0  0  0  0
 14  6  1  0  0  0  0
M  RAD  3   2   2   6   2  12   2
M  END
$$$$
