butane_opt
 OpenBabel08242015403D

 14 11  0  0  0  0  0  0  0  0999 V2000
   -3.9546    0.3226   -0.0702 C   0  0  0  0  0  0  0  0  0  0  0  0
   -2.6106   -0.6931    0.0967 C   0  0  0  0  0  0  0  0  0  0  0  0
   -4.9297   -0.2954    0.8895 H   0  0  0  0  0  0  0  0  0  0  0  0
   -4.0061    1.6079   -1.4348 H   0  0  0  0  0  0  0  0  0  0  0  0
   -3.7626    0.4215    0.4412 H   0  0  0  0  0  0  0  0  0  0  0  0
   -1.4080    0.1247    0.1102 C   0  0  0  0  0  0  0  0  0  0  0  0
   -2.5176   -1.5350   -0.8164 H   0  0  0  0  0  0  0  0  0  0  0  0
   -2.7328   -1.2950    0.8660 H   0  0  0  0  0  0  0  0  0  0  0  0
   -0.2574   -0.6254   -0.0498 C   0  0  0  0  0  0  0  0  0  0  0  0
   -1.1352    0.9961    1.1820 H   0  0  0  0  0  0  0  0  0  0  0  0
   -1.6016    0.7549   -0.7150 H   0  0  0  0  0  0  0  0  0  0  0  0
   -0.2786   -0.9562    0.6764 H   0  0  0  0  0  0  0  0  0  0  0  0
    0.7439    0.0770    0.2944 H   0  0  0  0  0  0  0  0  0  0  0  0
   -0.0908   -1.7490   -1.0428 H   0  0  0  0  0  0  0  0  0  0  0  0
  1  2  1  0  0  0  0
  1  3  1  0  0  0  0
  2  6  1  0  0  0  0
  2  8  1  0  0  0  0
  6 10  1  0  0  0  0
  7  2  1  0  0  0  0
  9  6  1  0  0  0  0
  9 13  1  0  0  0  0
  9 12  1  0  0  0  0
 11  6  1  0  0  0  0
 14  9  1  0  0  0  0
M  RAD  3   1   3   4   2   5   2
M  END
$$$$
