butane_opt
 OpenBabel08242015403D

 14 12  0  0  0  0  0  0  0  0999 V2000
   -4.0123    0.2675   -0.0923 C   0  0  0  0  0  0  0  0  0  0  0  0
   -2.6873   -0.6425    0.1625 C   0  0  0  0  0  0  0  0  0  0  0  0
   -5.0235   -0.3471   -0.1751 H   0  0  0  0  0  0  0  0  0  0  0  0
   -3.8441    1.0183   -1.0768 H   0  0  0  0  0  0  0  0  0  0  0  0
   -4.2292    1.0580    0.7616 H   0  0  0  0  0  0  0  0  0  0  0  0
   -1.3684    0.1734    0.1048 C   0  0  0  0  0  0  0  0  0  0  0  0
   -2.6836   -1.2995   -0.6769 H   0  0  0  0  0  0  0  0  0  0  0  0
   -2.7130   -1.2474    1.0123 H   0  0  0  0  0  0  0  0  0  0  0  0
   -0.0815   -0.6890   -0.0971 C   0  0  0  0  0  0  0  0  0  0  0  0
   -1.4091    1.1149    1.3619 H   0  0  0  0  0  0  0  0  0  0  0  0
   -1.4751    0.5075   -0.5644 H   0  0  0  0  0  0  0  0  0  0  0  0
   -0.0034   -1.5477    0.9783 H   0  0  0  0  0  0  0  0  0  0  0  0
    0.7442   -0.0188   -0.4056 H   0  0  0  0  0  0  0  0  0  0  0  0
   -0.5638   -1.0272   -0.6904 H   0  0  0  0  0  0  0  0  0  0  0  0
  1  2  1  0  0  0  0
  1  5  1  0  0  0  0
  2  8  1  0  0  0  0
  3  1  1  0  0  0  0
  4  1  1  0  0  0  0
  6  2  1  0  0  0  0
  7  2  1  0  0  0  0
  9  6  1  0  0  0  0
  9 12  1  0  0  0  0
 11  6  1  0  0  0  0
 13  9  1  0  0  0  0
 14  9  1  0  0  0  0
M  RAD  2   6   2  10   2
M  END
$$$$
