butane_opt
 OpenBabel08242015403D

 14  9  0  0  0  0  0  0  0  0999 V2000
   -4.0146    0.2952   -0.0877 C   0  0  0  0  0  0  0  0  0  0  0  0
   -2.7218   -0.6883    0.2217 C   0  0  0  0  0  0  0  0  0  0  0  0
   -4.9096   -0.2013    0.1336 H   0  0  0  0  0  0  0  0  0  0  0  0
   -3.7077    1.4904   -1.2797 H   0  0  0  0  0  0  0  0  0  0  0  0
   -4.4083    0.5861    0.3838 H   0  0  0  0  0  0  0  0  0  0  0  0
   -1.3960    0.1596    0.0980 C   0  0  0  0  0  0  0  0  0  0  0  0
   -2.7601   -1.1454   -0.4373 H   0  0  0  0  0  0  0  0  0  0  0  0
   -2.6431   -1.4732    1.1496 H   0  0  0  0  0  0  0  0  0  0  0  0
   -0.0857   -0.6782   -0.0833 C   0  0  0  0  0  1  0  0  0  0  0  0
   -1.1520    0.6982    0.9302 H   0  0  0  0  0  0  0  0  0  0  0  0
   -1.5703    0.8111   -0.7091 H   0  0  0  0  0  0  0  0  0  0  0  0
   -0.2742   -0.2726    0.0617 H   0  0  0  0  0  0  0  0  0  0  0  0
    0.8783   -0.0200    0.7764 H   0  0  0  0  0  0  0  0  0  0  0  0
    0.1200   -2.0044   -1.4660 H   0  0  0  0  0  0  0  0  0  0  0  0
  1  3  1  0  0  0  0
  1  2  1  0  0  0  0
  1  5  1  0  0  0  0
  2  8  1  0  0  0  0
  6 10  1  0  0  0  0
  7  2  1  0  0  0  0
  9 13  1  0  0  0  0
 11  6  1  0  0  0  0
 12  6  1  0  0  0  0
M  RAD  5   1   2   2   2   4   2   6   2  14   2
M  END
$$$$
