14
butane_opt
C  -3.940633   0.261758  -0.010652
C  -2.700300  -0.606206   0.052506
H  -4.872321  -0.359721   0.046429
H  -3.960287   0.917513  -0.943213
H  -3.909221   0.873535   0.804139
C  -1.413314   0.190350   0.055816
H  -2.725789  -1.246377  -0.778195
H  -2.726074  -1.311127   0.992898
C  -0.150457  -0.700164   0.003139
H  -1.403613   0.906637   0.936977
H  -1.424929   0.762636  -0.814942
H  -0.088886  -1.306724   0.918208
H   0.741006  -0.114532  -0.078404
H  -0.196536  -1.341165  -0.864290
