butane_opt
 OpenBabel08242015403D

 14 11  0  0  0  0  0  0  0  0999 V2000
   -3.9837    0.2044    0.1602 C   0  0  0  0  0  0  0  0  0  0  0  0
   -2.7572   -0.5396   -0.1694 C   0  0  0  0  0  0  0  0  0  0  0  0
   -4.8768   -0.4131    0.2087 H   0  0  0  0  0  0  0  0  0  0  0  0
   -4.0536    0.9180   -0.7440 H   0  0  0  0  0  0  0  0  0  0  0  0
   -3.9294    0.7591    1.0737 H   0  0  0  0  0  0  0  0  0  0  0  0
   -1.3734    0.2577   -0.0328 C   0  0  0  0  0  0  0  0  0  0  0  0
   -3.2354   -1.4381   -1.3035 H   0  0  0  0  0  0  0  0  0  0  0  0
   -2.6062   -0.7781    0.5743 H   0  0  0  0  0  0  0  0  0  0  0  0
   -0.0986   -0.7986    0.1682 C   0  0  0  0  0  0  0  0  0  0  0  0
   -1.4364    0.8038    0.6489 H   0  0  0  0  0  0  0  0  0  0  0  0
   -1.2979    0.9480   -1.0461 H   0  0  0  0  0  0  0  0  0  0  0  0
    0.1481   -1.6863    1.2885 H   0  0  0  0  0  0  0  0  0  0  0  0
    0.9008   -0.2900   -0.5343 H   0  0  0  0  0  0  0  0  0  0  0  0
   -0.0407   -0.7705   -0.2256 H   0  0  0  0  0  0  0  0  0  0  0  0
  1  3  1  0  0  0  0
  1  5  1  0  0  0  0
  2  6  1  0  0  0  0
  2  1  1  0  0  0  0
  2  8  1  0  0  0  0
  4  1  1  0  0  0  0
  6  9  1  0  0  0  0
  6 10  1  0  0  0  0
  9 12  1  0  0  0  0
 11  6  1  0  0  0  0
 13  9  1  0  0  0  0
M  RAD  4   2   2   7   2   9   2  14   2
M  END
$$$$
