14
butane_opt
C  -3.993194   0.301392  -0.092462
C  -2.666835  -0.679305   0.174926
H  -4.856677  -0.327694   0.146363
H  -4.197910   1.272535  -1.132319
H  -3.863362   0.674678   0.521248
C  -1.345686   0.190820   0.065471
H  -2.862426  -0.895430  -0.485552
H  -2.719168  -1.609424   1.232647
C  -0.173131  -0.684607  -0.046997
H  -1.209112   0.894820   0.981391
H  -1.273459   0.652547  -0.724413
H  -0.363118  -0.507016   0.358685
H   0.536986  -0.182110   0.638407
H  -0.045238  -2.026507  -1.448530
