14
butane_opt
C  -4.038220   0.301726   0.182713
C  -2.726015  -0.641601  -0.146406
H  -4.831499  -0.288185   0.314483
H  -4.470793   1.202591  -0.961483
H  -3.819170   1.107453   1.167510
C  -1.304588   0.090872  -0.108913
H  -2.735242  -1.550096  -1.205379
H  -2.506415  -1.223198   0.526648
C  -0.139835  -0.643312   0.137071
H  -1.340843   0.924539   0.814840
H  -1.047858   0.669719  -1.007526
H  -0.481385  -1.672848   1.479209
H   0.804721  -0.084669   0.016805
H  -0.067499  -0.816966  -0.458728
