butane_opt
 OpenBabel08242015403D

 14 12  0  0  0  0  0  0  0  0999 V2000
   -3.8973    0.2292   -0.0866 C   0  0  0  0  0  0  0  0  0  0  0  0
   -2.7794   -0.5700    0.1979 C   0  0  0  0  0  0  0  0  0  0  0  0
   -4.7538   -0.3578   -0.6498 H   0  0  0  0  0  0  0  0  0  0  0  0
   -3.6912    0.4646   -0.7252 H   0  0  0  0  0  0  0  0  0  0  0  0
   -4.2545    1.2867    0.9780 H   0  0  0  0  0  0  0  0  0  0  0  0
   -1.3892    0.2485    0.0472 C   0  0  0  0  0  0  0  0  0  0  0  0
   -2.7867   -1.2970   -0.6554 H   0  0  0  0  0  0  0  0  0  0  0  0
   -3.0535   -1.4437    1.2760 H   0  0  0  0  0  0  0  0  0  0  0  0
   -0.1356   -0.7474   -0.0696 C   0  0  0  0  0  0  0  0  0  0  0  0
   -1.1755    1.1737    0.9306 H   0  0  0  0  0  0  0  0  0  0  0  0
   -1.8608    0.6683   -0.6141 H   0  0  0  0  0  0  0  0  0  0  0  0
    0.2965   -1.5846    0.9278 H   0  0  0  0  0  0  0  0  0  0  0  0
    0.6680   -0.2318   -0.1440 H   0  0  0  0  0  0  0  0  0  0  0  0
   -0.0040   -1.0786   -0.8426 H   0  0  0  0  0  0  0  0  0  0  0  0
  1  2  1  0  0  0  0
  2  8  1  0  0  0  0
  3  1  1  0  0  0  0
  4  1  1  0  0  0  0
  6  2  1  0  0  0  0
  6 10  1  0  0  0  0
  7  2  1  0  0  0  0
  9  6  1  0  0  0  0
  9 12  1  0  0  0  0
 11  6  1  0  0  0  0
 13  9  1  0  0  0  0
 14  9  1  0  0  0  0
M  RAD  2   1   2   5   2
M  END
$$$$
