butane_opt
 OpenBabel08242015403D

 14 10  0  0  0  0  0  0  0  0999 V2000
   -3.9932    0.3014   -0.0925 C   0  0  0  0  0  0  0  0  0  0  0  0
   -2.6668   -0.6793    0.1749 C   0  0  0  0  0  0  0  0  0  0  0  0
   -4.8567   -0.3277    0.1464 H   0  0  0  0  0  0  0  0  0  0  0  0
   -4.1979    1.2725   -1.1323 H   0  0  0  0  0  0  0  0  0  0  0  0
   -3.8634    0.6747    0.5212 H   0  0  0  0  0  0  0  0  0  0  0  0
   -1.3457    0.1908    0.0655 C   0  0  0  0  0  0  0  0  0  0  0  0
   -2.8624   -0.8954   -0.4856 H   0  0  0  0  0  0  0  0  0  0  0  0
   -2.7192   -1.6094    1.2326 H   0  0  0  0  0  0  0  0  0  0  0  0
   -0.1731   -0.6846   -0.0470 C   0  0  0  0  0  1  0  0  0  0  0  0
   -1.2091    0.8948    0.9814 H   0  0  0  0  0  0  0  0  0  0  0  0
   -1.2735    0.6525   -0.7244 H   0  0  0  0  0  0  0  0  0  0  0  0
   -0.3631   -0.5070    0.3587 H   0  0  0  0  0  0  0  0  0  0  0  0
    0.5370   -0.1821    0.6384 H   0  0  0  0  0  0  0  0  0  0  0  0
   -0.0452   -2.0265   -1.4485 H   0  0  0  0  0  0  0  0  0  0  0  0
  1  3  1  0  0  0  0
  1  2  1  0  0  0  0
  1  5  1  0  0  0  0
  2  8  1  0  0  0  0
  4  1  1  0  0  0  0
  6 12  1  0  0  0  0
  6 10  1  0  0  0  0
  7  2  1  0  0  0  0
  9 13  1  0  0  0  0
 11  6  1  0  0  0  0
M  RAD  3   2   2   6   2  14   2
M  END
$$$$
