14
butane_opt
C  -3.915770   0.294548  -0.080680
C  -2.647023  -0.707992   0.108946
H  -4.723137  -0.088443   0.638420
H  -4.252523   1.770064  -1.626589
H  -3.681994   0.353938   0.447877
C  -1.450360   0.140353   0.188099
H  -2.646173  -1.403218  -0.699981
H  -2.577263  -1.176353   0.906420
C  -0.200956  -0.649709  -0.078006
H  -1.268665   0.823398   1.014773
H  -1.457989   0.694280  -0.590751
H  -0.467238  -0.871710   0.441990
H   0.873831   0.053314   0.245211
H  -0.261167  -1.499138  -1.122346
