14
butane_opt
C  -3.914901   0.286332   0.156091
C  -2.617958  -0.643309  -0.054828
H  -4.861548  -0.179799   0.081424
H  -4.250902   0.706048  -0.526209
H  -3.988775   1.257391   1.198221
C  -1.423179   0.065071  -0.197518
H  -2.736189  -1.368475  -0.930368
H  -2.580979  -1.074857   0.688419
C  -0.214825  -0.635673   0.197640
H  -1.257186   0.537450   0.342887
H  -1.404169   1.213911  -1.474867
H  -0.575028  -0.978004   0.853035
H   0.841070   0.176530   0.862409
H  -0.148846  -1.668751  -0.827693
