butane_opt
 OpenBabel08242015403D

 14 10  0  0  0  0  0  0  0  0999 V2000
   -3.9433    0.3114   -0.0659 C   0  0  0  0  0  0  0  0  0  0  0  0
   -2.6358   -0.6433    0.1832 C   0  0  0  0  0  0  0  0  0  0  0  0
   -5.0591   -0.5001   -0.0005 H   0  0  0  0  0  0  0  0  0  0  0  0
   -3.7702    1.2550   -1.0964 H   0  0  0  0  0  0  0  0  0  0  0  0
   -4.1670    0.7099    0.6765 H   0  0  0  0  0  0  0  0  0  0  0  0
   -1.3599    0.1448    0.0192 C   0  0  0  0  0  0  0  0  0  0  0  0
   -2.6705   -0.9347   -0.3988 H   0  0  0  0  0  0  0  0  0  0  0  0
   -2.7877   -1.4658    1.1440 H   0  0  0  0  0  0  0  0  0  0  0  0
   -0.2187   -0.6933   -0.0470 C   0  0  0  0  0  1  0  0  0  0  0  0
   -1.2914    0.9786    1.0250 H   0  0  0  0  0  0  0  0  0  0  0  0
   -1.3423    0.5064   -0.6563 H   0  0  0  0  0  0  0  0  0  0  0  0
   -0.5832   -0.6166    0.3709 H   0  0  0  0  0  0  0  0  0  0  0  0
    0.6162    0.0393    0.4542 H   0  0  0  0  0  0  0  0  0  0  0  0
   -0.0407   -1.9227   -1.2657 H   0  0  0  0  0  0  0  0  0  0  0  0
  1  3  1  0  0  0  0
  1  2  1  0  0  0  0
  1  5  1  0  0  0  0
  2  8  1  0  0  0  0
  4  1  1  0  0  0  0
  6 12  1  0  0  0  0
  6 10  1  0  0  0  0
  7  2  1  0  0  0  0
  9 13  1  0  0  0  0
 11  6  1  0  0  0  0
M  RAD  3   2   2   6   2  14   2
M  END
$$$$
