butane_opt
 OpenBabel08242015403D

 14 13  0  0  0  0  0  0  0  0999 V2000
   -3.9321    0.3121   -0.1115 C   0  0  0  0  0  0  0  0  0  0  0  0
   -2.6553   -0.6617    0.1902 C   0  0  0  0  0  0  0  0  0  0  0  0
   -4.8216   -0.4520   -0.3030 H   0  0  0  0  0  0  0  0  0  0  0  0
   -3.6262    0.8666   -1.0475 H   0  0  0  0  0  0  0  0  0  0  0  0
   -4.3456    1.2786    0.8189 H   0  0  0  0  0  0  0  0  0  0  0  0
   -1.4166    0.1010    0.1616 C   0  0  0  0  0  0  0  0  0  0  0  0
   -2.6864   -1.1157   -0.4263 H   0  0  0  0  0  0  0  0  0  0  0  0
   -2.6645   -1.5038    1.1642 H   0  0  0  0  0  0  0  0  0  0  0  0
   -0.1599   -0.6410   -0.0933 C   0  0  0  0  0  0  0  0  0  0  0  0
   -1.6250    0.7069    0.8840 H   0  0  0  0  0  0  0  0  0  0  0  0
   -1.5232    0.7627   -0.8395 H   0  0  0  0  0  0  0  0  0  0  0  0
   -0.1368   -0.9357    0.6098 H   0  0  0  0  0  0  0  0  0  0  0  0
    0.8616    0.0735   -0.0792 H   0  0  0  0  0  0  0  0  0  0  0  0
   -0.5066   -1.4531   -1.1100 H   0  0  0  0  0  0  0  0  0  0  0  0
  1  2  1  0  0  0  0
  1  5  1  0  0  0  0
  2  8  1  0  0  0  0
  3  1  1  0  0  0  0
  4  1  1  0  0  0  0
  6  2  1  0  0  0  0
  6 10  1  0  0  0  0
  7  2  1  0  0  0  0
  9 13  1  0  0  0  0
  9  6  1  0  0  0  0
  9 12  1  0  0  0  0
 11  6  1  0  0  0  0
 14  9  1  0  0  0  0
M  END
$$$$
