14
butane_opt
C  -3.948702   0.255480   0.047506
C  -2.707222  -0.612626   0.011244
H  -4.873929  -0.342469   0.052393
H  -3.970481   0.797809  -0.812250
H  -3.899094   0.962728   0.941688
C  -1.395283   0.206628  -0.026342
H  -2.752728  -1.260513  -0.828549
H  -2.690657  -1.222718   0.877950
C  -0.157985  -0.710867   0.059940
H  -1.407031   0.874196   0.779107
H  -1.395147   0.878795  -0.947898
H  -0.213676  -1.303142   0.970173
H   0.705501  -0.154748   0.100408
H  -0.009533  -1.381093  -0.799943
