14
butane_opt
C  -4.051104   0.309856  -0.115591
C  -2.641854  -0.632212   0.225223
H  -4.795231  -0.135125   0.296322
H  -4.231870   1.389550  -1.326026
H  -4.010812   0.415518   0.570018
C  -1.372626   0.097148   0.100201
H  -2.741593  -1.490224  -0.674720
H  -2.897233  -1.371711   1.140117
C  -0.096846  -0.629501  -0.095974
H  -1.305501   0.719661   1.030179
H  -1.474592   0.792383  -0.772157
H  -0.452224  -0.583245   0.391084
H   0.881270   0.003376   0.709499
H  -0.075260  -1.901934  -1.410264
