butane_opt
 OpenBabel08242015403D

 14 10  0  0  0  0  0  0  0  0999 V2000
   -4.0225    0.2829   -0.0918 C   0  0  0  0  0  1  0  0  0  0  0  0
   -2.6772   -0.6949    0.1238 C   0  0  0  0  0  0  0  0  0  0  0  0
   -4.6501    0.0364    0.6996 H   0  0  0  0  0  0  0  0  0  0  0  0
   -4.3874    1.7589   -1.6064 H   0  0  0  0  0  0  0  0  0  0  0  0
   -3.9323    0.0934    0.2210 H   0  0  0  0  0  0  0  0  0  0  0  0
   -1.3587    0.1681    0.1902 C   0  0  0  0  0  0  0  0  0  0  0  0
   -2.3099   -1.2323   -0.6517 H   0  0  0  0  0  0  0  0  0  0  0  0
   -2.7530   -1.3736    0.9314 H   0  0  0  0  0  0  0  0  0  0  0  0
   -0.1824   -0.6328   -0.1282 C   0  0  0  0  0  0  0  0  0  0  0  0
   -1.1316    1.1757    1.3884 H   0  0  0  0  0  0  0  0  0  0  0  0
   -1.4009    0.3311   -0.4433 H   0  0  0  0  0  0  0  0  0  0  0  0
   -0.2206   -1.0353    0.5989 H   0  0  0  0  0  0  0  0  0  0  0  0
    0.7493   -0.1525    0.1345 H   0  0  0  0  0  0  0  0  0  0  0  0
   -0.1165   -1.4887   -1.0562 H   0  0  0  0  0  0  0  0  0  0  0  0
  1  3  1  0  0  0  0
  2  6  1  0  0  0  0
  2  5  1  0  0  0  0
  2  8  1  0  0  0  0
  7  2  1  0  0  0  0
  9 13  1  0  0  0  0
  9  6  1  0  0  0  0
  9 12  1  0  0  0  0
 11  6  1  0  0  0  0
 14  9  1  0  0  0  0
M  RAD  3   4   2   6   2  10   2
M  END
$$$$
