14
butane_opt
C  -3.942225   0.273454   0.022187
C  -2.696930  -0.627008   0.035001
H  -4.807142  -0.279689   0.079557
H  -3.998039   0.916180  -0.907111
H  -3.940189   0.927906   0.867556
C  -1.395773   0.177042   0.012585
H  -2.699836  -1.356154  -0.853066
H  -2.680027  -1.242414   0.910568
C  -0.182645  -0.684561   0.041081
H  -1.414749   0.845122   0.849146
H  -1.326132   0.815688  -0.923215
H  -0.155605  -1.293903   0.941385
H   0.778733  -0.067297  -0.018297
H  -0.179852  -1.389644  -0.846040
