butane_opt
 OpenBabel08242015403D

 14 12  0  0  0  0  0  0  0  0999 V2000
   -3.9704    0.2296    0.1491 C   0  0  0  0  0  0  0  0  0  0  0  0
   -2.7479   -0.6236   -0.0542 C   0  0  0  0  0  0  0  0  0  0  0  0
   -4.7300   -0.3013   -0.3280 H   0  0  0  0  0  0  0  0  0  0  0  0
   -3.9473    0.6042   -0.4602 H   0  0  0  0  0  0  0  0  0  0  0  0
   -4.2585    1.3119    1.2779 H   0  0  0  0  0  0  0  0  0  0  0  0
   -1.3863    0.2280   -0.1986 C   0  0  0  0  0  0  0  0  0  0  0  0
   -3.0432   -1.1787   -0.9813 H   0  0  0  0  0  0  0  0  0  0  0  0
   -2.5272   -1.0630    0.7542 H   0  0  0  0  0  0  0  0  0  0  0  0
   -0.1212   -0.7380    0.1976 C   0  0  0  0  0  0  0  0  0  0  0  0
   -1.2641    0.8147    0.6689 H   0  0  0  0  0  0  0  0  0  0  0  0
   -1.2966    0.8703   -1.0468 H   0  0  0  0  0  0  0  0  0  0  0  0
   -0.1253   -1.3291    1.0711 H   0  0  0  0  0  0  0  0  0  0  0  0
    0.7362   -0.1756   -0.1077 H   0  0  0  0  0  0  0  0  0  0  0  0
    0.1724   -1.2048   -0.5208 H   0  0  0  0  0  0  0  0  0  0  0  0
  2  1  1  0  0  0  0
  2  8  1  0  0  0  0
  3  1  1  0  0  0  0
  4  1  1  0  0  0  0
  6  2  1  0  0  0  0
  6  9  1  0  0  0  0
  6 10  1  0  0  0  0
  7  2  1  0  0  0  0
  9 12  1  0  0  0  0
 11  6  1  0  0  0  0
 13  9  1  0  0  0  0
 14  9  1  0  0  0  0
M  RAD  2   1   2   5   2
M  END
$$$$
