butane_opt
 OpenBabel08242015403D

 14 12  0  0  0  0  0  0  0  0999 V2000
   -3.9906    0.1938    0.1929 C   0  0  0  0  0  0  0  0  0  0  0  0
   -2.7618   -0.6057   -0.1633 C   0  0  0  0  0  0  0  0  0  0  0  0
   -4.8884   -0.4101    0.5586 H   0  0  0  0  0  0  0  0  0  0  0  0
   -4.1790    1.1193   -0.8398 H   0  0  0  0  0  0  0  0  0  0  0  0
   -3.4604    0.6696    0.9454 H   0  0  0  0  0  0  0  0  0  0  0  0
   -1.4171    0.3153   -0.1235 C   0  0  0  0  0  0  0  0  0  0  0  0
   -2.6733   -1.6359   -1.2793 H   0  0  0  0  0  0  0  0  0  0  0  0
   -2.6843   -0.7329    0.4514 H   0  0  0  0  0  0  0  0  0  0  0  0
   -0.0873   -0.7604    0.1729 C   0  0  0  0  0  0  0  0  0  0  0  0
   -1.5001    0.9164    0.5924 H   0  0  0  0  0  0  0  0  0  0  0  0
   -1.3457    0.9168   -1.0059 H   0  0  0  0  0  0  0  0  0  0  0  0
    0.1296   -1.5878    1.3559 H   0  0  0  0  0  0  0  0  0  0  0  0
    0.5108   -0.4054    0.0620 H   0  0  0  0  0  0  0  0  0  0  0  0
    0.1738   -1.0636   -0.3256 H   0  0  0  0  0  0  0  0  0  0  0  0
  1  3  1  0  0  0  0
  1  5  1  0  0  0  0
  2  6  1  0  0  0  0
  2  1  1  0  0  0  0
  2  8  1  0  0  0  0
  4  1  1  0  0  0  0
  6  9  1  0  0  0  0
  6 10  1  0  0  0  0
  9 12  1  0  0  0  0
 11  6  1  0  0  0  0
 13  9  1  0  0  0  0
 14  9  1  0  0  0  0
M  RAD  2   2   2   7   2
M  END
$$$$
