14
butane_opt
C  -4.025031   0.354863   0.049115
C  -2.732248  -0.776077   0.010741
H  -4.906918  -0.078958  -0.568909
H  -3.819210   0.502205  -0.488395
H  -4.220279   1.568906   1.422654
C  -1.302590   0.147502  -0.061059
H  -2.636726  -1.077822  -0.575131
H  -2.702055  -1.456650   0.920215
C  -0.168785  -0.626596   0.060167
H  -1.173622   0.634169   0.764410
H  -1.448786   0.903438  -1.148608
H  -0.024373  -1.435704   1.088792
H   0.746223  -0.011809   0.159113
H  -0.163113  -1.206492  -0.739999
