14
butane_opt
C  -3.951403   0.257018  -0.001067
C  -2.699541  -0.616359   0.061143
H  -4.824987  -0.330552   0.093601
H  -3.992987   0.932051  -0.927140
H  -3.987209   0.860832   0.797313
C  -1.405597   0.202835   0.016535
H  -2.772348  -1.242045  -0.746074
H  -2.719583  -1.263371   0.975466
C  -0.151402  -0.700177   0.018792
H  -1.386368   0.907031   0.895802
H  -1.410241   0.766499  -0.837832
H  -0.146253  -1.224963   0.852996
H   0.756389  -0.098944   0.097345
H  -0.048842  -1.497066  -0.930381
