14
butane_opt
C  -3.891472   0.207915  -0.075155
C  -2.696834  -0.516683   0.088073
H  -5.048138  -0.472104   0.689538
H  -4.033537   1.235568  -1.261799
H  -3.882692   0.325144   0.386283
C  -1.435049   0.183264   0.148551
H  -2.412730  -1.391363  -0.803483
H  -2.666486  -0.985316   0.938319
C  -0.174352  -0.744979  -0.042402
H  -1.211182   0.979233   1.213161
H  -1.752865   0.960027  -0.890483
H  -0.118739  -1.053666   0.702300
H   0.768766  -0.126964   0.044855
H  -0.243636  -1.536013  -1.031931
