butane_opt
 OpenBabel08242015403D

 14 12  0  0  0  0  0  0  0  0999 V2000
   -3.8957    0.2635    0.1446 C   0  0  0  0  0  0  0  0  0  0  0  0
   -2.7052   -0.6694   -0.1511 C   0  0  0  0  0  0  0  0  0  0  0  0
   -4.6298    0.0219   -0.0002 H   0  0  0  0  0  0  0  0  0  0  0  0
   -4.2272    0.6806   -0.4902 H   0  0  0  0  0  0  0  0  0  0  0  0
   -3.8567    1.2637    1.2727 H   0  0  0  0  0  0  0  0  0  0  0  0
   -1.4508    0.1481   -0.1387 C   0  0  0  0  0  0  0  0  0  0  0  0
   -2.6486   -1.3503   -1.0060 H   0  0  0  0  0  0  0  0  0  0  0  0
   -2.4486   -1.2433    0.7245 H   0  0  0  0  0  0  0  0  0  0  0  0
   -0.1756   -0.6162    0.1920 C   0  0  0  0  0  0  0  0  0  0  0  0
   -1.7709    0.7967    0.8459 H   0  0  0  0  0  0  0  0  0  0  0  0
   -1.1112    0.6592   -0.9314 H   0  0  0  0  0  0  0  0  0  0  0  0
   -0.1627   -1.8182    1.4872 H   0  0  0  0  0  0  0  0  0  0  0  0
    0.8088    0.0390   -0.5281 H   0  0  0  0  0  0  0  0  0  0  0  0
   -0.2963   -0.9915   -0.4860 H   0  0  0  0  0  0  0  0  0  0  0  0
  1  5  1  0  0  0  0
  2  6  1  0  0  0  0
  2  1  1  0  0  0  0
  2  8  1  0  0  0  0
  3  1  1  0  0  0  0
  4  1  1  0  0  0  0
  6  9  1  0  0  0  0
  6 10  1  0  0  0  0
  7  2  1  0  0  0  0
 11  6  1  0  0  0  0
 13  9  1  0  0  0  0
 14  9  1  0  0  0  0
M  RAD  2   9   2  12   2
M  END
$$$$
