butane_opt
 OpenBabel08242015403D

 14 10  0  0  0  0  0  0  0  0999 V2000
   -3.9724    0.2195    0.0640 C   0  0  0  0  0  0  0  0  0  0  0  0
   -2.7337   -0.5696    0.0283 C   0  0  0  0  0  0  0  0  0  0  0  0
   -4.9277   -0.4604   -0.4721 H   0  0  0  0  0  0  0  0  0  0  0  0
   -3.8304    0.3031   -0.4966 H   0  0  0  0  0  0  0  0  0  0  0  0
   -4.0653    1.5466    1.1872 H   0  0  0  0  0  0  0  0  0  0  0  0
   -1.4343    0.2775   -0.1184 C   0  0  0  0  0  0  0  0  0  0  0  0
   -2.8492   -1.0675   -0.6566 H   0  0  0  0  0  0  0  0  0  0  0  0
   -2.8043   -1.3899    1.1559 H   0  0  0  0  0  0  0  0  0  0  0  0
   -0.0694   -0.7751    0.0897 C   0  0  0  0  0  0  0  0  0  0  0  0
   -1.7298    0.7605    0.6418 H   0  0  0  0  0  0  0  0  0  0  0  0
   -1.1866    0.6577   -0.9523 H   0  0  0  0  0  0  0  0  0  0  0  0
    0.0401   -1.3873    0.9272 H   0  0  0  0  0  0  0  0  0  0  0  0
    0.9622    0.0523    0.1398 H   0  0  0  0  0  0  0  0  0  0  0  0
   -0.1074   -1.3070   -0.7516 H   0  0  0  0  0  0  0  0  0  0  0  0
  2  1  1  0  0  0  0
  2  8  1  0  0  0  0
  3  1  1  0  0  0  0
  6  9  1  0  0  0  0
  6 10  1  0  0  0  0
  7  2  1  0  0  0  0
  9 13  1  0  0  0  0
  9 12  1  0  0  0  0
 11  6  1  0  0  0  0
 14  9  1  0  0  0  0
M  RAD  5   1   3   2   2   4   2   5   2   6   2
M  END
$$$$
