butane_opt
 OpenBabel08242015403D

 14 13  0  0  0  0  0  0  0  0999 V2000
   -3.8763    0.2554    0.2075 C   0  0  0  0  0  0  0  0  0  0  0  0
   -2.7688   -0.6415   -0.1855 C   0  0  0  0  0  0  0  0  0  0  0  0
   -4.8154   -0.5408    0.7929 H   0  0  0  0  0  0  0  0  0  0  0  0
   -4.3526    1.1334   -0.6915 H   0  0  0  0  0  0  0  0  0  0  0  0
   -3.7452    0.9928    1.1380 H   0  0  0  0  0  0  0  0  0  0  0  0
   -1.4269    0.2658   -0.2382 C   0  0  0  0  0  0  0  0  0  0  0  0
   -2.8403   -1.5143   -1.2355 H   0  0  0  0  0  0  0  0  0  0  0  0
   -2.6615   -1.1916    0.5294 H   0  0  0  0  0  0  0  0  0  0  0  0
   -0.1275   -0.7459    0.2388 C   0  0  0  0  0  0  0  0  0  0  0  0
   -1.3285    0.9363    0.6498 H   0  0  0  0  0  0  0  0  0  0  0  0
   -1.3764    0.8970   -1.1826 H   0  0  0  0  0  0  0  0  0  0  0  0
   -0.4712   -1.3282    1.1669 H   0  0  0  0  0  0  0  0  0  0  0  0
    0.7523   -0.1690    0.5900 H   0  0  0  0  0  0  0  0  0  0  0  0
    0.2529   -1.2971   -0.5490 H   0  0  0  0  0  0  0  0  0  0  0  0
  1  3  1  0  0  0  0
  1  5  1  0  0  0  0
  2  1  1  0  0  0  0
  2  8  1  0  0  0  0
  4  1  1  0  0  0  0
  6  2  1  0  0  0  0
  6  9  1  0  0  0  0
  6 10  1  0  0  0  0
  7  2  1  0  0  0  0
  9 13  1  0  0  0  0
  9 12  1  0  0  0  0
 11  6  1  0  0  0  0
 14  9  1  0  0  0  0
M  END
$$$$
