14
butane_opt
C  -3.980337   0.291369  -0.109352
C  -2.698683  -0.716072   0.153424
H  -4.944820  -0.163224   0.113649
H  -4.090771   1.139284  -1.221069
H  -4.125144   0.985666   0.754509
C  -1.384937   0.174670   0.096204
H  -2.739788  -1.231711  -0.436499
H  -2.622031  -1.646328   1.320643
C  -0.133930  -0.654223  -0.084820
H  -1.438295   1.082561   1.076383
H  -1.391712   0.812088  -0.701220
H   0.038872  -0.826566   0.582342
H   0.743696  -0.066357   0.347228
H  -0.092132  -1.710476  -1.134929
