butane_opt
 OpenBabel08242015403D

 14 12  0  0  0  0  0  0  0  0999 V2000
   -4.0155    0.3021    0.0463 C   0  0  0  0  0  0  0  0  0  0  0  0
   -2.6487   -0.7329   -0.0763 C   0  0  0  0  0  0  0  0  0  0  0  0
   -4.8058   -0.1275    0.6793 H   0  0  0  0  0  0  0  0  0  0  0  0
   -4.5952    1.2991   -0.9756 H   0  0  0  0  0  0  0  0  0  0  0  0
   -3.7791    0.7708    0.8518 H   0  0  0  0  0  0  0  0  0  0  0  0
   -1.3270    0.1364   -0.0288 C   0  0  0  0  0  0  0  0  0  0  0  0
   -2.5237   -1.2753   -0.7455 H   0  0  0  0  0  0  0  0  0  0  0  0
   -2.6406   -1.0979    0.7308 H   0  0  0  0  0  0  0  0  0  0  0  0
   -0.1871   -0.5923    0.0961 C   0  0  0  0  0  0  0  0  0  0  0  0
   -1.2121    0.8562    0.9421 H   0  0  0  0  0  0  0  0  0  0  0  0
   -1.4906    0.6800   -0.9214 H   0  0  0  0  0  0  0  0  0  0  0  0
   -0.2593   -1.3573    1.0048 H   0  0  0  0  0  0  0  0  0  0  0  0
    0.6357   -0.1121    0.2725 H   0  0  0  0  0  0  0  0  0  0  0  0
   -0.2209   -1.4612   -0.8510 H   0  0  0  0  0  0  0  0  0  0  0  0
  1  3  1  0  0  0  0
  1  5  1  0  0  0  0
  2  6  1  0  0  0  0
  2  1  1  0  0  0  0
  2  8  1  0  0  0  0
  6  9  1  0  0  0  0
  6 10  1  0  0  0  0
  7  2  1  0  0  0  0
  9 13  1  0  0  0  0
  9 12  1  0  0  0  0
 11  6  1  0  0  0  0
 14  9  1  0  0  0  0
M  RAD  2   1   2   4   2
M  END
$$$$
