14
butane_opt
C  -3.929922   0.255815  -0.031590
C  -2.661223  -0.577244   0.034894
H  -4.885027  -0.250806   0.853062
H  -4.027222   1.550734  -1.362885
H  -3.863456   0.119800   0.277652
C  -1.412437   0.155975   0.093901
H  -2.413650  -1.155657  -0.722969
H  -2.592407  -1.283699   0.972129
C  -0.255199  -0.684271  -0.040140
H  -1.271513   1.089181   1.345365
H  -1.469420   0.315990  -0.485474
H  -0.239618  -1.216406   0.711817
H   0.875127   0.139638   0.195728
H  -0.064699  -1.539154  -1.101386
