butane_opt
 OpenBabel08242015403D

 14 13  0  0  0  0  0  0  0  0999 V2000
   -3.9262    0.2655    0.0005 C   0  0  0  0  0  0  0  0  0  0  0  0
   -2.6970   -0.6217    0.0707 C   0  0  0  0  0  0  0  0  0  0  0  0
   -4.8219   -0.3104    0.0017 H   0  0  0  0  0  0  0  0  0  0  0  0
   -3.9423    0.9317   -0.9288 H   0  0  0  0  0  0  0  0  0  0  0  0
   -4.0514    0.8963    0.8125 H   0  0  0  0  0  0  0  0  0  0  0  0
   -1.4187    0.1763    0.0162 C   0  0  0  0  0  0  0  0  0  0  0  0
   -2.7241   -1.2422   -0.7398 H   0  0  0  0  0  0  0  0  0  0  0  0
   -2.6969   -1.2954    0.9967 H   0  0  0  0  0  0  0  0  0  0  0  0
   -0.1659   -0.6895    0.0082 C   0  0  0  0  0  0  0  0  0  0  0  0
   -1.3289    0.8958    0.9039 H   0  0  0  0  0  0  0  0  0  0  0  0
   -1.4227    0.8093   -0.8343 H   0  0  0  0  0  0  0  0  0  0  0  0
   -0.1593   -1.1885    0.8446 H   0  0  0  0  0  0  0  0  0  0  0  0
    0.7505   -0.0733    0.1467 H   0  0  0  0  0  0  0  0  0  0  0  0
   -0.1310   -1.4693   -0.9241 H   0  0  0  0  0  0  0  0  0  0  0  0
  1  3  1  0  0  0  0
  1  2  1  0  0  0  0
  1  5  1  0  0  0  0
  2  8  1  0  0  0  0
  4  1  1  0  0  0  0
  6  2  1  0  0  0  0
  6 10  1  0  0  0  0
  7  2  1  0  0  0  0
  9  6  1  0  0  0  0
  9 13  1  0  0  0  0
  9 12  1  0  0  0  0
 11  6  1  0  0  0  0
 14  9  1  0  0  0  0
M  END
$$$$
