14
butane_opt
C  -3.969172   0.313023  -0.021775
C  -2.684449  -0.625759   0.166006
H  -4.751327  -0.376453  -0.625425
H  -3.727629   0.614187  -0.713868
H  -4.074388   1.202243   0.959402
C  -1.347071   0.112955   0.028619
H  -2.497403  -1.104144  -0.674918
H  -2.568097  -1.268202   1.023525
C  -0.262321  -0.662351  -0.065067
H  -1.235769   0.725130   0.823692
H  -1.443395   0.687540  -0.819058
H  -0.449500  -1.451671   0.906064
H   0.864665   0.127058   0.201407
H  -0.019576  -1.267771  -0.901418
