14
butane_opt
C  -3.916391   0.216870   0.101083
C  -2.781103  -0.582332  -0.017577
H  -4.766450  -0.267577   0.227313
H  -4.205171   1.020573  -0.825716
H  -3.692035   0.770792   0.783830
C  -1.388081   0.203023  -0.100333
H  -2.986278  -1.267943  -0.880926
H  -2.792672  -1.200944   0.855243
C  -0.088448  -0.713279   0.145660
H  -1.578139   0.921231   0.715400
H  -1.462529   1.133612  -1.308120
H  -0.134890  -0.867570   0.793148
H   0.618871  -0.357777   0.553302
H   0.059848  -1.893902  -1.089756
