14
butane_opt
C  -3.931375   0.324164   0.142543
C  -2.725317  -0.654266  -0.106856
H  -4.895906  -0.370811  -0.341734
H  -3.779217   0.414463  -0.328315
H  -4.063278   1.690493   1.410526
C  -1.366620   0.091640  -0.095801
H  -2.751560  -1.423529  -0.963242
H  -2.630435  -1.165830   0.774774
C  -0.163836  -0.663219   0.144950
H  -1.738243   0.569451   0.630123
H  -1.117882   1.051297  -1.364485
H  -0.246952  -1.667498   1.444932
H   0.808542   0.150998  -0.323031
H  -0.392334  -0.904209  -0.430332
