butane_opt
 OpenBabel08242015403D

 14 13  0  0  0  0  0  0  0  0999 V2000
   -3.9469    0.2530    0.0395 C   0  0  0  0  0  0  0  0  0  0  0  0
   -2.7017   -0.6138    0.0134 C   0  0  0  0  0  0  0  0  0  0  0  0
   -4.8424   -0.3118    0.0850 H   0  0  0  0  0  0  0  0  0  0  0  0
   -3.9788    0.8478   -0.8471 H   0  0  0  0  0  0  0  0  0  0  0  0
   -3.9839    0.9710    0.9137 H   0  0  0  0  0  0  0  0  0  0  0  0
   -1.4088    0.1995    0.0025 C   0  0  0  0  0  0  0  0  0  0  0  0
   -2.7588   -1.3490   -0.8941 H   0  0  0  0  0  0  0  0  0  0  0  0
   -2.7412   -1.1647    0.8136 H   0  0  0  0  0  0  0  0  0  0  0  0
   -0.1470   -0.6971    0.0472 C   0  0  0  0  0  0  0  0  0  0  0  0
   -1.4024    0.8433    0.8227 H   0  0  0  0  0  0  0  0  0  0  0  0
   -1.3764    0.8477   -0.9072 H   0  0  0  0  0  0  0  0  0  0  0  0
   -0.1142   -1.4549    1.0630 H   0  0  0  0  0  0  0  0  0  0  0  0
    0.7461   -0.1410   -0.0640 H   0  0  0  0  0  0  0  0  0  0  0  0
   -0.1173   -1.2599   -0.7554 H   0  0  0  0  0  0  0  0  0  0  0  0
  1  3  1  0  0  0  0
  1  5  1  0  0  0  0
  2  1  1  0  0  0  0
  2  8  1  0  0  0  0
  4  1  1  0  0  0  0
  6  2  1  0  0  0  0
  6  9  1  0  0  0  0
  6 10  1  0  0  0  0
  7  2  1  0  0  0  0
  9 12  1  0  0  0  0
 11  6  1  0  0  0  0
 13  9  1  0  0  0  0
 14  9  1  0  0  0  0
M  END
$$$$
