14
butane_opt
C  -3.970409   0.345094   0.263310
C  -2.714229  -0.676208  -0.121848
H  -4.828548  -0.111609   0.061712
H  -4.160001   0.803291  -0.584117
H  -3.892301   0.951417   1.226391
C  -1.370011   0.065514  -0.349496
H  -3.000048  -1.364095  -0.938851
H  -2.667593  -1.014056   0.645567
C  -0.150159  -0.656521   0.267605
H  -1.574227   0.722660   0.439753
H  -1.117958   0.856901  -1.258262
H  -0.638895  -0.794480   0.904786
H   0.955387   0.114956   0.841909
H   0.303240  -1.559723  -0.675801
