butane_opt
 OpenBabel08242015403D

 14 11  0  0  0  0  0  0  0  0999 V2000
   -3.8768    0.2198    0.1703 C   0  0  0  0  0  0  0  0  0  0  0  0
   -2.6884   -0.5067   -0.2392 C   0  0  0  0  0  0  0  0  0  0  0  0
   -4.8517   -0.4811    0.3693 H   0  0  0  0  0  0  0  0  0  0  0  0
   -4.0264    0.6357   -0.4555 H   0  0  0  0  0  0  0  0  0  0  0  0
   -3.4548    0.8753    1.0212 H   0  0  0  0  0  0  0  0  0  0  0  0
   -1.4368    0.2202   -0.0611 C   0  0  0  0  0  0  0  0  0  0  0  0
   -3.0951   -1.2494   -1.1447 H   0  0  0  0  0  0  0  0  0  0  0  0
   -2.6439   -1.2077    0.6070 H   0  0  0  0  0  0  0  0  0  0  0  0
   -0.1993   -0.7794    0.1908 C   0  0  0  0  0  1  0  0  0  0  0  0
   -1.7308    0.9475    0.7123 H   0  0  0  0  0  0  0  0  0  0  0  0
   -1.3228    0.9618   -1.1346 H   0  0  0  0  0  0  0  0  0  0  0  0
    0.0993   -1.9837    1.4111 H   0  0  0  0  0  0  0  0  0  0  0  0
    0.7973    0.0243   -0.2402 H   0  0  0  0  0  0  0  0  0  0  0  0
   -0.3991   -0.8312   -0.3604 H   0  0  0  0  0  0  0  0  0  0  0  0
  1  3  1  0  0  0  0
  1  5  1  0  0  0  0
  2  6  1  0  0  0  0
  2  1  1  0  0  0  0
  2  8  1  0  0  0  0
  4  1  1  0  0  0  0
  6 10  1  0  0  0  0
  7  2  1  0  0  0  0
 11  6  1  0  0  0  0
 13  9  1  0  0  0  0
 14  6  1  0  0  0  0
M  RAD  1  12   2
M  END
$$$$
