butane_opt
 OpenBabel08242015403D

 14 11  0  0  0  0  0  0  0  0999 V2000
   -3.9260    0.1871    0.1254 C   0  0  0  0  0  0  0  0  0  0  0  0
   -2.7692   -0.5764   -0.1041 C   0  0  0  0  0  0  0  0  0  0  0  0
   -4.8794   -0.4734    0.8049 H   0  0  0  0  0  0  0  0  0  0  0  0
   -4.2070    1.3656   -1.0770 H   0  0  0  0  0  0  0  0  0  0  0  0
   -3.7351    0.5255    0.8330 H   0  0  0  0  0  0  0  0  0  0  0  0
   -1.4580    0.3382   -0.0804 C   0  0  0  0  0  0  0  0  0  0  0  0
   -2.9284   -1.6715   -1.3421 H   0  0  0  0  0  0  0  0  0  0  0  0
   -2.5768   -1.0889    0.6395 H   0  0  0  0  0  0  0  0  0  0  0  0
   -0.0771   -0.7609    0.1620 C   0  0  0  0  0  0  0  0  0  0  0  0
   -1.6868    1.0402    0.8512 H   0  0  0  0  0  0  0  0  0  0  0  0
   -1.3432    0.8000   -0.9158 H   0  0  0  0  0  0  0  0  0  0  0  0
    0.0183   -1.5618    0.9993 H   0  0  0  0  0  0  0  0  0  0  0  0
    0.8692   -0.1729   -0.0246 H   0  0  0  0  0  0  0  0  0  0  0  0
    0.2230   -1.4416   -0.6119 H   0  0  0  0  0  0  0  0  0  0  0  0
  1  3  1  0  0  0  0
  1  5  1  0  0  0  0
  2  6  1  0  0  0  0
  2  1  1  0  0  0  0
  2  8  1  0  0  0  0
  6  9  1  0  0  0  0
  6 10  1  0  0  0  0
  9 12  1  0  0  0  0
 11  6  1  0  0  0  0
 13  9  1  0  0  0  0
 14  9  1  0  0  0  0
M  RAD  4   1   2   2   2   4   2   7   2
M  END
$$$$
