butane_opt
 OpenBabel08242015403D

 14 11  0  0  0  0  0  0  0  0999 V2000
   -3.9069    0.3070   -0.0991 C   0  0  0  0  0  0  0  0  0  0  0  0
   -2.6258   -0.7019    0.2174 C   0  0  0  0  0  0  0  0  0  0  0  0
   -4.7808   -0.2889   -0.2995 H   0  0  0  0  0  0  0  0  0  0  0  0
   -3.6616    1.1362   -1.1495 H   0  0  0  0  0  0  0  0  0  0  0  0
   -4.1268    0.6680    0.4792 H   0  0  0  0  0  0  0  0  0  0  0  0
   -1.4639    0.1759    0.1138 C   0  0  0  0  0  0  0  0  0  0  0  0
   -2.6015   -0.8945   -0.3585 H   0  0  0  0  0  0  0  0  0  0  0  0
   -2.7323   -1.5662    1.4179 H   0  0  0  0  0  0  0  0  0  0  0  0
   -0.2576   -0.6408   -0.1320 C   0  0  0  0  0  0  0  0  0  0  0  0
   -1.2327    1.0476    1.0721 H   0  0  0  0  0  0  0  0  0  0  0  0
   -1.5862    0.5320   -0.6190 H   0  0  0  0  0  0  0  0  0  0  0  0
   -0.1705   -0.8118    0.4838 H   0  0  0  0  0  0  0  0  0  0  0  0
    0.8816    0.0462    0.4096 H   0  0  0  0  0  0  0  0  0  0  0  0
   -0.0281   -2.0083   -1.2884 H   0  0  0  0  0  0  0  0  0  0  0  0
  1  2  1  0  0  0  0
  1  5  1  0  0  0  0
  2  8  1  0  0  0  0
  3  1  1  0  0  0  0
  4  1  1  0  0  0  0
  6  2  1  0  0  0  0
  6 10  1  0  0  0  0
  9  6  1  0  0  0  0
  9 13  1  0  0  0  0
  9 12  1  0  0  0  0
 11  6  1  0  0  0  0
M  RAD  4   2   2   7   2   9   2  14   2
M  END
$$$$
