14
butane_opt
C  -3.915801   0.190086  -0.071772
C  -2.660917  -0.489059   0.139930
H  -4.967351  -0.529714  -0.185163
H  -3.643865   0.822481  -0.902280
H  -3.940527   0.555301   0.500905
C  -1.461493   0.219944   0.139201
H  -2.717574  -1.181274  -0.859064
H  -2.709720  -1.053747   0.951302
C  -0.147795  -0.731859  -0.060592
H  -1.210529   1.054929   1.055587
H  -1.785095   0.730346  -0.501577
H  -0.000269  -1.576475   1.044306
H   0.575487  -0.315544  -0.593204
H  -0.342137  -1.314423  -0.835215
