butane_opt
 OpenBabel08242015403D

 14 12  0  0  0  0  0  0  0  0999 V2000
   -3.9355    0.2230    0.2235 C   0  0  0  0  0  0  0  0  0  0  0  0
   -2.6843   -0.5215   -0.1283 C   0  0  0  0  0  0  0  0  0  0  0  0
   -4.7604   -0.3722    0.0335 H   0  0  0  0  0  0  0  0  0  0  0  0
   -3.7788    0.5803   -0.5430 H   0  0  0  0  0  0  0  0  0  0  0  0
   -3.8291    1.0989    1.3904 H   0  0  0  0  0  0  0  0  0  0  0  0
   -1.3986    0.1648   -0.2496 C   0  0  0  0  0  0  0  0  0  0  0  0
   -2.9929   -1.2797   -0.9684 H   0  0  0  0  0  0  0  0  0  0  0  0
   -2.8639   -1.1043    0.7225 H   0  0  0  0  0  0  0  0  0  0  0  0
   -0.1762   -0.7363    0.2454 C   0  0  0  0  0  0  0  0  0  0  0  0
   -1.7252    0.5796    0.3559 H   0  0  0  0  0  0  0  0  0  0  0  0
   -1.2000    1.2627   -1.5055 H   0  0  0  0  0  0  0  0  0  0  0  0
   -0.2864   -0.9880    0.9773 H   0  0  0  0  0  0  0  0  0  0  0  0
    0.7556   -0.1559    0.7275 H   0  0  0  0  0  0  0  0  0  0  0  0
   -0.0178   -1.6588   -0.8255 H   0  0  0  0  0  0  0  0  0  0  0  0
  1  5  1  0  0  0  0
  2  1  1  0  0  0  0
  2  8  1  0  0  0  0
  3  1  1  0  0  0  0
  4  1  1  0  0  0  0
  6  2  1  0  0  0  0
  6  9  1  0  0  0  0
  6 10  1  0  0  0  0
  7  2  1  0  0  0  0
  9 13  1  0  0  0  0
  9 12  1  0  0  0  0
 14  9  1  0  0  0  0
M  RAD  2   6   2  11   2
M  END
$$$$
