14
butane_opt
C  -3.892685   0.259896  -0.074311
C  -2.706263  -0.667746   0.085866
H  -4.759859  -0.172734  -0.230886
H  -4.013185   1.199905  -1.223410
H  -4.033426   0.855463   0.803098
C  -1.375801   0.216145   0.220008
H  -2.571683  -1.178149  -0.715961
H  -2.686517  -1.337011   0.942666
C  -0.237027  -0.716656  -0.066608
H  -1.322179   0.789046   0.981109
H  -1.492976   0.843141  -0.533884
H   0.262287  -1.358409   0.829450
H   0.876905  -0.046955  -0.678240
H  -0.718043  -1.127791  -0.731860
