14
butane_opt
C  -3.978469   0.345185  -0.206108
C  -2.684006  -0.725474   0.243004
H  -4.877524  -0.337284  -0.190881
H  -3.947598   1.101327  -1.150215
H  -4.366272   0.952121   0.610383
C  -1.404247   0.179974   0.248747
H  -2.600897  -1.411383  -0.405230
H  -2.693081  -1.403544   1.173721
C  -0.141451  -0.655678  -0.194554
H  -0.946959   0.955672   1.196371
H  -1.463860   0.425437  -0.338599
H   0.121086  -1.452104   0.773843
H   0.784067   0.053535  -0.347049
H  -0.533173  -1.049515  -0.951734
