14
butane_opt
C  -3.922483   0.235019  -0.101153
C  -2.736710  -0.620062   0.088701
H  -4.980405  -0.628852   0.077430
H  -3.951359   1.101700  -1.265707
H  -3.918758   0.779114   0.681429
C  -1.445685   0.278880   0.258842
H  -2.451708  -1.353119  -0.773689
H  -2.680018  -1.190059   1.082792
C  -0.140777  -0.739455  -0.081545
H  -1.376250   0.926435   1.088703
H  -1.476657   0.940343  -0.678598
H   0.337514  -1.534645   0.810469
H   0.649676  -0.211615  -0.761084
H  -0.187570  -1.164053  -0.818486
