14
butane_opt
C  -3.971853   0.350106   0.192606
C  -2.678651  -0.677008  -0.047982
H  -4.993157  -0.299022  -0.794029
H  -3.683731   0.090717  -0.275422
H  -4.439788   1.530074   1.361550
C  -1.391429   0.108738  -0.215796
H  -2.835782  -1.388950  -0.881422
H  -2.338247  -1.264909   0.683855
C  -0.160248  -0.618673   0.193399
H  -1.346404   0.530442   0.597835
H  -1.395146   0.973964  -1.244311
H  -0.383763  -1.408339   1.202731
H   0.771777  -0.123107  -0.144875
H   0.020555  -1.072314  -0.466667
