butane_opt
 OpenBabel08242015403D

 14 11  0  0  0  0  0  0  0  0999 V2000
   -3.9856    0.3004   -0.0978 C   0  0  0  0  0  0  0  0  0  0  0  0
   -2.6545   -0.6952    0.2056 C   0  0  0  0  0  0  0  0  0  0  0  0
   -4.9263   -0.3193   -0.7148 H   0  0  0  0  0  0  0  0  0  0  0  0
   -3.8190    0.5540   -0.7988 H   0  0  0  0  0  0  0  0  0  0  0  0
   -4.5914    1.3552    1.0145 H   0  0  0  0  0  0  0  0  0  0  0  0
   -1.3882    0.1631    0.1335 C   0  0  0  0  0  0  0  0  0  0  0  0
   -2.7811   -1.0951   -0.6126 H   0  0  0  0  0  0  0  0  0  0  0  0
   -2.8491   -1.3704    1.1785 H   0  0  0  0  0  0  0  0  0  0  0  0
   -0.1230   -0.6751   -0.0633 C   0  0  0  0  0  0  0  0  0  0  0  0
   -1.3945    0.7818    0.9033 H   0  0  0  0  0  0  0  0  0  0  0  0
   -1.3920    1.1735   -1.0272 H   0  0  0  0  0  0  0  0  0  0  0  0
    0.1265   -1.3001    0.7032 H   0  0  0  0  0  0  0  0  0  0  0  0
    1.0349   -0.0096   -0.1497 H   0  0  0  0  0  0  0  0  0  0  0  0
   -0.5996   -1.3901   -1.1387 H   0  0  0  0  0  0  0  0  0  0  0  0
  1  2  1  0  0  0  0
  2  8  1  0  0  0  0
  3  1  1  0  0  0  0
  4  1  1  0  0  0  0
  6  2  1  0  0  0  0
  6 10  1  0  0  0  0
  7  2  1  0  0  0  0
  9  6  1  0  0  0  0
  9 12  1  0  0  0  0
 13  9  1  0  0  0  0
 14  9  1  0  0  0  0
M  RAD  4   1   2   5   2   6   2  11   2
M  END
$$$$
