butane_opt
 OpenBabel08242015403D

 14 12  0  0  0  0  0  0  0  0999 V2000
   -3.9842    0.2249   -0.1452 C   0  0  0  0  0  0  0  0  0  0  0  0
   -2.7437   -0.5096    0.2610 C   0  0  0  0  0  0  0  0  0  0  0  0
   -5.0311   -0.6474   -0.6412 H   0  0  0  0  0  0  0  0  0  0  0  0
   -3.6070    0.4734   -0.9234 H   0  0  0  0  0  0  0  0  0  0  0  0
   -4.2801    1.2583    0.9929 H   0  0  0  0  0  0  0  0  0  0  0  0
   -1.3594    0.2399    0.1315 C   0  0  0  0  0  0  0  0  0  0  0  0
   -2.5178   -1.2138   -0.5271 H   0  0  0  0  0  0  0  0  0  0  0  0
   -3.1925   -1.3957    1.3945 H   0  0  0  0  0  0  0  0  0  0  0  0
   -0.1173   -0.7452   -0.1093 C   0  0  0  0  0  0  0  0  0  0  0  0
   -1.2540    0.8307    0.9088 H   0  0  0  0  0  0  0  0  0  0  0  0
   -1.5511    0.9237   -0.7128 H   0  0  0  0  0  0  0  0  0  0  0  0
    0.2010   -1.3049    0.6927 H   0  0  0  0  0  0  0  0  0  0  0  0
    0.7159   -0.1810   -0.3143 H   0  0  0  0  0  0  0  0  0  0  0  0
   -0.0232   -1.7500   -1.0574 H   0  0  0  0  0  0  0  0  0  0  0  0
  1  2  1  0  0  0  0
  2  8  1  0  0  0  0
  3  1  1  0  0  0  0
  4  1  1  0  0  0  0
  6  2  1  0  0  0  0
  6 10  1  0  0  0  0
  7  2  1  0  0  0  0
  9  6  1  0  0  0  0
  9 12  1  0  0  0  0
 11  6  1  0  0  0  0
 13  9  1  0  0  0  0
 14  9  1  0  0  0  0
M  RAD  2   1   2   5   2
M  END
$$$$
