butane_opt
 OpenBabel08242015403D

 14 10  0  0  0  0  0  0  0  0999 V2000
   -3.9155    0.3197    0.0628 C   0  0  0  0  0  0  0  0  0  0  0  0
   -2.6873   -0.6717   -0.0277 C   0  0  0  0  0  0  0  0  0  0  0  0
   -4.7186   -0.2871    0.1848 H   0  0  0  0  0  0  0  0  0  0  0  0
   -3.7848    0.9889   -0.8826 H   0  0  0  0  0  0  0  0  0  0  0  0
   -4.1962    0.9590    0.8691 H   0  0  0  0  0  0  0  0  0  0  0  0
   -1.3847    0.0849    0.0411 C   0  0  0  0  0  0  0  0  0  0  0  0
   -2.6096   -1.5928   -1.0782 H   0  0  0  0  0  0  0  0  0  0  0  0
   -2.3951   -0.8441    0.5477 H   0  0  0  0  0  0  0  0  0  0  0  0
   -0.2349   -0.6096    0.0581 C   0  0  0  0  0  0  0  0  0  0  0  0
   -1.3978    0.8556    0.9557 H   0  0  0  0  0  0  0  0  0  0  0  0
   -1.1561    0.6843   -0.9918 H   0  0  0  0  0  0  0  0  0  0  0  0
   -0.0687   -1.7245    1.3812 H   0  0  0  0  0  0  0  0  0  0  0  0
    0.5759   -0.1463   -0.6636 H   0  0  0  0  0  0  0  0  0  0  0  0
   -0.6065   -0.8349   -0.4379 H   0  0  0  0  0  0  0  0  0  0  0  0
  1  3  1  0  0  0  0
  1  5  1  0  0  0  0
  2  1  1  0  0  0  0
  2  8  1  0  0  0  0
  4  1  1  0  0  0  0
  6 10  1  0  0  0  0
  7  2  1  0  0  0  0
 11  6  1  0  0  0  0
 13  9  1  0  0  0  0
 14  9  1  0  0  0  0
M  RAD  4   2   2   6   3   9   3  12   2
M  END
$$$$
