14
butane_opt
C  -4.026455   0.264060   0.180955
C  -2.669589  -0.605595  -0.040976
H  -4.964540  -0.273311  -0.811714
H  -3.750291   0.298060  -0.186096
H  -4.472958   1.671789   1.402710
C  -1.374525   0.127493  -0.183855
H  -2.935240  -1.544574  -0.948693
H  -2.492612  -1.107294   0.736737
C  -0.135048  -0.672798   0.144797
H  -1.499737   0.573502   0.534410
H  -0.942489   1.118158  -1.342096
H  -0.080452  -1.613983   1.251536
H   0.726834  -0.105926   0.057572
H  -0.129398  -0.875923  -0.378872
