butane_opt
 OpenBabel08242015403D

 14  9  0  0  0  0  0  0  0  0999 V2000
   -3.8934    0.2944   -0.0792 C   0  0  0  0  0  0  0  0  0  0  0  0
   -2.6441   -0.6339    0.2137 C   0  0  0  0  0  0  0  0  0  0  0  0
   -5.0285   -0.4505   -0.1446 H   0  0  0  0  0  0  0  0  0  0  0  0
   -3.7705    1.3676   -1.3591 H   0  0  0  0  0  0  0  0  0  0  0  0
   -4.1389    0.5135    0.3034 H   0  0  0  0  0  0  0  0  0  0  0  0
   -1.4660    0.1190    0.1561 C   0  0  0  0  0  0  0  0  0  0  0  0
   -2.7915   -1.0577   -0.5402 H   0  0  0  0  0  0  0  0  0  0  0  0
   -2.7017   -1.3975    1.2598 H   0  0  0  0  0  0  0  0  0  0  0  0
   -0.1722   -0.6735   -0.1118 C   0  0  0  0  0  1  0  0  0  0  0  0
   -1.2490    1.0349    1.1509 H   0  0  0  0  0  0  0  0  0  0  0  0
   -1.6878    0.7687   -0.8736 H   0  0  0  0  0  0  0  0  0  0  0  0
   -0.3597   -0.6887    0.4720 H   0  0  0  0  0  0  0  0  0  0  0  0
    0.9949    0.1099    0.3602 H   0  0  0  0  0  0  0  0  0  0  0  0
   -0.1981   -1.9736   -1.4527 H   0  0  0  0  0  0  0  0  0  0  0  0
  1  2  1  0  0  0  0
  2  8  1  0  0  0  0
  3  1  1  0  0  0  0
  6  2  1  0  0  0  0
  6 12  1  0  0  0  0
  6 10  1  0  0  0  0
  7  2  1  0  0  0  0
  9 13  1  0  0  0  0
 11  6  1  0  0  0  0
M  RAD  4   1   3   4   2   5   2  14   2
M  END
$$$$
