14
butane_opt
C  -3.859464   0.198780  -0.159280
C  -2.708086  -0.515948   0.318680
H  -4.994850  -0.619581  -0.841072
H  -3.559632   0.511132  -0.899487
H  -4.158456   1.108843   0.827684
C  -1.454787   0.275308   0.108348
H  -2.359332  -1.055298  -0.349610
H  -2.933655  -1.469905   1.457220
C  -0.203697  -0.748080  -0.141443
H  -1.050506   1.243828   1.035676
H  -1.671626   0.683151  -0.636321
H  -0.130136  -1.414703   0.592944
H   0.683952  -0.233360  -0.061340
H  -0.076490  -1.803726  -1.182001
