butane_opt
 OpenBabel08242015403D

 14 13  0  0  0  0  0  0  0  0999 V2000
   -4.0665    0.2919   -0.0092 C   0  0  0  0  0  0  0  0  0  0  0  0
   -2.6570   -0.6739    0.0769 C   0  0  0  0  0  0  0  0  0  0  0  0
   -4.7298   -0.1055    0.4082 H   0  0  0  0  0  0  0  0  0  0  0  0
   -4.2764    1.1586   -1.0523 H   0  0  0  0  0  0  0  0  0  0  0  0
   -3.9614    0.9456    0.8198 H   0  0  0  0  0  0  0  0  0  0  0  0
   -1.3648    0.1555   -0.0326 C   0  0  0  0  0  0  0  0  0  0  0  0
   -2.7572   -1.4330   -0.8264 H   0  0  0  0  0  0  0  0  0  0  0  0
   -2.5152   -1.5231    1.1113 H   0  0  0  0  0  0  0  0  0  0  0  0
   -0.1424   -0.6301    0.0035 C   0  0  0  0  0  0  0  0  0  0  0  0
   -1.0286    0.8837    0.8868 H   0  0  0  0  0  0  0  0  0  0  0  0
   -1.3774    0.5095   -0.9108 H   0  0  0  0  0  0  0  0  0  0  0  0
   -0.4718   -1.0385    0.7651 H   0  0  0  0  0  0  0  0  0  0  0  0
    0.6721    0.0468    0.7913 H   0  0  0  0  0  0  0  0  0  0  0  0
    0.1694   -1.5924   -1.0335 H   0  0  0  0  0  0  0  0  0  0  0  0
  1  2  1  0  0  0  0
  1  3  1  0  0  0  0
  1  5  1  0  0  0  0
  2  8  1  0  0  0  0
  4  1  1  0  0  0  0
  6  9  1  0  0  0  0
  6  2  1  0  0  0  0
  6 10  1  0  0  0  0
  7  2  1  0  0  0  0
  9 12  1  0  0  0  0
  9 13  1  0  0  0  0
 11  6  1  0  0  0  0
 14  9  1  0  0  0  0
M  END
$$$$
