14
butane_opt
C  -3.992715   0.318651  -0.046680
C  -2.736240  -0.722238   0.159092
H  -4.681712  -0.088594   0.074603
H  -4.112030   1.114659  -1.132034
H  -4.213414   0.785433   0.751687
C  -1.382951   0.143874  -0.023556
H  -2.448887  -1.017286  -0.321768
H  -2.725567  -1.620863   1.220224
C  -0.100152  -0.618454  -0.021225
H  -1.347539   1.043146   1.047584
H  -1.253540   0.509924  -0.897581
H  -0.319685  -0.518077   0.366189
H   0.667184  -0.180946   0.774264
H  -0.058432  -1.950460  -1.334534
