butane_opt
 OpenBabel08242015403D

 14  8  0  0  0  0  0  0  0  0999 V2000
   -3.9839    0.3159   -0.0782 C   0  0  0  0  0  0  0  0  0  0  0  0
   -2.7103   -0.6571    0.1550 C   0  0  0  0  0  0  0  0  0  0  0  0
   -5.0324   -0.3314    0.5799 H   0  0  0  0  0  0  0  0  0  0  0  0
   -4.1231    1.6537   -1.5656 H   0  0  0  0  0  0  0  0  0  0  0  0
   -4.1182    0.1356    0.2356 H   0  0  0  0  0  0  0  0  0  0  0  0
   -1.3347    0.1519    0.1774 C   0  0  0  0  0  0  0  0  0  0  0  0
   -2.6716   -1.2284   -0.6744 H   0  0  0  0  0  0  0  0  0  0  0  0
   -2.6455   -1.1263    0.9713 H   0  0  0  0  0  0  0  0  0  0  0  0
   -0.1774   -0.6833   -0.0982 C   0  0  0  0  0  1  0  0  0  0  0  0
   -1.3418    0.8802    1.1351 H   0  0  0  0  0  0  0  0  0  0  0  0
   -1.0830    0.6375   -0.6257 H   0  0  0  0  0  0  0  0  0  0  0  0
   -0.2657   -0.7544    0.3209 H   0  0  0  0  0  0  0  0  0  0  0  0
    0.7953   -0.1485    0.2846 H   0  0  0  0  0  0  0  0  0  0  0  0
   -0.0339   -1.7245   -1.2491 H   0  0  0  0  0  0  0  0  0  0  0  0
  1  2  1  0  0  0  0
  1  3  1  0  0  0  0
  2  8  1  0  0  0  0
  6 12  1  0  0  0  0
  6 10  1  0  0  0  0
  7  2  1  0  0  0  0
  9 13  1  0  0  0  0
 11  6  1  0  0  0  0
M  RAD  6   1   3   2   2   4   2   5   2   6   2  14   2
M  END
$$$$
