14
butane_opt
C  -3.913145   0.195072   0.183731
C  -2.768620  -0.570193  -0.135078
H  -4.731002  -0.314593   0.362473
H  -4.146668   0.858330  -0.676714
H  -4.003989   0.948844   1.129429
C  -1.415817   0.282068  -0.196461
H  -3.289441  -1.184165  -1.010452
H  -2.553769  -1.227940   0.825061
C  -0.095841  -0.742689   0.163220
H  -1.421359   0.914143   0.642962
H  -1.214852   0.927467  -1.263060
H  -0.503938  -1.346073   1.211167
H   0.809087  -0.309697   0.747616
H   0.385968  -1.727419  -0.740991
