14
butane_opt
C  -3.948540   0.335308   0.113049
C  -2.756865  -0.702577  -0.046579
H  -4.758295  -0.181687  -0.165212
H  -4.407286   0.792317  -0.635224
H  -4.155162   1.147562   1.111806
C  -1.335912   0.147819  -0.029367
H  -2.789396  -1.926835  -1.327056
H  -2.807165  -0.936417   0.422890
C  -0.122213  -0.643475   0.111078
H  -1.376181   0.881379   0.762208
H  -1.340523   0.912483  -0.974743
H   0.047421  -2.202967   1.550087
H   0.814927   0.045417  -0.701483
H  -0.310832  -0.608053  -0.278621
