14
butane_opt
C  -3.945129   0.255004  -0.014309
C  -2.712119  -0.607002   0.074262
H  -4.874429  -0.368535  -0.046120
H  -3.934806   0.916602  -0.949307
H  -3.968740   0.920579   0.850399
C  -1.410425   0.198485   0.053582
H  -2.710478  -1.290945  -0.778892
H  -2.755215  -1.192691   0.948603
C  -0.138564  -0.706254   0.003017
H  -1.325349   0.874205   0.907266
H  -1.454861   0.786139  -0.828939
H  -0.068835  -1.344614   0.916455
H   0.762393  -0.134861  -0.114476
H  -0.209034  -1.322859  -0.861304
