14
butane_opt
C  -3.906859   0.306982  -0.099058
C  -2.625840  -0.701853   0.217378
H  -4.780828  -0.288917  -0.299541
H  -3.661566   1.136202  -1.149475
H  -4.126843   0.667950   0.479155
C  -1.463896   0.175853   0.113815
H  -2.601537  -0.894504  -0.358451
H  -2.732317  -1.566232   1.417920
C  -0.257568  -0.640803  -0.132035
H  -1.232662   1.047638   1.072096
H  -1.586153   0.531993  -0.619012
H  -0.170475  -0.811768   0.483765
H   0.881589   0.046235   0.409579
H  -0.028090  -2.008340  -1.288424
