butane_opt
 OpenBabel08242015403D

 14 11  0  0  0  0  0  0  0  0999 V2000
   -4.0277    0.3059    0.1230 C   0  0  0  0  0  0  0  0  0  0  0  0
   -2.6977   -0.6786   -0.0761 C   0  0  0  0  0  0  0  0  0  0  0  0
   -4.8784   -0.2651    0.1822 H   0  0  0  0  0  0  0  0  0  0  0  0
   -4.2708    0.8242   -0.7535 H   0  0  0  0  0  0  0  0  0  0  0  0
   -3.7970    0.9825    0.9361 H   0  0  0  0  0  0  0  0  0  0  0  0
   -1.3961    0.1816   -0.0565 C   0  0  0  0  0  0  0  0  0  0  0  0
   -2.9123   -1.6819   -1.1788 H   0  0  0  0  0  0  0  0  0  0  0  0
   -2.7426   -0.7823    0.5575 H   0  0  0  0  0  0  0  0  0  0  0  0
   -0.0941   -0.6597    0.1132 C   0  0  0  0  0  0  0  0  0  0  0  0
   -1.4770    0.7309    0.7058 H   0  0  0  0  0  0  0  0  0  0  0  0
   -1.4060    0.7672   -0.9324 H   0  0  0  0  0  0  0  0  0  0  0  0
   -0.0613   -1.9422    1.3387 H   0  0  0  0  0  0  0  0  0  0  0  0
    1.0275    0.1118   -0.2605 H   0  0  0  0  0  0  0  0  0  0  0  0
    0.0132   -0.9423   -0.3516 H   0  0  0  0  0  0  0  0  0  0  0  0
  1  3  1  0  0  0  0
  1  5  1  0  0  0  0
  2  6  1  0  0  0  0
  2  1  1  0  0  0  0
  2  8  1  0  0  0  0
  4  1  1  0  0  0  0
  6  9  1  0  0  0  0
  6 10  1  0  0  0  0
  7  2  1  0  0  0  0
 11  6  1  0  0  0  0
 13  9  1  0  0  0  0
M  RAD  3   9   3  12   2  14   2
M  END
$$$$
