butane_opt
 OpenBabel08242015403D

 14 13  0  0  0  0  0  0  0  0999 V2000
   -3.8927    0.2599   -0.0743 C   0  0  0  0  0  0  0  0  0  0  0  0
   -2.7063   -0.6677    0.0859 C   0  0  0  0  0  0  0  0  0  0  0  0
   -4.7599   -0.1727   -0.2309 H   0  0  0  0  0  0  0  0  0  0  0  0
   -4.0132    1.1999   -1.2234 H   0  0  0  0  0  0  0  0  0  0  0  0
   -4.0334    0.8555    0.8031 H   0  0  0  0  0  0  0  0  0  0  0  0
   -1.3758    0.2161    0.2200 C   0  0  0  0  0  0  0  0  0  0  0  0
   -2.5717   -1.1781   -0.7160 H   0  0  0  0  0  0  0  0  0  0  0  0
   -2.6865   -1.3370    0.9427 H   0  0  0  0  0  0  0  0  0  0  0  0
   -0.2370   -0.7167   -0.0666 C   0  0  0  0  0  0  0  0  0  0  0  0
   -1.3222    0.7890    0.9811 H   0  0  0  0  0  0  0  0  0  0  0  0
   -1.4930    0.8431   -0.5339 H   0  0  0  0  0  0  0  0  0  0  0  0
    0.2623   -1.3584    0.8295 H   0  0  0  0  0  0  0  0  0  0  0  0
    0.8769   -0.0470   -0.6782 H   0  0  0  0  0  0  0  0  0  0  0  0
   -0.7180   -1.1278   -0.7319 H   0  0  0  0  0  0  0  0  0  0  0  0
  1  2  1  0  0  0  0
  1  5  1  0  0  0  0
  2  6  1  0  0  0  0
  2  8  1  0  0  0  0
  3  1  1  0  0  0  0
  4  1  1  0  0  0  0
  6 10  1  0  0  0  0
  7  2  1  0  0  0  0
  9  6  1  0  0  0  0
  9 12  1  0  0  0  0
 11  6  1  0  0  0  0
 13  9  1  0  0  0  0
 14  9  1  0  0  0  0
M  END
$$$$
