14
butane_opt
C  -3.967953   0.324704  -0.096272
C  -2.682797  -0.733610   0.109791
H  -4.929011  -0.252441   0.441224
H  -4.095551   1.721958  -1.402773
H  -4.281598   0.468164   0.181035
C  -1.314691   0.166166   0.194930
H  -2.571257  -1.282742  -0.593451
H  -2.804337  -1.540166   1.263209
C  -0.192208  -0.656829  -0.139778
H  -1.290388   1.347611   1.457714
H  -1.488062   0.346115  -0.424295
H  -0.069376  -1.032704   0.702580
H   0.699912  -0.090202  -0.141702
H  -0.292357  -1.356909  -0.949601
