14
butane_opt
C  -3.830493   0.175249   0.101291
C  -2.732909  -0.575387   0.027606
H  -4.938439  -0.516958  -0.659776
H  -3.546304   0.342907  -0.513635
H  -4.050246   1.683777   1.387736
C  -1.500675   0.287653  -0.135687
H  -2.733588  -1.165145  -0.902013
H  -2.523139  -1.341181   0.916081
C  -0.140602  -0.746965   0.094343
H  -1.449428   0.925677   0.754866
H  -1.605867   0.926001  -1.070288
H  -0.427137  -1.568328   1.267924
H   0.602256  -0.337761  -0.141845
H   0.164974  -1.173698  -0.580715
