butane_opt
 OpenBabel08242015403D

 14 10  0  0  0  0  0  0  0  0999 V2000
   -3.9677    0.2301    0.0049 C   0  0  0  0  0  0  0  0  0  0  0  0
   -2.7266   -0.6192   -0.0697 C   0  0  0  0  0  0  0  0  0  0  0  0
   -4.8250   -0.5192    0.4034 H   0  0  0  0  0  0  0  0  0  0  0  0
   -4.2692    0.9156   -0.7624 H   0  0  0  0  0  0  0  0  0  0  0  0
   -3.8874    1.2494    1.2289 H   0  0  0  0  0  0  0  0  0  0  0  0
   -1.4015    0.2141    0.0221 C   0  0  0  0  0  0  0  0  0  0  0  0
   -2.7589   -1.4135   -1.0932 H   0  0  0  0  0  0  0  0  0  0  0  0
   -2.5659   -1.2646    0.7408 H   0  0  0  0  0  0  0  0  0  0  0  0
   -0.1493   -0.6905    0.0916 C   0  0  0  0  0  0  0  0  0  0  0  0
   -1.3597    1.0588    0.9064 H   0  0  0  0  0  0  0  0  0  0  0  0
   -1.3360    0.8761   -0.7835 H   0  0  0  0  0  0  0  0  0  0  0  0
    0.3694   -1.8871    1.2979 H   0  0  0  0  0  0  0  0  0  0  0  0
    0.6354   -0.2217   -0.6086 H   0  0  0  0  0  0  0  0  0  0  0  0
   -0.0620   -0.8715   -0.4021 H   0  0  0  0  0  0  0  0  0  0  0  0
  1  3  1  0  0  0  0
  2  1  1  0  0  0  0
  2  6  1  0  0  0  0
  2  8  1  0  0  0  0
  4  1  1  0  0  0  0
  6  9  1  0  0  0  0
  6 10  1  0  0  0  0
  7  2  1  0  0  0  0
 11  6  1  0  0  0  0
 13  9  1  0  0  0  0
M  RAD  5   1   2   5   2   9   3  12   2  14   2
M  END
$$$$
