butane_opt
 OpenBabel08242015403D

 14 10  0  0  0  0  0  0  0  0999 V2000
   -3.9330    0.2043   -0.1734 C   0  0  0  0  0  0  0  0  0  0  0  0
   -2.7308   -0.5033    0.2725 C   0  0  0  0  0  1  0  0  0  0  0  0
   -4.8931   -0.3741   -0.8715 H   0  0  0  0  0  0  0  0  0  0  0  0
   -3.5392    0.2535   -0.7261 H   0  0  0  0  0  0  0  0  0  0  0  0
   -4.3384    1.1131    0.8234 H   0  0  0  0  0  0  0  0  0  0  0  0
   -1.4250    0.2431    0.1708 C   0  0  0  0  0  0  0  0  0  0  0  0
   -2.6913   -0.7592   -0.2426 H   0  0  0  0  0  0  0  0  0  0  0  0
   -3.1145   -1.5936    1.5675 H   0  0  0  0  0  0  0  0  0  0  0  0
   -0.1260   -0.7862   -0.1585 C   0  0  0  0  0  0  0  0  0  0  0  0
   -1.4465    1.1227    1.0198 H   0  0  0  0  0  0  0  0  0  0  0  0
   -1.3085    0.7796   -0.6508 H   0  0  0  0  0  0  0  0  0  0  0  0
    0.1359   -1.1673    0.6680 H   0  0  0  0  0  0  0  0  0  0  0  0
    0.8880   -0.1688   -0.3479 H   0  0  0  0  0  0  0  0  0  0  0  0
   -0.1231   -1.6162   -1.1540 H   0  0  0  0  0  0  0  0  0  0  0  0
  1  2  1  0  0  0  0
  1  5  1  0  0  0  0
  3  1  1  0  0  0  0
  4  1  1  0  0  0  0
  6 10  1  0  0  0  0
  9  6  1  0  0  0  0
  9 12  1  0  0  0  0
 11  6  1  0  0  0  0
 13  9  1  0  0  0  0
 14  9  1  0  0  0  0
M  RAD  3   6   2   7   2   8   2
M  END
$$$$
