14
butane_opt
C  -3.973720   0.233447  -0.066225
C  -2.769481  -0.602716   0.106755
H  -4.805127  -0.162845   0.589353
H  -4.212525   1.685002  -1.451810
H  -3.958979   0.073648   0.141721
C  -1.348544   0.187294   0.211429
H  -2.747019  -1.289173  -0.696894
H  -2.739936  -0.958526   0.824950
C  -0.090217  -0.720508  -0.118849
H  -1.461710   1.072081   1.119120
H  -1.310992   0.754542  -0.614482
H  -0.038395  -1.078355   0.669170
H   0.744448  -0.164110   0.107642
H  -0.282897  -1.592648  -0.969010
