14
butane_opt
C  -3.907929   0.195270   0.103319
C  -2.753781  -0.545864  -0.140344
H  -4.761531  -0.320931   0.025534
H  -4.150673   0.292762  -0.218309
H  -3.803087   1.229407   1.190115
C  -1.437791   0.302051  -0.077357
H  -2.852051  -1.393316  -1.098748
H  -2.937653  -1.070825   0.742151
C  -0.116517  -0.766613   0.165565
H  -1.530002   0.939732   0.839628
H  -1.106346   0.875994  -1.047646
H   0.176647  -2.141592   1.520474
H   0.679174  -0.328346  -0.783311
H  -0.131319  -0.776831  -0.248880
