butane_opt
 OpenBabel08242015403D

 14 13  0  0  0  0  0  0  0  0999 V2000
   -3.9193    0.1939   -0.1802 C   0  0  0  0  0  0  0  0  0  0  0  0
   -2.7035   -0.5094    0.1955 C   0  0  0  0  0  0  0  0  0  0  0  0
   -5.0734   -0.5560   -0.1609 H   0  0  0  0  0  0  0  0  0  0  0  0
   -3.5653    0.9796   -1.2521 H   0  0  0  0  0  0  0  0  0  0  0  0
   -4.1517    0.8064    0.7562 H   0  0  0  0  0  0  0  0  0  0  0  0
   -1.4215    0.1963    0.2568 C   0  0  0  0  0  0  0  0  0  0  0  0
   -2.4871   -1.1118   -0.5561 H   0  0  0  0  0  0  0  0  0  0  0  0
   -2.9643   -1.2484    1.1948 H   0  0  0  0  0  0  0  0  0  0  0  0
   -0.1129   -0.7246   -0.1683 C   0  0  0  0  0  0  0  0  0  0  0  0
   -1.1480    1.0876    1.4295 H   0  0  0  0  0  0  0  0  0  0  0  0
   -1.9370    0.6777   -0.4112 H   0  0  0  0  0  0  0  0  0  0  0  0
    0.0961   -1.6396    0.9079 H   0  0  0  0  0  0  0  0  0  0  0  0
    0.5254   -0.2841   -0.7133 H   0  0  0  0  0  0  0  0  0  0  0  0
   -0.3736   -1.1012   -0.9585 H   0  0  0  0  0  0  0  0  0  0  0  0
  1  3  1  0  0  0  0
  1  2  1  0  0  0  0
  1  5  1  0  0  0  0
  2  6  1  0  0  0  0
  2  8  1  0  0  0  0
  4  1  1  0  0  0  0
  6 10  1  0  0  0  0
  7  2  1  0  0  0  0
  9  6  1  0  0  0  0
  9 12  1  0  0  0  0
 11  6  1  0  0  0  0
 13  9  1  0  0  0  0
 14  9  1  0  0  0  0
M  END
$$$$
