butane_opt
 OpenBabel08242015403D

 14 11  0  0  0  0  0  0  0  0999 V2000
   -3.9662    0.2630    0.0791 C   0  0  0  0  0  0  0  0  0  0  0  0
   -2.6404   -0.5724   -0.0387 C   0  0  0  0  0  0  0  0  0  0  0  0
   -4.7792   -0.3492   -0.1175 H   0  0  0  0  0  0  0  0  0  0  0  0
   -3.8073    0.9152   -0.8762 H   0  0  0  0  0  0  0  0  0  0  0  0
   -4.1369    1.0585    1.0054 H   0  0  0  0  0  0  0  0  0  0  0  0
   -1.3943    0.1045    0.0073 C   0  0  0  0  0  0  0  0  0  0  0  0
   -2.8441   -1.5327   -1.1302 H   0  0  0  0  0  0  0  0  0  0  0  0
   -2.6177   -1.1618    0.8083 H   0  0  0  0  0  0  0  0  0  0  0  0
   -0.1892   -0.6553    0.0809 C   0  0  0  0  0  0  0  0  0  0  0  0
   -1.4151    0.8215    0.8509 H   0  0  0  0  0  0  0  0  0  0  0  0
   -1.5874    0.7455   -0.7424 H   0  0  0  0  0  0  0  0  0  0  0  0
   -0.0871   -1.7308    1.2686 H   0  0  0  0  0  0  0  0  0  0  0  0
    0.8679    0.1276   -0.6942 H   0  0  0  0  0  0  0  0  0  0  0  0
   -0.3524   -0.9875   -0.4426 H   0  0  0  0  0  0  0  0  0  0  0  0
  1  5  1  0  0  0  0
  2  6  1  0  0  0  0
  2  1  1  0  0  0  0
  2  8  1  0  0  0  0
  3  1  1  0  0  0  0
  4  1  1  0  0  0  0
  6  9  1  0  0  0  0
  6 10  1  0  0  0  0
  7  2  1  0  0  0  0
 11  6  1  0  0  0  0
 14  9  1  0  0  0  0
M  RAD  3   9   3  12   2  13   2
M  END
$$$$
