14
butane_opt
C  -3.872964   0.178437   0.164332
C  -2.732111  -0.497297  -0.130237
H  -4.886499  -0.390394  -0.216603
H  -3.729958   0.375822  -0.459798
H  -3.757812   1.510923   1.498551
C  -1.429162   0.189242  -0.154847
H  -2.893996  -0.985638  -0.947105
H  -2.526571  -1.213554   0.698214
C  -0.177060  -0.737101   0.183300
H  -1.687642   0.683410   0.449293
H  -1.283091   0.917307  -1.061908
H  -0.145340  -1.792379   1.238584
H   0.706867  -0.104158   0.029161
H  -0.251072  -1.097027  -0.443665
