butane_opt
 OpenBabel08242015403D

 14 13  0  0  0  0  0  0  0  0999 V2000
   -3.8998    0.1980   -0.1497 C   0  0  0  0  0  0  0  0  0  0  0  0
   -2.6839   -0.5170    0.1650 C   0  0  0  0  0  0  0  0  0  0  0  0
   -4.8296   -0.4155   -0.1752 H   0  0  0  0  0  0  0  0  0  0  0  0
   -3.4797    0.4341   -0.8500 H   0  0  0  0  0  0  0  0  0  0  0  0
   -3.8934    1.0264    0.8048 H   0  0  0  0  0  0  0  0  0  0  0  0
   -1.5017    0.2603    0.1855 C   0  0  0  0  0  0  0  0  0  0  0  0
   -2.4460   -1.0301   -0.5021 H   0  0  0  0  0  0  0  0  0  0  0  0
   -2.9402   -1.4615    1.2574 H   0  0  0  0  0  0  0  0  0  0  0  0
   -0.1759   -0.7330   -0.1358 C   0  0  0  0  0  0  0  0  0  0  0  0
   -1.3864    0.7672    1.0989 H   0  0  0  0  0  0  0  0  0  0  0  0
   -1.4047    0.7231   -0.5411 H   0  0  0  0  0  0  0  0  0  0  0  0
    0.2363   -1.4778    0.8418 H   0  0  0  0  0  0  0  0  0  0  0  0
    0.4288   -0.2698   -0.3742 H   0  0  0  0  0  0  0  0  0  0  0  0
   -0.1811   -1.2690   -0.8504 H   0  0  0  0  0  0  0  0  0  0  0  0
  1  2  1  0  0  0  0
  1  5  1  0  0  0  0
  2  6  1  0  0  0  0
  2  8  1  0  0  0  0
  3  1  1  0  0  0  0
  4  1  1  0  0  0  0
  6 10  1  0  0  0  0
  7  2  1  0  0  0  0
  9  6  1  0  0  0  0
  9 12  1  0  0  0  0
 11  6  1  0  0  0  0
 13  9  1  0  0  0  0
 14  9  1  0  0  0  0
M  END
$$$$
