butane_opt
 OpenBabel08242015403D

 14 13  0  0  0  0  0  0  0  0999 V2000
   -3.9131    0.1951    0.1837 C   0  0  0  0  0  0  0  0  0  0  0  0
   -2.7686   -0.5702   -0.1351 C   0  0  0  0  0  0  0  0  0  0  0  0
   -4.7310   -0.3146    0.3625 H   0  0  0  0  0  0  0  0  0  0  0  0
   -4.1467    0.8583   -0.6767 H   0  0  0  0  0  0  0  0  0  0  0  0
   -4.0040    0.9488    1.1294 H   0  0  0  0  0  0  0  0  0  0  0  0
   -1.4158    0.2821   -0.1965 C   0  0  0  0  0  0  0  0  0  0  0  0
   -3.2894   -1.1842   -1.0105 H   0  0  0  0  0  0  0  0  0  0  0  0
   -2.5538   -1.2279    0.8251 H   0  0  0  0  0  0  0  0  0  0  0  0
   -0.0958   -0.7427    0.1632 C   0  0  0  0  0  0  0  0  0  0  0  0
   -1.4214    0.9141    0.6430 H   0  0  0  0  0  0  0  0  0  0  0  0
   -1.2149    0.9275   -1.2631 H   0  0  0  0  0  0  0  0  0  0  0  0
   -0.5039   -1.3461    1.2112 H   0  0  0  0  0  0  0  0  0  0  0  0
    0.8091   -0.3097    0.7476 H   0  0  0  0  0  0  0  0  0  0  0  0
    0.3860   -1.7274   -0.7410 H   0  0  0  0  0  0  0  0  0  0  0  0
  1  3  1  0  0  0  0
  1  5  1  0  0  0  0
  2  1  1  0  0  0  0
  2  8  1  0  0  0  0
  4  1  1  0  0  0  0
  6  2  1  0  0  0  0
  6  9  1  0  0  0  0
  6 10  1  0  0  0  0
  7  2  1  0  0  0  0
  9 13  1  0  0  0  0
  9 12  1  0  0  0  0
 11  6  1  0  0  0  0
 14  9  1  0  0  0  0
M  END
$$$$
