14
butane_opt
C  -3.984228   0.224860  -0.145215
C  -2.743654  -0.509595   0.260984
H  -5.031133  -0.647403  -0.641185
H  -3.606967   0.473378  -0.923440
H  -4.280065   1.258276   0.992875
C  -1.359352   0.239907   0.131490
H  -2.517791  -1.213823  -0.527139
H  -3.192507  -1.395704   1.394502
C  -0.117342  -0.745227  -0.109253
H  -1.253979   0.830715   0.908848
H  -1.551122   0.923727  -0.712763
H   0.200966  -1.304917   0.692722
H   0.715860  -0.181030  -0.314322
H  -0.023178  -1.750005  -1.057393
