butane_opt
 OpenBabel08242015403D

 14 11  0  0  0  0  0  0  0  0999 V2000
   -3.9388    0.2164   -0.1529 C   0  0  0  0  0  0  0  0  0  0  0  0
   -2.7442   -0.5397    0.2547 C   0  0  0  0  0  0  0  0  0  0  0  0
   -4.8254   -0.4771   -0.4206 H   0  0  0  0  0  0  0  0  0  0  0  0
   -3.6686    0.5698   -0.9348 H   0  0  0  0  0  0  0  0  0  0  0  0
   -4.4758    0.9396    0.6962 H   0  0  0  0  0  0  0  0  0  0  0  0
   -1.3685    0.2883    0.1757 C   0  0  0  0  0  0  0  0  0  0  0  0
   -2.7177   -1.1524   -0.4859 H   0  0  0  0  0  0  0  0  0  0  0  0
   -3.1573   -1.5397    1.3875 H   0  0  0  0  0  0  0  0  0  0  0  0
   -0.1293   -0.7519   -0.1292 C   0  0  0  0  0  0  0  0  0  0  0  0
   -1.2208    0.6965    0.9645 H   0  0  0  0  0  0  0  0  0  0  0  0
   -1.6758    1.1995   -0.8048 H   0  0  0  0  0  0  0  0  0  0  0  0
    0.2717   -0.9522    0.5309 H   0  0  0  0  0  0  0  0  0  0  0  0
    0.6118   -0.4484    0.0883 H   0  0  0  0  0  0  0  0  0  0  0  0
    0.0261   -1.8912   -1.3531 H   0  0  0  0  0  0  0  0  0  0  0  0
  1  2  1  0  0  0  0
  1  5  1  0  0  0  0
  3  1  1  0  0  0  0
  4  1  1  0  0  0  0
  6  2  1  0  0  0  0
  6 10  1  0  0  0  0
  7  2  1  0  0  0  0
  9 13  1  0  0  0  0
  9  6  1  0  0  0  0
  9 12  1  0  0  0  0
 11  6  1  0  0  0  0
M  RAD  4   2   2   8   2   9   2  14   2
M  END
$$$$
