14
butane_opt
C  -3.938802   0.216433  -0.152916
C  -2.744182  -0.539679   0.254663
H  -4.825384  -0.477129  -0.420567
H  -3.668627   0.569837  -0.934763
H  -4.475808   0.939565   0.696220
C  -1.368492   0.288271   0.175670
H  -2.717686  -1.152358  -0.485911
H  -3.157266  -1.539719   1.387451
C  -0.129287  -0.751931  -0.129248
H  -1.220798   0.696457   0.964458
H  -1.675821   1.199467  -0.804824
H   0.271737  -0.952178   0.530911
H   0.611770  -0.448405   0.088347
H   0.026071  -1.891176  -1.353114
