14
butane_opt
C  -3.964507   0.352854  -0.132829
C  -2.682100  -0.709232   0.310186
H  -4.888422  -0.220240  -0.825965
H  -3.443482   0.568649  -0.980204
H  -4.829401   1.283866   0.776834
C  -1.365656   0.131391   0.144523
H  -2.903292  -1.184802  -0.543292
H  -2.663646  -1.544054   1.264342
C  -0.193153  -0.604196  -0.142654
H  -0.988179   0.781238   1.090234
H  -1.339604   0.751324  -0.852162
H   0.032852  -1.275955   0.775071
H   0.624192  -0.032180  -0.099086
H  -0.204021  -1.661852  -1.291932
