14
butane_opt
C  -3.954208   0.312627  -0.097169
C  -2.675192  -0.705151   0.133503
H  -4.803659  -0.307705  -0.115516
H  -3.879767   1.130434  -1.043182
H  -4.352051   0.890813   0.711287
C  -1.431753   0.196076   0.146104
H  -2.763181  -1.275491  -0.678838
H  -2.761870  -1.480657   1.100372
C  -0.126185  -0.660876  -0.108583
H  -1.465893   1.038173   1.225223
H  -1.427819   0.353099  -0.393790
H   0.176176  -1.552710   0.991789
H   0.904641   0.087706  -0.412491
H  -0.435671  -1.009108  -0.824377
