14
butane_opt
C  -4.027669   0.305885   0.123003
C  -2.697659  -0.678648  -0.076087
H  -4.878437  -0.265062   0.182152
H  -4.270805   0.824186  -0.753517
H  -3.797007   0.982470   0.936104
C  -1.396088   0.181601  -0.056458
H  -2.912302  -1.681907  -1.178791
H  -2.742550  -0.782314   0.557532
C  -0.094146  -0.659668   0.113235
H  -1.476959   0.730895   0.705846
H  -1.405953   0.767232  -0.932406
H  -0.061322  -1.942199   1.338706
H   1.027547   0.111782  -0.260544
H   0.013170  -0.942329  -0.351618
