butane_opt
 OpenBabel08242015403D

 14 12  0  0  0  0  0  0  0  0999 V2000
   -3.9725    0.2467    0.1819 C   0  0  0  0  0  0  0  0  0  0  0  0
   -2.7308   -0.6195   -0.0643 C   0  0  0  0  0  0  0  0  0  0  0  0
   -4.9026   -0.4215   -0.3046 H   0  0  0  0  0  0  0  0  0  0  0  0
   -4.0751    0.5149   -0.4242 H   0  0  0  0  0  0  0  0  0  0  0  0
   -3.8013    1.4256    1.5151 H   0  0  0  0  0  0  0  0  0  0  0  0
   -1.3808    0.2846   -0.2891 C   0  0  0  0  0  0  0  0  0  0  0  0
   -2.9190   -1.4359   -0.9888 H   0  0  0  0  0  0  0  0  0  0  0  0
   -2.5245   -1.3624    0.9102 H   0  0  0  0  0  0  0  0  0  0  0  0
   -0.1703   -0.7384    0.1819 C   0  0  0  0  0  0  0  0  0  0  0  0
   -1.5060    0.8302    0.4913 H   0  0  0  0  0  0  0  0  0  0  0  0
   -1.0599    0.9712   -1.0726 H   0  0  0  0  0  0  0  0  0  0  0  0
   -0.4413   -1.4269    1.1788 H   0  0  0  0  0  0  0  0  0  0  0  0
    0.8240   -0.2209    0.6133 H   0  0  0  0  0  0  0  0  0  0  0  0
    0.4552   -1.4294   -0.6102 H   0  0  0  0  0  0  0  0  0  0  0  0
  2  1  1  0  0  0  0
  2  8  1  0  0  0  0
  3  1  1  0  0  0  0
  4  1  1  0  0  0  0
  6  2  1  0  0  0  0
  6  9  1  0  0  0  0
  6 10  1  0  0  0  0
  7  2  1  0  0  0  0
  9 13  1  0  0  0  0
  9 12  1  0  0  0  0
 11  6  1  0  0  0  0
 14  9  1  0  0  0  0
M  RAD  2   1   2   5   2
M  END
$$$$
