14
butane_opt
C  -4.007695   0.250573   0.193338
C  -2.682571  -0.679181  -0.105634
H  -4.724641  -0.149235   0.136483
H  -4.076880   0.615440  -0.605722
H  -4.061345   1.352355   1.327877
C  -1.375545   0.185612  -0.222059
H  -2.911317  -1.406625  -1.042932
H  -2.410953  -1.065996   0.572458
C  -0.147519  -0.656629   0.191892
H  -1.574132   0.665423   0.498387
H  -1.243752   1.144780  -1.207098
H  -0.329033  -1.465737   1.150850
H   0.581733  -0.071554   0.545936
H   0.275792  -1.311698  -0.579201
