butane_opt
 OpenBabel08242015403D

 14 13  0  0  0  0  0  0  0  0999 V2000
   -3.9337    0.3004    0.0695 C   0  0  0  0  0  0  0  0  0  0  0  0
   -2.6082   -0.6410   -0.1041 C   0  0  0  0  0  0  0  0  0  0  0  0
   -4.8332   -0.3048    0.5224 H   0  0  0  0  0  0  0  0  0  0  0  0
   -4.3320    1.1478   -0.8462 H   0  0  0  0  0  0  0  0  0  0  0  0
   -3.7510    0.8642    0.9526 H   0  0  0  0  0  0  0  0  0  0  0  0
   -1.3962    0.1355   -0.0113 C   0  0  0  0  0  0  0  0  0  0  0  0
   -2.9617   -1.4370   -0.9719 H   0  0  0  0  0  0  0  0  0  0  0  0
   -2.5973   -1.4616    0.8450 H   0  0  0  0  0  0  0  0  0  0  0  0
   -0.2160   -0.6338    0.0944 C   0  0  0  0  0  0  0  0  0  0  0  0
   -1.4450    0.8225    0.7524 H   0  0  0  0  0  0  0  0  0  0  0  0
   -1.1994    0.7331   -0.9923 H   0  0  0  0  0  0  0  0  0  0  0  0
   -0.2342   -1.4377    1.1521 H   0  0  0  0  0  0  0  0  0  0  0  0
    0.5670   -0.0230    0.2398 H   0  0  0  0  0  0  0  0  0  0  0  0
   -0.3853   -1.2889   -0.8001 H   0  0  0  0  0  0  0  0  0  0  0  0
  1  3  1  0  0  0  0
  1  5  1  0  0  0  0
  2  6  1  0  0  0  0
  2  1  1  0  0  0  0
  2  8  1  0  0  0  0
  4  1  1  0  0  0  0
  6  9  1  0  0  0  0
  6 10  1  0  0  0  0
  7  2  1  0  0  0  0
  9 13  1  0  0  0  0
  9 12  1  0  0  0  0
 11  6  1  0  0  0  0
 14  9  1  0  0  0  0
M  END
$$$$
