14
butane_opt
C  -3.899456   0.211840  -0.108409
C  -2.750981  -0.608755   0.085363
H  -4.870985  -0.229677   0.792961
H  -4.329884   1.592705  -1.437259
H  -3.807229   0.297047   0.468466
C  -1.383013   0.287613   0.195395
H  -2.530025  -1.216238  -0.690045
H  -2.998294  -1.216296   1.158435
C  -0.148095  -0.753763  -0.102509
H  -1.480462   0.932322   0.990444
H  -1.453262   0.621288  -0.506356
H   0.039414  -1.107982   0.564040
H   0.812671  -0.100181   0.295792
H  -0.186277  -1.673857  -1.105260
