butane_opt
 OpenBabel08242015403D

 14 11  0  0  0  0  0  0  0  0999 V2000
   -3.8019    0.2482   -0.0987 C   0  0  0  0  0  0  0  0  0  0  0  0
   -2.7393   -0.6122    0.1903 C   0  0  0  0  0  0  0  0  0  0  0  0
   -4.8646   -0.4169   -0.0040 H   0  0  0  0  0  0  0  0  0  0  0  0
   -3.7819    1.1725   -1.2594 H   0  0  0  0  0  0  0  0  0  0  0  0
   -4.1551    0.7678    0.6885 H   0  0  0  0  0  0  0  0  0  0  0  0
   -1.4461    0.2083    0.0889 C   0  0  0  0  0  0  0  0  0  0  0  0
   -2.6307   -1.0770   -0.4515 H   0  0  0  0  0  0  0  0  0  0  0  0
   -2.6673   -1.5133    1.2812 H   0  0  0  0  0  0  0  0  0  0  0  0
   -0.2102   -0.7217   -0.0980 C   0  0  0  0  0  0  0  0  0  0  0  0
   -1.1965    1.0907    1.1275 H   0  0  0  0  0  0  0  0  0  0  0  0
   -1.6677    0.9229   -0.7214 H   0  0  0  0  0  0  0  0  0  0  0  0
   -0.2974   -0.9150    0.4631 H   0  0  0  0  0  0  0  0  0  0  0  0
    0.8655   -0.0885    0.5838 H   0  0  0  0  0  0  0  0  0  0  0  0
   -0.2178   -1.9144   -1.3060 H   0  0  0  0  0  0  0  0  0  0  0  0
  1  3  1  0  0  0  0
  1  2  1  0  0  0  0
  1  5  1  0  0  0  0
  2  8  1  0  0  0  0
  4  1  1  0  0  0  0
  6  2  1  0  0  0  0
  6 10  1  0  0  0  0
  7  2  1  0  0  0  0
  9  6  1  0  0  0  0
  9 13  1  0  0  0  0
 11  6  1  0  0  0  0
M  RAD  3   9   3  12   2  14   2
M  END
$$$$
