butane_opt
 OpenBabel08242015403D

 14  9  0  0  0  0  0  0  0  0999 V2000
   -4.0463    0.3042    0.0001 C   0  0  0  0  0  0  0  0  0  0  0  0
   -2.6889   -0.6962    0.0933 C   0  0  0  0  0  0  0  0  0  0  0  0
   -4.7032    0.0042    0.3397 H   0  0  0  0  0  0  0  0  0  0  0  0
   -4.0904    1.2456   -1.0712 H   0  0  0  0  0  0  0  0  0  0  0  0
   -4.0482    0.6203    0.7640 H   0  0  0  0  0  0  0  0  0  0  0  0
   -1.3377    0.1386    0.0245 C   0  0  0  0  0  1  0  0  0  0  0  0
   -2.5862   -1.4786   -0.7542 H   0  0  0  0  0  0  0  0  0  0  0  0
   -2.6725   -1.2333    0.9382 H   0  0  0  0  0  0  0  0  0  0  0  0
   -0.1853   -0.6474   -0.0234 C   0  0  0  0  0  0  0  0  0  0  0  0
   -1.1048    0.9074    0.8175 H   0  0  0  0  0  0  0  0  0  0  0  0
   -1.0840    1.0255   -1.0556 H   0  0  0  0  0  0  0  0  0  0  0  0
   -0.6117   -0.8478    0.5957 H   0  0  0  0  0  0  0  0  0  0  0  0
    0.6891   -0.1270    0.6527 H   0  0  0  0  0  0  0  0  0  0  0  0
    0.2772   -1.7753   -1.0007 H   0  0  0  0  0  0  0  0  0  0  0  0
  1  2  1  0  0  0  0
  1  3  1  0  0  0  0
  1  5  1  0  0  0  0
  2  8  1  0  0  0  0
  4  1  1  0  0  0  0
  6 10  1  0  0  0  0
  7  2  1  0  0  0  0
  9 12  1  0  0  0  0
  9 13  1  0  0  0  0
M  RAD  4   2   2   9   3  11   2  14   2
M  END
$$$$
