butane_opt
 OpenBabel08242015403D

 14 13  0  0  0  0  0  0  0  0999 V2000
   -3.9414    0.2576    0.0027 C   0  0  0  0  0  0  0  0  0  0  0  0
   -2.7193   -0.6069    0.0704 C   0  0  0  0  0  0  0  0  0  0  0  0
   -4.8689   -0.3515    0.0213 H   0  0  0  0  0  0  0  0  0  0  0  0
   -3.9205    0.9273   -0.9369 H   0  0  0  0  0  0  0  0  0  0  0  0
   -4.0277    0.8462    0.7856 H   0  0  0  0  0  0  0  0  0  0  0  0
   -1.4031    0.1985    0.0255 C   0  0  0  0  0  0  0  0  0  0  0  0
   -2.7171   -1.2762   -0.7350 H   0  0  0  0  0  0  0  0  0  0  0  0
   -2.7327   -1.2569    0.9810 H   0  0  0  0  0  0  0  0  0  0  0  0
   -0.1508   -0.7048    0.0101 C   0  0  0  0  0  0  0  0  0  0  0  0
   -1.3608    0.8906    0.8929 H   0  0  0  0  0  0  0  0  0  0  0  0
   -1.3583    0.8603   -0.8872 H   0  0  0  0  0  0  0  0  0  0  0  0
   -0.1236   -1.1783    0.8115 H   0  0  0  0  0  0  0  0  0  0  0  0
    0.7038   -0.1495    0.1019 H   0  0  0  0  0  0  0  0  0  0  0  0
   -0.0371   -1.5298   -0.9276 H   0  0  0  0  0  0  0  0  0  0  0  0
  1  3  1  0  0  0  0
  1  2  1  0  0  0  0
  1  5  1  0  0  0  0
  2  8  1  0  0  0  0
  4  1  1  0  0  0  0
  6  2  1  0  0  0  0
  6 10  1  0  0  0  0
  7  2  1  0  0  0  0
  9  6  1  0  0  0  0
  9 13  1  0  0  0  0
  9 12  1  0  0  0  0
 11  6  1  0  0  0  0
 14  9  1  0  0  0  0
M  END
$$$$
