butane_opt
 OpenBabel08242015403D

 14 11  0  0  0  0  0  0  0  0999 V2000
   -3.9611    0.3503    0.1736 C   0  0  0  0  0  0  0  0  0  0  0  0
   -2.6170   -0.6659   -0.0462 C   0  0  0  0  0  0  0  0  0  0  0  0
   -4.9091   -0.2911    0.0876 H   0  0  0  0  0  0  0  0  0  0  0  0
   -3.9987    0.7683   -0.5922 H   0  0  0  0  0  0  0  0  0  0  0  0
   -3.9258    0.9666    0.7988 H   0  0  0  0  0  0  0  0  0  0  0  0
   -1.4040    0.0786   -0.1753 C   0  0  0  0  0  0  0  0  0  0  0  0
   -2.8192   -1.4365   -0.9314 H   0  0  0  0  0  0  0  0  0  0  0  0
   -2.4953   -1.2433    0.8007 H   0  0  0  0  0  0  0  0  0  0  0  0
   -0.2102   -0.5971    0.1671 C   0  0  0  0  0  0  0  0  0  0  0  0
   -1.2761    0.3836    0.4847 H   0  0  0  0  0  0  0  0  0  0  0  0
   -1.3813    0.9965   -1.3139 H   0  0  0  0  0  0  0  0  0  0  0  0
   -0.8390   -0.7843    0.8619 H   0  0  0  0  0  0  0  0  0  0  0  0
    0.6870   -0.0530    0.7836 H   0  0  0  0  0  0  0  0  0  0  0  0
    0.2036   -1.7838   -1.0141 H   0  0  0  0  0  0  0  0  0  0  0  0
  1  5  1  0  0  0  0
  2  1  1  0  0  0  0
  2  8  1  0  0  0  0
  3  1  1  0  0  0  0
  4  1  1  0  0  0  0
  6  2  1  0  0  0  0
  6  9  1  0  0  0  0
  6 10  1  0  0  0  0
  7  2  1  0  0  0  0
  9 13  1  0  0  0  0
  9 12  1  0  0  0  0
M  RAD  4   6   2   9   2  11   2  14   2
M  END
$$$$
