butane_opt
 OpenBabel08242015403D

 14 12  0  0  0  0  0  0  0  0999 V2000
   -3.9411    0.2520    0.1790 C   0  0  0  0  0  0  0  0  0  0  0  0
   -2.6837   -0.5924   -0.0956 C   0  0  0  0  0  0  0  0  0  0  0  0
   -5.0124   -0.5236    0.2500 H   0  0  0  0  0  0  0  0  0  0  0  0
   -4.0406    0.9309   -0.7882 H   0  0  0  0  0  0  0  0  0  0  0  0
   -3.6352    0.8533    1.0411 H   0  0  0  0  0  0  0  0  0  0  0  0
   -1.4059    0.1922   -0.2197 C   0  0  0  0  0  0  0  0  0  0  0  0
   -3.1234   -1.1146   -0.9573 H   0  0  0  0  0  0  0  0  0  0  0  0
   -2.4961   -1.0923    0.8115 H   0  0  0  0  0  0  0  0  0  0  0  0
   -0.1629   -0.7100    0.1825 C   0  0  0  0  0  0  0  0  0  0  0  0
   -1.4459    0.8685    0.6947 H   0  0  0  0  0  0  0  0  0  0  0  0
   -1.2566    0.9682   -1.1510 H   0  0  0  0  0  0  0  0  0  0  0  0
   -0.5581   -1.0706    1.0365 H   0  0  0  0  0  0  0  0  0  0  0  0
    0.7297   -0.2928    0.7648 H   0  0  0  0  0  0  0  0  0  0  0  0
    0.1713   -1.7632   -0.8899 H   0  0  0  0  0  0  0  0  0  0  0  0
  1  3  1  0  0  0  0
  1  5  1  0  0  0  0
  2  1  1  0  0  0  0
  2  8  1  0  0  0  0
  4  1  1  0  0  0  0
  6  2  1  0  0  0  0
  6  9  1  0  0  0  0
  6 10  1  0  0  0  0
  7  2  1  0  0  0  0
  9 13  1  0  0  0  0
  9 12  1  0  0  0  0
 11  6  1  0  0  0  0
M  RAD  2   9   2  14   2
M  END
$$$$
