butane_opt
 OpenBabel08242015403D

 14 11  0  0  0  0  0  0  0  0999 V2000
   -3.9713    0.2542    0.1276 C   0  0  0  0  0  0  0  0  0  0  0  0
   -2.6764   -0.7002   -0.1193 C   0  0  0  0  0  0  0  0  0  0  0  0
   -4.7640   -0.1419   -0.2683 H   0  0  0  0  0  0  0  0  0  0  0  0
   -4.2093    0.8093   -0.5814 H   0  0  0  0  0  0  0  0  0  0  0  0
   -4.0553    1.4168    1.3738 H   0  0  0  0  0  0  0  0  0  0  0  0
   -1.4142    0.2151   -0.0720 C   0  0  0  0  0  0  0  0  0  0  0  0
   -2.9796   -1.2781   -1.0812 H   0  0  0  0  0  0  0  0  0  0  0  0
   -2.4911   -1.4281    0.8376 H   0  0  0  0  0  0  0  0  0  0  0  0
   -0.1172   -0.6779    0.1404 C   0  0  0  0  0  0  0  0  0  0  0  0
   -1.5255    0.8443    0.7796 H   0  0  0  0  0  0  0  0  0  0  0  0
   -1.1395    0.9288   -1.0458 H   0  0  0  0  0  0  0  0  0  0  0  0
   -0.1212   -1.7867    1.2623 H   0  0  0  0  0  0  0  0  0  0  0  0
    0.7900    0.0034   -0.3257 H   0  0  0  0  0  0  0  0  0  0  0  0
   -0.3513   -0.9243   -0.4010 H   0  0  0  0  0  0  0  0  0  0  0  0
  2  6  1  0  0  0  0
  2  1  1  0  0  0  0
  2  8  1  0  0  0  0
  3  1  1  0  0  0  0
  4  1  1  0  0  0  0
  6  9  1  0  0  0  0
  6 10  1  0  0  0  0
  7  2  1  0  0  0  0
 11  6  1  0  0  0  0
 13  9  1  0  0  0  0
 14  9  1  0  0  0  0
M  RAD  4   1   2   5   2   9   2  12   2
M  END
$$$$
