butane_opt
 OpenBabel08242015403D

 14 11  0  0  0  0  0  0  0  0999 V2000
   -3.9144    0.3536   -0.0827 C   0  0  0  0  0  0  0  0  0  0  0  0
   -2.6846   -0.7163    0.0889 C   0  0  0  0  0  0  0  0  0  0  0  0
   -4.8290   -0.2612    0.6676 H   0  0  0  0  0  0  0  0  0  0  0  0
   -4.4165    1.4086   -1.2766 H   0  0  0  0  0  0  0  0  0  0  0  0
   -3.7425    0.4378    0.3083 H   0  0  0  0  0  0  0  0  0  0  0  0
   -1.3616    0.1049    0.2011 C   0  0  0  0  0  0  0  0  0  0  0  0
   -2.4090   -1.3538   -0.7185 H   0  0  0  0  0  0  0  0  0  0  0  0
   -2.7797   -1.2535    0.9168 H   0  0  0  0  0  0  0  0  0  0  0  0
   -0.2460   -0.6088   -0.0714 C   0  0  0  0  0  0  0  0  0  0  0  0
   -1.3817    0.8308    0.9505 H   0  0  0  0  0  0  0  0  0  0  0  0
   -1.3222    0.7415   -0.7151 H   0  0  0  0  0  0  0  0  0  0  0  0
   -0.1610   -1.0373    0.6860 H   0  0  0  0  0  0  0  0  0  0  0  0
    0.5123    0.0457    0.0128 H   0  0  0  0  0  0  0  0  0  0  0  0
   -0.0536   -1.6341   -1.1108 H   0  0  0  0  0  0  0  0  0  0  0  0
  1  2  1  0  0  0  0
  1  3  1  0  0  0  0
  2  6  1  0  0  0  0
  2  8  1  0  0  0  0
  6 10  1  0  0  0  0
  7  2  1  0  0  0  0
  9 13  1  0  0  0  0
  9  6  1  0  0  0  0
  9 12  1  0  0  0  0
 11  6  1  0  0  0  0
 14  9  1  0  0  0  0
M  RAD  3   1   3   4   2   5   2
M  END
$$$$
