butane_opt
 OpenBabel08242015403D

 14 12  0  0  0  0  0  0  0  0999 V2000
   -3.9085    0.2171   -0.1815 C   0  0  0  0  0  0  0  0  0  0  0  0
   -2.6757   -0.5152    0.1971 C   0  0  0  0  0  0  0  0  0  0  0  0
   -4.7174   -0.3883   -0.1210 H   0  0  0  0  0  0  0  0  0  0  0  0
   -3.7201    0.9705   -1.2352 H   0  0  0  0  0  0  0  0  0  0  0  0
   -3.9679    0.6188    0.5346 H   0  0  0  0  0  0  0  0  0  0  0  0
   -1.5060    0.1587    0.3427 C   0  0  0  0  0  0  0  0  0  0  0  0
   -2.2905   -1.2721   -0.7901 H   0  0  0  0  0  0  0  0  0  0  0  0
   -3.2076   -1.1574    1.1520 H   0  0  0  0  0  0  0  0  0  0  0  0
   -0.1540   -0.7156   -0.1712 C   0  0  0  0  0  0  0  0  0  0  0  0
   -1.2942    0.9030    1.2854 H   0  0  0  0  0  0  0  0  0  0  0  0
   -1.5991    0.8543   -0.5440 H   0  0  0  0  0  0  0  0  0  0  0  0
    0.3169   -1.5688    0.9677 H   0  0  0  0  0  0  0  0  0  0  0  0
    0.9372    0.0457   -1.0582 H   0  0  0  0  0  0  0  0  0  0  0  0
   -0.5765   -1.1811   -0.9769 H   0  0  0  0  0  0  0  0  0  0  0  0
  1  3  1  0  0  0  0
  1  2  1  0  0  0  0
  1  5  1  0  0  0  0
  2  6  1  0  0  0  0
  2  8  1  0  0  0  0
  4  1  1  0  0  0  0
  6 10  1  0  0  0  0
  7  2  1  0  0  0  0
  9  6  1  0  0  0  0
  9 12  1  0  0  0  0
 11  6  1  0  0  0  0
 14  9  1  0  0  0  0
M  RAD  2   9   2  13   2
M  END
$$$$
