butane_opt
 OpenBabel08242015403D

 14 11  0  0  0  0  0  0  0  0999 V2000
   -4.0074    0.3312    0.0894 C   0  0  0  0  0  0  0  0  0  0  0  0
   -2.6767   -0.6571   -0.0533 C   0  0  0  0  0  0  0  0  0  0  0  0
   -5.0023   -0.2091   -0.1025 H   0  0  0  0  0  0  0  0  0  0  0  0
   -4.0404    0.8066   -0.6215 H   0  0  0  0  0  0  0  0  0  0  0  0
   -4.1995    1.0380    0.9242 H   0  0  0  0  0  0  0  0  0  0  0  0
   -1.3675    0.0964    0.0222 C   0  0  0  0  0  0  0  0  0  0  0  0
   -2.8006   -1.6693   -1.1356 H   0  0  0  0  0  0  0  0  0  0  0  0
   -2.4957   -1.2703    0.6247 H   0  0  0  0  0  0  0  0  0  0  0  0
   -0.1321   -0.5986    0.0920 C   0  0  0  0  0  0  0  0  0  0  0  0
   -1.4652    0.6194    0.7582 H   0  0  0  0  0  0  0  0  0  0  0  0
   -1.2973    0.8039   -0.9400 H   0  0  0  0  0  0  0  0  0  0  0  0
   -0.0575   -1.6961    1.2429 H   0  0  0  0  0  0  0  0  0  0  0  0
    0.6861   -0.0589   -0.6636 H   0  0  0  0  0  0  0  0  0  0  0  0
   -0.1809   -0.8633   -0.4243 H   0  0  0  0  0  0  0  0  0  0  0  0
  1  5  1  0  0  0  0
  2  6  1  0  0  0  0
  2  1  1  0  0  0  0
  2  8  1  0  0  0  0
  3  1  1  0  0  0  0
  4  1  1  0  0  0  0
  6  9  1  0  0  0  0
  6 10  1  0  0  0  0
  7  2  1  0  0  0  0
 11  6  1  0  0  0  0
 13  9  1  0  0  0  0
M  RAD  3   9   3  12   2  14   2
M  END
$$$$
