butane_opt
 OpenBabel08242015403D

 14 12  0  0  0  0  0  0  0  0999 V2000
   -3.9858    0.2272   -0.0682 C   0  0  0  0  0  0  0  0  0  0  0  0
   -2.7273   -0.6026    0.2333 C   0  0  0  0  0  0  0  0  0  0  0  0
   -4.8520   -0.3337   -0.1009 H   0  0  0  0  0  0  0  0  0  0  0  0
   -3.8929    0.9967   -1.0385 H   0  0  0  0  0  0  0  0  0  0  0  0
   -4.1915    0.9431    0.5947 H   0  0  0  0  0  0  0  0  0  0  0  0
   -1.3496    0.2518   -0.0121 C   0  0  0  0  0  0  0  0  0  0  0  0
   -2.6310   -1.1410   -0.4867 H   0  0  0  0  0  0  0  0  0  0  0  0
   -2.9655   -1.3577    1.2656 H   0  0  0  0  0  0  0  0  0  0  0  0
   -0.1136   -0.6948   -0.0855 C   0  0  0  0  0  0  0  0  0  0  0  0
   -1.2456    0.9877    0.9603 H   0  0  0  0  0  0  0  0  0  0  0  0
   -1.5157    0.4876   -0.6527 H   0  0  0  0  0  0  0  0  0  0  0  0
   -0.3021   -1.0175    0.6217 H   0  0  0  0  0  0  0  0  0  0  0  0
    0.6135   -0.3161    0.7962 H   0  0  0  0  0  0  0  0  0  0  0  0
    0.1028   -1.9350   -1.3486 H   0  0  0  0  0  0  0  0  0  0  0  0
  1  2  1  0  0  0  0
  1  5  1  0  0  0  0
  2  8  1  0  0  0  0
  3  1  1  0  0  0  0
  4  1  1  0  0  0  0
  6  2  1  0  0  0  0
  6 10  1  0  0  0  0
  7  2  1  0  0  0  0
  9  6  1  0  0  0  0
  9 12  1  0  0  0  0
  9 13  1  0  0  0  0
 11  6  1  0  0  0  0
M  RAD  2   9   2  14   2
M  END
$$$$
