butane_opt
 OpenBabel08242015403D

 14 13  0  0  0  0  0  0  0  0999 V2000
   -3.9399    0.2565    0.0176 C   0  0  0  0  0  0  0  0  0  0  0  0
   -2.6973   -0.5939    0.0338 C   0  0  0  0  0  0  0  0  0  0  0  0
   -4.8972   -0.3997   -0.0299 H   0  0  0  0  0  0  0  0  0  0  0  0
   -3.9472    0.7511   -0.7672 H   0  0  0  0  0  0  0  0  0  0  0  0
   -3.9463    1.0044    0.9403 H   0  0  0  0  0  0  0  0  0  0  0  0
   -1.4149    0.1928    0.0023 C   0  0  0  0  0  0  0  0  0  0  0  0
   -2.7160   -1.2909   -0.8172 H   0  0  0  0  0  0  0  0  0  0  0  0
   -2.7331   -1.2243    0.9342 H   0  0  0  0  0  0  0  0  0  0  0  0
   -0.1520   -0.7023    0.0415 C   0  0  0  0  0  0  0  0  0  0  0  0
   -1.4037    0.8341    0.8140 H   0  0  0  0  0  0  0  0  0  0  0  0
   -1.3984    0.8177   -0.9005 H   0  0  0  0  0  0  0  0  0  0  0  0
   -0.1106   -1.3726    0.9786 H   0  0  0  0  0  0  0  0  0  0  0  0
    0.7076   -0.1310   -0.0624 H   0  0  0  0  0  0  0  0  0  0  0  0
   -0.1207   -1.3086   -0.7798 H   0  0  0  0  0  0  0  0  0  0  0  0
  1  2  1  0  0  0  0
  1  5  1  0  0  0  0
  2  8  1  0  0  0  0
  3  1  1  0  0  0  0
  4  1  1  0  0  0  0
  6  2  1  0  0  0  0
  6  9  1  0  0  0  0
  6 10  1  0  0  0  0
  7  2  1  0  0  0  0
  9 12  1  0  0  0  0
 11  6  1  0  0  0  0
 13  9  1  0  0  0  0
 14  9  1  0  0  0  0
M  END
$$$$
