butane_opt
 OpenBabel08242015403D

 14  8  0  0  0  0  0  0  0  0999 V2000
   -3.8671    0.2150    0.1150 C   0  0  0  0  0  1  0  0  0  0  0  0
   -2.7853   -0.5463   -0.0544 C   0  0  0  0  0  0  0  0  0  0  0  0
   -4.7618   -0.3482   -0.4052 H   0  0  0  0  0  0  0  0  0  0  0  0
   -3.8727   -0.0301   -0.2941 H   0  0  0  0  0  0  0  0  0  0  0  0
   -4.1568    1.4812    1.2777 H   0  0  0  0  0  0  0  0  0  0  0  0
   -1.4639    0.2699   -0.1243 C   0  0  0  0  0  0  0  0  0  0  0  0
   -3.1126   -1.3092   -0.9853 H   0  0  0  0  0  0  0  0  0  0  0  0
   -2.6913   -1.1720    0.7945 H   0  0  0  0  0  0  0  0  0  0  0  0
   -0.0910   -0.7635    0.1234 C   0  0  0  0  0  0  0  0  0  0  0  0
   -1.2954    0.8397    0.6403 H   0  0  0  0  0  0  0  0  0  0  0  0
   -1.3875    1.0358   -0.9703 H   0  0  0  0  0  0  0  0  0  0  0  0
   -0.0427   -2.0090    1.3924 H   0  0  0  0  0  0  0  0  0  0  0  0
    0.6397   -0.1867   -0.2623 H   0  0  0  0  0  0  0  0  0  0  0  0
    0.1664   -0.9086   -0.3399 H   0  0  0  0  0  0  0  0  0  0  0  0
  2  8  1  0  0  0  0
  3  1  1  0  0  0  0
  4  2  1  0  0  0  0
  6  9  1  0  0  0  0
  6 10  1  0  0  0  0
  7  2  1  0  0  0  0
 11  6  1  0  0  0  0
 13  9  1  0  0  0  0
M  RAD  6   2   2   5   2   6   2   9   3  12   2  14   2
M  END
$$$$
