14
butane_opt
C  -3.884989   0.241420  -0.117133
C  -2.697031  -0.576100   0.085310
H  -5.018084  -0.402123   0.631445
H  -3.970678   1.377271  -1.337202
H  -3.699404   0.425313   0.526620
C  -1.456016   0.168503   0.183351
H  -2.711655  -1.161162  -0.602929
H  -2.655481  -1.363891   1.013212
C  -0.182485  -0.718717  -0.106741
H  -1.391747   1.138923   1.402557
H  -1.784747   0.749816  -0.561192
H  -0.157183  -1.250823   0.752644
H   0.938472   0.085574  -0.004341
H   0.032165  -1.425018  -0.987680
