14
butane_opt
C  -3.948752   0.318967  -0.132474
C  -2.630246  -0.643875   0.323642
H  -4.867549  -0.237542  -0.919310
H  -3.371860   0.410954  -0.794203
H  -4.488606   1.071392   0.810643
C  -1.400076   0.161214   0.128331
H  -2.424487  -1.332441  -0.502343
H  -2.596302  -1.365130   1.122991
C  -0.266530  -0.679132  -0.123316
H  -1.369919   0.751941   0.892399
H  -1.459162   0.719041  -0.817134
H   0.037003  -1.143829   0.590741
H   0.819891   0.125732  -0.162137
H  -0.402551  -1.330456  -1.101093
