14
butane_opt
C  -3.915513   0.319659   0.062843
C  -2.687293  -0.671701  -0.027689
H  -4.718579  -0.287065   0.184804
H  -3.784764   0.988892  -0.882562
H  -4.196219   0.958991   0.869061
C  -1.384699   0.084889   0.041055
H  -2.609598  -1.592837  -1.078206
H  -2.395059  -0.844075   0.547718
C  -0.234918  -0.609575   0.058067
H  -1.397756   0.855596   0.955662
H  -1.156050   0.684328  -0.991821
H  -0.068694  -1.724503   1.381151
H   0.575863  -0.146309  -0.663558
H  -0.606463  -0.834936  -0.437924
