14
butane_opt
C  -4.025018   0.307807  -0.175795
C  -2.728902  -0.672617   0.184905
H  -4.630077   0.114582  -0.011945
H  -3.929982   0.909926  -1.162412
H  -4.387815   0.920614   0.719815
C  -1.380759   0.097120   0.228889
H  -2.420716  -1.351948  -0.492935
H  -2.817557  -1.517847   1.299768
C  -0.102860  -0.606322  -0.170675
H  -1.263984   1.128526   1.287117
H  -1.352704   0.456506  -0.420980
H   0.001732  -1.507052   0.836208
H   0.938884  -0.026187  -0.516993
H  -0.359422  -1.031277  -0.881520
