butane_opt
 OpenBabel08242015403D

 14 12  0  0  0  0  0  0  0  0999 V2000
   -3.9542    0.3126   -0.0972 C   0  0  0  0  0  0  0  0  0  0  0  0
   -2.6752   -0.7052    0.1335 C   0  0  0  0  0  0  0  0  0  0  0  0
   -4.8037   -0.3077   -0.1155 H   0  0  0  0  0  0  0  0  0  0  0  0
   -3.8798    1.1304   -1.0432 H   0  0  0  0  0  0  0  0  0  0  0  0
   -4.3521    0.8908    0.7113 H   0  0  0  0  0  0  0  0  0  0  0  0
   -1.4318    0.1961    0.1461 C   0  0  0  0  0  0  0  0  0  0  0  0
   -2.7632   -1.2755   -0.6788 H   0  0  0  0  0  0  0  0  0  0  0  0
   -2.7619   -1.4807    1.1004 H   0  0  0  0  0  0  0  0  0  0  0  0
   -0.1262   -0.6609   -0.1086 C   0  0  0  0  0  0  0  0  0  0  0  0
   -1.4659    1.0382    1.2252 H   0  0  0  0  0  0  0  0  0  0  0  0
   -1.4278    0.3531   -0.3938 H   0  0  0  0  0  0  0  0  0  0  0  0
    0.1762   -1.5527    0.9918 H   0  0  0  0  0  0  0  0  0  0  0  0
    0.9046    0.0877   -0.4125 H   0  0  0  0  0  0  0  0  0  0  0  0
   -0.4357   -1.0091   -0.8244 H   0  0  0  0  0  0  0  0  0  0  0  0
  1  2  1  0  0  0  0
  1  5  1  0  0  0  0
  2  6  1  0  0  0  0
  2  8  1  0  0  0  0
  3  1  1  0  0  0  0
  4  1  1  0  0  0  0
  6 10  1  0  0  0  0
  7  2  1  0  0  0  0
  9  6  1  0  0  0  0
  9 12  1  0  0  0  0
 13  9  1  0  0  0  0
 14  9  1  0  0  0  0
M  RAD  2   6   2  11   2
M  END
$$$$
