butane_opt
 OpenBabel08242015403D

 14 12  0  0  0  0  0  0  0  0999 V2000
   -3.8595    0.1988   -0.1593 C   0  0  0  0  0  0  0  0  0  0  0  0
   -2.7081   -0.5159    0.3187 C   0  0  0  0  0  0  0  0  0  0  0  0
   -4.9948   -0.6196   -0.8411 H   0  0  0  0  0  0  0  0  0  0  0  0
   -3.5596    0.5111   -0.8995 H   0  0  0  0  0  0  0  0  0  0  0  0
   -4.1585    1.1088    0.8277 H   0  0  0  0  0  0  0  0  0  0  0  0
   -1.4548    0.2753    0.1083 C   0  0  0  0  0  0  0  0  0  0  0  0
   -2.3593   -1.0553   -0.3496 H   0  0  0  0  0  0  0  0  0  0  0  0
   -2.9337   -1.4699    1.4572 H   0  0  0  0  0  0  0  0  0  0  0  0
   -0.2037   -0.7481   -0.1414 C   0  0  0  0  0  0  0  0  0  0  0  0
   -1.0505    1.2438    1.0357 H   0  0  0  0  0  0  0  0  0  0  0  0
   -1.6716    0.6832   -0.6363 H   0  0  0  0  0  0  0  0  0  0  0  0
   -0.1301   -1.4147    0.5929 H   0  0  0  0  0  0  0  0  0  0  0  0
    0.6840   -0.2334   -0.0613 H   0  0  0  0  0  0  0  0  0  0  0  0
   -0.0765   -1.8037   -1.1820 H   0  0  0  0  0  0  0  0  0  0  0  0
  1  2  1  0  0  0  0
  1  5  1  0  0  0  0
  2  8  1  0  0  0  0
  4  1  1  0  0  0  0
  6  2  1  0  0  0  0
  6 10  1  0  0  0  0
  7  2  1  0  0  0  0
  9 13  1  0  0  0  0
  9  6  1  0  0  0  0
  9 12  1  0  0  0  0
 11  6  1  0  0  0  0
 14  9  1  0  0  0  0
M  RAD  2   1   2   3   2
M  END
$$$$
