14
butane_opt
C  -3.877306   0.140129  -0.160525
C  -2.708440  -0.492098   0.251291
H  -4.675199  -0.387366  -0.462016
H  -3.550404   0.372531  -0.902902
H  -4.183628   1.332718   0.992128
C  -1.460465   0.253851   0.109612
H  -2.575557  -0.818313  -0.360159
H  -2.864363  -1.493972   1.232991
C  -0.138387  -0.759302  -0.095031
H  -1.617049   1.022895   1.065121
H  -1.640525   0.732941  -0.695331
H   0.069420  -1.172287   0.500853
H   0.624955  -0.324264  -0.221673
H  -0.344888  -1.453339  -0.928390
