14
butane_opt
C  -3.933657   0.300371   0.069524
C  -2.608248  -0.641043  -0.104133
H  -4.833178  -0.304835   0.522377
H  -4.331965   1.147819  -0.846228
H  -3.751035   0.864237   0.952553
C  -1.396203   0.135531  -0.011298
H  -2.961706  -1.436976  -0.971939
H  -2.597283  -1.461620   0.844953
C  -0.216002  -0.633834   0.094397
H  -1.445018   0.822515   0.752450
H  -1.199400   0.733114  -0.992312
H  -0.234169  -1.437696   1.152133
H   0.566961  -0.023037   0.239834
H  -0.385253  -1.288900  -0.800075
