butane_opt
 OpenBabel08242015403D

 14 10  0  0  0  0  0  0  0  0999 V2000
   -3.9719    0.3501    0.1926 C   0  0  0  0  0 15  0  0  0  0  0  0
   -2.6787   -0.6770   -0.0480 C   0  0  0  0  0  0  0  0  0  0  0  0
   -4.9932   -0.2990   -0.7940 H   0  0  0  0  0  0  0  0  0  0  0  0
   -3.6837    0.0907   -0.2754 H   0  0  0  0  0  0  0  0  0  0  0  0
   -4.4398    1.5301    1.3616 H   0  0  0  0  0  0  0  0  0  0  0  0
   -1.3914    0.1087   -0.2158 C   0  0  0  0  0  0  0  0  0  0  0  0
   -2.8358   -1.3889   -0.8814 H   0  0  0  0  0  0  0  0  0  0  0  0
   -2.3382   -1.2649    0.6839 H   0  0  0  0  0  0  0  0  0  0  0  0
   -0.1602   -0.6187    0.1934 C   0  0  0  0  0  0  0  0  0  0  0  0
   -1.3464    0.5304    0.5978 H   0  0  0  0  0  0  0  0  0  0  0  0
   -1.3951    0.9740   -1.2443 H   0  0  0  0  0  0  0  0  0  0  0  0
   -0.3838   -1.4083    1.2027 H   0  0  0  0  0  0  0  0  0  0  0  0
    0.7718   -0.1231   -0.1449 H   0  0  0  0  0  0  0  0  0  0  0  0
    0.0206   -1.0723   -0.4667 H   0  0  0  0  0  0  0  0  0  0  0  0
  2  8  1  0  0  0  0
  4  2  1  0  0  0  0
  6  2  1  0  0  0  0
  6  9  1  0  0  0  0
  6 10  1  0  0  0  0
  7  2  1  0  0  0  0
  9 12  1  0  0  0  0
 11  6  1  0  0  0  0
 13  9  1  0  0  0  0
 14  9  1  0  0  0  0
M  RAD  2   3   2   5   2
M  END
$$$$
