butane_opt
 OpenBabel08242015403D

 14 12  0  0  0  0  0  0  0  0999 V2000
   -4.0077    0.2506    0.1933 C   0  0  0  0  0  0  0  0  0  0  0  0
   -2.6826   -0.6792   -0.1056 C   0  0  0  0  0  0  0  0  0  0  0  0
   -4.7246   -0.1492    0.1365 H   0  0  0  0  0  0  0  0  0  0  0  0
   -4.0769    0.6154   -0.6057 H   0  0  0  0  0  0  0  0  0  0  0  0
   -4.0613    1.3524    1.3279 H   0  0  0  0  0  0  0  0  0  0  0  0
   -1.3755    0.1856   -0.2221 C   0  0  0  0  0  0  0  0  0  0  0  0
   -2.9113   -1.4066   -1.0429 H   0  0  0  0  0  0  0  0  0  0  0  0
   -2.4110   -1.0660    0.5725 H   0  0  0  0  0  0  0  0  0  0  0  0
   -0.1475   -0.6566    0.1919 C   0  0  0  0  0  0  0  0  0  0  0  0
   -1.5741    0.6654    0.4984 H   0  0  0  0  0  0  0  0  0  0  0  0
   -1.2438    1.1448   -1.2071 H   0  0  0  0  0  0  0  0  0  0  0  0
   -0.3290   -1.4657    1.1508 H   0  0  0  0  0  0  0  0  0  0  0  0
    0.5817   -0.0716    0.5459 H   0  0  0  0  0  0  0  0  0  0  0  0
    0.2758   -1.3117   -0.5792 H   0  0  0  0  0  0  0  0  0  0  0  0
  2  1  1  0  0  0  0
  2  8  1  0  0  0  0
  3  1  1  0  0  0  0
  4  1  1  0  0  0  0
  6  2  1  0  0  0  0
  6  9  1  0  0  0  0
  6 10  1  0  0  0  0
  7  2  1  0  0  0  0
  9 13  1  0  0  0  0
  9 12  1  0  0  0  0
 11  6  1  0  0  0  0
 14  9  1  0  0  0  0
M  RAD  2   1   2   5   2
M  END
$$$$
