butane_opt
 OpenBabel08242015403D

 14 10  0  0  0  0  0  0  0  0999 V2000
   -3.8834    0.2285    0.1175 C   0  0  0  0  0  0  0  0  0  0  0  0
   -2.6205   -0.6034   -0.1379 C   0  0  0  0  0  0  0  0  0  0  0  0
   -5.0616   -0.5613    0.0581 H   0  0  0  0  0  0  0  0  0  0  0  0
   -3.9730    0.6258   -0.6075 H   0  0  0  0  0  0  0  0  0  0  0  0
   -3.8941    1.2814    1.3561 H   0  0  0  0  0  0  0  0  0  0  0  0
   -1.4654    0.2477   -0.0782 C   0  0  0  0  0  0  0  0  0  0  0  0
   -2.9171   -1.5164   -1.1094 H   0  0  0  0  0  0  0  0  0  0  0  0
   -2.5201   -1.0926    0.6211 H   0  0  0  0  0  0  0  0  0  0  0  0
   -0.2013   -0.7215    0.1302 C   0  0  0  0  0  1  0  0  0  0  0  0
   -1.3390    1.1139    0.8340 H   0  0  0  0  0  0  0  0  0  0  0  0
   -1.4625    0.7639   -0.9334 H   0  0  0  0  0  0  0  0  0  0  0  0
    0.0166   -2.1611    1.6336 H   0  0  0  0  0  0  0  0  0  0  0  0
    0.5322   -0.2193   -0.5229 H   0  0  0  0  0  0  0  0  0  0  0  0
   -0.2956   -0.5521   -0.1393 H   0  0  0  0  0  0  0  0  0  0  0  0
  2  6  1  0  0  0  0
  2  1  1  0  0  0  0
  2  8  1  0  0  0  0
  3  1  1  0  0  0  0
  4  1  1  0  0  0  0
  6 10  1  0  0  0  0
  7  2  1  0  0  0  0
 11  6  1  0  0  0  0
 13  9  1  0  0  0  0
 14  6  1  0  0  0  0
M  RAD  3   1   2   5   2  12   2
M  END
$$$$
