14
butane_opt
C  -3.946492   0.319805   0.104440
C  -2.652013  -0.663626  -0.124644
H  -4.919862  -0.217323   0.177390
H  -4.349547   0.894241  -0.862646
H  -3.804592   1.224397   1.098667
C  -1.372811   0.099320   0.031323
H  -2.812702  -1.567734  -1.026031
H  -2.663889  -1.055606   0.559315
C  -0.169890  -0.662657   0.108187
H  -1.425204   0.473962   0.697184
H  -1.254672   0.979213  -1.086099
H  -0.263124  -1.648701   1.241765
H   0.966469   0.054418  -0.324116
H  -0.779458  -0.675346  -0.396147
