14
butane_opt
C  -3.894474   0.176981   0.144493
C  -2.674488  -0.538325  -0.153901
H  -4.845822  -0.418751   0.498489
H  -4.083324   0.722313  -0.535855
H  -3.436023   0.841828   1.092438
C  -1.493359   0.227625  -0.151173
H  -2.760564  -1.251107  -1.097368
H  -2.799760  -0.840023   0.651945
C  -0.162119  -0.727258   0.209215
H  -1.575942   0.847014   0.721481
H  -1.384939   1.054831  -1.076621
H  -0.159716  -1.497059   1.158589
H   0.562001  -0.368233  -0.033446
H   0.168158  -1.279440  -0.513747
