14
butane_opt
C  -3.919251   0.193885  -0.180199
C  -2.703472  -0.509360   0.195548
H  -5.073439  -0.556025  -0.160905
H  -3.565286   0.979614  -1.252087
H  -4.151714   0.806391   0.756160
C  -1.421513   0.196326   0.256785
H  -2.487120  -1.111789  -0.556076
H  -2.964278  -1.248389   1.194832
C  -0.112933  -0.724601  -0.168250
H  -1.148038   1.087596   1.429467
H  -1.936957   0.677668  -0.411241
H   0.096150  -1.639619   0.907948
H   0.525367  -0.284133  -0.713284
H  -0.373600  -1.101195  -0.958498
