butane_opt
 OpenBabel08242015403D

 14 10  0  0  0  0  0  0  0  0999 V2000
   -3.9927    0.3187   -0.0467 C   0  0  0  0  0  0  0  0  0  0  0  0
   -2.7362   -0.7222    0.1591 C   0  0  0  0  0  0  0  0  0  0  0  0
   -4.6817   -0.0886    0.0746 H   0  0  0  0  0  0  0  0  0  0  0  0
   -4.1120    1.1147   -1.1320 H   0  0  0  0  0  0  0  0  0  0  0  0
   -4.2134    0.7854    0.7517 H   0  0  0  0  0  0  0  0  0  0  0  0
   -1.3830    0.1439   -0.0236 C   0  0  0  0  0  0  0  0  0  0  0  0
   -2.4489   -1.0173   -0.3218 H   0  0  0  0  0  0  0  0  0  0  0  0
   -2.7256   -1.6209    1.2202 H   0  0  0  0  0  0  0  0  0  0  0  0
   -0.1002   -0.6185   -0.0212 C   0  0  0  0  0  1  0  0  0  0  0  0
   -1.3475    1.0431    1.0476 H   0  0  0  0  0  0  0  0  0  0  0  0
   -1.2535    0.5099   -0.8976 H   0  0  0  0  0  0  0  0  0  0  0  0
   -0.3197   -0.5181    0.3662 H   0  0  0  0  0  0  0  0  0  0  0  0
    0.6672   -0.1809    0.7743 H   0  0  0  0  0  0  0  0  0  0  0  0
   -0.0584   -1.9505   -1.3345 H   0  0  0  0  0  0  0  0  0  0  0  0
  1  3  1  0  0  0  0
  1  2  1  0  0  0  0
  1  5  1  0  0  0  0
  2  8  1  0  0  0  0
  4  1  1  0  0  0  0
  6 12  1  0  0  0  0
  6 10  1  0  0  0  0
  7  2  1  0  0  0  0
  9 13  1  0  0  0  0
 11  6  1  0  0  0  0
M  RAD  3   2   2   6   2  14   2
M  END
$$$$
