butane_opt
 OpenBabel08242015403D

 14 11  0  0  0  0  0  0  0  0999 V2000
   -3.8850    0.2414   -0.1171 C   0  0  0  0  0  0  0  0  0  0  0  0
   -2.6970   -0.5761    0.0853 C   0  0  0  0  0  0  0  0  0  0  0  0
   -5.0181   -0.4021    0.6314 H   0  0  0  0  0  0  0  0  0  0  0  0
   -3.9707    1.3773   -1.3372 H   0  0  0  0  0  0  0  0  0  0  0  0
   -3.6994    0.4253    0.5266 H   0  0  0  0  0  0  0  0  0  0  0  0
   -1.4560    0.1685    0.1834 C   0  0  0  0  0  0  0  0  0  0  0  0
   -2.7117   -1.1612   -0.6029 H   0  0  0  0  0  0  0  0  0  0  0  0
   -2.6555   -1.3639    1.0132 H   0  0  0  0  0  0  0  0  0  0  0  0
   -0.1825   -0.7187   -0.1067 C   0  0  0  0  0  0  0  0  0  0  0  0
   -1.3917    1.1389    1.4026 H   0  0  0  0  0  0  0  0  0  0  0  0
   -1.7847    0.7498   -0.5612 H   0  0  0  0  0  0  0  0  0  0  0  0
   -0.1572   -1.2508    0.7526 H   0  0  0  0  0  0  0  0  0  0  0  0
    0.9385    0.0856   -0.0043 H   0  0  0  0  0  0  0  0  0  0  0  0
    0.0322   -1.4250   -0.9877 H   0  0  0  0  0  0  0  0  0  0  0  0
  1  2  1  0  0  0  0
  1  5  1  0  0  0  0
  1  3  1  0  0  0  0
  2  6  1  0  0  0  0
  2  8  1  0  0  0  0
  7  2  1  0  0  0  0
  9 13  1  0  0  0  0
  9  6  1  0  0  0  0
  9 12  1  0  0  0  0
 11  6  1  0  0  0  0
 14  9  1  0  0  0  0
M  RAD  4   1   2   4   2   6   2  10   2
M  END
$$$$
