butane_opt
 OpenBabel08242015403D

 14 13  0  0  0  0  0  0  0  0999 V2000
   -3.9326    0.2460   -0.0032 C   0  0  0  0  0  0  0  0  0  0  0  0
   -2.7029   -0.5892    0.0410 C   0  0  0  0  0  0  0  0  0  0  0  0
   -4.8440   -0.3550    0.1906 H   0  0  0  0  0  0  0  0  0  0  0  0
   -3.9718    0.9980   -0.9894 H   0  0  0  0  0  0  0  0  0  0  0  0
   -3.9054    0.7824    0.7624 H   0  0  0  0  0  0  0  0  0  0  0  0
   -1.4154    0.1987    0.0460 C   0  0  0  0  0  0  0  0  0  0  0  0
   -2.6729   -1.2339   -0.7536 H   0  0  0  0  0  0  0  0  0  0  0  0
   -2.7472   -1.2623    0.9598 H   0  0  0  0  0  0  0  0  0  0  0  0
   -0.1634   -0.7090    0.0138 C   0  0  0  0  0  0  0  0  0  0  0  0
   -1.4268    0.9083    0.9213 H   0  0  0  0  0  0  0  0  0  0  0  0
   -1.4124    0.7545   -0.7964 H   0  0  0  0  0  0  0  0  0  0  0  0
   -0.0912   -1.2906    0.8441 H   0  0  0  0  0  0  0  0  0  0  0  0
    0.7936   -0.0806    0.0158 H   0  0  0  0  0  0  0  0  0  0  0  0
   -0.1732   -1.4404   -0.9017 H   0  0  0  0  0  0  0  0  0  0  0  0
  1  2  1  0  0  0  0
  1  3  1  0  0  0  0
  1  5  1  0  0  0  0
  2  6  1  0  0  0  0
  2  8  1  0  0  0  0
  4  1  1  0  0  0  0
  6 10  1  0  0  0  0
  7  2  1  0  0  0  0
  9 13  1  0  0  0  0
  9  6  1  0  0  0  0
  9 12  1  0  0  0  0
 11  6  1  0  0  0  0
 14  9  1  0  0  0  0
M  END
$$$$
