butane_opt
 OpenBabel08242015403D

 14 13  0  0  0  0  0  0  0  0999 V2000
   -3.9423    0.3029   -0.0042 C   0  0  0  0  0  0  0  0  0  0  0  0
   -2.6580   -0.6270    0.1028 C   0  0  0  0  0  0  0  0  0  0  0  0
   -4.5743   -0.1560   -0.4531 H   0  0  0  0  0  0  0  0  0  0  0  0
   -3.7961    0.7268   -0.8841 H   0  0  0  0  0  0  0  0  0  0  0  0
   -4.2622    1.2037    0.9437 H   0  0  0  0  0  0  0  0  0  0  0  0
   -1.3828    0.0766    0.0880 C   0  0  0  0  0  0  0  0  0  0  0  0
   -2.4557   -1.2334   -0.7685 H   0  0  0  0  0  0  0  0  0  0  0  0
   -2.6395   -1.3482    0.9253 H   0  0  0  0  0  0  0  0  0  0  0  0
   -0.2526   -0.6407   -0.0198 C   0  0  0  0  0  0  0  0  0  0  0  0
   -1.5405    0.6078    0.7342 H   0  0  0  0  0  0  0  0  0  0  0  0
   -1.1481    0.7644   -0.8520 H   0  0  0  0  0  0  0  0  0  0  0  0
    0.0078   -1.4059    0.8495 H   0  0  0  0  0  0  0  0  0  0  0  0
    0.9189    0.2734   -0.2232 H   0  0  0  0  0  0  0  0  0  0  0  0
   -0.7344   -1.1809   -0.7829 H   0  0  0  0  0  0  0  0  0  0  0  0
  1  2  1  0  0  0  0
  1  5  1  0  0  0  0
  2  8  1  0  0  0  0
  3  1  1  0  0  0  0
  4  1  1  0  0  0  0
  6  2  1  0  0  0  0
  6 10  1  0  0  0  0
  7  2  1  0  0  0  0
  9  6  1  0  0  0  0
  9 12  1  0  0  0  0
 11  6  1  0  0  0  0
 13  9  1  0  0  0  0
 14  9  1  0  0  0  0
M  END
$$$$
