butane_opt
 OpenBabel08242015403D

 14  8  0  0  0  0  0  0  0  0999 V2000
   -3.9485    0.3353    0.1130 C   0  0  0  0  0  0  0  0  0  0  0  0
   -2.7569   -0.7026   -0.0466 C   0  0  0  0  0  1  0  0  0  0  0  0
   -4.7583   -0.1817   -0.1652 H   0  0  0  0  0  0  0  0  0  0  0  0
   -4.4073    0.7923   -0.6352 H   0  0  0  0  0  0  0  0  0  0  0  0
   -4.1552    1.1476    1.1118 H   0  0  0  0  0  0  0  0  0  0  0  0
   -1.3359    0.1478   -0.0294 C   0  0  0  0  0  0  0  0  0  0  0  0
   -2.7894   -1.9268   -1.3271 H   0  0  0  0  0  0  0  0  0  0  0  0
   -2.8072   -0.9364    0.4229 H   0  0  0  0  0  0  0  0  0  0  0  0
   -0.1222   -0.6435    0.1111 C   0  0  0  0  0  1  0  0  0  0  0  0
   -1.3762    0.8814    0.7622 H   0  0  0  0  0  0  0  0  0  0  0  0
   -1.3405    0.9125   -0.9747 H   0  0  0  0  0  0  0  0  0  0  0  0
    0.0474   -2.2030    1.5501 H   0  0  0  0  0  0  0  0  0  0  0  0
    0.8149    0.0454   -0.7015 H   0  0  0  0  0  0  0  0  0  0  0  0
   -0.3108   -0.6081   -0.2786 H   0  0  0  0  0  0  0  0  0  0  0  0
  1  5  1  0  0  0  0
  2  1  1  0  0  0  0
  3  1  1  0  0  0  0
  4  1  1  0  0  0  0
  6 10  1  0  0  0  0
 11  6  1  0  0  0  0
 13  9  1  0  0  0  0
 14  6  1  0  0  0  0
M  RAD  4   6   2   7   2   8   2  12   2
M  END
$$$$
