butane_opt
 OpenBabel08242015403D

 14 13  0  0  0  0  0  0  0  0999 V2000
   -3.9704    0.3451    0.2633 C   0  0  0  0  0  0  0  0  0  0  0  0
   -2.7142   -0.6762   -0.1218 C   0  0  0  0  0  0  0  0  0  0  0  0
   -4.8285   -0.1116    0.0617 H   0  0  0  0  0  0  0  0  0  0  0  0
   -4.1600    0.8033   -0.5841 H   0  0  0  0  0  0  0  0  0  0  0  0
   -3.8923    0.9514    1.2264 H   0  0  0  0  0  0  0  0  0  0  0  0
   -1.3700    0.0655   -0.3495 C   0  0  0  0  0  0  0  0  0  0  0  0
   -3.0000   -1.3641   -0.9389 H   0  0  0  0  0  0  0  0  0  0  0  0
   -2.6676   -1.0141    0.6456 H   0  0  0  0  0  0  0  0  0  0  0  0
   -0.1502   -0.6565    0.2676 C   0  0  0  0  0  0  0  0  0  0  0  0
   -1.5742    0.7227    0.4398 H   0  0  0  0  0  0  0  0  0  0  0  0
   -1.1180    0.8569   -1.2583 H   0  0  0  0  0  0  0  0  0  0  0  0
   -0.6389   -0.7945    0.9048 H   0  0  0  0  0  0  0  0  0  0  0  0
    0.9554    0.1150    0.8419 H   0  0  0  0  0  0  0  0  0  0  0  0
    0.3032   -1.5597   -0.6758 H   0  0  0  0  0  0  0  0  0  0  0  0
  1  5  1  0  0  0  0
  2  1  1  0  0  0  0
  2  8  1  0  0  0  0
  3  1  1  0  0  0  0
  4  1  1  0  0  0  0
  6  2  1  0  0  0  0
  6  9  1  0  0  0  0
  6 10  1  0  0  0  0
  7  2  1  0  0  0  0
  9 13  1  0  0  0  0
  9 12  1  0  0  0  0
 11  6  1  0  0  0  0
 14  9  1  0  0  0  0
M  END
$$$$
