14
butane_opt
C  -3.801855   0.248229  -0.098657
C  -2.739320  -0.612248   0.190299
H  -4.864613  -0.416945  -0.004022
H  -3.781893   1.172533  -1.259446
H  -4.155069   0.767768   0.688529
C  -1.446137   0.208272   0.088926
H  -2.630727  -1.077035  -0.451519
H  -2.667301  -1.513336   1.281225
C  -0.210221  -0.721737  -0.097973
H  -1.196480   1.090660   1.127496
H  -1.667721   0.922930  -0.721405
H  -0.297432  -0.915019   0.463096
H   0.865505  -0.088487   0.583798
H  -0.217761  -1.914425  -1.306019
