butane_opt
 OpenBabel08242015403D

 14 13  0  0  0  0  0  0  0  0999 V2000
   -3.9394    0.2624   -0.0149 C   0  0  0  0  0  0  0  0  0  0  0  0
   -2.7103   -0.6086    0.0731 C   0  0  0  0  0  0  0  0  0  0  0  0
   -4.8672   -0.3395   -0.0530 H   0  0  0  0  0  0  0  0  0  0  0  0
   -3.9696    0.8545   -0.8617 H   0  0  0  0  0  0  0  0  0  0  0  0
   -3.9955    0.9328    0.8274 H   0  0  0  0  0  0  0  0  0  0  0  0
   -1.4042    0.1851    0.0383 C   0  0  0  0  0  0  0  0  0  0  0  0
   -2.6811   -1.2482   -0.7421 H   0  0  0  0  0  0  0  0  0  0  0  0
   -2.8042   -1.2557    1.0242 H   0  0  0  0  0  0  0  0  0  0  0  0
   -0.1463   -0.6963    0.0047 C   0  0  0  0  0  0  0  0  0  0  0  0
   -1.3807    0.8736    0.9009 H   0  0  0  0  0  0  0  0  0  0  0  0
   -1.4538    0.7795   -0.8290 H   0  0  0  0  0  0  0  0  0  0  0  0
   -0.0741   -1.2960    0.8781 H   0  0  0  0  0  0  0  0  0  0  0  0
    0.7657   -0.0990   -0.0331 H   0  0  0  0  0  0  0  0  0  0  0  0
   -0.1626   -1.3901   -0.8859 H   0  0  0  0  0  0  0  0  0  0  0  0
  1  2  1  0  0  0  0
  1  5  1  0  0  0  0
  2  8  1  0  0  0  0
  3  1  1  0  0  0  0
  4  1  1  0  0  0  0
  6  2  1  0  0  0  0
  6 10  1  0  0  0  0
  7  2  1  0  0  0  0
  9  6  1  0  0  0  0
  9 12  1  0  0  0  0
 11  6  1  0  0  0  0
 13  9  1  0  0  0  0
 14  9  1  0  0  0  0
M  END
$$$$
