butane_opt
 OpenBabel08242015403D

 14 13  0  0  0  0  0  0  0  0999 V2000
   -4.0747    0.3578    0.1808 C   0  0  0  0  0  0  0  0  0  0  0  0
   -2.6597   -0.6974   -0.0575 C   0  0  0  0  0  0  0  0  0  0  0  0
   -5.0395   -0.1985   -0.2952 H   0  0  0  0  0  0  0  0  0  0  0  0
   -3.9649    0.7177   -0.4816 H   0  0  0  0  0  0  0  0  0  0  0  0
   -4.1665    1.1182    1.0591 H   0  0  0  0  0  0  0  0  0  0  0  0
   -1.3652    0.1042   -0.2144 C   0  0  0  0  0  0  0  0  0  0  0  0
   -2.8631   -1.5205   -0.8294 H   0  0  0  0  0  0  0  0  0  0  0  0
   -2.5073   -1.4338    0.9208 H   0  0  0  0  0  0  0  0  0  0  0  0
   -0.1345   -0.6239    0.1460 C   0  0  0  0  0  0  0  0  0  0  0  0
   -1.4093    0.7616    0.6465 H   0  0  0  0  0  0  0  0  0  0  0  0
   -1.1413    0.7447   -1.1068 H   0  0  0  0  0  0  0  0  0  0  0  0
   -0.3476   -1.0911    0.9768 H   0  0  0  0  0  0  0  0  0  0  0  0
    0.8118    0.0979    0.4985 H   0  0  0  0  0  0  0  0  0  0  0  0
    0.3446   -1.3336   -0.6359 H   0  0  0  0  0  0  0  0  0  0  0  0
  1  5  1  0  0  0  0
  2  1  1  0  0  0  0
  2  8  1  0  0  0  0
  3  1  1  0  0  0  0
  4  1  1  0  0  0  0
  6  2  1  0  0  0  0
  6  9  1  0  0  0  0
  6 10  1  0  0  0  0
  7  2  1  0  0  0  0
  9 13  1  0  0  0  0
  9 12  1  0  0  0  0
 11  6  1  0  0  0  0
 14  9  1  0  0  0  0
M  END
$$$$
