14
butane_opt
C  -3.894841   0.347974   0.121610
C  -2.694210  -0.695338  -0.136744
H  -4.566418  -0.045939  -0.030973
H  -4.074039   0.707316  -0.433403
H  -3.913807   1.122589   1.090631
C  -1.371898   0.085916  -0.064771
H  -2.717560  -1.584101  -1.156951
H  -2.597944  -1.211709   0.681894
C  -0.237566  -0.608337   0.130158
H  -1.243493   0.846184   1.009139
H  -1.543262   0.666772  -0.892495
H  -0.336816  -2.002920   1.682536
H   0.639391   0.040368  -0.675038
H  -0.353880  -0.529721  -0.350745
