14
butane_opt
C  -3.952805   0.185725   0.013776
C  -2.747834  -0.552732   0.136561
H  -4.786688  -0.264434  -0.143974
H  -3.774235   0.854863  -1.036580
H  -4.228401   0.672791   0.760113
C  -1.429657   0.339968  -0.028702
H  -2.956199  -1.179672  -0.632786
H  -2.756595  -1.359510   1.073540
C  -0.053786  -0.787538  -0.001581
H  -1.226173   0.742294   0.689183
H  -1.488875   0.884970  -0.841264
H  -0.219101  -0.833906   0.493920
H   0.655290  -0.394197   0.841770
H   0.031501  -1.843933  -1.237675
