butane_opt
 OpenBabel08242015403D

 14 10  0  0  0  0  0  0  0  0999 V2000
   -4.0705    0.3068   -0.1187 C   0  0  0  0  0  0  0  0  0  0  0  0
   -2.6529   -0.6765    0.1112 C   0  0  0  0  0  0  0  0  0  0  0  0
   -4.8813   -0.1703    0.8018 H   0  0  0  0  0  0  0  0  0  0  0  0
   -4.4158    1.5838   -1.5113 H   0  0  0  0  0  0  0  0  0  0  0  0
   -3.8950    0.3345    0.2284 H   0  0  0  0  0  0  0  0  0  0  0  0
   -1.3223    0.1196    0.1860 C   0  0  0  0  0  0  0  0  0  0  0  0
   -2.6558   -1.4369   -0.7680 H   0  0  0  0  0  0  0  0  0  0  0  0
   -2.5834   -1.3191    1.1559 H   0  0  0  0  0  0  0  0  0  0  0  0
   -0.1718   -0.6183   -0.1117 C   0  0  0  0  0  0  0  0  0  0  0  0
   -1.1279    1.2101    1.3136 H   0  0  0  0  0  0  0  0  0  0  0  0
   -1.5595    0.5091   -0.4627 H   0  0  0  0  0  0  0  0  0  0  0  0
   -0.0014   -1.2833    0.7922 H   0  0  0  0  0  0  0  0  0  0  0  0
    0.7671    0.1358    0.1376 H   0  0  0  0  0  0  0  0  0  0  0  0
   -0.1014   -1.5847   -1.1227 H   0  0  0  0  0  0  0  0  0  0  0  0
  1  2  1  0  0  0  0
  1  3  1  0  0  0  0
  2  6  1  0  0  0  0
  2  8  1  0  0  0  0
  7  2  1  0  0  0  0
  9 13  1  0  0  0  0
  9  6  1  0  0  0  0
  9 12  1  0  0  0  0
 11  6  1  0  0  0  0
 14  9  1  0  0  0  0
M  RAD  5   1   3   4   2   5   2   6   2  10   2
M  END
$$$$
