butane_opt
 OpenBabel08242015403D

 14 13  0  0  0  0  0  0  0  0999 V2000
   -3.9956    0.3073   -0.1656 C   0  0  0  0  0  0  0  0  0  0  0  0
   -2.7336   -0.6602    0.2751 C   0  0  0  0  0  0  0  0  0  0  0  0
   -4.8315   -0.2853   -0.4396 H   0  0  0  0  0  0  0  0  0  0  0  0
   -3.5550    0.8857   -0.9800 H   0  0  0  0  0  0  0  0  0  0  0  0
   -4.5095    1.0396    0.7204 H   0  0  0  0  0  0  0  0  0  0  0  0
   -1.3597    0.1566    0.1711 C   0  0  0  0  0  0  0  0  0  0  0  0
   -2.7780   -1.2782   -0.6135 H   0  0  0  0  0  0  0  0  0  0  0  0
   -2.4939   -1.2579    1.0608 H   0  0  0  0  0  0  0  0  0  0  0  0
   -0.1214   -0.6675   -0.1256 C   0  0  0  0  0  0  0  0  0  0  0  0
   -1.2053    0.8948    1.0007 H   0  0  0  0  0  0  0  0  0  0  0  0
   -1.5439    0.6790   -0.4730 H   0  0  0  0  0  0  0  0  0  0  0  0
   -0.0728   -1.4016    0.8172 H   0  0  0  0  0  0  0  0  0  0  0  0
    1.0333    0.0645   -0.4273 H   0  0  0  0  0  0  0  0  0  0  0  0
   -0.5507   -1.4350   -1.0862 H   0  0  0  0  0  0  0  0  0  0  0  0
  1  2  1  0  0  0  0
  1  5  1  0  0  0  0
  2  8  1  0  0  0  0
  3  1  1  0  0  0  0
  4  1  1  0  0  0  0
  6  2  1  0  0  0  0
  6 10  1  0  0  0  0
  7  2  1  0  0  0  0
  9  6  1  0  0  0  0
  9 12  1  0  0  0  0
 11  6  1  0  0  0  0
 13  9  1  0  0  0  0
 14  9  1  0  0  0  0
M  END
$$$$
