14
butane_opt
C  -3.941382   0.310497  -0.158739
C  -2.624235  -0.641086   0.234936
H  -4.986060  -0.279979  -0.518937
H  -3.911997   1.077943  -1.071417
H  -4.296344   0.898523   0.586458
C  -1.418341   0.048489   0.217643
H  -2.452718  -1.359901  -0.463199
H  -2.926611  -1.281565   1.214544
C  -0.196813  -0.604878  -0.177036
H  -1.180385   1.161057   1.401188
H  -1.635295   0.474193  -0.466343
H   0.036432  -1.555921   1.003415
H   0.912939   0.064018  -0.637435
H  -0.451701  -1.019122  -1.009727
