butane_opt
 OpenBabel08242015403D

 14 11  0  0  0  0  0  0  0  0999 V2000
   -4.0254    0.2885    0.1549 C   0  0  0  0  0  0  0  0  0  0  0  0
   -2.7182   -0.6631   -0.0728 C   0  0  0  0  0  0  0  0  0  0  0  0
   -4.6979   -0.0438    0.0246 H   0  0  0  0  0  0  0  0  0  0  0  0
   -4.1743    0.4084   -0.3887 H   0  0  0  0  0  0  0  0  0  0  0  0
   -4.0092    1.3969    1.1892 H   0  0  0  0  0  0  0  0  0  0  0  0
   -1.3081    0.1605   -0.1605 C   0  0  0  0  0  0  0  0  0  0  0  0
   -2.7699   -1.4445   -1.0258 H   0  0  0  0  0  0  0  0  0  0  0  0
   -2.6876   -1.2704    0.8522 H   0  0  0  0  0  0  0  0  0  0  0  0
   -0.1822   -0.6484    0.1650 C   0  0  0  0  0  0  0  0  0  0  0  0
   -1.4867    0.5331    0.3284 H   0  0  0  0  0  0  0  0  0  0  0  0
   -1.0225    1.2800   -1.3821 H   0  0  0  0  0  0  0  0  0  0  0  0
   -0.3871   -1.2552    1.0429 H   0  0  0  0  0  0  0  0  0  0  0  0
    0.7045   -0.1918    0.5518 H   0  0  0  0  0  0  0  0  0  0  0  0
    0.2873   -1.5461   -0.7541 H   0  0  0  0  0  0  0  0  0  0  0  0
  1  5  1  0  0  0  0
  2  1  1  0  0  0  0
  2  8  1  0  0  0  0
  3  1  1  0  0  0  0
  6  2  1  0  0  0  0
  6  9  1  0  0  0  0
  6 10  1  0  0  0  0
  7  2  1  0  0  0  0
  9 13  1  0  0  0  0
  9 12  1  0  0  0  0
 14  9  1  0  0  0  0
M  RAD  4   1   2   4   2   6   2  11   2
M  END
$$$$
