14
butane_opt
C  -3.935452   0.382570  -0.106306
C  -2.699233  -0.684948   0.265196
H  -4.971256  -0.360625  -0.953923
H  -3.535991   0.538937  -0.766884
H  -4.451258   1.134626   0.759091
C  -1.344740   0.103414   0.101053
H  -2.666140  -1.336384  -0.539304
H  -2.569122  -1.340454   1.282572
C  -0.200761  -0.632881  -0.104025
H  -1.195630   0.683497   0.906887
H  -1.650436   0.617532  -0.673669
H  -0.011044  -1.165372   0.704587
H   0.668472   0.073858  -0.199958
H  -0.502096  -1.341936  -0.938464
