14
butane_opt
C  -3.897383   0.277993   0.034690
C  -2.711831  -0.617722  -0.041255
H  -4.916511  -0.378949  -0.055386
H  -3.903258   0.765755  -0.741145
H  -3.829438   1.230086   0.971498
C  -1.431365   0.113242   0.032917
H  -2.613350  -1.329346  -0.815208
H  -2.608100  -0.946183   0.652526
C  -0.168180  -0.673803   0.038784
H  -1.165751   0.943848   0.972409
H  -1.632239   0.666259  -0.687238
H  -0.083067  -1.987617   1.491379
H   0.838895   0.038191  -0.679959
H  -0.605525  -0.680113  -0.342632
