butane_opt
 OpenBabel08242015403D

 14 13  0  0  0  0  0  0  0  0999 V2000
   -3.9954    0.3284    0.2204 C   0  0  0  0  0  0  0  0  0  0  0  0
   -2.7036   -0.6337   -0.0871 C   0  0  0  0  0  0  0  0  0  0  0  0
   -5.0344   -0.2707    0.1885 H   0  0  0  0  0  0  0  0  0  0  0  0
   -4.0692    0.8977   -0.5317 H   0  0  0  0  0  0  0  0  0  0  0  0
   -4.1046    0.9602    0.9844 H   0  0  0  0  0  0  0  0  0  0  0  0
   -1.2950    0.1199   -0.2219 C   0  0  0  0  0  0  0  0  0  0  0  0
   -2.8684   -1.5163   -1.1265 H   0  0  0  0  0  0  0  0  0  0  0  0
   -2.4458   -1.2036    0.5528 H   0  0  0  0  0  0  0  0  0  0  0  0
   -0.1995   -0.6557    0.1786 C   0  0  0  0  0  0  0  0  0  0  0  0
   -1.5051    0.4523    0.3206 H   0  0  0  0  0  0  0  0  0  0  0  0
   -1.1780    0.8224   -1.1999 H   0  0  0  0  0  0  0  0  0  0  0  0
   -0.5301   -1.0966    1.0126 H   0  0  0  0  0  0  0  0  0  0  0  0
    0.7785   -0.0415    0.9467 H   0  0  0  0  0  0  0  0  0  0  0  0
    0.2415   -1.3828   -0.7739 H   0  0  0  0  0  0  0  0  0  0  0  0
  1  5  1  0  0  0  0
  2  1  1  0  0  0  0
  2  8  1  0  0  0  0
  3  1  1  0  0  0  0
  4  1  1  0  0  0  0
  6  2  1  0  0  0  0
  6  9  1  0  0  0  0
  6 10  1  0  0  0  0
  7  2  1  0  0  0  0
  9 13  1  0  0  0  0
  9 12  1  0  0  0  0
 11  6  1  0  0  0  0
 14  9  1  0  0  0  0
M  END
$$$$
