14
butane_opt
C  -3.938387   0.264675  -0.005704
C  -2.694732  -0.616337   0.054958
H  -4.840208  -0.345391   0.015337
H  -3.923120   0.885053  -0.921237
H  -3.970667   0.891370   0.809658
C  -1.411375   0.187369   0.050528
H  -2.735367  -1.263568  -0.775676
H  -2.712923  -1.246499   0.934764
C  -0.170092  -0.695009   0.008002
H  -1.364999   0.919073   0.918607
H  -1.425714   0.778500  -0.813147
H  -0.048887  -1.348925   0.917652
H   0.720661  -0.119769  -0.134448
H  -0.153509  -1.307509  -0.806061
