butane_opt
 OpenBabel08242015403D

 14 10  0  0  0  0  0  0  0  0999 V2000
   -3.9942    0.2871    0.1748 C   0  0  0  0  0  0  0  0  0  0  0  0
   -2.6736   -0.6354   -0.0736 C   0  0  0  0  0  0  0  0  0  0  0  0
   -4.7526   -0.1169   -0.6143 H   0  0  0  0  0  0  0  0  0  0  0  0
   -4.1147    0.1579   -0.3522 H   0  0  0  0  0  0  0  0  0  0  0  0
   -4.0893    1.5256    1.3984 H   0  0  0  0  0  0  0  0  0  0  0  0
   -1.3583    0.1495   -0.1485 C   0  0  0  0  0  0  0  0  0  0  0  0
   -2.8830   -1.3907   -1.0768 H   0  0  0  0  0  0  0  0  0  0  0  0
   -2.9011   -1.1290    0.8223 H   0  0  0  0  0  0  0  0  0  0  0  0
   -0.1640   -0.6729    0.1686 C   0  0  0  0  0  0  0  0  0  0  0  0
   -1.4089    0.4448    0.4805 H   0  0  0  0  0  0  0  0  0  0  0  0
   -1.3542    1.2464   -1.3297 H   0  0  0  0  0  0  0  0  0  0  0  0
   -0.1808   -1.6161    1.2301 H   0  0  0  0  0  0  0  0  0  0  0  0
    0.9400    0.0217   -0.0157 H   0  0  0  0  0  0  0  0  0  0  0  0
   -0.0350   -1.1301   -0.4659 H   0  0  0  0  0  0  0  0  0  0  0  0
  2  1  1  0  0  0  0
  2  8  1  0  0  0  0
  3  1  1  0  0  0  0
  6  2  1  0  0  0  0
  6  9  1  0  0  0  0
  6 10  1  0  0  0  0
  7  2  1  0  0  0  0
  9 12  1  0  0  0  0
 13  9  1  0  0  0  0
 14  9  1  0  0  0  0
M  RAD  5   1   3   4   2   5   2   6   2  11   2
M  END
$$$$
