butane_opt
 OpenBabel08242015403D

 14 10  0  0  0  0  0  0  0  0999 V2000
   -3.8514    0.1881   -0.1019 C   0  0  0  0  0  0  0  0  0  0  0  0
   -2.7294   -0.5003    0.1439 C   0  0  0  0  0  0  0  0  0  0  0  0
   -4.9017   -0.5663    0.6947 H   0  0  0  0  0  0  0  0  0  0  0  0
   -4.0373    1.3797   -1.5565 H   0  0  0  0  0  0  0  0  0  0  0  0
   -3.9663    0.1347    0.2280 H   0  0  0  0  0  0  0  0  0  0  0  0
   -1.4263    0.2274    0.2130 C   0  0  0  0  0  0  0  0  0  0  0  0
   -2.6691   -1.1386   -0.7260 H   0  0  0  0  0  0  0  0  0  0  0  0
   -2.8625   -0.9786    0.9388 H   0  0  0  0  0  0  0  0  0  0  0  0
   -0.1342   -0.7739   -0.1478 C   0  0  0  0  0  0  0  0  0  0  0  0
   -1.5976    1.1317    1.2894 H   0  0  0  0  0  0  0  0  0  0  0  0
   -1.6904    0.6973   -0.5204 H   0  0  0  0  0  0  0  0  0  0  0  0
   -0.1624   -1.1813    0.6141 H   0  0  0  0  0  0  0  0  0  0  0  0
    0.7160   -0.2289    0.1143 H   0  0  0  0  0  0  0  0  0  0  0  0
   -0.0887   -1.4431   -0.9878 H   0  0  0  0  0  0  0  0  0  0  0  0
  1  2  1  0  0  0  0
  1  3  1  0  0  0  0
  2  8  1  0  0  0  0
  6 10  1  0  0  0  0
  7  2  1  0  0  0  0
  9 13  1  0  0  0  0
  9  6  1  0  0  0  0
  9 12  1  0  0  0  0
 11  6  1  0  0  0  0
 14  9  1  0  0  0  0
M  RAD  5   1   3   2   2   4   2   5   2   6   2
M  END
$$$$
