14
butane_opt
C  -3.836383   0.237273   0.187443
C  -2.769170  -0.584128  -0.172422
H  -4.593781  -0.343633   0.791172
H  -3.966381   0.965646  -0.802690
H  -3.656544   0.601113   0.833741
C  -1.442515   0.251482  -0.146414
H  -2.823818  -1.213365  -1.159403
H  -2.572815  -1.142972   0.629513
C  -0.211197  -0.754461   0.169338
H  -1.713890   1.016968   0.681729
H  -1.234333   0.699560  -0.916240
H  -0.318525  -1.463111   1.100680
H   0.747478  -0.063092   0.353545
H   0.200843  -1.307307  -0.525424
