14
butane_opt
C  -3.962597   0.262371   0.050155
C  -2.704656  -0.678764   0.017169
H  -4.899817  -0.340339  -0.089337
H  -4.044845   0.866479  -1.033755
H  -4.013228   1.046202   1.006427
C  -1.404178   0.257360   0.010007
H  -2.999240  -1.358084  -0.913032
H  -2.830181  -1.039608   0.700238
C  -0.124797  -0.725180   0.037430
H  -1.580673   1.174606   0.893215
H  -1.279328   0.622296  -0.754266
H   0.272396  -1.774099   1.194293
H   0.828911  -0.134941  -0.463769
H  -0.133534  -0.898706  -0.442953
