14
butane_opt
C  -3.987600   0.306920  -0.125272
C  -2.686566  -0.742256   0.214654
H  -4.893942  -0.330934  -0.503330
H  -3.910195   0.805992  -0.864367
H  -4.232011   1.467591   0.986355
C  -1.404817   0.178031   0.087146
H  -2.250900  -1.104389  -0.422966
H  -2.839807  -1.589143   1.291748
C  -0.126616  -0.636268  -0.096484
H  -1.127207   0.938815   0.952362
H  -1.516655   0.637614  -0.686321
H   0.021741  -1.118968   0.796168
H   0.622561  -0.092207   0.025855
H  -0.408707  -1.400428  -1.037966
