butane_opt
 OpenBabel08242015403D

 14 10  0  0  0  0  0  0  0  0999 V2000
   -3.9506    0.2718   -0.1039 C   0  0  0  0  0  0  0  0  0  0  0  0
   -2.6286   -0.6813    0.0922 C   0  0  0  0  0  0  0  0  0  0  0  0
   -4.8129   -0.0393    0.7420 H   0  0  0  0  0  0  0  0  0  0  0  0
   -4.2041    1.6910   -1.5027 H   0  0  0  0  0  0  0  0  0  0  0  0
   -3.8702    0.3236    0.4266 H   0  0  0  0  0  0  0  0  0  0  0  0
   -1.3732    0.1245    0.1429 C   0  0  0  0  0  0  0  0  0  0  0  0
   -2.8068   -1.2748   -0.7110 H   0  0  0  0  0  0  0  0  0  0  0  0
   -2.4285   -1.3029    1.1420 H   0  0  0  0  0  0  0  0  0  0  0  0
   -0.2253   -0.6224   -0.0678 C   0  0  0  0  0  0  0  0  0  0  0  0
   -1.3669    1.2215    1.3138 H   0  0  0  0  0  0  0  0  0  0  0  0
   -1.5925    0.3545   -0.4778 H   0  0  0  0  0  0  0  0  0  0  0  0
   -0.2826   -0.9218    0.6387 H   0  0  0  0  0  0  0  0  0  0  0  0
    0.5790   -0.1302   -0.0179 H   0  0  0  0  0  0  0  0  0  0  0  0
   -0.1104   -1.4882   -1.0167 H   0  0  0  0  0  0  0  0  0  0  0  0
  1  2  1  0  0  0  0
  1  3  1  0  0  0  0
  2  6  1  0  0  0  0
  2  8  1  0  0  0  0
  7  2  1  0  0  0  0
  9 13  1  0  0  0  0
  9  6  1  0  0  0  0
  9 12  1  0  0  0  0
 11  6  1  0  0  0  0
 14  9  1  0  0  0  0
M  RAD  5   1   3   4   2   5   2   6   2  10   2
M  END
$$$$
