butane_opt
 OpenBabel08242015403D

 14 12  0  0  0  0  0  0  0  0999 V2000
   -4.0091    0.3068    0.0649 C   0  0  0  0  0  0  0  0  0  0  0  0
   -2.6774   -0.7169   -0.0595 C   0  0  0  0  0  0  0  0  0  0  0  0
   -4.8308   -0.1238    0.9417 H   0  0  0  0  0  0  0  0  0  0  0  0
   -4.3670    1.4614   -1.0714 H   0  0  0  0  0  0  0  0  0  0  0  0
   -3.8588    0.7367    0.8512 H   0  0  0  0  0  0  0  0  0  0  0  0
   -1.3886    0.1404   -0.0277 C   0  0  0  0  0  0  0  0  0  0  0  0
   -2.7273   -1.6846   -1.0947 H   0  0  0  0  0  0  0  0  0  0  0  0
   -2.4834   -0.9636    0.5247 H   0  0  0  0  0  0  0  0  0  0  0  0
   -0.1920   -0.6199    0.1122 C   0  0  0  0  0  0  0  0  0  0  0  0
   -1.0737    0.6509    0.5719 H   0  0  0  0  0  0  0  0  0  0  0  0
   -1.2007    0.7309   -0.9192 H   0  0  0  0  0  0  0  0  0  0  0  0
   -0.1469   -1.1813    0.9298 H   0  0  0  0  0  0  0  0  0  0  0  0
    0.6782    0.0284    0.2980 H   0  0  0  0  0  0  0  0  0  0  0  0
    0.1635   -1.4105   -0.6836 H   0  0  0  0  0  0  0  0  0  0  0  0
  1  5  1  0  0  0  0
  1  3  1  0  0  0  0
  2  6  1  0  0  0  0
  2  1  1  0  0  0  0
  2  8  1  0  0  0  0
  6  9  1  0  0  0  0
  6 10  1  0  0  0  0
  7  2  1  0  0  0  0
  9 13  1  0  0  0  0
  9 12  1  0  0  0  0
 11  6  1  0  0  0  0
 14  9  1  0  0  0  0
M  RAD  2   1   2   4   2
M  END
$$$$
