butane_opt
 OpenBabel08242015403D

 14 12  0  0  0  0  0  0  0  0999 V2000
   -3.9419    0.2134    0.1883 C   0  0  0  0  0  0  0  0  0  0  0  0
   -2.6749   -0.6076   -0.1808 C   0  0  0  0  0  0  0  0  0  0  0  0
   -4.7816   -0.4162    0.1011 H   0  0  0  0  0  0  0  0  0  0  0  0
   -4.2166    0.8361   -0.7103 H   0  0  0  0  0  0  0  0  0  0  0  0
   -3.7786    0.9314    1.1424 H   0  0  0  0  0  0  0  0  0  0  0  0
   -1.4469    0.3196   -0.0688 C   0  0  0  0  0  0  0  0  0  0  0  0
   -2.8535   -1.4993   -1.1349 H   0  0  0  0  0  0  0  0  0  0  0  0
   -2.8049   -1.0534    0.5080 H   0  0  0  0  0  0  0  0  0  0  0  0
   -0.1009   -0.7399    0.1911 C   0  0  0  0  0  0  0  0  0  0  0  0
   -1.7377    0.6726    0.4589 H   0  0  0  0  0  0  0  0  0  0  0  0
   -1.2358    0.9564   -1.0477 H   0  0  0  0  0  0  0  0  0  0  0  0
    0.0581   -1.7063    1.5168 H   0  0  0  0  0  0  0  0  0  0  0  0
    0.7576   -0.2830   -0.4152 H   0  0  0  0  0  0  0  0  0  0  0  0
   -0.4185   -1.1184   -0.5120 H   0  0  0  0  0  0  0  0  0  0  0  0
  1  5  1  0  0  0  0
  2  6  1  0  0  0  0
  2  1  1  0  0  0  0
  2  8  1  0  0  0  0
  3  1  1  0  0  0  0
  4  1  1  0  0  0  0
  6  9  1  0  0  0  0
  6 10  1  0  0  0  0
  7  2  1  0  0  0  0
 11  6  1  0  0  0  0
 13  9  1  0  0  0  0
 14  9  1  0  0  0  0
M  RAD  2   9   2  12   2
M  END
$$$$
