14
butane_opt
C  -3.978404   0.217212   0.078488
C  -2.737469  -0.585140  -0.045658
H  -4.862175  -0.353352   0.146727
H  -4.114612   0.637550  -0.670135
H  -3.913782   1.048693   1.039522
C  -1.414721   0.232964  -0.067577
H  -2.681933  -1.429315  -0.984733
H  -2.621349  -1.057057   0.651745
C  -0.114038  -0.773446   0.084926
H  -1.501224   1.231653   0.977632
H  -1.332382   0.926141  -0.895216
H   0.058569  -1.862234   1.303045
H   0.916766  -0.037212  -0.172305
H  -0.027253  -0.689439  -0.470190
