14
butane_opt
C  -3.897769   0.212601  -0.161790
C  -2.709844  -0.568119   0.315691
H  -4.867050  -0.295451  -0.744942
H  -3.325277   0.787691  -1.109040
H  -4.279729   1.030564   0.719183
C  -1.413112   0.199247   0.143897
H  -2.679188  -1.191382  -0.363318
H  -2.714830  -1.260670   1.306632
C  -0.198412  -0.699979  -0.127232
H  -1.144066   0.938201   1.058379
H  -1.705207   0.791669  -0.587019
H   0.118215  -0.976466   0.467883
H   0.473181  -0.344673  -0.280021
H  -0.250792  -1.714140  -1.116820
