14
butane_opt
C  -3.942691   0.302902  -0.077190
C  -2.626057  -0.616072   0.037650
H  -4.852411  -0.370025  -0.146666
H  -3.881753   0.999721  -0.863661
H  -4.021624   1.004246   0.841968
C  -1.389852   0.108910   0.175280
H  -2.685588  -1.045183  -0.743252
H  -2.869581  -1.426528   1.020655
C  -0.241631  -0.664721  -0.045569
H  -1.327964   0.830503   1.159901
H  -1.500070   0.375158  -0.512374
H   0.387426  -1.698310   0.989233
H   0.967518   0.118473  -0.780311
H  -0.872336  -0.749982  -0.536904
