14
butane_opt
C  -3.927594   0.330362   0.231046
C  -2.694115  -0.655878  -0.238112
H  -4.810193  -0.167403   0.614001
H  -4.590151   1.124539  -0.678580
H  -3.588941   0.773974   1.069548
C  -1.411217   0.082054  -0.144017
H  -2.495948  -1.764873  -1.249762
H  -2.577000  -1.193642   0.598513
C  -0.175577  -0.650492   0.228203
H  -1.661306   0.511882   0.400298
H  -1.200726   1.032622  -1.260361
H  -0.457550  -1.168556   1.180388
H   0.939108   0.254030   0.397191
H  -0.106528  -1.098926  -0.567300
