14
butane_opt
C  -4.024653   0.277833  -0.105042
C  -2.700427  -0.653664   0.221069
H  -4.775641  -0.113864  -0.903721
H  -3.751832   0.655708  -0.873070
H  -4.627899   1.410954   0.867005
C  -1.372725   0.127106   0.152669
H  -2.475736  -1.087904  -0.359952
H  -2.754788  -1.705675   1.287857
C  -0.142496  -0.648729  -0.096983
H  -1.249598   0.841273   0.953671
H  -1.516580   0.853978  -0.864884
H   0.326566  -1.199662   0.694640
H   1.106981   0.227063  -0.242760
H  -0.478001  -1.540750  -1.137647
