14
butane_opt
C  -4.018735   0.271479   0.124855
C  -2.715254  -0.638880  -0.022273
H  -4.876017  -0.156467   0.119038
H  -4.049222   0.970567  -0.731864
H  -3.902518   1.267383   1.160761
C  -1.364736   0.117787  -0.153545
H  -3.182029  -1.401335  -0.966075
H  -2.716998  -1.262424   0.710992
C  -0.087603  -0.655913   0.104660
H  -1.330048   0.640780   0.628383
H  -1.408712   1.054981  -1.244401
H  -0.470904  -1.124567   1.020192
H   0.832820  -0.024672   0.847129
H   0.268440  -1.555380  -0.741668
