14
butane_opt
C  -3.968544   0.295325  -0.127594
C  -2.659199  -0.598403   0.147380
H  -4.826427  -0.333918   0.091218
H  -3.821587   1.244737  -1.163362
H  -4.104872   0.544903   0.392209
C  -1.435534   0.077065   0.230327
H  -2.409257  -1.457770  -0.744917
H  -2.677740  -1.203398   1.212146
C  -0.206474  -0.631881  -0.077078
H  -1.260066   0.911662   1.246159
H  -1.384934   0.670878  -0.674103
H   0.277842  -1.207395   0.630180
H   0.906176   0.051407  -0.669173
H  -0.529167  -1.350824  -1.007206
