butane_opt
 OpenBabel08242015403D

 14 13  0  0  0  0  0  0  0  0999 V2000
   -3.9542    0.2079   -0.0652 C   0  0  0  0  0  0  0  0  0  0  0  0
   -2.7492   -0.5232    0.1726 C   0  0  0  0  0  0  0  0  0  0  0  0
   -4.8890   -0.4656   -0.0911 H   0  0  0  0  0  0  0  0  0  0  0  0
   -4.2124    0.8719   -1.1446 H   0  0  0  0  0  0  0  0  0  0  0  0
   -3.9707    0.7714    0.7305 H   0  0  0  0  0  0  0  0  0  0  0  0
   -1.4397    0.2368    0.0410 C   0  0  0  0  0  0  0  0  0  0  0  0
   -2.8132   -1.1343   -0.5583 H   0  0  0  0  0  0  0  0  0  0  0  0
   -2.7597   -1.4500    1.1232 H   0  0  0  0  0  0  0  0  0  0  0  0
   -0.0563   -0.7433   -0.0575 C   0  0  0  0  0  0  0  0  0  0  0  0
   -1.1326    1.1758    1.0508 H   0  0  0  0  0  0  0  0  0  0  0  0
   -1.5925    0.6705   -0.7983 H   0  0  0  0  0  0  0  0  0  0  0  0
   -0.2406   -1.1190    0.7598 H   0  0  0  0  0  0  0  0  0  0  0  0
    0.8463   -0.1641    0.3631 H   0  0  0  0  0  0  0  0  0  0  0  0
    0.1674   -1.7760   -1.1377 H   0  0  0  0  0  0  0  0  0  0  0  0
  1  2  1  0  0  0  0
  1  5  1  0  0  0  0
  2  8  1  0  0  0  0
  3  1  1  0  0  0  0
  4  1  1  0  0  0  0
  6  2  1  0  0  0  0
  6 10  1  0  0  0  0
  7  2  1  0  0  0  0
  9  6  1  0  0  0  0
  9 13  1  0  0  0  0
  9 12  1  0  0  0  0
 11  6  1  0  0  0  0
 14  9  1  0  0  0  0
M  END
$$$$
