14
butane_opt
C  -3.947984   0.259212   0.032976
C  -2.709581  -0.608470   0.012750
H  -4.872851  -0.328700   0.125914
H  -4.004263   0.976696  -0.928664
H  -3.867899   0.841643   0.838666
C  -1.404348   0.194378   0.015338
H  -2.751436  -1.319253  -0.860138
H  -2.713873  -1.235647   0.922267
C  -0.156671  -0.698820   0.047385
H  -1.376984   0.836850   0.819486
H  -1.356177   0.842767  -0.888928
H  -0.088769  -1.296687   0.920152
H   0.746905  -0.136397   0.040522
H  -0.116873  -1.407686  -0.866083
