butane_opt
 OpenBabel08242015403D

 14 11  0  0  0  0  0  0  0  0999 V2000
   -3.8788    0.3059   -0.0833 C   0  0  0  0  0  0  0  0  0  0  0  0
   -2.6747   -0.6657    0.1253 C   0  0  0  0  0  0  0  0  0  0  0  0
   -4.7389   -0.2387    0.6619 H   0  0  0  0  0  0  0  0  0  0  0  0
   -4.1644    1.4141   -1.1759 H   0  0  0  0  0  0  0  0  0  0  0  0
   -4.1832    0.4777    0.4529 H   0  0  0  0  0  0  0  0  0  0  0  0
   -1.3525    0.1232    0.1221 C   0  0  0  0  0  0  0  0  0  0  0  0
   -2.5486   -1.2522   -0.6004 H   0  0  0  0  0  0  0  0  0  0  0  0
   -2.6895   -1.1976    0.7913 H   0  0  0  0  0  0  0  0  0  0  0  0
   -0.2647   -0.6436   -0.0966 C   0  0  0  0  0  0  0  0  0  0  0  0
   -1.2913    0.9065    1.1134 H   0  0  0  0  0  0  0  0  0  0  0  0
   -1.4869    0.6826   -0.7114 H   0  0  0  0  0  0  0  0  0  0  0  0
   -0.5426   -1.0218    0.6253 H   0  0  0  0  0  0  0  0  0  0  0  0
    0.7499   -0.0331    0.4117 H   0  0  0  0  0  0  0  0  0  0  0  0
   -0.0768   -1.6281   -0.9889 H   0  0  0  0  0  0  0  0  0  0  0  0
  1  2  1  0  0  0  0
  1  5  1  0  0  0  0
  1  3  1  0  0  0  0
  2  8  1  0  0  0  0
  6 10  1  0  0  0  0
  7  2  1  0  0  0  0
  9  6  1  0  0  0  0
  9 13  1  0  0  0  0
  9 12  1  0  0  0  0
 11  6  1  0  0  0  0
 14  9  1  0  0  0  0
M  RAD  4   1   2   2   2   4   2   6   2
M  END
$$$$
