butane_opt
 OpenBabel08242015403D

 14 12  0  0  0  0  0  0  0  0999 V2000
   -3.9441    0.3367    0.1100 C   0  0  0  0  0  0  0  0  0  0  0  0
   -2.6672   -0.6638   -0.0315 C   0  0  0  0  0  0  0  0  0  0  0  0
   -4.9110   -0.3075    0.0014 H   0  0  0  0  0  0  0  0  0  0  0  0
   -4.0660    0.5192   -0.5164 H   0  0  0  0  0  0  0  0  0  0  0  0
   -3.7804    1.4744    1.3005 H   0  0  0  0  0  0  0  0  0  0  0  0
   -1.4098    0.1072   -0.1868 C   0  0  0  0  0  0  0  0  0  0  0  0
   -2.7532   -1.3697   -0.9202 H   0  0  0  0  0  0  0  0  0  0  0  0
   -2.4536   -1.5057    0.9157 H   0  0  0  0  0  0  0  0  0  0  0  0
   -0.1753   -0.6488    0.1800 C   0  0  0  0  0  0  0  0  0  0  0  0
   -1.3759    0.5816    0.5542 H   0  0  0  0  0  0  0  0  0  0  0  0
   -1.1862    0.8809   -1.3318 H   0  0  0  0  0  0  0  0  0  0  0  0
   -0.7722   -0.8775    0.9282 H   0  0  0  0  0  0  0  0  0  0  0  0
    0.6772    0.0566    0.4195 H   0  0  0  0  0  0  0  0  0  0  0  0
   -0.0421   -1.5025   -0.7747 H   0  0  0  0  0  0  0  0  0  0  0  0
  2  1  1  0  0  0  0
  2  8  1  0  0  0  0
  3  1  1  0  0  0  0
  4  1  1  0  0  0  0
  6  2  1  0  0  0  0
  6  9  1  0  0  0  0
  6 10  1  0  0  0  0
  7  2  1  0  0  0  0
  9 13  1  0  0  0  0
  9 12  1  0  0  0  0
 11  6  1  0  0  0  0
 14  9  1  0  0  0  0
M  RAD  2   1   2   5   2
M  END
$$$$
