14
butane_opt
C  -3.944132   0.336661   0.109973
C  -2.667242  -0.663764  -0.031513
H  -4.911014  -0.307456   0.001406
H  -4.066039   0.519172  -0.516372
H  -3.780379   1.474434   1.300454
C  -1.409750   0.107180  -0.186821
H  -2.753155  -1.369689  -0.920167
H  -2.453604  -1.505736   0.915725
C  -0.175289  -0.648765   0.179986
H  -1.375940   0.581560   0.554192
H  -1.186248   0.880890  -1.331780
H  -0.772187  -0.877505   0.928155
H   0.677168   0.056576   0.419542
H  -0.042126  -1.502490  -0.774720
