14
butane_opt
C  -3.978086   0.308954  -0.153669
C  -2.765902  -0.692358   0.111899
H  -4.651472  -0.057623   0.707058
H  -4.462423   1.541889  -1.460158
H  -3.769467   0.420955   0.519808
C  -1.355789   0.163958   0.188034
H  -2.490859  -1.300590  -0.505029
H  -2.966786  -1.455366   1.176774
C  -0.141041  -0.674556  -0.103680
H  -1.080406   1.140370   1.281828
H  -1.529627   0.451400  -0.461122
H   0.175588  -0.979652   0.553342
H   0.820133  -0.042530   0.120601
H  -0.222143  -1.383450  -1.052519
