14
butane_opt
C  -3.974785   0.311726  -0.154235
C  -2.691699  -0.640362   0.207035
H  -4.834094  -0.233956  -0.052635
H  -3.665471   1.205435  -1.332349
H  -4.087455   0.590972   0.497374
C  -1.320956   0.107454   0.253775
H  -2.563247  -1.248707  -0.680069
H  -2.718134  -1.114695   0.884932
C  -0.232009  -0.655068  -0.095175
H  -1.195115   0.966409   1.314046
H  -1.665401   0.515787  -0.571205
H   0.241303  -1.339947   0.673557
H   0.766666  -0.084380  -0.851357
H  -0.712700  -1.162812  -0.985820
