butane_opt
 OpenBabel08242015403D

 14 12  0  0  0  0  0  0  0  0999 V2000
   -3.8870    0.2701   -0.1838 C   0  0  0  0  0  0  0  0  0  0  0  0
   -2.6584   -0.6551    0.1895 C   0  0  0  0  0  0  0  0  0  0  0  0
   -4.6607   -0.1199   -0.1509 H   0  0  0  0  0  0  0  0  0  0  0  0
   -3.9079    1.1347   -1.2127 H   0  0  0  0  0  0  0  0  0  0  0  0
   -4.2068    1.0499    0.6763 H   0  0  0  0  0  0  0  0  0  0  0  0
   -1.4630    0.1233    0.2720 C   0  0  0  0  0  0  0  0  0  0  0  0
   -2.5285   -1.3851   -0.6730 H   0  0  0  0  0  0  0  0  0  0  0  0
   -2.7039   -1.5326    1.2476 H   0  0  0  0  0  0  0  0  0  0  0  0
   -0.1864   -0.6013   -0.1836 C   0  0  0  0  0  0  0  0  0  0  0  0
   -1.0750    1.0422    1.3277 H   0  0  0  0  0  0  0  0  0  0  0  0
   -1.6955    0.4766   -0.3293 H   0  0  0  0  0  0  0  0  0  0  0  0
    0.0650   -1.8219    0.9120 H   0  0  0  0  0  0  0  0  0  0  0  0
    0.7163   -0.0319   -0.5816 H   0  0  0  0  0  0  0  0  0  0  0  0
   -0.6915   -0.8750   -0.8390 H   0  0  0  0  0  0  0  0  0  0  0  0
  1  3  1  0  0  0  0
  1  2  1  0  0  0  0
  1  5  1  0  0  0  0
  2  6  1  0  0  0  0
  2  8  1  0  0  0  0
  4  1  1  0  0  0  0
  6 10  1  0  0  0  0
  7  2  1  0  0  0  0
  9  6  1  0  0  0  0
 11  6  1  0  0  0  0
 13  9  1  0  0  0  0
 14  9  1  0  0  0  0
M  RAD  2   9   2  12   2
M  END
$$$$
