butane_opt
 OpenBabel08242015403D

 14  8  0  0  0  0  0  0  0  0999 V2000
   -3.9443    0.2998   -0.0925 C   0  0  0  0  0  0  0  0  0  0  0  0
   -2.6935   -0.6893    0.2134 C   0  0  0  0  0  0  0  0  0  0  0  0
   -4.9474   -0.2245    0.1756 H   0  0  0  0  0  0  0  0  0  0  0  0
   -3.9484    1.2458   -1.2871 H   0  0  0  0  0  0  0  0  0  0  0  0
   -4.0998    0.6437    0.4733 H   0  0  0  0  0  0  0  0  0  0  0  0
   -1.4319    0.2217    0.0243 C   0  0  0  0  0  0  0  0  0  0  0  0
   -2.6822   -1.1800   -0.5505 H   0  0  0  0  0  0  0  0  0  0  0  0
   -2.6052   -1.7986    1.4029 H   0  0  0  0  0  0  0  0  0  0  0  0
   -0.1595   -0.6744   -0.0592 C   0  0  0  0  0  1  0  0  0  0  0  0
   -1.1165    1.0799    1.2275 H   0  0  0  0  0  0  0  0  0  0  0  0
   -1.4421    0.5245   -0.6752 H   0  0  0  0  0  0  0  0  0  0  0  0
   -0.3943   -0.4225    0.2942 H   0  0  0  0  0  0  0  0  0  0  0  0
    0.6960   -0.1169    0.5796 H   0  0  0  0  0  0  0  0  0  0  0  0
    0.2579   -2.1106   -1.3740 H   0  0  0  0  0  0  0  0  0  0  0  0
  1  3  1  0  0  0  0
  1  2  1  0  0  0  0
  1  5  1  0  0  0  0
  6 12  1  0  0  0  0
  6 10  1  0  0  0  0
  7  2  1  0  0  0  0
  9 13  1  0  0  0  0
 11  6  1  0  0  0  0
M  RAD  6   1   2   2   3   4   2   6   2   8   2  14   2
M  END
$$$$
