14
butane_opt
C  -3.942781   0.250828   0.030896
C  -2.704454  -0.605836   0.033871
H  -4.819254  -0.337893  -0.097070
H  -3.946714   0.747602  -0.791005
H  -3.956924   1.027106   0.953136
C  -1.404510   0.201948  -0.006493
H  -2.729857  -1.271857  -0.807010
H  -2.788652  -1.182448   0.893924
C  -0.155453  -0.708230   0.047443
H  -1.395969   0.829518   0.832998
H  -1.393473   0.889445  -0.938276
H  -0.084931  -1.378949   0.970227
H   0.724508  -0.146347  -0.047228
H  -0.144152  -1.317812  -0.780441
