butane_opt
 OpenBabel08242015403D

 14 10  0  0  0  0  0  0  0  0999 V2000
   -3.9897    0.2132    0.1537 C   0  0  0  0  0  0  0  0  0  0  0  0
   -2.6859   -0.5537   -0.1688 C   0  0  0  0  0  0  0  0  0  0  0  0
   -5.0107   -0.4100    0.3139 H   0  0  0  0  0  0  0  0  0  0  0  0
   -4.0092    0.6481   -0.5809 H   0  0  0  0  0  0  0  0  0  0  0  0
   -3.5619    0.9654    1.0906 H   0  0  0  0  0  0  0  0  0  0  0  0
   -1.4327    0.2050   -0.1031 C   0  0  0  0  0  0  0  0  0  0  0  0
   -2.8884   -1.4079   -1.0677 H   0  0  0  0  0  0  0  0  0  0  0  0
   -2.6573   -0.7789    0.3550 H   0  0  0  0  0  0  0  0  0  0  0  0
   -0.1174   -0.7308    0.2058 C   0  0  0  0  0  0  0  0  0  0  0  0
   -1.4059    0.7383    0.6991 H   0  0  0  0  0  0  0  0  0  0  0  0
   -1.4752    1.0556   -1.0455 H   0  0  0  0  0  0  0  0  0  0  0  0
    0.2214   -1.7708    1.3312 H   0  0  0  0  0  0  0  0  0  0  0  0
    0.6686   -0.2129   -0.3644 H   0  0  0  0  0  0  0  0  0  0  0  0
   -0.2068   -0.9155   -0.2645 H   0  0  0  0  0  0  0  0  0  0  0  0
  1  3  1  0  0  0  0
  1  5  1  0  0  0  0
  2  6  1  0  0  0  0
  2  1  1  0  0  0  0
  4  1  1  0  0  0  0
  6  9  1  0  0  0  0
  6 10  1  0  0  0  0
  7  2  1  0  0  0  0
 11  6  1  0  0  0  0
 13  9  1  0  0  0  0
M  RAD  5   2   2   8   2   9   3  12   2  14   2
M  END
$$$$
