14
butane_opt
C  -3.972260   0.271573   0.104331
C  -2.660876  -0.632275   0.025385
H  -4.652134  -0.065699   0.041853
H  -3.887859   1.019035  -0.775748
H  -3.975142   0.824883   0.944333
C  -1.449075   0.131144  -0.125699
H  -2.824262  -1.243182  -0.862374
H  -2.395792  -1.272255   0.835132
C  -0.175468  -0.629359   0.079801
H  -1.432175   0.485206   0.620187
H  -1.253961   0.787435  -1.145893
H  -0.547123  -0.915590   0.726023
H   0.904030   0.115356   0.957865
H   0.071541  -1.845284  -0.964137
