butane_opt
 OpenBabel08242015403D

 14 13  0  0  0  0  0  0  0  0999 V2000
   -3.8732    0.2295   -0.0698 C   0  0  0  0  0  0  0  0  0  0  0  0
   -2.6587   -0.5768    0.1835 C   0  0  0  0  0  0  0  0  0  0  0  0
   -4.8541   -0.4122   -0.6680 H   0  0  0  0  0  0  0  0  0  0  0  0
   -3.5319    0.4888   -0.6974 H   0  0  0  0  0  0  0  0  0  0  0  0
   -4.3520    1.1225    1.0265 H   0  0  0  0  0  0  0  0  0  0  0  0
   -1.4066    0.1995    0.0698 C   0  0  0  0  0  0  0  0  0  0  0  0
   -2.4525   -1.0361   -0.4011 H   0  0  0  0  0  0  0  0  0  0  0  0
   -2.9072   -1.2907    1.0303 H   0  0  0  0  0  0  0  0  0  0  0  0
   -0.2302   -0.7029   -0.0882 C   0  0  0  0  0  0  0  0  0  0  0  0
   -1.3306    0.9585    0.9868 H   0  0  0  0  0  0  0  0  0  0  0  0
   -1.8208    0.8513   -0.8083 H   0  0  0  0  0  0  0  0  0  0  0  0
   -0.2430   -1.4168    0.8458 H   0  0  0  0  0  0  0  0  0  0  0  0
    0.5917   -0.2178   -0.1161 H   0  0  0  0  0  0  0  0  0  0  0  0
   -0.0801   -1.3446   -0.8407 H   0  0  0  0  0  0  0  0  0  0  0  0
  1  2  1  0  0  0  0
  1  5  1  0  0  0  0
  2  8  1  0  0  0  0
  3  1  1  0  0  0  0
  4  1  1  0  0  0  0
  6  2  1  0  0  0  0
  6 10  1  0  0  0  0
  7  2  1  0  0  0  0
  9  6  1  0  0  0  0
  9 12  1  0  0  0  0
 11  6  1  0  0  0  0
 13  9  1  0  0  0  0
 14  9  1  0  0  0  0
M  END
$$$$
