butane_opt
 OpenBabel08242015403D

 14 11  0  0  0  0  0  0  0  0999 V2000
   -3.9900    0.2565    0.1968 C   0  0  0  0  0  0  0  0  0  0  0  0
   -2.6603   -0.6286   -0.0600 C   0  0  0  0  0  0  0  0  0  0  0  0
   -5.1061   -0.6389   -0.4007 H   0  0  0  0  0  0  0  0  0  0  0  0
   -3.8653    0.2612   -0.4280 H   0  0  0  0  0  0  0  0  0  0  0  0
   -4.1367    1.4692    1.3401 H   0  0  0  0  0  0  0  0  0  0  0  0
   -1.4019    0.2601   -0.2649 C   0  0  0  0  0  0  0  0  0  0  0  0
   -2.9242   -1.1751   -0.8961 H   0  0  0  0  0  0  0  0  0  0  0  0
   -2.6139   -1.1098    0.8574 H   0  0  0  0  0  0  0  0  0  0  0  0
   -0.1286   -0.7267    0.1661 C   0  0  0  0  0  0  0  0  0  0  0  0
   -1.6126    0.9248    0.5377 H   0  0  0  0  0  0  0  0  0  0  0  0
   -1.2127    0.8262   -1.1287 H   0  0  0  0  0  0  0  0  0  0  0  0
   -0.2290   -1.5869    1.2101 H   0  0  0  0  0  0  0  0  0  0  0  0
    0.6842   -0.1729    0.4500 H   0  0  0  0  0  0  0  0  0  0  0  0
    0.2078   -1.2701   -0.4873 H   0  0  0  0  0  0  0  0  0  0  0  0
  2  1  1  0  0  0  0
  2  8  1  0  0  0  0
  4  1  1  0  0  0  0
  6  2  1  0  0  0  0
  6  9  1  0  0  0  0
  6 10  1  0  0  0  0
  7  2  1  0  0  0  0
  9 13  1  0  0  0  0
  9 12  1  0  0  0  0
 11  6  1  0  0  0  0
 14  9  1  0  0  0  0
M  RAD  3   1   3   3   2   5   2
M  END
$$$$
