14
butane_opt
C  -3.958527   0.342600  -0.142686
C  -2.714576  -0.766053   0.236996
H  -4.798069  -0.265367   0.235552
H  -4.227063   1.392584  -1.414754
H  -4.181265   0.683358   0.474542
C  -1.355525   0.173552   0.157547
H  -2.774033  -1.186453  -0.481017
H  -2.647675  -1.430843   1.143758
C  -0.158532  -0.656718  -0.090290
H  -1.318983   0.927532   0.882210
H  -1.372721   0.821158  -0.747601
H  -0.089301  -0.436146   0.306217
H   0.834765  -0.094510   0.444940
H  -0.200957  -2.011004  -1.465578
