14
butane_opt
C  -3.876003   0.232142   0.136620
C  -2.749825  -0.534292  -0.115963
H  -4.822672  -0.501382  -0.103121
H  -4.015653   0.464490  -0.306388
H  -3.585020   1.121079   1.174623
C  -1.470868   0.213985  -0.076320
H  -2.766990  -1.654325  -1.354176
H  -2.441509  -0.993440   0.556979
C  -0.116635  -0.730972   0.189661
H  -1.694670   0.680236   0.659580
H  -1.378762   1.130064  -1.297871
H  -0.018663  -1.964677   1.503625
H   0.739309  -0.086049  -0.518669
H  -0.472930  -0.844053  -0.407308
