butane_opt
 OpenBabel08242015403D

 14 13  0  0  0  0  0  0  0  0999 V2000
   -3.9265    0.3144    0.2221 C   0  0  0  0  0  0  0  0  0  0  0  0
   -2.7042   -0.5889   -0.0933 C   0  0  0  0  0  0  0  0  0  0  0  0
   -4.8954   -0.2598   -0.0363 H   0  0  0  0  0  0  0  0  0  0  0  0
   -3.8140    0.5773   -0.5040 H   0  0  0  0  0  0  0  0  0  0  0  0
   -3.9570    1.1104    1.2322 H   0  0  0  0  0  0  0  0  0  0  0  0
   -1.3857    0.0920   -0.2640 C   0  0  0  0  0  0  0  0  0  0  0  0
   -2.7357   -1.4993   -1.1228 H   0  0  0  0  0  0  0  0  0  0  0  0
   -2.4360   -1.2200    0.7323 H   0  0  0  0  0  0  0  0  0  0  0  0
   -0.2482   -0.6512    0.2111 C   0  0  0  0  0  0  0  0  0  0  0  0
   -1.5007    0.7171    0.3460 H   0  0  0  0  0  0  0  0  0  0  0  0
   -1.1394    0.6471   -1.1702 H   0  0  0  0  0  0  0  0  0  0  0  0
   -0.3376   -1.2711    1.0384 H   0  0  0  0  0  0  0  0  0  0  0  0
    0.8116   -0.0228    0.6008 H   0  0  0  0  0  0  0  0  0  0  0  0
    0.1199   -1.2144   -0.5336 H   0  0  0  0  0  0  0  0  0  0  0  0
  1  5  1  0  0  0  0
  2  1  1  0  0  0  0
  2  8  1  0  0  0  0
  3  1  1  0  0  0  0
  4  1  1  0  0  0  0
  6  2  1  0  0  0  0
  6  9  1  0  0  0  0
  6 10  1  0  0  0  0
  7  2  1  0  0  0  0
  9 13  1  0  0  0  0
  9 12  1  0  0  0  0
 11  6  1  0  0  0  0
 14  9  1  0  0  0  0
M  END
$$$$
