butane_opt
 OpenBabel08242015403D

 14 13  0  0  0  0  0  0  0  0999 V2000
   -3.9400    0.2231   -0.0107 C   0  0  0  0  0  0  0  0  0  0  0  0
   -2.7425   -0.5598    0.1055 C   0  0  0  0  0  0  0  0  0  0  0  0
   -4.9725   -0.4551    0.1421 H   0  0  0  0  0  0  0  0  0  0  0  0
   -4.0197    1.0395   -0.8975 H   0  0  0  0  0  0  0  0  0  0  0  0
   -4.1328    0.6404    0.6192 H   0  0  0  0  0  0  0  0  0  0  0  0
   -1.3964    0.2442    0.0391 C   0  0  0  0  0  0  0  0  0  0  0  0
   -2.9626   -1.2479   -0.8994 H   0  0  0  0  0  0  0  0  0  0  0  0
   -2.7780   -1.1183    0.9554 H   0  0  0  0  0  0  0  0  0  0  0  0
   -0.1000   -0.7385   -0.0346 C   0  0  0  0  0  0  0  0  0  0  0  0
   -1.2014    0.7972    0.8592 H   0  0  0  0  0  0  0  0  0  0  0  0
   -1.5186    1.0480   -0.8977 H   0  0  0  0  0  0  0  0  0  0  0  0
   -0.1731   -1.2983    0.8335 H   0  0  0  0  0  0  0  0  0  0  0  0
    0.8281   -0.1652    0.5809 H   0  0  0  0  0  0  0  0  0  0  0  0
    0.0893   -1.7910   -1.0672 H   0  0  0  0  0  0  0  0  0  0  0  0
  1  2  1  0  0  0  0
  1  3  1  0  0  0  0
  1  5  1  0  0  0  0
  2  8  1  0  0  0  0
  4  1  1  0  0  0  0
  6  2  1  0  0  0  0
  6 10  1  0  0  0  0
  7  2  1  0  0  0  0
  9  6  1  0  0  0  0
  9 13  1  0  0  0  0
  9 12  1  0  0  0  0
 11  6  1  0  0  0  0
 14  9  1  0  0  0  0
M  END
$$$$
