butane_opt
 OpenBabel08242015403D

 14 11  0  0  0  0  0  0  0  0999 V2000
   -3.9454    0.2325    0.1080 C   0  0  0  0  0  0  0  0  0  0  0  0
   -2.7501   -0.6250   -0.0603 C   0  0  0  0  0  0  0  0  0  0  0  0
   -4.9927   -0.3310   -0.0511 H   0  0  0  0  0  0  0  0  0  0  0  0
   -3.5408    0.5669   -0.7003 H   0  0  0  0  0  0  0  0  0  0  0  0
   -3.9774    1.2071    1.1130 H   0  0  0  0  0  0  0  0  0  0  0  0
   -1.3781    0.2826   -0.0237 C   0  0  0  0  0  0  0  0  0  0  0  0
   -3.0574   -1.4523   -1.1125 H   0  0  0  0  0  0  0  0  0  0  0  0
   -2.5747   -0.9647    0.4651 H   0  0  0  0  0  0  0  0  0  0  0  0
   -0.1529   -0.7370    0.1011 C   0  0  0  0  0  0  0  0  0  0  0  0
   -1.5339    0.9126    0.8207 H   0  0  0  0  0  0  0  0  0  0  0  0
   -1.3641    0.9737   -1.0377 H   0  0  0  0  0  0  0  0  0  0  0  0
    0.2457   -2.0607    1.5021 H   0  0  0  0  0  0  0  0  0  0  0  0
    0.5811   -0.3490   -0.5672 H   0  0  0  0  0  0  0  0  0  0  0  0
   -0.1159   -0.8255   -0.3896 H   0  0  0  0  0  0  0  0  0  0  0  0
  1  5  1  0  0  0  0
  2  6  1  0  0  0  0
  2  1  1  0  0  0  0
  2  8  1  0  0  0  0
  3  1  1  0  0  0  0
  4  1  1  0  0  0  0
  6  9  1  0  0  0  0
  6 10  1  0  0  0  0
  7  2  1  0  0  0  0
 11  6  1  0  0  0  0
 13  9  1  0  0  0  0
M  RAD  3   9   3  12   2  14   2
M  END
$$$$
