14
butane_opt
C  -3.912917   0.183956  -0.075480
C  -2.660417  -0.558106   0.088532
H  -4.698754  -0.410666   0.458656
H  -4.133915   1.400996  -1.270402
H  -3.814685   0.352515   0.471368
C  -1.446631   0.234603   0.134691
H  -2.744866  -1.163455  -0.614704
H  -3.029724  -1.039951   1.011494
C  -0.159579  -0.757143  -0.012618
H  -1.559267   1.074871   0.988698
H  -1.515002   0.762979  -0.591234
H   0.192483  -0.900329   0.453821
H   0.668792  -0.196446  -0.167381
H  -0.204289  -1.597010  -1.023911
