butane_opt
 OpenBabel08242015403D

 14 11  0  0  0  0  0  0  0  0999 V2000
   -3.8974    0.2780    0.0347 C   0  0  0  0  0  0  0  0  0  0  0  0
   -2.7118   -0.6177   -0.0413 C   0  0  0  0  0  0  0  0  0  0  0  0
   -4.9165   -0.3789   -0.0554 H   0  0  0  0  0  0  0  0  0  0  0  0
   -3.9033    0.7658   -0.7411 H   0  0  0  0  0  0  0  0  0  0  0  0
   -3.8294    1.2301    0.9715 H   0  0  0  0  0  0  0  0  0  0  0  0
   -1.4314    0.1132    0.0329 C   0  0  0  0  0  0  0  0  0  0  0  0
   -2.6134   -1.3293   -0.8152 H   0  0  0  0  0  0  0  0  0  0  0  0
   -2.6081   -0.9462    0.6525 H   0  0  0  0  0  0  0  0  0  0  0  0
   -0.1682   -0.6738    0.0388 C   0  0  0  0  0  1  0  0  0  0  0  0
   -1.1658    0.9438    0.9724 H   0  0  0  0  0  0  0  0  0  0  0  0
   -1.6322    0.6663   -0.6872 H   0  0  0  0  0  0  0  0  0  0  0  0
   -0.0831   -1.9876    1.4914 H   0  0  0  0  0  0  0  0  0  0  0  0
    0.8389    0.0382   -0.6800 H   0  0  0  0  0  0  0  0  0  0  0  0
   -0.6055   -0.6801   -0.3426 H   0  0  0  0  0  0  0  0  0  0  0  0
  1  5  1  0  0  0  0
  2  6  1  0  0  0  0
  2  1  1  0  0  0  0
  2  8  1  0  0  0  0
  3  1  1  0  0  0  0
  4  1  1  0  0  0  0
  6 10  1  0  0  0  0
  7  2  1  0  0  0  0
 11  6  1  0  0  0  0
 13  9  1  0  0  0  0
 14  6  1  0  0  0  0
M  RAD  1  12   2
M  END
$$$$
