14
butane_opt
C  -3.916060   0.250051  -0.107844
C  -2.725835  -0.538000   0.135962
H  -5.130044  -0.670442  -0.260089
H  -3.728106   0.793439  -1.120054
H  -3.743280   0.837397   0.805907
C  -1.451550   0.246747   0.182063
H  -2.706734  -1.255849  -0.683332
H  -2.638050  -1.222880   1.042161
C  -0.168715  -0.758653  -0.072701
H  -1.295150   0.761937   1.011742
H  -1.414110   0.798910  -0.500500
H   0.429139  -1.501821   0.884541
H   0.806556  -0.124709  -0.629910
H  -0.443048  -1.276859  -0.779760
