butane_opt
 OpenBabel08242015403D

 14  9  0  0  0  0  0  0  0  0999 V2000
   -3.9387    0.2924   -0.0972 C   0  0  0  0  0  0  0  0  0  0  0  0
   -2.6826   -0.6880    0.1916 C   0  0  0  0  0  0  0  0  0  0  0  0
   -4.7905   -0.1239    0.3211 H   0  0  0  0  0  0  0  0  0  0  0  0
   -3.8936    1.2138   -1.2311 H   0  0  0  0  0  0  0  0  0  0  0  0
   -3.9438    0.9222    0.6396 H   0  0  0  0  0  0  0  0  0  0  0  0
   -1.4318    0.0992    0.1027 C   0  0  0  0  0  0  0  0  0  0  0  0
   -2.3794   -1.2557   -0.5703 H   0  0  0  0  0  0  0  0  0  0  0  0
   -2.7373   -1.3454    1.1728 H   0  0  0  0  0  0  0  0  0  0  0  0
   -0.1784   -0.6392   -0.0839 C   0  0  0  0  0  1  0  0  0  0  0  0
   -1.4760    0.6838    0.9921 H   0  0  0  0  0  0  0  0  0  0  0  0
   -1.4793    1.0330   -1.0162 H   0  0  0  0  0  0  0  0  0  0  0  0
   -0.5171   -0.6197    0.4919 H   0  0  0  0  0  0  0  0  0  0  0  0
    0.9992    0.1994    0.7069 H   0  0  0  0  0  0  0  0  0  0  0  0
   -0.0852   -1.9414   -1.4854 H   0  0  0  0  0  0  0  0  0  0  0  0
  1  2  1  0  0  0  0
  1  3  1  0  0  0  0
  1  5  1  0  0  0  0
  2  8  1  0  0  0  0
  4  1  1  0  0  0  0
  6 10  1  0  0  0  0
  7  2  1  0  0  0  0
  9 12  1  0  0  0  0
 11  6  1  0  0  0  0
M  RAD  4   2   2   6   3  13   2  14   2
M  END
$$$$
