14
butane_opt
C  -3.907574   0.214687  -0.146728
C  -2.708007  -0.519612   0.144565
H  -4.988433  -0.586436   0.709002
H  -3.736588   1.404528  -1.427626
H  -3.817109   0.164525   0.254860
C  -1.441211   0.202800   0.274786
H  -2.722928  -1.043220  -0.759313
H  -2.981304  -1.074987   0.972718
C  -0.120100  -0.738305  -0.109995
H  -1.583460   1.017148   1.194735
H  -1.295509   0.712173  -0.566467
H   0.268774  -1.147294   0.476535
H   0.421424  -0.372889  -0.280434
H  -0.420050  -1.511221  -1.149124
