14
butane_opt
C  -3.928146   0.289981  -0.030515
C  -2.624868  -0.680709   0.146586
H  -4.914969  -0.326045  -0.482470
H  -3.809672   0.518593  -0.750258
H  -4.294578   1.314644   1.032286
C  -1.390611   0.175726   0.041921
H  -2.551744  -1.205548  -0.686888
H  -2.496791  -1.452630   1.009826
C  -0.245000  -0.649365  -0.002294
H  -1.375205   0.654711   0.640773
H  -1.429401   1.241152  -1.054934
H  -0.051657  -1.210055   0.800155
H   0.588337   0.023964   0.217462
H  -0.405124  -1.715685  -1.113351
