butane_opt
 OpenBabel08242015403D

 14 10  0  0  0  0  0  0  0  0999 V2000
   -3.9738    0.2751   -0.1015 C   0  0  0  0  0  1  0  0  0  0  0  0
   -2.6604   -0.6124    0.1204 C   0  0  0  0  0  0  0  0  0  0  0  0
   -4.8628   -0.2545    0.8127 H   0  0  0  0  0  0  0  0  0  0  0  0
   -4.0171    1.7146   -1.6451 H   0  0  0  0  0  0  0  0  0  0  0  0
   -3.8159    0.1244    0.2810 H   0  0  0  0  0  0  0  0  0  0  0  0
   -1.3998    0.0813    0.1908 C   0  0  0  0  0  0  0  0  0  0  0  0
   -2.3454   -1.2027   -0.6700 H   0  0  0  0  0  0  0  0  0  0  0  0
   -2.5227   -1.2513    1.0284 H   0  0  0  0  0  0  0  0  0  0  0  0
   -0.2078   -0.6506   -0.1415 C   0  0  0  0  0  0  0  0  0  0  0  0
   -1.3405    1.3360    1.3691 H   0  0  0  0  0  0  0  0  0  0  0  0
   -1.3796    0.4499   -0.4923 H   0  0  0  0  0  0  0  0  0  0  0  0
   -0.2639   -1.0795    0.7362 H   0  0  0  0  0  0  0  0  0  0  0  0
    0.7249    0.1093    0.2288 H   0  0  0  0  0  0  0  0  0  0  0  0
   -0.3033   -1.5396   -1.1182 H   0  0  0  0  0  0  0  0  0  0  0  0
  1  3  1  0  0  0  0
  2  6  1  0  0  0  0
  2  5  1  0  0  0  0
  2  8  1  0  0  0  0
  7  2  1  0  0  0  0
  9  6  1  0  0  0  0
  9 13  1  0  0  0  0
  9 12  1  0  0  0  0
 11  6  1  0  0  0  0
 14  9  1  0  0  0  0
M  RAD  3   4   2   6   2  10   2
M  END
$$$$
