butane_opt
 OpenBabel08242015403D

 14 11  0  0  0  0  0  0  0  0999 V2000
   -3.8752    0.1925   -0.0828 C   0  0  0  0  0  0  0  0  0  0  0  0
   -2.7330   -0.5374    0.1668 C   0  0  0  0  0  0  0  0  0  0  0  0
   -4.7056   -0.1990    0.3486 H   0  0  0  0  0  0  0  0  0  0  0  0
   -3.7234    0.9252   -1.0900 H   0  0  0  0  0  0  0  0  0  0  0  0
   -3.8261    0.5793    0.5243 H   0  0  0  0  0  0  0  0  0  0  0  0
   -1.4736    0.2348    0.0928 C   0  0  0  0  0  0  0  0  0  0  0  0
   -2.4092   -1.0889   -0.6037 H   0  0  0  0  0  0  0  0  0  0  0  0
   -3.0090   -1.3495    1.1225 H   0  0  0  0  0  0  0  0  0  0  0  0
   -0.1633   -0.7271   -0.0566 C   0  0  0  0  0  0  0  0  0  0  0  0
   -1.4511    0.7539    0.7813 H   0  0  0  0  0  0  0  0  0  0  0  0
   -1.5661    0.9614   -0.7517 H   0  0  0  0  0  0  0  0  0  0  0  0
   -0.1524   -0.7317    0.3904 H   0  0  0  0  0  0  0  0  0  0  0  0
    0.6700   -0.2012    0.5012 H   0  0  0  0  0  0  0  0  0  0  0  0
    0.0745   -2.0824   -1.2665 H   0  0  0  0  0  0  0  0  0  0  0  0
  1  2  1  0  0  0  0
  1  3  1  0  0  0  0
  1  5  1  0  0  0  0
  2  8  1  0  0  0  0
  4  1  1  0  0  0  0
  6  2  1  0  0  0  0
  6 10  1  0  0  0  0
  7  2  1  0  0  0  0
  9  6  1  0  0  0  0
  9 13  1  0  0  0  0
 11  6  1  0  0  0  0
M  RAD  3   9   3  12   2  14   2
M  END
$$$$
