butane_opt
 OpenBabel08242015403D

 14 13  0  0  0  0  0  0  0  0999 V2000
   -3.9516    0.2533   -0.0131 C   0  0  0  0  0  0  0  0  0  0  0  0
   -2.7115   -0.6081    0.0798 C   0  0  0  0  0  0  0  0  0  0  0  0
   -4.8523   -0.3045   -0.1229 H   0  0  0  0  0  0  0  0  0  0  0  0
   -3.9267    0.7896   -0.8758 H   0  0  0  0  0  0  0  0  0  0  0  0
   -3.9760    0.9998    0.8756 H   0  0  0  0  0  0  0  0  0  0  0  0
   -1.4133    0.1946    0.0317 C   0  0  0  0  0  0  0  0  0  0  0  0
   -2.6710   -1.2186   -0.7284 H   0  0  0  0  0  0  0  0  0  0  0  0
   -2.7934   -1.2738    1.0284 H   0  0  0  0  0  0  0  0  0  0  0  0
   -0.1408   -0.6984    0.0044 C   0  0  0  0  0  0  0  0  0  0  0  0
   -1.3426    0.8814    0.9028 H   0  0  0  0  0  0  0  0  0  0  0  0
   -1.4259    0.7907   -0.8367 H   0  0  0  0  0  0  0  0  0  0  0  0
   -0.0618   -1.3301    0.8924 H   0  0  0  0  0  0  0  0  0  0  0  0
    0.7663   -0.1011   -0.0397 H   0  0  0  0  0  0  0  0  0  0  0  0
   -0.1393   -1.4050   -0.8834 H   0  0  0  0  0  0  0  0  0  0  0  0
  1  2  1  0  0  0  0
  1  5  1  0  0  0  0
  2  8  1  0  0  0  0
  3  1  1  0  0  0  0
  4  1  1  0  0  0  0
  6  2  1  0  0  0  0
  6 10  1  0  0  0  0
  7  2  1  0  0  0  0
  9  6  1  0  0  0  0
  9 12  1  0  0  0  0
 11  6  1  0  0  0  0
 13  9  1  0  0  0  0
 14  9  1  0  0  0  0
M  END
$$$$
