butane_opt
 OpenBabel08242015403D

 14 13  0  0  0  0  0  0  0  0999 V2000
   -4.0075    0.3354    0.1853 C   0  0  0  0  0  0  0  0  0  0  0  0
   -2.6545   -0.7224   -0.2226 C   0  0  0  0  0  0  0  0  0  0  0  0
   -4.8466   -0.0854    0.4997 H   0  0  0  0  0  0  0  0  0  0  0  0
   -4.4949    0.8773   -0.4886 H   0  0  0  0  0  0  0  0  0  0  0  0
   -3.6989    1.0187    1.0827 H   0  0  0  0  0  0  0  0  0  0  0  0
   -1.3389    0.1766   -0.1279 C   0  0  0  0  0  0  0  0  0  0  0  0
   -2.5741   -1.4541   -1.0192 H   0  0  0  0  0  0  0  0  0  0  0  0
   -2.7897   -1.3632    0.6564 H   0  0  0  0  0  0  0  0  0  0  0  0
   -0.1840   -0.6428    0.2116 C   0  0  0  0  0  0  0  0  0  0  0  0
   -1.3999    0.6942    0.4802 H   0  0  0  0  0  0  0  0  0  0  0  0
   -1.0610    0.6982   -1.0125 H   0  0  0  0  0  0  0  0  0  0  0  0
   -0.5805   -1.4175    1.2906 H   0  0  0  0  0  0  0  0  0  0  0  0
    0.6533   -0.1648   -0.0450 H   0  0  0  0  0  0  0  0  0  0  0  0
   -0.0107   -1.0208   -0.5428 H   0  0  0  0  0  0  0  0  0  0  0  0
  1  3  1  0  0  0  0
  1  5  1  0  0  0  0
  2  6  1  0  0  0  0
  2  1  1  0  0  0  0
  2  8  1  0  0  0  0
  4  1  1  0  0  0  0
  6  9  1  0  0  0  0
  6 10  1  0  0  0  0
  7  2  1  0  0  0  0
  9 12  1  0  0  0  0
 11  6  1  0  0  0  0
 13  9  1  0  0  0  0
 14  9  1  0  0  0  0
M  END
$$$$
