butane_opt
 OpenBabel08242015403D

 14  9  0  0  0  0  0  0  0  0999 V2000
   -3.8593    0.1962   -0.0955 C   0  0  0  0  0  1  0  0  0  0  0  0
   -2.7046   -0.5382    0.0897 C   0  0  0  0  0  0  0  0  0  0  0  0
   -4.6517   -0.4109    0.8748 H   0  0  0  0  0  0  0  0  0  0  0  0
   -3.9942    1.3745   -1.3938 H   0  0  0  0  0  0  0  0  0  0  0  0
   -3.8159   -0.0041    0.2228 H   0  0  0  0  0  0  0  0  0  0  0  0
   -1.4961    0.2915    0.1760 C   0  0  0  0  0  0  0  0  0  0  0  0
   -2.6092   -1.2302   -0.7249 H   0  0  0  0  0  0  0  0  0  0  0  0
   -2.7443   -1.1724    0.9190 H   0  0  0  0  0  0  0  0  0  0  0  0
   -0.1488   -0.7567   -0.0449 C   0  0  0  0  0  0  0  0  0  0  0  0
   -1.3410    0.9275    1.1604 H   0  0  0  0  0  0  0  0  0  0  0  0
   -1.6070    0.8260   -0.6574 H   0  0  0  0  0  0  0  0  0  0  0  0
    0.0425   -0.9366    0.5498 H   0  0  0  0  0  0  0  0  0  0  0  0
    0.6553   -0.1806    0.0597 H   0  0  0  0  0  0  0  0  0  0  0  0
   -0.4239   -1.9615   -1.1601 H   0  0  0  0  0  0  0  0  0  0  0  0
  1  3  1  0  0  0  0
  2  5  1  0  0  0  0
  2  8  1  0  0  0  0
  6 10  1  0  0  0  0
  7  2  1  0  0  0  0
  9 13  1  0  0  0  0
  9  6  1  0  0  0  0
  9 12  1  0  0  0  0
 11  6  1  0  0  0  0
M  RAD  5   2   2   4   2   6   2   9   2  14   2
M  END
$$$$
