14
butane_opt
C  -3.995433   0.328396   0.220396
C  -2.703647  -0.633652  -0.087074
H  -5.034361  -0.270650   0.188513
H  -4.069205   0.897670  -0.531711
H  -4.104637   0.960239   0.984443
C  -1.294951   0.119889  -0.221904
H  -2.868386  -1.516311  -1.126531
H  -2.445844  -1.203623   0.552770
C  -0.199477  -0.655684   0.178586
H  -1.505069   0.452267   0.320611
H  -1.177955   0.822396  -1.199866
H  -0.530073  -1.096591   1.012622
H   0.778530  -0.041488   0.946727
H   0.241494  -1.382848  -0.773910
