14
butane_opt
C  -3.994198   0.287133   0.174752
C  -2.673620  -0.635432  -0.073580
H  -4.752590  -0.116940  -0.614321
H  -4.114705   0.157928  -0.352154
H  -4.089294   1.525640   1.398397
C  -1.358275   0.149513  -0.148492
H  -2.882975  -1.390737  -1.076780
H  -2.901138  -1.128953   0.822281
C  -0.163957  -0.672857   0.168620
H  -1.408866   0.444802   0.480522
H  -1.354176   1.246393  -1.329657
H  -0.180777  -1.616082   1.230098
H   0.939951   0.021733  -0.015650
H  -0.035041  -1.130123  -0.465874
