butane_opt
 OpenBabel08242015403D

 14 11  0  0  0  0  0  0  0  0999 V2000
   -3.9032    0.2407   -0.0740 C   0  0  0  0  0  0  0  0  0  0  0  0
   -2.7303   -0.5052    0.1627 C   0  0  0  0  0  0  0  0  0  0  0  0
   -5.0541   -0.5944    0.0848 H   0  0  0  0  0  0  0  0  0  0  0  0
   -3.9673    0.9807   -1.1015 H   0  0  0  0  0  0  0  0  0  0  0  0
   -3.5469    0.6237    0.7299 H   0  0  0  0  0  0  0  0  0  0  0  0
   -1.3899    0.2009    0.0234 C   0  0  0  0  0  0  0  0  0  0  0  0
   -2.7136   -0.9612   -0.4823 H   0  0  0  0  0  0  0  0  0  0  0  0
   -2.8180   -1.4324    1.1207 H   0  0  0  0  0  0  0  0  0  0  0  0
   -0.1718   -0.7157   -0.0331 C   0  0  0  0  0  0  0  0  0  0  0  0
   -1.4379    0.8816    0.8883 H   0  0  0  0  0  0  0  0  0  0  0  0
   -1.5242    0.5558   -0.6300 H   0  0  0  0  0  0  0  0  0  0  0  0
   -0.2583   -0.9293    0.6132 H   0  0  0  0  0  0  0  0  0  0  0  0
    0.5876   -0.2816    0.5555 H   0  0  0  0  0  0  0  0  0  0  0  0
    0.0627   -1.9902   -1.3795 H   0  0  0  0  0  0  0  0  0  0  0  0
  1  3  1  0  0  0  0
  1  2  1  0  0  0  0
  1  5  1  0  0  0  0
  2  8  1  0  0  0  0
  4  1  1  0  0  0  0
  6 10  1  0  0  0  0
  7  2  1  0  0  0  0
  9  6  1  0  0  0  0
  9 13  1  0  0  0  0
  9 12  1  0  0  0  0
 11  6  1  0  0  0  0
M  RAD  4   2   2   6   2   9   2  14   2
M  END
$$$$
