14
butane_opt
C  -3.941472   0.269322   0.048637
C  -2.694091  -0.622741   0.003100
H  -4.840010  -0.327349   0.127576
H  -4.057685   0.886974  -0.832404
H  -3.889121   0.997965   0.928941
C  -1.403511   0.178979  -0.034379
H  -2.691308  -1.315288  -0.846882
H  -2.709176  -1.252043   0.886535
C  -0.180253  -0.685113   0.064689
H  -1.383192   0.811696   0.800696
H  -1.332876   0.801875  -0.916012
H  -0.166254  -1.299722   0.953430
H   0.757984  -0.089382   0.143188
H  -0.085134  -1.362672  -0.782748
