butane_opt
 OpenBabel08242015403D

 14 10  0  0  0  0  0  0  0  0999 V2000
   -3.9281    0.2900   -0.0305 C   0  0  0  0  0  0  0  0  0  0  0  0
   -2.6249   -0.6807    0.1466 C   0  0  0  0  0  0  0  0  0  0  0  0
   -4.9150   -0.3260   -0.4825 H   0  0  0  0  0  0  0  0  0  0  0  0
   -3.8097    0.5186   -0.7503 H   0  0  0  0  0  0  0  0  0  0  0  0
   -4.2946    1.3146    1.0323 H   0  0  0  0  0  0  0  0  0  0  0  0
   -1.3906    0.1757    0.0419 C   0  0  0  0  0  0  0  0  0  0  0  0
   -2.5517   -1.2055   -0.6869 H   0  0  0  0  0  0  0  0  0  0  0  0
   -2.4968   -1.4526    1.0098 H   0  0  0  0  0  0  0  0  0  0  0  0
   -0.2450   -0.6494   -0.0023 C   0  0  0  0  0  0  0  0  0  0  0  0
   -1.3752    0.6547    0.6408 H   0  0  0  0  0  0  0  0  0  0  0  0
   -1.4294    1.2412   -1.0549 H   0  0  0  0  0  0  0  0  0  0  0  0
   -0.0517   -1.2101    0.8002 H   0  0  0  0  0  0  0  0  0  0  0  0
    0.5883    0.0240    0.2175 H   0  0  0  0  0  0  0  0  0  0  0  0
   -0.4051   -1.7157   -1.1134 H   0  0  0  0  0  0  0  0  0  0  0  0
  1  2  1  0  0  0  0
  2  8  1  0  0  0  0
  3  1  1  0  0  0  0
  4  1  1  0  0  0  0
  6  2  1  0  0  0  0
  6 10  1  0  0  0  0
  7  2  1  0  0  0  0
  9  6  1  0  0  0  0
  9 13  1  0  0  0  0
  9 12  1  0  0  0  0
M  RAD  6   1   2   5   2   6   2   9   2  11   2  14   2
M  END
$$$$
