14
butane_opt
C  -4.026697   0.315704  -0.094683
C  -2.675958  -0.707887   0.157025
H  -4.593472  -0.059700   0.439365
H  -4.257113   1.381624  -1.073189
H  -4.078605   0.617991   0.601422
C  -1.317399   0.106245   0.117863
H  -2.649517  -1.126113  -0.566948
H  -3.010991  -1.263814   0.960477
C  -0.174517  -0.644967  -0.059895
H  -1.416109   0.588394   0.882105
H  -1.276652   0.957869  -0.970410
H  -0.362211  -0.491511   0.335800
H   0.824810   0.058690   0.589973
H   0.075959  -1.931679  -1.307719
