butane_opt
 OpenBabel08242015403D

 14 12  0  0  0  0  0  0  0  0999 V2000
   -3.9211    0.2105    0.1836 C   0  0  0  0  0  0  0  0  0  0  0  0
   -2.7240   -0.5381   -0.0506 C   0  0  0  0  0  0  0  0  0  0  0  0
   -4.7135   -0.4156    0.3202 H   0  0  0  0  0  0  0  0  0  0  0  0
   -3.8241    0.6490   -0.5498 H   0  0  0  0  0  0  0  0  0  0  0  0
   -3.7743    1.0242    1.0914 H   0  0  0  0  0  0  0  0  0  0  0  0
   -1.3779    0.2407   -0.2552 C   0  0  0  0  0  0  0  0  0  0  0  0
   -2.8138   -1.5917   -1.0525 H   0  0  0  0  0  0  0  0  0  0  0  0
   -2.7505   -1.0227    0.6997 H   0  0  0  0  0  0  0  0  0  0  0  0
   -0.1930   -0.7279    0.2039 C   0  0  0  0  0  0  0  0  0  0  0  0
   -1.4572    0.7689    0.4068 H   0  0  0  0  0  0  0  0  0  0  0  0
   -1.4426    1.1824   -1.3959 H   0  0  0  0  0  0  0  0  0  0  0  0
   -0.6329   -1.1636    0.9684 H   0  0  0  0  0  0  0  0  0  0  0  0
    0.5193   -0.3442    0.9230 H   0  0  0  0  0  0  0  0  0  0  0  0
    0.4612   -1.8116   -0.9235 H   0  0  0  0  0  0  0  0  0  0  0  0
  1  3  1  0  0  0  0
  1  5  1  0  0  0  0
  2  1  1  0  0  0  0
  2  8  1  0  0  0  0
  4  1  1  0  0  0  0
  6  2  1  0  0  0  0
  6  9  1  0  0  0  0
  6 10  1  0  0  0  0
  7  2  1  0  0  0  0
  9 13  1  0  0  0  0
  9 12  1  0  0  0  0
 11  6  1  0  0  0  0
M  RAD  2   9   2  14   2
M  END
$$$$
