14
butane_opt
C  -3.939965   0.223052  -0.010657
C  -2.742459  -0.559781   0.105518
H  -4.972544  -0.455068   0.142100
H  -4.019691   1.039527  -0.897479
H  -4.132827   0.640368   0.619231
C  -1.396435   0.244182   0.039091
H  -2.962603  -1.247900  -0.899410
H  -2.778031  -1.118315   0.955403
C  -0.100044  -0.738544  -0.034558
H  -1.201448   0.797237   0.859242
H  -1.518589   1.048016  -0.897689
H  -0.173104  -1.298300   0.833499
H   0.828056  -0.165223   0.580902
H   0.089288  -1.791039  -1.067199
