14
butane_opt
C  -3.813276   0.164132  -0.010662
C  -2.696137  -0.517096   0.019105
H  -4.867458  -0.385244   0.408151
H  -4.080305   1.483365  -1.480422
H  -3.665254   0.442399   0.470822
C  -1.422308   0.242232   0.161731
H  -2.905461  -1.194315  -0.717376
H  -2.893879  -1.283828   0.985406
C  -0.197011  -0.758842  -0.000483
H  -1.501476   0.992637   1.010443
H  -1.612917   0.995637  -0.832632
H  -0.022207  -1.051007   0.641653
H   0.540295  -0.295620  -0.070145
H  -0.409090  -1.768180  -1.114657
