butane_opt
 OpenBabel08242015403D

 14 12  0  0  0  0  0  0  0  0999 V2000
   -3.9394    0.3002   -0.0661 C   0  0  0  0  0  0  0  0  0  0  0  0
   -2.6549   -0.6749    0.0919 C   0  0  0  0  0  0  0  0  0  0  0  0
   -4.8136   -0.0675    0.2616 H   0  0  0  0  0  0  0  0  0  0  0  0
   -4.1911    1.1230   -1.0662 H   0  0  0  0  0  0  0  0  0  0  0  0
   -3.9564    0.8255    0.6800 H   0  0  0  0  0  0  0  0  0  0  0  0
   -1.3786    0.1176    0.1107 C   0  0  0  0  0  0  0  0  0  0  0  0
   -2.2486   -1.1829   -0.6604 H   0  0  0  0  0  0  0  0  0  0  0  0
   -2.8078   -1.4314    1.1344 H   0  0  0  0  0  0  0  0  0  0  0  0
   -0.2470   -0.6663   -0.0409 C   0  0  0  0  0  0  0  0  0  0  0  0
   -1.4141    0.7834    1.0049 H   0  0  0  0  0  0  0  0  0  0  0  0
   -1.3889    0.6394   -0.7460 H   0  0  0  0  0  0  0  0  0  0  0  0
   -0.3079   -0.8038    0.5824 H   0  0  0  0  0  0  0  0  0  0  0  0
    0.8741    0.1732   -0.0546 H   0  0  0  0  0  0  0  0  0  0  0  0
   -0.1492   -1.4109   -0.8954 H   0  0  0  0  0  0  0  0  0  0  0  0
  1  2  1  0  0  0  0
  1  3  1  0  0  0  0
  1  5  1  0  0  0  0
  2  8  1  0  0  0  0
  4  1  1  0  0  0  0
  6 10  1  0  0  0  0
  7  2  1  0  0  0  0
  9  6  1  0  0  0  0
  9 12  1  0  0  0  0
 11  6  1  0  0  0  0
 13  9  1  0  0  0  0
 14  9  1  0  0  0  0
M  RAD  2   2   2   6   2
M  END
$$$$
