14
butane_opt
C  -3.951260   0.250038   0.052313
C  -2.701095  -0.603540  -0.009596
H  -4.853585  -0.323230   0.126037
H  -4.019068   0.875115  -0.851764
H  -3.938728   0.929177   0.923227
C  -1.411886   0.193442  -0.024078
H  -2.767103  -1.312203  -0.853259
H  -2.678962  -1.205955   0.857614
C  -0.143679  -0.700673   0.066977
H  -1.401376   0.902336   0.856267
H  -1.365291   0.822260  -0.916477
H  -0.151458  -1.390833   1.024289
H   0.776553  -0.114564  -0.000067
H  -0.124394  -1.323648  -0.749524
