butane_opt
 OpenBabel08242015403D

 14 13  0  0  0  0  0  0  0  0999 V2000
   -3.8366    0.2108    0.1911 C   0  0  0  0  0  0  0  0  0  0  0  0
   -2.7149   -0.5245   -0.2495 C   0  0  0  0  0  0  0  0  0  0  0  0
   -4.7926   -0.4320    0.9256 H   0  0  0  0  0  0  0  0  0  0  0  0
   -4.4062    1.1823   -0.8019 H   0  0  0  0  0  0  0  0  0  0  0  0
   -3.4390    0.5333    0.9163 H   0  0  0  0  0  0  0  0  0  0  0  0
   -1.4078    0.2185   -0.0883 C   0  0  0  0  0  0  0  0  0  0  0  0
   -2.7799   -1.5486   -1.1791 H   0  0  0  0  0  0  0  0  0  0  0  0
   -2.8700   -0.9572    0.5607 H   0  0  0  0  0  0  0  0  0  0  0  0
   -0.2086   -0.7512    0.2023 C   0  0  0  0  0  0  0  0  0  0  0  0
   -1.6664    0.8040    0.6738 H   0  0  0  0  0  0  0  0  0  0  0  0
   -1.3827    1.0105   -1.0853 H   0  0  0  0  0  0  0  0  0  0  0  0
   -0.4413   -1.5228    1.3862 H   0  0  0  0  0  0  0  0  0  0  0  0
    0.6606   -0.1578    0.0150 H   0  0  0  0  0  0  0  0  0  0  0  0
    0.1276   -1.2323   -0.6677 H   0  0  0  0  0  0  0  0  0  0  0  0
  1  5  1  0  0  0  0
  1  3  1  0  0  0  0
  2  6  1  0  0  0  0
  2  1  1  0  0  0  0
  2  8  1  0  0  0  0
  4  1  1  0  0  0  0
  6  9  1  0  0  0  0
  6 10  1  0  0  0  0
  7  2  1  0  0  0  0
  9 12  1  0  0  0  0
 11  6  1  0  0  0  0
 13  9  1  0  0  0  0
 14  9  1  0  0  0  0
M  END
$$$$
