14
butane_opt
C  -3.968757   0.233994  -0.074110
C  -2.761661  -0.612628   0.180776
H  -4.963101  -0.440645   0.095563
H  -4.146838   1.247074  -1.185559
H  -3.889257   0.659286   0.664976
C  -1.411426   0.256335   0.067710
H  -2.649229  -0.997480  -0.443496
H  -2.791121  -1.514007   1.091711
C  -0.071222  -0.736829  -0.100611
H  -1.559453   1.002739   0.961261
H  -1.561829   0.645372  -0.677340
H  -0.349700  -0.806051   0.403451
H   0.988870  -0.166878   0.744926
H   0.453633  -1.774286  -1.203544
