butane_opt
 OpenBabel08242015403D

 14 13  0  0  0  0  0  0  0  0999 V2000
   -4.0229    0.3130    0.1328 C   0  0  0  0  0  0  0  0  0  0  0  0
   -2.6986   -0.6847   -0.1248 C   0  0  0  0  0  0  0  0  0  0  0  0
   -4.7909   -0.2763    0.6015 H   0  0  0  0  0  0  0  0  0  0  0  0
   -4.3755    1.1541   -0.9842 H   0  0  0  0  0  0  0  0  0  0  0  0
   -3.8060    0.7654    0.8692 H   0  0  0  0  0  0  0  0  0  0  0  0
   -1.3945    0.1807   -0.0463 C   0  0  0  0  0  0  0  0  0  0  0  0
   -2.9037   -1.5395   -1.0421 H   0  0  0  0  0  0  0  0  0  0  0  0
   -2.5246   -1.1589    0.6733 H   0  0  0  0  0  0  0  0  0  0  0  0
   -0.1070   -0.6788    0.1665 C   0  0  0  0  0  0  0  0  0  0  0  0
   -1.7482    0.5501    0.4802 H   0  0  0  0  0  0  0  0  0  0  0  0
   -1.0649    0.9416   -0.9664 H   0  0  0  0  0  0  0  0  0  0  0  0
   -0.2165   -1.1319    0.8293 H   0  0  0  0  0  0  0  0  0  0  0  0
    1.0123    0.2020    0.0721 H   0  0  0  0  0  0  0  0  0  0  0  0
    0.0336   -1.4691   -0.7157 H   0  0  0  0  0  0  0  0  0  0  0  0
  1  3  1  0  0  0  0
  1  5  1  0  0  0  0
  2  6  1  0  0  0  0
  2  1  1  0  0  0  0
  2  8  1  0  0  0  0
  4  1  1  0  0  0  0
  6  9  1  0  0  0  0
  6 10  1  0  0  0  0
  7  2  1  0  0  0  0
  9 12  1  0  0  0  0
 11  6  1  0  0  0  0
 13  9  1  0  0  0  0
 14  9  1  0  0  0  0
M  END
$$$$
