butane_opt
 OpenBabel08242015403D

 14  8  0  0  0  0  0  0  0  0999 V2000
   -3.8439    0.1951   -0.0882 C   0  0  0  0  0 15  0  0  0  0  0  0
   -2.7409   -0.5411    0.1511 C   0  0  0  0  0  0  0  0  0  0  0  0
   -4.9715   -0.6170    0.5436 H   0  0  0  0  0  0  0  0  0  0  0  0
   -4.1122    1.5713   -1.6257 H   0  0  0  0  0  0  0  0  0  0  0  0
   -3.6025    0.3002    0.3429 H   0  0  0  0  0  0  0  0  0  0  0  0
   -1.4261    0.2835    0.1851 C   0  0  0  0  0  0  0  0  0  0  0  0
   -2.5748   -1.5227   -0.8261 H   0  0  0  0  0  0  0  0  0  0  0  0
   -2.7905   -0.9890    0.9799 H   0  0  0  0  0  0  0  0  0  0  0  0
   -0.2041   -0.7983   -0.0938 C   0  0  0  0  0  0  0  0  0  0  0  0
   -1.2899    1.1737    1.0776 H   0  0  0  0  0  0  0  0  0  0  0  0
   -1.4766    0.8644   -0.5741 H   0  0  0  0  0  0  0  0  0  0  0  0
   -0.0417   -1.1278    0.6690 H   0  0  0  0  0  0  0  0  0  0  0  0
    0.6190   -0.2877    0.0424 H   0  0  0  0  0  0  0  0  0  0  0  0
   -0.1196   -1.5540   -1.1311 H   0  0  0  0  0  0  0  0  0  0  0  0
  2  5  1  0  0  0  0
  2  8  1  0  0  0  0
  6 10  1  0  0  0  0
  9 13  1  0  0  0  0
  9  6  1  0  0  0  0
  9 12  1  0  0  0  0
 11  6  1  0  0  0  0
 14  9  1  0  0  0  0
M  RAD  5   2   3   3   2   4   2   6   2   7   2
M  END
$$$$
