14
butane_opt
C  -3.976508   0.225306  -0.179604
C  -2.759281  -0.550829   0.228102
H  -5.147713  -0.594795  -0.297429
H  -3.706412   0.962112  -1.133993
H  -4.263437   0.744840   0.601045
C  -1.414448   0.261506   0.228414
H  -2.505029  -1.307519  -0.649166
H  -2.692326  -1.385517   1.311693
C  -0.075360  -0.750526  -0.124219
H  -1.170999   1.079209   1.193823
H  -1.567859   0.805002  -0.435082
H   0.582074  -1.417930   0.815291
H   0.765564  -0.217228  -0.601352
H  -0.551814  -1.416787  -1.197597
