14
butane_opt
C  -4.018662   0.296028   0.189171
C  -2.668745  -0.657892  -0.021177
H  -4.872020  -0.145368  -0.055836
H  -4.316784   0.782657  -0.590780
H  -4.156811   0.879690   0.916879
C  -1.382196   0.147553  -0.218257
H  -2.557027  -1.415385  -0.995188
H  -2.623150  -1.053809   0.813909
C  -0.150343  -0.651773   0.144834
H  -1.164607   0.506106   0.476629
H  -1.160996   0.951579  -1.192326
H  -0.688430  -0.947384   0.866035
H   0.774474  -0.071409   0.978450
H   0.402850  -1.606881  -0.932597
