butane_opt
 OpenBabel08242015403D

 14  9  0  0  0  0  0  0  0  0999 V2000
   -4.0000    0.2747    0.1042 C   0  0  0  0  0  0  0  0  0  0  0  0
   -2.6627   -0.6236   -0.1116 C   0  0  0  0  0  0  0  0  0  0  0  0
   -4.8384   -0.2190    0.1439 H   0  0  0  0  0  0  0  0  0  0  0  0
   -4.1515    0.7675   -0.6565 H   0  0  0  0  0  0  0  0  0  0  0  0
   -3.8291    1.3879    1.2751 H   0  0  0  0  0  0  0  0  0  0  0  0
   -1.3726    0.0957   -0.0587 C   0  0  0  0  0  0  0  0  0  0  0  0
   -2.5367   -1.5467   -1.1666 H   0  0  0  0  0  0  0  0  0  0  0  0
   -2.5162   -1.0361    0.6551 H   0  0  0  0  0  0  0  0  0  0  0  0
   -0.1988   -0.6462    0.1044 C   0  0  0  0  0  1  0  0  0  0  0  0
   -1.3868    0.8214    0.7914 H   0  0  0  0  0  0  0  0  0  0  0  0
   -1.2018    0.5477   -0.9041 H   0  0  0  0  0  0  0  0  0  0  0  0
   -0.1311   -1.9295    1.5765 H   0  0  0  0  0  0  0  0  0  0  0  0
    0.7306    0.0887   -0.5183 H   0  0  0  0  0  0  0  0  0  0  0  0
   -0.3518   -0.5240   -0.1091 H   0  0  0  0  0  0  0  0  0  0  0  0
  1  3  1  0  0  0  0
  2  1  1  0  0  0  0
  2  8  1  0  0  0  0
  4  1  1  0  0  0  0
  6 10  1  0  0  0  0
  7  2  1  0  0  0  0
 11  6  1  0  0  0  0
 13  9  1  0  0  0  0
 14  6  1  0  0  0  0
M  RAD  5   1   2   2   2   5   2   6   2  12   2
M  END
$$$$
