14
butane_opt
C  -4.055576   0.290798   0.021742
C  -2.681004  -0.708284  -0.003248
H  -4.715033  -0.114864   0.818969
H  -4.411314   1.609272  -1.302108
H  -3.793567   0.663537   0.727952
C  -1.387633   0.162490   0.018451
H  -2.720441  -1.495664  -0.939214
H  -2.665104  -1.376989   0.749648
C  -0.102936  -0.663847   0.055541
H  -1.594748   0.951362   0.973259
H  -1.030256   0.767701  -0.879068
H  -0.261149  -0.877599   0.860696
H   1.045789   0.094229   0.197241
H  -0.185742  -1.591783  -0.984075
