butane_opt
 OpenBabel08242015403D

 14 12  0  0  0  0  0  0  0  0999 V2000
   -3.9752    0.3182    0.1410 C   0  0  0  0  0  0  0  0  0  0  0  0
   -2.6486   -0.6464   -0.0816 C   0  0  0  0  0  0  0  0  0  0  0  0
   -4.9958   -0.3505    0.0019 H   0  0  0  0  0  0  0  0  0  0  0  0
   -3.9364    0.7567   -0.5864 H   0  0  0  0  0  0  0  0  0  0  0  0
   -3.9471    1.0027    1.0743 H   0  0  0  0  0  0  0  0  0  0  0  0
   -1.3888    0.1431   -0.1211 C   0  0  0  0  0  0  0  0  0  0  0  0
   -2.7147   -1.2904   -0.7597 H   0  0  0  0  0  0  0  0  0  0  0  0
   -2.4706   -1.2166    0.7726 H   0  0  0  0  0  0  0  0  0  0  0  0
   -0.1915   -0.6805    0.1653 C   0  0  0  0  0  0  0  0  0  0  0  0
   -1.2620    0.4435    0.3940 H   0  0  0  0  0  0  0  0  0  0  0  0
   -1.1977    1.0627   -1.2329 H   0  0  0  0  0  0  0  0  0  0  0  0
   -0.3979   -0.9660    0.9706 H   0  0  0  0  0  0  0  0  0  0  0  0
    0.7422   -0.0127    0.5715 H   0  0  0  0  0  0  0  0  0  0  0  0
   -0.3737   -1.5569   -1.0038 H   0  0  0  0  0  0  0  0  0  0  0  0
  1  5  1  0  0  0  0
  2  1  1  0  0  0  0
  2  8  1  0  0  0  0
  3  1  1  0  0  0  0
  4  1  1  0  0  0  0
  6  2  1  0  0  0  0
  6  9  1  0  0  0  0
  7  2  1  0  0  0  0
  9 13  1  0  0  0  0
  9 12  1  0  0  0  0
 11  6  1  0  0  0  0
 14  9  1  0  0  0  0
M  RAD  2   6   2  10   2
M  END
$$$$
