butane_opt
 OpenBabel08242015403D

 14 12  0  0  0  0  0  0  0  0999 V2000
   -3.9208    0.2806   -0.0184 C   0  0  0  0  0  0  0  0  0  0  0  0
   -2.6520   -0.6383    0.1117 C   0  0  0  0  0  0  0  0  0  0  0  0
   -4.7117   -0.2308    0.1949 H   0  0  0  0  0  0  0  0  0  0  0  0
   -3.9521    1.1673   -1.1297 H   0  0  0  0  0  0  0  0  0  0  0  0
   -4.0693    0.6582    0.5045 H   0  0  0  0  0  0  0  0  0  0  0  0
   -1.4036    0.1354    0.0052 C   0  0  0  0  0  0  0  0  0  0  0  0
   -2.7077   -1.1394   -0.6035 H   0  0  0  0  0  0  0  0  0  0  0  0
   -2.5741   -1.3450    1.0658 H   0  0  0  0  0  0  0  0  0  0  0  0
   -0.2664   -0.6674   -0.0100 C   0  0  0  0  0  0  0  0  0  0  0  0
   -1.0034    1.2186    1.0590 H   0  0  0  0  0  0  0  0  0  0  0  0
   -1.3289    0.5520   -0.7371 H   0  0  0  0  0  0  0  0  0  0  0  0
   -0.1935   -0.9401    0.5760 H   0  0  0  0  0  0  0  0  0  0  0  0
    0.6275   -0.1390    0.4449 H   0  0  0  0  0  0  0  0  0  0  0  0
   -0.1879   -1.6142   -1.0342 H   0  0  0  0  0  0  0  0  0  0  0  0
  1  2  1  0  0  0  0
  1  3  1  0  0  0  0
  1  5  1  0  0  0  0
  2  8  1  0  0  0  0
  4  1  1  0  0  0  0
  6  2  1  0  0  0  0
  7  2  1  0  0  0  0
  9  6  1  0  0  0  0
  9 13  1  0  0  0  0
  9 12  1  0  0  0  0
 11  6  1  0  0  0  0
 14  9  1  0  0  0  0
M  RAD  2   6   2  10   2
M  END
$$$$
