14
butane_opt
C  -3.902263   0.172429  -0.205198
C  -2.735106  -0.499021   0.333389
H  -4.723348  -0.345742  -0.447192
H  -3.594145   0.641929  -1.084867
H  -4.011950   1.021977   0.786215
C  -1.423592   0.257768   0.188296
H  -2.512357  -1.048509  -0.464962
H  -2.950103  -1.238501   1.415515
C  -0.172474  -0.758925  -0.173711
H  -1.301970   0.786548   0.849750
H  -1.628779   0.724237  -0.686118
H   0.021386  -1.110498   0.495157
H   0.807396  -0.268405   0.216021
H  -0.298143  -1.705762  -1.330511
