butane_opt
 OpenBabel08242015403D

 14 10  0  0  0  0  0  0  0  0999 V2000
   -3.8793    0.1815    0.0731 C   0  0  0  0  0  0  0  0  0  0  0  0
   -2.7244   -0.5815   -0.0015 C   0  0  0  0  0  0  0  0  0  0  0  0
   -4.8070   -0.3366    0.0148 H   0  0  0  0  0  0  0  0  0  0  0  0
   -3.6021    0.6466   -0.8873 H   0  0  0  0  0  0  0  0  0  0  0  0
   -3.9741    1.0983    1.0628 H   0  0  0  0  0  0  0  0  0  0  0  0
   -1.4498    0.3041   -0.0006 C   0  0  0  0  0  0  0  0  0  0  0  0
   -2.8603   -1.4128   -1.0931 H   0  0  0  0  0  0  0  0  0  0  0  0
   -2.9108   -0.6578    0.3873 H   0  0  0  0  0  0  0  0  0  0  0  0
   -0.1524   -0.8012    0.0843 C   0  0  0  0  0  0  0  0  0  0  0  0
   -1.3165    0.9930    0.7881 H   0  0  0  0  0  0  0  0  0  0  0  0
   -1.4777    0.9933   -0.8513 H   0  0  0  0  0  0  0  0  0  0  0  0
    0.0934   -2.0371    1.3823 H   0  0  0  0  0  0  0  0  0  0  0  0
    0.6946   -0.1521   -0.6900 H   0  0  0  0  0  0  0  0  0  0  0  0
   -0.3596   -0.8723   -0.4095 H   0  0  0  0  0  0  0  0  0  0  0  0
  1  8  1  0  0  0  0
  1  5  1  0  0  0  0
  2  6  1  0  0  0  0
  3  1  1  0  0  0  0
  4  1  1  0  0  0  0
  6  9  1  0  0  0  0
  6 10  1  0  0  0  0
  7  2  1  0  0  0  0
 11  6  1  0  0  0  0
 13  9  1  0  0  0  0
M  RAD  4   2   3   9   3  12   2  14   2
M  END
$$$$
