14
butane_opt
C  -4.044182   0.231086  -0.104454
C  -2.673293  -0.571994   0.129282
H  -5.007532  -0.340450   0.919675
H  -4.055152   1.482901  -1.535138
H  -3.692523   0.103196   0.359844
C  -1.389905   0.178132   0.179247
H  -2.674146  -1.333249  -0.841741
H  -2.887883  -0.902930   0.921452
C  -0.111625  -0.700331  -0.108266
H  -1.299726   1.252084   1.242984
H  -1.456302   0.677442  -0.710090
H  -0.098779  -1.233943   0.661501
H   0.758570  -0.283879   0.224479
H   0.020173  -1.539671  -1.007418
