butane_opt
 OpenBabel08242015403D

 14  8  0  0  0  0  0  0  0  0999 V2000
   -3.9761    0.3315   -0.0841 C   0  0  0  0  0  0  0  0  0  0  0  0
   -2.6421   -0.6818    0.1755 C   0  0  0  0  0  0  0  0  0  0  0  0
   -5.0407   -0.2993   -0.1191 H   0  0  0  0  0  0  0  0  0  0  0  0
   -4.1415    1.1836   -1.0606 H   0  0  0  0  0  0  0  0  0  0  0  0
   -4.1017    0.7743    0.5499 H   0  0  0  0  0  0  0  0  0  0  0  0
   -1.3744    0.1448    0.0806 C   0  0  0  0  0  0  0  0  0  0  0  0
   -2.3037   -0.9689   -0.3805 H   0  0  0  0  0  0  0  0  0  0  0  0
   -2.6721   -1.6974    1.3703 H   0  0  0  0  0  0  0  0  0  0  0  0
   -0.2192   -0.6603   -0.1026 C   0  0  0  0  0  1  0  0  0  0  0  0
   -1.2154    0.7003    1.0453 H   0  0  0  0  0  0  0  0  0  0  0  0
   -1.2457    0.5265   -0.6086 H   0  0  0  0  0  0  0  0  0  0  0  0
   -0.4712   -0.5911    0.4756 H   0  0  0  0  0  0  0  0  0  0  0  0
    0.9009    0.1266    0.5694 H   0  0  0  0  0  0  0  0  0  0  0  0
   -0.1738   -1.8447   -1.3433 H   0  0  0  0  0  0  0  0  0  0  0  0
  1  2  1  0  0  0  0
  1  5  1  0  0  0  0
  3  1  1  0  0  0  0
  4  1  1  0  0  0  0
  6 10  1  0  0  0  0
  7  2  1  0  0  0  0
  9 12  1  0  0  0  0
 11  6  1  0  0  0  0
M  RAD  5   2   3   6   3   8   2  13   2  14   2
M  END
$$$$
