butane_opt
 OpenBabel08242015403D

 14 12  0  0  0  0  0  0  0  0999 V2000
   -3.9431    0.3342   -0.1234 C   0  0  0  0  0  0  0  0  0  0  0  0
   -2.6099   -0.7435    0.1373 C   0  0  0  0  0  0  0  0  0  0  0  0
   -4.6912   -0.1486    0.2354 H   0  0  0  0  0  0  0  0  0  0  0  0
   -4.1098    1.3509   -1.2101 H   0  0  0  0  0  0  0  0  0  0  0  0
   -4.1176    0.5291    0.3727 H   0  0  0  0  0  0  0  0  0  0  0  0
   -1.4004    0.1539    0.2224 C   0  0  0  0  0  0  0  0  0  0  0  0
   -2.6096   -1.2737   -0.5771 H   0  0  0  0  0  0  0  0  0  0  0  0
   -2.7491   -1.2760    1.1691 H   0  0  0  0  0  0  0  0  0  0  0  0
   -0.2467   -0.6502   -0.1007 C   0  0  0  0  0  0  0  0  0  0  0  0
   -1.3413    0.7700    1.0401 H   0  0  0  0  0  0  0  0  0  0  0  0
   -1.3819    0.7624   -0.6629 H   0  0  0  0  0  0  0  0  0  0  0  0
    0.1504   -0.8605    0.4227 H   0  0  0  0  0  0  0  0  0  0  0  0
    0.8878    0.0172    0.0087 H   0  0  0  0  0  0  0  0  0  0  0  0
   -0.6812   -1.4307   -1.0433 H   0  0  0  0  0  0  0  0  0  0  0  0
  1  2  1  0  0  0  0
  1  3  1  0  0  0  0
  2  6  1  0  0  0  0
  2  8  1  0  0  0  0
  4  1  1  0  0  0  0
  6 10  1  0  0  0  0
  7  2  1  0  0  0  0
  9 13  1  0  0  0  0
  9  6  1  0  0  0  0
  9 12  1  0  0  0  0
 11  6  1  0  0  0  0
 14  9  1  0  0  0  0
M  RAD  2   1   2   5   2
M  END
$$$$
