14
butane_opt
C  -3.937511   0.356460   0.166403
C  -2.707735  -0.691655  -0.177933
H  -4.866421  -0.310391   0.057549
H  -4.175117   0.636091  -0.510842
H  -4.064894   1.303428   1.205989
C  -1.407631   0.124049  -0.038419
H  -2.677047  -1.726415  -1.259812
H  -2.776349  -1.111655   0.528404
C  -0.151973  -0.646087   0.158249
H  -1.208572   0.618819   0.548270
H  -1.264883   1.054367  -1.163357
H  -0.004810  -2.062777   1.597932
H   0.997312   0.224244  -0.510028
H  -0.550895  -0.765366  -0.198438
