14
butane_opt
C  -3.928011   0.225721   0.203155
C  -2.752452  -0.573158  -0.144940
H  -5.073763  -0.458322   0.434898
H  -4.216097   0.553636  -0.485304
H  -3.840474   1.093261   1.155217
C  -1.445922   0.232174  -0.284514
H  -3.027434  -1.342148  -1.084910
H  -2.651130  -1.161469   0.706972
C  -0.041376  -0.716376   0.236864
H  -1.549069   0.905050   0.538079
H  -1.579494   1.093865  -1.179165
H  -0.354829  -1.430377   1.206168
H   0.859496  -0.070687   0.696449
H   0.428086  -1.723767  -0.642399
