14
butane_opt
C  -3.960782   0.360862  -0.177172
C  -2.703898  -0.729996   0.215260
H  -4.916737  -0.439980  -0.120430
H  -4.054369   1.203649  -1.262306
H  -4.257035   0.864023   0.546166
C  -1.334309   0.175470   0.262293
H  -2.463544  -1.415118  -0.513489
H  -2.955897  -1.435769   1.073962
C  -0.181201  -0.654098  -0.173966
H  -1.059381   1.212262   1.279391
H  -1.590030   0.357674  -0.393849
H   0.214453  -1.550867   0.895290
H   0.732536  -0.109494  -0.623842
H  -0.515683  -0.949492  -0.916375
