14
butane_opt
C  -3.867934   0.307751  -0.063156
C  -2.637979  -0.707053   0.050510
H  -4.892054  -0.171683   0.001725
H  -4.156531   0.879167  -0.925708
H  -3.963935   0.979289   0.854635
C  -1.430501   0.144699   0.136334
H  -2.470383  -1.195448  -0.746744
H  -2.961003  -1.288372   0.993336
C  -0.209775  -0.663432  -0.018296
H  -1.511839   1.084317   1.043240
H  -1.555887   0.510994  -0.665896
H   0.217072  -1.521875   0.914850
H   0.740320  -0.016331  -0.633555
H  -0.712727  -0.705188  -0.586634
