butane_opt
 OpenBabel08242015403D

 14 13  0  0  0  0  0  0  0  0999 V2000
   -3.9823    0.2607   -0.1419 C   0  0  0  0  0  0  0  0  0  0  0  0
   -2.6599   -0.6510    0.2670 C   0  0  0  0  0  0  0  0  0  0  0  0
   -4.9326   -0.4742   -0.6707 H   0  0  0  0  0  0  0  0  0  0  0  0
   -3.7974    0.5122   -0.9089 H   0  0  0  0  0  0  0  0  0  0  0  0
   -4.4175    1.1460    0.8424 H   0  0  0  0  0  0  0  0  0  0  0  0
   -1.3992    0.2413    0.1396 C   0  0  0  0  0  0  0  0  0  0  0  0
   -2.5824   -1.2115   -0.5470 H   0  0  0  0  0  0  0  0  0  0  0  0
   -2.9542   -1.3184    1.2023 H   0  0  0  0  0  0  0  0  0  0  0  0
   -0.1396   -0.7134   -0.1221 C   0  0  0  0  0  0  0  0  0  0  0  0
   -1.3951    1.1255    1.1225 H   0  0  0  0  0  0  0  0  0  0  0  0
   -1.2769    1.0993   -0.7315 H   0  0  0  0  0  0  0  0  0  0  0  0
    0.3942   -1.3562    0.8095 H   0  0  0  0  0  0  0  0  0  0  0  0
    0.6409   -0.3306   -0.3242 H   0  0  0  0  0  0  0  0  0  0  0  0
   -0.4802   -1.3855   -1.0333 H   0  0  0  0  0  0  0  0  0  0  0  0
  1  2  1  0  0  0  0
  1  5  1  0  0  0  0
  2  8  1  0  0  0  0
  3  1  1  0  0  0  0
  4  1  1  0  0  0  0
  6  2  1  0  0  0  0
  6 10  1  0  0  0  0
  7  2  1  0  0  0  0
  9  6  1  0  0  0  0
  9 12  1  0  0  0  0
 11  6  1  0  0  0  0
 13  9  1  0  0  0  0
 14  9  1  0  0  0  0
M  END
$$$$
