14
butane_opt
C  -3.928026   0.243889   0.113184
C  -2.724944  -0.524521  -0.191788
H  -5.015163  -0.549676   1.095785
H  -4.207715   0.982564  -0.786341
H  -3.362364   0.367702   0.751971
C  -1.426038   0.245539  -0.065862
H  -2.991174  -1.348925  -1.067954
H  -2.435028  -0.933706   0.597525
C  -0.182462  -0.778721   0.199420
H  -1.491843   0.789586   0.626754
H  -1.036860   0.972101  -0.942005
H  -0.020908  -1.394593   0.953778
H   0.790937  -0.112158   0.129803
H  -0.096450  -1.487843  -0.628443
