butane_opt
 OpenBabel08242015403D

 14 13  0  0  0  0  0  0  0  0999 V2000
   -3.9023    0.1724   -0.2052 C   0  0  0  0  0  0  0  0  0  0  0  0
   -2.7351   -0.4990    0.3334 C   0  0  0  0  0  0  0  0  0  0  0  0
   -4.7233   -0.3457   -0.4472 H   0  0  0  0  0  0  0  0  0  0  0  0
   -3.5941    0.6419   -1.0849 H   0  0  0  0  0  0  0  0  0  0  0  0
   -4.0119    1.0220    0.7862 H   0  0  0  0  0  0  0  0  0  0  0  0
   -1.4236    0.2578    0.1883 C   0  0  0  0  0  0  0  0  0  0  0  0
   -2.5124   -1.0485   -0.4650 H   0  0  0  0  0  0  0  0  0  0  0  0
   -2.9501   -1.2385    1.4155 H   0  0  0  0  0  0  0  0  0  0  0  0
   -0.1725   -0.7589   -0.1737 C   0  0  0  0  0  0  0  0  0  0  0  0
   -1.3020    0.7865    0.8498 H   0  0  0  0  0  0  0  0  0  0  0  0
   -1.6288    0.7242   -0.6861 H   0  0  0  0  0  0  0  0  0  0  0  0
    0.0214   -1.1105    0.4952 H   0  0  0  0  0  0  0  0  0  0  0  0
    0.8074   -0.2684    0.2160 H   0  0  0  0  0  0  0  0  0  0  0  0
   -0.2981   -1.7058   -1.3305 H   0  0  0  0  0  0  0  0  0  0  0  0
  1  2  1  0  0  0  0
  1  5  1  0  0  0  0
  2  8  1  0  0  0  0
  3  1  1  0  0  0  0
  4  1  1  0  0  0  0
  6  2  1  0  0  0  0
  6 10  1  0  0  0  0
  7  2  1  0  0  0  0
  9  6  1  0  0  0  0
  9 13  1  0  0  0  0
  9 12  1  0  0  0  0
 11  6  1  0  0  0  0
 14  9  1  0  0  0  0
M  END
$$$$
