butane_opt
 OpenBabel08242015403D

 14 12  0  0  0  0  0  0  0  0999 V2000
   -3.9348    0.2332    0.1512 C   0  0  0  0  0  0  0  0  0  0  0  0
   -2.7603   -0.6137   -0.2142 C   0  0  0  0  0  0  0  0  0  0  0  0
   -4.8214   -0.3174    0.5372 H   0  0  0  0  0  0  0  0  0  0  0  0
   -4.3909    0.8271   -0.6250 H   0  0  0  0  0  0  0  0  0  0  0  0
   -3.5800    0.8406    1.0672 H   0  0  0  0  0  0  0  0  0  0  0  0
   -1.4372    0.2785   -0.0716 C   0  0  0  0  0  0  0  0  0  0  0  0
   -2.7606   -1.3690   -1.2058 H   0  0  0  0  0  0  0  0  0  0  0  0
   -2.6322   -1.3318    0.6178 H   0  0  0  0  0  0  0  0  0  0  0  0
   -0.1236   -0.7238    0.1999 C   0  0  0  0  0  0  0  0  0  0  0  0
   -1.5170    0.9697    0.7612 H   0  0  0  0  0  0  0  0  0  0  0  0
   -1.4425    0.9702   -1.0350 H   0  0  0  0  0  0  0  0  0  0  0  0
    0.0549   -1.8246    1.4092 H   0  0  0  0  0  0  0  0  0  0  0  0
    0.9763   -0.1760   -0.3215 H   0  0  0  0  0  0  0  0  0  0  0  0
    0.1268   -1.1103   -0.5122 H   0  0  0  0  0  0  0  0  0  0  0  0
  1  3  1  0  0  0  0
  1  5  1  0  0  0  0
  2  6  1  0  0  0  0
  2  1  1  0  0  0  0
  2  8  1  0  0  0  0
  4  1  1  0  0  0  0
  6  9  1  0  0  0  0
  6 10  1  0  0  0  0
  7  2  1  0  0  0  0
 11  6  1  0  0  0  0
 13  9  1  0  0  0  0
 14  9  1  0  0  0  0
M  RAD  2   9   2  12   2
M  END
$$$$
