butane_opt
 OpenBabel08242015403D

 14 10  0  0  0  0  0  0  0  0999 V2000
   -3.9188    0.1977    0.1097 C   0  0  0  0  0  0  0  0  0  0  0  0
   -2.7949   -0.5952   -0.1362 C   0  0  0  0  0  0  0  0  0  0  0  0
   -4.7767   -0.4513   -0.1161 H   0  0  0  0  0  0  0  0  0  0  0  0
   -4.0261    0.8531   -0.7298 H   0  0  0  0  0  0  0  0  0  0  0  0
   -3.8984    1.3146    1.1584 H   0  0  0  0  0  0  0  0  0  0  0  0
   -1.3849    0.2692    0.0182 C   0  0  0  0  0  0  0  0  0  0  0  0
   -3.1001   -1.3203   -0.9651 H   0  0  0  0  0  0  0  0  0  0  0  0
   -2.6575   -1.0338    0.6891 H   0  0  0  0  0  0  0  0  0  0  0  0
   -0.1060   -0.7244    0.1382 C   0  0  0  0  0  0  0  0  0  0  0  0
   -1.5881    0.7690    0.7620 H   0  0  0  0  0  0  0  0  0  0  0  0
   -1.3677    0.8985   -0.9644 H   0  0  0  0  0  0  0  0  0  0  0  0
    0.3138   -2.0163    1.2950 H   0  0  0  0  0  0  0  0  0  0  0  0
    0.6670   -0.4070   -0.8167 H   0  0  0  0  0  0  0  0  0  0  0  0
   -0.1237   -0.8272   -0.3934 H   0  0  0  0  0  0  0  0  0  0  0  0
  2  6  1  0  0  0  0
  2  1  1  0  0  0  0
  2  8  1  0  0  0  0
  3  1  1  0  0  0  0
  4  1  1  0  0  0  0
  6  9  1  0  0  0  0
  6 10  1  0  0  0  0
  7  2  1  0  0  0  0
 11  6  1  0  0  0  0
 13  9  1  0  0  0  0
M  RAD  5   1   2   5   2   9   3  12   2  14   2
M  END
$$$$
