butane_opt
 OpenBabel08242015403D

 14 11  0  0  0  0  0  0  0  0999 V2000
   -4.0442    0.2311   -0.1045 C   0  0  0  0  0  1  0  0  0  0  0  0
   -2.6733   -0.5720    0.1293 C   0  0  0  0  0  0  0  0  0  0  0  0
   -5.0075   -0.3404    0.9197 H   0  0  0  0  0  0  0  0  0  0  0  0
   -4.0552    1.4829   -1.5351 H   0  0  0  0  0  0  0  0  0  0  0  0
   -3.6925    0.1032    0.3598 H   0  0  0  0  0  0  0  0  0  0  0  0
   -1.3899    0.1781    0.1792 C   0  0  0  0  0  0  0  0  0  0  0  0
   -2.6741   -1.3332   -0.8417 H   0  0  0  0  0  0  0  0  0  0  0  0
   -2.8879   -0.9029    0.9215 H   0  0  0  0  0  0  0  0  0  0  0  0
   -0.1116   -0.7003   -0.1083 C   0  0  0  0  0  0  0  0  0  0  0  0
   -1.2997    1.2521    1.2430 H   0  0  0  0  0  0  0  0  0  0  0  0
   -1.4563    0.6774   -0.7101 H   0  0  0  0  0  0  0  0  0  0  0  0
   -0.0988   -1.2339    0.6615 H   0  0  0  0  0  0  0  0  0  0  0  0
    0.7586   -0.2839    0.2245 H   0  0  0  0  0  0  0  0  0  0  0  0
    0.0202   -1.5397   -1.0074 H   0  0  0  0  0  0  0  0  0  0  0  0
  1  3  1  0  0  0  0
  2  6  1  0  0  0  0
  2  5  1  0  0  0  0
  2  8  1  0  0  0  0
  6 10  1  0  0  0  0
  7  2  1  0  0  0  0
  9  6  1  0  0  0  0
  9 13  1  0  0  0  0
  9 12  1  0  0  0  0
 11  6  1  0  0  0  0
 14  9  1  0  0  0  0
M  RAD  1   4   2
M  END
$$$$
