14
butane_opt
C  -3.934801   0.233196   0.151175
C  -2.760314  -0.613681  -0.214226
H  -4.821425  -0.317397   0.537202
H  -4.390942   0.827114  -0.624988
H  -3.579977   0.840634   1.067155
C  -1.437199   0.278532  -0.071626
H  -2.760582  -1.369027  -1.205802
H  -2.632236  -1.331818   0.617800
C  -0.123620  -0.723836   0.199851
H  -1.516962   0.969652   0.761222
H  -1.442546   0.970181  -1.034963
H   0.054871  -1.824613   1.409157
H   0.976269  -0.176035  -0.321534
H   0.126786  -1.110330  -0.512212
