14
butane_opt
C  -3.957004   0.345572   0.227078
C  -2.684569  -0.688396  -0.178802
H  -4.717082  -0.193584   0.572616
H  -4.096361   1.077210  -0.550237
H  -3.793172   0.803534   0.942006
C  -1.390515   0.113675  -0.243199
H  -2.747864  -1.644846  -1.282641
H  -2.425204  -1.163157   0.601361
C  -0.214042  -0.617848   0.251231
H  -1.356580   0.699666   0.689217
H  -1.039775   0.801318  -1.204016
H  -0.500509  -1.228566   1.162735
H   0.733284  -0.078115   0.442241
H  -0.161785  -1.351530  -0.614634
