14
butane_opt
C  -3.951565   0.308465   0.145998
C  -2.649130  -0.713763  -0.068630
H  -4.788422  -0.071509   0.071294
H  -4.135337   0.492913  -0.432207
H  -3.637855   1.573857   1.383702
C  -1.413917   0.139536  -0.232716
H  -2.652773  -1.381009  -0.898930
H  -2.686077  -1.350886   0.897800
C  -0.188022  -0.617952   0.203245
H  -1.778088   0.584158   0.324075
H  -1.294176   0.870616  -1.229863
H  -0.761551  -1.134277   0.982383
H   0.835967   0.171448   0.502142
H   0.241481  -1.592261  -0.729712
