butane_opt
 OpenBabel08242015403D

 14 10  0  0  0  0  0  0  0  0999 V2000
   -3.8808    0.2527    0.1305 C   0  0  0  0  0  0  0  0  0  0  0  0
   -2.6958   -0.6091   -0.1061 C   0  0  0  0  0  0  0  0  0  0  0  0
   -4.8956   -0.5049    0.0152 H   0  0  0  0  0  0  0  0  0  0  0  0
   -4.2143    0.4516   -0.4642 H   0  0  0  0  0  0  0  0  0  0  0  0
   -3.8917    1.2412    1.3875 H   0  0  0  0  0  0  0  0  0  0  0  0
   -1.4204    0.2818   -0.1040 C   0  0  0  0  0  0  0  0  0  0  0  0
   -2.5702   -1.6519   -1.1432 H   0  0  0  0  0  0  0  0  0  0  0  0
   -2.5941   -0.9778    0.6329 H   0  0  0  0  0  0  0  0  0  0  0  0
   -0.1931   -0.7197    0.1452 C   0  0  0  0  0  0  0  0  0  0  0  0
   -1.7036    0.5537    0.4787 H   0  0  0  0  0  0  0  0  0  0  0  0
   -1.2566    0.9115   -1.1372 H   0  0  0  0  0  0  0  0  0  0  0  0
   -0.0248   -1.8900    1.4583 H   0  0  0  0  0  0  0  0  0  0  0  0
    0.7113   -0.1582   -0.1179 H   0  0  0  0  0  0  0  0  0  0  0  0
   -0.2603   -0.8984   -0.3523 H   0  0  0  0  0  0  0  0  0  0  0  0
  2  6  1  0  0  0  0
  2  1  1  0  0  0  0
  2  8  1  0  0  0  0
  3  1  1  0  0  0  0
  4  1  1  0  0  0  0
  6  9  1  0  0  0  0
  6 10  1  0  0  0  0
  7  2  1  0  0  0  0
 11  6  1  0  0  0  0
 13  9  1  0  0  0  0
M  RAD  5   1   2   5   2   9   3  12   2  14   2
M  END
$$$$
