14
butane_opt
C  -3.940816   0.274895   0.047492
C  -2.692109  -0.625399   0.000653
H  -4.823666  -0.330576   0.136781
H  -3.999133   0.916675  -0.853793
H  -3.912485   0.901816   0.883333
C  -1.402300   0.179613  -0.014724
H  -2.746863  -1.301504  -0.873348
H  -2.708751  -1.238317   0.895057
C  -0.170653  -0.686514   0.056450
H  -1.370490   0.851206   0.815273
H  -1.391960   0.772273  -0.904239
H  -0.213922  -1.317629   0.959294
H   0.715275  -0.111666   0.090004
H  -0.102980  -1.321277  -0.782518
