butane_opt
 OpenBabel08242015403D

 14  8  0  0  0  0  0  0  0  0999 V2000
   -3.9543    0.1822    0.1369 C   0  0  0  0  0  0  0  0  0  0  0  0
   -2.7236   -0.5145   -0.0734 C   0  0  0  0  0  0  0  0  0  0  0  0
   -4.9359   -0.4939   -0.2682 H   0  0  0  0  0  0  0  0  0  0  0  0
   -3.8222    0.3926   -0.4646 H   0  0  0  0  0  0  0  0  0  0  0  0
   -4.1332    1.3684    1.2948 H   0  0  0  0  0  0  0  0  0  0  0  0
   -1.3951    0.2751   -0.1263 C   0  0  0  0  0  0  0  0  0  0  0  0
   -3.0465   -1.5518   -1.0860 H   0  0  0  0  0  0  0  0  0  0  0  0
   -2.6839   -0.9459    0.7291 H   0  0  0  0  0  0  0  0  0  0  0  0
   -0.1024   -0.7733    0.1591 C   0  0  0  0  0  0  0  0  0  0  0  0
   -1.8939    0.7513    0.6287 H   0  0  0  0  0  0  0  0  0  0  0  0
   -1.3600    0.8688   -1.0311 H   0  0  0  0  0  0  0  0  0  0  0  0
    0.1338   -1.8619    1.4234 H   0  0  0  0  0  0  0  0  0  0  0  0
    0.7874   -0.0420   -0.5485 H   0  0  0  0  0  0  0  0  0  0  0  0
    0.0427   -0.9779   -0.3420 H   0  0  0  0  0  0  0  0  0  0  0  0
  2  1  1  0  0  0  0
  2  8  1  0  0  0  0
  3  1  1  0  0  0  0
  4  1  1  0  0  0  0
  6  9  1  0  0  0  0
  6 10  1  0  0  0  0
 11  6  1  0  0  0  0
 13  9  1  0  0  0  0
M  RAD  8   1   2   2   3   5   2   6   2   7   2   9   3  12   2  14   2
M  END
$$$$
