14
butane_opt
C  -3.964414   0.274190   0.048635
C  -2.697633  -0.625029  -0.007731
H  -4.848202  -0.291095   0.155878
H  -4.091785   0.893461  -0.821156
H  -3.910175   0.933721   0.927010
C  -1.393120   0.168816  -0.028477
H  -2.725603  -1.314030  -0.844260
H  -2.693381  -1.247037   0.871024
C  -0.154767  -0.685933   0.068275
H  -1.341739   0.868062   0.828013
H  -1.342226   0.832150  -0.959755
H  -0.193153  -1.288772   0.980358
H   0.778633  -0.108647   0.124802
H  -0.136811  -1.331914  -0.784395
