butane_opt
 OpenBabel08242015403D

 14 13  0  0  0  0  0  0  0  0999 V2000
   -3.9538    0.2489   -0.0072 C   0  0  0  0  0  0  0  0  0  0  0  0
   -2.7047   -0.6052    0.0571 C   0  0  0  0  0  0  0  0  0  0  0  0
   -4.8349   -0.3358    0.0310 H   0  0  0  0  0  0  0  0  0  0  0  0
   -3.9315    0.8918   -0.9468 H   0  0  0  0  0  0  0  0  0  0  0  0
   -4.0087    0.9373    0.8547 H   0  0  0  0  0  0  0  0  0  0  0  0
   -1.4066    0.1995    0.0537 C   0  0  0  0  0  0  0  0  0  0  0  0
   -2.6849   -1.2972   -0.7952 H   0  0  0  0  0  0  0  0  0  0  0  0
   -2.8028   -1.2145    0.9392 H   0  0  0  0  0  0  0  0  0  0  0  0
   -0.1464   -0.7053    0.0063 C   0  0  0  0  0  0  0  0  0  0  0  0
   -1.3444    0.8992    0.9218 H   0  0  0  0  0  0  0  0  0  0  0  0
   -1.4237    0.8199   -0.8537 H   0  0  0  0  0  0  0  0  0  0  0  0
   -0.0320   -1.3761    0.9529 H   0  0  0  0  0  0  0  0  0  0  0  0
    0.7662   -0.1339   -0.1350 H   0  0  0  0  0  0  0  0  0  0  0  0
   -0.1869   -1.3127   -0.8307 H   0  0  0  0  0  0  0  0  0  0  0  0
  1  3  1  0  0  0  0
  1  2  1  0  0  0  0
  1  5  1  0  0  0  0
  2  8  1  0  0  0  0
  4  1  1  0  0  0  0
  6  2  1  0  0  0  0
  6 10  1  0  0  0  0
  7  2  1  0  0  0  0
  9  6  1  0  0  0  0
  9 12  1  0  0  0  0
 11  6  1  0  0  0  0
 13  9  1  0  0  0  0
 14  9  1  0  0  0  0
M  END
$$$$
