14
butane_opt
C  -3.964988   0.361129   0.001721
C  -2.679508  -0.702427   0.068809
H  -5.001697  -0.463879   0.411831
H  -4.041918   1.326629  -1.141036
H  -4.032045   0.900941   0.604751
C  -1.357230   0.088128   0.026069
H  -2.394364  -1.385622  -0.689210
H  -2.855016  -1.455709   1.132056
C  -0.192448  -0.610470  -0.036369
H  -1.257655   0.886743   0.991122
H  -1.470547   0.654219  -0.862442
H  -0.544059  -0.955958   0.696157
H   0.856830   0.038642   0.598531
H   0.026242  -1.636480  -1.040009
