14
butane_opt
C  -3.937733   0.281752  -0.137218
C  -2.695793  -0.629672   0.167222
H  -4.673015  -0.162905   0.281053
H  -3.971011   1.250247  -1.277283
H  -3.988325   0.719777   0.565138
C  -1.368862   0.077622   0.147518
H  -2.538692  -0.827915  -0.265166
H  -2.862575  -1.524604   1.318353
C  -0.191534  -0.654453  -0.114387
H  -1.194559   0.946471   1.094558
H  -1.667413   0.742161  -0.700593
H  -0.370942  -0.629363   0.417486
H   0.773682   0.188440   0.512132
H  -0.232817  -2.078058  -1.340834
