butane_opt
 OpenBabel08242015403D

 14 10  0  0  0  0  0  0  0  0999 V2000
   -4.0183    0.2613    0.1204 C   0  0  0  0  0  0  0  0  0  0  0  0
   -2.6842   -0.5867   -0.0894 C   0  0  0  0  0  0  0  0  0  0  0  0
   -5.0216   -0.5699    0.0017 H   0  0  0  0  0  0  0  0  0  0  0  0
   -4.1969    0.7383   -0.6508 H   0  0  0  0  0  0  0  0  0  0  0  0
   -3.8981    0.7859    0.8068 H   0  0  0  0  0  0  0  0  0  0  0  0
   -1.3875    0.2349    0.0014 C   0  0  0  0  0  0  0  0  0  0  0  0
   -2.9123   -1.6749   -1.3204 H   0  0  0  0  0  0  0  0  0  0  0  0
   -2.6336   -0.8832    0.6718 H   0  0  0  0  0  0  0  0  0  0  0  0
   -0.0899   -0.7299    0.0778 C   0  0  0  0  0  0  0  0  0  0  0  0
   -1.3690    0.8724    0.8919 H   0  0  0  0  0  0  0  0  0  0  0  0
   -1.4732    1.0872   -0.9697 H   0  0  0  0  0  0  0  0  0  0  0  0
    0.0190   -2.0277    1.4556 H   0  0  0  0  0  0  0  0  0  0  0  0
    0.8258   -0.1755   -0.4372 H   0  0  0  0  0  0  0  0  0  0  0  0
   -0.1712   -0.7957   -0.2792 H   0  0  0  0  0  0  0  0  0  0  0  0
  1  5  1  0  0  0  0
  2  6  1  0  0  0  0
  2  1  1  0  0  0  0
  2  8  1  0  0  0  0
  3  1  1  0  0  0  0
  4  1  1  0  0  0  0
  6  9  1  0  0  0  0
  6 10  1  0  0  0  0
 11  6  1  0  0  0  0
 13  9  1  0  0  0  0
M  RAD  5   2   2   7   2   9   3  12   2  14   2
M  END
$$$$
