14
butane_opt
C  -3.972938   0.199401  -0.126654
C  -2.811681  -0.544139   0.166348
H  -4.908070  -0.291992   0.612198
H  -3.935852   1.470109  -1.572779
H  -3.672751   0.239059   0.300243
C  -1.424267   0.254683   0.220129
H  -2.647150  -1.456741  -0.823232
H  -2.882784  -1.065721   0.924348
C  -0.045962  -0.755150  -0.119198
H  -1.102401   1.183113   1.204529
H  -1.784537   0.746338  -0.603449
H   0.279898  -1.367865   0.790286
H   0.889799  -0.104914   0.003300
H  -0.227471  -1.656918  -1.102007
