butane_opt
 OpenBabel08242015403D

 14 10  0  0  0  0  0  0  0  0999 V2000
   -4.0041    0.2117   -0.0299 C   0  0  0  0  0  0  0  0  0  0  0  0
   -2.7258   -0.5846    0.0610 C   0  0  0  0  0  0  0  0  0  0  0  0
   -4.9735   -0.4752    0.5171 H   0  0  0  0  0  0  0  0  0  0  0  0
   -4.1859    1.4536   -1.3472 H   0  0  0  0  0  0  0  0  0  0  0  0
   -3.5903    0.3349    0.4957 H   0  0  0  0  0  0  0  0  0  0  0  0
   -1.3554    0.3002    0.0700 C   0  0  0  0  0  0  0  0  0  0  0  0
   -2.6719   -1.1999   -0.7061 H   0  0  0  0  0  0  0  0  0  0  0  0
   -2.9467   -1.3874    1.0263 H   0  0  0  0  0  0  0  0  0  0  0  0
   -0.1293   -0.7727    0.0063 C   0  0  0  0  0  0  0  0  0  0  0  0
   -1.5431    1.2711    1.1625 H   0  0  0  0  0  0  0  0  0  0  0  0
   -1.2905    0.7385   -0.6597 H   0  0  0  0  0  0  0  0  0  0  0  0
    0.2259   -0.9909    0.5695 H   0  0  0  0  0  0  0  0  0  0  0  0
    0.6312   -0.4270    0.1461 H   0  0  0  0  0  0  0  0  0  0  0  0
   -0.0749   -1.6569   -1.1586 H   0  0  0  0  0  0  0  0  0  0  0  0
  1  5  1  0  0  0  0
  1  3  1  0  0  0  0
  2  8  1  0  0  0  0
  6 10  1  0  0  0  0
  7  2  1  0  0  0  0
  9  6  1  0  0  0  0
  9 13  1  0  0  0  0
  9 12  1  0  0  0  0
 11  6  1  0  0  0  0
 14  9  1  0  0  0  0
M  RAD  4   1   3   2   3   4   2   6   2
M  END
$$$$
