butane_opt
 OpenBabel08242015403D

 14 13  0  0  0  0  0  0  0  0999 V2000
   -3.9454    0.2722   -0.0107 C   0  0  0  0  0  0  0  0  0  0  0  0
   -2.6908   -0.6125    0.0821 C   0  0  0  0  0  0  0  0  0  0  0  0
   -4.8480   -0.3182   -0.0899 H   0  0  0  0  0  0  0  0  0  0  0  0
   -3.8872    0.8290   -0.9028 H   0  0  0  0  0  0  0  0  0  0  0  0
   -3.9961    0.9535    0.8426 H   0  0  0  0  0  0  0  0  0  0  0  0
   -1.4140    0.1637    0.0375 C   0  0  0  0  0  0  0  0  0  0  0  0
   -2.6577   -1.2940   -0.7588 H   0  0  0  0  0  0  0  0  0  0  0  0
   -2.7183   -1.2547    0.9891 H   0  0  0  0  0  0  0  0  0  0  0  0
   -0.1688   -0.6841    0.0047 C   0  0  0  0  0  0  0  0  0  0  0  0
   -1.3158    0.8466    0.8846 H   0  0  0  0  0  0  0  0  0  0  0  0
   -1.4277    0.7989   -0.8385 H   0  0  0  0  0  0  0  0  0  0  0  0
   -0.1325   -1.2619    0.8917 H   0  0  0  0  0  0  0  0  0  0  0  0
    0.7510   -0.0785   -0.0511 H   0  0  0  0  0  0  0  0  0  0  0  0
   -0.1709   -1.3639   -0.8911 H   0  0  0  0  0  0  0  0  0  0  0  0
  1  2  1  0  0  0  0
  1  5  1  0  0  0  0
  2  8  1  0  0  0  0
  3  1  1  0  0  0  0
  4  1  1  0  0  0  0
  6  2  1  0  0  0  0
  6 10  1  0  0  0  0
  7  2  1  0  0  0  0
  9  6  1  0  0  0  0
  9 12  1  0  0  0  0
 11  6  1  0  0  0  0
 13  9  1  0  0  0  0
 14  9  1  0  0  0  0
M  END
$$$$
