butane_opt
 OpenBabel08242015403D

 14 11  0  0  0  0  0  0  0  0999 V2000
   -3.8794    0.2099   -0.1617 C   0  0  0  0  0  0  0  0  0  0  0  0
   -2.6865   -0.5960    0.2368 C   0  0  0  0  0  0  0  0  0  0  0  0
   -4.7516   -0.4345    0.3502 H   0  0  0  0  0  0  0  0  0  0  0  0
   -3.9995    1.2164   -1.2661 H   0  0  0  0  0  0  0  0  0  0  0  0
   -4.0295    0.9115    0.6319 H   0  0  0  0  0  0  0  0  0  0  0  0
   -1.4249    0.2089    0.1041 C   0  0  0  0  0  0  0  0  0  0  0  0
   -2.3909   -1.1155   -0.3770 H   0  0  0  0  0  0  0  0  0  0  0  0
   -2.8537   -1.4445    1.3729 H   0  0  0  0  0  0  0  0  0  0  0  0
   -0.2404   -0.7120   -0.1411 C   0  0  0  0  0  1  0  0  0  0  0  0
   -1.3636    1.1571    1.0709 H   0  0  0  0  0  0  0  0  0  0  0  0
   -1.4857    0.7443   -0.6439 H   0  0  0  0  0  0  0  0  0  0  0  0
   -0.2801   -0.7461    0.3824 H   0  0  0  0  0  0  0  0  0  0  0  0
    0.7971   -0.1014    0.6392 H   0  0  0  0  0  0  0  0  0  0  0  0
    0.1390   -1.9999   -1.2381 H   0  0  0  0  0  0  0  0  0  0  0  0
  1  2  1  0  0  0  0
  1  3  1  0  0  0  0
  1  5  1  0  0  0  0
  2  8  1  0  0  0  0
  4  1  1  0  0  0  0
  6  2  1  0  0  0  0
  6 12  1  0  0  0  0
  6 10  1  0  0  0  0
  7  2  1  0  0  0  0
  9 13  1  0  0  0  0
 11  6  1  0  0  0  0
M  RAD  1  14   2
M  END
$$$$
