14
butane_opt
C  -3.946409   0.233741   0.137944
C  -2.653401  -0.597335  -0.163182
H  -4.752768  -0.196485   0.896223
H  -4.493764   1.473202  -0.960614
H  -3.607623   0.741258   0.823111
C  -1.441334   0.132594  -0.068382
H  -2.892967  -1.517628  -1.215145
H  -2.485530  -1.078553   0.610850
C  -0.157341  -0.661173   0.194095
H  -1.515687   0.670659   0.498737
H  -1.109982   0.736742  -1.009706
H  -0.180348  -1.228377   1.042522
H   0.879708   0.038538   0.266712
H  -0.460166  -1.374968  -0.751198
