14
butane_opt
C  -3.975579   0.296707   0.114256
C  -2.662627  -0.663791  -0.037810
H  -4.682780  -0.109207  -0.584855
H  -3.689145   0.246112  -0.229962
H  -4.228448   1.884039   1.674869
C  -1.435985   0.091490  -0.133314
H  -2.509822  -1.317424  -0.936000
H  -2.800559  -1.279658   0.837820
C  -0.160902  -0.628414   0.156347
H  -1.423410   0.325594   0.328225
H  -1.272697   0.912162  -1.203795
H  -0.271164  -1.510021   1.221651
H   0.851266   0.263376  -0.188381
H  -0.225037  -1.001363  -0.530616
