butane_opt
 OpenBabel08242015403D

 14 12  0  0  0  0  0  0  0  0999 V2000
   -3.8762    0.2633   -0.1184 C   0  0  0  0  0  0  0  0  0  0  0  0
   -2.6687   -0.6528    0.2122 C   0  0  0  0  0  0  0  0  0  0  0  0
   -4.7100   -0.2820   -0.6815 H   0  0  0  0  0  0  0  0  0  0  0  0
   -3.5507    0.7590   -0.9317 H   0  0  0  0  0  0  0  0  0  0  0  0
   -4.5627    1.3891    1.0437 H   0  0  0  0  0  0  0  0  0  0  0  0
   -1.3818    0.1454    0.1321 C   0  0  0  0  0  0  0  0  0  0  0  0
   -2.6619   -1.0558   -0.3454 H   0  0  0  0  0  0  0  0  0  0  0  0
   -2.8336   -1.3891    1.2155 H   0  0  0  0  0  0  0  0  0  0  0  0
   -0.2424   -0.6808   -0.0799 C   0  0  0  0  0  0  0  0  0  0  0  0
   -1.3949    0.6596    0.8718 H   0  0  0  0  0  0  0  0  0  0  0  0
   -1.7198    0.9869   -0.7279 H   0  0  0  0  0  0  0  0  0  0  0  0
    0.0955   -1.0475    0.5537 H   0  0  0  0  0  0  0  0  0  0  0  0
    0.7362    0.1195   -0.2077 H   0  0  0  0  0  0  0  0  0  0  0  0
   -0.4010   -1.5112   -1.0832 H   0  0  0  0  0  0  0  0  0  0  0  0
  1  2  1  0  0  0  0
  2  8  1  0  0  0  0
  3  1  1  0  0  0  0
  4  1  1  0  0  0  0
  6  2  1  0  0  0  0
  6 10  1  0  0  0  0
  7  2  1  0  0  0  0
  9  6  1  0  0  0  0
  9 12  1  0  0  0  0
 11  6  1  0  0  0  0
 13  9  1  0  0  0  0
 14  9  1  0  0  0  0
M  RAD  2   1   2   5   2
M  END
$$$$
