14
butane_opt
C  -4.066472   0.341547  -0.122658
C  -2.642487  -0.699657   0.247248
H  -4.782025  -0.187259  -0.186218
H  -3.990277   1.112023  -1.208927
H  -3.994324   0.718980   0.599651
C  -1.385808   0.066403   0.110617
H  -2.559342  -1.235214  -0.491496
H  -2.826691  -1.244419   1.263350
C  -0.145449  -0.588866  -0.088360
H  -1.039525   0.654492   0.994415
H  -1.571367   0.768780  -0.803090
H  -0.103307  -0.529501   0.425273
H   0.748574  -0.119039   0.398964
H  -0.086713  -1.827987  -1.397492
