butane_opt
 OpenBabel08242015403D

 14 13  0  0  0  0  0  0  0  0999 V2000
   -3.8616    0.2079   -0.1064 C   0  0  0  0  0  0  0  0  0  0  0  0
   -2.6939   -0.5473    0.1136 C   0  0  0  0  0  0  0  0  0  0  0  0
   -4.8802   -0.4024    0.1362 H   0  0  0  0  0  0  0  0  0  0  0  0
   -3.9726    0.9942   -1.1899 H   0  0  0  0  0  0  0  0  0  0  0  0
   -3.9765    0.6029    0.6076 H   0  0  0  0  0  0  0  0  0  0  0  0
   -1.4401    0.2411    0.1929 C   0  0  0  0  0  0  0  0  0  0  0  0
   -2.4057   -1.3240   -0.7669 H   0  0  0  0  0  0  0  0  0  0  0  0
   -2.6590   -1.0995    0.9781 H   0  0  0  0  0  0  0  0  0  0  0  0
   -0.2325   -0.7159   -0.0501 C   0  0  0  0  0  0  0  0  0  0  0  0
   -1.4845    0.8947    1.1311 H   0  0  0  0  0  0  0  0  0  0  0  0
   -1.3506    0.6846   -0.4641 H   0  0  0  0  0  0  0  0  0  0  0  0
    0.3490   -1.5293    0.9637 H   0  0  0  0  0  0  0  0  0  0  0  0
    0.5999   -0.1729   -0.8773 H   0  0  0  0  0  0  0  0  0  0  0  0
   -0.4695   -1.3542   -0.9211 H   0  0  0  0  0  0  0  0  0  0  0  0
  1  2  1  0  0  0  0
  1  3  1  0  0  0  0
  1  5  1  0  0  0  0
  2  6  1  0  0  0  0
  2  8  1  0  0  0  0
  4  1  1  0  0  0  0
  6 10  1  0  0  0  0
  7  2  1  0  0  0  0
  9  6  1  0  0  0  0
  9 12  1  0  0  0  0
 11  6  1  0  0  0  0
 13  9  1  0  0  0  0
 14  9  1  0  0  0  0
M  END
$$$$
