14
butane_opt
C  -3.930374   0.225515   0.148040
C  -2.790004  -0.620228  -0.029569
H  -4.723965  -0.252360  -0.519088
H  -3.836180   0.698595  -0.629862
H  -4.042703   1.380669   1.333154
C  -1.396100   0.231021  -0.105968
H  -3.036009  -1.551814  -1.007919
H  -2.591548  -0.892725   0.482262
C  -0.108059  -0.708886   0.148211
H  -1.613297   0.810686   0.516558
H  -1.268979   0.863589  -1.133342
H   0.106799  -1.868254   1.261094
H   0.793936  -0.199117  -0.359056
H  -0.135903  -0.955890  -0.375634
