butane_opt
 OpenBabel08242015403D

 14 13  0  0  0  0  0  0  0  0999 V2000
   -3.9290    0.2584    0.0222 C   0  0  0  0  0  0  0  0  0  0  0  0
   -2.6968   -0.6039    0.0274 C   0  0  0  0  0  0  0  0  0  0  0  0
   -4.8719   -0.3743    0.0221 H   0  0  0  0  0  0  0  0  0  0  0  0
   -3.9332    0.8448   -0.8667 H   0  0  0  0  0  0  0  0  0  0  0  0
   -3.8974    0.9267    0.8784 H   0  0  0  0  0  0  0  0  0  0  0  0
   -1.4139    0.2008    0.0115 C   0  0  0  0  0  0  0  0  0  0  0  0
   -2.7811   -1.3385   -0.8623 H   0  0  0  0  0  0  0  0  0  0  0  0
   -2.6876   -1.2293    0.8983 H   0  0  0  0  0  0  0  0  0  0  0  0
   -0.1738   -0.7087    0.0373 C   0  0  0  0  0  0  0  0  0  0  0  0
   -1.3991    0.9194    0.9075 H   0  0  0  0  0  0  0  0  0  0  0  0
   -1.3990    0.8155   -0.8488 H   0  0  0  0  0  0  0  0  0  0  0  0
   -0.0570   -1.4165    1.0042 H   0  0  0  0  0  0  0  0  0  0  0  0
    0.7117   -0.1397   -0.1226 H   0  0  0  0  0  0  0  0  0  0  0  0
   -0.1461   -1.2379   -0.7461 H   0  0  0  0  0  0  0  0  0  0  0  0
  1  2  1  0  0  0  0
  1  5  1  0  0  0  0
  2  8  1  0  0  0  0
  3  1  1  0  0  0  0
  4  1  1  0  0  0  0
  6  2  1  0  0  0  0
  6  9  1  0  0  0  0
  6 10  1  0  0  0  0
  7  2  1  0  0  0  0
  9 12  1  0  0  0  0
 11  6  1  0  0  0  0
 13  9  1  0  0  0  0
 14  9  1  0  0  0  0
M  END
$$$$
