butane_opt
 OpenBabel08242015403D

 14 12  0  0  0  0  0  0  0  0999 V2000
   -3.9591    0.1987   -0.1164 C   0  0  0  0  0  0  0  0  0  0  0  0
   -2.7672   -0.5269    0.0969 C   0  0  0  0  0  0  0  0  0  0  0  0
   -4.7013   -0.3973    0.0532 H   0  0  0  0  0  0  0  0  0  0  0  0
   -3.7492    0.8905   -1.1066 H   0  0  0  0  0  0  0  0  0  0  0  0
   -4.0870    0.7130    0.5842 H   0  0  0  0  0  0  0  0  0  0  0  0
   -1.3809    0.1998    0.1976 C   0  0  0  0  0  0  0  0  0  0  0  0
   -2.6170   -0.9457   -0.5398 H   0  0  0  0  0  0  0  0  0  0  0  0
   -3.1414   -1.3534    1.1740 H   0  0  0  0  0  0  0  0  0  0  0  0
   -0.0893   -0.7479   -0.0909 C   0  0  0  0  0  0  0  0  0  0  0  0
   -1.5519    1.3726    1.3977 H   0  0  0  0  0  0  0  0  0  0  0  0
   -1.5840    0.8118   -0.4211 H   0  0  0  0  0  0  0  0  0  0  0  0
    0.4667   -1.5596    0.8891 H   0  0  0  0  0  0  0  0  0  0  0  0
    0.7759   -0.2699   -0.7836 H   0  0  0  0  0  0  0  0  0  0  0  0
   -0.4752   -1.2251   -0.8385 H   0  0  0  0  0  0  0  0  0  0  0  0
  1  3  1  0  0  0  0
  1  2  1  0  0  0  0
  1  5  1  0  0  0  0
  2  6  1  0  0  0  0
  2  8  1  0  0  0  0
  4  1  1  0  0  0  0
  7  2  1  0  0  0  0
  9  6  1  0  0  0  0
  9 12  1  0  0  0  0
 11  6  1  0  0  0  0
 13  9  1  0  0  0  0
 14  9  1  0  0  0  0
M  RAD  2   6   2  10   2
M  END
$$$$
