butane_opt
 OpenBabel08242015403D

 14 13  0  0  0  0  0  0  0  0999 V2000
   -3.9352    0.3067   -0.0629 C   0  0  0  0  0  0  0  0  0  0  0  0
   -2.6365   -0.6278    0.1975 C   0  0  0  0  0  0  0  0  0  0  0  0
   -4.9254   -0.5602   -0.3888 H   0  0  0  0  0  0  0  0  0  0  0  0
   -3.7022    0.7611   -0.9084 H   0  0  0  0  0  0  0  0  0  0  0  0
   -4.3582    1.0532    0.8452 H   0  0  0  0  0  0  0  0  0  0  0  0
   -1.3810    0.1082    0.0401 C   0  0  0  0  0  0  0  0  0  0  0  0
   -2.6990   -0.9956   -0.6214 H   0  0  0  0  0  0  0  0  0  0  0  0
   -2.6558   -1.1123    1.0253 H   0  0  0  0  0  0  0  0  0  0  0  0
   -0.2447   -0.6635   -0.0567 C   0  0  0  0  0  0  0  0  0  0  0  0
   -1.3203    0.9936    1.0327 H   0  0  0  0  0  0  0  0  0  0  0  0
   -1.2783    0.5882   -0.7291 H   0  0  0  0  0  0  0  0  0  0  0  0
   -0.1475   -1.3718    0.8323 H   0  0  0  0  0  0  0  0  0  0  0  0
    0.7585   -0.0100    0.0103 H   0  0  0  0  0  0  0  0  0  0  0  0
   -0.3086   -1.3460   -1.0569 H   0  0  0  0  0  0  0  0  0  0  0  0
  1  2  1  0  0  0  0
  1  5  1  0  0  0  0
  2  8  1  0  0  0  0
  3  1  1  0  0  0  0
  4  1  1  0  0  0  0
  6  2  1  0  0  0  0
  6 10  1  0  0  0  0
  7  2  1  0  0  0  0
  9 13  1  0  0  0  0
  9  6  1  0  0  0  0
  9 12  1  0  0  0  0
 11  6  1  0  0  0  0
 14  9  1  0  0  0  0
M  END
$$$$
