butane_opt
 OpenBabel08242015403D

 14 10  0  0  0  0  0  0  0  0999 V2000
   -3.9756    0.2967    0.1143 C   0  0  0  0  0  1  0  0  0  0  0  0
   -2.6626   -0.6638   -0.0378 C   0  0  0  0  0  0  0  0  0  0  0  0
   -4.6828   -0.1092   -0.5849 H   0  0  0  0  0  0  0  0  0  0  0  0
   -3.6891    0.2461   -0.2300 H   0  0  0  0  0  0  0  0  0  0  0  0
   -4.2284    1.8840    1.6749 H   0  0  0  0  0  0  0  0  0  0  0  0
   -1.4360    0.0915   -0.1333 C   0  0  0  0  0  0  0  0  0  0  0  0
   -2.5098   -1.3174   -0.9360 H   0  0  0  0  0  0  0  0  0  0  0  0
   -2.8006   -1.2797    0.8378 H   0  0  0  0  0  0  0  0  0  0  0  0
   -0.1609   -0.6284    0.1563 C   0  0  0  0  0  0  0  0  0  0  0  0
   -1.4234    0.3256    0.3282 H   0  0  0  0  0  0  0  0  0  0  0  0
   -1.2727    0.9122   -1.2038 H   0  0  0  0  0  0  0  0  0  0  0  0
   -0.2712   -1.5100    1.2217 H   0  0  0  0  0  0  0  0  0  0  0  0
    0.8513    0.2634   -0.1884 H   0  0  0  0  0  0  0  0  0  0  0  0
   -0.2250   -1.0014   -0.5306 H   0  0  0  0  0  0  0  0  0  0  0  0
  2  8  1  0  0  0  0
  3  1  1  0  0  0  0
  4  2  1  0  0  0  0
  6  2  1  0  0  0  0
  6  9  1  0  0  0  0
  7  2  1  0  0  0  0
  9 12  1  0  0  0  0
 11  6  1  0  0  0  0
 13  9  1  0  0  0  0
 14  9  1  0  0  0  0
M  RAD  3   5   2   6   2  10   2
M  END
$$$$
