14
butane_opt
C  -3.948130   0.268089   0.008377
C  -2.695398  -0.634305   0.053264
H  -4.818013  -0.284051  -0.039635
H  -3.966511   0.924088  -0.917875
H  -4.015471   0.927765   0.850148
C  -1.402665   0.189161   0.037806
H  -2.666187  -1.356742  -0.815657
H  -2.731443  -1.216411   0.928385
C  -0.164283  -0.692963   0.016443
H  -1.370569   0.871104   0.862774
H  -1.432518   0.797670  -0.823224
H  -0.088107  -1.359203   0.947269
H   0.777842  -0.053956  -0.112580
H  -0.191548  -1.273494  -0.825401
