14
butane_opt
C  -4.004084   0.211653  -0.029931
C  -2.725784  -0.584558   0.061027
H  -4.973455  -0.475199   0.517083
H  -4.185888   1.453634  -1.347241
H  -3.590251   0.334852   0.495660
C  -1.355362   0.300205   0.070015
H  -2.671911  -1.199858  -0.706143
H  -2.946738  -1.387443   1.026253
C  -0.129341  -0.772663   0.006336
H  -1.543101   1.271066   1.162523
H  -1.290463   0.738487  -0.659746
H   0.225949  -0.990898   0.569539
H   0.631221  -0.427013   0.146094
H  -0.074922  -1.656912  -1.158638
