14
butane_opt
C  -3.965193   0.336874   0.164598
C  -2.656275  -0.638147  -0.069185
H  -4.919195  -0.504009  -0.184457
H  -3.830698   0.432166  -0.253468
H  -4.209765   1.590659   1.420998
C  -1.323850   0.128902  -0.280980
H  -2.912210  -1.552122  -0.990768
H  -2.427602  -1.410349   0.822834
C  -0.231716  -0.656525   0.193946
H  -1.626150   0.798335   0.615435
H  -1.215864   0.750353  -1.036948
H  -0.606559  -1.541773   1.277153
H   0.851520   0.066425   0.273163
H  -0.009066  -1.132627  -0.544542
