14
butane_opt
C  -3.920050   0.174880   0.130296
C  -2.719598  -0.567332  -0.013923
H  -4.769327  -0.307446  -0.921667
H  -3.701902   0.464222  -0.507006
H  -4.158321   1.658422   1.290392
C  -1.410653   0.257737  -0.108496
H  -2.948217  -1.039463  -0.749470
H  -2.683593  -1.266860   0.909087
C  -0.166911  -0.750962   0.106537
H  -1.253476   0.708994   0.710203
H  -1.425252   0.830861  -0.977948
H  -0.060326  -1.669230   1.137247
H   0.671277  -0.214422  -0.205518
H  -0.056447  -1.028863  -0.550165
