14
butane_opt
C  -3.958560   0.190949  -0.104598
C  -2.710579  -0.563263   0.180758
H  -4.931981  -0.386317   0.104128
H  -3.824557   1.487949  -1.334392
H  -3.864960   0.397682   0.406279
C  -1.377008   0.228485   0.183494
H  -2.668876  -1.206123  -0.556379
H  -3.079405  -1.010457   1.105355
C  -0.146646  -0.732175  -0.144468
H  -1.212445   1.216262   1.210282
H  -1.555340   0.765721  -0.565282
H  -0.068216  -1.266924   0.704646
H   0.528966  -0.370332   0.033600
H  -0.002691  -1.648321  -1.131113
