butane_opt
 OpenBabel08242015403D

 14 11  0  0  0  0  0  0  0  0999 V2000
   -3.9453    0.2650    0.1846 C   0  0  0  0  0  0  0  0  0  0  0  0
   -2.6484   -0.6179   -0.0741 C   0  0  0  0  0  0  0  0  0  0  0  0
   -4.9764   -0.4806    0.2050 H   0  0  0  0  0  0  0  0  0  0  0  0
   -3.7592    0.8868   -0.7991 H   0  0  0  0  0  0  0  0  0  0  0  0
   -3.6026    0.9266    1.0489 H   0  0  0  0  0  0  0  0  0  0  0  0
   -1.4357    0.1704   -0.1789 C   0  0  0  0  0  0  0  0  0  0  0  0
   -2.6720   -1.2826   -0.9019 H   0  0  0  0  0  0  0  0  0  0  0  0
   -2.6031   -1.0819    0.7868 H   0  0  0  0  0  0  0  0  0  0  0  0
   -0.2027   -0.6903    0.2040 C   0  0  0  0  0  0  0  0  0  0  0  0
   -1.8364    0.5654    0.4743 H   0  0  0  0  0  0  0  0  0  0  0  0
   -1.2717    1.1333   -1.4118 H   0  0  0  0  0  0  0  0  0  0  0  0
   -0.5147   -0.7837    0.8310 H   0  0  0  0  0  0  0  0  0  0  0  0
    0.7236   -0.0536    0.6658 H   0  0  0  0  0  0  0  0  0  0  0  0
    0.2334   -1.8584   -1.1564 H   0  0  0  0  0  0  0  0  0  0  0  0
  1  3  1  0  0  0  0
  1  5  1  0  0  0  0
  2  1  1  0  0  0  0
  2  8  1  0  0  0  0
  4  1  1  0  0  0  0
  6  2  1  0  0  0  0
  6  9  1  0  0  0  0
  6 10  1  0  0  0  0
  7  2  1  0  0  0  0
  9 13  1  0  0  0  0
  9 12  1  0  0  0  0
M  RAD  4   6   2   9   2  11   2  14   2
M  END
$$$$
