14
butane_opt
C  -3.945232   0.257398   0.038186
C  -2.715057  -0.609070   0.022050
H  -4.867694  -0.345474   0.053725
H  -3.974640   0.819197  -0.816885
H  -3.902280   0.975175   0.940514
C  -1.403491   0.203258  -0.023908
H  -2.766675  -1.305842  -0.823981
H  -2.761064  -1.190021   0.901566
C  -0.142100  -0.709523   0.058541
H  -1.445181   0.813885   0.778439
H  -1.386242   0.869047  -0.941977
H  -0.183045  -1.280906   0.958229
H   0.768408  -0.113478   0.081002
H  -0.037910  -1.421831  -0.833575
