14
butane_opt
C  -4.027121   0.323461  -0.122064
C  -2.646473  -0.650438   0.168963
H  -4.885393  -0.197708   0.132237
H  -3.940718   1.169710  -1.059162
H  -4.427040   0.670235   0.312156
C  -1.385173   0.078788   0.234998
H  -2.453917  -1.543207  -0.732009
H  -2.705099  -1.190078   0.939208
C  -0.168995  -0.624357  -0.130542
H  -0.974059   0.859755   1.219062
H  -1.330278   0.654655  -0.598102
H  -0.019923  -1.424392   0.827764
H   0.819740   0.060053  -0.462385
H  -0.391922  -1.042034  -0.936173
