14
butane_opt
C  -3.879429   0.209945  -0.161696
C  -2.686454  -0.595984   0.236808
H  -4.751612  -0.434546   0.350177
H  -3.999507   1.216429  -1.266135
H  -4.029453   0.911507   0.631929
C  -1.424939   0.208945   0.104083
H  -2.390875  -1.115456  -0.377029
H  -2.853663  -1.444527   1.372876
C  -0.240362  -0.712003  -0.141106
H  -1.363615   1.157059   1.070937
H  -1.485712   0.744341  -0.643928
H  -0.280147  -0.746138   0.382394
H   0.797134  -0.101432   0.639223
H   0.139047  -1.999919  -1.238115
