butane_opt
 OpenBabel08242015403D

 14  8  0  0  0  0  0  0  0  0999 V2000
   -3.8501    0.3290   -0.0905 C   0  0  0  0  0  1  0  0  0  0  0  0
   -2.6655   -0.6898    0.1406 C   0  0  0  0  0  0  0  0  0  0  0  0
   -5.0114   -0.3656    0.4314 H   0  0  0  0  0  0  0  0  0  0  0  0
   -4.2175    1.6167   -1.3669 H   0  0  0  0  0  0  0  0  0  0  0  0
   -3.7166    0.2609    0.4118 H   0  0  0  0  0  0  0  0  0  0  0  0
   -1.4089    0.1469    0.1723 C   0  0  0  0  0  0  0  0  0  0  0  0
   -2.4306   -1.2107   -0.6909 H   0  0  0  0  0  0  0  0  0  0  0  0
   -3.0457   -1.3662    1.1232 H   0  0  0  0  0  0  0  0  0  0  0  0
   -0.2476   -0.6650   -0.0996 C   0  0  0  0  0  0  0  0  0  0  0  0
   -1.2868    0.9409    1.1376 H   0  0  0  0  0  0  0  0  0  0  0  0
   -1.4598    0.8935   -0.7893 H   0  0  0  0  0  0  0  0  0  0  0  0
   -0.3275   -0.7853    0.4976 H   0  0  0  0  0  0  0  0  0  0  0  0
    0.7092    0.0310    0.3928 H   0  0  0  0  0  0  0  0  0  0  0  0
   -0.1754   -1.9673   -1.3024 H   0  0  0  0  0  0  0  0  0  0  0  0
  1  3  1  0  0  0  0
  2  5  1  0  0  0  0
  2  8  1  0  0  0  0
  6 10  1  0  0  0  0
  7  2  1  0  0  0  0
  9  6  1  0  0  0  0
  9 13  1  0  0  0  0
 11  6  1  0  0  0  0
M  RAD  6   2   2   4   2   6   2   9   3  12   2  14   2
M  END
$$$$
