butane_opt
 OpenBabel08242015403D

 14  9  0  0  0  0  0  0  0  0999 V2000
   -3.9304    0.2255    0.1480 C   0  0  0  0  0  0  0  0  0  0  0  0
   -2.7900   -0.6202   -0.0296 C   0  0  0  0  0  0  0  0  0  0  0  0
   -4.7240   -0.2524   -0.5191 H   0  0  0  0  0  0  0  0  0  0  0  0
   -3.8362    0.6986   -0.6299 H   0  0  0  0  0  0  0  0  0  0  0  0
   -4.0427    1.3807    1.3332 H   0  0  0  0  0  0  0  0  0  0  0  0
   -1.3961    0.2310   -0.1060 C   0  0  0  0  0  0  0  0  0  0  0  0
   -3.0360   -1.5518   -1.0079 H   0  0  0  0  0  0  0  0  0  0  0  0
   -2.5915   -0.8927    0.4823 H   0  0  0  0  0  0  0  0  0  0  0  0
   -0.1081   -0.7089    0.1482 C   0  0  0  0  0  0  0  0  0  0  0  0
   -1.6133    0.8107    0.5166 H   0  0  0  0  0  0  0  0  0  0  0  0
   -1.2690    0.8636   -1.1333 H   0  0  0  0  0  0  0  0  0  0  0  0
    0.1068   -1.8683    1.2611 H   0  0  0  0  0  0  0  0  0  0  0  0
    0.7939   -0.1991   -0.3591 H   0  0  0  0  0  0  0  0  0  0  0  0
   -0.1359   -0.9559   -0.3756 H   0  0  0  0  0  0  0  0  0  0  0  0
  2  1  1  0  0  0  0
  3  1  1  0  0  0  0
  4  1  1  0  0  0  0
  6  2  1  0  0  0  0
  6  9  1  0  0  0  0
  6 10  1  0  0  0  0
  7  2  1  0  0  0  0
 11  6  1  0  0  0  0
 13  9  1  0  0  0  0
M  RAD  7   1   2   2   2   5   2   8   2   9   3  12   2  14   2
M  END
$$$$
