14
butane_opt
C  -3.953094   0.252364   0.042749
C  -2.703884  -0.603483   0.015762
H  -4.869297  -0.348851  -0.050975
H  -3.974167   0.757932  -0.786140
H  -3.942145   1.043734   0.978268
C  -1.395317   0.201443  -0.027203
H  -2.802626  -1.273228  -0.821436
H  -2.713098  -1.265804   0.910422
C  -0.152015  -0.710028   0.062640
H  -1.408130   0.868747   0.821523
H  -1.366046   0.873014  -0.940074
H  -0.116121  -1.344364   0.966610
H   0.700130  -0.145911   0.007453
H  -0.073909  -1.329153  -0.766746
