14
butane_opt
C  -3.943120   0.334166  -0.123370
C  -2.609900  -0.743513   0.137318
H  -4.691187  -0.148620   0.235359
H  -4.109824   1.350909  -1.210062
H  -4.117559   0.529091   0.372679
C  -1.400375   0.153865   0.222377
H  -2.609611  -1.273746  -0.577121
H  -2.749110  -1.275956   1.169123
C  -0.246671  -0.650224  -0.100715
H  -1.341324   0.769998   1.040097
H  -1.381944   0.762362  -0.662876
H   0.150447  -0.860542   0.422728
H   0.887845   0.017202   0.008670
H  -0.681160  -1.430687  -1.043300
