14
butane_opt
C  -3.950226   0.328878   0.221739
C  -2.682764  -0.724227  -0.299125
H  -4.568456  -0.158500   0.703812
H  -4.549081   1.251501  -0.811449
H  -3.664318   0.979703   1.057741
C  -1.378245   0.084771  -0.144101
H  -2.970779  -1.383348  -0.985889
H  -2.582716  -1.379600   0.625264
C  -0.173603  -0.590615   0.226705
H  -1.527825   0.919806   0.788195
H  -1.182809   0.857336  -1.085035
H  -0.168428  -1.510399   1.418911
H   0.716709  -0.029774   0.187017
H  -0.356934  -1.157776  -0.520861
