14
butane_opt
C  -3.949717   0.230118  -0.119506
C  -2.750652  -0.570678   0.242322
H  -4.932236  -0.373162   0.125806
H  -3.693493   0.858342  -1.154187
H  -4.226636   0.450194   0.477582
C  -1.412344   0.307408   0.054865
H  -2.706726  -0.977109  -0.475730
H  -3.035317  -1.483669   1.501158
C  -0.105907  -0.767347  -0.111438
H  -1.222723   1.311828   1.119924
H  -1.340369   0.647563  -0.706678
H  -0.080651  -0.752322   0.411784
H   0.691118  -0.326487   0.620685
H   0.177051  -2.271642  -1.349212
