butane_opt
 OpenBabel08242015403D

 14 12  0  0  0  0  0  0  0  0999 V2000
   -3.8835    0.3058   -0.1357 C   0  0  0  0  0  0  0  0  0  0  0  0
   -2.7172   -0.6346    0.1555 C   0  0  0  0  0  0  0  0  0  0  0  0
   -4.9130   -0.3915    0.1148 H   0  0  0  0  0  0  0  0  0  0  0  0
   -4.2521    1.3688   -1.3567 H   0  0  0  0  0  0  0  0  0  0  0  0
   -3.9310    0.8078    0.4939 H   0  0  0  0  0  0  0  0  0  0  0  0
   -1.3879    0.0670    0.2191 C   0  0  0  0  0  0  0  0  0  0  0  0
   -2.4174   -1.1541   -0.5928 H   0  0  0  0  0  0  0  0  0  0  0  0
   -3.0824   -1.2566    1.0981 H   0  0  0  0  0  0  0  0  0  0  0  0
   -0.1595   -0.6460   -0.1268 C   0  0  0  0  0  0  0  0  0  0  0  0
   -1.3814    1.0197    1.3398 H   0  0  0  0  0  0  0  0  0  0  0  0
   -1.5549    0.4420   -0.3731 H   0  0  0  0  0  0  0  0  0  0  0  0
    0.0983   -1.3897    0.7478 H   0  0  0  0  0  0  0  0  0  0  0  0
    0.8014    0.1518   -0.4968 H   0  0  0  0  0  0  0  0  0  0  0  0
   -0.6100   -1.1618   -0.8962 H   0  0  0  0  0  0  0  0  0  0  0  0
  1  3  1  0  0  0  0
  1  2  1  0  0  0  0
  1  5  1  0  0  0  0
  2  6  1  0  0  0  0
  2  8  1  0  0  0  0
  6 10  1  0  0  0  0
  7  2  1  0  0  0  0
  9  6  1  0  0  0  0
  9 12  1  0  0  0  0
 11  6  1  0  0  0  0
 13  9  1  0  0  0  0
 14  9  1  0  0  0  0
M  RAD  2   1   2   4   2
M  END
$$$$
