14
butane_opt
C  -4.036873   0.312768  -0.040008
C  -2.686517  -0.705225   0.102842
H  -4.811064  -0.116520   0.385438
H  -4.374136   1.213205  -1.121671
H  -3.853624   0.460165   0.484150
C  -1.370400   0.182461   0.072964
H  -2.365619  -1.595727  -0.796520
H  -2.746294  -1.253676   0.997241
C  -0.135217  -0.661912  -0.006806
H  -1.208477   0.914148   0.916086
H  -1.376258   0.993627  -0.815950
H  -0.191547  -0.843426   0.758054
H   0.722536  -0.051169   0.195616
H  -0.083719  -1.742296  -1.196168
