butane_opt
 OpenBabel08242015403D

 14 12  0  0  0  0  0  0  0  0999 V2000
   -3.9464    0.2337    0.1379 C   0  0  0  0  0  0  0  0  0  0  0  0
   -2.6534   -0.5973   -0.1632 C   0  0  0  0  0  0  0  0  0  0  0  0
   -4.7528   -0.1965    0.8962 H   0  0  0  0  0  0  0  0  0  0  0  0
   -4.4938    1.4732   -0.9606 H   0  0  0  0  0  0  0  0  0  0  0  0
   -3.6076    0.7413    0.8231 H   0  0  0  0  0  0  0  0  0  0  0  0
   -1.4413    0.1326   -0.0684 C   0  0  0  0  0  0  0  0  0  0  0  0
   -2.8930   -1.5176   -1.2151 H   0  0  0  0  0  0  0  0  0  0  0  0
   -2.4855   -1.0786    0.6109 H   0  0  0  0  0  0  0  0  0  0  0  0
   -0.1573   -0.6612    0.1941 C   0  0  0  0  0  0  0  0  0  0  0  0
   -1.5157    0.6707    0.4987 H   0  0  0  0  0  0  0  0  0  0  0  0
   -1.1100    0.7367   -1.0097 H   0  0  0  0  0  0  0  0  0  0  0  0
   -0.1803   -1.2284    1.0425 H   0  0  0  0  0  0  0  0  0  0  0  0
    0.8797    0.0385    0.2667 H   0  0  0  0  0  0  0  0  0  0  0  0
   -0.4602   -1.3750   -0.7512 H   0  0  0  0  0  0  0  0  0  0  0  0
  1  5  1  0  0  0  0
  1  3  1  0  0  0  0
  2  6  1  0  0  0  0
  2  1  1  0  0  0  0
  2  8  1  0  0  0  0
  6  9  1  0  0  0  0
  6 10  1  0  0  0  0
  7  2  1  0  0  0  0
  9 13  1  0  0  0  0
  9 12  1  0  0  0  0
 11  6  1  0  0  0  0
 14  9  1  0  0  0  0
M  RAD  2   1   2   4   2
M  END
$$$$
