butane_opt
 OpenBabel08242015403D

 14 13  0  0  0  0  0  0  0  0999 V2000
   -3.9695    0.2649   -0.1692 C   0  0  0  0  0  0  0  0  0  0  0  0
   -2.7452   -0.6080    0.2995 C   0  0  0  0  0  0  0  0  0  0  0  0
   -4.8515   -0.3023   -0.6351 H   0  0  0  0  0  0  0  0  0  0  0  0
   -3.4351    0.6362   -0.9670 H   0  0  0  0  0  0  0  0  0  0  0  0
   -4.2135    1.0442    0.7304 H   0  0  0  0  0  0  0  0  0  0  0  0
   -1.4378    0.2100    0.2067 C   0  0  0  0  0  0  0  0  0  0  0  0
   -2.3059   -1.1769   -0.4536 H   0  0  0  0  0  0  0  0  0  0  0  0
   -3.1480   -1.2970    1.3257 H   0  0  0  0  0  0  0  0  0  0  0  0
   -0.0790   -0.7249   -0.1413 C   0  0  0  0  0  0  0  0  0  0  0  0
   -1.2297    0.6768    0.9373 H   0  0  0  0  0  0  0  0  0  0  0  0
   -1.5966    0.8857   -0.7259 H   0  0  0  0  0  0  0  0  0  0  0  0
   -0.0678   -1.0714    0.4539 H   0  0  0  0  0  0  0  0  0  0  0  0
    0.8230    0.0324   -0.3372 H   0  0  0  0  0  0  0  0  0  0  0  0
   -0.2393   -1.6059   -1.2256 H   0  0  0  0  0  0  0  0  0  0  0  0
  1  2  1  0  0  0  0
  1  5  1  0  0  0  0
  2  8  1  0  0  0  0
  3  1  1  0  0  0  0
  4  1  1  0  0  0  0
  6  2  1  0  0  0  0
  6 10  1  0  0  0  0
  7  2  1  0  0  0  0
  9  6  1  0  0  0  0
  9 12  1  0  0  0  0
 11  6  1  0  0  0  0
 13  9  1  0  0  0  0
 14  9  1  0  0  0  0
M  END
$$$$
