butane_opt
 OpenBabel08242015403D

 14 12  0  0  0  0  0  0  0  0999 V2000
   -3.8871    0.1649    0.0966 C   0  0  0  0  0  0  0  0  0  0  0  0
   -2.6826   -0.5138    0.0012 C   0  0  0  0  0  0  0  0  0  0  0  0
   -4.8859   -0.3798   -0.2336 H   0  0  0  0  0  0  0  0  0  0  0  0
   -3.7509    0.7610   -0.7336 H   0  0  0  0  0  0  0  0  0  0  0  0
   -3.7443    1.0459    1.1006 H   0  0  0  0  0  0  0  0  0  0  0  0
   -1.4398    0.2433   -0.1135 C   0  0  0  0  0  0  0  0  0  0  0  0
   -3.0145   -1.1116   -0.7726 H   0  0  0  0  0  0  0  0  0  0  0  0
   -2.4275   -1.4338    1.0117 H   0  0  0  0  0  0  0  0  0  0  0  0
   -0.2199   -0.7230    0.0922 C   0  0  0  0  0  0  0  0  0  0  0  0
   -1.5531    1.0556    0.6964 H   0  0  0  0  0  0  0  0  0  0  0  0
   -1.3959    0.8399   -1.0832 H   0  0  0  0  0  0  0  0  0  0  0  0
   -0.3384   -1.3417    1.0644 H   0  0  0  0  0  0  0  0  0  0  0  0
    0.5807   -0.3282    0.4690 H   0  0  0  0  0  0  0  0  0  0  0  0
    0.2657   -1.6798   -1.0442 H   0  0  0  0  0  0  0  0  0  0  0  0
  1  5  1  0  0  0  0
  2  1  1  0  0  0  0
  2  8  1  0  0  0  0
  3  1  1  0  0  0  0
  4  1  1  0  0  0  0
  6  2  1  0  0  0  0
  6  9  1  0  0  0  0
  6 10  1  0  0  0  0
  7  2  1  0  0  0  0
  9 13  1  0  0  0  0
  9 12  1  0  0  0  0
 11  6  1  0  0  0  0
M  RAD  2   9   2  14   2
M  END
$$$$
