butane_opt
 OpenBabel08242015403D

 14 13  0  0  0  0  0  0  0  0999 V2000
   -3.9570    0.3456    0.2271 C   0  0  0  0  0  0  0  0  0  0  0  0
   -2.6846   -0.6884   -0.1788 C   0  0  0  0  0  0  0  0  0  0  0  0
   -4.7171   -0.1936    0.5726 H   0  0  0  0  0  0  0  0  0  0  0  0
   -4.0964    1.0772   -0.5502 H   0  0  0  0  0  0  0  0  0  0  0  0
   -3.7932    0.8035    0.9420 H   0  0  0  0  0  0  0  0  0  0  0  0
   -1.3905    0.1137   -0.2432 C   0  0  0  0  0  0  0  0  0  0  0  0
   -2.7479   -1.6448   -1.2826 H   0  0  0  0  0  0  0  0  0  0  0  0
   -2.4252   -1.1632    0.6014 H   0  0  0  0  0  0  0  0  0  0  0  0
   -0.2140   -0.6178    0.2512 C   0  0  0  0  0  0  0  0  0  0  0  0
   -1.3566    0.6997    0.6892 H   0  0  0  0  0  0  0  0  0  0  0  0
   -1.0398    0.8013   -1.2040 H   0  0  0  0  0  0  0  0  0  0  0  0
   -0.5005   -1.2286    1.1627 H   0  0  0  0  0  0  0  0  0  0  0  0
    0.7333   -0.0781    0.4422 H   0  0  0  0  0  0  0  0  0  0  0  0
   -0.1618   -1.3515   -0.6146 H   0  0  0  0  0  0  0  0  0  0  0  0
  1  3  1  0  0  0  0
  1  5  1  0  0  0  0
  2  1  1  0  0  0  0
  2  8  1  0  0  0  0
  4  1  1  0  0  0  0
  6  2  1  0  0  0  0
  6  9  1  0  0  0  0
  6 10  1  0  0  0  0
  7  2  1  0  0  0  0
  9 13  1  0  0  0  0
  9 12  1  0  0  0  0
 11  6  1  0  0  0  0
 14  9  1  0  0  0  0
M  END
$$$$
