14
butane_opt
C  -3.883388   0.296773  -0.165186
C  -2.635119  -0.674012   0.149186
H  -4.749066  -0.250930   0.174456
H  -3.878013   1.150855  -1.209287
H  -4.084428   1.002608   0.707798
C  -1.455616   0.118282   0.260112
H  -2.455084  -1.442124  -0.664547
H  -3.170330  -1.330949   1.023065
C  -0.182577  -0.626792  -0.123280
H  -1.274562   0.939849   1.295896
H  -1.587485   0.778024  -0.573764
H   0.075722  -1.498002   0.939085
H   0.792122  -0.103754  -0.767648
H  -0.826928  -1.043266  -0.875956
