14
butane_opt
C  -3.954268   0.182196   0.136915
C  -2.723638  -0.514504  -0.073357
H  -4.935916  -0.493933  -0.268191
H  -3.822197   0.392615  -0.464594
H  -4.133206   1.368392   1.294792
C  -1.395115   0.275101  -0.126326
H  -3.046482  -1.551797  -1.085991
H  -2.683863  -0.945859   0.729092
C  -0.102434  -0.773276   0.159072
H  -1.893868   0.751251   0.628675
H  -1.359997   0.868839  -1.031132
H   0.133815  -1.861863   1.423425
H   0.787449  -0.042024  -0.548461
H   0.042736  -0.977851  -0.341975
