butane_opt
 OpenBabel08242015403D

 14 12  0  0  0  0  0  0  0  0999 V2000
   -3.8962    0.1749    0.1875 C   0  0  0  0  0  0  0  0  0  0  0  0
   -2.7046   -0.4743   -0.2339 C   0  0  0  0  0  0  0  0  0  0  0  0
   -5.0101   -0.6109    0.8755 H   0  0  0  0  0  0  0  0  0  0  0  0
   -4.1405    1.0175   -0.8549 H   0  0  0  0  0  0  0  0  0  0  0  0
   -3.4885    0.7034    1.0221 H   0  0  0  0  0  0  0  0  0  0  0  0
   -1.4492    0.2185   -0.0959 C   0  0  0  0  0  0  0  0  0  0  0  0
   -2.7313   -1.3351   -1.2444 H   0  0  0  0  0  0  0  0  0  0  0  0
   -2.3853   -0.9937    0.5592 H   0  0  0  0  0  0  0  0  0  0  0  0
   -0.1516   -0.7513    0.2145 C   0  0  0  0  0  0  0  0  0  0  0  0
   -1.7905    0.6831    0.5073 H   0  0  0  0  0  0  0  0  0  0  0  0
   -1.1282    0.9943   -0.9720 H   0  0  0  0  0  0  0  0  0  0  0  0
   -0.2659   -1.5680    1.2692 H   0  0  0  0  0  0  0  0  0  0  0  0
    0.5849   -0.2365    0.1019 H   0  0  0  0  0  0  0  0  0  0  0  0
   -0.1585   -1.1955   -0.6948 H   0  0  0  0  0  0  0  0  0  0  0  0
  1  5  1  0  0  0  0
  2  6  1  0  0  0  0
  2  1  1  0  0  0  0
  2  8  1  0  0  0  0
  4  1  1  0  0  0  0
  6  9  1  0  0  0  0
  6 10  1  0  0  0  0
  7  2  1  0  0  0  0
  9 12  1  0  0  0  0
 11  6  1  0  0  0  0
 13  9  1  0  0  0  0
 14  9  1  0  0  0  0
M  RAD  2   1   2   3   2
M  END
$$$$
