14
butane_opt
C  -3.954055   0.302399  -0.067317
C  -2.691232  -0.704871   0.160688
H  -4.647986  -0.022832   0.106997
H  -4.246863   1.123464  -1.111956
H  -4.076302   0.981230   0.744182
C  -1.322825   0.128498   0.044697
H  -2.594510  -1.117161  -0.452677
H  -2.839910  -1.474692   1.145869
C  -0.224687  -0.668252  -0.026135
H  -1.190668   0.708067   0.708884
H  -1.512974   0.854229  -0.927003
H  -0.209482  -0.432882   0.262267
H   0.678215   0.116811   0.794629
H  -0.085678  -1.890114  -1.218025
