butane_opt
 OpenBabel08242015403D

 14 13  0  0  0  0  0  0  0  0999 V2000
   -4.0355    0.3234    0.1614 C   0  0  0  0  0  0  0  0  0  0  0  0
   -2.6399   -0.7152   -0.1803 C   0  0  0  0  0  0  0  0  0  0  0  0
   -4.9779   -0.3013    0.5415 H   0  0  0  0  0  0  0  0  0  0  0  0
   -4.6632    1.2636   -0.8037 H   0  0  0  0  0  0  0  0  0  0  0  0
   -3.9124    0.9290    1.0739 H   0  0  0  0  0  0  0  0  0  0  0  0
   -1.3615    0.1271   -0.0606 C   0  0  0  0  0  0  0  0  0  0  0  0
   -2.7652   -1.6663   -1.2108 H   0  0  0  0  0  0  0  0  0  0  0  0
   -2.7275   -1.0590    0.5582 H   0  0  0  0  0  0  0  0  0  0  0  0
   -0.1141   -0.6635    0.1669 C   0  0  0  0  0  0  0  0  0  0  0  0
   -1.5272    0.8084    0.6510 H   0  0  0  0  0  0  0  0  0  0  0  0
   -1.0476    0.9359   -1.1146 H   0  0  0  0  0  0  0  0  0  0  0  0
   -0.3344   -1.4466    1.3136 H   0  0  0  0  0  0  0  0  0  0  0  0
    0.9305    0.0912   -0.1421 H   0  0  0  0  0  0  0  0  0  0  0  0
   -0.1569   -0.8804   -0.4827 H   0  0  0  0  0  0  0  0  0  0  0  0
  1  3  1  0  0  0  0
  1  5  1  0  0  0  0
  2  6  1  0  0  0  0
  2  1  1  0  0  0  0
  2  8  1  0  0  0  0
  4  1  1  0  0  0  0
  6  9  1  0  0  0  0
  6 10  1  0  0  0  0
  7  2  1  0  0  0  0
  9 12  1  0  0  0  0
 11  6  1  0  0  0  0
 13  9  1  0  0  0  0
 14  9  1  0  0  0  0
M  END
$$$$
