butane_opt
 OpenBabel08242015403D

 14 13  0  0  0  0  0  0  0  0999 V2000
   -3.9477    0.2735    0.0579 C   0  0  0  0  0  0  0  0  0  0  0  0
   -2.6997   -0.6338    0.0075 C   0  0  0  0  0  0  0  0  0  0  0  0
   -4.8825   -0.3338    0.0678 H   0  0  0  0  0  0  0  0  0  0  0  0
   -4.0555    0.9139   -0.8723 H   0  0  0  0  0  0  0  0  0  0  0  0
   -3.9497    0.9373    0.9139 H   0  0  0  0  0  0  0  0  0  0  0  0
   -1.4088    0.1913   -0.0357 C   0  0  0  0  0  0  0  0  0  0  0  0
   -2.7396   -1.3396   -0.8718 H   0  0  0  0  0  0  0  0  0  0  0  0
   -2.6789   -1.2583    0.8972 H   0  0  0  0  0  0  0  0  0  0  0  0
   -0.1539   -0.6885    0.0641 C   0  0  0  0  0  0  0  0  0  0  0  0
   -1.3733    0.8803    0.8253 H   0  0  0  0  0  0  0  0  0  0  0  0
   -1.3323    0.7966   -0.9470 H   0  0  0  0  0  0  0  0  0  0  0  0
   -0.1918   -1.2840    0.9589 H   0  0  0  0  0  0  0  0  0  0  0  0
    0.7594   -0.1122    0.1201 H   0  0  0  0  0  0  0  0  0  0  0  0
   -0.0540   -1.3804   -0.7852 H   0  0  0  0  0  0  0  0  0  0  0  0
  1  3  1  0  0  0  0
  1  5  1  0  0  0  0
  2  1  1  0  0  0  0
  2  8  1  0  0  0  0
  4  1  1  0  0  0  0
  6  2  1  0  0  0  0
  6  9  1  0  0  0  0
  6 10  1  0  0  0  0
  7  2  1  0  0  0  0
  9 13  1  0  0  0  0
  9 12  1  0  0  0  0
 11  6  1  0  0  0  0
 14  9  1  0  0  0  0
M  END
$$$$
