14
butane_opt
C  -3.990288   0.237806   0.094301
C  -2.695293  -0.611973  -0.063799
H  -4.922228  -0.410776  -0.066155
H  -3.997443   0.601931  -0.657541
H  -4.008472   1.142735   1.114570
C  -1.417211   0.241803  -0.000934
H  -3.054208  -1.518534  -1.145813
H  -2.685733  -0.768574   0.458232
C  -0.058928  -0.730365   0.073040
H  -1.376888   0.690797   0.720408
H  -1.538812   1.115060  -0.919858
H  -0.046386  -2.064091   1.483670
H   0.884630  -0.154410  -0.470134
H  -0.307874  -0.756126  -0.206755
