butane_opt
 OpenBabel08242015403D

 14 12  0  0  0  0  0  0  0  0999 V2000
   -3.9584    0.3294   -0.0574 C   0  0  0  0  0  0  0  0  0  0  0  0
   -2.6237   -0.6699    0.1839 C   0  0  0  0  0  0  0  0  0  0  0  0
   -4.8114   -0.3265   -0.6079 H   0  0  0  0  0  0  0  0  0  0  0  0
   -3.5807    0.6286   -0.8113 H   0  0  0  0  0  0  0  0  0  0  0  0
   -4.5125    1.4055    1.0313 H   0  0  0  0  0  0  0  0  0  0  0  0
   -1.4240    0.0617    0.0636 C   0  0  0  0  0  0  0  0  0  0  0  0
   -2.6043   -1.1376   -0.5525 H   0  0  0  0  0  0  0  0  0  0  0  0
   -2.8940   -1.3197    1.0690 H   0  0  0  0  0  0  0  0  0  0  0  0
   -0.1904   -0.6160   -0.0753 C   0  0  0  0  0  0  0  0  0  0  0  0
   -1.1403    0.7002    0.8715 H   0  0  0  0  0  0  0  0  0  0  0  0
   -1.8031    0.5699   -0.8140 H   0  0  0  0  0  0  0  0  0  0  0  0
   -0.1994   -1.2963    0.9027 H   0  0  0  0  0  0  0  0  0  0  0  0
    0.9963    0.1997   -0.0032 H   0  0  0  0  0  0  0  0  0  0  0  0
   -0.1812   -1.1153   -0.9162 H   0  0  0  0  0  0  0  0  0  0  0  0
  1  2  1  0  0  0  0
  2  8  1  0  0  0  0
  3  1  1  0  0  0  0
  4  1  1  0  0  0  0
  6  2  1  0  0  0  0
  6 10  1  0  0  0  0
  7  2  1  0  0  0  0
  9 13  1  0  0  0  0
  9  6  1  0  0  0  0
  9 12  1  0  0  0  0
 11  6  1  0  0  0  0
 14  9  1  0  0  0  0
M  RAD  2   1   2   5   2
M  END
$$$$
