butane_opt
 OpenBabel08242015403D

 14 11  0  0  0  0  0  0  0  0999 V2000
   -3.9792    0.2949   -0.0925 C   0  0  0  0  0  0  0  0  0  0  0  0
   -2.7188   -0.6877    0.1332 C   0  0  0  0  0  0  0  0  0  0  0  0
   -4.6866   -0.2196    0.4930 H   0  0  0  0  0  0  0  0  0  0  0  0
   -4.1449    1.4928   -1.3614 H   0  0  0  0  0  0  0  0  0  0  0  0
   -4.2918    0.3618    0.2182 H   0  0  0  0  0  0  0  0  0  0  0  0
   -1.3512    0.2171    0.1981 C   0  0  0  0  0  0  0  0  0  0  0  0
   -2.7211   -1.5735   -0.8301 H   0  0  0  0  0  0  0  0  0  0  0  0
   -2.7626   -1.3143    1.1784 H   0  0  0  0  0  0  0  0  0  0  0  0
   -0.1107   -0.6824   -0.1188 C   0  0  0  0  0  0  0  0  0  0  0  0
   -1.5155    1.1459    1.1880 H   0  0  0  0  0  0  0  0  0  0  0  0
   -1.4415    0.5872   -0.5284 H   0  0  0  0  0  0  0  0  0  0  0  0
    0.0048   -1.2380    0.6719 H   0  0  0  0  0  0  0  0  0  0  0  0
    0.7258   -0.0909    0.0060 H   0  0  0  0  0  0  0  0  0  0  0  0
   -0.2645   -1.2985   -1.0919 H   0  0  0  0  0  0  0  0  0  0  0  0
  1  2  1  0  0  0  0
  1  3  1  0  0  0  0
  2  6  1  0  0  0  0
  2  8  1  0  0  0  0
  6 10  1  0  0  0  0
  7  2  1  0  0  0  0
  9 13  1  0  0  0  0
  9  6  1  0  0  0  0
  9 12  1  0  0  0  0
 11  6  1  0  0  0  0
 14  9  1  0  0  0  0
M  RAD  3   1   3   4   2   5   2
M  END
$$$$
