14
butane_opt
C  -3.951439   0.279732   0.007302
C  -2.691021  -0.623051   0.046072
H  -4.830178  -0.294222   0.128485
H  -3.968318   0.964536  -0.954077
H  -3.931121   0.814397   0.798927
C  -1.394152   0.169554   0.032291
H  -2.634512  -1.338233  -0.811558
H  -2.709151  -1.259638   0.926838
C  -0.179714  -0.684257   0.015372
H  -1.357007   0.866429   0.911416
H  -1.399688   0.800148  -0.845359
H  -0.203359  -1.268392   0.896548
H   0.765304  -0.057976   0.027083
H  -0.169454  -1.389067  -0.861628
