14
butane_opt
C  -3.960100   0.281087  -0.116414
C  -2.621231  -0.567897   0.241935
H  -4.814292  -0.366268  -0.056700
H  -3.884835   1.120408  -1.297950
H  -4.064082   0.619085   0.457165
C  -1.443118   0.089930   0.098227
H  -2.658195  -1.104926  -0.523563
H  -2.441584  -1.577226   1.366022
C  -0.198016  -0.634924  -0.115429
H  -1.180016   1.113778   1.229149
H  -1.367254   0.372210  -0.735873
H  -0.431404  -0.803012   0.470345
H   0.730754   0.054126   0.421545
H  -0.239634  -1.903561  -1.296146
