butane_opt
 OpenBabel08242015403D

 14 11  0  0  0  0  0  0  0  0999 V2000
   -3.8638    0.2291    0.1468 C   0  0  0  0  0  0  0  0  0  0  0  0
   -2.7054   -0.5594   -0.0582 C   0  0  0  0  0  0  0  0  0  0  0  0
   -4.7938   -0.3927   -0.4675 H   0  0  0  0  0  0  0  0  0  0  0  0
   -3.6477    0.4233   -0.4741 H   0  0  0  0  0  0  0  0  0  0  0  0
   -4.0665    1.2260    1.1595 H   0  0  0  0  0  0  0  0  0  0  0  0
   -1.4344    0.2544   -0.1356 C   0  0  0  0  0  0  0  0  0  0  0  0
   -2.8387   -1.3475   -0.8652 H   0  0  0  0  0  0  0  0  0  0  0  0
   -2.6939   -1.2955    0.9216 H   0  0  0  0  0  0  0  0  0  0  0  0
   -0.1858   -0.7428    0.1250 C   0  0  0  0  0  0  0  0  0  0  0  0
   -1.4611    1.0035    0.7538 H   0  0  0  0  0  0  0  0  0  0  0  0
   -1.3932    0.8836   -1.0671 H   0  0  0  0  0  0  0  0  0  0  0  0
   -0.2732   -1.8566    1.2005 H   0  0  0  0  0  0  0  0  0  0  0  0
    0.7882   -0.1224   -0.0005 H   0  0  0  0  0  0  0  0  0  0  0  0
   -0.3480   -1.1744   -0.5729 H   0  0  0  0  0  0  0  0  0  0  0  0
  1  5  1  0  0  0  0
  2  1  1  0  0  0  0
  2  8  1  0  0  0  0
  3  1  1  0  0  0  0
  4  1  1  0  0  0  0
  6  9  1  0  0  0  0
  6 10  1  0  0  0  0
  7  2  1  0  0  0  0
 11  6  1  0  0  0  0
 13  9  1  0  0  0  0
 14  9  1  0  0  0  0
M  RAD  4   2   2   6   2   9   2  12   2
M  END
$$$$
