14
butane_opt
C  -3.897930   0.213245  -0.079644
C  -2.665373  -0.572719   0.229272
H  -4.779528  -0.288583   0.121416
H  -3.549095   1.297528  -1.285911
H  -4.326369   0.468272   0.299826
C  -1.442651   0.177378   0.082388
H  -2.582311  -1.078937  -0.486077
H  -2.702479  -1.400721   1.254747
C  -0.241955  -0.721086  -0.112766
H  -1.203636   1.086832   1.211405
H  -1.426318   0.946193  -0.780734
H  -0.269938  -0.465863   0.294485
H   0.667761  -0.134570   0.689559
H   0.133593  -2.114718  -1.420312
