14
butane_opt
C  -3.928227   0.234517   0.089755
C  -2.680112  -0.552293   0.021451
H  -5.034958  -0.541939  -0.510726
H  -3.349569   0.050018  -0.432225
H  -3.956311   1.331840   1.191286
C  -1.459855   0.197124  -0.101762
H  -2.590310  -0.977999  -0.751767
H  -2.749046  -1.062310   0.920668
C  -0.163641  -0.718191   0.056692
H  -1.440131   0.982735   0.738333
H  -1.583829   0.805152  -1.064884
H  -0.324567  -1.637634   1.195761
H   0.676596  -0.338786  -0.047642
H   0.115924  -1.079943  -0.474353
