butane_opt
 OpenBabel08242015403D

 14 11  0  0  0  0  0  0  0  0999 V2000
   -3.9388    0.2830    0.0192 C   0  0  0  0  0  0  0  0  0  0  0  0
   -2.6418   -0.6129   -0.0461 C   0  0  0  0  0  0  0  0  0  0  0  0
   -4.9347   -0.3572    0.2775 H   0  0  0  0  0  0  0  0  0  0  0  0
   -3.8921    0.8971   -0.8068 H   0  0  0  0  0  0  0  0  0  0  0  0
   -3.9737    1.0554    0.8326 H   0  0  0  0  0  0  0  0  0  0  0  0
   -1.3463    0.0804    0.1068 C   0  0  0  0  0  0  0  0  0  0  0  0
   -2.5556   -1.3010   -0.9568 H   0  0  0  0  0  0  0  0  0  0  0  0
   -2.6166   -1.0177    0.7052 H   0  0  0  0  0  0  0  0  0  0  0  0
   -0.2392   -0.6499    0.0413 C   0  0  0  0  0  0  0  0  0  0  0  0
   -1.5903    0.7413    0.7851 H   0  0  0  0  0  0  0  0  0  0  0  0
   -1.2726    0.8558   -0.8378 H   0  0  0  0  0  0  0  0  0  0  0  0
   -0.0045   -1.5622    1.1842 H   0  0  0  0  0  0  0  0  0  0  0  0
    0.6028   -0.1503   -0.6514 H   0  0  0  0  0  0  0  0  0  0  0  0
   -0.7543   -0.8729   -0.4847 H   0  0  0  0  0  0  0  0  0  0  0  0
  1  3  1  0  0  0  0
  1  5  1  0  0  0  0
  2  1  1  0  0  0  0
  2  8  1  0  0  0  0
  4  1  1  0  0  0  0
  6 10  1  0  0  0  0
  7  2  1  0  0  0  0
  9 12  1  0  0  0  0
 11  6  1  0  0  0  0
 13  9  1  0  0  0  0
 14  9  1  0  0  0  0
M  RAD  3   2   2   6   3   9   2
M  END
$$$$
