butane_opt
 OpenBabel08242015403D

 14 11  0  0  0  0  0  0  0  0999 V2000
   -3.9504    0.1734   -0.1338 C   0  0  0  0  0  0  0  0  0  0  0  0
   -2.7741   -0.5222    0.1041 C   0  0  0  0  0  0  0  0  0  0  0  0
   -4.8621   -0.3210    0.4057 H   0  0  0  0  0  0  0  0  0  0  0  0
   -3.8826    1.2718   -1.3860 H   0  0  0  0  0  0  0  0  0  0  0  0
   -3.8920    0.4506    0.5730 H   0  0  0  0  0  0  0  0  0  0  0  0
   -1.4551    0.1982    0.2281 C   0  0  0  0  0  0  0  0  0  0  0  0
   -2.4278   -1.0657   -0.5505 H   0  0  0  0  0  0  0  0  0  0  0  0
   -2.9940   -1.3073    1.1386 H   0  0  0  0  0  0  0  0  0  0  0  0
   -0.0485   -0.7359   -0.1395 C   0  0  0  0  0  0  0  0  0  0  0  0
   -1.2790    1.3726    1.4489 H   0  0  0  0  0  0  0  0  0  0  0  0
   -1.7454    0.7537   -0.4423 H   0  0  0  0  0  0  0  0  0  0  0  0
    0.1801   -1.5499    0.8380 H   0  0  0  0  0  0  0  0  0  0  0  0
    0.7823   -0.1398   -0.3114 H   0  0  0  0  0  0  0  0  0  0  0  0
   -0.1603   -1.3100   -0.9799 H   0  0  0  0  0  0  0  0  0  0  0  0
  1  2  1  0  0  0  0
  1  3  1  0  0  0  0
  1  5  1  0  0  0  0
  2  6  1  0  0  0  0
  2  8  1  0  0  0  0
  7  2  1  0  0  0  0
  9  6  1  0  0  0  0
  9 12  1  0  0  0  0
 11  6  1  0  0  0  0
 13  9  1  0  0  0  0
 14  9  1  0  0  0  0
M  RAD  4   1   2   4   2   6   2  10   2
M  END
$$$$
