14
butane_opt
C  -3.960914   0.262925   0.007066
C  -2.694088  -0.613027   0.043911
H  -4.903813  -0.357917   0.140868
H  -3.988641   0.995822  -0.964053
H  -3.945593   0.840776   0.782402
C  -1.395480   0.185194   0.028419
H  -2.722864  -1.305622  -0.792925
H  -2.705436  -1.262384   0.955684
C  -0.158634  -0.698453   0.013444
H  -1.404539   0.956802   0.932558
H  -1.384818   0.774470  -0.825980
H  -0.122110  -1.291469   0.878861
H   0.762841  -0.101256   0.050041
H  -0.097978  -1.360695  -0.846634
