butane_opt
 OpenBabel08242015403D

 14 11  0  0  0  0  0  0  0  0999 V2000
   -4.0548    0.2986    0.1212 C   0  0  0  0  0  0  0  0  0  0  0  0
   -2.6611   -0.6665   -0.0897 C   0  0  0  0  0  0  0  0  0  0  0  0
   -4.8757   -0.2670    0.4816 H   0  0  0  0  0  0  0  0  0  0  0  0
   -4.4562    1.3712   -0.9882 H   0  0  0  0  0  0  0  0  0  0  0  0
   -3.8475    0.8040    0.7958 H   0  0  0  0  0  0  0  0  0  0  0  0
   -1.3824    0.1130   -0.0445 C   0  0  0  0  0  0  0  0  0  0  0  0
   -2.9417   -1.6546   -1.3374 H   0  0  0  0  0  0  0  0  0  0  0  0
   -2.3113   -1.1416    0.5824 H   0  0  0  0  0  0  0  0  0  0  0  0
   -0.1257   -0.6299    0.1426 C   0  0  0  0  0  0  0  0  0  0  0  0
   -1.2388    0.8310    0.8682 H   0  0  0  0  0  0  0  0  0  0  0  0
   -1.0462    0.6830   -0.9920 H   0  0  0  0  0  0  0  0  0  0  0  0
   -0.1056   -1.4165    1.1801 H   0  0  0  0  0  0  0  0  0  0  0  0
    0.6372   -0.0439   -0.1314 H   0  0  0  0  0  0  0  0  0  0  0  0
   -0.1403   -1.0058   -0.6103 H   0  0  0  0  0  0  0  0  0  0  0  0
  1  3  1  0  0  0  0
  1  5  1  0  0  0  0
  2  6  1  0  0  0  0
  2  1  1  0  0  0  0
  2  8  1  0  0  0  0
  6  9  1  0  0  0  0
  6 10  1  0  0  0  0
  9 12  1  0  0  0  0
 11  6  1  0  0  0  0
 13  9  1  0  0  0  0
 14  9  1  0  0  0  0
M  RAD  4   1   2   2   2   4   2   7   2
M  END
$$$$
