butane_opt
 OpenBabel08242015403D

 14 13  0  0  0  0  0  0  0  0999 V2000
   -4.0437    0.3170    0.1771 C   0  0  0  0  0  0  0  0  0  0  0  0
   -2.6290   -0.7046   -0.1570 C   0  0  0  0  0  0  0  0  0  0  0  0
   -4.6824   -0.1025    0.7380 H   0  0  0  0  0  0  0  0  0  0  0  0
   -4.3239    1.1066   -0.6482 H   0  0  0  0  0  0  0  0  0  0  0  0
   -4.0043    0.7017    0.8634 H   0  0  0  0  0  0  0  0  0  0  0  0
   -1.3502    0.1299   -0.1383 C   0  0  0  0  0  0  0  0  0  0  0  0
   -2.7252   -1.5527   -1.1685 H   0  0  0  0  0  0  0  0  0  0  0  0
   -2.5052   -1.0489    0.4680 H   0  0  0  0  0  0  0  0  0  0  0  0
   -0.1753   -0.5986    0.1925 C   0  0  0  0  0  0  0  0  0  0  0  0
   -1.2585    0.4797    0.5795 H   0  0  0  0  0  0  0  0  0  0  0  0
   -1.3309    0.9275   -1.1549 H   0  0  0  0  0  0  0  0  0  0  0  0
   -0.4897   -1.2081    1.2102 H   0  0  0  0  0  0  0  0  0  0  0  0
    0.5546   -0.0932    0.4641 H   0  0  0  0  0  0  0  0  0  0  0  0
    0.0915   -1.3980   -0.7956 H   0  0  0  0  0  0  0  0  0  0  0  0
  1  3  1  0  0  0  0
  1  5  1  0  0  0  0
  2  6  1  0  0  0  0
  2  1  1  0  0  0  0
  2  8  1  0  0  0  0
  4  1  1  0  0  0  0
  6  9  1  0  0  0  0
  6 10  1  0  0  0  0
  7  2  1  0  0  0  0
  9 13  1  0  0  0  0
  9 12  1  0  0  0  0
 11  6  1  0  0  0  0
 14  9  1  0  0  0  0
M  END
$$$$
