14
butane_opt
C  -3.880623   0.292803  -0.153837
C  -2.678944  -0.666814   0.167611
H  -4.737337  -0.185465  -0.063756
H  -3.712479   1.056768  -1.149831
H  -4.252410   0.884936   0.716568
C  -1.438431   0.137344   0.270412
H  -2.357918  -1.512537  -0.806403
H  -2.712229  -1.158405   1.037871
C  -0.246905  -0.661748  -0.134540
H  -1.133251   0.980337   1.179323
H  -1.714698   0.686230  -0.584251
H   0.212820  -1.727818   1.050116
H   0.867116   0.277709  -0.865809
H  -0.588455  -0.947455  -0.798393
