butane_opt
 OpenBabel08242015403D

 14 12  0  0  0  0  0  0  0  0999 V2000
   -3.8445    0.2142    0.0981 C   0  0  0  0  0  0  0  0  0  0  0  0
   -2.7063   -0.5438    0.0010 C   0  0  0  0  0  0  0  0  0  0  0  0
   -5.0184   -0.5858    0.1343 H   0  0  0  0  0  0  0  0  0  0  0  0
   -3.7231    0.9257   -0.6615 H   0  0  0  0  0  0  0  0  0  0  0  0
   -3.6985    0.9007    1.0122 H   0  0  0  0  0  0  0  0  0  0  0  0
   -1.4739    0.2522   -0.1850 C   0  0  0  0  0  0  0  0  0  0  0  0
   -2.8113   -1.1734   -0.9143 H   0  0  0  0  0  0  0  0  0  0  0  0
   -2.6302   -1.4384    1.0679 H   0  0  0  0  0  0  0  0  0  0  0  0
   -0.1850   -0.7280    0.1110 C   0  0  0  0  0  0  0  0  0  0  0  0
   -1.5237    1.0437    0.7221 H   0  0  0  0  0  0  0  0  0  0  0  0
   -1.2033    0.7555   -0.9650 H   0  0  0  0  0  0  0  0  0  0  0  0
   -0.3843   -1.1424    0.9004 H   0  0  0  0  0  0  0  0  0  0  0  0
    0.4899   -0.3332    0.7979 H   0  0  0  0  0  0  0  0  0  0  0  0
    0.0494   -1.8361   -0.9878 H   0  0  0  0  0  0  0  0  0  0  0  0
  1  3  1  0  0  0  0
  1  5  1  0  0  0  0
  2  1  1  0  0  0  0
  2  8  1  0  0  0  0
  4  1  1  0  0  0  0
  6  2  1  0  0  0  0
  6  9  1  0  0  0  0
  6 10  1  0  0  0  0
  7  2  1  0  0  0  0
  9 13  1  0  0  0  0
  9 12  1  0  0  0  0
 11  6  1  0  0  0  0
M  RAD  2   9   2  14   2
M  END
$$$$
