butane_opt
 OpenBabel08242015403D

 14 13  0  0  0  0  0  0  0  0999 V2000
   -3.9629    0.1931    0.1617 C   0  0  0  0  0  0  0  0  0  0  0  0
   -2.7371   -0.5259   -0.1915 C   0  0  0  0  0  0  0  0  0  0  0  0
   -4.9785   -0.5027    0.5778 H   0  0  0  0  0  0  0  0  0  0  0  0
   -4.5392    0.7942   -0.5744 H   0  0  0  0  0  0  0  0  0  0  0  0
   -3.7122    0.7259    0.9330 H   0  0  0  0  0  0  0  0  0  0  0  0
   -1.3982    0.2898   -0.1450 C   0  0  0  0  0  0  0  0  0  0  0  0
   -2.7878   -1.3873   -1.1197 H   0  0  0  0  0  0  0  0  0  0  0  0
   -2.6076   -1.0415    0.7133 H   0  0  0  0  0  0  0  0  0  0  0  0
   -0.0877   -0.7446    0.2144 C   0  0  0  0  0  0  0  0  0  0  0  0
   -1.4612    0.7421    0.6419 H   0  0  0  0  0  0  0  0  0  0  0  0
   -1.4750    0.8080   -1.0257 H   0  0  0  0  0  0  0  0  0  0  0  0
    0.1108   -1.5191    1.1808 H   0  0  0  0  0  0  0  0  0  0  0  0
    0.6948   -0.3825    0.1577 H   0  0  0  0  0  0  0  0  0  0  0  0
    0.0241   -1.2703   -0.4918 H   0  0  0  0  0  0  0  0  0  0  0  0
  1  3  1  0  0  0  0
  1  5  1  0  0  0  0
  2  6  1  0  0  0  0
  2  1  1  0  0  0  0
  2  8  1  0  0  0  0
  4  1  1  0  0  0  0
  6  9  1  0  0  0  0
  6 10  1  0  0  0  0
  7  2  1  0  0  0  0
  9 12  1  0  0  0  0
 11  6  1  0  0  0  0
 13  9  1  0  0  0  0
 14  9  1  0  0  0  0
M  END
$$$$
