14
butane_opt
C  -3.923186   0.225046  -0.108685
C  -2.782398  -0.554020   0.126649
H  -5.165571  -0.541350   0.305070
H  -4.241323   1.186698  -1.223620
H  -3.665116   0.292660   0.395822
C  -1.355112   0.254434   0.132744
H  -2.839194  -0.796167  -0.497480
H  -2.688328  -1.245676   1.143329
C  -0.105771  -0.779523  -0.049601
H  -1.437977   1.168568   1.228152
H  -1.505901   0.732885  -0.587802
H   0.086485  -1.021626   0.440257
H   0.630999  -0.307929   0.143689
H  -0.135925  -1.778881  -1.249738
