butane_opt
 OpenBabel08242015403D

 14  9  0  0  0  0  0  0  0  0999 V2000
   -3.8760    0.2443    0.0475 C   0  0  0  0  0  1  0  0  0  0  0  0
   -2.7248   -0.6024    0.0796 C   0  0  0  0  0  0  0  0  0  0  0  0
   -4.7783   -0.4167   -0.6547 H   0  0  0  0  0  0  0  0  0  0  0  0
   -3.8976    0.0681   -0.3290 H   0  0  0  0  0  0  0  0  0  0  0  0
   -4.0900    1.7045    1.3648 H   0  0  0  0  0  0  0  0  0  0  0  0
   -1.4588    0.2277   -0.0752 C   0  0  0  0  0  0  0  0  0  0  0  0
   -2.6386   -1.5421   -0.9464 H   0  0  0  0  0  0  0  0  0  0  0  0
   -2.7021   -1.3147    0.7861 H   0  0  0  0  0  0  0  0  0  0  0  0
   -0.1474   -0.7188    0.0891 C   0  0  0  0  0  0  0  0  0  0  0  0
   -1.6000    0.6333    0.5438 H   0  0  0  0  0  0  0  0  0  0  0  0
   -1.4391    1.3022   -1.3349 H   0  0  0  0  0  0  0  0  0  0  0  0
    0.0861   -1.5055    1.0050 H   0  0  0  0  0  0  0  0  0  0  0  0
    0.7034   -0.1384   -0.0317 H   0  0  0  0  0  0  0  0  0  0  0  0
   -0.1784   -1.0709   -0.5246 H   0  0  0  0  0  0  0  0  0  0  0  0
  2  8  1  0  0  0  0
  3  1  1  0  0  0  0
  4  2  1  0  0  0  0
  6  9  1  0  0  0  0
  6 10  1  0  0  0  0
  7  2  1  0  0  0  0
  9 12  1  0  0  0  0
 13  9  1  0  0  0  0
 14  9  1  0  0  0  0
M  RAD  4   2   2   5   2   6   3  11   2
M  END
$$$$
