butane_opt
 OpenBabel08242015403D

 14 10  0  0  0  0  0  0  0  0999 V2000
   -4.0109    0.2926   -0.1412 C   0  0  0  0  0  0  0  0  0  0  0  0
   -2.7014   -0.6785    0.2283 C   0  0  0  0  0  0  0  0  0  0  0  0
   -4.7514   -0.1751    0.2168 H   0  0  0  0  0  0  0  0  0  0  0  0
   -4.3796    1.1830   -1.2347 H   0  0  0  0  0  0  0  0  0  0  0  0
   -4.2450    0.6632    0.6123 H   0  0  0  0  0  0  0  0  0  0  0  0
   -1.3475    0.1570    0.1406 C   0  0  0  0  0  0  0  0  0  0  0  0
   -2.5154   -1.2124   -0.4339 H   0  0  0  0  0  0  0  0  0  0  0  0
   -2.5818   -1.4578    1.0428 H   0  0  0  0  0  0  0  0  0  0  0  0
   -0.1575   -0.6517   -0.0839 C   0  0  0  0  0  1  0  0  0  0  0  0
   -1.1342    0.7054    0.9128 H   0  0  0  0  0  0  0  0  0  0  0  0
   -1.4153    0.9948   -0.9132 H   0  0  0  0  0  0  0  0  0  0  0  0
   -0.2765   -0.4171    0.3326 H   0  0  0  0  0  0  0  0  0  0  0  0
    0.7241   -0.0854    0.5047 H   0  0  0  0  0  0  0  0  0  0  0  0
    0.1636   -2.1023   -1.4470 H   0  0  0  0  0  0  0  0  0  0  0  0
  1  3  1  0  0  0  0
  1  2  1  0  0  0  0
  1  5  1  0  0  0  0
  2  8  1  0  0  0  0
  4  1  1  0  0  0  0
  6 12  1  0  0  0  0
  6 10  1  0  0  0  0
  7  2  1  0  0  0  0
  9 13  1  0  0  0  0
 11  6  1  0  0  0  0
M  RAD  3   2   2   6   2  14   2
M  END
$$$$
