butane_opt
 OpenBabel08242015403D

 14 12  0  0  0  0  0  0  0  0999 V2000
   -3.9774    0.2871    0.1122 C   0  0  0  0  0  0  0  0  0  0  0  0
   -2.6689   -0.6570   -0.0741 C   0  0  0  0  0  0  0  0  0  0  0  0
   -4.9183   -0.2432    0.3242 H   0  0  0  0  0  0  0  0  0  0  0  0
   -4.4289    0.7822   -0.6419 H   0  0  0  0  0  0  0  0  0  0  0  0
   -3.9396    1.0206    0.9505 H   0  0  0  0  0  0  0  0  0  0  0  0
   -1.3961    0.1534   -0.1227 C   0  0  0  0  0  0  0  0  0  0  0  0
   -2.8824   -1.1029   -0.8285 H   0  0  0  0  0  0  0  0  0  0  0  0
   -2.8049   -1.1984    0.8077 H   0  0  0  0  0  0  0  0  0  0  0  0
   -0.1024   -0.6644    0.1727 C   0  0  0  0  0  0  0  0  0  0  0  0
   -1.3584    0.6773    0.5061 H   0  0  0  0  0  0  0  0  0  0  0  0
   -1.4703    0.8593   -1.1595 H   0  0  0  0  0  0  0  0  0  0  0  0
   -0.4973   -1.0334    0.8890 H   0  0  0  0  0  0  0  0  0  0  0  0
    0.8972    0.1158    0.3785 H   0  0  0  0  0  0  0  0  0  0  0  0
    0.1133   -1.7973   -0.8652 H   0  0  0  0  0  0  0  0  0  0  0  0
  1  3  1  0  0  0  0
  1  5  1  0  0  0  0
  2  1  1  0  0  0  0
  2  8  1  0  0  0  0
  4  1  1  0  0  0  0
  6  2  1  0  0  0  0
  6  9  1  0  0  0  0
  6 10  1  0  0  0  0
  7  2  1  0  0  0  0
  9 13  1  0  0  0  0
  9 12  1  0  0  0  0
 11  6  1  0  0  0  0
M  RAD  2   9   2  14   2
M  END
$$$$
