butane_opt
 OpenBabel08242015403D

 14 11  0  0  0  0  0  0  0  0999 V2000
   -3.8814    0.2152   -0.0770 C   0  0  0  0  0  1  0  0  0  0  0  0
   -2.6360   -0.5772    0.1055 C   0  0  0  0  0  0  0  0  0  0  0  0
   -4.9701   -0.5375    0.5603 H   0  0  0  0  0  0  0  0  0  0  0  0
   -4.0295    1.2628   -1.2861 H   0  0  0  0  0  0  0  0  0  0  0  0
   -3.5344    0.2702    0.4387 H   0  0  0  0  0  0  0  0  0  0  0  0
   -1.4601    0.2939    0.1157 C   0  0  0  0  0  0  0  0  0  0  0  0
   -2.8285   -1.1380   -0.7929 H   0  0  0  0  0  0  0  0  0  0  0  0
   -2.7298   -1.2771    1.1247 H   0  0  0  0  0  0  0  0  0  0  0  0
   -0.2377   -0.7629   -0.0918 C   0  0  0  0  0  0  0  0  0  0  0  0
   -1.4017    1.1486    1.1896 H   0  0  0  0  0  0  0  0  0  0  0  0
   -1.6544    0.7850   -0.5639 H   0  0  0  0  0  0  0  0  0  0  0  0
   -0.2695   -1.1467    0.7899 H   0  0  0  0  0  0  0  0  0  0  0  0
    0.6590   -0.1251    0.3196 H   0  0  0  0  0  0  0  0  0  0  0  0
    0.3196   -1.7697   -1.0841 H   0  0  0  0  0  0  0  0  0  0  0  0
  1  3  1  0  0  0  0
  2  6  1  0  0  0  0
  2  5  1  0  0  0  0
  2  8  1  0  0  0  0
  6 10  1  0  0  0  0
  7  2  1  0  0  0  0
  9  6  1  0  0  0  0
  9 13  1  0  0  0  0
  9 12  1  0  0  0  0
 11  6  1  0  0  0  0
 14  9  1  0  0  0  0
M  RAD  1   4   2
M  END
$$$$
