butane_opt
 OpenBabel08242015403D

 14 11  0  0  0  0  0  0  0  0999 V2000
   -3.9839    0.2288   -0.0608 C   0  0  0  0  0  0  0  0  0  0  0  0
   -2.7267   -0.5755    0.1823 C   0  0  0  0  0  0  0  0  0  0  0  0
   -4.9711   -0.3253   -0.8580 H   0  0  0  0  0  0  0  0  0  0  0  0
   -3.4142    0.2565   -0.6346 H   0  0  0  0  0  0  0  0  0  0  0  0
   -4.1149    1.1657    1.0803 H   0  0  0  0  0  0  0  0  0  0  0  0
   -1.3827    0.2937    0.0848 C   0  0  0  0  0  0  0  0  0  0  0  0
   -2.7796   -1.2000   -0.5836 H   0  0  0  0  0  0  0  0  0  0  0  0
   -3.0912   -1.3471    1.2044 H   0  0  0  0  0  0  0  0  0  0  0  0
   -0.1278   -0.7632   -0.0483 C   0  0  0  0  0  0  0  0  0  0  0  0
   -1.1499    0.8323    0.7431 H   0  0  0  0  0  0  0  0  0  0  0  0
   -1.6058    1.2261   -1.0532 H   0  0  0  0  0  0  0  0  0  0  0  0
    0.1382   -1.3666    0.7788 H   0  0  0  0  0  0  0  0  0  0  0  0
    0.6407   -0.3974   -0.1181 H   0  0  0  0  0  0  0  0  0  0  0  0
   -0.0283   -1.5596   -0.9565 H   0  0  0  0  0  0  0  0  0  0  0  0
  1  5  1  0  0  0  0
  2  8  1  0  0  0  0
  3  1  1  0  0  0  0
  4  1  1  0  0  0  0
  6 10  1  0  0  0  0
  7  2  1  0  0  0  0
  9  6  1  0  0  0  0
  9 12  1  0  0  0  0
 11  6  1  0  0  0  0
 13  9  1  0  0  0  0
 14  9  1  0  0  0  0
M  RAD  3   1   2   2   3   6   2
M  END
$$$$
