butane_opt
 OpenBabel08242015403D

 14 11  0  0  0  0  0  0  0  0999 V2000
   -3.9260    0.3044    0.0934 C   0  0  0  0  0  1  0  0  0  0  0  0
   -2.6687   -0.7207   -0.0082 C   0  0  0  0  0  0  0  0  0  0  0  0
   -4.6397   -0.1909   -0.4616 H   0  0  0  0  0  0  0  0  0  0  0  0
   -3.8113    0.1809   -0.1627 H   0  0  0  0  0  0  0  0  0  0  0  0
   -4.2137    1.8722    1.5503 H   0  0  0  0  0  0  0  0  0  0  0  0
   -1.4528    0.1685   -0.1902 C   0  0  0  0  0  0  0  0  0  0  0  0
   -2.5756   -1.3604   -0.9009 H   0  0  0  0  0  0  0  0  0  0  0  0
   -2.6607   -1.2508    0.9146 H   0  0  0  0  0  0  0  0  0  0  0  0
   -0.1660   -0.6553    0.1522 C   0  0  0  0  0  0  0  0  0  0  0  0
   -1.5302    0.5494    0.5580 H   0  0  0  0  0  0  0  0  0  0  0  0
   -1.1690    0.9247   -1.1196 H   0  0  0  0  0  0  0  0  0  0  0  0
   -0.4248   -1.3665    1.0849 H   0  0  0  0  0  0  0  0  0  0  0  0
    0.8065   -0.0801   -0.0506 H   0  0  0  0  0  0  0  0  0  0  0  0
   -0.2364   -0.9057   -0.4277 H   0  0  0  0  0  0  0  0  0  0  0  0
  2  8  1  0  0  0  0
  3  1  1  0  0  0  0
  4  2  1  0  0  0  0
  6  2  1  0  0  0  0
  6  9  1  0  0  0  0
  6 10  1  0  0  0  0
  7  2  1  0  0  0  0
  9 12  1  0  0  0  0
 11  6  1  0  0  0  0
 13  9  1  0  0  0  0
 14  9  1  0  0  0  0
M  RAD  1   5   2
M  END
$$$$
