butane_opt
 OpenBabel08242015403D

 14 13  0  0  0  0  0  0  0  0999 V2000
   -3.8488    0.2486   -0.1339 C   0  0  0  0  0  0  0  0  0  0  0  0
   -2.6926   -0.6227    0.3045 C   0  0  0  0  0  0  0  0  0  0  0  0
   -4.7506   -0.3343   -0.8139 H   0  0  0  0  0  0  0  0  0  0  0  0
   -3.3018    0.4538   -0.8853 H   0  0  0  0  0  0  0  0  0  0  0  0
   -4.4639    1.1244    0.7928 H   0  0  0  0  0  0  0  0  0  0  0  0
   -1.5010    0.2332    0.1233 C   0  0  0  0  0  0  0  0  0  0  0  0
   -2.4937   -1.1341   -0.3883 H   0  0  0  0  0  0  0  0  0  0  0  0
   -2.9696   -1.2429    1.1883 H   0  0  0  0  0  0  0  0  0  0  0  0
   -0.1780   -0.7285   -0.1630 C   0  0  0  0  0  0  0  0  0  0  0  0
   -1.2163    0.9235    1.0289 H   0  0  0  0  0  0  0  0  0  0  0  0
   -1.6252    0.8930   -0.5830 H   0  0  0  0  0  0  0  0  0  0  0  0
    0.0279   -1.3163    0.6668 H   0  0  0  0  0  0  0  0  0  0  0  0
    0.6804   -0.0493   -0.0706 H   0  0  0  0  0  0  0  0  0  0  0  0
   -0.2663   -1.3924   -1.0051 H   0  0  0  0  0  0  0  0  0  0  0  0
  1  2  1  0  0  0  0
  1  5  1  0  0  0  0
  2  8  1  0  0  0  0
  3  1  1  0  0  0  0
  4  1  1  0  0  0  0
  6  2  1  0  0  0  0
  6 10  1  0  0  0  0
  7  2  1  0  0  0  0
  9 13  1  0  0  0  0
  9  6  1  0  0  0  0
  9 12  1  0  0  0  0
 11  6  1  0  0  0  0
 14  9  1  0  0  0  0
M  END
$$$$
