butane_opt
 OpenBabel08242015403D

 14  9  0  0  0  0  0  0  0  0999 V2000
   -3.8979    0.2132   -0.0796 C   0  0  0  0  0  0  0  0  0  0  0  0
   -2.6654   -0.5727    0.2293 C   0  0  0  0  0  0  0  0  0  0  0  0
   -4.7795   -0.2886    0.1214 H   0  0  0  0  0  0  0  0  0  0  0  0
   -3.5491    1.2975   -1.2859 H   0  0  0  0  0  0  0  0  0  0  0  0
   -4.3264    0.4683    0.2998 H   0  0  0  0  0  0  0  0  0  0  0  0
   -1.4427    0.1774    0.0824 C   0  0  0  0  0  0  0  0  0  0  0  0
   -2.5823   -1.0789   -0.4861 H   0  0  0  0  0  0  0  0  0  0  0  0
   -2.7025   -1.4007    1.2547 H   0  0  0  0  0  0  0  0  0  0  0  0
   -0.2420   -0.7211   -0.1128 C   0  0  0  0  0  1  0  0  0  0  0  0
   -1.2036    1.0868    1.2114 H   0  0  0  0  0  0  0  0  0  0  0  0
   -1.4263    0.9462   -0.7807 H   0  0  0  0  0  0  0  0  0  0  0  0
   -0.2699   -0.4659    0.2945 H   0  0  0  0  0  0  0  0  0  0  0  0
    0.6678   -0.1346    0.6896 H   0  0  0  0  0  0  0  0  0  0  0  0
    0.1336   -2.1147   -1.4203 H   0  0  0  0  0  0  0  0  0  0  0  0
  1  3  1  0  0  0  0
  1  2  1  0  0  0  0
  2  8  1  0  0  0  0
  6  2  1  0  0  0  0
  6 12  1  0  0  0  0
  6 10  1  0  0  0  0
  7  2  1  0  0  0  0
  9 13  1  0  0  0  0
 11  6  1  0  0  0  0
M  RAD  4   1   3   4   2   5   2  14   2
M  END
$$$$
