14
butane_opt
C  -3.866039   0.287559  -0.104693
C  -2.658415  -0.623365   0.166542
H  -4.640963  -0.251016   0.260148
H  -4.125913   1.446937  -1.412727
H  -4.081535   0.395353   0.406890
C  -1.418000   0.130970   0.151933
H  -2.725123  -1.105677  -0.608866
H  -2.765722  -1.542528   1.178837
C  -0.250167  -0.698359  -0.108141
H  -1.099303   1.151298   1.230749
H  -1.458536   0.647603  -0.511226
H  -0.385291  -0.689034   0.519971
H   0.827932  -0.009848   0.166107
H  -0.232431  -1.663261  -1.176304
