14
butane_opt
C  -3.896222   0.247353   0.169096
C  -2.737404  -0.642244  -0.047099
H  -4.896405  -0.387775  -0.618422
H  -3.796241   0.304991  -0.256472
H  -4.186295   1.471843   1.323915
C  -1.456976   0.282561  -0.176269
H  -3.022636  -1.444709  -1.160960
H  -2.497193  -0.985382   0.522133
C  -0.143210  -0.741981   0.204107
H  -1.216739   0.778759   0.427810
H  -1.291298   1.063400  -1.106627
H   0.037147  -1.898592   1.406498
H   0.807700  -0.170142  -0.346768
H  -0.129587  -1.000736  -0.441801
