14
butane_opt
C  -3.975421   0.321859  -0.112937
C  -2.704593  -0.665738   0.187680
H  -5.060967  -0.415217  -0.689030
H  -3.575441   0.581339  -0.750599
H  -4.529247   1.554967   0.985758
C  -1.373252   0.090734   0.138317
H  -2.676433  -0.808784  -0.386808
H  -2.812719  -1.462484   1.323879
C  -0.143597  -0.645182  -0.075069
H  -1.095316   0.711590   0.842653
H  -1.331730   0.638393  -0.820175
H   0.073419  -1.194337   0.691071
H   0.729565  -0.013940  -0.284319
H  -0.371138  -1.337949  -1.068536
