14
butane_opt
C  -3.894408   0.195939   0.198781
C  -2.693315  -0.475416  -0.170261
H  -4.973989  -0.529739   0.782701
H  -4.166106   1.176338  -0.920457
H  -3.158447   0.375667   0.797120
C  -1.483974   0.180922  -0.110918
H  -2.932476  -1.639462  -1.413378
H  -2.622805  -0.748941   0.415249
C  -0.172283  -0.712684   0.156486
H  -1.708675   0.822841   0.708727
H  -1.392316   1.056386  -1.011647
H  -0.345011  -1.684797   1.459897
H   0.850930  -0.221805   0.248619
H   0.321622  -1.338666  -0.567468
