14
butane_opt
C  -4.025228   0.284519   0.048946
C  -2.740232  -0.642497   0.041749
H  -4.913893  -0.227366  -0.637992
H  -3.750120   0.211777  -0.323996
H  -4.076376   1.821190   1.364473
C  -1.376069   0.208035  -0.105629
H  -2.867632  -1.388207  -0.758820
H  -2.614445  -1.298154   0.883240
C  -0.112273  -0.704966   0.085027
H  -1.131605   0.601332   0.542981
H  -1.399729   0.718326  -0.939478
H  -0.233657  -1.588079   1.290897
H   0.960224   0.025238  -0.248716
H   0.012869  -1.056166  -0.478310
