butane_opt
 OpenBabel08242015403D

 14  8  0  0  0  0  0  0  0  0999 V2000
   -3.9603    0.3287    0.1547 C   0  0  0  0  0  0  0  0  0  0  0  0
   -2.6437   -0.6526   -0.1574 C   0  0  0  0  0  0  0  0  0  0  0  0
   -4.8241   -0.2521   -0.1076 H   0  0  0  0  0  0  0  0  0  0  0  0
   -4.2390    0.7913   -0.5897 H   0  0  0  0  0  0  0  0  0  0  0  0
   -3.9235    1.1171    1.0833 H   0  0  0  0  0  0  0  0  0  0  0  0
   -1.3714    0.0876   -0.0092 C   0  0  0  0  0  1  0  0  0  0  0  0
   -2.7984   -1.5466   -1.2500 H   0  0  0  0  0  0  0  0  0  0  0  0
   -2.3605   -1.1231    0.5762 H   0  0  0  0  0  0  0  0  0  0  0  0
   -0.2615   -0.6275    0.1481 C   0  0  0  0  0  1  0  0  0  0  0  0
   -1.3642    0.5569    0.7644 H   0  0  0  0  0  0  0  0  0  0  0  0
   -0.9172    1.0393   -1.2055 H   0  0  0  0  0  0  0  0  0  0  0  0
    0.0052   -1.8496    1.5408 H   0  0  0  0  0  0  0  0  0  0  0  0
    0.9012    0.0256   -0.5964 H   0  0  0  0  0  0  0  0  0  0  0  0
   -0.6732   -0.8320   -0.3716 H   0  0  0  0  0  0  0  0  0  0  0  0
  1  5  1  0  0  0  0
  2  1  1  0  0  0  0
  2  8  1  0  0  0  0
  3  1  1  0  0  0  0
  4  1  1  0  0  0  0
  6 10  1  0  0  0  0
  7  2  1  0  0  0  0
 14  9  1  0  0  0  0
M  RAD  4   2   2  11   2  12   2  13   2
M  END
$$$$
