14
butane_opt
C  -3.975315   0.307273   0.154290
C  -2.679780  -0.634525  -0.175499
H  -4.668083   0.000167   0.693869
H  -4.543020   0.949978  -0.723217
H  -3.454469   0.795162   1.037387
C  -1.349054   0.058785  -0.138454
H  -2.620883  -1.341535  -1.141511
H  -2.591689  -1.078919   0.495310
C  -0.209170  -0.619718   0.206891
H  -1.473285   0.687050   0.710475
H  -1.444518   0.699285  -1.020358
H  -0.535470  -1.347514   1.274927
H   0.959001   0.108197   0.042189
H  -0.150908  -1.215222  -0.497688
