14
butane_opt
C  -3.951976   0.270768   0.011416
C  -2.698026  -0.631519   0.052587
H  -4.841376  -0.293167   0.067200
H  -3.967058   0.941603  -0.898216
H  -3.977897   0.907900   0.865084
C  -1.400402   0.184758   0.005997
H  -2.696400  -1.306938  -0.773089
H  -2.721873  -1.267025   0.943815
C  -0.166877  -0.692374   0.029919
H  -1.365926   0.884599   0.861504
H  -1.323235   0.841421  -0.924758
H  -0.152843  -1.196898   0.864064
H   0.775881  -0.100946   0.131553
H  -0.149181  -1.461246  -0.907876
