butane_opt
 OpenBabel08242015403D

 14 11  0  0  0  0  0  0  0  0999 V2000
   -3.9182    0.3045    0.0309 C   0  0  0  0  0  0  0  0  0  0  0  0
   -2.6761   -0.6142    0.0342 C   0  0  0  0  0  0  0  0  0  0  0  0
   -4.8014   -0.2764   -0.3691 H   0  0  0  0  0  0  0  0  0  0  0  0
   -3.8357    0.3939   -0.5447 H   0  0  0  0  0  0  0  0  0  0  0  0
   -4.1320    1.6866    1.4778 H   0  0  0  0  0  0  0  0  0  0  0  0
   -1.3436    0.0499   -0.0753 C   0  0  0  0  0  0  0  0  0  0  0  0
   -2.7441   -1.4094   -0.9300 H   0  0  0  0  0  0  0  0  0  0  0  0
   -2.7473   -1.1276    0.9424 H   0  0  0  0  0  0  0  0  0  0  0  0
   -0.2402   -0.6568    0.1028 C   0  0  0  0  0  0  0  0  0  0  0  0
   -1.3719    0.5372    0.6761 H   0  0  0  0  0  0  0  0  0  0  0  0
   -1.5876    1.0077   -1.1249 H   0  0  0  0  0  0  0  0  0  0  0  0
   -0.1641   -1.4471    1.0487 H   0  0  0  0  0  0  0  0  0  0  0  0
    0.8716    0.1779   -0.1265 H   0  0  0  0  0  0  0  0  0  0  0  0
   -0.3952   -0.9894   -0.5995 H   0  0  0  0  0  0  0  0  0  0  0  0
  1  2  1  0  0  0  0
  2  8  1  0  0  0  0
  3  1  1  0  0  0  0
  6  2  1  0  0  0  0
  6  9  1  0  0  0  0
  6 10  1  0  0  0  0
  7  2  1  0  0  0  0
  9 12  1  0  0  0  0
 11  6  1  0  0  0  0
 13  9  1  0  0  0  0
 14  9  1  0  0  0  0
M  RAD  3   1   3   4   2   5   2
M  END
$$$$
