14
butane_opt
C  -4.043730   0.316989   0.177118
C  -2.629028  -0.704603  -0.157041
H  -4.682377  -0.102533   0.737984
H  -4.323932   1.106597  -0.648183
H  -4.004285   0.701694   0.863422
C  -1.350209   0.129867  -0.138276
H  -2.725158  -1.552699  -1.168480
H  -2.505219  -1.048910   0.467973
C  -0.175305  -0.598614   0.192520
H  -1.258463   0.479653   0.579451
H  -1.330940   0.927516  -1.154945
H  -0.489702  -1.208139   1.210238
H   0.554597  -0.093155   0.464100
H   0.091511  -1.397977  -0.795567
