butane_opt
 OpenBabel08242015403D

 14  9  0  0  0  0  0  0  0  0999 V2000
   -3.9606    0.3007    0.0886 C   0  0  0  0  0  0  0  0  0  0  0  0
   -2.7294   -0.6527   -0.0206 C   0  0  0  0  0  0  0  0  0  0  0  0
   -5.0493   -0.4789   -0.1015 H   0  0  0  0  0  0  0  0  0  0  0  0
   -4.0009    0.7692   -0.7031 H   0  0  0  0  0  0  0  0  0  0  0  0
   -4.1201    1.2351    1.1564 H   0  0  0  0  0  0  0  0  0  0  0  0
   -1.3562    0.1746   -0.0224 C   0  0  0  0  0  0  0  0  0  0  0  0
   -2.5481   -1.7153   -1.2073 H   0  0  0  0  0  0  0  0  0  0  0  0
   -2.4785   -0.7626    0.5709 H   0  0  0  0  0  0  0  0  0  0  0  0
   -0.1596   -0.7095    0.0633 C   0  0  0  0  0  1  0  0  0  0  0  0
   -1.3395    0.7099    0.7042 H   0  0  0  0  0  0  0  0  0  0  0  0
   -1.2347    0.8229   -0.9733 H   0  0  0  0  0  0  0  0  0  0  0  0
   -0.0489   -1.8450    1.4844 H   0  0  0  0  0  0  0  0  0  0  0  0
    0.7317   -0.0447   -0.3897 H   0  0  0  0  0  0  0  0  0  0  0  0
   -0.4064   -0.5494   -0.2961 H   0  0  0  0  0  0  0  0  0  0  0  0
  1  5  1  0  0  0  0
  2  1  1  0  0  0  0
  2  8  1  0  0  0  0
  3  1  1  0  0  0  0
  4  1  1  0  0  0  0
  6 10  1  0  0  0  0
 11  6  1  0  0  0  0
 13  9  1  0  0  0  0
 14  6  1  0  0  0  0
M  RAD  4   2   3   6   2   7   2  12   2
M  END
$$$$
