14
butane_opt
C  -3.875763   0.227427   0.162139
C  -2.778212  -0.512406  -0.162300
H  -5.004262  -0.584747   0.176200
H  -3.722621   0.538169  -0.628504
H  -3.835309   1.099087   1.219308
C  -1.421581   0.206664  -0.116987
H  -2.958866  -1.559079  -1.278150
H  -2.703808  -0.915524   0.560029
C  -0.094858  -0.752594   0.183664
H  -1.491014   1.161340   0.783397
H  -1.623612   0.824960  -0.923815
H   0.045867  -2.100399   1.641742
H   0.733655  -0.293740  -0.719488
H  -0.377199  -0.688456  -0.057661
