butane_opt
 OpenBabel08242015403D

 14 10  0  0  0  0  0  0  0  0999 V2000
   -4.0724    0.3050    0.1636 C   0  0  0  0  0  0  0  0  0  0  0  0
   -2.6690   -0.7081   -0.0519 C   0  0  0  0  0  0  0  0  0  0  0  0
   -4.8176   -0.0323    0.1214 H   0  0  0  0  0  0  0  0  0  0  0  0
   -4.1942    0.8766   -0.6535 H   0  0  0  0  0  0  0  0  0  0  0  0
   -4.0642    1.0306    1.0247 H   0  0  0  0  0  0  0  0  0  0  0  0
   -1.3844    0.1719   -0.1667 C   0  0  0  0  0  0  0  0  0  0  0  0
   -2.7774   -1.3983   -0.9121 H   0  0  0  0  0  0  0  0  0  0  0  0
   -2.4730   -1.2422    0.7809 H   0  0  0  0  0  0  0  0  0  0  0  0
   -0.1300   -0.6624    0.1832 C   0  0  0  0  0  0  0  0  0  0  0  0
   -1.6714    0.3991    0.4134 H   0  0  0  0  0  0  0  0  0  0  0  0
   -0.8664    1.0733   -1.2932 H   0  0  0  0  0  0  0  0  0  0  0  0
   -0.5457   -0.8456    0.8053 H   0  0  0  0  0  0  0  0  0  0  0  0
    1.1477    0.2004    0.6718 H   0  0  0  0  0  0  0  0  0  0  0  0
    0.2517   -1.7762   -1.1422 H   0  0  0  0  0  0  0  0  0  0  0  0
  1  5  1  0  0  0  0
  2  1  1  0  0  0  0
  2  8  1  0  0  0  0
  3  1  1  0  0  0  0
  4  1  1  0  0  0  0
  6  2  1  0  0  0  0
  6  9  1  0  0  0  0
  6 10  1  0  0  0  0
  7  2  1  0  0  0  0
  9 12  1  0  0  0  0
M  RAD  5   6   2   9   3  11   2  13   2  14   2
M  END
$$$$
