butane_opt
 OpenBabel08242015403D

 14 11  0  0  0  0  0  0  0  0999 V2000
   -3.9754    0.3219   -0.1129 C   0  0  0  0  0  0  0  0  0  0  0  0
   -2.7046   -0.6657    0.1877 C   0  0  0  0  0  0  0  0  0  0  0  0
   -5.0610   -0.4152   -0.6890 H   0  0  0  0  0  0  0  0  0  0  0  0
   -3.5754    0.5813   -0.7506 H   0  0  0  0  0  0  0  0  0  0  0  0
   -4.5292    1.5550    0.9858 H   0  0  0  0  0  0  0  0  0  0  0  0
   -1.3733    0.0907    0.1383 C   0  0  0  0  0  0  0  0  0  0  0  0
   -2.6764   -0.8088   -0.3868 H   0  0  0  0  0  0  0  0  0  0  0  0
   -2.8127   -1.4625    1.3239 H   0  0  0  0  0  0  0  0  0  0  0  0
   -0.1436   -0.6452   -0.0751 C   0  0  0  0  0  0  0  0  0  0  0  0
   -1.0953    0.7116    0.8427 H   0  0  0  0  0  0  0  0  0  0  0  0
   -1.3317    0.6384   -0.8202 H   0  0  0  0  0  0  0  0  0  0  0  0
    0.0734   -1.1943    0.6911 H   0  0  0  0  0  0  0  0  0  0  0  0
    0.7296   -0.0139   -0.2843 H   0  0  0  0  0  0  0  0  0  0  0  0
   -0.3711   -1.3379   -1.0685 H   0  0  0  0  0  0  0  0  0  0  0  0
  1  2  1  0  0  0  0
  2  8  1  0  0  0  0
  3  1  1  0  0  0  0
  4  1  1  0  0  0  0
  6  2  1  0  0  0  0
  6 10  1  0  0  0  0
  9  6  1  0  0  0  0
  9 12  1  0  0  0  0
 11  6  1  0  0  0  0
 13  9  1  0  0  0  0
 14  9  1  0  0  0  0
M  RAD  4   1   2   2   2   5   2   7   2
M  END
$$$$
