14
butane_opt
C  -3.947662   0.374985  -0.109333
C  -2.635503  -0.688624   0.068207
H  -4.983443  -0.339382   0.909585
H  -4.170004   1.456533  -1.409618
H  -3.584275   0.294963   0.343548
C  -1.391659   0.053327   0.231193
H  -2.534103  -1.250276  -0.636076
H  -2.687845  -1.201446   0.956001
C  -0.254785  -0.633328  -0.078329
H  -1.233656   0.684765   1.004079
H  -1.447929   0.782079  -0.707183
H  -0.218231  -0.779738   0.462461
H   0.766586   0.116066   0.211368
H  -0.226320  -1.485550  -1.113276
