14
butane_opt
C  -3.933179   0.318861  -0.118334
C  -2.600328  -0.695756   0.167349
H  -4.941936  -0.351389  -0.391340
H  -4.067818   0.950468  -1.025971
H  -4.194983   0.995439   0.681280
C  -1.428815   0.189468   0.202902
H  -2.505125  -1.307312  -0.569242
H  -2.566162  -1.545179   1.056460
C  -0.237522  -0.647117  -0.145588
H  -1.034655   0.916716   1.177298
H  -1.462226   0.476981  -0.388467
H  -0.167415  -1.703634   0.927556
H   0.693451   0.050219  -0.469288
H  -0.359630  -0.916681  -0.817756
