14
butane_opt
C  -3.977381   0.287088   0.112156
C  -2.668908  -0.657039  -0.074071
H  -4.918343  -0.243204   0.324162
H  -4.428884   0.782234  -0.641928
H  -3.939623   1.020621   0.950487
C  -1.396140   0.153401  -0.122660
H  -2.882431  -1.102930  -0.828473
H  -2.804874  -1.198436   0.807736
C  -0.102407  -0.664357   0.172743
H  -1.358402   0.677337   0.506118
H  -1.470321   0.859321  -1.159502
H  -0.497337  -1.033360   0.888985
H   0.897182   0.115820   0.378530
H   0.113325  -1.797337  -0.865158
