butane_opt
 OpenBabel08242015403D

 14  9  0  0  0  0  0  0  0  0999 V2000
   -3.9063    0.3421   -0.0518 C   0  0  0  0  0  0  0  0  0  0  0  0
   -2.7066   -0.6396    0.1063 C   0  0  0  0  0  0  0  0  0  0  0  0
   -4.7725   -0.3428    0.2009 H   0  0  0  0  0  0  0  0  0  0  0  0
   -4.0582    0.9413   -0.8748 H   0  0  0  0  0  0  0  0  0  0  0  0
   -4.0232    0.6538    0.7127 H   0  0  0  0  0  0  0  0  0  0  0  0
   -1.4120    0.1027   -0.0112 C   0  0  0  0  0  0  0  0  0  0  0  0
   -2.8804   -0.8302   -0.4241 H   0  0  0  0  0  0  0  0  0  0  0  0
   -2.7795   -1.5684    1.2098 H   0  0  0  0  0  0  0  0  0  0  0  0
   -0.1638   -0.6616    0.0302 C   0  0  0  0  0  1  0  0  0  0  0  0
   -1.2717    0.8699    0.7821 H   0  0  0  0  0  0  0  0  0  0  0  0
   -1.3981    0.6505   -0.7838 H   0  0  0  0  0  0  0  0  0  0  0  0
   -0.4802   -0.4937    0.4701 H   0  0  0  0  0  0  0  0  0  0  0  0
    0.9064    0.0159    0.5744 H   0  0  0  0  0  0  0  0  0  0  0  0
   -0.0267   -2.1031   -1.4190 H   0  0  0  0  0  0  0  0  0  0  0  0
  1  2  1  0  0  0  0
  1  3  1  0  0  0  0
  1  5  1  0  0  0  0
  2  8  1  0  0  0  0
  4  1  1  0  0  0  0
  6 12  1  0  0  0  0
  6 10  1  0  0  0  0
  9 13  1  0  0  0  0
 11  6  1  0  0  0  0
M  RAD  4   2   3   6   2   7   2  14   2
M  END
$$$$
