butane_opt
 OpenBabel08242015403D

 14  9  0  0  0  0  0  0  0  0999 V2000
   -3.9595    0.2909    0.1409 C   0  0  0  0  0  0  0  0  0  0  0  0
   -2.6739   -0.7179   -0.1457 C   0  0  0  0  0  0  0  0  0  0  0  0
   -4.6125   -0.1084    0.0739 H   0  0  0  0  0  0  0  0  0  0  0  0
   -4.2012    0.9059   -0.6769 H   0  0  0  0  0  0  0  0  0  0  0  0
   -4.0455    1.3488    1.1819 H   0  0  0  0  0  0  0  0  0  0  0  0
   -1.3858    0.1328   -0.0158 C   0  0  0  0  0  0  0  0  0  0  0  0
   -2.5859   -1.7104   -1.2039 H   0  0  0  0  0  0  0  0  0  0  0  0
   -2.4762   -0.9872    0.5611 H   0  0  0  0  0  0  0  0  0  0  0  0
   -0.1882   -0.6412    0.1385 C   0  0  0  0  0 15  0  0  0  0  0  0
   -1.5249    0.8590    0.7476 H   0  0  0  0  0  0  0  0  0  0  0  0
   -1.1726    1.0043   -1.0327 H   0  0  0  0  0  0  0  0  0  0  0  0
   -0.4087   -2.0532    1.5208 H   0  0  0  0  0  0  0  0  0  0  0  0
    0.9516    0.0992   -0.7764 H   0  0  0  0  0  0  0  0  0  0  0  0
   -0.4518   -0.5738   -0.2999 H   0  0  0  0  0  0  0  0  0  0  0  0
  1  5  1  0  0  0  0
  2  1  1  0  0  0  0
  2  8  1  0  0  0  0
  3  1  1  0  0  0  0
  4  1  1  0  0  0  0
  6 10  1  0  0  0  0
  7  2  1  0  0  0  0
 11  6  1  0  0  0  0
 14  6  1  0  0  0  0
M  RAD  4   2   2   6   2  12   2  13   2
M  END
$$$$
