14
butane_opt
C  -3.993802   0.203514   0.079624
C  -2.692156  -0.543133  -0.017682
H  -4.944876  -0.442514   0.053912
H  -4.124741   0.645984  -0.648605
H  -4.012158   1.003994   1.008716
C  -1.412703   0.233355  -0.135572
H  -2.995763  -1.018162  -0.740015
H  -2.732582  -1.326757   0.942385
C  -0.043991  -0.737569   0.166668
H  -1.448523   0.791503   0.726930
H  -1.434065   0.837102  -1.054295
H  -0.236694  -0.970430   0.698340
H   0.569604  -0.260720   0.272797
H   0.104349  -1.656395  -0.970389
