butane_opt
 OpenBabel08242015403D

 14 10  0  0  0  0  0  0  0  0999 V2000
   -3.9856    0.3060   -0.1102 C   0  0  0  0  0  0  0  0  0  0  0  0
   -2.7197   -0.6921    0.1204 C   0  0  0  0  0  0  0  0  0  0  0  0
   -4.9141   -0.2667    0.6958 H   0  0  0  0  0  0  0  0  0  0  0  0
   -4.3089    1.5331   -1.4656 H   0  0  0  0  0  0  0  0  0  0  0  0
   -3.8240    0.4750    0.3744 H   0  0  0  0  0  0  0  0  0  0  0  0
   -1.3965    0.1199    0.1554 C   0  0  0  0  0  0  0  0  0  0  0  0
   -2.5452   -1.1183   -0.5725 H   0  0  0  0  0  0  0  0  0  0  0  0
   -2.5434   -1.2904    0.9845 H   0  0  0  0  0  0  0  0  0  0  0  0
   -0.1221   -0.6350   -0.1111 C   0  0  0  0  0  0  0  0  0  0  0  0
   -1.0438    1.2737    1.2352 H   0  0  0  0  0  0  0  0  0  0  0  0
   -1.4598    0.3979   -0.5044 H   0  0  0  0  0  0  0  0  0  0  0  0
   -0.1657   -1.1615    0.8606 H   0  0  0  0  0  0  0  0  0  0  0  0
    0.7033   -0.0614    0.3160 H   0  0  0  0  0  0  0  0  0  0  0  0
   -0.2304   -1.4709   -1.1828 H   0  0  0  0  0  0  0  0  0  0  0  0
  1  2  1  0  0  0  0
  1  3  1  0  0  0  0
  2  6  1  0  0  0  0
  2  8  1  0  0  0  0
  7  2  1  0  0  0  0
  9  6  1  0  0  0  0
  9 13  1  0  0  0  0
  9 12  1  0  0  0  0
 11  6  1  0  0  0  0
 14  9  1  0  0  0  0
M  RAD  5   1   3   4   2   5   2   6   2  10   2
M  END
$$$$
