14
butane_opt
C  -3.975719   0.224040  -0.088260
C  -2.720794  -0.536292   0.193098
H  -5.013424  -0.590786  -0.489148
H  -3.645464   0.430354  -0.929714
H  -4.503788   1.212275   0.843989
C  -1.402896   0.262219   0.054977
H  -2.764630  -0.996770  -0.440230
H  -2.789728  -1.433931   1.325648
C  -0.110105  -0.753600  -0.053607
H  -0.989179   1.015487   0.890638
H  -1.499141   0.596555  -0.561616
H   0.154450  -1.276012   0.784664
H   0.744740  -0.273823  -0.133146
H  -0.132363  -1.558985  -1.077648
