14
butane_opt
C  -3.968647   0.298680  -0.055206
C  -2.719308  -0.704218   0.140526
H  -4.745258  -0.300453   0.306639
H  -4.252997   1.586534  -1.380730
H  -4.022843   0.539054   0.568742
C  -1.350283   0.215876   0.069586
H  -2.614716  -1.411972  -0.773696
H  -2.913186  -1.384384   0.986558
C  -0.116553  -0.675809  -0.066336
H  -1.265999   1.173531   1.262757
H  -1.551592   0.521145  -0.605721
H  -0.266838  -1.068384   0.763011
H   0.707145  -0.087014   0.177103
H  -0.225316  -1.621532  -1.000989
