14
butane_opt
C  -4.015676   0.300719   0.134696
C  -2.670103  -0.686148  -0.205029
H  -4.727115  -0.071495   0.640513
H  -4.602584   1.030282  -0.817591
H  -3.801611   0.746437   0.918353
C  -1.345156   0.140195  -0.077749
H  -2.594019  -1.249577  -0.967137
H  -2.348406  -1.276720   0.629587
C  -0.229278  -0.638896   0.195139
H  -1.356509   0.844523   0.977880
H  -1.195971   0.636302  -0.924990
H   0.188914  -1.513697   1.067446
H   0.792397  -0.002377  -0.131660
H  -0.290662  -0.940134  -0.498176
