14
butane_opt
C  -3.867178   0.191410  -0.197331
C  -2.678919  -0.507588   0.258915
H  -4.970170  -0.538223  -0.523474
H  -3.578913   0.701395  -1.012310
H  -4.015780   1.242071   0.816798
C  -1.514121   0.177320   0.188938
H  -2.420444  -1.028350  -0.289988
H  -3.155020  -1.461837   1.423202
C  -0.131731  -0.719793  -0.151897
H  -1.312502   1.142861   1.244918
H  -1.681472   0.619599  -0.539317
H   0.265462  -1.428027   0.742198
H   0.803954  -0.172995  -0.362819
H  -0.632852  -1.270546  -1.175530
