butane_opt
 OpenBabel08242015403D

 14 13  0  0  0  0  0  0  0  0999 V2000
   -4.0050    0.3519    0.1143 C   0  0  0  0  0  0  0  0  0  0  0  0
   -2.7687   -0.7011   -0.1504 C   0  0  0  0  0  0  0  0  0  0  0  0
   -4.8747   -0.1244    0.7855 H   0  0  0  0  0  0  0  0  0  0  0  0
   -4.4287    1.2095   -0.8725 H   0  0  0  0  0  0  0  0  0  0  0  0
   -3.7508    0.5855    0.8233 H   0  0  0  0  0  0  0  0  0  0  0  0
   -1.3398    0.1431   -0.0879 C   0  0  0  0  0  0  0  0  0  0  0  0
   -2.6209   -1.5365   -0.9705 H   0  0  0  0  0  0  0  0  0  0  0  0
   -2.5326   -1.3769    0.8479 H   0  0  0  0  0  0  0  0  0  0  0  0
   -0.1202   -0.6292    0.1662 C   0  0  0  0  0  0  0  0  0  0  0  0
   -1.4558    1.0316    0.8228 H   0  0  0  0  0  0  0  0  0  0  0  0
   -0.8931    0.6434   -0.8716 H   0  0  0  0  0  0  0  0  0  0  0  0
   -0.3184   -1.2922    0.9922 H   0  0  0  0  0  0  0  0  0  0  0  0
    0.7679   -0.1275    0.0257 H   0  0  0  0  0  0  0  0  0  0  0  0
   -0.1213   -1.4346   -0.7218 H   0  0  0  0  0  0  0  0  0  0  0  0
  1  3  1  0  0  0  0
  1  5  1  0  0  0  0
  2  6  1  0  0  0  0
  2  1  1  0  0  0  0
  2  8  1  0  0  0  0
  4  1  1  0  0  0  0
  6  9  1  0  0  0  0
  6 10  1  0  0  0  0
  7  2  1  0  0  0  0
  9 12  1  0  0  0  0
 11  6  1  0  0  0  0
 13  9  1  0  0  0  0
 14  9  1  0  0  0  0
M  END
$$$$
