14
butane_opt
C  -3.945600   0.257048   0.027737
C  -2.700828  -0.611700   0.024919
H  -4.870208  -0.356144   0.050424
H  -3.940159   0.844742  -0.834802
H  -3.910601   0.938889   0.910614
C  -1.408723   0.206054   0.004466
H  -2.764126  -1.382209  -0.906922
H  -2.679434  -1.176659   0.874511
C  -0.156707  -0.701344   0.047115
H  -1.399859   0.854594   0.831384
H  -1.435727   0.838397  -0.908298
H  -0.088612  -1.408552   1.001481
H   0.700990  -0.143888  -0.081021
H  -0.095288  -1.280750  -0.738245
