14
butane_opt
C  -4.069662   0.313223  -0.099600
C  -2.657588  -0.696251   0.083708
H  -4.859625  -0.279010   0.506271
H  -4.139950   1.531619  -1.249861
H  -3.853163   0.540519   0.493930
C  -1.348562   0.149441   0.151765
H  -2.784496  -1.179393  -0.715376
H  -2.583565  -1.296490   1.073671
C  -0.156988  -0.631841  -0.023990
H  -1.275727   0.794504   1.103577
H  -1.294502   0.570304  -0.489966
H  -0.037427  -1.028244   0.608796
H   0.846886  -0.040164  -0.223842
H  -0.277542  -1.661357  -1.135642
