butane_opt
 OpenBabel08242015403D

 14 13  0  0  0  0  0  0  0  0999 V2000
   -3.9588    0.2704    0.0029 C   0  0  0  0  0  0  0  0  0  0  0  0
   -2.6892   -0.6242    0.0570 C   0  0  0  0  0  0  0  0  0  0  0  0
   -4.8901   -0.3533    0.0925 H   0  0  0  0  0  0  0  0  0  0  0  0
   -4.0140    0.9188   -0.9177 H   0  0  0  0  0  0  0  0  0  0  0  0
   -3.9556    0.9082    0.8185 H   0  0  0  0  0  0  0  0  0  0  0  0
   -1.3993    0.1796    0.0202 C   0  0  0  0  0  0  0  0  0  0  0  0
   -2.6841   -1.2733   -0.7750 H   0  0  0  0  0  0  0  0  0  0  0  0
   -2.7123   -1.2273    0.9328 H   0  0  0  0  0  0  0  0  0  0  0  0
   -0.1559   -0.6901    0.0238 C   0  0  0  0  0  0  0  0  0  0  0  0
   -1.3484    0.8276    0.8723 H   0  0  0  0  0  0  0  0  0  0  0  0
   -1.4106    0.8395   -0.8990 H   0  0  0  0  0  0  0  0  0  0  0  0
   -0.1473   -1.2174    0.8579 H   0  0  0  0  0  0  0  0  0  0  0  0
    0.7465   -0.0789    0.1183 H   0  0  0  0  0  0  0  0  0  0  0  0
   -0.1655   -1.4525   -0.9124 H   0  0  0  0  0  0  0  0  0  0  0  0
  1  2  1  0  0  0  0
  1  3  1  0  0  0  0
  1  5  1  0  0  0  0
  2  8  1  0  0  0  0
  4  1  1  0  0  0  0
  6  9  1  0  0  0  0
  6  2  1  0  0  0  0
  6 10  1  0  0  0  0
  7  2  1  0  0  0  0
  9 13  1  0  0  0  0
  9 12  1  0  0  0  0
 11  6  1  0  0  0  0
 14  9  1  0  0  0  0
M  END
$$$$
