14
butane_opt
C  -3.962859   0.193114   0.161684
C  -2.737143  -0.525948  -0.191537
H  -4.978484  -0.502691   0.577828
H  -4.539186   0.794198  -0.574373
H  -3.712171   0.725916   0.932956
C  -1.398229   0.289846  -0.145043
H  -2.787820  -1.387297  -1.119714
H  -2.607583  -1.041542   0.713335
C  -0.087741  -0.744607   0.214392
H  -1.461152   0.742099   0.641860
H  -1.474992   0.808031  -1.025678
H   0.110760  -1.519145   1.180803
H   0.694755  -0.382464   0.157673
H   0.024087  -1.270325  -0.491787
