14
butane_opt
C  -3.911638   0.347463   0.058012
C  -2.655940  -0.647433   0.028431
H  -4.824737  -0.338261  -0.517106
H  -3.762344   0.330997  -0.307124
H  -4.076536   1.536095   1.297741
C  -1.410670   0.039629  -0.078539
H  -2.682360  -1.437947  -0.969324
H  -2.774247  -1.213472   0.825863
C  -0.222060  -0.614803   0.130628
H  -1.274497   0.607830   0.626908
H  -1.301678   1.093874  -1.228452
H  -0.265127  -1.372750   1.129879
H   0.736099  -0.027005  -0.393684
H  -0.420085  -1.162305  -0.607386
