14
butane_opt
C  -3.975220   0.280558   0.005754
C  -2.671962  -0.612804  -0.001805
H  -4.776509  -0.204537  -0.221912
H  -4.096227   0.739464  -0.779823
H  -3.863504   1.196704   1.102632
C  -1.351469   0.128656   0.081820
H  -2.505563  -1.600782  -1.067500
H  -2.771769  -1.093897   0.858047
C  -0.251024  -0.673935   0.065487
H  -1.003913   0.772080   0.838802
H  -1.337389   0.857630  -0.915805
H   0.249130  -1.671506   1.200735
H   0.714184  -0.218410  -0.890322
H  -0.620080  -0.684184  -0.408419
