14
butane_opt
C  -3.914268   0.212855  -0.151968
C  -2.728951  -0.606108   0.305156
H  -4.747316  -0.341522  -0.443325
H  -3.730652   0.793395  -1.015248
H  -4.303032   1.193626   0.744929
C  -1.422392   0.251732   0.120982
H  -2.625943  -1.333475  -0.512549
H  -2.966089  -1.211987   1.312541
C  -0.129138  -0.697033  -0.123387
H  -1.472252   0.682678   0.872119
H  -1.742282   0.788148  -0.735454
H  -0.017447  -0.987672   0.592637
H   0.745575  -0.140827   0.034375
H   0.153335  -1.841889  -1.250772
