14
butane_opt
C  -3.934005   0.298546  -0.095945
C  -2.673408  -0.684601   0.152129
H  -4.675081  -0.201493   0.357106
H  -3.798906   1.487747  -1.375196
H  -3.847085   0.315577   0.451146
C  -1.426826   0.147049   0.130509
H  -2.377737  -1.358237  -0.712921
H  -2.532550  -1.250338   1.095287
C  -0.244396  -0.641442  -0.081969
H  -1.364518   1.116733   1.340490
H  -1.404721   0.642959  -0.578503
H   0.002904  -1.026635   0.644045
H   0.669597  -0.098327   0.073452
H  -0.395634  -1.510574  -1.194958
