14
butane_opt
C  -3.870509   0.230188   0.257318
C  -2.748165  -0.489035  -0.236744
H  -5.033228  -0.677499   0.793201
H  -4.194368   1.194894  -0.945280
H  -3.564381   0.368304   0.715739
C  -1.412025   0.227210  -0.125333
H  -2.927100  -1.663884  -1.320285
H  -2.307201  -0.822298   0.357145
C  -0.196756  -0.767310   0.225977
H  -1.624270   0.827424   0.601084
H  -1.132833   0.965427  -1.125615
H  -0.417009  -1.625923   1.438688
H   0.850176  -0.079346   0.066473
H   0.091793  -1.385382  -0.662800
