14
butane_opt
C  -3.943975   0.190222   0.096202
C  -2.777928  -0.564333  -0.109790
H  -4.731805  -0.210481   1.003685
H  -4.379720   1.248160  -0.970076
H  -3.631272   0.355735   0.675294
C  -1.413597   0.283626  -0.058260
H  -3.047486  -1.551372  -1.107500
H  -2.672016  -0.699139   0.507802
C  -0.094298  -0.778245   0.134095
H  -1.286250   0.945496   0.744445
H  -1.362597   0.905985  -0.865549
H  -0.104165  -1.457499   1.025552
H   0.770693  -0.158529   0.203842
H   0.193398  -1.420679  -0.562226
