14
butane_opt
C  -3.963935   0.315420  -0.142765
C  -2.631898  -0.679792   0.151978
H  -4.716878  -0.210871   0.462610
H  -3.951777   1.463979  -1.469719
H  -3.930569   0.546403   0.418670
C  -1.411372   0.085766   0.200289
H  -2.511383  -1.234643  -0.500103
H  -2.748875  -1.504815   1.194657
C  -0.227537  -0.611137  -0.142151
H  -1.011052   1.167645   1.465605
H  -1.718422   0.461616  -0.513348
H  -0.227842  -1.080391   0.549439
H   0.647836   0.030689   0.042181
H  -0.097579  -1.376457  -1.060067
