14
butane_opt
C  -3.863034   0.241226   0.151692
C  -2.713974  -0.569731  -0.026840
H  -5.059027  -0.520357  -0.642671
H  -3.656132   0.000472  -0.121643
H  -3.919432   1.497687   1.381018
C  -1.427985   0.294592  -0.183277
H  -2.930931  -1.224851  -0.976680
H  -2.841515  -1.240550   0.817001
C  -0.177858  -0.773669   0.131284
H  -1.590505   0.761735   0.396393
H  -1.299730   0.964669  -1.054898
H  -0.447637  -1.743143   1.196784
H   0.564930  -0.296210   0.031187
H   0.385698  -1.043127  -0.377550
