14
butane_opt
C  -3.848772   0.248624  -0.133861
C  -2.692624  -0.622650   0.304539
H  -4.750581  -0.334324  -0.813926
H  -3.301839   0.453849  -0.885270
H  -4.463890   1.124420   0.792796
C  -1.501006   0.233240   0.123289
H  -2.493724  -1.134075  -0.388313
H  -2.969646  -1.242906   1.188282
C  -0.177993  -0.728529  -0.162991
H  -1.216291   0.923488   1.028910
H  -1.625226   0.893039  -0.582999
H   0.027886  -1.316314   0.666810
H   0.680370  -0.049290  -0.070560
H  -0.266291  -1.392396  -1.005079
