14
butane_opt
C  -3.949628   0.288638   0.148798
C  -2.648510  -0.604705  -0.163396
H  -4.818802  -0.292318  -0.165293
H  -4.106635   0.681181  -0.553291
H  -3.874914   1.152289   1.123480
C  -1.393986   0.120016  -0.068235
H  -2.563388  -1.354145  -1.060171
H  -2.378329  -1.487802   0.888827
C  -0.216902  -0.652941   0.153081
H  -1.428263   0.747140   0.880136
H  -1.304587   0.750734  -0.979456
H  -0.182943  -1.639632   1.401295
H   0.651773   0.062629  -0.523381
H  -0.499177  -0.882764  -0.385166
