butane_opt
 OpenBabel08242015403D

 14 13  0  0  0  0  0  0  0  0999 V2000
   -3.9940    0.3094    0.1032 C   0  0  0  0  0  0  0  0  0  0  0  0
   -2.7740   -0.6528   -0.1089 C   0  0  0  0  0  0  0  0  0  0  0  0
   -5.0669   -0.4006    0.6173 H   0  0  0  0  0  0  0  0  0  0  0  0
   -4.4062    1.2299   -0.9394 H   0  0  0  0  0  0  0  0  0  0  0  0
   -3.7838    0.9293    0.9725 H   0  0  0  0  0  0  0  0  0  0  0  0
   -1.3434    0.1376   -0.0141 C   0  0  0  0  0  0  0  0  0  0  0  0
   -2.6422   -1.5970   -1.2436 H   0  0  0  0  0  0  0  0  0  0  0  0
   -2.6244   -1.1766    0.5958 H   0  0  0  0  0  0  0  0  0  0  0  0
   -0.1072   -0.6649    0.1401 C   0  0  0  0  0  0  0  0  0  0  0  0
   -1.2326    0.6424    0.6548 H   0  0  0  0  0  0  0  0  0  0  0  0
   -1.2424    1.1230   -1.0612 H   0  0  0  0  0  0  0  0  0  0  0  0
   -0.2202   -1.2880    1.1590 H   0  0  0  0  0  0  0  0  0  0  0  0
    0.8817   -0.1612   -0.0895 H   0  0  0  0  0  0  0  0  0  0  0  0
   -0.0362   -1.3292   -0.6730 H   0  0  0  0  0  0  0  0  0  0  0  0
  1  3  1  0  0  0  0
  1  5  1  0  0  0  0
  2  6  1  0  0  0  0
  2  1  1  0  0  0  0
  2  8  1  0  0  0  0
  4  1  1  0  0  0  0
  6  9  1  0  0  0  0
  6 10  1  0  0  0  0
  7  2  1  0  0  0  0
  9 12  1  0  0  0  0
 11  6  1  0  0  0  0
 13  9  1  0  0  0  0
 14  9  1  0  0  0  0
M  END
$$$$
