14
butane_opt
C  -3.996165   0.350003   0.201983
C  -2.714279  -0.643611  -0.281610
H  -4.915884  -0.171950   0.998855
H  -4.619114   0.916308  -0.708617
H  -3.646932   0.738610   0.852742
C  -1.370786   0.082191  -0.111349
H  -2.611554  -1.538922  -1.137484
H  -2.579680  -1.225514   0.492694
C  -0.146478  -0.625707   0.232461
H  -1.204024   0.609647   0.644133
H  -1.156373   0.742509  -1.071534
H  -0.267945  -1.469283   1.371584
H   0.754910   0.046664   0.045635
H  -0.079458  -1.036633  -0.501495
