butane_opt
 OpenBabel08242015403D

 14 12  0  0  0  0  0  0  0  0999 V2000
   -3.8730    0.2017    0.0156 C   0  0  0  0  0  0  0  0  0  0  0  0
   -2.6733   -0.5725    0.0486 C   0  0  0  0  0  0  0  0  0  0  0  0
   -4.7712   -0.5439    0.2951 H   0  0  0  0  0  0  0  0  0  0  0  0
   -4.0203    0.9905   -0.8963 H   0  0  0  0  0  0  0  0  0  0  0  0
   -3.6926    0.6881    0.8829 H   0  0  0  0  0  0  0  0  0  0  0  0
   -1.4872    0.2680   -0.0706 C   0  0  0  0  0  0  0  0  0  0  0  0
   -2.9446   -0.9585   -0.5981 H   0  0  0  0  0  0  0  0  0  0  0  0
   -2.8237   -1.3552    1.1094 H   0  0  0  0  0  0  0  0  0  0  0  0
   -0.1222   -0.7473    0.0401 C   0  0  0  0  0  0  0  0  0  0  0  0
   -1.7956    1.1992    0.8835 H   0  0  0  0  0  0  0  0  0  0  0  0
   -1.2822    0.8630   -1.0484 H   0  0  0  0  0  0  0  0  0  0  0  0
   -0.4552   -0.9566    0.7103 H   0  0  0  0  0  0  0  0  0  0  0  0
    0.6797   -0.2434    0.7949 H   0  0  0  0  0  0  0  0  0  0  0  0
   -0.0116   -2.0056   -1.1910 H   0  0  0  0  0  0  0  0  0  0  0  0
  1  2  1  0  0  0  0
  1  3  1  0  0  0  0
  1  5  1  0  0  0  0
  2  8  1  0  0  0  0
  4  1  1  0  0  0  0
  6  9  1  0  0  0  0
  6  2  1  0  0  0  0
  6 10  1  0  0  0  0
  7  2  1  0  0  0  0
  9 12  1  0  0  0  0
  9 13  1  0  0  0  0
 11  6  1  0  0  0  0
M  RAD  2   9   2  14   2
M  END
$$$$
