butane_opt
 OpenBabel08242015403D

 14  8  0  0  0  0  0  0  0  0999 V2000
   -3.8705    0.2302    0.2573 C   0  0  0  0  0  1  0  0  0  0  0  0
   -2.7482   -0.4890   -0.2367 C   0  0  0  0  0  0  0  0  0  0  0  0
   -5.0332   -0.6775    0.7932 H   0  0  0  0  0  0  0  0  0  0  0  0
   -4.1944    1.1949   -0.9453 H   0  0  0  0  0  0  0  0  0  0  0  0
   -3.5644    0.3683    0.7157 H   0  0  0  0  0  0  0  0  0  0  0  0
   -1.4120    0.2272   -0.1253 C   0  0  0  0  0  0  0  0  0  0  0  0
   -2.9271   -1.6639   -1.3203 H   0  0  0  0  0  0  0  0  0  0  0  0
   -2.3072   -0.8223    0.3571 H   0  0  0  0  0  0  0  0  0  0  0  0
   -0.1968   -0.7673    0.2260 C   0  0  0  0  0  0  0  0  0  0  0  0
   -1.6243    0.8274    0.6011 H   0  0  0  0  0  0  0  0  0  0  0  0
   -1.1328    0.9654   -1.1256 H   0  0  0  0  0  0  0  0  0  0  0  0
   -0.4170   -1.6259    1.4387 H   0  0  0  0  0  0  0  0  0  0  0  0
    0.8502   -0.0793    0.0665 H   0  0  0  0  0  0  0  0  0  0  0  0
    0.0918   -1.3854   -0.6628 H   0  0  0  0  0  0  0  0  0  0  0  0
  2  1  1  0  0  0  0
  2  8  1  0  0  0  0
  6  9  1  0  0  0  0
  6 10  1  0  0  0  0
  9 12  1  0  0  0  0
 11  6  1  0  0  0  0
 13  9  1  0  0  0  0
 14  9  1  0  0  0  0
M  RAD  6   2   3   3   2   4   2   5   2   6   2   7   2
M  END
$$$$
