14
butane_opt
C  -3.876979   0.304286  -0.142897
C  -2.699207  -0.633832   0.103707
H  -4.954327  -0.454832  -0.022674
H  -3.879733   1.075950  -1.030814
H  -3.928174   0.883608   0.532793
C  -1.444245   0.138376   0.272682
H  -2.452005  -1.002201  -0.513995
H  -2.779922  -1.330807   1.112327
C  -0.209532  -0.686045  -0.120351
H  -1.049436   0.915192   1.258418
H  -1.426183   0.524232  -0.564668
H   0.022320  -1.441374   0.963964
H   0.857610   0.043784  -0.865486
H  -0.669980  -1.159693  -0.792043
