14
butane_opt
C  -3.900142   0.239062   0.109703
C  -2.682962  -0.636252  -0.103327
H  -4.644963  -0.286682  -0.181991
H  -4.070896   0.580675  -0.648437
H  -3.548673   1.286493   1.259336
C  -1.493203   0.223094  -0.022459
H  -2.682655  -1.276275  -0.840423
H  -2.786297  -1.109452   0.511401
C  -0.168989  -0.689490   0.099436
H  -1.581497   0.900669   0.769311
H  -1.242126   0.765711  -0.952257
H  -0.006979  -2.117527   1.461774
H   0.701864  -0.061939  -0.569391
H  -0.261955  -0.742868  -0.286970
