butane_opt
 OpenBabel08242015403D

 14 13  0  0  0  0  0  0  0  0999 V2000
   -3.9398    0.2654    0.0202 C   0  0  0  0  0  0  0  0  0  0  0  0
   -2.7125   -0.6072    0.0285 C   0  0  0  0  0  0  0  0  0  0  0  0
   -4.8794   -0.3720    0.0162 H   0  0  0  0  0  0  0  0  0  0  0  0
   -3.9448    0.8156   -0.8124 H   0  0  0  0  0  0  0  0  0  0  0  0
   -3.9054    0.9696    0.9131 H   0  0  0  0  0  0  0  0  0  0  0  0
   -1.4035    0.1853    0.0108 C   0  0  0  0  0  0  0  0  0  0  0  0
   -2.6960   -1.3348   -0.8711 H   0  0  0  0  0  0  0  0  0  0  0  0
   -2.6990   -1.1811    0.9014 H   0  0  0  0  0  0  0  0  0  0  0  0
   -0.1631   -0.7039    0.0427 C   0  0  0  0  0  0  0  0  0  0  0  0
   -1.4052    0.8464    0.8614 H   0  0  0  0  0  0  0  0  0  0  0  0
   -1.3798    0.8691   -0.9008 H   0  0  0  0  0  0  0  0  0  0  0  0
   -0.0846   -1.3995    0.9922 H   0  0  0  0  0  0  0  0  0  0  0  0
    0.7542   -0.0898   -0.1173 H   0  0  0  0  0  0  0  0  0  0  0  0
   -0.1581   -1.2753   -0.7585 H   0  0  0  0  0  0  0  0  0  0  0  0
  1  2  1  0  0  0  0
  1  5  1  0  0  0  0
  2  8  1  0  0  0  0
  3  1  1  0  0  0  0
  4  1  1  0  0  0  0
  6  2  1  0  0  0  0
  6  9  1  0  0  0  0
  6 10  1  0  0  0  0
  7  2  1  0  0  0  0
  9 12  1  0  0  0  0
 11  6  1  0  0  0  0
 13  9  1  0  0  0  0
 14  9  1  0  0  0  0
M  END
$$$$
