butane_opt
 OpenBabel08242015403D

 14  9  0  0  0  0  0  0  0  0999 V2000
   -3.9037    0.1725   -0.0349 C   0  0  0  0  0  0  0  0  0  0  0  0
   -2.7022   -0.4652    0.0815 C   0  0  0  0  0  0  0  0  0  0  0  0
   -4.8795   -0.5665    0.7302 H   0  0  0  0  0  0  0  0  0  0  0  0
   -3.7928    1.4317   -1.4203 H   0  0  0  0  0  0  0  0  0  0  0  0
   -3.9053    0.1877    0.3914 H   0  0  0  0  0  0  0  0  0  0  0  0
   -1.4720    0.2422    0.0765 C   0  0  0  0  0  0  0  0  0  0  0  0
   -2.6350   -1.3044   -0.7814 H   0  0  0  0  0  0  0  0  0  0  0  0
   -2.7730   -1.0010    0.8303 H   0  0  0  0  0  0  0  0  0  0  0  0
   -0.1239   -0.7560   -0.0217 C   0  0  0  0  0  0  0  0  0  0  0  0
   -1.4863    1.0077    1.1018 H   0  0  0  0  0  0  0  0  0  0  0  0
   -1.4694    0.4997   -0.4332 H   0  0  0  0  0  0  0  0  0  0  0  0
   -0.0418   -1.1896    0.7628 H   0  0  0  0  0  0  0  0  0  0  0  0
    0.7191   -0.1341    0.0020 H   0  0  0  0  0  0  0  0  0  0  0  0
   -0.2917   -1.7169   -1.0322 H   0  0  0  0  0  0  0  0  0  0  0  0
  1  2  1  0  0  0  0
  1  3  1  0  0  0  0
  2  8  1  0  0  0  0
  6 10  1  0  0  0  0
  7  2  1  0  0  0  0
  9 13  1  0  0  0  0
  9  6  1  0  0  0  0
  9 12  1  0  0  0  0
 14  9  1  0  0  0  0
M  RAD  6   1   3   2   2   4   2   5   2   6   3  11   2
M  END
$$$$
