14
butane_opt
C  -3.918230   0.304514   0.030920
C  -2.676101  -0.614163   0.034165
H  -4.801382  -0.276428  -0.369132
H  -3.835655   0.393904  -0.544655
H  -4.131976   1.686557   1.477841
C  -1.343569   0.049898  -0.075330
H  -2.744066  -1.409390  -0.930013
H  -2.747298  -1.127608   0.942421
C  -0.240188  -0.656848   0.102826
H  -1.371898   0.537206   0.676056
H  -1.587637   1.007733  -1.124884
H  -0.164081  -1.447097   1.048725
H   0.871587   0.177870  -0.126462
H  -0.395243  -0.989429  -0.599487
