14
butane_opt
C  -3.930627   0.255443   0.000323
C  -2.703065  -0.593667   0.067464
H  -4.871921  -0.358667   0.040546
H  -3.891851   0.867730  -0.881074
H  -3.996068   0.892118   0.842566
C  -1.399833   0.187548   0.007817
H  -2.735032  -1.231011  -0.772292
H  -2.724884  -1.251418   0.996925
C  -0.167660  -0.705313   0.017173
H  -1.428762   0.892872   0.869020
H  -1.420543   0.775226  -0.842108
H  -0.178586  -1.218186   0.847464
H   0.748898  -0.129254   0.113154
H  -0.102829  -1.448638  -0.897815
