butane_opt
 OpenBabel08242015403D

 14 13  0  0  0  0  0  0  0  0999 V2000
   -3.9753    0.3073    0.1543 C   0  0  0  0  0  0  0  0  0  0  0  0
   -2.6798   -0.6345   -0.1755 C   0  0  0  0  0  0  0  0  0  0  0  0
   -4.6681    0.0002    0.6939 H   0  0  0  0  0  0  0  0  0  0  0  0
   -4.5430    0.9500   -0.7232 H   0  0  0  0  0  0  0  0  0  0  0  0
   -3.4545    0.7952    1.0374 H   0  0  0  0  0  0  0  0  0  0  0  0
   -1.3491    0.0588   -0.1385 C   0  0  0  0  0  0  0  0  0  0  0  0
   -2.6209   -1.3415   -1.1415 H   0  0  0  0  0  0  0  0  0  0  0  0
   -2.5917   -1.0789    0.4953 H   0  0  0  0  0  0  0  0  0  0  0  0
   -0.2092   -0.6197    0.2069 C   0  0  0  0  0  0  0  0  0  0  0  0
   -1.4733    0.6871    0.7105 H   0  0  0  0  0  0  0  0  0  0  0  0
   -1.4445    0.6993   -1.0204 H   0  0  0  0  0  0  0  0  0  0  0  0
   -0.5355   -1.3475    1.2749 H   0  0  0  0  0  0  0  0  0  0  0  0
    0.9590    0.1082    0.0422 H   0  0  0  0  0  0  0  0  0  0  0  0
   -0.1509   -1.2152   -0.4977 H   0  0  0  0  0  0  0  0  0  0  0  0
  1  3  1  0  0  0  0
  1  5  1  0  0  0  0
  2  6  1  0  0  0  0
  2  1  1  0  0  0  0
  2  8  1  0  0  0  0
  4  1  1  0  0  0  0
  6  9  1  0  0  0  0
  6 10  1  0  0  0  0
  7  2  1  0  0  0  0
  9 12  1  0  0  0  0
 11  6  1  0  0  0  0
 13  9  1  0  0  0  0
 14  9  1  0  0  0  0
M  END
$$$$
