14
butane_opt
C  -3.891222   0.281572  -0.068112
C  -2.699146  -0.701556   0.119078
H  -4.778375  -0.216994   0.134782
H  -4.069087   1.026723  -0.975838
H  -3.869333   0.980443   0.782043
C  -1.421523   0.195418   0.019964
H  -2.742137  -1.025387  -0.579074
H  -2.622566  -1.529554   1.257146
C  -0.148385  -0.649010  -0.027738
H  -1.618279   0.793512   0.902276
H  -1.567377   0.762101  -0.691798
H  -0.241850  -0.867633   0.683510
H   0.715155  -0.113815   0.601567
H  -0.309843  -1.819825  -1.252143
