butane_opt
 OpenBabel08242015403D

 14 13  0  0  0  0  0  0  0  0999 V2000
   -3.9132    0.2000   -0.0822 C   0  0  0  0  0  0  0  0  0  0  0  0
   -2.7400   -0.4824    0.1537 C   0  0  0  0  0  0  0  0  0  0  0  0
   -4.7222   -0.3835    0.2204 H   0  0  0  0  0  0  0  0  0  0  0  0
   -3.6562    1.0419   -1.1190 H   0  0  0  0  0  0  0  0  0  0  0  0
   -3.8819    0.6674    0.5672 H   0  0  0  0  0  0  0  0  0  0  0  0
   -1.3998    0.2049    0.0964 C   0  0  0  0  0  0  0  0  0  0  0  0
   -2.6527   -1.2594   -0.5476 H   0  0  0  0  0  0  0  0  0  0  0  0
   -2.8525   -1.3157    1.2103 H   0  0  0  0  0  0  0  0  0  0  0  0
   -0.1544   -0.7577   -0.1271 C   0  0  0  0  0  0  0  0  0  0  0  0
   -1.5052    0.9364    0.9972 H   0  0  0  0  0  0  0  0  0  0  0  0
   -1.5677    0.5951   -0.5568 H   0  0  0  0  0  0  0  0  0  0  0  0
   -0.3879   -1.0607    0.7033 H   0  0  0  0  0  0  0  0  0  0  0  0
    0.6816   -0.1023    0.4222 H   0  0  0  0  0  0  0  0  0  0  0  0
    0.0183   -1.5498   -0.9892 H   0  0  0  0  0  0  0  0  0  0  0  0
  1  2  1  0  0  0  0
  1  3  1  0  0  0  0
  1  5  1  0  0  0  0
  2  8  1  0  0  0  0
  4  1  1  0  0  0  0
  6  2  1  0  0  0  0
  6 10  1  0  0  0  0
  7  2  1  0  0  0  0
  9  6  1  0  0  0  0
  9 13  1  0  0  0  0
  9 12  1  0  0  0  0
 11  6  1  0  0  0  0
 14  9  1  0  0  0  0
M  END
$$$$
