14
butane_opt
C  -4.017857   0.173949   0.051248
C  -2.735065  -0.551947  -0.078603
H  -4.839957  -0.424371   0.559432
H  -4.298928   1.119391  -1.046839
H  -3.541957   0.671858   0.938522
C  -1.406136   0.286674   0.001859
H  -2.685399  -1.192276  -0.890297
H  -2.665306  -1.222987   0.683875
C  -0.097750  -0.735959   0.084556
H  -1.676215   1.026058   0.882934
H  -1.106175   0.713736  -0.724258
H   0.304535  -1.493947   1.161896
H   0.575346  -0.388078  -0.189394
H   0.011289  -1.344838  -0.689502
