butane_opt
 OpenBabel08242015403D

 14 10  0  0  0  0  0  0  0  0999 V2000
   -4.0159    0.3243    0.1842 C   0  0  0  0  0  0  0  0  0  0  0  0
   -2.6845   -0.7339   -0.0729 C   0  0  0  0  0  0  0  0  0  0  0  0
   -4.7918   -0.0380   -0.5276 H   0  0  0  0  0  0  0  0  0  0  0  0
   -3.9830    0.4841   -0.4514 H   0  0  0  0  0  0  0  0  0  0  0  0
   -4.0144    1.6251    1.3254 H   0  0  0  0  0  0  0  0  0  0  0  0
   -1.3314    0.1087   -0.1375 C   0  0  0  0  0  0  0  0  0  0  0  0
   -2.5399   -1.5414   -0.9430 H   0  0  0  0  0  0  0  0  0  0  0  0
   -2.6854   -1.1215    0.6935 H   0  0  0  0  0  0  0  0  0  0  0  0
   -0.1908   -0.5947    0.1607 C   0  0  0  0  0  0  0  0  0  0  0  0
   -1.4724    0.3405    0.4110 H   0  0  0  0  0  0  0  0  0  0  0  0
   -1.3180    1.0475   -1.3400 H   0  0  0  0  0  0  0  0  0  0  0  0
   -0.1296   -1.3970    1.0860 H   0  0  0  0  0  0  0  0  0  0  0  0
    0.5515   -0.1331    0.0748 H   0  0  0  0  0  0  0  0  0  0  0  0
   -0.0250   -0.9669   -0.4122 H   0  0  0  0  0  0  0  0  0  0  0  0
  2  1  1  0  0  0  0
  2  8  1  0  0  0  0
  3  1  1  0  0  0  0
  4  1  1  0  0  0  0
  6  2  1  0  0  0  0
  6  9  1  0  0  0  0
  7  2  1  0  0  0  0
  9 12  1  0  0  0  0
 13  9  1  0  0  0  0
 14  9  1  0  0  0  0
M  RAD  5   1   2   5   2   6   3  10   2  11   2
M  END
$$$$
