butane_opt
 OpenBabel08242015403D

 14 10  0  0  0  0  0  0  0  0999 V2000
   -3.8720    0.2195    0.1318 C   0  0  0  0  0  0  0  0  0  0  0  0
   -2.6580   -0.5795   -0.1872 C   0  0  0  0  0  0  0  0  0  0  0  0
   -4.7750   -0.4911    0.0284 H   0  0  0  0  0  0  0  0  0  0  0  0
   -3.9034    0.5029   -0.4962 H   0  0  0  0  0  0  0  0  0  0  0  0
   -3.9174    1.1092    1.2355 H   0  0  0  0  0  0  0  0  0  0  0  0
   -1.4510    0.2364    0.0033 C   0  0  0  0  0  0  0  0  0  0  0  0
   -2.9737   -1.3033   -1.1368 H   0  0  0  0  0  0  0  0  0  0  0  0
   -2.6838   -0.9874    0.5908 H   0  0  0  0  0  0  0  0  0  0  0  0
   -0.2150   -0.7635    0.1661 C   0  0  0  0  0 15  0  0  0  0  0  0
   -1.7003    0.9663    0.7083 H   0  0  0  0  0  0  0  0  0  0  0  0
   -1.3190    1.1679   -1.1327 H   0  0  0  0  0  0  0  0  0  0  0  0
    0.2978   -2.0401    1.4931 H   0  0  0  0  0  0  0  0  0  0  0  0
    0.7816   -0.1419   -0.8777 H   0  0  0  0  0  0  0  0  0  0  0  0
   -0.4633   -0.6211   -0.2402 H   0  0  0  0  0  0  0  0  0  0  0  0
  1  5  1  0  0  0  0
  2  6  1  0  0  0  0
  2  1  1  0  0  0  0
  2  8  1  0  0  0  0
  3  1  1  0  0  0  0
  4  1  1  0  0  0  0
  6 10  1  0  0  0  0
  7  2  1  0  0  0  0
 11  6  1  0  0  0  0
 14  6  1  0  0  0  0
M  RAD  2  12   2  13   2
M  END
$$$$
