butane_opt
 OpenBabel08242015403D

 14 13  0  0  0  0  0  0  0  0999 V2000
   -4.0265    0.3234   -0.1430 C   0  0  0  0  0  0  0  0  0  0  0  0
   -2.6878   -0.7360    0.2326 C   0  0  0  0  0  0  0  0  0  0  0  0
   -4.6559   -0.1299   -0.4244 H   0  0  0  0  0  0  0  0  0  0  0  0
   -3.8700    1.1636   -1.2473 H   0  0  0  0  0  0  0  0  0  0  0  0
   -4.5201    0.9798    0.4994 H   0  0  0  0  0  0  0  0  0  0  0  0
   -1.3509    0.1214    0.2813 C   0  0  0  0  0  0  0  0  0  0  0  0
   -2.4778   -1.5174   -0.6232 H   0  0  0  0  0  0  0  0  0  0  0  0
   -2.8428   -1.3621    1.0124 H   0  0  0  0  0  0  0  0  0  0  0  0
   -0.1569   -0.5939   -0.1666 C   0  0  0  0  0  0  0  0  0  0  0  0
   -1.0069    0.9758    1.2168 H   0  0  0  0  0  0  0  0  0  0  0  0
   -1.7454    0.6972   -0.5589 H   0  0  0  0  0  0  0  0  0  0  0  0
    0.2125   -1.4442    0.8142 H   0  0  0  0  0  0  0  0  0  0  0  0
    0.7269   -0.0917   -0.8085 H   0  0  0  0  0  0  0  0  0  0  0  0
   -0.2377   -1.0620   -0.8677 H   0  0  0  0  0  0  0  0  0  0  0  0
  1  2  1  0  0  0  0
  1  5  1  0  0  0  0
  2  6  1  0  0  0  0
  2  8  1  0  0  0  0
  3  1  1  0  0  0  0
  4  1  1  0  0  0  0
  6 10  1  0  0  0  0
  7  2  1  0  0  0  0
  9  6  1  0  0  0  0
  9 12  1  0  0  0  0
 11  6  1  0  0  0  0
 13  9  1  0  0  0  0
 14  9  1  0  0  0  0
M  END
$$$$
