butane_opt
 OpenBabel08242015403D

 14 13  0  0  0  0  0  0  0  0999 V2000
   -3.9500    0.2691   -0.0144 C   0  0  0  0  0  0  0  0  0  0  0  0
   -2.6795   -0.6186    0.0840 C   0  0  0  0  0  0  0  0  0  0  0  0
   -4.8487   -0.3123   -0.0687 H   0  0  0  0  0  0  0  0  0  0  0  0
   -3.8917    0.8781   -0.9440 H   0  0  0  0  0  0  0  0  0  0  0  0
   -4.0393    0.9723    0.8842 H   0  0  0  0  0  0  0  0  0  0  0  0
   -1.4059    0.1643    0.0327 C   0  0  0  0  0  0  0  0  0  0  0  0
   -2.6743   -1.2475   -0.7400 H   0  0  0  0  0  0  0  0  0  0  0  0
   -2.7340   -1.2633    1.0073 H   0  0  0  0  0  0  0  0  0  0  0  0
   -0.1702   -0.6814   -0.0014 C   0  0  0  0  0  0  0  0  0  0  0  0
   -1.3564    0.9001    0.9161 H   0  0  0  0  0  0  0  0  0  0  0  0
   -1.4235    0.7026   -0.8119 H   0  0  0  0  0  0  0  0  0  0  0  0
   -0.1369   -1.2932    0.8824 H   0  0  0  0  0  0  0  0  0  0  0  0
    0.7653   -0.0591   -0.0172 H   0  0  0  0  0  0  0  0  0  0  0  0
   -0.2195   -1.3437   -0.8724 H   0  0  0  0  0  0  0  0  0  0  0  0
  1  2  1  0  0  0  0
  1  5  1  0  0  0  0
  2  8  1  0  0  0  0
  3  1  1  0  0  0  0
  4  1  1  0  0  0  0
  6  2  1  0  0  0  0
  6 10  1  0  0  0  0
  7  2  1  0  0  0  0
  9  6  1  0  0  0  0
  9 12  1  0  0  0  0
 11  6  1  0  0  0  0
 13  9  1  0  0  0  0
 14  9  1  0  0  0  0
M  END
$$$$
