butane_opt
 OpenBabel08242015403D

 14 11  0  0  0  0  0  0  0  0999 V2000
   -4.0404    0.2830    0.1716 C   0  0  0  0  0  0  0  0  0  0  0  0
   -2.6693   -0.6303   -0.0403 C   0  0  0  0  0  0  0  0  0  0  0  0
   -4.9753   -0.2750   -0.7779 H   0  0  0  0  0  0  0  0  0  0  0  0
   -3.9812    0.3607   -0.3523 H   0  0  0  0  0  0  0  0  0  0  0  0
   -4.4650    1.7193    1.2912 H   0  0  0  0  0  0  0  0  0  0  0  0
   -1.3246    0.1307   -0.1686 C   0  0  0  0  0  0  0  0  0  0  0  0
   -2.7992   -1.2852   -0.8688 H   0  0  0  0  0  0  0  0  0  0  0  0
   -2.5729   -1.3974    0.8042 H   0  0  0  0  0  0  0  0  0  0  0  0
   -0.1328   -0.6405    0.1404 C   0  0  0  0  0  0  0  0  0  0  0  0
   -1.5530    0.5434    0.5226 H   0  0  0  0  0  0  0  0  0  0  0  0
   -1.2856    0.7408   -0.9876 H   0  0  0  0  0  0  0  0  0  0  0  0
   -0.2056   -1.6121    1.2706 H   0  0  0  0  0  0  0  0  0  0  0  0
    0.8332    0.0588   -0.1023 H   0  0  0  0  0  0  0  0  0  0  0  0
   -0.0163   -1.0331   -0.5245 H   0  0  0  0  0  0  0  0  0  0  0  0
  2  1  1  0  0  0  0
  2  8  1  0  0  0  0
  3  1  1  0  0  0  0
  6  2  1  0  0  0  0
  6  9  1  0  0  0  0
  6 10  1  0  0  0  0
  7  2  1  0  0  0  0
  9 12  1  0  0  0  0
 11  6  1  0  0  0  0
 13  9  1  0  0  0  0
 14  9  1  0  0  0  0
M  RAD  3   1   3   4   2   5   2
M  END
$$$$
