14
butane_opt
C  -3.881420   0.215245  -0.076998
C  -2.635976  -0.577168   0.105538
H  -4.970052  -0.537456   0.560325
H  -4.029454   1.262840  -1.286137
H  -3.534366   0.270170   0.438716
C  -1.460137   0.293910   0.115716
H  -2.828494  -1.137987  -0.792857
H  -2.729788  -1.277120   1.124663
C  -0.237656  -0.762902  -0.091779
H  -1.401659   1.148650   1.189597
H  -1.654353   0.784988  -0.563917
H  -0.269528  -1.146743   0.789883
H   0.658996  -0.125115   0.319650
H   0.319553  -1.769727  -1.084094
