14
butane_opt
C  -3.960592   0.300738   0.088615
C  -2.729372  -0.652746  -0.020620
H  -5.049347  -0.478855  -0.101536
H  -4.000893   0.769214  -0.703148
H  -4.120051   1.235125   1.156380
C  -1.356207   0.174620  -0.022422
H  -2.548126  -1.715309  -1.207336
H  -2.478548  -0.762589   0.570929
C  -0.159558  -0.709541   0.063268
H  -1.339458   0.709927   0.704206
H  -1.234657   0.822935  -0.973280
H  -0.048942  -1.844957   1.484377
H   0.731659  -0.044688  -0.389706
H  -0.406449  -0.549351  -0.296053
