butane_opt
 OpenBabel08242015403D

 14 13  0  0  0  0  0  0  0  0999 V2000
   -3.8779    0.2354    0.1360 C   0  0  0  0  0  0  0  0  0  0  0  0
   -2.6998   -0.5321   -0.1735 C   0  0  0  0  0  0  0  0  0  0  0  0
   -4.9202   -0.3793    0.4631 H   0  0  0  0  0  0  0  0  0  0  0  0
   -4.1893    0.8200   -0.7387 H   0  0  0  0  0  0  0  0  0  0  0  0
   -3.6868    0.5017    0.8776 H   0  0  0  0  0  0  0  0  0  0  0  0
   -1.4729    0.2209   -0.0200 C   0  0  0  0  0  0  0  0  0  0  0  0
   -2.9633   -1.4617   -1.2206 H   0  0  0  0  0  0  0  0  0  0  0  0
   -2.4965   -1.0633    0.6330 H   0  0  0  0  0  0  0  0  0  0  0  0
   -0.1452   -0.7706    0.1532 C   0  0  0  0  0  0  0  0  0  0  0  0
   -1.6511    0.7956    0.7179 H   0  0  0  0  0  0  0  0  0  0  0  0
   -1.1966    1.1466   -0.9726 H   0  0  0  0  0  0  0  0  0  0  0  0
    0.0930   -1.7014    1.2450 H   0  0  0  0  0  0  0  0  0  0  0  0
    0.8670    0.0410   -0.1451 H   0  0  0  0  0  0  0  0  0  0  0  0
   -0.5009   -1.0255   -0.5583 H   0  0  0  0  0  0  0  0  0  0  0  0
  1  3  1  0  0  0  0
  1  5  1  0  0  0  0
  2  6  1  0  0  0  0
  2  1  1  0  0  0  0
  2  8  1  0  0  0  0
  4  1  1  0  0  0  0
  6  9  1  0  0  0  0
  6 10  1  0  0  0  0
  7  2  1  0  0  0  0
  9 12  1  0  0  0  0
 11  6  1  0  0  0  0
 13  9  1  0  0  0  0
 14  9  1  0  0  0  0
M  END
$$$$
