butane_opt
 OpenBabel08242015403D

 14 12  0  0  0  0  0  0  0  0999 V2000
   -3.8874    0.1698   -0.0771 C   0  0  0  0  0  0  0  0  0  0  0  0
   -2.7058   -0.5338    0.1143 C   0  0  0  0  0  0  0  0  0  0  0  0
   -4.8986   -0.4843   -0.1548 H   0  0  0  0  0  0  0  0  0  0  0  0
   -3.9179    0.8802   -1.1041 H   0  0  0  0  0  0  0  0  0  0  0  0
   -4.1749    0.9109    0.8304 H   0  0  0  0  0  0  0  0  0  0  0  0
   -1.4643    0.2861    0.1541 C   0  0  0  0  0  0  0  0  0  0  0  0
   -2.7716   -1.0661   -0.6753 H   0  0  0  0  0  0  0  0  0  0  0  0
   -2.9073   -1.1634    0.9297 H   0  0  0  0  0  0  0  0  0  0  0  0
   -0.1051   -0.7733   -0.1158 C   0  0  0  0  0  0  0  0  0  0  0  0
   -1.1227    0.9859    1.1917 H   0  0  0  0  0  0  0  0  0  0  0  0
   -1.7340    0.6307   -0.5543 H   0  0  0  0  0  0  0  0  0  0  0  0
    0.1119   -1.7240    1.1437 H   0  0  0  0  0  0  0  0  0  0  0  0
    0.6875   -0.2282   -0.3303 H   0  0  0  0  0  0  0  0  0  0  0  0
   -0.2749   -1.0179   -0.6761 H   0  0  0  0  0  0  0  0  0  0  0  0
  1  2  1  0  0  0  0
  1  5  1  0  0  0  0
  2  6  1  0  0  0  0
  2  8  1  0  0  0  0
  3  1  1  0  0  0  0
  4  1  1  0  0  0  0
  6 10  1  0  0  0  0
  7  2  1  0  0  0  0
  9  6  1  0  0  0  0
 11  6  1  0  0  0  0
 13  9  1  0  0  0  0
 14  9  1  0  0  0  0
M  RAD  2   9   2  12   2
M  END
$$$$
