butane_opt
 OpenBabel08242015403D

 14 11  0  0  0  0  0  0  0  0999 V2000
   -3.9419    0.2189   -0.0357 C   0  0  0  0  0  0  0  0  0  0  0  0
   -2.7350   -0.5924    0.0851 C   0  0  0  0  0  0  0  0  0  0  0  0
   -5.0250   -0.5949    0.6454 H   0  0  0  0  0  0  0  0  0  0  0  0
   -3.6890    1.4499   -1.3770 H   0  0  0  0  0  0  0  0  0  0  0  0
   -3.9015    0.3737    0.4522 H   0  0  0  0  0  0  0  0  0  0  0  0
   -1.3955    0.2940    0.1127 C   0  0  0  0  0  0  0  0  0  0  0  0
   -2.8440   -1.3831   -0.7544 H   0  0  0  0  0  0  0  0  0  0  0  0
   -2.7917   -1.0679    0.9409 H   0  0  0  0  0  0  0  0  0  0  0  0
   -0.1671   -0.7573   -0.0443 C   0  0  0  0  0  0  0  0  0  0  0  0
   -1.5662    1.2067    1.1412 H   0  0  0  0  0  0  0  0  0  0  0  0
   -1.3676    0.9033   -0.8277 H   0  0  0  0  0  0  0  0  0  0  0  0
    0.0798   -1.2571    0.6795 H   0  0  0  0  0  0  0  0  0  0  0  0
    0.7562   -0.3405    0.1994 H   0  0  0  0  0  0  0  0  0  0  0  0
    0.1879   -1.7313   -1.1483 H   0  0  0  0  0  0  0  0  0  0  0  0
  1  2  1  0  0  0  0
  1  3  1  0  0  0  0
  2  6  1  0  0  0  0
  2  8  1  0  0  0  0
  6 10  1  0  0  0  0
  7  2  1  0  0  0  0
  9  6  1  0  0  0  0
  9 13  1  0  0  0  0
  9 12  1  0  0  0  0
 11  6  1  0  0  0  0
 14  9  1  0  0  0  0
M  RAD  3   1   3   4   2   5   2
M  END
$$$$
