14
butane_opt
C  -3.892453   0.198996  -0.107886
C  -2.756868  -0.503663   0.161989
H  -4.844613  -0.266825  -0.134890
H  -3.591670   0.899850  -1.090320
H  -3.908478   0.719530   0.718103
C  -1.414425   0.219458   0.184498
H  -2.685124  -1.330758  -0.860080
H  -2.759225  -1.189049   1.030534
C  -0.160994  -0.771449  -0.071758
H  -1.557358   1.002004   1.023064
H  -1.395621   0.881112  -0.630838
H   0.338517  -1.597103   0.811793
H   0.889066  -0.041731  -0.492984
H  -0.798189  -1.258183  -0.918706
