14
butane_opt
C  -3.853803   0.244446   0.147112
C  -2.736053  -0.596201  -0.126705
H  -4.894760  -0.570420   0.431359
H  -4.203334   0.749518  -0.681033
H  -3.722530   1.088498   1.151757
C  -1.470999   0.252231  -0.156442
H  -2.917089  -1.563428  -1.038056
H  -2.626558  -0.990448   0.589776
C  -0.153205  -0.754958   0.152791
H  -1.465797   1.029712   0.799957
H  -1.236313   0.968243  -1.130817
H  -0.266691  -1.706602   1.428155
H   0.874166  -0.147191   0.187367
H   0.029050  -1.083829  -0.448995
