butane_opt
 OpenBabel08242015403D

 14 10  0  0  0  0  0  0  0  0999 V2000
   -3.9660    0.3693   -0.0225 C   0  0  0  0  0  0  0  0  0  0  0  0
   -2.7126   -0.6894    0.1240 C   0  0  0  0  0  0  0  0  0  0  0  0
   -4.9049   -0.2692    0.2991 H   0  0  0  0  0  0  0  0  0  0  0  0
   -3.9997    1.1158   -1.0542 H   0  0  0  0  0  0  0  0  0  0  0  0
   -4.1765    0.6779    0.6520 H   0  0  0  0  0  0  0  0  0  0  0  0
   -1.3820    0.0862   -0.0136 C   0  0  0  0  0  0  0  0  0  0  0  0
   -2.5380   -1.2982   -0.5520 H   0  0  0  0  0  0  0  0  0  0  0  0
   -2.8258   -1.4154    1.1240 H   0  0  0  0  0  0  0  0  0  0  0  0
   -0.1638   -0.6658    0.0301 C   0  0  0  0  0  1  0  0  0  0  0  0
   -1.2566    0.8244    0.8253 H   0  0  0  0  0  0  0  0  0  0  0  0
   -1.0860    0.9045   -0.9838 H   0  0  0  0  0  0  0  0  0  0  0  0
   -0.2903   -0.4173    0.3383 H   0  0  0  0  0  0  0  0  0  0  0  0
    0.8903    0.1129    0.7180 H   0  0  0  0  0  0  0  0  0  0  0  0
   -0.1624   -1.9249   -1.4155 H   0  0  0  0  0  0  0  0  0  0  0  0
  1  2  1  0  0  0  0
  1  3  1  0  0  0  0
  1  5  1  0  0  0  0
  2  8  1  0  0  0  0
  4  1  1  0  0  0  0
  6 12  1  0  0  0  0
  6 10  1  0  0  0  0
  7  2  1  0  0  0  0
  9 13  1  0  0  0  0
 11  6  1  0  0  0  0
M  RAD  3   2   2   6   2  14   2
M  END
$$$$
