14
butane_opt
C  -4.060690   0.283599   0.073262
C  -2.646700  -0.678501  -0.073854
H  -4.792584  -0.182541  -0.020190
H  -4.100218   0.825778  -0.657873
H  -3.926548   1.282536   1.214794
C  -1.368352   0.163195  -0.030640
H  -2.921825  -1.644988  -1.071140
H  -2.781716  -1.140445   0.587653
C  -0.096974  -0.688299   0.094696
H  -1.421527   1.070079   1.039736
H  -1.432187   0.729326  -0.819174
H  -0.151839  -1.969321   1.442162
H   0.810759   0.052018  -0.820471
H  -0.260128  -0.396241  -0.141004
