14
butane_opt
C  -3.914915   0.190897   0.099215
C  -2.709552  -0.522426  -0.053674
H  -4.957051  -0.528477  -0.264009
H  -3.710978   0.359904  -0.454595
H  -3.822605   1.255987   1.178188
C  -1.444040   0.240356  -0.064644
H  -2.538403  -1.450170  -1.040418
H  -2.473903  -0.768794   0.648332
C  -0.152111  -0.751631   0.135953
H  -1.298395   0.739760   0.597236
H  -1.677429   1.075053  -0.983269
H  -0.234879  -1.898382   1.461502
H   0.752122  -0.171958  -0.616085
H  -0.351447  -1.028928  -0.391019
