14
butane_opt
C  -3.979502   0.174312  -0.040723
C  -2.778426  -0.496710   0.052254
H  -4.745500  -0.391534   0.757409
H  -4.199307   1.594551  -1.503615
H  -3.845811   0.024311   0.297260
C  -1.385104   0.277910   0.174537
H  -2.868757  -1.359469  -0.871740
H  -2.732768  -1.073826   0.863585
C  -0.077289  -0.784441  -0.061303
H  -1.354895   0.972471   0.958298
H  -1.596955   0.696724  -0.599829
H   0.211965  -1.081561   0.771741
H   0.857442  -0.220122   0.156485
H  -0.080951  -1.645955  -0.976578
