14
butane_opt
C  -3.985919   0.287163   0.212263
C  -2.725362  -0.626990  -0.143647
H  -4.939198  -0.355763   0.345261
H  -4.517557   0.988097  -0.618663
H  -3.835048   0.976418   1.170882
C  -1.366600   0.119795  -0.264920
H  -2.949838  -1.496878  -1.059612
H  -2.666123  -1.215472   0.693236
C  -0.081331  -0.674870   0.220094
H  -1.453838   0.859651   0.634798
H  -1.493016   0.956071  -1.197194
H  -0.587388  -1.056061   1.108654
H   0.809868  -0.092978   0.754052
H   0.518997  -1.312536  -0.703680
