butane_opt
 OpenBabel08242015403D

 14 10  0  0  0  0  0  0  0  0999 V2000
   -3.9329    0.1909   -0.1138 C   0  0  0  0  0  0  0  0  0  0  0  0
   -2.6971   -0.5051    0.1906 C   0  0  0  0  0  0  0  0  0  0  0  0
   -4.9616   -0.5540    0.1593 H   0  0  0  0  0  0  0  0  0  0  0  0
   -3.5335    1.4033   -1.4816 H   0  0  0  0  0  0  0  0  0  0  0  0
   -3.8571    0.5645    0.5625 H   0  0  0  0  0  0  0  0  0  0  0  0
   -1.4882    0.1728    0.1882 C   0  0  0  0  0  0  0  0  0  0  0  0
   -2.5878   -1.1094   -0.5711 H   0  0  0  0  0  0  0  0  0  0  0  0
   -2.9166   -1.2657    1.2972 H   0  0  0  0  0  0  0  0  0  0  0  0
   -0.1370   -0.7097   -0.1239 C   0  0  0  0  0  0  0  0  0  0  0  0
   -1.3384    0.8891    1.0352 H   0  0  0  0  0  0  0  0  0  0  0  0
   -1.3889    0.8472   -0.7878 H   0  0  0  0  0  0  0  0  0  0  0  0
    0.1600   -0.8244    0.3733 H   0  0  0  0  0  0  0  0  0  0  0  0
    0.7369   -0.2388    0.3391 H   0  0  0  0  0  0  0  0  0  0  0  0
   -0.2593   -1.9780   -1.2511 H   0  0  0  0  0  0  0  0  0  0  0  0
  1  3  1  0  0  0  0
  1  2  1  0  0  0  0
  1  5  1  0  0  0  0
  2  8  1  0  0  0  0
  6  2  1  0  0  0  0
  6 10  1  0  0  0  0
  7  2  1  0  0  0  0
  9  6  1  0  0  0  0
  9 13  1  0  0  0  0
 11  6  1  0  0  0  0
M  RAD  5   1   2   4   2   9   3  12   2  14   2
M  END
$$$$
