butane_opt
 OpenBabel08242015403D

 14 13  0  0  0  0  0  0  0  0999 V2000
   -3.9262    0.2493    0.0056 C   0  0  0  0  0  0  0  0  0  0  0  0
   -2.6964   -0.5992    0.0413 C   0  0  0  0  0  0  0  0  0  0  0  0
   -4.8595   -0.3897    0.0787 H   0  0  0  0  0  0  0  0  0  0  0  0
   -3.9710    0.9335   -0.9598 H   0  0  0  0  0  0  0  0  0  0  0  0
   -3.9050    0.8955    0.8446 H   0  0  0  0  0  0  0  0  0  0  0  0
   -1.4241    0.1975    0.0315 C   0  0  0  0  0  0  0  0  0  0  0  0
   -2.6995   -1.2790   -0.8035 H   0  0  0  0  0  0  0  0  0  0  0  0
   -2.7398   -1.2613    0.9429 H   0  0  0  0  0  0  0  0  0  0  0  0
   -0.1693   -0.7047    0.0205 C   0  0  0  0  0  0  0  0  0  0  0  0
   -1.4030    0.9575    0.9311 H   0  0  0  0  0  0  0  0  0  0  0  0
   -1.3949    0.7691   -0.8323 H   0  0  0  0  0  0  0  0  0  0  0  0
   -0.0223   -1.3519    0.9412 H   0  0  0  0  0  0  0  0  0  0  0  0
    0.7354   -0.1318   -0.0697 H   0  0  0  0  0  0  0  0  0  0  0  0
   -0.1686   -1.3262   -0.8212 H   0  0  0  0  0  0  0  0  0  0  0  0
  1  2  1  0  0  0  0
  1  3  1  0  0  0  0
  1  5  1  0  0  0  0
  2  8  1  0  0  0  0
  4  1  1  0  0  0  0
  6  2  1  0  0  0  0
  6 10  1  0  0  0  0
  7  2  1  0  0  0  0
  9  6  1  0  0  0  0
  9 12  1  0  0  0  0
 11  6  1  0  0  0  0
 13  9  1  0  0  0  0
 14  9  1  0  0  0  0
M  END
$$$$
