butane_opt
 OpenBabel08242015403D

 14 10  0  0  0  0  0  0  0  0999 V2000
   -3.9795    0.1743   -0.0407 C   0  0  0  0  0  1  0  0  0  0  0  0
   -2.7784   -0.4967    0.0523 C   0  0  0  0  0  0  0  0  0  0  0  0
   -4.7455   -0.3915    0.7574 H   0  0  0  0  0  0  0  0  0  0  0  0
   -4.1993    1.5946   -1.5036 H   0  0  0  0  0  0  0  0  0  0  0  0
   -3.8458    0.0243    0.2973 H   0  0  0  0  0  0  0  0  0  0  0  0
   -1.3851    0.2779    0.1745 C   0  0  0  0  0  0  0  0  0  0  0  0
   -2.8688   -1.3595   -0.8717 H   0  0  0  0  0  0  0  0  0  0  0  0
   -2.7328   -1.0738    0.8636 H   0  0  0  0  0  0  0  0  0  0  0  0
   -0.0773   -0.7844   -0.0613 C   0  0  0  0  0  0  0  0  0  0  0  0
   -1.3549    0.9725    0.9583 H   0  0  0  0  0  0  0  0  0  0  0  0
   -1.5970    0.6967   -0.5998 H   0  0  0  0  0  0  0  0  0  0  0  0
    0.2120   -1.0816    0.7717 H   0  0  0  0  0  0  0  0  0  0  0  0
    0.8574   -0.2201    0.1565 H   0  0  0  0  0  0  0  0  0  0  0  0
   -0.0810   -1.6460   -0.9766 H   0  0  0  0  0  0  0  0  0  0  0  0
  1  3  1  0  0  0  0
  2  5  1  0  0  0  0
  2  8  1  0  0  0  0
  6 10  1  0  0  0  0
  7  2  1  0  0  0  0
  9 13  1  0  0  0  0
  9  6  1  0  0  0  0
  9 12  1  0  0  0  0
 11  6  1  0  0  0  0
 14  9  1  0  0  0  0
M  RAD  3   2   2   4   2   6   2
M  END
$$$$
