14
butane_opt
C  -3.943001   0.322264   0.115558
C  -2.635796  -0.665605  -0.110640
H  -4.904233  -0.389564   0.039383
H  -3.949178   0.910210  -0.686172
H  -3.906931   1.139794   1.021340
C  -1.364442   0.087460   0.015272
H  -2.908463  -1.278214  -1.127191
H  -2.407032  -0.974445   0.523036
C  -0.224323  -0.634277   0.139108
H  -1.523459   0.578557   0.643817
H  -1.182627   0.896911  -1.027752
H  -0.309910  -1.768463   1.276899
H   0.804567   0.004388  -0.572950
H  -0.708270  -0.919005  -0.528740
