14
butane_opt
C  -3.957003   0.266332   0.046521
C  -2.701557  -0.615190   0.005838
H  -4.871099  -0.297554   0.054780
H  -4.022816   0.806117  -0.802081
H  -3.945995   0.976524   0.928860
C  -1.398763   0.184152  -0.028417
H  -2.710822  -1.295827  -0.834612
H  -2.673816  -1.281523   0.939547
C  -0.153192  -0.692616   0.063976
H  -1.374971   0.840906   0.824769
H  -1.365103   0.837656  -0.961917
H  -0.221698  -1.289972   0.965828
H   0.771574  -0.092427   0.088819
H  -0.081944  -1.389505  -0.818435
