butane_opt
 OpenBabel08242015403D

 14 12  0  0  0  0  0  0  0  0999 V2000
   -3.9864    0.3426    0.1658 C   0  0  0  0  0  0  0  0  0  0  0  0
   -2.7471   -0.6739   -0.1252 C   0  0  0  0  0  0  0  0  0  0  0  0
   -4.7852   -0.1796    0.5083 H   0  0  0  0  0  0  0  0  0  0  0  0
   -4.5173    0.4617   -0.4689 H   0  0  0  0  0  0  0  0  0  0  0  0
   -3.9371    1.2506    1.2092 H   0  0  0  0  0  0  0  0  0  0  0  0
   -1.3290    0.1478   -0.2727 C   0  0  0  0  0  0  0  0  0  0  0  0
   -2.8141   -1.2555   -0.9531 H   0  0  0  0  0  0  0  0  0  0  0  0
   -2.3898   -1.3571    0.7616 H   0  0  0  0  0  0  0  0  0  0  0  0
   -0.1390   -0.6736    0.2264 C   0  0  0  0  0  0  0  0  0  0  0  0
   -1.4053    0.5162    0.5220 H   0  0  0  0  0  0  0  0  0  0  0  0
   -1.2608    0.7937   -1.1897 H   0  0  0  0  0  0  0  0  0  0  0  0
   -0.7622   -1.0253    1.0248 H   0  0  0  0  0  0  0  0  0  0  0  0
    1.0521    0.1375    0.8622 H   0  0  0  0  0  0  0  0  0  0  0  0
    0.2027   -1.4906   -0.7443 H   0  0  0  0  0  0  0  0  0  0  0  0
  1  3  1  0  0  0  0
  1  5  1  0  0  0  0
  2  1  1  0  0  0  0
  2  8  1  0  0  0  0
  4  1  1  0  0  0  0
  6  2  1  0  0  0  0
  6  9  1  0  0  0  0
  6 10  1  0  0  0  0
  7  2  1  0  0  0  0
  9 12  1  0  0  0  0
 11  6  1  0  0  0  0
 14  9  1  0  0  0  0
M  RAD  2   9   2  13   2
M  END
$$$$
