butane_opt
 OpenBabel08242015403D

 14 13  0  0  0  0  0  0  0  0999 V2000
   -3.9540    0.2585    0.0316 C   0  0  0  0  0  0  0  0  0  0  0  0
   -2.7048   -0.6152    0.0101 C   0  0  0  0  0  0  0  0  0  0  0  0
   -4.8803   -0.3444    0.0076 H   0  0  0  0  0  0  0  0  0  0  0  0
   -4.0040    0.8516   -0.8575 H   0  0  0  0  0  0  0  0  0  0  0  0
   -3.9634    0.9540    0.9302 H   0  0  0  0  0  0  0  0  0  0  0  0
   -1.4041    0.1931    0.0124 C   0  0  0  0  0  0  0  0  0  0  0  0
   -2.6615   -1.2589   -0.8262 H   0  0  0  0  0  0  0  0  0  0  0  0
   -2.7033   -1.2330    0.8813 H   0  0  0  0  0  0  0  0  0  0  0  0
   -0.1505   -0.6942    0.0462 C   0  0  0  0  0  0  0  0  0  0  0  0
   -1.4039    0.8970    0.8909 H   0  0  0  0  0  0  0  0  0  0  0  0
   -1.3503    0.7934   -0.8871 H   0  0  0  0  0  0  0  0  0  0  0  0
   -0.0415   -1.4580    1.0114 H   0  0  0  0  0  0  0  0  0  0  0  0
    0.7490   -0.1262   -0.1423 H   0  0  0  0  0  0  0  0  0  0  0  0
   -0.1972   -1.2549   -0.7574 H   0  0  0  0  0  0  0  0  0  0  0  0
  1  5  1  0  0  0  0
  2  6  1  0  0  0  0
  2  1  1  0  0  0  0
  2  8  1  0  0  0  0
  3  1  1  0  0  0  0
  4  1  1  0  0  0  0
  6  9  1  0  0  0  0
  6 10  1  0  0  0  0
  7  2  1  0  0  0  0
  9 12  1  0  0  0  0
 11  6  1  0  0  0  0
 13  9  1  0  0  0  0
 14  9  1  0  0  0  0
M  END
$$$$
