butane_opt
 OpenBabel08242015403D

 14 13  0  0  0  0  0  0  0  0999 V2000
   -3.9244    0.2094   -0.1627 C   0  0  0  0  0  0  0  0  0  0  0  0
   -2.7381   -0.6087    0.2247 C   0  0  0  0  0  0  0  0  0  0  0  0
   -5.0771   -0.4787   -0.2008 H   0  0  0  0  0  0  0  0  0  0  0  0
   -3.9666    1.1228   -1.2988 H   0  0  0  0  0  0  0  0  0  0  0  0
   -4.1400    0.6708    0.4986 H   0  0  0  0  0  0  0  0  0  0  0  0
   -1.4088    0.3048    0.2718 C   0  0  0  0  0  0  0  0  0  0  0  0
   -2.8218   -1.2812   -0.6812 H   0  0  0  0  0  0  0  0  0  0  0  0
   -3.0382   -0.9894    0.9614 H   0  0  0  0  0  0  0  0  0  0  0  0
   -0.0755   -0.7664   -0.1592 C   0  0  0  0  0  0  0  0  0  0  0  0
   -1.0600    1.2459    1.1897 H   0  0  0  0  0  0  0  0  0  0  0  0
   -1.7680    0.7249   -0.4476 H   0  0  0  0  0  0  0  0  0  0  0  0
    0.4176   -1.7085    0.8759 H   0  0  0  0  0  0  0  0  0  0  0  0
    0.6056   -0.3114   -0.7291 H   0  0  0  0  0  0  0  0  0  0  0  0
   -0.3463   -1.1959   -0.8064 H   0  0  0  0  0  0  0  0  0  0  0  0
  1  2  1  0  0  0  0
  1  5  1  0  0  0  0
  2  6  1  0  0  0  0
  2  8  1  0  0  0  0
  3  1  1  0  0  0  0
  4  1  1  0  0  0  0
  6 10  1  0  0  0  0
  7  2  1  0  0  0  0
  9  6  1  0  0  0  0
  9 12  1  0  0  0  0
 11  6  1  0  0  0  0
 13  9  1  0  0  0  0
 14  9  1  0  0  0  0
M  END
$$$$
