butane_opt
 OpenBabel08242015403D

 14 10  0  0  0  0  0  0  0  0999 V2000
   -4.0607    0.2836    0.0733 C   0  0  0  0  0  0  0  0  0  0  0  0
   -2.6467   -0.6785   -0.0739 C   0  0  0  0  0  0  0  0  0  0  0  0
   -4.7926   -0.1825   -0.0202 H   0  0  0  0  0  0  0  0  0  0  0  0
   -4.1002    0.8258   -0.6579 H   0  0  0  0  0  0  0  0  0  0  0  0
   -3.9265    1.2825    1.2148 H   0  0  0  0  0  0  0  0  0  0  0  0
   -1.3684    0.1632   -0.0306 C   0  0  0  0  0  0  0  0  0  0  0  0
   -2.9218   -1.6450   -1.0711 H   0  0  0  0  0  0  0  0  0  0  0  0
   -2.7817   -1.1404    0.5877 H   0  0  0  0  0  0  0  0  0  0  0  0
   -0.0970   -0.6883    0.0947 C   0  0  0  0  0  1  0  0  0  0  0  0
   -1.4215    1.0701    1.0397 H   0  0  0  0  0  0  0  0  0  0  0  0
   -1.4322    0.7293   -0.8192 H   0  0  0  0  0  0  0  0  0  0  0  0
   -0.1518   -1.9693    1.4422 H   0  0  0  0  0  0  0  0  0  0  0  0
    0.8108    0.0520   -0.8205 H   0  0  0  0  0  0  0  0  0  0  0  0
   -0.2601   -0.3962   -0.1410 H   0  0  0  0  0  0  0  0  0  0  0  0
  2  6  1  0  0  0  0
  2  1  1  0  0  0  0
  2  8  1  0  0  0  0
  3  1  1  0  0  0  0
  4  1  1  0  0  0  0
  6 10  1  0  0  0  0
  7  2  1  0  0  0  0
 11  6  1  0  0  0  0
 13  9  1  0  0  0  0
 14  6  1  0  0  0  0
M  RAD  3   1   2   5   2  12   2
M  END
$$$$
