butane_opt
 OpenBabel08242015403D

 14 12  0  0  0  0  0  0  0  0999 V2000
   -3.9834    0.2092   -0.0004 C   0  0  0  0  0  0  0  0  0  0  0  0
   -2.7909   -0.5815    0.0212 C   0  0  0  0  0  0  0  0  0  0  0  0
   -4.9072   -0.4893    0.4634 H   0  0  0  0  0  0  0  0  0  0  0  0
   -3.7838    1.2150   -1.1898 H   0  0  0  0  0  0  0  0  0  0  0  0
   -3.9247    0.5619    0.7437 H   0  0  0  0  0  0  0  0  0  0  0  0
   -1.3635    0.3033    0.0169 C   0  0  0  0  0  0  0  0  0  0  0  0
   -2.9361   -0.9766   -0.4692 H   0  0  0  0  0  0  0  0  0  0  0  0
   -2.4460   -1.3005    0.9611 H   0  0  0  0  0  0  0  0  0  0  0  0
   -0.1222   -0.7761   -0.0056 C   0  0  0  0  0  0  0  0  0  0  0  0
   -1.2951    1.1313    1.0014 H   0  0  0  0  0  0  0  0  0  0  0  0
   -1.3534    0.7205   -0.7159 H   0  0  0  0  0  0  0  0  0  0  0  0
   -0.1720   -1.1022    0.7814 H   0  0  0  0  0  0  0  0  0  0  0  0
    0.6599   -0.3670    0.4899 H   0  0  0  0  0  0  0  0  0  0  0  0
    0.2794   -1.7543   -1.0937 H   0  0  0  0  0  0  0  0  0  0  0  0
  1  2  1  0  0  0  0
  1  3  1  0  0  0  0
  1  5  1  0  0  0  0
  2  8  1  0  0  0  0
  6  2  1  0  0  0  0
  6 10  1  0  0  0  0
  7  2  1  0  0  0  0
  9  6  1  0  0  0  0
  9 13  1  0  0  0  0
  9 12  1  0  0  0  0
 11  6  1  0  0  0  0
 14  9  1  0  0  0  0
M  RAD  2   1   2   4   2
M  END
$$$$
