14
butane_opt
C  -3.868495   0.191381   0.085782
C  -2.713220  -0.562448  -0.125363
H  -4.827361  -0.356876   0.832104
H  -4.214030   1.337697  -1.115411
H  -3.393968   0.502655   0.706209
C  -1.474653   0.211068  -0.021531
H  -2.741439  -1.238273  -0.929571
H  -2.385558  -1.174534   0.826070
C  -0.193322  -0.711485   0.152160
H  -1.587026   1.018117   0.783647
H  -1.306670   0.752047  -0.828146
H  -0.101236  -1.091849   0.831369
H   0.520526  -0.344278   0.026980
H   0.039544  -1.446321  -0.885040
