butane_opt
 OpenBabel08242015403D

 14  9  0  0  0  0  0  0  0  0999 V2000
   -3.9197    0.2199    0.1064 C   0  0  0  0  0  0  0  0  0  0  0  0
   -2.7235   -0.5504   -0.0613 C   0  0  0  0  0  0  0  0  0  0  0  0
   -5.1215   -0.7104   -0.2624 H   0  0  0  0  0  0  0  0  0  0  0  0
   -3.7470    0.5847   -0.4834 H   0  0  0  0  0  0  0  0  0  0  0  0
   -3.7675    1.2681    1.2956 H   0  0  0  0  0  0  0  0  0  0  0  0
   -1.4591    0.2226   -0.0589 C   0  0  0  0  0  0  0  0  0  0  0  0
   -2.5281   -1.3867   -0.9879 H   0  0  0  0  0  0  0  0  0  0  0  0
   -2.6486   -1.1098    0.6567 H   0  0  0  0  0  0  0  0  0  0  0  0
   -0.1449   -0.7474    0.1156 C   0  0  0  0  0  0  0  0  0  0  0  0
   -1.3728    0.7111    0.6420 H   0  0  0  0  0  0  0  0  0  0  0  0
   -1.6455    1.2727   -1.1954 H   0  0  0  0  0  0  0  0  0  0  0  0
    0.1389   -1.7189    1.2995 H   0  0  0  0  0  0  0  0  0  0  0  0
    0.7474   -0.0830   -0.0734 H   0  0  0  0  0  0  0  0  0  0  0  0
   -0.1046   -1.0809   -0.5594 H   0  0  0  0  0  0  0  0  0  0  0  0
  2  6  1  0  0  0  0
  2  1  1  0  0  0  0
  2  8  1  0  0  0  0
  4  1  1  0  0  0  0
  6  9  1  0  0  0  0
  6 10  1  0  0  0  0
  7  2  1  0  0  0  0
 13  9  1  0  0  0  0
 14  9  1  0  0  0  0
M  RAD  7   1   3   3   2   5   2   6   2   9   2  11   2  12   2
M  END
$$$$
