butane_opt
 OpenBabel08242015403D

 14  9  0  0  0  0  0  0  0  0999 V2000
   -3.9200    0.3033   -0.1062 C   0  0  0  0  0  1  0  0  0  0  0  0
   -2.6341   -0.6766    0.0992 C   0  0  0  0  0  0  0  0  0  0  0  0
   -4.8250   -0.2604    0.6350 H   0  0  0  0  0  0  0  0  0  0  0  0
   -4.2072    1.5438   -1.3936 H   0  0  0  0  0  0  0  0  0  0  0  0
   -3.6546    0.4093    0.3762 H   0  0  0  0  0  0  0  0  0  0  0  0
   -1.3541    0.1720    0.1349 C   0  0  0  0  0  0  0  0  0  0  0  0
   -2.3875   -1.1553   -0.3641 H   0  0  0  0  0  0  0  0  0  0  0  0
   -2.7889   -1.5487    1.1768 H   0  0  0  0  0  0  0  0  0  0  0  0
   -0.2811   -0.6608   -0.0815 C   0  0  0  0  0  0  0  0  0  0  0  0
   -1.4571    1.1036    1.1972 H   0  0  0  0  0  0  0  0  0  0  0  0
   -1.3684    0.4409   -0.4838 H   0  0  0  0  0  0  0  0  0  0  0  0
   -0.1896   -0.7281    0.4047 H   0  0  0  0  0  0  0  0  0  0  0  0
    0.6112   -0.1604    0.2945 H   0  0  0  0  0  0  0  0  0  0  0  0
   -0.4789   -1.7364   -1.0730 H   0  0  0  0  0  0  0  0  0  0  0  0
  1  3  1  0  0  0  0
  2  5  1  0  0  0  0
  2  8  1  0  0  0  0
  6 10  1  0  0  0  0
  7  2  1  0  0  0  0
  9  6  1  0  0  0  0
  9 13  1  0  0  0  0
 11  6  1  0  0  0  0
 14  9  1  0  0  0  0
M  RAD  5   2   2   4   2   6   2   9   2  12   2
M  END
$$$$
