14
butane_opt
C  -3.927786   0.208334   0.080693
C  -2.759217  -0.547577  -0.109182
H  -4.766740  -0.379407   0.821966
H  -4.363297   1.142994  -0.928146
H  -3.376600   0.606878   0.715730
C  -1.445199   0.262855  -0.000678
H  -3.121968  -1.557948  -1.175601
H  -2.757080  -1.041691   0.640818
C  -0.093581  -0.749134   0.139771
H  -1.421144   0.862669   0.727480
H  -1.241840   0.986383  -1.068930
H  -0.038163  -1.486604   1.181269
H   0.657851  -0.174393  -0.059501
H   0.099055  -1.516250  -0.793395
