butane_opt
 OpenBabel08242015403D

 14 13  0  0  0  0  0  0  0  0999 V2000
   -3.8736    0.1916   -0.1850 C   0  0  0  0  0  0  0  0  0  0  0  0
   -2.6547   -0.5327    0.2088 C   0  0  0  0  0  0  0  0  0  0  0  0
   -4.8550   -0.4779   -0.2402 H   0  0  0  0  0  0  0  0  0  0  0  0
   -3.7048    0.6914   -1.0001 H   0  0  0  0  0  0  0  0  0  0  0  0
   -3.9509    0.7298    0.5770 H   0  0  0  0  0  0  0  0  0  0  0  0
   -1.4768    0.2499    0.2493 C   0  0  0  0  0  0  0  0  0  0  0  0
   -2.4955   -1.0381   -0.4465 H   0  0  0  0  0  0  0  0  0  0  0  0
   -2.9293   -1.1669    1.1338 H   0  0  0  0  0  0  0  0  0  0  0  0
   -0.2315   -0.7539   -0.1657 C   0  0  0  0  0  0  0  0  0  0  0  0
   -1.2888    1.2615    1.3099 H   0  0  0  0  0  0  0  0  0  0  0  0
   -1.5850    0.5881   -0.4753 H   0  0  0  0  0  0  0  0  0  0  0  0
    0.3299   -1.5740    0.8910 H   0  0  0  0  0  0  0  0  0  0  0  0
    0.4641   -0.2016   -0.8718 H   0  0  0  0  0  0  0  0  0  0  0  0
   -0.1614   -1.1744   -0.7258 H   0  0  0  0  0  0  0  0  0  0  0  0
  1  2  1  0  0  0  0
  1  5  1  0  0  0  0
  2  6  1  0  0  0  0
  2  8  1  0  0  0  0
  3  1  1  0  0  0  0
  4  1  1  0  0  0  0
  6 10  1  0  0  0  0
  7  2  1  0  0  0  0
  9  6  1  0  0  0  0
  9 12  1  0  0  0  0
 11  6  1  0  0  0  0
 13  9  1  0  0  0  0
 14  9  1  0  0  0  0
M  END
$$$$
