14
butane_opt
C  -3.941881   0.218912  -0.035709
C  -2.734978  -0.592365   0.085148
H  -5.024964  -0.594912   0.645396
H  -3.688981   1.449882  -1.377026
H  -3.901526   0.373744   0.452249
C  -1.395465   0.294004   0.112745
H  -2.843951  -1.383128  -0.754410
H  -2.791687  -1.067896   0.940911
C  -0.167100  -0.757318  -0.044280
H  -1.566186   1.206652   1.141207
H  -1.367561   0.903337  -0.827678
H   0.079840  -1.257053   0.679465
H   0.756235  -0.340495   0.199419
H   0.187945  -1.731311  -1.148340
