14
butane_opt
C  -3.853673   0.232682   0.125631
C  -2.690078  -0.612983  -0.103578
H  -4.895042  -0.467768   0.078154
H  -4.093258   0.792200  -0.700181
H  -3.759236   1.016312   1.071469
C  -1.468342   0.223113  -0.080302
H  -3.061312  -1.475347  -1.018408
H  -2.447279  -1.053082   0.670509
C  -0.168918  -0.701886   0.157849
H  -1.761061   0.956763   0.699983
H  -1.414131   1.191791  -1.120083
H   0.053282  -1.673674   1.225710
H   0.783165  -0.101038  -0.151379
H  -0.254511  -1.366773  -0.521141
