14
butane_opt
C  -3.935830   0.259178   0.020419
C  -2.689684  -0.604390   0.016190
H  -4.843767  -0.364276   0.179471
H  -4.038101   0.913427  -0.897641
H  -3.915652   0.912707   0.859114
C  -1.410769   0.185060   0.010233
H  -2.762851  -1.269173  -0.854871
H  -2.696036  -1.256139   0.905991
C  -0.165283  -0.697785   0.042706
H  -1.425316   0.872121   0.875993
H  -1.398124   0.761046  -0.860087
H  -0.127493  -1.329187   0.963288
H   0.770311  -0.077753  -0.003109
H  -0.165199  -1.331587  -0.802302
