butane_opt
 OpenBabel08242015403D

 14 12  0  0  0  0  0  0  0  0999 V2000
   -3.8247    0.2096   -0.0596 C   0  0  0  0  0  0  0  0  0  0  0  0
   -2.6741   -0.5718    0.0363 C   0  0  0  0  0  0  0  0  0  0  0  0
   -4.7858   -0.5069    0.6526 H   0  0  0  0  0  0  0  0  0  0  0  0
   -4.1428    1.1989   -1.0119 H   0  0  0  0  0  0  0  0  0  0  0  0
   -3.8817    0.5138    0.5822 H   0  0  0  0  0  0  0  0  0  0  0  0
   -1.4469    0.2173    0.0716 C   0  0  0  0  0  0  0  0  0  0  0  0
   -2.9172   -1.1985   -0.7841 H   0  0  0  0  0  0  0  0  0  0  0  0
   -2.5898   -1.2341    0.9567 H   0  0  0  0  0  0  0  0  0  0  0  0
   -0.1947   -0.7406   -0.0130 C   0  0  0  0  0  0  0  0  0  0  0  0
   -1.5620    1.4247    1.2038 H   0  0  0  0  0  0  0  0  0  0  0  0
   -1.7043    0.7224   -0.7115 H   0  0  0  0  0  0  0  0  0  0  0  0
   -0.1177   -1.3137    0.9065 H   0  0  0  0  0  0  0  0  0  0  0  0
    0.5963   -0.1633    0.0050 H   0  0  0  0  0  0  0  0  0  0  0  0
   -0.1872   -1.3330   -0.8196 H   0  0  0  0  0  0  0  0  0  0  0  0
  1  2  1  0  0  0  0
  1  5  1  0  0  0  0
  1  3  1  0  0  0  0
  2  6  1  0  0  0  0
  2  8  1  0  0  0  0
  4  1  1  0  0  0  0
  7  2  1  0  0  0  0
  9 13  1  0  0  0  0
  9  6  1  0  0  0  0
  9 12  1  0  0  0  0
 11  6  1  0  0  0  0
 14  9  1  0  0  0  0
M  RAD  2   6   2  10   2
M  END
$$$$
