14
butane_opt
C  -4.019155   0.324064  -0.073740
C  -2.766577  -0.679367   0.110788
H  -4.964759  -0.168307   0.700708
H  -4.286269   1.439059  -1.340774
H  -3.849207   0.363991   0.264927
C  -1.343190   0.114959   0.101379
H  -2.527558  -1.274747  -0.732297
H  -2.582280  -1.162655   0.899469
C  -0.143096  -0.656524  -0.061062
H  -0.865174   1.064500   1.255707
H  -1.524134   0.551715  -0.560612
H   0.012616  -1.027342   0.575178
H   0.757175   0.009443   0.309844
H   0.036269  -1.499776  -0.904700
