14
butane_opt
C  -3.866128   0.369056  -0.110787
C  -2.679577  -0.746908   0.134518
H  -4.734091  -0.279354   0.424674
H  -4.067073   1.718292  -1.468097
H  -4.113404   0.320815   0.322992
C  -1.383130   0.134042   0.200777
H  -2.692959  -1.326445  -0.685468
H  -2.682823  -1.371726   1.079726
C  -0.233301  -0.622804  -0.084569
H  -1.291997   0.849328   1.180857
H  -1.731762   0.506933  -0.352640
H  -0.282326  -0.967904   0.525804
H   0.847858   0.206029  -0.198643
H  -0.366439  -1.667319  -1.194205
