butane_opt
 OpenBabel08242015403D

 14 10  0  0  0  0  0  0  0  0999 V2000
   -3.9434    0.2090   -0.0580 C   0  0  0  0  0  0  0  0  0  0  0  0
   -2.7779   -0.6145    0.0980 C   0  0  0  0  0  0  0  0  0  0  0  0
   -4.9989   -0.5212    0.5114 H   0  0  0  0  0  0  0  0  0  0  0  0
   -3.9438    1.5300   -1.2606 H   0  0  0  0  0  0  0  0  0  0  0  0
   -3.7974    0.3698    0.4952 H   0  0  0  0  0  0  0  0  0  0  0  0
   -1.4401    0.3231    0.1182 C   0  0  0  0  0  0  0  0  0  0  0  0
   -2.9935   -1.3274   -0.8147 H   0  0  0  0  0  0  0  0  0  0  0  0
   -2.6294   -0.9440    0.7974 H   0  0  0  0  0  0  0  0  0  0  0  0
   -0.0673   -0.7753   -0.0290 C   0  0  0  0  0  0  0  0  0  0  0  0
   -1.2326    1.1760    0.9887 H   0  0  0  0  0  0  0  0  0  0  0  0
   -1.2402    0.7664   -0.6317 H   0  0  0  0  0  0  0  0  0  0  0  0
   -0.0395   -1.2524    0.8248 H   0  0  0  0  0  0  0  0  0  0  0  0
    0.5999   -0.3895   -0.1195 H   0  0  0  0  0  0  0  0  0  0  0  0
    0.0549   -1.6546   -1.0168 H   0  0  0  0  0  0  0  0  0  0  0  0
  1  2  1  0  0  0  0
  1  3  1  0  0  0  0
  2  8  1  0  0  0  0
  6 10  1  0  0  0  0
  7  2  1  0  0  0  0
  9  6  1  0  0  0  0
  9 12  1  0  0  0  0
 11  6  1  0  0  0  0
 13  9  1  0  0  0  0
 14  9  1  0  0  0  0
M  RAD  5   1   3   2   2   4   2   5   2   6   2
M  END
$$$$
