butane_opt
 OpenBabel08242015403D

 14 12  0  0  0  0  0  0  0  0999 V2000
   -3.8066    0.1956   -0.1228 C   0  0  0  0  0  0  0  0  0  0  0  0
   -2.7388   -0.5188    0.1747 C   0  0  0  0  0  0  0  0  0  0  0  0
   -4.7639   -0.6132   -0.3176 H   0  0  0  0  0  0  0  0  0  0  0  0
   -3.6753    0.8568   -1.0130 H   0  0  0  0  0  0  0  0  0  0  0  0
   -4.1271    0.8232    0.7147 H   0  0  0  0  0  0  0  0  0  0  0  0
   -1.5047    0.2304    0.1267 C   0  0  0  0  0  0  0  0  0  0  0  0
   -2.7609   -1.0580   -0.5971 H   0  0  0  0  0  0  0  0  0  0  0  0
   -2.7690   -1.2424    1.1970 H   0  0  0  0  0  0  0  0  0  0  0  0
   -0.1571   -0.7733   -0.0903 C   0  0  0  0  0  0  0  0  0  0  0  0
   -1.2367    1.3843    1.4569 H   0  0  0  0  0  0  0  0  0  0  0  0
   -1.6070    0.6915   -0.5129 H   0  0  0  0  0  0  0  0  0  0  0  0
    0.1835   -1.6107    0.8447 H   0  0  0  0  0  0  0  0  0  0  0  0
    0.7416   -0.1472   -0.5630 H   0  0  0  0  0  0  0  0  0  0  0  0
   -0.4714   -1.1978   -0.8248 H   0  0  0  0  0  0  0  0  0  0  0  0
  1  2  1  0  0  0  0
  1  5  1  0  0  0  0
  2  8  1  0  0  0  0
  3  1  1  0  0  0  0
  4  1  1  0  0  0  0
  6  2  1  0  0  0  0
  7  2  1  0  0  0  0
  9  6  1  0  0  0  0
  9 12  1  0  0  0  0
 11  6  1  0  0  0  0
 13  9  1  0  0  0  0
 14  9  1  0  0  0  0
M  RAD  2   6   2  10   2
M  END
$$$$
