butane_opt
 OpenBabel08242015403D

 14 12  0  0  0  0  0  0  0  0999 V2000
   -3.9253    0.3326   -0.0432 C   0  0  0  0  0  0  0  0  0  0  0  0
   -2.6174   -0.7131   -0.0102 C   0  0  0  0  0  0  0  0  0  0  0  0
   -4.6999   -0.1018    0.6565 H   0  0  0  0  0  0  0  0  0  0  0  0
   -4.5809    1.3593   -1.0384 H   0  0  0  0  0  0  0  0  0  0  0  0
   -3.4505    0.5152    0.5698 H   0  0  0  0  0  0  0  0  0  0  0  0
   -1.3756    0.1291    0.0843 C   0  0  0  0  0  0  0  0  0  0  0  0
   -2.8403   -1.2720   -0.6540 H   0  0  0  0  0  0  0  0  0  0  0  0
   -2.7062   -1.2885    0.8528 H   0  0  0  0  0  0  0  0  0  0  0  0
   -0.2722   -0.6670    0.0097 C   0  0  0  0  0  0  0  0  0  0  0  0
   -1.3570    1.0574    1.0956 H   0  0  0  0  0  0  0  0  0  0  0  0
   -1.4771    0.6137   -0.6558 H   0  0  0  0  0  0  0  0  0  0  0  0
   -0.3567   -1.1577    0.8590 H   0  0  0  0  0  0  0  0  0  0  0  0
    0.9996    0.1013    0.0380 H   0  0  0  0  0  0  0  0  0  0  0  0
   -0.3241   -1.2163   -0.8535 H   0  0  0  0  0  0  0  0  0  0  0  0
  1  2  1  0  0  0  0
  1  5  1  0  0  0  0
  1  3  1  0  0  0  0
  2  6  1  0  0  0  0
  2  8  1  0  0  0  0
  6 10  1  0  0  0  0
  7  2  1  0  0  0  0
  9 13  1  0  0  0  0
  9  6  1  0  0  0  0
  9 12  1  0  0  0  0
 11  6  1  0  0  0  0
 14  9  1  0  0  0  0
M  RAD  2   1   2   4   2
M  END
$$$$
