14
butane_opt
C  -3.955915   0.311217   0.053833
C  -2.700659  -0.668833  -0.071331
H  -4.791008  -0.367404   0.429880
H  -4.092537   1.099898  -0.824086
H  -3.990676   0.785646   0.835179
C  -1.350260   0.183587   0.007397
H  -2.711656  -1.423037  -1.013228
H  -2.424024  -1.107174   0.762340
C  -0.223474  -0.674740   0.075067
H  -1.378024   1.058005   0.941149
H  -1.095815   0.546416  -0.766626
H  -0.190018  -1.779369   1.273945
H   0.788637  -0.005877  -0.404065
H  -0.363095  -1.076834  -0.571125
