14
butane_opt
C  -3.925338   0.332593  -0.043205
C  -2.617403  -0.713089  -0.010200
H  -4.699943  -0.101818   0.656545
H  -4.580872   1.359341  -1.038449
H  -3.450456   0.515229   0.569806
C  -1.375583   0.129101   0.084258
H  -2.840323  -1.271970  -0.653951
H  -2.706202  -1.288490   0.852828
C  -0.272175  -0.666969   0.009710
H  -1.356959   1.057391   1.095557
H  -1.477095   0.613729  -0.655787
H  -0.356672  -1.157739   0.859015
H   0.999567   0.101326   0.038012
H  -0.324074  -1.216339  -0.853455
