butane_opt
 OpenBabel08242015403D

 14 12  0  0  0  0  0  0  0  0999 V2000
   -3.8685    0.1914    0.0858 C   0  0  0  0  0  0  0  0  0  0  0  0
   -2.7132   -0.5624   -0.1254 C   0  0  0  0  0  0  0  0  0  0  0  0
   -4.8274   -0.3569    0.8321 H   0  0  0  0  0  0  0  0  0  0  0  0
   -4.2140    1.3377   -1.1154 H   0  0  0  0  0  0  0  0  0  0  0  0
   -3.3940    0.5027    0.7062 H   0  0  0  0  0  0  0  0  0  0  0  0
   -1.4747    0.2111   -0.0215 C   0  0  0  0  0  0  0  0  0  0  0  0
   -2.7414   -1.2383   -0.9296 H   0  0  0  0  0  0  0  0  0  0  0  0
   -2.3856   -1.1745    0.8261 H   0  0  0  0  0  0  0  0  0  0  0  0
   -0.1933   -0.7115    0.1522 C   0  0  0  0  0  0  0  0  0  0  0  0
   -1.5870    1.0181    0.7836 H   0  0  0  0  0  0  0  0  0  0  0  0
   -1.3067    0.7520   -0.8281 H   0  0  0  0  0  0  0  0  0  0  0  0
   -0.1012   -1.0918    0.8314 H   0  0  0  0  0  0  0  0  0  0  0  0
    0.5205   -0.3443    0.0270 H   0  0  0  0  0  0  0  0  0  0  0  0
    0.0395   -1.4463   -0.8850 H   0  0  0  0  0  0  0  0  0  0  0  0
  1  5  1  0  0  0  0
  1  3  1  0  0  0  0
  2  6  1  0  0  0  0
  2  1  1  0  0  0  0
  2  8  1  0  0  0  0
  6  9  1  0  0  0  0
  6 10  1  0  0  0  0
  7  2  1  0  0  0  0
  9 12  1  0  0  0  0
 11  6  1  0  0  0  0
 13  9  1  0  0  0  0
 14  9  1  0  0  0  0
M  RAD  2   1   2   4   2
M  END
$$$$
