butane_opt
 OpenBabel08242015403D

 14  8  0  0  0  0  0  0  0  0999 V2000
   -3.8662    0.2295    0.1231 C   0  0  0  0  0 15  0  0  0  0  0  0
   -2.7111   -0.5245    0.0104 C   0  0  0  0  0  0  0  0  0  0  0  0
   -5.1603   -0.7709   -0.7736 H   0  0  0  0  0  0  0  0  0  0  0  0
   -3.5806    0.0310   -0.3210 H   0  0  0  0  0  0  0  0  0  0  0  0
   -4.0073    1.5782    1.4506 H   0  0  0  0  0  0  0  0  0  0  0  0
   -1.4830    0.2412   -0.1165 C   0  0  0  0  0  0  0  0  0  0  0  0
   -2.5436   -1.2683   -0.9770 H   0  0  0  0  0  0  0  0  0  0  0  0
   -2.5758   -1.1049    0.8386 H   0  0  0  0  0  0  0  0  0  0  0  0
   -0.1584   -0.7404    0.0910 C   0  0  0  0  0  0  0  0  0  0  0  0
   -1.6419    0.5635    0.4196 H   0  0  0  0  0  0  0  0  0  0  0  0
   -1.4021    0.9431   -1.1073 H   0  0  0  0  0  0  0  0  0  0  0  0
   -0.3100   -1.7884    1.2650 H   0  0  0  0  0  0  0  0  0  0  0  0
    0.7043   -0.1184   -0.1545 H   0  0  0  0  0  0  0  0  0  0  0  0
    0.1683   -1.0547   -0.3978 H   0  0  0  0  0  0  0  0  0  0  0  0
  2  8  1  0  0  0  0
  4  2  1  0  0  0  0
  6  9  1  0  0  0  0
  6 10  1  0  0  0  0
  7  2  1  0  0  0  0
 11  6  1  0  0  0  0
 13  9  1  0  0  0  0
 14  9  1  0  0  0  0
M  RAD  6   2   2   3   2   5   2   6   2   9   2  12   2
M  END
$$$$
