14
butane_opt
C  -3.941109   0.239659   0.108660
C  -2.771393  -0.559413  -0.126211
H  -4.771552  -0.436279   1.021429
H  -4.116363   1.091522  -0.836628
H  -3.424984   0.622488   0.885468
C  -1.413562   0.183506  -0.090196
H  -2.846842  -1.558876  -1.187235
H  -2.821543  -0.857481   0.540587
C  -0.093616  -0.746611   0.141306
H  -1.698348   0.991942   0.814883
H  -1.365219   1.022177  -1.004417
H  -0.296754  -1.444305   1.113164
H   0.804915  -0.133367   0.218353
H   0.129268  -1.164259  -0.521889
