14
butane_opt
C  -3.926025   0.232609  -0.088732
C  -2.646612  -0.590696   0.187427
H  -4.942271  -0.586697  -0.136693
H  -3.757353   0.929179  -1.070845
H  -3.779998   1.031573   0.727407
C  -1.461430   0.215844   0.127441
H  -2.650463  -1.058565  -0.546413
H  -2.685596  -1.165041   1.201278
C  -0.208151  -0.737221  -0.075837
H  -1.319992   0.519957   0.701082
H  -1.529790   1.049389  -0.937093
H  -0.358876  -0.783212   0.393200
H   0.894625  -0.015828   0.422617
H   0.030123  -1.858424  -1.180508
