butane_opt
 OpenBabel08242015403D

 14 11  0  0  0  0  0  0  0  0999 V2000
   -3.9049    0.3341   -0.0732 C   0  0  0  0  0  1  0  0  0  0  0  0
   -2.6395   -0.7209    0.1002 C   0  0  0  0  0  0  0  0  0  0  0  0
   -4.6196   -0.2191    0.7684 H   0  0  0  0  0  0  0  0  0  0  0  0
   -4.2127    1.7040   -1.4026 H   0  0  0  0  0  0  0  0  0  0  0  0
   -3.7323    0.2081    0.2649 H   0  0  0  0  0  0  0  0  0  0  0  0
   -1.4444    0.1197    0.1577 C   0  0  0  0  0  0  0  0  0  0  0  0
   -2.6580   -1.4645   -0.7803 H   0  0  0  0  0  0  0  0  0  0  0  0
   -2.6667   -1.1143    0.8300 H   0  0  0  0  0  0  0  0  0  0  0  0
   -0.2212   -0.6470   -0.0392 C   0  0  0  0  0  0  0  0  0  0  0  0
   -1.5376    1.1429    1.0406 H   0  0  0  0  0  0  0  0  0  0  0  0
   -1.3067    0.5251   -0.6089 H   0  0  0  0  0  0  0  0  0  0  0  0
   -0.2676   -0.9188    0.5705 H   0  0  0  0  0  0  0  0  0  0  0  0
    0.8228    0.1223   -0.0562 H   0  0  0  0  0  0  0  0  0  0  0  0
   -0.3663   -1.4414   -1.0568 H   0  0  0  0  0  0  0  0  0  0  0  0
  1  3  1  0  0  0  0
  2  6  1  0  0  0  0
  2  5  1  0  0  0  0
  2  8  1  0  0  0  0
  6 10  1  0  0  0  0
  7  2  1  0  0  0  0
  9  6  1  0  0  0  0
  9 12  1  0  0  0  0
 11  6  1  0  0  0  0
 13  9  1  0  0  0  0
 14  9  1  0  0  0  0
M  RAD  1   4   2
M  END
$$$$
