butane_opt
 OpenBabel08242015403D

 14 12  0  0  0  0  0  0  0  0999 V2000
   -3.9424    0.2391    0.0007 C   0  0  0  0  0  0  0  0  0  0  0  0
   -2.6673   -0.5656    0.0234 C   0  0  0  0  0  0  0  0  0  0  0  0
   -4.9003   -0.5771    0.7022 H   0  0  0  0  0  0  0  0  0  0  0  0
   -4.1815    1.2545   -1.1279 H   0  0  0  0  0  0  0  0  0  0  0  0
   -3.6705    0.4575    0.5295 H   0  0  0  0  0  0  0  0  0  0  0  0
   -1.4650    0.1814    0.0276 C   0  0  0  0  0  0  0  0  0  0  0  0
   -2.5693   -1.2003   -0.6906 H   0  0  0  0  0  0  0  0  0  0  0  0
   -2.5937   -1.0325    0.8588 H   0  0  0  0  0  0  0  0  0  0  0  0
   -0.1750   -0.7107   -0.0378 C   0  0  0  0  0  0  0  0  0  0  0  0
   -1.2967    1.0849    0.9729 H   0  0  0  0  0  0  0  0  0  0  0  0
   -1.2405    0.5971   -0.6411 H   0  0  0  0  0  0  0  0  0  0  0  0
   -0.3233   -1.2473    0.9151 H   0  0  0  0  0  0  0  0  0  0  0  0
    0.7031   -0.1180    0.5397 H   0  0  0  0  0  0  0  0  0  0  0  0
    0.0808   -1.4536   -0.8305 H   0  0  0  0  0  0  0  0  0  0  0  0
  1  2  1  0  0  0  0
  1  5  1  0  0  0  0
  1  3  1  0  0  0  0
  2  6  1  0  0  0  0
  2  8  1  0  0  0  0
  6 10  1  0  0  0  0
  7  2  1  0  0  0  0
  9  6  1  0  0  0  0
  9 13  1  0  0  0  0
  9 12  1  0  0  0  0
 11  6  1  0  0  0  0
 14  9  1  0  0  0  0
M  RAD  2   1   2   4   2
M  END
$$$$
