butane_opt
 OpenBabel08242015403D

 14 12  0  0  0  0  0  0  0  0999 V2000
   -3.9750    0.2407    0.1298 C   0  0  0  0  0  0  0  0  0  0  0  0
   -2.7087   -0.5531   -0.1196 C   0  0  0  0  0  0  0  0  0  0  0  0
   -5.0638   -0.4237    0.4709 H   0  0  0  0  0  0  0  0  0  0  0  0
   -4.0498    1.0747   -0.8724 H   0  0  0  0  0  0  0  0  0  0  0  0
   -3.6943    0.7679    0.9117 H   0  0  0  0  0  0  0  0  0  0  0  0
   -1.4106    0.1693   -0.1109 C   0  0  0  0  0  0  0  0  0  0  0  0
   -3.0290   -1.3732   -0.9555 H   0  0  0  0  0  0  0  0  0  0  0  0
   -2.5315   -1.1339    0.6332 H   0  0  0  0  0  0  0  0  0  0  0  0
   -0.1607   -0.7107    0.1455 C   0  0  0  0  0  0  0  0  0  0  0  0
   -1.2046    1.2320    0.9603 H   0  0  0  0  0  0  0  0  0  0  0  0
   -1.2454    0.6208   -0.9852 H   0  0  0  0  0  0  0  0  0  0  0  0
    0.0697   -1.7404    1.2054 H   0  0  0  0  0  0  0  0  0  0  0  0
    0.7454   -0.0469    0.1277 H   0  0  0  0  0  0  0  0  0  0  0  0
    0.0146   -1.1992   -0.5700 H   0  0  0  0  0  0  0  0  0  0  0  0
  1  3  1  0  0  0  0
  1  5  1  0  0  0  0
  2  6  1  0  0  0  0
  2  1  1  0  0  0  0
  2  8  1  0  0  0  0
  4  1  1  0  0  0  0
  6  9  1  0  0  0  0
  7  2  1  0  0  0  0
  9 12  1  0  0  0  0
 11  6  1  0  0  0  0
 13  9  1  0  0  0  0
 14  9  1  0  0  0  0
M  RAD  2   6   2  10   2
M  END
$$$$
