butane_opt
 OpenBabel08242015403D

 14 13  0  0  0  0  0  0  0  0999 V2000
   -3.9602    0.2619   -0.0151 C   0  0  0  0  0  0  0  0  0  0  0  0
   -2.7013   -0.6161    0.0626 C   0  0  0  0  0  0  0  0  0  0  0  0
   -4.8724   -0.3223    0.0177 H   0  0  0  0  0  0  0  0  0  0  0  0
   -3.9316    0.9439   -0.9548 H   0  0  0  0  0  0  0  0  0  0  0  0
   -3.9866    0.8874    0.8001 H   0  0  0  0  0  0  0  0  0  0  0  0
   -1.4046    0.1853    0.0590 C   0  0  0  0  0  0  0  0  0  0  0  0
   -2.6819   -1.2549   -0.7504 H   0  0  0  0  0  0  0  0  0  0  0  0
   -2.7191   -1.2629    0.9696 H   0  0  0  0  0  0  0  0  0  0  0  0
   -0.1499   -0.6978   -0.0043 C   0  0  0  0  0  0  0  0  0  0  0  0
   -1.3123    0.9351    0.9460 H   0  0  0  0  0  0  0  0  0  0  0  0
   -1.4278    0.7359   -0.7733 H   0  0  0  0  0  0  0  0  0  0  0  0
   -0.0839   -1.3204    0.9079 H   0  0  0  0  0  0  0  0  0  0  0  0
    0.7684   -0.1064   -0.1323 H   0  0  0  0  0  0  0  0  0  0  0  0
   -0.1824   -1.3051   -0.8202 H   0  0  0  0  0  0  0  0  0  0  0  0
  1  3  1  0  0  0  0
  1  2  1  0  0  0  0
  1  5  1  0  0  0  0
  2  8  1  0  0  0  0
  4  1  1  0  0  0  0
  6  2  1  0  0  0  0
  6 10  1  0  0  0  0
  7  2  1  0  0  0  0
  9  6  1  0  0  0  0
  9 12  1  0  0  0  0
 11  6  1  0  0  0  0
 13  9  1  0  0  0  0
 14  9  1  0  0  0  0
M  END
$$$$
