14
butane_opt
C  -3.858484   0.250862   0.126734
C  -2.715723  -0.598568  -0.096975
H  -4.894849  -0.475129   0.341666
H  -3.961255   0.728980  -0.620179
H  -3.929524   0.916119   1.049095
C  -1.406367   0.233226  -0.181972
H  -3.002519  -0.911957  -0.666062
H  -2.603851  -1.306483   1.030298
C  -0.158973  -0.741004   0.159821
H  -1.660766   0.810871   0.573842
H  -1.553446   0.882549  -1.056465
H  -0.612332  -1.031694   0.830670
H   0.723784   0.079812   0.818475
H   0.167642  -1.953189  -0.995012
