14
butane_opt
C  -3.975859   0.183756   0.140297
C  -2.749359  -0.566311  -0.098621
H  -4.709008  -0.353100  -0.221532
H  -3.856804   0.662640  -0.699848
H  -4.007266   1.340602   1.181961
C  -1.380191   0.253542  -0.075656
H  -3.270150  -1.334600  -1.030121
H  -2.659152  -1.233826   0.788326
C  -0.081662  -0.744329   0.100669
H  -1.628377   1.168387   0.755713
H  -1.431344   0.862772  -0.932921
H   0.168670  -2.001257   1.499550
H   0.652459  -0.244124  -0.260758
H  -0.036354  -0.862472  -0.366142
