14
butane_opt
C  -4.000433   0.290487   0.205944
C  -2.648580  -0.695205  -0.119737
H  -4.786841  -0.163543   0.304572
H  -4.254970   1.011528  -0.705522
H  -4.038699   0.916058   1.135145
C  -1.399466   0.184186  -0.256594
H  -2.920452  -1.555352  -1.111533
H  -2.662848  -1.150755   0.674206
C  -0.172486  -0.667679   0.213098
H  -1.458050   0.950411   0.650148
H  -1.183402   0.892211  -1.035427
H  -0.274420  -1.289108   1.139473
H   1.018327   0.016368   0.542549
H   0.157514  -1.409556  -0.673040
