14
butane_opt
C  -3.943368   0.209043  -0.058045
C  -2.777923  -0.614537   0.098027
H  -4.998903  -0.521163   0.511378
H  -3.943802   1.530042  -1.260550
H  -3.797397   0.369782   0.495194
C  -1.440089   0.323127   0.118205
H  -2.993474  -1.327427  -0.814658
H  -2.629411  -0.944000   0.797362
C  -0.067303  -0.775275  -0.029033
H  -1.232575   1.175990   0.988747
H  -1.240189   0.766405  -0.631700
H  -0.039499  -1.252361   0.824773
H   0.599939  -0.389544  -0.119481
H   0.054882  -1.654636  -1.016840
