14
butane_opt
C  -3.961361   0.351248   0.073040
C  -2.670653  -0.652423  -0.003174
H  -4.864631  -0.291083   0.348431
H  -4.187196   1.280710  -1.199673
H  -3.813087   0.551033   0.686280
C  -1.394181   0.115281   0.010843
H  -2.888876  -1.761607  -1.104864
H  -2.703593  -1.145426   0.706703
C  -0.186245  -0.662148   0.076954
H  -1.180955   0.779494   0.810746
H  -1.535580   0.684643  -0.914529
H  -0.199483  -1.240226   0.957958
H   1.015901   0.221233   0.035979
H  -0.182206  -1.279852  -0.803628
