14
butane_opt
C  -3.934067   0.256105   0.009588
C  -2.699630  -0.595924   0.058100
H  -4.847951  -0.362452  -0.073743
H  -3.883758   0.792826  -0.834475
H  -3.995777   0.956983   0.865857
C  -1.414897   0.186310   0.017958
H  -2.710199  -1.269288  -0.764415
H  -2.713701  -1.241923   0.954863
C  -0.163209  -0.699716   0.022495
H  -1.385403   0.843677   0.844427
H  -1.476696   0.835905  -0.890170
H  -0.152621  -1.300257   0.894345
H   0.771402  -0.104799  -0.003188
H  -0.091886  -1.383367  -0.847541
