butane_opt
 OpenBabel08242015403D

 14 11  0  0  0  0  0  0  0  0999 V2000
   -3.9780    0.1917   -0.1067 C   0  0  0  0  0  0  0  0  0  0  0  0
   -2.7763   -0.5191    0.1634 C   0  0  0  0  0  0  0  0  0  0  0  0
   -4.9225   -0.2434    0.4074 H   0  0  0  0  0  0  0  0  0  0  0  0
   -3.8722    1.5174   -1.5183 H   0  0  0  0  0  0  0  0  0  0  0  0
   -3.8331    0.4225    0.4886 H   0  0  0  0  0  0  0  0  0  0  0  0
   -1.4171    0.2311    0.2157 C   0  0  0  0  0  0  0  0  0  0  0  0
   -2.7806   -1.5006   -0.8674 H   0  0  0  0  0  0  0  0  0  0  0  0
   -3.1037   -1.1500    0.9815 H   0  0  0  0  0  0  0  0  0  0  0  0
   -0.0555   -0.7533   -0.1215 C   0  0  0  0  0  0  0  0  0  0  0  0
   -1.2393    0.9946    1.1754 H   0  0  0  0  0  0  0  0  0  0  0  0
   -1.4012    0.7302   -0.5128 H   0  0  0  0  0  0  0  0  0  0  0  0
   -0.0817   -1.4001    0.7170 H   0  0  0  0  0  0  0  0  0  0  0  0
    0.8987   -0.1747   -0.2014 H   0  0  0  0  0  0  0  0  0  0  0  0
    0.0334   -1.4321   -1.1039 H   0  0  0  0  0  0  0  0  0  0  0  0
  1  2  1  0  0  0  0
  1  3  1  0  0  0  0
  1  5  1  0  0  0  0
  2  8  1  0  0  0  0
  6 10  1  0  0  0  0
  7  2  1  0  0  0  0
  9  6  1  0  0  0  0
  9 12  1  0  0  0  0
 11  6  1  0  0  0  0
 13  9  1  0  0  0  0
 14  9  1  0  0  0  0
M  RAD  4   1   2   2   2   4   2   6   2
M  END
$$$$
