butane_opt
 OpenBabel08242015403D

 14 11  0  0  0  0  0  0  0  0999 V2000
   -3.9283    0.2380   -0.1323 C   0  0  0  0  0  0  0  0  0  0  0  0
   -2.7294   -0.5446    0.2855 C   0  0  0  0  0  0  0  0  0  0  0  0
   -5.0377   -0.5361   -0.2110 H   0  0  0  0  0  0  0  0  0  0  0  0
   -3.3133    0.8336   -1.1708 H   0  0  0  0  0  0  0  0  0  0  0  0
   -3.8963    0.6866    0.5671 H   0  0  0  0  0  0  0  0  0  0  0  0
   -1.4327    0.2450    0.0706 C   0  0  0  0  0  0  0  0  0  0  0  0
   -2.7488   -0.7872   -0.4300 H   0  0  0  0  0  0  0  0  0  0  0  0
   -3.0551   -1.3287    1.3787 H   0  0  0  0  0  0  0  0  0  0  0  0
   -0.1469   -0.7477   -0.1162 C   0  0  0  0  0  0  0  0  0  0  0  0
   -1.2622    1.0085    1.0468 H   0  0  0  0  0  0  0  0  0  0  0  0
   -1.6585    0.5721   -0.5284 H   0  0  0  0  0  0  0  0  0  0  0  0
   -0.0433   -0.9418    0.4145 H   0  0  0  0  0  0  0  0  0  0  0  0
    0.8336   -0.2338    0.5375 H   0  0  0  0  0  0  0  0  0  0  0  0
   -0.0183   -2.0670   -1.4881 H   0  0  0  0  0  0  0  0  0  0  0  0
  1  2  1  0  0  0  0
  1  5  1  0  0  0  0
  2  8  1  0  0  0  0
  3  1  1  0  0  0  0
  4  1  1  0  0  0  0
  6  2  1  0  0  0  0
  6 10  1  0  0  0  0
  7  2  1  0  0  0  0
  9  6  1  0  0  0  0
  9 13  1  0  0  0  0
 11  6  1  0  0  0  0
M  RAD  3   9   3  12   2  14   2
M  END
$$$$
