14
butane_opt
C  -4.016025   0.312319   0.067955
C  -2.726176  -0.644191  -0.003098
H  -4.635461  -0.057504  -0.570629
H  -4.072764   0.249311  -0.294699
H  -4.181585   1.757517   1.565053
C  -1.329266   0.102283  -0.142426
H  -2.878450  -1.452679  -0.792066
H  -2.499449  -1.499483   0.956745
C  -0.143659  -0.640830   0.138859
H  -1.421097   0.566136   0.564591
H  -1.213087   1.003546  -1.223412
H  -0.161952  -1.508747   1.122770
H   0.961729   0.198492   0.108409
H  -0.386327  -1.218163  -0.652022
