butane_opt
 OpenBabel08242015403D

 14 10  0  0  0  0  0  0  0  0999 V2000
   -3.9642    0.1889   -0.0755 C   0  0  0  0  0  0  0  0  0  0  0  0
   -2.7768   -0.5484    0.1248 C   0  0  0  0  0  0  0  0  0  0  0  0
   -4.9583   -0.4674    0.2376 H   0  0  0  0  0  0  0  0  0  0  0  0
   -3.9314    0.8162   -1.0233 H   0  0  0  0  0  0  0  0  0  0  0  0
   -3.8655    0.9183    0.8778 H   0  0  0  0  0  0  0  0  0  0  0  0
   -1.3837    0.2792   -0.0054 C   0  0  0  0  0  0  0  0  0  0  0  0
   -2.6786   -0.8910   -0.3974 H   0  0  0  0  0  0  0  0  0  0  0  0
   -2.7781   -1.4644    1.2905 H   0  0  0  0  0  0  0  0  0  0  0  0
   -0.1439   -0.7724   -0.0050 C   0  0  0  0  0  0  0  0  0  0  0  0
   -1.2297    1.0926    0.9146 H   0  0  0  0  0  0  0  0  0  0  0  0
   -1.4561    1.0216   -0.8513 H   0  0  0  0  0  0  0  0  0  0  0  0
   -0.0459   -0.7806    0.5294 H   0  0  0  0  0  0  0  0  0  0  0  0
    0.8082   -0.2977    0.6053 H   0  0  0  0  0  0  0  0  0  0  0  0
    0.3572   -2.2363   -1.2739 H   0  0  0  0  0  0  0  0  0  0  0  0
  1  2  1  0  0  0  0
  1  3  1  0  0  0  0
  1  5  1  0  0  0  0
  2  8  1  0  0  0  0
  4  1  1  0  0  0  0
  6  9  1  0  0  0  0
  6  2  1  0  0  0  0
  6 10  1  0  0  0  0
  9 13  1  0  0  0  0
 11  6  1  0  0  0  0
M  RAD  5   2   2   7   2   9   3  12   2  14   2
M  END
$$$$
