14
butane_opt
C  -3.896248   0.211313   0.155320
C  -2.736248  -0.489311  -0.185111
H  -4.709814  -0.413859   0.156517
H  -4.086923   0.366900  -0.503788
H  -3.593757   1.161282   1.156674
C  -1.393189   0.184344  -0.048058
H  -2.679800  -1.367223  -1.231623
H  -2.869086  -1.037585   0.723335
C  -0.180312  -0.746456   0.137306
H  -1.683067   0.918159   0.711415
H  -1.319965   0.953649  -1.085924
H  -0.023990  -2.201272   1.611887
H   0.738338  -0.088076  -0.469333
H  -0.314896  -0.675769  -0.207616
