butane_opt
 OpenBabel08242015403D

 14  9  0  0  0  0  0  0  0  0999 V2000
   -4.0192    0.3241   -0.0737 C   0  0  0  0  0  1  0  0  0  0  0  0
   -2.7666   -0.6794    0.1108 C   0  0  0  0  0  0  0  0  0  0  0  0
   -4.9648   -0.1683    0.7007 H   0  0  0  0  0  0  0  0  0  0  0  0
   -4.2863    1.4391   -1.3408 H   0  0  0  0  0  0  0  0  0  0  0  0
   -3.8492    0.3640    0.2649 H   0  0  0  0  0  0  0  0  0  0  0  0
   -1.3432    0.1150    0.1014 C   0  0  0  0  0  0  0  0  0  0  0  0
   -2.5276   -1.2747   -0.7323 H   0  0  0  0  0  0  0  0  0  0  0  0
   -2.5823   -1.1627    0.8995 H   0  0  0  0  0  0  0  0  0  0  0  0
   -0.1431   -0.6565   -0.0611 C   0  0  0  0  0  0  0  0  0  0  0  0
   -0.8652    1.0645    1.2557 H   0  0  0  0  0  0  0  0  0  0  0  0
   -1.5241    0.5517   -0.5606 H   0  0  0  0  0  0  0  0  0  0  0  0
    0.0126   -1.0273    0.5752 H   0  0  0  0  0  0  0  0  0  0  0  0
    0.7572    0.0094    0.3098 H   0  0  0  0  0  0  0  0  0  0  0  0
    0.0363   -1.4998   -0.9047 H   0  0  0  0  0  0  0  0  0  0  0  0
  1  3  1  0  0  0  0
  2  5  1  0  0  0  0
  2  8  1  0  0  0  0
  7  2  1  0  0  0  0
  9  6  1  0  0  0  0
  9 13  1  0  0  0  0
  9 12  1  0  0  0  0
 11  6  1  0  0  0  0
 14  9  1  0  0  0  0
M  RAD  4   2   2   4   2   6   3  10   2
M  END
$$$$
