14
butane_opt
C  -3.971207   0.215837   0.110776
C  -2.746245  -0.579411  -0.043117
H  -4.775287  -0.254016  -0.210941
H  -4.075325   0.268594  -0.316147
H  -3.985143   1.339907   1.332362
C  -1.391285   0.254477  -0.199566
H  -2.877869  -1.446607  -0.847439
H  -2.514470  -1.281142   0.892568
C  -0.068512  -0.732508   0.131726
H  -1.395010   0.977698   0.682277
H  -1.507318   1.045401  -1.148227
H  -0.357776  -1.643449   1.249825
H   0.590648  -0.186637   0.445149
H   0.037847  -1.232671  -0.557998
