butane_opt
 OpenBabel08242015403D

 14 10  0  0  0  0  0  0  0  0999 V2000
   -3.9430    0.3223    0.1156 C   0  0  0  0  0  0  0  0  0  0  0  0
   -2.6358   -0.6656   -0.1106 C   0  0  0  0  0  0  0  0  0  0  0  0
   -4.9042   -0.3896    0.0394 H   0  0  0  0  0  0  0  0  0  0  0  0
   -3.9492    0.9102   -0.6862 H   0  0  0  0  0  0  0  0  0  0  0  0
   -3.9069    1.1398    1.0213 H   0  0  0  0  0  0  0  0  0  0  0  0
   -1.3644    0.0875    0.0153 C   0  0  0  0  0  0  0  0  0  0  0  0
   -2.9085   -1.2782   -1.1272 H   0  0  0  0  0  0  0  0  0  0  0  0
   -2.4070   -0.9744    0.5230 H   0  0  0  0  0  0  0  0  0  0  0  0
   -0.2243   -0.6343    0.1391 C   0  0  0  0  0  0  0  0  0  0  0  0
   -1.5235    0.5786    0.6438 H   0  0  0  0  0  0  0  0  0  0  0  0
   -1.1826    0.8969   -1.0278 H   0  0  0  0  0  0  0  0  0  0  0  0
   -0.3099   -1.7685    1.2769 H   0  0  0  0  0  0  0  0  0  0  0  0
    0.8046    0.0044   -0.5729 H   0  0  0  0  0  0  0  0  0  0  0  0
   -0.7083   -0.9190   -0.5287 H   0  0  0  0  0  0  0  0  0  0  0  0
  1  5  1  0  0  0  0
  2  1  1  0  0  0  0
  2  8  1  0  0  0  0
  3  1  1  0  0  0  0
  4  1  1  0  0  0  0
  6 10  1  0  0  0  0
  7  2  1  0  0  0  0
 11  6  1  0  0  0  0
 13  9  1  0  0  0  0
 14  9  1  0  0  0  0
M  RAD  4   2   2   6   3   9   3  12   2
M  END
$$$$
