butane_opt
 OpenBabel08242015403D

 14 10  0  0  0  0  0  0  0  0999 V2000
   -3.9759    0.1838    0.1403 C   0  0  0  0  0  0  0  0  0  0  0  0
   -2.7494   -0.5663   -0.0986 C   0  0  0  0  0  0  0  0  0  0  0  0
   -4.7090   -0.3531   -0.2215 H   0  0  0  0  0  0  0  0  0  0  0  0
   -3.8568    0.6626   -0.6998 H   0  0  0  0  0  0  0  0  0  0  0  0
   -4.0073    1.3406    1.1820 H   0  0  0  0  0  0  0  0  0  0  0  0
   -1.3802    0.2535   -0.0757 C   0  0  0  0  0  0  0  0  0  0  0  0
   -3.2702   -1.3346   -1.0301 H   0  0  0  0  0  0  0  0  0  0  0  0
   -2.6592   -1.2338    0.7883 H   0  0  0  0  0  0  0  0  0  0  0  0
   -0.0817   -0.7443    0.1007 C   0  0  0  0  0  0  0  0  0  0  0  0
   -1.6284    1.1684    0.7557 H   0  0  0  0  0  0  0  0  0  0  0  0
   -1.4313    0.8628   -0.9329 H   0  0  0  0  0  0  0  0  0  0  0  0
    0.1687   -2.0013    1.4995 H   0  0  0  0  0  0  0  0  0  0  0  0
    0.6525   -0.2441   -0.2608 H   0  0  0  0  0  0  0  0  0  0  0  0
   -0.0364   -0.8625   -0.3661 H   0  0  0  0  0  0  0  0  0  0  0  0
  2  6  1  0  0  0  0
  2  1  1  0  0  0  0
  2  8  1  0  0  0  0
  3  1  1  0  0  0  0
  4  1  1  0  0  0  0
  6  9  1  0  0  0  0
  6 10  1  0  0  0  0
  7  2  1  0  0  0  0
 11  6  1  0  0  0  0
 13  9  1  0  0  0  0
M  RAD  5   1   2   5   2   9   3  12   2  14   2
M  END
$$$$
