14
butane_opt
C  -3.935628   0.173741   0.038751
C  -2.652521  -0.502917  -0.043047
H  -4.835325  -0.457588  -0.210586
H  -3.712418   0.628790  -0.711928
H  -3.798897   1.100867   1.050758
C  -1.467051   0.218318   0.080155
H  -2.802070  -1.180951  -0.971975
H  -2.517422  -1.087885   0.808628
C  -0.170344  -0.759551   0.054689
H  -1.519669   0.799501   0.811425
H  -1.299599   0.794001  -0.919298
H   0.293650  -1.823915   1.176383
H   0.552139  -0.204450  -0.627210
H  -0.628756  -0.612087  -0.448172
