butane_opt
 OpenBabel08242015403D

 14  9  0  0  0  0  0  0  0  0999 V2000
   -3.8556    0.2207   -0.0958 C   0  0  0  0  0  0  0  0  0  0  0  0
   -2.7384   -0.5547    0.1807 C   0  0  0  0  0  0  0  0  0  0  0  0
   -4.6937   -0.4038   -0.0183 H   0  0  0  0  0  0  0  0  0  0  0  0
   -3.5335    1.0646   -1.1672 H   0  0  0  0  0  0  0  0  0  0  0  0
   -3.8181    0.4693    0.4208 H   0  0  0  0  0  0  0  0  0  0  0  0
   -1.4562    0.2419    0.1062 C   0  0  0  0  0  0  0  0  0  0  0  0
   -2.8857   -0.9162   -0.4718 H   0  0  0  0  0  0  0  0  0  0  0  0
   -2.9981   -1.4199    1.4295 H   0  0  0  0  0  0  0  0  0  0  0  0
   -0.1588   -0.7455   -0.1103 C   0  0  0  0  0  0  0  0  0  0  0  0
   -1.3849    1.2603    1.2111 H   0  0  0  0  0  0  0  0  0  0  0  0
   -1.7162    0.7051   -0.5916 H   0  0  0  0  0  0  0  0  0  0  0  0
   -0.1570   -1.0774    0.4814 H   0  0  0  0  0  0  0  0  0  0  0  0
    0.7169   -0.2751    0.4295 H   0  0  0  0  0  0  0  0  0  0  0  0
   -0.0681   -1.8482   -1.3198 H   0  0  0  0  0  0  0  0  0  0  0  0
  1  3  1  0  0  0  0
  1  2  1  0  0  0  0
  4  1  1  0  0  0  0
  6 10  1  0  0  0  0
  7  2  1  0  0  0  0
  9  6  1  0  0  0  0
  9 13  1  0  0  0  0
  9 12  1  0  0  0  0
 11  6  1  0  0  0  0
M  RAD  7   1   2   2   3   5   2   6   2   8   2   9   2  14   2
M  END
$$$$
