butane_opt
 OpenBabel08242015403D

 14 13  0  0  0  0  0  0  0  0999 V2000
   -3.9416    0.2558    0.0416 C   0  0  0  0  0  0  0  0  0  0  0  0
   -2.6992   -0.6115    0.0153 C   0  0  0  0  0  0  0  0  0  0  0  0
   -4.8766   -0.3631    0.0966 H   0  0  0  0  0  0  0  0  0  0  0  0
   -3.9819    0.8894   -0.8563 H   0  0  0  0  0  0  0  0  0  0  0  0
   -3.9249    0.9721    0.9045 H   0  0  0  0  0  0  0  0  0  0  0  0
   -1.4050    0.1903   -0.0269 C   0  0  0  0  0  0  0  0  0  0  0  0
   -2.7778   -1.2415   -0.8056 H   0  0  0  0  0  0  0  0  0  0  0  0
   -2.6539   -1.2507    0.9243 H   0  0  0  0  0  0  0  0  0  0  0  0
   -0.1498   -0.6992    0.0564 C   0  0  0  0  0  0  0  0  0  0  0  0
   -1.4601    0.8545    0.8130 H   0  0  0  0  0  0  0  0  0  0  0  0
   -1.4154    0.8064   -0.9281 H   0  0  0  0  0  0  0  0  0  0  0  0
   -0.2444   -1.2391    0.9245 H   0  0  0  0  0  0  0  0  0  0  0  0
    0.7518   -0.1025    0.1647 H   0  0  0  0  0  0  0  0  0  0  0  0
   -0.0849   -1.4303   -0.8451 H   0  0  0  0  0  0  0  0  0  0  0  0
  1  3  1  0  0  0  0
  1  5  1  0  0  0  0
  2  1  1  0  0  0  0
  2  8  1  0  0  0  0
  4  1  1  0  0  0  0
  6  2  1  0  0  0  0
  6  9  1  0  0  0  0
  6 10  1  0  0  0  0
  7  2  1  0  0  0  0
  9 13  1  0  0  0  0
  9 12  1  0  0  0  0
 11  6  1  0  0  0  0
 14  9  1  0  0  0  0
M  END
$$$$
