14
butane_opt
C  -3.961925   0.274106   0.052952
C  -2.696438  -0.631845  -0.011669
H  -4.875681  -0.313908   0.154783
H  -4.074312   0.923870  -0.848464
H  -3.896150   0.940579   0.915518
C  -1.392612   0.183270  -0.020487
H  -2.703621  -1.304124  -0.864680
H  -2.713272  -1.224280   0.856203
C  -0.164225  -0.693055   0.065816
H  -1.358909   0.832216   0.828761
H  -1.332018   0.803605  -0.919801
H  -0.167155  -1.348502   0.991607
H   0.788140  -0.070841   0.074656
H  -0.111527  -1.294729  -0.779797
