butane_opt
 OpenBabel08242015403D

 14 13  0  0  0  0  0  0  0  0999 V2000
   -3.9533    0.2688    0.0433 C   0  0  0  0  0  0  0  0  0  0  0  0
   -2.6966   -0.6341    0.0198 C   0  0  0  0  0  0  0  0  0  0  0  0
   -4.8307   -0.3056   -0.0827 H   0  0  0  0  0  0  0  0  0  0  0  0
   -4.0281    0.8077   -0.7679 H   0  0  0  0  0  0  0  0  0  0  0  0
   -4.0328    1.0361    0.9661 H   0  0  0  0  0  0  0  0  0  0  0  0
   -1.3928    0.1805   -0.0257 C   0  0  0  0  0  0  0  0  0  0  0  0
   -2.7217   -1.2775   -0.8357 H   0  0  0  0  0  0  0  0  0  0  0  0
   -2.7073   -1.2508    0.9170 H   0  0  0  0  0  0  0  0  0  0  0  0
   -0.1541   -0.6862    0.0581 C   0  0  0  0  0  0  0  0  0  0  0  0
   -1.4432    0.8721    0.8276 H   0  0  0  0  0  0  0  0  0  0  0  0
   -1.3638    0.8339   -0.9279 H   0  0  0  0  0  0  0  0  0  0  0  0
   -0.1257   -1.3473    0.9917 H   0  0  0  0  0  0  0  0  0  0  0  0
    0.7378   -0.0860   -0.0140 H   0  0  0  0  0  0  0  0  0  0  0  0
   -0.1425   -1.3095   -0.7731 H   0  0  0  0  0  0  0  0  0  0  0  0
  1  5  1  0  0  0  0
  2  1  1  0  0  0  0
  2  8  1  0  0  0  0
  3  1  1  0  0  0  0
  4  1  1  0  0  0  0
  6  2  1  0  0  0  0
  6  9  1  0  0  0  0
  6 10  1  0  0  0  0
  7  2  1  0  0  0  0
  9 12  1  0  0  0  0
 11  6  1  0  0  0  0
 13  9  1  0  0  0  0
 14  9  1  0  0  0  0
M  END
$$$$
