butane_opt
 OpenBabel08242015403D

 14 13  0  0  0  0  0  0  0  0999 V2000
   -3.9923    0.3344   -0.0768 C   0  0  0  0  0  0  0  0  0  0  0  0
   -2.7506   -0.7111    0.1730 C   0  0  0  0  0  0  0  0  0  0  0  0
   -4.8039   -0.0245   -0.4438 H   0  0  0  0  0  0  0  0  0  0  0  0
   -3.6915    0.7442   -0.7319 H   0  0  0  0  0  0  0  0  0  0  0  0
   -4.3461    1.2212    0.9068 H   0  0  0  0  0  0  0  0  0  0  0  0
   -1.3433    0.1080    0.0888 C   0  0  0  0  0  0  0  0  0  0  0  0
   -2.6724   -1.3663   -0.5460 H   0  0  0  0  0  0  0  0  0  0  0  0
   -2.6314   -1.2423    0.9169 H   0  0  0  0  0  0  0  0  0  0  0  0
   -0.1156   -0.6531   -0.0693 C   0  0  0  0  0  0  0  0  0  0  0  0
   -1.0863    0.7188    1.0294 H   0  0  0  0  0  0  0  0  0  0  0  0
   -1.5597    0.9254   -0.8759 H   0  0  0  0  0  0  0  0  0  0  0  0
   -0.4523   -1.2721    0.8093 H   0  0  0  0  0  0  0  0  0  0  0  0
    0.8201    0.0623   -0.1650 H   0  0  0  0  0  0  0  0  0  0  0  0
   -0.2156   -1.1692   -0.8244 H   0  0  0  0  0  0  0  0  0  0  0  0
  1  2  1  0  0  0  0
  1  5  1  0  0  0  0
  2  8  1  0  0  0  0
  3  1  1  0  0  0  0
  4  1  1  0  0  0  0
  6  2  1  0  0  0  0
  6 10  1  0  0  0  0
  7  2  1  0  0  0  0
  9  6  1  0  0  0  0
  9 12  1  0  0  0  0
 11  6  1  0  0  0  0
 13  9  1  0  0  0  0
 14  9  1  0  0  0  0
M  END
$$$$
