14
butane_opt
C  -3.865053   0.161790   0.156493
C  -2.717019  -0.534126  -0.113188
H  -4.757075  -0.480372   0.174335
H  -3.961551   0.978240  -0.839885
H  -3.889009   1.011534   0.989501
C  -1.437670   0.265529  -0.074051
H  -3.050323  -1.448242  -1.309464
H  -2.779580  -0.858294   0.485625
C  -0.127164  -0.746846   0.162815
H  -1.563997   0.929591   0.842695
H  -1.459576   0.911068  -1.016427
H   0.179437  -1.910690   1.388268
H   0.650849  -0.422715  -0.399400
H  -0.564499  -0.950124  -0.377663
