butane_opt
 OpenBabel08242015403D

 14 13  0  0  0  0  0  0  0  0999 V2000
   -3.8925    0.1990   -0.1079 C   0  0  0  0  0  0  0  0  0  0  0  0
   -2.7569   -0.5037    0.1620 C   0  0  0  0  0  0  0  0  0  0  0  0
   -4.8446   -0.2668   -0.1349 H   0  0  0  0  0  0  0  0  0  0  0  0
   -3.5917    0.8999   -1.0903 H   0  0  0  0  0  0  0  0  0  0  0  0
   -3.9085    0.7195    0.7181 H   0  0  0  0  0  0  0  0  0  0  0  0
   -1.4144    0.2195    0.1845 C   0  0  0  0  0  0  0  0  0  0  0  0
   -2.6851   -1.3308   -0.8601 H   0  0  0  0  0  0  0  0  0  0  0  0
   -2.7592   -1.1890    1.0305 H   0  0  0  0  0  0  0  0  0  0  0  0
   -0.1610   -0.7714   -0.0718 C   0  0  0  0  0  0  0  0  0  0  0  0
   -1.5574    1.0020    1.0231 H   0  0  0  0  0  0  0  0  0  0  0  0
   -1.3956    0.8811   -0.6308 H   0  0  0  0  0  0  0  0  0  0  0  0
    0.3385   -1.5971    0.8118 H   0  0  0  0  0  0  0  0  0  0  0  0
    0.8891   -0.0417   -0.4930 H   0  0  0  0  0  0  0  0  0  0  0  0
   -0.7982   -1.2582   -0.9187 H   0  0  0  0  0  0  0  0  0  0  0  0
  1  2  1  0  0  0  0
  1  5  1  0  0  0  0
  2  6  1  0  0  0  0
  2  8  1  0  0  0  0
  3  1  1  0  0  0  0
  4  1  1  0  0  0  0
  6 10  1  0  0  0  0
  7  2  1  0  0  0  0
  9  6  1  0  0  0  0
  9 12  1  0  0  0  0
 11  6  1  0  0  0  0
 13  9  1  0  0  0  0
 14  9  1  0  0  0  0
M  END
$$$$
