14
butane_opt
C  -3.893772   0.171178  -0.156281
C  -2.707136  -0.496773   0.226500
H  -4.824322  -0.223778  -0.403038
H  -3.829778   0.702036  -1.065504
H  -3.815202   1.017295   0.833446
C  -1.438268   0.179467   0.164839
H  -2.453403  -0.855483  -0.479787
H  -2.920296  -1.555131   1.314883
C  -0.176671  -0.733508  -0.112900
H  -1.286085   1.076365   1.080098
H  -1.779254   0.842263  -0.642184
H  -0.046143  -1.265708   0.656732
H   0.864424   0.009659  -0.132203
H  -0.335676  -1.679828  -1.185755
