14
butane_opt
C  -3.919680   0.219884   0.106424
C  -2.723530  -0.550412  -0.061349
H  -5.121465  -0.710448  -0.262425
H  -3.747031   0.584743  -0.483435
H  -3.767544   1.268132   1.295630
C  -1.459091   0.222588  -0.058936
H  -2.528120  -1.386694  -0.987942
H  -2.648593  -1.109755   0.656669
C  -0.144901  -0.747388   0.115639
H  -1.372804   0.711067   0.642040
H  -1.645498   1.272698  -1.195443
H   0.138935  -1.718884   1.299515
H   0.747361  -0.083000  -0.073448
H  -0.104620  -1.080863  -0.559379
