14
butane_opt
C  -4.065029   0.294288  -0.138781
C  -2.683257  -0.673033   0.305751
H  -4.847583  -0.121032  -0.616985
H  -3.788229   1.028852  -1.135008
H  -4.399962   1.158735   0.798353
C  -1.339362   0.129912   0.080173
H  -2.531838  -1.189962  -0.414421
H  -2.605684  -1.746198   1.418646
C  -0.142272  -0.619730  -0.129190
H  -1.281962   1.084813   1.127369
H  -1.282505   0.489716  -0.557330
H  -0.202225  -1.050651   0.433064
H   0.876609   0.040995   0.234180
H  -0.216254  -1.714498  -1.319919
