14
butane_opt
C  -4.014444   0.294258   0.092370
C  -2.740450  -0.645655  -0.014746
H  -4.844778  -0.162500   0.034659
H  -4.029828   0.789258  -0.658538
H  -4.120635   1.141483   0.984574
C  -1.349511   0.175549  -0.086386
H  -2.910535  -1.277101  -0.756614
H  -2.637858  -1.339845   0.987039
C  -0.118909  -0.732827   0.126437
H  -1.463445   0.444815   0.360682
H  -1.138469   1.044699  -1.100139
H  -0.435773  -0.715441   0.550102
H   1.064907   0.138212   0.533719
H   0.163083  -1.613210  -0.957328
