14
butane_opt
C  -3.983350   0.209249  -0.000395
C  -2.790882  -0.581463   0.021167
H  -4.907226  -0.489260   0.463356
H  -3.783833   1.214986  -1.189810
H  -3.924673   0.561878   0.743684
C  -1.363481   0.303340   0.016864
H  -2.936144  -0.976616  -0.469172
H  -2.446047  -1.300482   0.961051
C  -0.122169  -0.776073  -0.005564
H  -1.295118   1.131341   1.001425
H  -1.353379   0.720543  -0.715928
H  -0.171973  -1.102155   0.781403
H   0.659912  -0.367027   0.489943
H   0.279443  -1.754314  -1.093691
