14
butane_opt
C  -3.986028   0.277254   0.092272
C  -2.713876  -0.621439  -0.130848
H  -4.915506  -0.171182   0.913501
H  -4.596806   1.268595  -0.985110
H  -3.985127   0.855342   0.887527
C  -1.365642   0.127199  -0.035875
H  -2.634585  -1.684866  -1.248935
H  -2.636506  -1.179644   0.677971
C  -0.109961  -0.655128   0.157835
H  -1.270354   0.491713   0.799552
H  -1.390237   0.909450  -1.016279
H  -0.146295  -1.252870   1.116209
H   0.955361   0.139656   0.024104
H  -0.282195  -1.332465  -0.711991
