butane_opt
 OpenBabel08242015403D

 14 13  0  0  0  0  0  0  0  0999 V2000
   -3.9223    0.2223   -0.0176 C   0  0  0  0  0  0  0  0  0  0  0  0
   -2.6535   -0.5619    0.1247 C   0  0  0  0  0  0  0  0  0  0  0  0
   -4.8790   -0.4496   -0.6818 H   0  0  0  0  0  0  0  0  0  0  0  0
   -3.6499    0.5467   -0.8290 H   0  0  0  0  0  0  0  0  0  0  0  0
   -4.0375    1.0994    1.1745 H   0  0  0  0  0  0  0  0  0  0  0  0
   -1.4000    0.1956    0.0276 C   0  0  0  0  0  0  0  0  0  0  0  0
   -2.3945   -1.1725   -0.7066 H   0  0  0  0  0  0  0  0  0  0  0  0
   -2.9043   -1.2371    1.1560 H   0  0  0  0  0  0  0  0  0  0  0  0
   -0.2059   -0.7021   -0.0394 C   0  0  0  0  0  0  0  0  0  0  0  0
   -1.4604    0.9379    1.0358 H   0  0  0  0  0  0  0  0  0  0  0  0
   -1.6797    0.8773   -0.7825 H   0  0  0  0  0  0  0  0  0  0  0  0
   -0.1097   -1.5353    0.9147 H   0  0  0  0  0  0  0  0  0  0  0  0
    0.5152   -0.3167   -0.2006 H   0  0  0  0  0  0  0  0  0  0  0  0
   -0.2032   -1.0975   -0.7315 H   0  0  0  0  0  0  0  0  0  0  0  0
  1  2  1  0  0  0  0
  1  5  1  0  0  0  0
  2  8  1  0  0  0  0
  3  1  1  0  0  0  0
  4  1  1  0  0  0  0
  6  2  1  0  0  0  0
  6 10  1  0  0  0  0
  7  2  1  0  0  0  0
  9  6  1  0  0  0  0
  9 12  1  0  0  0  0
 11  6  1  0  0  0  0
 13  9  1  0  0  0  0
 14  9  1  0  0  0  0
M  END
$$$$
