butane_opt
 OpenBabel08242015403D

 14 13  0  0  0  0  0  0  0  0999 V2000
   -3.8505    0.2392   -0.1143 C   0  0  0  0  0  0  0  0  0  0  0  0
   -2.6795   -0.5732    0.1616 C   0  0  0  0  0  0  0  0  0  0  0  0
   -5.0623   -0.5327   -0.2896 H   0  0  0  0  0  0  0  0  0  0  0  0
   -3.5249    0.8995   -1.0943 H   0  0  0  0  0  0  0  0  0  0  0  0
   -3.8061    0.5999    0.4858 H   0  0  0  0  0  0  0  0  0  0  0  0
   -1.4609    0.2886    0.2361 C   0  0  0  0  0  0  0  0  0  0  0  0
   -2.8642   -1.2317   -0.7374 H   0  0  0  0  0  0  0  0  0  0  0  0
   -2.7675   -1.1426    1.0791 H   0  0  0  0  0  0  0  0  0  0  0  0
   -0.2354   -0.7497   -0.1119 C   0  0  0  0  0  0  0  0  0  0  0  0
   -1.3844    0.8051    1.1345 H   0  0  0  0  0  0  0  0  0  0  0  0
   -1.5803    0.8415   -0.5266 H   0  0  0  0  0  0  0  0  0  0  0  0
    0.4436   -1.6262    0.8140 H   0  0  0  0  0  0  0  0  0  0  0  0
    0.6212   -0.1639   -0.6430 H   0  0  0  0  0  0  0  0  0  0  0  0
   -0.4031   -1.3868   -0.8747 H   0  0  0  0  0  0  0  0  0  0  0  0
  1  2  1  0  0  0  0
  1  5  1  0  0  0  0
  2  6  1  0  0  0  0
  2  8  1  0  0  0  0
  3  1  1  0  0  0  0
  4  1  1  0  0  0  0
  6 10  1  0  0  0  0
  7  2  1  0  0  0  0
  9  6  1  0  0  0  0
  9 12  1  0  0  0  0
 11  6  1  0  0  0  0
 13  9  1  0  0  0  0
 14  9  1  0  0  0  0
M  END
$$$$
