butane_opt
 OpenBabel08242015403D

 14 10  0  0  0  0  0  0  0  0999 V2000
   -3.9638    0.2186   -0.0115 C   0  0  0  0  0  0  0  0  0  0  0  0
   -2.7592   -0.5555    0.1050 C   0  0  0  0  0  0  0  0  0  0  0  0
   -4.9595   -0.4918   -0.8377 H   0  0  0  0  0  0  0  0  0  0  0  0
   -3.8098    0.1914   -0.6093 H   0  0  0  0  0  0  0  0  0  0  0  0
   -3.9262    1.6261    1.2611 H   0  0  0  0  0  0  0  0  0  0  0  0
   -1.3586    0.2666   -0.0035 C   0  0  0  0  0  0  0  0  0  0  0  0
   -2.9452   -1.0354   -0.5610 H   0  0  0  0  0  0  0  0  0  0  0  0
   -2.8327   -1.4000    1.1432 H   0  0  0  0  0  0  0  0  0  0  0  0
   -0.1138   -0.8111    0.0097 C   0  0  0  0  0  0  0  0  0  0  0  0
   -1.4663    0.8014    0.7677 H   0  0  0  0  0  0  0  0  0  0  0  0
   -1.5559    1.0286   -0.9488 H   0  0  0  0  0  0  0  0  0  0  0  0
    0.0401   -1.3699    0.9631 H   0  0  0  0  0  0  0  0  0  0  0  0
    0.8611   -0.1448   -0.1254 H   0  0  0  0  0  0  0  0  0  0  0  0
   -0.0657   -1.1222   -0.7591 H   0  0  0  0  0  0  0  0  0  0  0  0
  1  2  1  0  0  0  0
  2  8  1  0  0  0  0
  3  1  1  0  0  0  0
  6  9  1  0  0  0  0
  6 10  1  0  0  0  0
  7  2  1  0  0  0  0
  9 12  1  0  0  0  0
 11  6  1  0  0  0  0
 13  9  1  0  0  0  0
 14  9  1  0  0  0  0
M  RAD  5   1   3   2   2   4   2   5   2   6   2
M  END
$$$$
