butane_opt
 OpenBabel08242015403D

 14 13  0  0  0  0  0  0  0  0999 V2000
   -3.9465    0.1961    0.1901 C   0  0  0  0  0  0  0  0  0  0  0  0
   -2.7476   -0.5247   -0.0188 C   0  0  0  0  0  0  0  0  0  0  0  0
   -5.0090   -0.4379    0.0477 H   0  0  0  0  0  0  0  0  0  0  0  0
   -4.1653    0.7902   -0.7310 H   0  0  0  0  0  0  0  0  0  0  0  0
   -3.9476    0.8764    0.9514 H   0  0  0  0  0  0  0  0  0  0  0  0
   -1.3839    0.2452   -0.2316 C   0  0  0  0  0  0  0  0  0  0  0  0
   -3.0769   -1.4577   -1.0672 H   0  0  0  0  0  0  0  0  0  0  0  0
   -2.9286   -0.8858    0.7775 H   0  0  0  0  0  0  0  0  0  0  0  0
   -0.0651   -0.7814    0.1792 C   0  0  0  0  0  0  0  0  0  0  0  0
   -1.4027    0.8059    0.4606 H   0  0  0  0  0  0  0  0  0  0  0  0
   -1.3315    1.1499   -1.2759 H   0  0  0  0  0  0  0  0  0  0  0  0
   -0.4668   -0.9349    0.7294 H   0  0  0  0  0  0  0  0  0  0  0  0
    0.6194   -0.3023    0.7995 H   0  0  0  0  0  0  0  0  0  0  0  0
    0.4819   -1.7749   -0.7219 H   0  0  0  0  0  0  0  0  0  0  0  0
  1  5  1  0  0  0  0
  2  1  1  0  0  0  0
  2  8  1  0  0  0  0
  3  1  1  0  0  0  0
  4  1  1  0  0  0  0
  6  2  1  0  0  0  0
  6  9  1  0  0  0  0
  6 10  1  0  0  0  0
  7  2  1  0  0  0  0
  9 12  1  0  0  0  0
  9 13  1  0  0  0  0
 11  6  1  0  0  0  0
 14  9  1  0  0  0  0
M  END
$$$$
