14
butane_opt
C  -3.914879   0.323492   0.106493
C  -2.688118  -0.687345  -0.085105
H  -4.921538  -0.309347   0.384652
H  -4.325683   0.927638  -0.802386
H  -3.909425   0.883122   1.013776
C  -1.385807   0.133073  -0.092561
H  -2.778144  -1.372819  -1.014315
H  -2.562580  -1.097043   0.706793
C  -0.154718  -0.656450   0.145174
H  -1.868975   0.686115   0.746603
H  -1.260052   0.860527  -1.008582
H  -0.099413  -1.166292   0.950349
H   0.857420  -0.062531   0.148434
H  -0.422922  -1.160022  -0.584292
