butane_opt
 OpenBabel08242015403D

 14 10  0  0  0  0  0  0  0  0999 V2000
   -3.9865    0.2157    0.1051 C   0  0  0  0  0  0  0  0  0  0  0  0
   -2.6882   -0.5349   -0.0193 C   0  0  0  0  0  0  0  0  0  0  0  0
   -5.1887   -0.6566   -0.0599 H   0  0  0  0  0  0  0  0  0  0  0  0
   -3.9652    0.8539   -0.8904 H   0  0  0  0  0  0  0  0  0  0  0  0
   -4.1205    0.8981    0.9021 H   0  0  0  0  0  0  0  0  0  0  0  0
   -1.3939    0.2292   -0.0189 C   0  0  0  0  0  0  0  0  0  0  0  0
   -2.8756   -1.4885   -1.1850 H   0  0  0  0  0  0  0  0  0  0  0  0
   -2.7172   -0.7650    0.4596 H   0  0  0  0  0  0  0  0  0  0  0  0
   -0.1012   -0.7284    0.1186 C   0  0  0  0  0  0  0  0  0  0  0  0
   -1.3414    0.8952    0.7445 H   0  0  0  0  0  0  0  0  0  0  0  0
   -1.3538    0.7828   -0.8101 H   0  0  0  0  0  0  0  0  0  0  0  0
    0.1756   -1.8505    1.1980 H   0  0  0  0  0  0  0  0  0  0  0  0
    0.6855   -0.3180   -0.7610 H   0  0  0  0  0  0  0  0  0  0  0  0
   -0.2045   -1.0360   -0.3420 H   0  0  0  0  0  0  0  0  0  0  0  0
  1  5  1  0  0  0  0
  2  6  1  0  0  0  0
  2  1  1  0  0  0  0
  3  1  1  0  0  0  0
  4  1  1  0  0  0  0
  6  9  1  0  0  0  0
  6 10  1  0  0  0  0
  7  2  1  0  0  0  0
 11  6  1  0  0  0  0
 13  9  1  0  0  0  0
M  RAD  5   2   2   8   2   9   3  12   2  14   2
M  END
$$$$
