14
butane_opt
C  -3.971600   0.229910  -0.143539
C  -2.762614  -0.641961   0.160348
H  -4.679221  -0.214299  -0.259169
H  -3.824724   1.243871  -1.229591
H  -3.946590   0.823666   0.554819
C  -1.423083   0.248711   0.287707
H  -2.644444  -1.376188  -0.713698
H  -2.847308  -1.441362   1.033814
C  -0.077368  -0.731217  -0.108856
H  -1.348837   1.029133   1.239348
H  -1.564728   0.866362  -0.560664
H   0.625580  -1.346186   0.829039
H   0.723616  -0.162870  -0.995988
H  -0.721228  -1.118744  -0.829968
