14
butane_opt
C  -3.938553   0.339381   0.132426
C  -2.715093  -0.647787  -0.080749
H  -4.787984  -0.025161  -0.262132
H  -3.783632   0.638215  -0.516984
H  -4.083481   1.101406   1.144566
C  -1.351802   0.048085  -0.072725
H  -2.712867  -1.621063  -1.117861
H  -2.691989  -0.893343   0.572749
C  -0.191501  -0.620238   0.161495
H  -1.538994   0.596302   0.792773
H  -1.403274   0.726301  -0.962952
H  -0.141127  -1.792714   1.398556
H   0.859837   0.136162  -0.850887
H  -0.455952  -0.714270  -0.383666
