14
butane_opt
C  -3.926548   0.327348   0.061847
C  -2.694673  -0.693695   0.045523
H  -4.776188  -0.322377  -0.265387
H  -3.914461   1.045045  -0.916807
H  -3.951469   1.197816   0.905649
C  -1.389485   0.119290   0.030811
H  -2.303863  -1.605769  -0.894570
H  -2.672794  -1.306012   0.863165
C  -0.230445  -0.619331   0.026268
H  -1.221851   0.667392   0.752839
H  -1.237955   0.922295  -1.085848
H  -0.364920  -1.274040   0.986874
H   0.647067  -0.143851  -0.056971
H  -0.331981  -1.241861  -0.801479
