butane_opt
 OpenBabel08242015403D

 14 12  0  0  0  0  0  0  0  0999 V2000
   -3.9080    0.2021   -0.1794 C   0  0  0  0  0  0  0  0  0  0  0  0
   -2.7340   -0.5096    0.2704 C   0  0  0  0  0  0  0  0  0  0  0  0
   -5.0500   -0.5285   -0.6529 H   0  0  0  0  0  0  0  0  0  0  0  0
   -3.4105    0.7211   -1.0060 H   0  0  0  0  0  0  0  0  0  0  0  0
   -3.7171    1.1064    0.8720 H   0  0  0  0  0  0  0  0  0  0  0  0
   -1.4559    0.2149    0.1938 C   0  0  0  0  0  0  0  0  0  0  0  0
   -2.4802   -0.9924   -0.2954 H   0  0  0  0  0  0  0  0  0  0  0  0
   -3.0633   -1.4322    1.5298 H   0  0  0  0  0  0  0  0  0  0  0  0
   -0.1581   -0.7676   -0.1887 C   0  0  0  0  0  0  0  0  0  0  0  0
   -1.3137    0.9918    1.0596 H   0  0  0  0  0  0  0  0  0  0  0  0
   -1.4263    0.8648   -0.6362 H   0  0  0  0  0  0  0  0  0  0  0  0
   -0.0600   -1.1429    0.5447 H   0  0  0  0  0  0  0  0  0  0  0  0
    0.6851   -0.2872   -0.0316 H   0  0  0  0  0  0  0  0  0  0  0  0
   -0.0946   -1.4996   -1.1251 H   0  0  0  0  0  0  0  0  0  0  0  0
  1  2  1  0  0  0  0
  1  5  1  0  0  0  0
  3  1  1  0  0  0  0
  4  1  1  0  0  0  0
  6  2  1  0  0  0  0
  6 10  1  0  0  0  0
  7  2  1  0  0  0  0
  9 13  1  0  0  0  0
  9  6  1  0  0  0  0
  9 12  1  0  0  0  0
 11  6  1  0  0  0  0
 14  9  1  0  0  0  0
M  RAD  2   2   2   8   2
M  END
$$$$
