14
butane_opt
C  -3.868915   0.230143  -0.094313
C  -2.708847  -0.595257   0.160725
H  -4.796599  -0.393887   0.175432
H  -3.808402   1.105459  -1.193998
H  -3.828924   0.591560   0.451473
C  -1.434447   0.195305   0.197914
H  -2.613758  -1.392406  -0.811463
H  -2.745964  -0.866375   0.719110
C  -0.237317  -0.696107  -0.094248
H  -1.370827   1.018099   1.094345
H  -1.672727   0.844949  -0.630664
H   0.131330  -1.458154   0.872206
H   0.620447  -0.329781  -0.526773
H   0.027716  -1.202640  -0.768557
