butane_opt
 OpenBabel08242015403D

 14 11  0  0  0  0  0  0  0  0999 V2000
   -3.8730    0.2205    0.1688 C   0  0  0  0  0  0  0  0  0  0  0  0
   -2.6881   -0.5759   -0.2284 C   0  0  0  0  0  0  0  0  0  0  0  0
   -5.1194   -0.6120    0.8606 H   0  0  0  0  0  0  0  0  0  0  0  0
   -3.9876    1.2950   -0.9679 H   0  0  0  0  0  0  0  0  0  0  0  0
   -3.3543    0.6944    0.8520 H   0  0  0  0  0  0  0  0  0  0  0  0
   -1.4453    0.2623   -0.0546 C   0  0  0  0  0  0  0  0  0  0  0  0
   -2.9965   -1.4611   -1.1223 H   0  0  0  0  0  0  0  0  0  0  0  0
   -2.7167   -1.1043    0.6437 H   0  0  0  0  0  0  0  0  0  0  0  0
   -0.2122   -0.7535    0.1779 C   0  0  0  0  0  0  0  0  0  0  0  0
   -1.5137    0.8818    0.7646 H   0  0  0  0  0  0  0  0  0  0  0  0
   -1.3329    1.0572   -1.0640 H   0  0  0  0  0  0  0  0  0  0  0  0
    0.0230   -1.4414    1.1547 H   0  0  0  0  0  0  0  0  0  0  0  0
    0.5745   -0.2712    0.0077 H   0  0  0  0  0  0  0  0  0  0  0  0
    0.0302   -1.3659   -0.4791 H   0  0  0  0  0  0  0  0  0  0  0  0
  1  5  1  0  0  0  0
  2  6  1  0  0  0  0
  2  1  1  0  0  0  0
  2  8  1  0  0  0  0
  6  9  1  0  0  0  0
  6 10  1  0  0  0  0
  7  2  1  0  0  0  0
  9 12  1  0  0  0  0
 11  6  1  0  0  0  0
 13  9  1  0  0  0  0
 14  9  1  0  0  0  0
M  RAD  3   1   3   3   2   4   2
M  END
$$$$
