butane_opt
 OpenBabel08242015403D

 14  9  0  0  0  0  0  0  0  0999 V2000
   -4.0128    0.3064    0.1861 C   0  0  0  0  0  0  0  0  0  0  0  0
   -2.6528   -0.7318   -0.1723 C   0  0  0  0  0  0  0  0  0  0  0  0
   -4.6025   -0.1439    0.8107 H   0  0  0  0  0  0  0  0  0  0  0  0
   -4.6545    1.4442   -0.9598 H   0  0  0  0  0  0  0  0  0  0  0  0
   -3.8498    0.7786    0.8706 H   0  0  0  0  0  0  0  0  0  0  0  0
   -1.3818    0.1725   -0.1180 C   0  0  0  0  0  0  0  0  0  0  0  0
   -2.9013   -1.8058   -1.2292 H   0  0  0  0  0  0  0  0  0  0  0  0
   -2.5274   -0.8712    0.3850 H   0  0  0  0  0  0  0  0  0  0  0  0
   -0.1631   -0.6700    0.1628 C   0  0  0  0  0  0  0  0  0  0  0  0
   -1.4129    0.7131    0.6143 H   0  0  0  0  0  0  0  0  0  0  0  0
   -1.1057    0.7439   -0.9504 H   0  0  0  0  0  0  0  0  0  0  0  0
   -0.3255   -1.3523    1.2301 H   0  0  0  0  0  0  0  0  0  0  0  0
    0.9533    0.1299    0.2736 H   0  0  0  0  0  0  0  0  0  0  0  0
   -0.0798   -0.9548   -0.3244 H   0  0  0  0  0  0  0  0  0  0  0  0
  1  3  1  0  0  0  0
  1  5  1  0  0  0  0
  2  6  1  0  0  0  0
  2  1  1  0  0  0  0
  6  9  1  0  0  0  0
  6 10  1  0  0  0  0
  9 13  1  0  0  0  0
  9 12  1  0  0  0  0
 11  6  1  0  0  0  0
M  RAD  7   1   2   2   3   4   2   7   2   8   2   9   2  14   2
M  END
$$$$
