14
butane_opt
C  -4.004820   0.338439   0.154812
C  -2.761400  -0.680625  -0.109111
H  -4.837413  -0.128004   0.021251
H  -3.863468   0.863197  -0.766783
H  -4.329772   1.066817   1.130201
C  -1.332483   0.123364  -0.074888
H  -2.783929  -1.711025  -1.020853
H  -2.498990  -1.090863   0.587729
C  -0.143603  -0.685823   0.124549
H  -1.404903   0.769292   0.784370
H  -1.161492   0.801923  -1.035478
H  -0.033402  -1.531926   1.226639
H   0.970665   0.091709  -0.304697
H  -0.212650  -0.673099  -0.266399
