14
butane_opt
C  -3.923920   0.253325   0.001692
C  -2.697554  -0.607593   0.039709
H  -4.857713  -0.382955   0.161494
H  -4.023407   0.982447  -0.980533
H  -3.914350   0.817283   0.800321
C  -1.411651   0.204499   0.045069
H  -2.682316  -1.294794  -0.807300
H  -2.775610  -1.232338   0.930865
C  -0.162435  -0.708497   0.018715
H  -1.406731   0.911261   0.914408
H  -1.445802   0.852467  -0.832707
H  -0.131558  -1.310849   0.872303
H   0.734540  -0.118689  -0.034234
H  -0.159811  -1.399683  -0.858427
