14
butane_opt
C  -3.937033   0.255866   0.015335
C  -2.704922  -0.605605   0.048417
H  -4.831557  -0.319899  -0.101461
H  -3.915484   0.734022  -0.806087
H  -3.989994   1.044150   0.942964
C  -1.412532   0.193098  -0.000505
H  -2.705702  -1.289308  -0.788781
H  -2.693940  -1.298030   0.969053
C  -0.163549  -0.697298   0.034079
H  -1.377481   0.875901   0.848925
H  -1.409609   0.832737  -0.915353
H  -0.055088  -1.348927   0.952137
H   0.714782  -0.110346  -0.006261
H  -0.146943  -1.344955  -0.803916
