14
butane_opt
C  -3.957211   0.205632  -0.089096
C  -2.811327  -0.544684   0.140766
H  -4.784634  -0.271374   0.449778
H  -4.148570   1.351632  -1.201809
H  -3.536529   0.490361   0.426948
C  -1.390778   0.234418   0.132321
H  -2.603877  -1.246941  -0.789526
H  -3.097467  -1.111708   0.980811
C  -0.069113  -0.741786  -0.050363
H  -1.418517   0.718633   0.961291
H  -1.505699   0.726808  -0.699237
H   0.102975  -0.939241   0.589144
H   0.801197  -0.215985   0.155055
H  -0.111381  -1.790830  -1.110578
