14
butane_opt
C  -3.943957   0.231729  -0.144829
C  -2.757514  -0.603044   0.135386
H  -5.076447  -0.567481   0.396726
H  -4.294256   1.244032  -1.231930
H  -3.693970   0.338635   0.415453
C  -1.415047   0.326088   0.207749
H  -2.381538  -1.292801  -0.502772
H  -3.114713  -1.224407   1.081762
C  -0.082707  -0.726024  -0.095127
H  -1.405101   1.103069   1.111238
H  -1.614544   0.662723  -0.441565
H   0.384776  -1.370187   0.650346
H   0.650315  -0.387856  -0.305005
H  -0.069298  -1.726850  -1.036303
