14
butane_opt
C  -3.907971   0.202095  -0.179412
C  -2.733984  -0.509555   0.270363
H  -5.049965  -0.528519  -0.652924
H  -3.410537   0.721061  -1.006037
H  -3.717101   1.106399   0.872011
C  -1.455912   0.214882   0.193832
H  -2.480202  -0.992424  -0.295396
H  -3.063285  -1.432244   1.529752
C  -0.158060  -0.767609  -0.188653
H  -1.313703   0.991821   1.059645
H  -1.426256   0.864835  -0.636167
H  -0.060046  -1.142878   0.544655
H   0.685138  -0.287206  -0.031594
H  -0.094629  -1.499626  -1.125112
