butane_opt
 OpenBabel08242015403D

 14 12  0  0  0  0  0  0  0  0999 V2000
   -3.8805    0.2734   -0.0832 C   0  0  0  0  0  0  0  0  0  0  0  0
   -2.6752   -0.6110    0.0999 C   0  0  0  0  0  0  0  0  0  0  0  0
   -4.8559   -0.2601   -0.1675 H   0  0  0  0  0  0  0  0  0  0  0  0
   -3.9727    1.0898   -1.0502 H   0  0  0  0  0  0  0  0  0  0  0  0
   -4.2934    0.9074    0.6698 H   0  0  0  0  0  0  0  0  0  0  0  0
   -1.3758    0.1572    0.2304 C   0  0  0  0  0  0  0  0  0  0  0  0
   -2.7000   -1.4141   -0.9593 H   0  0  0  0  0  0  0  0  0  0  0  0
   -2.9775   -1.3078    1.0139 H   0  0  0  0  0  0  0  0  0  0  0  0
   -0.2141   -0.6852   -0.0594 C   0  0  0  0  0  0  0  0  0  0  0  0
   -1.1701    0.8105    1.0711 H   0  0  0  0  0  0  0  0  0  0  0  0
   -1.5677    0.7407   -0.6940 H   0  0  0  0  0  0  0  0  0  0  0  0
    0.4118   -1.6645    1.0133 H   0  0  0  0  0  0  0  0  0  0  0  0
    0.7820   -0.0834   -0.7422 H   0  0  0  0  0  0  0  0  0  0  0  0
   -0.9078   -0.8847   -0.8839 H   0  0  0  0  0  0  0  0  0  0  0  0
  1  2  1  0  0  0  0
  1  5  1  0  0  0  0
  2  6  1  0  0  0  0
  2  8  1  0  0  0  0
  3  1  1  0  0  0  0
  4  1  1  0  0  0  0
  6 10  1  0  0  0  0
  7  2  1  0  0  0  0
  9  6  1  0  0  0  0
 11  6  1  0  0  0  0
 13  9  1  0  0  0  0
 14  9  1  0  0  0  0
M  RAD  2   9   2  12   2
M  END
$$$$
