butane_opt
 OpenBabel08242015403D

 14 13  0  0  0  0  0  0  0  0999 V2000
   -4.0558    0.3404   -0.1064 C   0  0  0  0  0  0  0  0  0  0  0  0
   -2.7010   -0.7156    0.2017 C   0  0  0  0  0  0  0  0  0  0  0  0
   -5.0171   -0.2289   -0.4780 H   0  0  0  0  0  0  0  0  0  0  0  0
   -3.7655    0.5972   -0.8281 H   0  0  0  0  0  0  0  0  0  0  0  0
   -4.4772    1.3609    0.7685 H   0  0  0  0  0  0  0  0  0  0  0  0
   -1.3573    0.1039    0.1136 C   0  0  0  0  0  0  0  0  0  0  0  0
   -2.5887   -1.1587   -0.5378 H   0  0  0  0  0  0  0  0  0  0  0  0
   -2.4976   -1.5531    1.3650 H   0  0  0  0  0  0  0  0  0  0  0  0
   -0.1276   -0.6447   -0.1250 C   0  0  0  0  0  0  0  0  0  0  0  0
   -1.0682    0.9489    1.1074 H   0  0  0  0  0  0  0  0  0  0  0  0
   -1.4798    0.8315   -0.8184 H   0  0  0  0  0  0  0  0  0  0  0  0
   -0.1212   -1.1674    0.7177 H   0  0  0  0  0  0  0  0  0  0  0  0
    0.9231    0.0821    0.0866 H   0  0  0  0  0  0  0  0  0  0  0  0
   -0.0530   -1.2153   -0.9071 H   0  0  0  0  0  0  0  0  0  0  0  0
  1  2  1  0  0  0  0
  1  5  1  0  0  0  0
  2  8  1  0  0  0  0
  3  1  1  0  0  0  0
  4  1  1  0  0  0  0
  6  2  1  0  0  0  0
  6 10  1  0  0  0  0
  7  2  1  0  0  0  0
  9 13  1  0  0  0  0
  9  6  1  0  0  0  0
  9 12  1  0  0  0  0
 11  6  1  0  0  0  0
 14  9  1  0  0  0  0
M  END
$$$$
