14
butane_opt
C  -4.005357   0.351284   0.099419
C  -2.755834  -0.702656  -0.064688
H  -4.757156  -0.218242  -0.098482
H  -4.236489   0.637983  -0.543902
H  -3.891552   1.389653   1.139220
C  -1.346846   0.114858  -0.055379
H  -2.582782  -1.593713  -1.125270
H  -2.561522  -1.048294   0.514475
C  -0.161251  -0.659674   0.104632
H  -1.407916   0.877396   0.833696
H  -1.175439   0.545638  -0.874986
H  -0.015270  -2.095757   1.556659
H   1.038654   0.295082  -0.670368
H  -0.273072  -0.431333  -0.186646
