butane_opt
 OpenBabel08242015403D

 14 13  0  0  0  0  0  0  0  0999 V2000
   -3.9464    0.2554   -0.0118 C   0  0  0  0  0  0  0  0  0  0  0  0
   -2.7066   -0.6142    0.0672 C   0  0  0  0  0  0  0  0  0  0  0  0
   -4.8681   -0.3699    0.0083 H   0  0  0  0  0  0  0  0  0  0  0  0
   -3.9344    0.8950   -0.9512 H   0  0  0  0  0  0  0  0  0  0  0  0
   -4.0290    0.9354    0.8422 H   0  0  0  0  0  0  0  0  0  0  0  0
   -1.4128    0.2029    0.0531 C   0  0  0  0  0  0  0  0  0  0  0  0
   -2.6777   -1.2840   -0.7864 H   0  0  0  0  0  0  0  0  0  0  0  0
   -2.7548   -1.2157    0.9433 H   0  0  0  0  0  0  0  0  0  0  0  0
   -0.1435   -0.6975    0.0048 C   0  0  0  0  0  0  0  0  0  0  0  0
   -1.3753    0.8607    0.9131 H   0  0  0  0  0  0  0  0  0  0  0  0
   -1.3646    0.8045   -0.8130 H   0  0  0  0  0  0  0  0  0  0  0  0
   -0.0052   -1.3620    0.9040 H   0  0  0  0  0  0  0  0  0  0  0  0
    0.7093   -0.1527   -0.1358 H   0  0  0  0  0  0  0  0  0  0  0  0
   -0.2007   -1.3461   -0.8393 H   0  0  0  0  0  0  0  0  0  0  0  0
  1  3  1  0  0  0  0
  1  2  1  0  0  0  0
  1  5  1  0  0  0  0
  2  8  1  0  0  0  0
  4  1  1  0  0  0  0
  6  2  1  0  0  0  0
  6 10  1  0  0  0  0
  7  2  1  0  0  0  0
  9  6  1  0  0  0  0
  9 12  1  0  0  0  0
 11  6  1  0  0  0  0
 13  9  1  0  0  0  0
 14  9  1  0  0  0  0
M  END
$$$$
