butane_opt
 OpenBabel08242015403D

 14 11  0  0  0  0  0  0  0  0999 V2000
   -3.9795    0.3263    0.1039 C   0  0  0  0  0  1  0  0  0  0  0  0
   -2.6898   -0.6497    0.0049 C   0  0  0  0  0  0  0  0  0  0  0  0
   -4.8276   -0.2001   -0.6085 H   0  0  0  0  0  0  0  0  0  0  0  0
   -3.8566    0.0363   -0.1833 H   0  0  0  0  0  0  0  0  0  0  0  0
   -4.4274    1.6439    1.4189 H   0  0  0  0  0  0  0  0  0  0  0  0
   -1.4186    0.0827   -0.1855 C   0  0  0  0  0  0  0  0  0  0  0  0
   -2.7296   -1.2598   -0.8696 H   0  0  0  0  0  0  0  0  0  0  0  0
   -2.8117   -1.3133    1.0259 H   0  0  0  0  0  0  0  0  0  0  0  0
   -0.1070   -0.6161    0.1445 C   0  0  0  0  0  0  0  0  0  0  0  0
   -1.2959    0.7711    0.5760 H   0  0  0  0  0  0  0  0  0  0  0  0
   -1.4107    0.7426   -1.1483 H   0  0  0  0  0  0  0  0  0  0  0  0
   -0.3567   -1.4968    1.2006 H   0  0  0  0  0  0  0  0  0  0  0  0
    0.9794   -0.0520   -0.0352 H   0  0  0  0  0  0  0  0  0  0  0  0
    0.0207   -1.0618   -0.6252 H   0  0  0  0  0  0  0  0  0  0  0  0
  2  8  1  0  0  0  0
  3  1  1  0  0  0  0
  4  2  1  0  0  0  0
  6  2  1  0  0  0  0
  6  9  1  0  0  0  0
  6 10  1  0  0  0  0
  7  2  1  0  0  0  0
  9 12  1  0  0  0  0
 11  6  1  0  0  0  0
 13  9  1  0  0  0  0
 14  9  1  0  0  0  0
M  RAD  1   5   2
M  END
$$$$
