14
butane_opt
C  -4.003300   0.218512  -0.143677
C  -2.709689  -0.624697   0.240522
H  -4.877061  -0.382643  -0.347698
H  -3.826541   0.767444  -1.120966
H  -4.208642   1.139404   0.782564
C  -1.383023   0.310785   0.180789
H  -2.207746  -1.397579  -0.692342
H  -3.037280  -1.403564   1.225059
C  -0.120951  -0.710528  -0.116313
H  -1.252126   0.853746   1.111856
H  -1.545530   0.895579  -0.714409
H   0.358233  -1.444710   0.826919
H   0.677031  -0.376186  -0.344012
H  -0.464170  -1.450242  -1.151623
