14
butane_opt
C  -3.933675   0.265294   0.039621
C  -2.696206  -0.623609   0.021741
H  -4.810118  -0.284603  -0.004832
H  -3.963703   0.833878  -0.826796
H  -3.948788   1.031052   0.964741
C  -1.412729   0.175779  -0.013758
H  -2.726865  -1.336231  -0.864305
H  -2.663824  -1.236687   0.899768
C  -0.170779  -0.683601   0.057452
H  -1.456346   0.793910   0.758876
H  -1.352933   0.849554  -0.944911
H  -0.126938  -1.313673   0.980035
H   0.756072  -0.072513   0.038552
H  -0.177092  -1.337266  -0.813645
