14
butane_opt
C  -3.995031   0.340731  -0.107458
C  -2.677318  -0.685969   0.152354
H  -4.804361  -0.196542   0.559408
H  -4.193191   1.717983  -1.418885
H  -4.186303   0.151577   0.073608
C  -1.406523   0.117066   0.205859
H  -2.632867  -1.360112  -0.754409
H  -2.662853  -1.347192   1.007090
C  -0.137887  -0.633155  -0.118606
H  -1.265523   0.986751   1.357751
H  -1.216703   0.357276  -0.453108
H  -0.249607  -0.900003   0.644075
H   1.037539   0.122354  -0.205076
H  -0.282168  -1.602784  -1.107176
