14
butane_opt
C  -3.842789   0.199865   0.168229
C  -2.754952  -0.549117  -0.142205
H  -4.754148  -0.392166   0.168900
H  -3.798724   0.280952  -0.425801
H  -3.517669   1.475865   1.426961
C  -1.476364   0.284248  -0.188489
H  -2.931914  -1.111863  -0.856354
H  -2.773735  -1.330211   0.756361
C  -0.145876  -0.770598   0.182734
H  -1.631045   0.668245   0.295783
H  -1.371870   0.982373  -1.233635
H  -0.501173  -1.477126   1.155505
H   0.628631  -0.144526   0.513843
H   0.264400  -1.399594  -0.521818
