butane_opt
 OpenBabel08242015403D

 14 11  0  0  0  0  0  0  0  0999 V2000
   -3.8864    0.2886    0.1114 C   0  0  0  0  0  1  0  0  0  0  0  0
   -2.6809   -0.6454    0.0042 C   0  0  0  0  0  0  0  0  0  0  0  0
   -4.7688   -0.1577   -0.4137 H   0  0  0  0  0  0  0  0  0  0  0  0
   -3.7431    0.2703   -0.4423 H   0  0  0  0  0  0  0  0  0  0  0  0
   -4.3916    1.6040    1.4116 H   0  0  0  0  0  0  0  0  0  0  0  0
   -1.4383    0.1047   -0.2174 C   0  0  0  0  0  0  0  0  0  0  0  0
   -2.6758   -1.2227   -0.7731 H   0  0  0  0  0  0  0  0  0  0  0  0
   -2.5627   -1.3467    0.9584 H   0  0  0  0  0  0  0  0  0  0  0  0
   -0.2049   -0.6380    0.1410 C   0  0  0  0  0  0  0  0  0  0  0  0
   -1.6373    0.8067    0.6162 H   0  0  0  0  0  0  0  0  0  0  0  0
   -1.3909    0.6704   -0.9425 H   0  0  0  0  0  0  0  0  0  0  0  0
   -0.2342   -1.3710    1.1789 H   0  0  0  0  0  0  0  0  0  0  0  0
    0.8831    0.2402    0.1321 H   0  0  0  0  0  0  0  0  0  0  0  0
   -0.0228   -1.2734   -0.6789 H   0  0  0  0  0  0  0  0  0  0  0  0
  2  8  1  0  0  0  0
  3  1  1  0  0  0  0
  4  2  1  0  0  0  0
  6  2  1  0  0  0  0
  6  9  1  0  0  0  0
  6 10  1  0  0  0  0
  7  2  1  0  0  0  0
  9 12  1  0  0  0  0
 11  6  1  0  0  0  0
 13  9  1  0  0  0  0
 14  9  1  0  0  0  0
M  RAD  1   5   2
M  END
$$$$
