14
butane_opt
C  -3.973100   0.333235  -0.071623
C  -2.706519  -0.723762   0.009814
H  -4.833434  -0.272652   0.809520
H  -4.387730   1.535743  -1.220201
H  -3.814416   0.779144   0.640169
C  -1.334534   0.116531   0.124281
H  -2.486672  -1.175512  -0.749237
H  -2.858992  -1.571553   1.092490
C  -0.161106  -0.606453  -0.033674
H  -1.203351   0.959766   1.159967
H  -1.473122   0.613898  -0.620400
H  -0.248524  -1.117873   0.805586
H   0.736542  -0.120814   0.102142
H  -0.347130  -1.513463  -0.950801
