butane_opt
 OpenBabel08242015403D

 14 13  0  0  0  0  0  0  0  0999 V2000
   -3.9840    0.3415   -0.1795 C   0  0  0  0  0  0  0  0  0  0  0  0
   -2.6759   -0.7399    0.2163 C   0  0  0  0  0  0  0  0  0  0  0  0
   -4.8020   -0.1854   -0.2682 H   0  0  0  0  0  0  0  0  0  0  0  0
   -4.1256    0.9479   -1.1612 H   0  0  0  0  0  0  0  0  0  0  0  0
   -4.4704    0.9124    0.6465 H   0  0  0  0  0  0  0  0  0  0  0  0
   -1.3453    0.1495    0.2954 C   0  0  0  0  0  0  0  0  0  0  0  0
   -2.3452   -1.4064   -0.5009 H   0  0  0  0  0  0  0  0  0  0  0  0
   -2.9209   -1.4332    1.0772 H   0  0  0  0  0  0  0  0  0  0  0  0
   -0.1594   -0.6523   -0.1634 C   0  0  0  0  0  0  0  0  0  0  0  0
   -1.1310    0.9853    1.2352 H   0  0  0  0  0  0  0  0  0  0  0  0
   -1.6910    0.9379   -0.7769 H   0  0  0  0  0  0  0  0  0  0  0  0
    0.1233   -1.2256    0.8133 H   0  0  0  0  0  0  0  0  0  0  0  0
    0.8443    0.0579   -0.6923 H   0  0  0  0  0  0  0  0  0  0  0  0
   -0.5430   -1.2207   -0.9374 H   0  0  0  0  0  0  0  0  0  0  0  0
  1  2  1  0  0  0  0
  1  5  1  0  0  0  0
  2  6  1  0  0  0  0
  2  8  1  0  0  0  0
  3  1  1  0  0  0  0
  4  1  1  0  0  0  0
  6 10  1  0  0  0  0
  7  2  1  0  0  0  0
  9  6  1  0  0  0  0
  9 12  1  0  0  0  0
 11  6  1  0  0  0  0
 13  9  1  0  0  0  0
 14  9  1  0  0  0  0
M  END
$$$$
