butane_opt
 OpenBabel08242015403D

 14 11  0  0  0  0  0  0  0  0999 V2000
   -3.9990    0.3008   -0.0596 C   0  0  0  0  0  0  0  0  0  0  0  0
   -2.6290   -0.6409    0.0436 C   0  0  0  0  0  0  0  0  0  0  0  0
   -4.9084   -0.3095    0.7263 H   0  0  0  0  0  0  0  0  0  0  0  0
   -4.1495    1.4085   -1.1736 H   0  0  0  0  0  0  0  0  0  0  0  0
   -3.9663    0.5542    0.5613 H   0  0  0  0  0  0  0  0  0  0  0  0
   -1.3570    0.0851    0.1088 C   0  0  0  0  0  0  0  0  0  0  0  0
   -2.5929   -1.2290   -0.6907 H   0  0  0  0  0  0  0  0  0  0  0  0
   -2.5413   -1.3502    1.0417 H   0  0  0  0  0  0  0  0  0  0  0  0
   -0.2340   -0.6252   -0.0054 C   0  0  0  0  0  0  0  0  0  0  0  0
   -1.4765    0.7304    1.0478 H   0  0  0  0  0  0  0  0  0  0  0  0
   -1.3169    0.8306   -0.8489 H   0  0  0  0  0  0  0  0  0  0  0  0
   -0.0976   -0.9202    0.5862 H   0  0  0  0  0  0  0  0  0  0  0  0
    0.7501    0.2152    0.2938 H   0  0  0  0  0  0  0  0  0  0  0  0
   -0.1394   -1.8212   -1.2431 H   0  0  0  0  0  0  0  0  0  0  0  0
  1  2  1  0  0  0  0
  1  5  1  0  0  0  0
  1  3  1  0  0  0  0
  2  6  1  0  0  0  0
  2  8  1  0  0  0  0
  6 10  1  0  0  0  0
  7  2  1  0  0  0  0
  9  6  1  0  0  0  0
  9 13  1  0  0  0  0
  9 12  1  0  0  0  0
 11  6  1  0  0  0  0
M  RAD  4   1   2   4   2   9   2  14   2
M  END
$$$$
