14
butane_opt
C  -3.931829   0.282211  -0.066027
C  -2.678133  -0.568779   0.193264
H  -5.047515  -0.349369   0.177834
H  -3.820321   1.262622  -1.240289
H  -4.161560   0.328320   0.386667
C  -1.395902   0.090089   0.070423
H  -2.461290  -1.253547  -0.535868
H  -2.753894  -1.363017   1.347386
C  -0.192907  -0.646635  -0.084156
H  -1.394943   0.943472   1.003246
H  -1.539258   0.809436  -0.799963
H  -0.313029  -0.585425   0.333552
H   0.752733  -0.046543   0.795401
H   0.091259  -2.137822  -1.502699
