butane_opt
 OpenBabel08242015403D

 14  9  0  0  0  0  0  0  0  0999 V2000
   -3.9301    0.3033   -0.0964 C   0  0  0  0  0  0  0  0  0  0  0  0
   -2.6214   -0.6064    0.1289 C   0  0  0  0  0  0  0  0  0  0  0  0
   -4.8611   -0.3988    0.3139 H   0  0  0  0  0  0  0  0  0  0  0  0
   -4.2100    1.8297   -1.4844 H   0  0  0  0  0  0  0  0  0  0  0  0
   -4.0223    0.2870    0.2593 H   0  0  0  0  0  0  0  0  0  0  0  0
   -1.4109    0.0740    0.1833 C   0  0  0  0  0  1  0  0  0  0  0  0
   -2.4989   -1.2475   -0.6826 H   0  0  0  0  0  0  0  0  0  0  0  0
   -2.6670   -1.4300    1.2216 H   0  0  0  0  0  0  0  0  0  0  0  0
   -0.2412   -0.6359   -0.1258 C   0  0  0  0  0  0  0  0  0  0  0  0
   -1.1516    1.0956    1.4256 H   0  0  0  0  0  0  0  0  0  0  0  0
   -1.2622    0.2433   -0.2630 H   0  0  0  0  0  0  0  0  0  0  0  0
   -0.2980   -1.1227    0.6133 H   0  0  0  0  0  0  0  0  0  0  0  0
    0.9305    0.1203   -0.1244 H   0  0  0  0  0  0  0  0  0  0  0  0
   -0.5089   -1.4251   -1.0515 H   0  0  0  0  0  0  0  0  0  0  0  0
  1  2  1  0  0  0  0
  1  3  1  0  0  0  0
  2  6  1  0  0  0  0
  2  8  1  0  0  0  0
  7  2  1  0  0  0  0
  9 13  1  0  0  0  0
  9 12  1  0  0  0  0
 11  9  1  0  0  0  0
 14  9  1  0  0  0  0
M  RAD  4   1   3   4   2   5   2  10   2
M  END
$$$$
