butane_opt
 OpenBabel08242015403D

 14 12  0  0  0  0  0  0  0  0999 V2000
   -3.9247    0.3235    0.1885 C   0  0  0  0  0  0  0  0  0  0  0  0
   -2.7324   -0.6522   -0.2413 C   0  0  0  0  0  0  0  0  0  0  0  0
   -4.7517   -0.2746    0.8155 H   0  0  0  0  0  0  0  0  0  0  0  0
   -4.6522    1.1132   -0.7593 H   0  0  0  0  0  0  0  0  0  0  0  0
   -3.5405    0.9770    1.1583 H   0  0  0  0  0  0  0  0  0  0  0  0
   -1.3681    0.0934   -0.1379 C   0  0  0  0  0  0  0  0  0  0  0  0
   -2.5818   -1.5168   -1.2966 H   0  0  0  0  0  0  0  0  0  0  0  0
   -2.5416   -1.0518    0.5672 H   0  0  0  0  0  0  0  0  0  0  0  0
   -0.1800   -0.6356    0.2435 C   0  0  0  0  0  0  0  0  0  0  0  0
   -1.3328    0.5999    0.4626 H   0  0  0  0  0  0  0  0  0  0  0  0
   -1.3141    0.6090   -1.0555 H   0  0  0  0  0  0  0  0  0  0  0  0
   -0.3752   -1.5354    1.3320 H   0  0  0  0  0  0  0  0  0  0  0  0
    0.9003    0.0423    0.1401 H   0  0  0  0  0  0  0  0  0  0  0  0
   -0.3567   -0.9363   -0.4932 H   0  0  0  0  0  0  0  0  0  0  0  0
  1  3  1  0  0  0  0
  1  5  1  0  0  0  0
  2  1  1  0  0  0  0
  2  8  1  0  0  0  0
  4  1  1  0  0  0  0
  6  9  1  0  0  0  0
  6 10  1  0  0  0  0
  7  2  1  0  0  0  0
  9 12  1  0  0  0  0
 11  6  1  0  0  0  0
 13  9  1  0  0  0  0
 14  9  1  0  0  0  0
M  RAD  2   2   2   6   2
M  END
$$$$
