butane_opt
 OpenBabel08242015403D

 14 11  0  0  0  0  0  0  0  0999 V2000
   -3.8677    0.2825    0.0653 C   0  0  0  0  0  0  0  0  0  0  0  0
   -2.6246   -0.6660    0.0510 C   0  0  0  0  0  0  0  0  0  0  0  0
   -4.8612   -0.3692   -0.5542 H   0  0  0  0  0  0  0  0  0  0  0  0
   -3.8396    0.5387   -0.5316 H   0  0  0  0  0  0  0  0  0  0  0  0
   -4.3247    1.5003    1.3065 H   0  0  0  0  0  0  0  0  0  0  0  0
   -1.4490    0.1992   -0.0551 C   0  0  0  0  0  0  0  0  0  0  0  0
   -2.6779   -1.6048   -0.9909 H   0  0  0  0  0  0  0  0  0  0  0  0
   -2.6107   -1.1111    0.8318 H   0  0  0  0  0  0  0  0  0  0  0  0
   -0.2337   -0.6830    0.0293 C   0  0  0  0  0  0  0  0  0  0  0  0
   -1.3364    0.5680    0.7705 H   0  0  0  0  0  0  0  0  0  0  0  0
   -1.3393    1.0220   -1.1125 H   0  0  0  0  0  0  0  0  0  0  0  0
   -0.3671   -1.7177    1.1214 H   0  0  0  0  0  0  0  0  0  0  0  0
    0.8177    0.0124    0.0276 H   0  0  0  0  0  0  0  0  0  0  0  0
   -0.3433   -0.8889   -0.4090 H   0  0  0  0  0  0  0  0  0  0  0  0
  2  1  1  0  0  0  0
  2  8  1  0  0  0  0
  3  1  1  0  0  0  0
  4  1  1  0  0  0  0
  6  9  1  0  0  0  0
  6  2  1  0  0  0  0
  6 10  1  0  0  0  0
  7  2  1  0  0  0  0
  9 12  1  0  0  0  0
 11  6  1  0  0  0  0
 13  9  1  0  0  0  0
M  RAD  4   1   2   5   2   9   2  14   2
M  END
$$$$
