butane_opt
 OpenBabel08242015403D

 14 11  0  0  0  0  0  0  0  0999 V2000
   -3.9808    0.2759   -0.1249 C   0  0  0  0  0  0  0  0  0  0  0  0
   -2.7401   -0.6989    0.2333 C   0  0  0  0  0  0  0  0  0  0  0  0
   -4.6388   -0.0152   -0.8397 H   0  0  0  0  0  0  0  0  0  0  0  0
   -3.7326    0.7107   -0.8925 H   0  0  0  0  0  0  0  0  0  0  0  0
   -4.3800    1.3615    1.0740 H   0  0  0  0  0  0  0  0  0  0  0  0
   -1.3437    0.1787    0.0954 C   0  0  0  0  0  0  0  0  0  0  0  0
   -2.8074   -1.0254   -0.2576 H   0  0  0  0  0  0  0  0  0  0  0  0
   -2.5979   -1.4420    1.1333 H   0  0  0  0  0  0  0  0  0  0  0  0
   -0.1517   -0.6945   -0.1021 C   0  0  0  0  0  0  0  0  0  0  0  0
   -1.2792    1.1592    1.0931 H   0  0  0  0  0  0  0  0  0  0  0  0
   -1.4108    0.5792   -0.6877 H   0  0  0  0  0  0  0  0  0  0  0  0
   -0.0133   -1.3516    0.9211 H   0  0  0  0  0  0  0  0  0  0  0  0
    0.8188    0.0554   -0.2877 H   0  0  0  0  0  0  0  0  0  0  0  0
   -0.4158   -1.2325   -1.0369 H   0  0  0  0  0  0  0  0  0  0  0  0
  1  2  1  0  0  0  0
  2  8  1  0  0  0  0
  3  1  1  0  0  0  0
  4  1  1  0  0  0  0
  6  2  1  0  0  0  0
  6 10  1  0  0  0  0
  9  6  1  0  0  0  0
  9 12  1  0  0  0  0
 11  6  1  0  0  0  0
 13  9  1  0  0  0  0
 14  9  1  0  0  0  0
M  RAD  4   1   2   2   2   5   2   7   2
M  END
$$$$
