butane_opt
 OpenBabel08242015403D

 14 13  0  0  0  0  0  0  0  0999 V2000
   -3.9521    0.2778   -0.0021 C   0  0  0  0  0  0  0  0  0  0  0  0
   -2.7070   -0.6407    0.0404 C   0  0  0  0  0  0  0  0  0  0  0  0
   -4.8232   -0.2690    0.0672 H   0  0  0  0  0  0  0  0  0  0  0  0
   -3.9914    0.9186   -0.9250 H   0  0  0  0  0  0  0  0  0  0  0  0
   -4.0190    0.9228    0.8074 H   0  0  0  0  0  0  0  0  0  0  0  0
   -1.3891    0.1780    0.0456 C   0  0  0  0  0  0  0  0  0  0  0  0
   -2.7205   -1.2641   -0.7666 H   0  0  0  0  0  0  0  0  0  0  0  0
   -2.7284   -1.3092    0.9872 H   0  0  0  0  0  0  0  0  0  0  0  0
   -0.1604   -0.6849    0.0135 C   0  0  0  0  0  0  0  0  0  0  0  0
   -1.3651    0.9185    0.9535 H   0  0  0  0  0  0  0  0  0  0  0  0
   -1.4081    0.7882   -0.8418 H   0  0  0  0  0  0  0  0  0  0  0  0
   -0.0651   -1.3134    0.9179 H   0  0  0  0  0  0  0  0  0  0  0  0
    0.7804   -0.0862   -0.0849 H   0  0  0  0  0  0  0  0  0  0  0  0
   -0.1912   -1.3311   -0.8450 H   0  0  0  0  0  0  0  0  0  0  0  0
  1  2  1  0  0  0  0
  1  3  1  0  0  0  0
  1  5  1  0  0  0  0
  2  6  1  0  0  0  0
  2  8  1  0  0  0  0
  4  1  1  0  0  0  0
  6 10  1  0  0  0  0
  7  2  1  0  0  0  0
  9  6  1  0  0  0  0
  9 12  1  0  0  0  0
 11  6  1  0  0  0  0
 13  9  1  0  0  0  0
 14  9  1  0  0  0  0
M  END
$$$$
