butane_opt
 OpenBabel08242015403D

 14 11  0  0  0  0  0  0  0  0999 V2000
   -4.0048    0.3384    0.1548 C   0  0  0  0  0  0  0  0  0  0  0  0
   -2.7614   -0.6806   -0.1091 C   0  0  0  0  0  0  0  0  0  0  0  0
   -4.8374   -0.1280    0.0213 H   0  0  0  0  0  0  0  0  0  0  0  0
   -3.8635    0.8632   -0.7668 H   0  0  0  0  0  0  0  0  0  0  0  0
   -4.3298    1.0668    1.1302 H   0  0  0  0  0  0  0  0  0  0  0  0
   -1.3325    0.1234   -0.0749 C   0  0  0  0  0  0  0  0  0  0  0  0
   -2.7839   -1.7110   -1.0209 H   0  0  0  0  0  0  0  0  0  0  0  0
   -2.4990   -1.0909    0.5877 H   0  0  0  0  0  0  0  0  0  0  0  0
   -0.1436   -0.6858    0.1245 C   0  0  0  0  0  0  0  0  0  0  0  0
   -1.4049    0.7693    0.7844 H   0  0  0  0  0  0  0  0  0  0  0  0
   -1.1615    0.8019   -1.0355 H   0  0  0  0  0  0  0  0  0  0  0  0
   -0.0334   -1.5319    1.2266 H   0  0  0  0  0  0  0  0  0  0  0  0
    0.9707    0.0917   -0.3047 H   0  0  0  0  0  0  0  0  0  0  0  0
   -0.2127   -0.6731   -0.2664 H   0  0  0  0  0  0  0  0  0  0  0  0
  1  5  1  0  0  0  0
  2  1  1  0  0  0  0
  2  8  1  0  0  0  0
  3  1  1  0  0  0  0
  4  1  1  0  0  0  0
  6 10  1  0  0  0  0
  7  2  1  0  0  0  0
  9 12  1  0  0  0  0
 11  6  1  0  0  0  0
 13  9  1  0  0  0  0
 14  6  1  0  0  0  0
M  RAD  3   2   2   6   2   9   3
M  END
$$$$
