14
butane_opt
C  -3.867658   0.282460   0.065267
C  -2.624641  -0.666046   0.051042
H  -4.861202  -0.369160  -0.554225
H  -3.839591   0.538678  -0.531609
H  -4.324685   1.500270   1.306506
C  -1.448999   0.199207  -0.055113
H  -2.677909  -1.604821  -0.990853
H  -2.610721  -1.111121   0.831763
C  -0.233665  -0.683017   0.029273
H  -1.336371   0.568019   0.770492
H  -1.339325   1.021979  -1.112500
H  -0.367072  -1.717736   1.121364
H   0.817657   0.012434   0.027595
H  -0.343300  -0.888861  -0.408953
