butane_opt
 OpenBabel08242015403D

 14 12  0  0  0  0  0  0  0  0999 V2000
   -3.9014    0.3399    0.2204 C   0  0  0  0  0  0  0  0  0  0  0  0
   -2.6415   -0.6186   -0.1883 C   0  0  0  0  0  0  0  0  0  0  0  0
   -4.8013   -0.3134    0.7648 H   0  0  0  0  0  0  0  0  0  0  0  0
   -4.4400    1.0852   -0.8085 H   0  0  0  0  0  0  0  0  0  0  0  0
   -3.7378    0.7655    0.8627 H   0  0  0  0  0  0  0  0  0  0  0  0
   -1.4487    0.0512   -0.1408 C   0  0  0  0  0  0  0  0  0  0  0  0
   -2.8816   -1.8391   -1.4582 H   0  0  0  0  0  0  0  0  0  0  0  0
   -2.4104   -1.1039    0.5025 H   0  0  0  0  0  0  0  0  0  0  0  0
   -0.2064   -0.6188    0.2114 C   0  0  0  0  0  0  0  0  0  0  0  0
   -1.3612    0.3756    0.5839 H   0  0  0  0  0  0  0  0  0  0  0  0
   -1.3387    0.9456   -1.2567 H   0  0  0  0  0  0  0  0  0  0  0  0
   -0.7683   -1.1728    1.2164 H   0  0  0  0  0  0  0  0  0  0  0  0
    0.9086    0.1301    0.3695 H   0  0  0  0  0  0  0  0  0  0  0  0
    0.1526   -1.1240   -0.5858 H   0  0  0  0  0  0  0  0  0  0  0  0
  1  3  1  0  0  0  0
  1  5  1  0  0  0  0
  2  6  1  0  0  0  0
  2  1  1  0  0  0  0
  2  8  1  0  0  0  0
  4  1  1  0  0  0  0
  6  9  1  0  0  0  0
  6 10  1  0  0  0  0
  9 13  1  0  0  0  0
  9 12  1  0  0  0  0
 11  6  1  0  0  0  0
 14  9  1  0  0  0  0
M  RAD  2   2   2   7   2
M  END
$$$$
