14
butane_opt
C  -3.991591   0.322225  -0.005816
C  -2.684324  -0.673555   0.137322
H  -4.869382  -0.135339   0.251279
H  -3.974395   1.320166  -1.286905
H  -4.131106   0.682655   0.686812
C  -1.380415   0.091648  -0.015141
H  -2.730294  -1.352481  -0.718699
H  -2.772261  -1.323291   1.047762
C  -0.137425  -0.627559   0.003417
H  -1.466817   0.858207   0.718201
H  -1.510371   0.444518  -0.688914
H  -0.235062  -0.716023   0.544503
H   0.913703   0.205893   0.634511
H   0.018604  -1.764346  -1.248837
