butane_opt
 OpenBabel08242015403D

 14  9  0  0  0  0  0  0  0  0999 V2000
   -4.0292    0.3095    0.1104 C   0  0  0  0  0  1  0  0  0  0  0  0
   -2.6786   -0.6865   -0.0172 C   0  0  0  0  0  0  0  0  0  0  0  0
   -4.8281   -0.0795   -0.7154 H   0  0  0  0  0  0  0  0  0  0  0  0
   -3.7829    0.0974   -0.1223 H   0  0  0  0  0  0  0  0  0  0  0  0
   -4.0311    1.5897    1.4630 H   0  0  0  0  0  0  0  0  0  0  0  0
   -1.4061    0.1715   -0.1632 C   0  0  0  0  0  0  0  0  0  0  0  0
   -2.8378   -1.4437   -0.9102 H   0  0  0  0  0  0  0  0  0  0  0  0
   -2.6978   -1.2573    0.8447 H   0  0  0  0  0  0  0  0  0  0  0  0
   -0.1029   -0.6506    0.1446 C   0  0  0  0  0  0  0  0  0  0  0  0
   -1.3322    0.6973    0.5918 H   0  0  0  0  0  0  0  0  0  0  0  0
   -1.5834    0.8213   -1.2406 H   0  0  0  0  0  0  0  0  0  0  0  0
   -0.2339   -1.6431    1.3155 H   0  0  0  0  0  0  0  0  0  0  0  0
    0.7990    0.0200   -0.2018 H   0  0  0  0  0  0  0  0  0  0  0  0
    0.0236   -0.9670   -0.3725 H   0  0  0  0  0  0  0  0  0  0  0  0
  2  8  1  0  0  0  0
  3  1  1  0  0  0  0
  4  2  1  0  0  0  0
  6  2  1  0  0  0  0
  6  9  1  0  0  0  0
  6 10  1  0  0  0  0
  7  2  1  0  0  0  0
 11  6  1  0  0  0  0
 13  9  1  0  0  0  0
M  RAD  4   5   2   9   3  12   2  14   2
M  END
$$$$
