butane_opt
 OpenBabel08242015403D

 14 12  0  0  0  0  0  0  0  0999 V2000
   -3.9230    0.2360    0.1699 C   0  0  0  0  0  0  0  0  0  0  0  0
   -2.7887   -0.6358   -0.0965 C   0  0  0  0  0  0  0  0  0  0  0  0
   -4.6936   -0.2682    0.4407 H   0  0  0  0  0  0  0  0  0  0  0  0
   -4.4385    0.9955   -0.6446 H   0  0  0  0  0  0  0  0  0  0  0  0
   -3.6283    0.9336    1.0833 H   0  0  0  0  0  0  0  0  0  0  0  0
   -1.4163    0.2635   -0.1918 C   0  0  0  0  0  0  0  0  0  0  0  0
   -2.7081   -1.5601   -1.1880 H   0  0  0  0  0  0  0  0  0  0  0  0
   -2.7880   -1.0367    0.7422 H   0  0  0  0  0  0  0  0  0  0  0  0
   -0.0927   -0.6988    0.2106 C   0  0  0  0  0  0  0  0  0  0  0  0
   -1.4647    0.7072    0.3864 H   0  0  0  0  0  0  0  0  0  0  0  0
   -1.2136    1.1055   -1.3325 H   0  0  0  0  0  0  0  0  0  0  0  0
   -0.4272   -1.2785    1.0446 H   0  0  0  0  0  0  0  0  0  0  0  0
    0.8343   -0.2424    0.7137 H   0  0  0  0  0  0  0  0  0  0  0  0
    0.1692   -1.8187   -0.9233 H   0  0  0  0  0  0  0  0  0  0  0  0
  1  3  1  0  0  0  0
  1  5  1  0  0  0  0
  2  1  1  0  0  0  0
  2  8  1  0  0  0  0
  4  1  1  0  0  0  0
  6  2  1  0  0  0  0
  6  9  1  0  0  0  0
  6 10  1  0  0  0  0
  7  2  1  0  0  0  0
  9 13  1  0  0  0  0
  9 12  1  0  0  0  0
 11  6  1  0  0  0  0
M  RAD  2   9   2  14   2
M  END
$$$$
