14
butane_opt
C  -3.977585   0.238058   0.230937
C  -2.736087  -0.571142  -0.234966
H  -4.911340  -0.421490   0.884942
H  -4.427843   0.934125  -0.793964
H  -3.554986   0.437294   0.848743
C  -1.412946   0.289149  -0.124014
H  -2.546337  -1.714868  -1.289263
H  -2.686114  -1.057133   0.438998
C  -0.121964  -0.755865   0.227455
H  -1.554276   0.803580   0.534123
H  -1.148906   1.210975  -1.323287
H  -0.063918  -1.441039   1.276278
H   0.746362  -0.220702   0.303881
H   0.117651  -1.398570  -0.618980
