14
butane_opt
C  -3.952462   0.270515   0.046746
C  -2.701444  -0.633730   0.024892
H  -4.824441  -0.280454   0.053560
H  -3.980085   0.853961  -0.822677
H  -4.023361   0.988857   0.949264
C  -1.397138   0.178066  -0.033201
H  -2.726330  -1.338915  -0.865788
H  -2.725677  -1.185002   0.880529
C  -0.157701  -0.679263   0.062162
H  -1.409653   0.810817   0.766022
H  -1.405279   0.840035  -0.969193
H  -0.186471  -1.290107   0.953484
H   0.787448  -0.083624   0.127113
H  -0.037826  -1.408590  -0.829537
