butane_opt
 OpenBabel08242015403D

 14 10  0  0  0  0  0  0  0  0999 V2000
   -3.9539    0.2856    0.0764 C   0  0  0  0  0  0  0  0  0  0  0  0
   -2.6612   -0.7008    0.0483 C   0  0  0  0  0  0  0  0  0  0  0  0
   -4.6676   -0.0853   -0.6693 H   0  0  0  0  0  0  0  0  0  0  0  0
   -3.7354    0.2882   -0.4206 H   0  0  0  0  0  0  0  0  0  0  0  0
   -4.1443    1.7914    1.4855 H   0  0  0  0  0  0  0  0  0  0  0  0
   -1.4447    0.1683   -0.1053 C   0  0  0  0  0  0  0  0  0  0  0  0
   -2.7015   -1.6492   -0.8844 H   0  0  0  0  0  0  0  0  0  0  0  0
   -2.6788   -1.1993    0.9153 H   0  0  0  0  0  0  0  0  0  0  0  0
   -0.1527   -0.6738    0.1154 C   0  0  0  0  0  0  0  0  0  0  0  0
   -1.4385    0.4987    0.5751 H   0  0  0  0  0  0  0  0  0  0  0  0
   -1.3378    1.1584   -1.3970 H   0  0  0  0  0  0  0  0  0  0  0  0
   -0.4092   -1.2439    0.9773 H   0  0  0  0  0  0  0  0  0  0  0  0
    0.6794    0.0495   -0.1189 H   0  0  0  0  0  0  0  0  0  0  0  0
   -0.0690   -1.0088   -0.5677 H   0  0  0  0  0  0  0  0  0  0  0  0
  2  1  1  0  0  0  0
  2  8  1  0  0  0  0
  3  1  1  0  0  0  0
  6  2  1  0  0  0  0
  6  9  1  0  0  0  0
  6 10  1  0  0  0  0
  7  2  1  0  0  0  0
  9 12  1  0  0  0  0
 13  9  1  0  0  0  0
 14  9  1  0  0  0  0
M  RAD  5   1   3   4   2   5   2   6   2  11   2
M  END
$$$$
