butane_opt
 OpenBabel08242015403D

 14 13  0  0  0  0  0  0  0  0999 V2000
   -3.8186    0.1678    0.1096 C   0  0  0  0  0  0  0  0  0  0  0  0
   -2.7523   -0.5330   -0.1497 C   0  0  0  0  0  0  0  0  0  0  0  0
   -4.8791   -0.4797    0.6968 H   0  0  0  0  0  0  0  0  0  0  0  0
   -4.3135    0.9679   -0.7809 H   0  0  0  0  0  0  0  0  0  0  0  0
   -3.5367    0.9394    1.1302 H   0  0  0  0  0  0  0  0  0  0  0  0
   -1.4468    0.2868   -0.1105 C   0  0  0  0  0  0  0  0  0  0  0  0
   -2.5998   -1.3136   -0.9018 H   0  0  0  0  0  0  0  0  0  0  0  0
   -2.8154   -1.1429    0.7841 H   0  0  0  0  0  0  0  0  0  0  0  0
   -0.1843   -0.7739    0.1644 C   0  0  0  0  0  0  0  0  0  0  0  0
   -1.5647    1.0021    0.7791 H   0  0  0  0  0  0  0  0  0  0  0  0
   -1.3238    0.9206   -1.0792 H   0  0  0  0  0  0  0  0  0  0  0  0
   -0.2371   -1.4454    1.1981 H   0  0  0  0  0  0  0  0  0  0  0  0
    0.6900   -0.2881    0.1647 H   0  0  0  0  0  0  0  0  0  0  0  0
    0.0406   -1.4342   -0.7089 H   0  0  0  0  0  0  0  0  0  0  0  0
  1  3  1  0  0  0  0
  1  5  1  0  0  0  0
  2  6  1  0  0  0  0
  2  1  1  0  0  0  0
  2  8  1  0  0  0  0
  4  1  1  0  0  0  0
  6  9  1  0  0  0  0
  6 10  1  0  0  0  0
  7  2  1  0  0  0  0
  9 13  1  0  0  0  0
  9 12  1  0  0  0  0
 11  6  1  0  0  0  0
 14  9  1  0  0  0  0
M  END
$$$$
