14
butane_opt
C  -3.931110   0.296017   0.016783
C  -2.748796  -0.609268   0.064086
H  -4.944181  -0.407237   0.459996
H  -3.928637   1.204983  -1.093524
H  -3.920493   0.706367   0.664448
C  -1.384785   0.140906  -0.001599
H  -2.810475  -1.352923  -0.786791
H  -2.798861  -1.327363   0.891513
C  -0.137214  -0.727622   0.019243
H  -1.242698   0.789243   0.878284
H  -1.684622   1.003774  -0.947990
H  -0.475393  -0.728729   0.586905
H   0.897839   0.043400   0.688054
H   0.279823  -1.599959  -1.119231
