14
butane_opt
C  -3.985154   0.323103  -0.016974
C  -2.678828  -0.702652  -0.015679
H  -4.809322  -0.170188   0.859740
H  -4.535012   1.579216  -1.259445
H  -3.724219   0.492435   0.568044
C  -1.376708   0.111794   0.071426
H  -2.514964  -1.398650  -0.838381
H  -2.552950  -1.507710   0.939086
C  -0.169924  -0.611573  -0.002128
H  -1.391182   1.135023   1.077729
H  -1.014811   0.486467  -0.627963
H  -0.123150  -1.047340   0.818404
H   0.515649  -0.146737   0.177938
H  -0.326113  -1.327289  -0.795356
