butane_opt
 OpenBabel08242015403D

 14 12  0  0  0  0  0  0  0  0999 V2000
   -3.9790    0.2662    0.1637 C   0  0  0  0  0  0  0  0  0  0  0  0
   -2.7258   -0.6102   -0.2237 C   0  0  0  0  0  0  0  0  0  0  0  0
   -4.9262   -0.4502    0.5473 H   0  0  0  0  0  0  0  0  0  0  0  0
   -4.4623    0.7647   -0.6708 H   0  0  0  0  0  0  0  0  0  0  0  0
   -3.3565    0.5231    0.9190 H   0  0  0  0  0  0  0  0  0  0  0  0
   -1.3804    0.3120   -0.0603 C   0  0  0  0  0  0  0  0  0  0  0  0
   -2.9388   -1.2431   -1.0627 H   0  0  0  0  0  0  0  0  0  0  0  0
   -2.8327   -1.1749    0.5946 H   0  0  0  0  0  0  0  0  0  0  0  0
   -0.1336   -0.7640    0.1783 C   0  0  0  0  0  0  0  0  0  0  0  0
   -1.3637    1.0004    0.6261 H   0  0  0  0  0  0  0  0  0  0  0  0
   -1.3643    0.8521   -0.9361 H   0  0  0  0  0  0  0  0  0  0  0  0
    0.0083   -1.8041    1.2988 H   0  0  0  0  0  0  0  0  0  0  0  0
    0.6441   -0.2998   -0.0872 H   0  0  0  0  0  0  0  0  0  0  0  0
    0.1888   -1.0884   -0.4666 H   0  0  0  0  0  0  0  0  0  0  0  0
  1  3  1  0  0  0  0
  1  5  1  0  0  0  0
  2  6  1  0  0  0  0
  2  1  1  0  0  0  0
  2  8  1  0  0  0  0
  4  1  1  0  0  0  0
  6  9  1  0  0  0  0
  6 10  1  0  0  0  0
  7  2  1  0  0  0  0
 11  6  1  0  0  0  0
 13  9  1  0  0  0  0
 14  9  1  0  0  0  0
M  RAD  2   9   2  12   2
M  END
$$$$
