butane_opt
 OpenBabel08242015403D

 14  9  0  0  0  0  0  0  0  0999 V2000
   -3.9386    0.3394    0.1324 C   0  0  0  0  0  0  0  0  0  0  0  0
   -2.7151   -0.6478   -0.0807 C   0  0  0  0  0  0  0  0  0  0  0  0
   -4.7880   -0.0252   -0.2621 H   0  0  0  0  0  0  0  0  0  0  0  0
   -3.7836    0.6382   -0.5170 H   0  0  0  0  0  0  0  0  0  0  0  0
   -4.0835    1.1014    1.1446 H   0  0  0  0  0  0  0  0  0  0  0  0
   -1.3518    0.0481   -0.0727 C   0  0  0  0  0  0  0  0  0  0  0  0
   -2.7129   -1.6211   -1.1179 H   0  0  0  0  0  0  0  0  0  0  0  0
   -2.6920   -0.8933    0.5727 H   0  0  0  0  0  0  0  0  0  0  0  0
   -0.1915   -0.6202    0.1615 C   0  0  0  0  0 15  0  0  0  0  0  0
   -1.5390    0.5963    0.7928 H   0  0  0  0  0  0  0  0  0  0  0  0
   -1.4033    0.7263   -0.9630 H   0  0  0  0  0  0  0  0  0  0  0  0
   -0.1411   -1.7927    1.3986 H   0  0  0  0  0  0  0  0  0  0  0  0
    0.8598    0.1362   -0.8509 H   0  0  0  0  0  0  0  0  0  0  0  0
   -0.4560   -0.7143   -0.3837 H   0  0  0  0  0  0  0  0  0  0  0  0
  1  5  1  0  0  0  0
  2  1  1  0  0  0  0
  2  8  1  0  0  0  0
  3  1  1  0  0  0  0
  4  1  1  0  0  0  0
  6 10  1  0  0  0  0
  7  2  1  0  0  0  0
 11  6  1  0  0  0  0
 14  6  1  0  0  0  0
M  RAD  4   2   2   6   2  12   2  13   2
M  END
$$$$
