butane_opt
 OpenBabel08242015403D

 14 13  0  0  0  0  0  0  0  0999 V2000
   -3.9488    0.2787   -0.0062 C   0  0  0  0  0  0  0  0  0  0  0  0
   -2.7071   -0.6361    0.0616 C   0  0  0  0  0  0  0  0  0  0  0  0
   -4.8377   -0.2855   -0.0191 H   0  0  0  0  0  0  0  0  0  0  0  0
   -3.9607    0.8872   -0.9131 H   0  0  0  0  0  0  0  0  0  0  0  0
   -4.0533    0.9177    0.8100 H   0  0  0  0  0  0  0  0  0  0  0  0
   -1.3917    0.1845    0.0522 C   0  0  0  0  0  0  0  0  0  0  0  0
   -2.7049   -1.3296   -0.8023 H   0  0  0  0  0  0  0  0  0  0  0  0
   -2.7394   -1.2886    0.9591 H   0  0  0  0  0  0  0  0  0  0  0  0
   -0.1559   -0.6853    0.0078 C   0  0  0  0  0  0  0  0  0  0  0  0
   -1.4017    0.8892    0.9226 H   0  0  0  0  0  0  0  0  0  0  0  0
   -1.3836    0.8220   -0.8212 H   0  0  0  0  0  0  0  0  0  0  0  0
   -0.0559   -1.3594    0.9059 H   0  0  0  0  0  0  0  0  0  0  0  0
    0.7633   -0.0855   -0.1544 H   0  0  0  0  0  0  0  0  0  0  0  0
   -0.2160   -1.3335   -0.8336 H   0  0  0  0  0  0  0  0  0  0  0  0
  1  2  1  0  0  0  0
  1  5  1  0  0  0  0
  2  8  1  0  0  0  0
  3  1  1  0  0  0  0
  4  1  1  0  0  0  0
  6  2  1  0  0  0  0
  6 10  1  0  0  0  0
  7  2  1  0  0  0  0
  9  6  1  0  0  0  0
  9 12  1  0  0  0  0
 11  6  1  0  0  0  0
 13  9  1  0  0  0  0
 14  9  1  0  0  0  0
M  END
$$$$
