butane_opt
 OpenBabel08242015403D

 14 13  0  0  0  0  0  0  0  0999 V2000
   -3.9763    0.1730    0.1333 C   0  0  0  0  0  0  0  0  0  0  0  0
   -2.7107   -0.5582   -0.1141 C   0  0  0  0  0  0  0  0  0  0  0  0
   -4.7873   -0.2729    0.4335 H   0  0  0  0  0  0  0  0  0  0  0  0
   -4.2889    0.8854   -0.5475 H   0  0  0  0  0  0  0  0  0  0  0  0
   -3.5813    0.9281    1.0921 H   0  0  0  0  0  0  0  0  0  0  0  0
   -1.3963    0.2650   -0.1909 C   0  0  0  0  0  0  0  0  0  0  0  0
   -2.8536   -1.1662   -0.8956 H   0  0  0  0  0  0  0  0  0  0  0  0
   -2.8051   -1.1872    0.6812 H   0  0  0  0  0  0  0  0  0  0  0  0
   -0.1183   -0.7212    0.1873 C   0  0  0  0  0  0  0  0  0  0  0  0
   -1.4934    0.8557    0.6082 H   0  0  0  0  0  0  0  0  0  0  0  0
   -1.5085    0.8669   -0.9996 H   0  0  0  0  0  0  0  0  0  0  0  0
   -0.1553   -1.4048    1.1699 H   0  0  0  0  0  0  0  0  0  0  0  0
    0.6769   -0.2429    0.5638 H   0  0  0  0  0  0  0  0  0  0  0  0
    0.1848   -1.6567   -0.8419 H   0  0  0  0  0  0  0  0  0  0  0  0
  1  3  1  0  0  0  0
  1  5  1  0  0  0  0
  2  1  1  0  0  0  0
  2  8  1  0  0  0  0
  4  1  1  0  0  0  0
  6  2  1  0  0  0  0
  6  9  1  0  0  0  0
  6 10  1  0  0  0  0
  7  2  1  0  0  0  0
  9 13  1  0  0  0  0
  9 12  1  0  0  0  0
 11  6  1  0  0  0  0
 14  9  1  0  0  0  0
M  END
$$$$
