butane_opt
 OpenBabel08242015403D

 14  7  0  0  0  0  0  0  0  0999 V2000
   -4.0080    0.1933    0.1592 C   0  0  0  0  0 15  0  0  0  0  0  0
   -2.7224   -0.5410   -0.0437 C   0  0  0  0  0  0  0  0  0  0  0  0
   -5.0224   -0.5015   -0.7923 H   0  0  0  0  0  0  0  0  0  0  0  0
   -3.6403    0.1210   -0.3370 H   0  0  0  0  0  0  0  0  0  0  0  0
   -3.9333    1.7347    1.4798 H   0  0  0  0  0  0  0  0  0  0  0  0
   -1.3981    0.2673   -0.1241 C   0  0  0  0  0  0  0  0  0  0  0  0
   -2.4831   -1.3987   -1.0616 H   0  0  0  0  0  0  0  0  0  0  0  0
   -2.7721   -1.0233    0.9140 H   0  0  0  0  0  0  0  0  0  0  0  0
   -0.1128   -0.7451    0.1545 C   0  0  0  0  0  0  0  0  0  0  0  0
   -1.5258    0.3911    0.2907 H   0  0  0  0  0  0  0  0  0  0  0  0
   -1.3895    1.1697   -1.2170 H   0  0  0  0  0  0  0  0  0  0  0  0
   -0.0642   -1.7567    1.3192 H   0  0  0  0  0  0  0  0  0  0  0  0
    0.7853   -0.1849   -0.2717 H   0  0  0  0  0  0  0  0  0  0  0  0
   -0.0474   -1.1491   -0.5169 H   0  0  0  0  0  0  0  0  0  0  0  0
  2  8  1  0  0  0  0
  4  2  1  0  0  0  0
  6  9  1  0  0  0  0
  7  2  1  0  0  0  0
 11  6  1  0  0  0  0
 13  9  1  0  0  0  0
 14  9  1  0  0  0  0
M  RAD  7   2   2   3   2   5   2   6   3   9   2  10   2  12   2
M  END
$$$$
