14
butane_opt
C  -4.037588   0.286323  -0.019484
C  -2.698766  -0.709315   0.139342
H  -4.880762  -0.090280  -0.163579
H  -3.720360   1.048082  -1.042249
H  -4.437173   1.263330   0.980236
C  -1.300160   0.161800   0.008752
H  -2.746446  -1.158366  -0.608764
H  -2.614952  -1.524113   1.229172
C  -0.188237  -0.648982  -0.046878
H  -1.291571   1.019203   0.913731
H  -1.081148   0.635101  -0.947873
H  -0.300261  -1.069866   0.646283
H   0.628092  -0.105399   0.475899
H   0.119641  -1.579484  -1.037292
