butane_opt
 OpenBabel08242015403D

 14 10  0  0  0  0  0  0  0  0999 V2000
   -3.9631    0.3004    0.0844 C   0  0  0  0  0  0  0  0  0  0  0  0
   -2.5917   -0.6717   -0.0790 C   0  0  0  0  0  0  0  0  0  0  0  0
   -4.7753   -0.0725    0.1400 H   0  0  0  0  0  0  0  0  0  0  0  0
   -3.9909    0.7620   -0.5701 H   0  0  0  0  0  0  0  0  0  0  0  0
   -3.7315    1.0043    1.1035 H   0  0  0  0  0  0  0  0  0  0  0  0
   -1.4394    0.1366   -0.0260 C   0  0  0  0  0  0  0  0  0  0  0  0
   -2.5803   -1.6833   -1.2341 H   0  0  0  0  0  0  0  0  0  0  0  0
   -2.4879   -1.1945    0.6292 H   0  0  0  0  0  0  0  0  0  0  0  0
   -0.2541   -0.6366    0.1396 C   0  0  0  0  0  0  0  0  0  0  0  0
   -1.5438    0.7639    0.6831 H   0  0  0  0  0  0  0  0  0  0  0  0
   -0.9858    0.9986   -1.0232 H   0  0  0  0  0  0  0  0  0  0  0  0
    0.0450   -1.6755    1.2198 H   0  0  0  0  0  0  0  0  0  0  0  0
    0.6811   -0.0072   -0.4561 H   0  0  0  0  0  0  0  0  0  0  0  0
   -0.6957   -0.8822   -0.4260 H   0  0  0  0  0  0  0  0  0  0  0  0
  1  3  1  0  0  0  0
  1  5  1  0  0  0  0
  2  6  1  0  0  0  0
  2  1  1  0  0  0  0
  2  8  1  0  0  0  0
  4  1  1  0  0  0  0
  6 10  1  0  0  0  0
 11  6  1  0  0  0  0
 13  9  1  0  0  0  0
 14  9  1  0  0  0  0
M  RAD  5   2   2   6   2   7   2   9   3  12   2
M  END
$$$$
