butane_opt
 OpenBabel08242015403D

 14 12  0  0  0  0  0  0  0  0999 V2000
   -4.0577    0.3639   -0.0532 C   0  0  0  0  0  0  0  0  0  0  0  0
   -2.6668   -0.6850    0.0419 C   0  0  0  0  0  0  0  0  0  0  0  0
   -4.9767   -0.3537    0.6870 H   0  0  0  0  0  0  0  0  0  0  0  0
   -4.5430    1.5177   -1.2491 H   0  0  0  0  0  0  0  0  0  0  0  0
   -3.6619    0.4365    0.5163 H   0  0  0  0  0  0  0  0  0  0  0  0
   -1.2869    0.1099    0.1386 C   0  0  0  0  0  0  0  0  0  0  0  0
   -2.4830   -1.4166   -0.7849 H   0  0  0  0  0  0  0  0  0  0  0  0
   -2.7874   -1.5558    0.9289 H   0  0  0  0  0  0  0  0  0  0  0  0
   -0.1904   -0.6623   -0.0539 C   0  0  0  0  0  0  0  0  0  0  0  0
   -1.3777    0.9643    1.1205 H   0  0  0  0  0  0  0  0  0  0  0  0
   -1.2468    0.6894   -0.6900 H   0  0  0  0  0  0  0  0  0  0  0  0
   -0.2479   -1.0080    0.5943 H   0  0  0  0  0  0  0  0  0  0  0  0
    0.8159    0.0796    0.2399 H   0  0  0  0  0  0  0  0  0  0  0  0
   -0.1117   -1.2850   -0.8820 H   0  0  0  0  0  0  0  0  0  0  0  0
  1  2  1  0  0  0  0
  1  5  1  0  0  0  0
  1  3  1  0  0  0  0
  2  6  1  0  0  0  0
  2  8  1  0  0  0  0
  6 10  1  0  0  0  0
  7  2  1  0  0  0  0
  9  6  1  0  0  0  0
  9 13  1  0  0  0  0
  9 12  1  0  0  0  0
 11  6  1  0  0  0  0
 14  9  1  0  0  0  0
M  RAD  2   1   2   4   2
M  END
$$$$
