butane_opt
 OpenBabel08242015403D

 14 12  0  0  0  0  0  0  0  0999 V2000
   -3.9041    0.2722   -0.0138 C   0  0  0  0  0  0  0  0  0  0  0  0
   -2.6138   -0.6576   -0.0007 C   0  0  0  0  0  0  0  0  0  0  0  0
   -4.6354   -0.2065    0.7667 H   0  0  0  0  0  0  0  0  0  0  0  0
   -4.2257    1.3774   -1.2121 H   0  0  0  0  0  0  0  0  0  0  0  0
   -3.8849    0.6790    0.5289 H   0  0  0  0  0  0  0  0  0  0  0  0
   -1.3896    0.1200    0.1109 C   0  0  0  0  0  0  0  0  0  0  0  0
   -2.8448   -1.4170   -1.0464 H   0  0  0  0  0  0  0  0  0  0  0  0
   -2.5247   -1.2762    0.9417 H   0  0  0  0  0  0  0  0  0  0  0  0
   -0.2797   -0.6460    0.0252 C   0  0  0  0  0  0  0  0  0  0  0  0
   -1.6193    0.9469    0.9328 H   0  0  0  0  0  0  0  0  0  0  0  0
   -1.4760    0.8214   -0.9257 H   0  0  0  0  0  0  0  0  0  0  0  0
    0.0130   -1.0399    0.7282 H   0  0  0  0  0  0  0  0  0  0  0  0
    0.7710    0.0003    0.0195 H   0  0  0  0  0  0  0  0  0  0  0  0
   -0.3716   -1.3737   -0.7900 H   0  0  0  0  0  0  0  0  0  0  0  0
  1  2  1  0  0  0  0
  1  5  1  0  0  0  0
  1  3  1  0  0  0  0
  2  6  1  0  0  0  0
  2  8  1  0  0  0  0
  6 10  1  0  0  0  0
  7  2  1  0  0  0  0
  9  6  1  0  0  0  0
  9 12  1  0  0  0  0
 11  6  1  0  0  0  0
 13  9  1  0  0  0  0
 14  9  1  0  0  0  0
M  RAD  2   1   2   4   2
M  END
$$$$
