14
butane_opt
C  -3.942027   0.335870  -0.136505
C  -2.668258  -0.636092   0.159457
H  -4.993727  -0.242938  -0.069063
H  -3.891009   1.071609  -1.243049
H  -4.141706   0.777134   0.393495
C  -1.364461   0.107688   0.289032
H  -2.373679  -1.458122  -0.821586
H  -2.760337  -1.428205   1.337820
C  -0.228743  -0.661270  -0.134431
H  -1.267924   0.822795   1.186083
H  -1.093548   0.631113  -0.546851
H   0.149833  -1.335804   0.770001
H   0.784752  -0.005182  -0.733057
H  -0.961103  -1.048867  -0.972010
