butane_opt
 OpenBabel08242015403D

 14 11  0  0  0  0  0  0  0  0999 V2000
   -4.0197    0.2497    0.1057 C   0  0  0  0  0  0  0  0  0  0  0  0
   -2.7186   -0.5435   -0.1428 C   0  0  0  0  0  0  0  0  0  0  0  0
   -5.0331   -0.5121    0.8526 H   0  0  0  0  0  0  0  0  0  0  0  0
   -4.2904    1.2151   -0.9535 H   0  0  0  0  0  0  0  0  0  0  0  0
   -3.5196    0.4327    0.6062 H   0  0  0  0  0  0  0  0  0  0  0  0
   -1.3442    0.2468    0.0016 C   0  0  0  0  0  0  0  0  0  0  0  0
   -3.0279   -1.5735   -1.1455 H   0  0  0  0  0  0  0  0  0  0  0  0
   -2.6414   -1.1576    0.7803 H   0  0  0  0  0  0  0  0  0  0  0  0
   -0.1005   -0.7434    0.1647 C   0  0  0  0  0  0  0  0  0  0  0  0
   -1.4969    0.7168    0.6742 H   0  0  0  0  0  0  0  0  0  0  0  0
   -1.2212    0.9945   -1.0439 H   0  0  0  0  0  0  0  0  0  0  0  0
   -0.1909   -1.2259    0.8464 H   0  0  0  0  0  0  0  0  0  0  0  0
    0.7264   -0.3502    0.0319 H   0  0  0  0  0  0  0  0  0  0  0  0
   -0.0930   -1.5198   -0.8378 H   0  0  0  0  0  0  0  0  0  0  0  0
  1  5  1  0  0  0  0
  1  3  1  0  0  0  0
  2  8  1  0  0  0  0
  4  1  1  0  0  0  0
  6  9  1  0  0  0  0
  6 10  1  0  0  0  0
  7  2  1  0  0  0  0
  9 12  1  0  0  0  0
 11  6  1  0  0  0  0
 13  9  1  0  0  0  0
 14  9  1  0  0  0  0
M  RAD  3   1   2   2   3   6   2
M  END
$$$$
