butane_opt
 OpenBabel08242015403D

 14 13  0  0  0  0  0  0  0  0999 V2000
   -3.9470    0.2565   -0.0263 C   0  0  0  0  0  0  0  0  0  0  0  0
   -2.6917   -0.6011    0.0958 C   0  0  0  0  0  0  0  0  0  0  0  0
   -4.8645   -0.3557   -0.1036 H   0  0  0  0  0  0  0  0  0  0  0  0
   -3.8877    0.8064   -0.9063 H   0  0  0  0  0  0  0  0  0  0  0  0
   -3.9937    0.9720    0.8865 H   0  0  0  0  0  0  0  0  0  0  0  0
   -1.4118    0.1831    0.0458 C   0  0  0  0  0  0  0  0  0  0  0  0
   -2.6761   -1.2228   -0.7441 H   0  0  0  0  0  0  0  0  0  0  0  0
   -2.7267   -1.2573    1.0042 H   0  0  0  0  0  0  0  0  0  0  0  0
   -0.1631   -0.7006   -0.0033 C   0  0  0  0  0  0  0  0  0  0  0  0
   -1.3416    0.8530    0.8940 H   0  0  0  0  0  0  0  0  0  0  0  0
   -1.4278    0.8193   -0.8536 H   0  0  0  0  0  0  0  0  0  0  0  0
   -0.0817   -1.2576    0.8342 H   0  0  0  0  0  0  0  0  0  0  0  0
    0.7401   -0.1173   -0.0141 H   0  0  0  0  0  0  0  0  0  0  0  0
   -0.1919   -1.3735   -0.8951 H   0  0  0  0  0  0  0  0  0  0  0  0
  1  2  1  0  0  0  0
  1  5  1  0  0  0  0
  2  8  1  0  0  0  0
  3  1  1  0  0  0  0
  4  1  1  0  0  0  0
  6  2  1  0  0  0  0
  6 10  1  0  0  0  0
  7  2  1  0  0  0  0
  9  6  1  0  0  0  0
  9 12  1  0  0  0  0
 11  6  1  0  0  0  0
 13  9  1  0  0  0  0
 14  9  1  0  0  0  0
M  END
$$$$
