14
butane_opt
C  -4.019837   0.337382  -0.052890
C  -2.696792  -0.745987   0.161617
H  -4.797442  -0.136072   0.292819
H  -4.155955   1.312632  -1.245889
H  -4.171549   0.731425   0.560047
C  -1.290258   0.191245   0.052662
H  -2.495543  -1.139392  -0.629442
H  -2.909878  -1.558578   1.184497
C  -0.212551  -0.643362  -0.084049
H  -1.149382   0.934241   0.953007
H  -1.424544   0.473148  -0.596574
H  -0.557769  -0.852414   0.481225
H   0.788241   0.052604   0.594698
H   0.449333  -1.921942  -1.157190
