butane_opt
 OpenBabel08242015403D

 14 12  0  0  0  0  0  0  0  0999 V2000
   -3.9438    0.2069    0.2015 C   0  0  0  0  0  0  0  0  0  0  0  0
   -2.7575   -0.5610   -0.1649 C   0  0  0  0  0  0  0  0  0  0  0  0
   -4.6884   -0.2279    0.6424 H   0  0  0  0  0  0  0  0  0  0  0  0
   -4.3011    0.9939   -0.8556 H   0  0  0  0  0  0  0  0  0  0  0  0
   -3.7500    0.5923    1.0344 H   0  0  0  0  0  0  0  0  0  0  0  0
   -1.4022    0.2983   -0.1401 C   0  0  0  0  0  0  0  0  0  0  0  0
   -3.0425   -1.7039   -1.2910 H   0  0  0  0  0  0  0  0  0  0  0  0
   -2.7245   -0.8869    0.4138 H   0  0  0  0  0  0  0  0  0  0  0  0
   -0.1252   -0.7695    0.1976 C   0  0  0  0  0  0  0  0  0  0  0  0
   -1.5872    0.6744    0.5474 H   0  0  0  0  0  0  0  0  0  0  0  0
   -1.1235    0.9878   -1.0246 H   0  0  0  0  0  0  0  0  0  0  0  0
   -0.2432   -1.5014    1.1297 H   0  0  0  0  0  0  0  0  0  0  0  0
    0.7501   -0.2838    0.1435 H   0  0  0  0  0  0  0  0  0  0  0  0
    0.4387   -1.1572   -0.4564 H   0  0  0  0  0  0  0  0  0  0  0  0
  1  3  1  0  0  0  0
  1  5  1  0  0  0  0
  2  6  1  0  0  0  0
  2  1  1  0  0  0  0
  2  8  1  0  0  0  0
  4  1  1  0  0  0  0
  6  9  1  0  0  0  0
  6 10  1  0  0  0  0
  9 12  1  0  0  0  0
 11  6  1  0  0  0  0
 13  9  1  0  0  0  0
 14  9  1  0  0  0  0
M  RAD  2   2   2   7   2
M  END
$$$$
