14
butane_opt
C  -3.902315   0.264503   0.180951
C  -2.652020  -0.621468  -0.082465
H  -4.949533  -0.522273   0.075016
H  -4.158907   0.749131  -0.634761
H  -4.030736   1.274562   1.362796
C  -1.423892   0.173813  -0.211041
H  -2.582843  -1.304736  -1.010255
H  -2.567910  -1.222755   0.800596
C  -0.226737  -0.688140   0.180159
H  -1.339689   0.705296   0.475150
H  -1.167968   0.916076  -1.263883
H  -0.769035  -1.144374   1.031414
H   0.638708  -0.117894   0.572229
H   0.432844  -1.398720  -0.766741
