butane_opt
 OpenBabel08242015403D

 14 13  0  0  0  0  0  0  0  0999 V2000
   -4.0092    0.2882    0.1404 C   0  0  0  0  0  0  0  0  0  0  0  0
   -2.6995   -0.6699   -0.1828 C   0  0  0  0  0  0  0  0  0  0  0  0
   -4.7575   -0.1043    0.5599 H   0  0  0  0  0  0  0  0  0  0  0  0
   -4.4596    1.0158   -0.7769 H   0  0  0  0  0  0  0  0  0  0  0  0
   -3.5982    1.0409    1.0402 H   0  0  0  0  0  0  0  0  0  0  0  0
   -1.3084    0.1500   -0.1001 C   0  0  0  0  0  0  0  0  0  0  0  0
   -2.7635   -1.2918   -1.1153 H   0  0  0  0  0  0  0  0  0  0  0  0
   -2.6729   -1.4259    0.7194 H   0  0  0  0  0  0  0  0  0  0  0  0
   -0.1987   -0.6620    0.1804 C   0  0  0  0  0  0  0  0  0  0  0  0
   -1.2714    0.9222    0.7210 H   0  0  0  0  0  0  0  0  0  0  0  0
   -1.2873    0.8012   -0.8990 H   0  0  0  0  0  0  0  0  0  0  0  0
   -0.0209   -1.4413    1.1414 H   0  0  0  0  0  0  0  0  0  0  0  0
    0.6735   -0.2250    0.0928 H   0  0  0  0  0  0  0  0  0  0  0  0
   -0.2735   -1.0155   -0.4436 H   0  0  0  0  0  0  0  0  0  0  0  0
  1  3  1  0  0  0  0
  1  5  1  0  0  0  0
  2  6  1  0  0  0  0
  2  1  1  0  0  0  0
  2  8  1  0  0  0  0
  4  1  1  0  0  0  0
  6  9  1  0  0  0  0
  6 10  1  0  0  0  0
  7  2  1  0  0  0  0
  9 12  1  0  0  0  0
 11  6  1  0  0  0  0
 13  9  1  0  0  0  0
 14  9  1  0  0  0  0
M  END
$$$$
