butane_opt
 OpenBabel08242015403D

 14 13  0  0  0  0  0  0  0  0999 V2000
   -3.9474    0.2759    0.0284 C   0  0  0  0  0  0  0  0  0  0  0  0
   -2.6790   -0.6191    0.0273 C   0  0  0  0  0  0  0  0  0  0  0  0
   -4.8700   -0.3517    0.0109 H   0  0  0  0  0  0  0  0  0  0  0  0
   -4.0066    0.8746   -0.8462 H   0  0  0  0  0  0  0  0  0  0  0  0
   -3.9831    0.9746    0.8981 H   0  0  0  0  0  0  0  0  0  0  0  0
   -1.4029    0.1661   -0.0017 C   0  0  0  0  0  0  0  0  0  0  0  0
   -2.7285   -1.3445   -0.8475 H   0  0  0  0  0  0  0  0  0  0  0  0
   -2.6714   -1.2372    0.8942 H   0  0  0  0  0  0  0  0  0  0  0  0
   -0.1734   -0.6784    0.0423 C   0  0  0  0  0  0  0  0  0  0  0  0
   -1.4079    0.8425    0.8688 H   0  0  0  0  0  0  0  0  0  0  0  0
   -1.3408    0.7681   -0.8551 H   0  0  0  0  0  0  0  0  0  0  0  0
   -0.1384   -1.3744    0.9991 H   0  0  0  0  0  0  0  0  0  0  0  0
    0.7511   -0.0723   -0.0690 H   0  0  0  0  0  0  0  0  0  0  0  0
   -0.1946   -1.2791   -0.7667 H   0  0  0  0  0  0  0  0  0  0  0  0
  1  5  1  0  0  0  0
  2  1  1  0  0  0  0
  2  8  1  0  0  0  0
  3  1  1  0  0  0  0
  4  1  1  0  0  0  0
  6  2  1  0  0  0  0
  6  9  1  0  0  0  0
  6 10  1  0  0  0  0
  7  2  1  0  0  0  0
  9 12  1  0  0  0  0
 11  6  1  0  0  0  0
 13  9  1  0  0  0  0
 14  9  1  0  0  0  0
M  END
$$$$
