14
butane_opt
C  -3.964243   0.355405   0.194454
C  -2.649265  -0.691715  -0.184479
H  -4.881590  -0.478748   0.797688
H  -4.551078   1.109771  -0.760805
H  -3.586082   0.833646   0.872390
C  -1.439901   0.135805  -0.184640
H  -2.582753  -1.526196  -1.196853
H  -2.493673  -1.176391   0.541210
C  -0.182500  -0.624334   0.201916
H  -1.188655   0.754108   0.638089
H  -1.313088   0.406061  -0.990837
H  -0.434450  -1.427284   1.308639
H   0.861158   0.131278   0.459806
H  -0.045264  -1.148431  -0.511062
