butane_opt
 OpenBabel08242015403D

 14 11  0  0  0  0  0  0  0  0999 V2000
   -3.8685    0.2162    0.1758 C   0  0  0  0  0  0  0  0  0  0  0  0
   -2.7329   -0.5072   -0.1327 C   0  0  0  0  0  0  0  0  0  0  0  0
   -4.9490   -0.5652   -0.0795 H   0  0  0  0  0  0  0  0  0  0  0  0
   -3.8997    0.6318   -0.6159 H   0  0  0  0  0  0  0  0  0  0  0  0
   -3.9449    0.8330    1.1114 H   0  0  0  0  0  0  0  0  0  0  0  0
   -1.4856    0.2035   -0.0733 C   0  0  0  0  0  0  0  0  0  0  0  0
   -2.7389   -1.5854   -1.1790 H   0  0  0  0  0  0  0  0  0  0  0  0
   -2.6720   -0.9060    0.5200 H   0  0  0  0  0  0  0  0  0  0  0  0
   -0.1060   -0.7558    0.1556 C   0  0  0  0  0  0  0  0  0  0  0  0
   -1.6767    0.9341    0.8112 H   0  0  0  0  0  0  0  0  0  0  0  0
   -1.4505    1.1125   -1.0862 H   0  0  0  0  0  0  0  0  0  0  0  0
   -0.1146   -1.9095    1.3383 H   0  0  0  0  0  0  0  0  0  0  0  0
    0.8818   -0.1316   -0.5697 H   0  0  0  0  0  0  0  0  0  0  0  0
   -0.1130   -0.7678   -0.2646 H   0  0  0  0  0  0  0  0  0  0  0  0
  1  5  1  0  0  0  0
  2  6  1  0  0  0  0
  2  1  1  0  0  0  0
  2  8  1  0  0  0  0
  3  1  1  0  0  0  0
  4  1  1  0  0  0  0
  6  9  1  0  0  0  0
  6 10  1  0  0  0  0
  7  2  1  0  0  0  0
 11  6  1  0  0  0  0
 13  9  1  0  0  0  0
M  RAD  3   9   3  12   2  14   2
M  END
$$$$
