14
butane_opt
C  -4.045344   0.296304  -0.061295
C  -2.651872  -0.732845   0.177997
H  -4.725104  -0.031192   0.146215
H  -4.265591   1.451817  -1.138118
H  -4.135707   0.592618   0.538673
C  -1.372507   0.168812   0.066813
H  -2.679773  -1.268088  -0.635907
H  -2.628357  -1.432815   1.111318
C  -0.113891  -0.642735  -0.055829
H  -1.433854   0.764684   0.823632
H  -1.089005   0.862233  -0.812788
H  -0.427383  -0.431985   0.279702
H   0.723754  -0.131664   0.714812
H  -0.131627  -1.932186  -1.273582
