butane_opt
 OpenBabel08242015403D

 14 13  0  0  0  0  0  0  0  0999 V2000
   -3.9528    0.3237    0.1509 C   0  0  0  0  0  0  0  0  0  0  0  0
   -2.6828   -0.6696   -0.2030 C   0  0  0  0  0  0  0  0  0  0  0  0
   -4.6726   -0.0618    0.7472 H   0  0  0  0  0  0  0  0  0  0  0  0
   -4.2982    1.0420   -0.8324 H   0  0  0  0  0  0  0  0  0  0  0  0
   -3.6135    0.9084    0.8792 H   0  0  0  0  0  0  0  0  0  0  0  0
   -1.3609    0.1027   -0.0981 C   0  0  0  0  0  0  0  0  0  0  0  0
   -2.8235   -1.2953   -0.9507 H   0  0  0  0  0  0  0  0  0  0  0  0
   -2.3028   -1.4876    0.7439 H   0  0  0  0  0  0  0  0  0  0  0  0
   -0.2757   -0.6145    0.1715 C   0  0  0  0  0  0  0  0  0  0  0  0
   -1.4637    0.6947    0.7333 H   0  0  0  0  0  0  0  0  0  0  0  0
   -1.0048    0.6497   -0.8977 H   0  0  0  0  0  0  0  0  0  0  0  0
   -0.2527   -1.2536    1.1321 H   0  0  0  0  0  0  0  0  0  0  0  0
    0.7521   -0.1018    0.2561 H   0  0  0  0  0  0  0  0  0  0  0  0
   -0.1352   -1.2054   -0.6525 H   0  0  0  0  0  0  0  0  0  0  0  0
  1  3  1  0  0  0  0
  1  5  1  0  0  0  0
  2  6  1  0  0  0  0
  2  1  1  0  0  0  0
  2  8  1  0  0  0  0
  4  1  1  0  0  0  0
  6  9  1  0  0  0  0
  6 10  1  0  0  0  0
  7  2  1  0  0  0  0
  9 13  1  0  0  0  0
  9 12  1  0  0  0  0
 11  6  1  0  0  0  0
 14  9  1  0  0  0  0
M  END
$$$$
