14
butane_opt
C  -3.950517   0.269658  -0.014405
C  -2.685482  -0.622603   0.062146
H  -4.856835  -0.310708  -0.006215
H  -3.922576   0.935647  -0.939290
H  -3.988945   0.928382   0.805884
C  -1.399659   0.176425   0.061561
H  -2.620783  -1.284196  -0.772154
H  -2.716839  -1.292202   0.981114
C  -0.176695  -0.684241   0.001868
H  -1.365762   0.863927   0.949006
H  -1.408399   0.742834  -0.781669
H  -0.093848  -1.344236   0.909711
H   0.761087  -0.069672  -0.177612
H  -0.265497  -1.302956  -0.863423
