14
butane_opt
C  -4.038603   0.235819  -0.033233
C  -2.706747  -0.570992   0.095881
H  -4.947177  -0.347866  -0.288205
H  -3.758380   0.712477  -1.000375
H  -4.217860   0.818620   0.863300
C  -1.383586   0.175112   0.138540
H  -2.595494  -1.299112  -0.796458
H  -2.639333  -0.938035   0.743655
C  -0.106058  -0.701662  -0.041997
H  -1.109890   0.801870   1.001383
H  -1.611401   0.984217  -0.729103
H   0.127967  -1.583395   1.104947
H   0.690838  -0.216992  -0.702080
H  -0.128262  -1.082576  -0.637293
