14
butane_opt
C  -3.911417   0.184985  -0.097423
C  -2.769711  -0.589820   0.210289
H  -4.829435  -0.306585   0.082384
H  -4.108558   1.121526  -1.119029
H  -3.805800   0.567005   0.565691
C  -1.431178   0.361580   0.121352
H  -2.805495  -1.029031  -0.586056
H  -2.904340  -1.247936   1.060731
C  -0.079301  -0.786506  -0.080480
H  -1.253932   0.649964   0.803158
H  -1.419307   1.071487  -0.945609
H  -0.361613  -0.873320   0.397629
H   0.720715  -0.275728   0.756179
H   0.092144  -2.239630  -1.520840
