butane_opt
 OpenBabel08242015403D

 14 12  0  0  0  0  0  0  0  0999 V2000
   -3.8564    0.1716   -0.2035 C   0  0  0  0  0  0  0  0  0  0  0  0
   -2.6834   -0.5529    0.1860 C   0  0  0  0  0  0  0  0  0  0  0  0
   -4.8026   -0.4180   -0.0200 H   0  0  0  0  0  0  0  0  0  0  0  0
   -3.5795    0.9868   -1.1720 H   0  0  0  0  0  0  0  0  0  0  0  0
   -3.9315    0.9546    0.6278 H   0  0  0  0  0  0  0  0  0  0  0  0
   -1.4520    0.2938    0.3538 C   0  0  0  0  0  0  0  0  0  0  0  0
   -2.5892   -1.2074   -0.7380 H   0  0  0  0  0  0  0  0  0  0  0  0
   -3.1697   -1.2366    1.2956 H   0  0  0  0  0  0  0  0  0  0  0  0
   -0.1942   -0.7766   -0.1830 C   0  0  0  0  0  0  0  0  0  0  0  0
   -1.4403    1.0540    1.1452 H   0  0  0  0  0  0  0  0  0  0  0  0
   -1.5597    0.8722   -0.5620 H   0  0  0  0  0  0  0  0  0  0  0  0
    0.2924   -1.8109    0.8929 H   0  0  0  0  0  0  0  0  0  0  0  0
    0.7151   -0.1728   -0.8363 H   0  0  0  0  0  0  0  0  0  0  0  0
   -0.6878   -1.1398   -0.9723 H   0  0  0  0  0  0  0  0  0  0  0  0
  1  3  1  0  0  0  0
  1  2  1  0  0  0  0
  1  5  1  0  0  0  0
  2  6  1  0  0  0  0
  2  8  1  0  0  0  0
  4  1  1  0  0  0  0
  6 10  1  0  0  0  0
  7  2  1  0  0  0  0
  9  6  1  0  0  0  0
 11  6  1  0  0  0  0
 13  9  1  0  0  0  0
 14  9  1  0  0  0  0
M  RAD  2   9   2  12   2
M  END
$$$$
