butane_opt
 OpenBabel08242015403D

 14 12  0  0  0  0  0  0  0  0999 V2000
   -3.9365    0.3415   -0.0947 C   0  0  0  0  0  0  0  0  0  0  0  0
   -2.7098   -0.7047    0.1587 C   0  0  0  0  0  0  0  0  0  0  0  0
   -4.8612   -0.2944   -0.1029 H   0  0  0  0  0  0  0  0  0  0  0  0
   -4.0492    1.2463   -1.3148 H   0  0  0  0  0  0  0  0  0  0  0  0
   -4.1066    0.5164    0.5121 H   0  0  0  0  0  0  0  0  0  0  0  0
   -1.3928    0.1956    0.2073 C   0  0  0  0  0  0  0  0  0  0  0  0
   -2.4295   -1.4586   -0.5860 H   0  0  0  0  0  0  0  0  0  0  0  0
   -2.8645   -1.2463    0.8930 H   0  0  0  0  0  0  0  0  0  0  0  0
   -0.1880   -0.6827   -0.1123 C   0  0  0  0  0  0  0  0  0  0  0  0
   -0.9944    0.9601    1.2606 H   0  0  0  0  0  0  0  0  0  0  0  0
   -1.2843    0.6214   -0.4952 H   0  0  0  0  0  0  0  0  0  0  0  0
    0.0589   -1.3456    0.7203 H   0  0  0  0  0  0  0  0  0  0  0  0
    0.6629   -0.1827   -0.4929 H   0  0  0  0  0  0  0  0  0  0  0  0
   -0.4202   -1.0538   -0.8912 H   0  0  0  0  0  0  0  0  0  0  0  0
  1  2  1  0  0  0  0
  1  5  1  0  0  0  0
  2  6  1  0  0  0  0
  2  8  1  0  0  0  0
  3  1  1  0  0  0  0
  6 10  1  0  0  0  0
  7  2  1  0  0  0  0
  9  6  1  0  0  0  0
  9 12  1  0  0  0  0
 11  6  1  0  0  0  0
 13  9  1  0  0  0  0
 14  9  1  0  0  0  0
M  RAD  2   1   2   4   2
M  END
$$$$
