14
butane_opt
C  -3.937083   0.293704   0.081273
C  -2.637711  -0.655257  -0.102070
H  -4.817034  -0.182312   0.031631
H  -4.385527   0.788460  -0.745718
H  -3.718071   1.051952   1.092619
C  -1.379089   0.107153  -0.013845
H  -2.698961  -1.391980  -1.025341
H  -2.482173  -1.379987   0.835454
C  -0.212605  -0.616680   0.111323
H  -1.578493   0.920883   0.977700
H  -1.273081   0.810104  -0.893887
H  -0.112978  -1.727502   1.254890
H   0.424619  -0.193371  -0.432935
H  -0.371460  -0.722862  -0.560089
