butane_opt
 OpenBabel08242015403D

 14 10  0  0  0  0  0  0  0  0999 V2000
   -3.9407    0.2571   -0.0853 C   0  0  0  0  0  0  0  0  0  0  0  0
   -2.6550   -0.5780    0.0657 C   0  0  0  0  0  0  0  0  0  0  0  0
   -4.8592   -0.3347    0.6565 H   0  0  0  0  0  0  0  0  0  0  0  0
   -4.4874    1.3611   -1.2347 H   0  0  0  0  0  0  0  0  0  0  0  0
   -3.4258    0.4754    0.5715 H   0  0  0  0  0  0  0  0  0  0  0  0
   -1.4017    0.1407    0.1029 C   0  0  0  0  0  0  0  0  0  0  0  0
   -2.6330   -1.3292   -0.8247 H   0  0  0  0  0  0  0  0  0  0  0  0
   -2.6309   -1.4526    1.1549 H   0  0  0  0  0  0  0  0  0  0  0  0
   -0.2061   -0.6450   -0.0197 C   0  0  0  0  0  0  0  0  0  0  0  0
   -1.3000    0.9298    1.0258 H   0  0  0  0  0  0  0  0  0  0  0  0
   -1.4405    0.7707   -0.5889 H   0  0  0  0  0  0  0  0  0  0  0  0
   -0.2445   -0.9877    0.7026 H   0  0  0  0  0  0  0  0  0  0  0  0
    0.6458   -0.2719    0.2336 H   0  0  0  0  0  0  0  0  0  0  0  0
   -0.1801   -1.7269   -1.1340 H   0  0  0  0  0  0  0  0  0  0  0  0
  1  5  1  0  0  0  0
  1  3  1  0  0  0  0
  2  6  1  0  0  0  0
  2  8  1  0  0  0  0
  6 10  1  0  0  0  0
  7  2  1  0  0  0  0
  9  6  1  0  0  0  0
  9 13  1  0  0  0  0
  9 12  1  0  0  0  0
 11  6  1  0  0  0  0
M  RAD  5   1   3   2   2   4   2   9   2  14   2
M  END
$$$$
