14
butane_opt
C  -3.940706   0.257096  -0.085341
C  -2.654969  -0.578037   0.065741
H  -4.859176  -0.334730   0.656505
H  -4.487382   1.361108  -1.234739
H  -3.425841   0.475394   0.571517
C  -1.401655   0.140697   0.102890
H  -2.633004  -1.329168  -0.824691
H  -2.630935  -1.452612   1.154879
C  -0.206111  -0.645021  -0.019656
H  -1.300026   0.929797   1.025826
H  -1.440452   0.770705  -0.588873
H  -0.244471  -0.987677   0.702604
H   0.645821  -0.271870   0.233585
H  -0.180134  -1.726904  -1.134000
