14
butane_opt
C  -4.031355   0.337938  -0.199036
C  -2.603900  -0.734076   0.289032
H  -4.761084  -0.217319  -0.256664
H  -3.715431   0.986936  -1.189411
H  -4.353487   0.981627   0.654064
C  -1.347314   0.170793   0.262311
H  -2.571596  -1.549995  -0.702851
H  -2.655107  -1.271892   1.146675
C  -0.224776  -0.623754  -0.174404
H  -1.140776   0.776412   1.029226
H  -1.712738   0.544249  -0.610900
H   0.004184  -1.308054   0.805506
H   0.758549  -0.027459  -0.434616
H  -0.429176  -1.136164  -1.101900
