butane_opt
 OpenBabel08242015403D

 14 10  0  0  0  0  0  0  0  0999 V2000
   -3.9227    0.3598    0.1160 C   0  0  0  0  0  1  0  0  0  0  0  0
   -2.6800   -0.6861   -0.0757 C   0  0  0  0  0  0  0  0  0  0  0  0
   -4.8520   -0.3602   -0.3743 H   0  0  0  0  0  0  0  0  0  0  0  0
   -3.7549    0.2796   -0.3712 H   0  0  0  0  0  0  0  0  0  0  0  0
   -4.0280    1.5877    1.3726 H   0  0  0  0  0  0  0  0  0  0  0  0
   -1.4127    0.1160   -0.1121 C   0  0  0  0  0  0  0  0  0  0  0  0
   -2.4558   -1.2579   -0.7799 H   0  0  0  0  0  0  0  0  0  0  0  0
   -2.5489   -1.4587    0.7712 H   0  0  0  0  0  0  0  0  0  0  0  0
   -0.2741   -0.6443    0.1220 C   0  0  0  0  0  0  0  0  0  0  0  0
   -1.1836    0.5935    0.6644 H   0  0  0  0  0  0  0  0  0  0  0  0
   -1.3572    0.8736   -1.0660 H   0  0  0  0  0  0  0  0  0  0  0  0
   -0.1958   -1.6004    1.4272 H   0  0  0  0  0  0  0  0  0  0  0  0
    0.9572    0.1782   -0.1293 H   0  0  0  0  0  0  0  0  0  0  0  0
   -0.2049   -1.0107   -0.5484 H   0  0  0  0  0  0  0  0  0  0  0  0
  2  8  1  0  0  0  0
  3  1  1  0  0  0  0
  4  2  1  0  0  0  0
  6  2  1  0  0  0  0
  6  9  1  0  0  0  0
  6 10  1  0  0  0  0
  7  2  1  0  0  0  0
 11  6  1  0  0  0  0
 13  9  1  0  0  0  0
 14  9  1  0  0  0  0
M  RAD  3   5   2   9   2  12   2
M  END
$$$$
