14
butane_opt
C  -3.939046   0.209795   0.061032
C  -2.778082  -0.571030  -0.099801
H  -4.862505  -0.475330   0.088612
H  -4.014242   0.662413  -0.814890
H  -3.939400   1.101936   1.187349
C  -1.378023   0.324975   0.029314
H  -2.841524  -1.209113  -1.019196
H  -2.611696  -1.364348   0.931441
C  -0.102134  -0.764464   0.079153
H  -1.486579   0.925762   0.784924
H  -1.200673   0.865442  -0.837365
H   0.092807  -1.896643   1.369698
H   0.624873  -0.297367  -0.556609
H  -0.339148  -1.188367  -0.489416
