butane_opt
 OpenBabel08242015403D

 14 12  0  0  0  0  0  0  0  0999 V2000
   -3.9872    0.1796    0.0880 C   0  0  0  0  0  0  0  0  0  0  0  0
   -2.7588   -0.5405    0.0394 C   0  0  0  0  0  0  0  0  0  0  0  0
   -4.8230   -0.3717   -0.2886 H   0  0  0  0  0  0  0  0  0  0  0  0
   -3.8551    0.5190   -0.5609 H   0  0  0  0  0  0  0  0  0  0  0  0
   -4.2428    1.2462    1.2994 H   0  0  0  0  0  0  0  0  0  0  0  0
   -1.4111    0.2438   -0.1449 C   0  0  0  0  0  0  0  0  0  0  0  0
   -2.8510   -1.3796   -0.9399 H   0  0  0  0  0  0  0  0  0  0  0  0
   -2.5667   -0.9736    0.6983 H   0  0  0  0  0  0  0  0  0  0  0  0
   -0.0164   -0.7479    0.1374 C   0  0  0  0  0  0  0  0  0  0  0  0
   -1.3556    0.6795    0.4951 H   0  0  0  0  0  0  0  0  0  0  0  0
   -1.6239    1.0769   -1.0943 H   0  0  0  0  0  0  0  0  0  0  0  0
   -0.3365   -1.2455    0.8761 H   0  0  0  0  0  0  0  0  0  0  0  0
    0.7299   -0.2867    0.1465 H   0  0  0  0  0  0  0  0  0  0  0  0
    0.0608   -1.3908   -0.5865 H   0  0  0  0  0  0  0  0  0  0  0  0
  2  1  1  0  0  0  0
  2  8  1  0  0  0  0
  3  1  1  0  0  0  0
  4  1  1  0  0  0  0
  6  2  1  0  0  0  0
  6  9  1  0  0  0  0
  6 10  1  0  0  0  0
  7  2  1  0  0  0  0
  9 13  1  0  0  0  0
  9 12  1  0  0  0  0
 11  6  1  0  0  0  0
 14  9  1  0  0  0  0
M  RAD  2   1   2   5   2
M  END
$$$$
