14
butane_opt
C  -3.897320   0.207624  -0.159097
C  -2.686772  -0.497314   0.183316
H  -4.886741  -0.426676  -0.140243
H  -3.854231   0.921978  -1.139190
H  -3.948259   0.667163   0.454644
C  -1.459817   0.191092   0.311063
H  -2.290812  -1.373927  -0.741028
H  -2.910754  -1.162176   1.157443
C  -0.186660  -0.739679  -0.181590
H  -1.445223   0.798842   1.276055
H  -1.521621   0.797582  -0.582150
H   0.302439  -1.586398   0.841343
H   0.856325   0.006028  -0.726442
H  -0.549438  -1.023469  -0.789828
