butane_opt
 OpenBabel08242015403D

 14 13  0  0  0  0  0  0  0  0999 V2000
   -3.9602    0.2518    0.1838 C   0  0  0  0  0  0  0  0  0  0  0  0
   -2.7905   -0.5922   -0.2055 C   0  0  0  0  0  0  0  0  0  0  0  0
   -4.8849   -0.2428    0.8625 H   0  0  0  0  0  0  0  0  0  0  0  0
   -4.1533    1.0015   -0.9106 H   0  0  0  0  0  0  0  0  0  0  0  0
   -3.5342    0.7211    1.0012 H   0  0  0  0  0  0  0  0  0  0  0  0
   -1.3803    0.1949   -0.0800 C   0  0  0  0  0  0  0  0  0  0  0  0
   -2.9310   -1.5946   -1.3212 H   0  0  0  0  0  0  0  0  0  0  0  0
   -2.4745   -0.8772    0.3728 H   0  0  0  0  0  0  0  0  0  0  0  0
   -0.1008   -0.7576    0.1888 C   0  0  0  0  0  0  0  0  0  0  0  0
   -1.4827    0.6937    0.6697 H   0  0  0  0  0  0  0  0  0  0  0  0
   -1.2683    1.2412   -1.1568 H   0  0  0  0  0  0  0  0  0  0  0  0
   -0.2864   -1.5528    1.1938 H   0  0  0  0  0  0  0  0  0  0  0  0
    0.7765   -0.0731    0.1482 H   0  0  0  0  0  0  0  0  0  0  0  0
    0.0020   -0.9495   -0.4355 H   0  0  0  0  0  0  0  0  0  0  0  0
  1  3  1  0  0  0  0
  1  5  1  0  0  0  0
  2  6  1  0  0  0  0
  2  1  1  0  0  0  0
  2  8  1  0  0  0  0
  4  1  1  0  0  0  0
  6  9  1  0  0  0  0
  6 10  1  0  0  0  0
  7  2  1  0  0  0  0
  9 12  1  0  0  0  0
 11  6  1  0  0  0  0
 13  9  1  0  0  0  0
 14  9  1  0  0  0  0
M  END
$$$$
