14
butane_opt
C  -3.930087   0.335877   0.205754
C  -2.734059  -0.719076  -0.109937
H  -4.937581  -0.238597   0.168132
H  -4.222534   0.957467  -0.507581
H  -4.011449   1.048927   1.179992
C  -1.341231   0.180194  -0.241269
H  -2.737251  -1.488140  -1.017648
H  -2.633882  -1.278935   0.705834
C  -0.181409  -0.650327   0.233186
H  -1.579051   0.597279   0.295960
H  -1.088162   0.895315  -1.214489
H  -0.526062  -0.925934   1.036331
H   0.723772  -0.152365   0.590504
H   0.229284  -1.668358  -0.894637
