14
butane_opt
C  -3.856272   0.212538   0.113715
C  -2.663271  -0.562526  -0.065275
H  -4.963321  -0.515283   0.622117
H  -3.865526   0.975830  -0.904025
H  -3.716012   0.690238   1.008152
C  -1.493766   0.210489  -0.082803
H  -2.804508  -1.507795  -1.121361
H  -2.764763  -0.885864   0.463880
C  -0.182122  -0.695350   0.107794
H  -1.494148   0.972633   0.827218
H  -1.379048   1.085812  -1.111427
H  -0.275199  -1.611269   1.297658
H   0.400338  -0.336839   0.239457
H   0.195596  -1.378321  -0.732618
