butane_opt
 OpenBabel08242015403D

 14 13  0  0  0  0  0  0  0  0999 V2000
   -3.9529    0.2534   -0.0148 C   0  0  0  0  0  0  0  0  0  0  0  0
   -2.7024   -0.5981    0.0633 C   0  0  0  0  0  0  0  0  0  0  0  0
   -4.8862   -0.3680    0.0461 H   0  0  0  0  0  0  0  0  0  0  0  0
   -3.9270    0.9132   -0.9353 H   0  0  0  0  0  0  0  0  0  0  0  0
   -3.9598    0.8784    0.7933 H   0  0  0  0  0  0  0  0  0  0  0  0
   -1.4018    0.1980    0.0598 C   0  0  0  0  0  0  0  0  0  0  0  0
   -2.7079   -1.3017   -0.8072 H   0  0  0  0  0  0  0  0  0  0  0  0
   -2.7277   -1.2781    0.9871 H   0  0  0  0  0  0  0  0  0  0  0  0
   -0.1529   -0.7064   -0.0000 C   0  0  0  0  0  0  0  0  0  0  0  0
   -1.4173    0.8775    0.9057 H   0  0  0  0  0  0  0  0  0  0  0  0
   -1.4221    0.8489   -0.8142 H   0  0  0  0  0  0  0  0  0  0  0  0
   -0.0109   -1.3125    0.8827 H   0  0  0  0  0  0  0  0  0  0  0  0
    0.7531   -0.1188   -0.0625 H   0  0  0  0  0  0  0  0  0  0  0  0
   -0.1943   -1.3729   -0.8589 H   0  0  0  0  0  0  0  0  0  0  0  0
  1  3  1  0  0  0  0
  1  2  1  0  0  0  0
  1  5  1  0  0  0  0
  2  8  1  0  0  0  0
  4  1  1  0  0  0  0
  6  2  1  0  0  0  0
  6 10  1  0  0  0  0
  7  2  1  0  0  0  0
  9  6  1  0  0  0  0
  9 12  1  0  0  0  0
 11  6  1  0  0  0  0
 13  9  1  0  0  0  0
 14  9  1  0  0  0  0
M  END
$$$$
