butane_opt
 OpenBabel08242015403D

 14 13  0  0  0  0  0  0  0  0999 V2000
   -3.9506    0.2958    0.0905 C   0  0  0  0  0  0  0  0  0  0  0  0
   -2.6590   -0.6419   -0.0974 C   0  0  0  0  0  0  0  0  0  0  0  0
   -4.7663   -0.2658    0.4430 H   0  0  0  0  0  0  0  0  0  0  0  0
   -4.2316    0.9346   -0.7695 H   0  0  0  0  0  0  0  0  0  0  0  0
   -3.7669    1.2114    1.0403 H   0  0  0  0  0  0  0  0  0  0  0  0
   -1.4087    0.0640   -0.0307 C   0  0  0  0  0  0  0  0  0  0  0  0
   -2.5785   -1.4747   -1.0846 H   0  0  0  0  0  0  0  0  0  0  0  0
   -2.7757   -1.0720    0.4967 H   0  0  0  0  0  0  0  0  0  0  0  0
   -0.1874   -0.6103    0.1449 C   0  0  0  0  0  0  0  0  0  0  0  0
   -1.6301    0.6043    0.6674 H   0  0  0  0  0  0  0  0  0  0  0  0
   -1.4857    0.7245   -0.9626 H   0  0  0  0  0  0  0  0  0  0  0  0
    0.0328   -1.5423    1.1911 H   0  0  0  0  0  0  0  0  0  0  0  0
    0.9480    0.1076   -0.3519 H   0  0  0  0  0  0  0  0  0  0  0  0
   -0.3658   -0.9084   -0.4327 H   0  0  0  0  0  0  0  0  0  0  0  0
  1  3  1  0  0  0  0
  1  5  1  0  0  0  0
  2  6  1  0  0  0  0
  2  1  1  0  0  0  0
  2  8  1  0  0  0  0
  4  1  1  0  0  0  0
  6  9  1  0  0  0  0
  6 10  1  0  0  0  0
  7  2  1  0  0  0  0
  9 12  1  0  0  0  0
 11  6  1  0  0  0  0
 13  9  1  0  0  0  0
 14  9  1  0  0  0  0
M  END
$$$$
