14
butane_opt
C  -3.910503   0.234467  -0.044164
C  -2.709353  -0.619302   0.110468
H  -4.979020  -0.375147   0.156655
H  -3.782268   1.109091  -1.042905
H  -4.070879   0.919246   0.776783
C  -1.427177   0.237409   0.014137
H  -2.632762  -0.860718  -0.353402
H  -2.926962  -1.662829   1.226273
C  -0.184535  -0.712606  -0.005675
H  -1.354350   0.877989   0.877213
H  -1.254007   0.736153  -0.744341
H  -0.023672  -0.708380   0.255582
H   0.581404  -0.195574   0.608829
H   0.203134  -2.015861  -1.278540
