butane_opt
 OpenBabel08242015403D

 14 10  0  0  0  0  0  0  0  0999 V2000
   -3.9540    0.1849   -0.1432 C   0  0  0  0  0  0  0  0  0  0  0  0
   -2.7232   -0.5671    0.2121 C   0  0  0  0  0  0  0  0  0  0  0  0
   -4.7925   -0.3366   -0.2482 H   0  0  0  0  0  0  0  0  0  0  0  0
   -3.8509    1.1590   -1.3506 H   0  0  0  0  0  0  0  0  0  0  0  0
   -4.2159    0.5404    0.4614 H   0  0  0  0  0  0  0  0  0  0  0  0
   -1.4394    0.3069    0.2275 C   0  0  0  0  0  0  0  0  0  0  0  0
   -2.8456   -1.2545   -0.5704 H   0  0  0  0  0  0  0  0  0  0  0  0
   -3.0650   -1.3307    1.1340 H   0  0  0  0  0  0  0  0  0  0  0  0
   -0.0564   -0.7312   -0.1385 C   0  0  0  0  0  0  0  0  0  0  0  0
   -1.2504    1.5527    1.3964 H   0  0  0  0  0  0  0  0  0  0  0  0
   -1.6262    0.4434   -0.4038 H   0  0  0  0  0  0  0  0  0  0  0  0
    0.3714   -1.8011    0.9565 H   0  0  0  0  0  0  0  0  0  0  0  0
    0.7907   -0.3741   -0.7510 H   0  0  0  0  0  0  0  0  0  0  0  0
   -0.4463   -1.3787   -1.0951 H   0  0  0  0  0  0  0  0  0  0  0  0
  1  2  1  0  0  0  0
  1  5  1  0  0  0  0
  2  6  1  0  0  0  0
  2  8  1  0  0  0  0
  3  1  1  0  0  0  0
  7  2  1  0  0  0  0
  9  6  1  0  0  0  0
 11  6  1  0  0  0  0
 13  9  1  0  0  0  0
 14  9  1  0  0  0  0
M  RAD  6   1   2   4   2   6   2   9   2  10   2  12   2
M  END
$$$$
