butane_opt
 OpenBabel08242015403D

 14 10  0  0  0  0  0  0  0  0999 V2000
   -3.8822    0.2370    0.0446 C   0  0  0  0  0  0  0  0  0  0  0  0
   -2.7106   -0.6065    0.0450 C   0  0  0  0  0  0  0  0  0  0  0  0
   -4.9560   -0.5406   -0.2869 H   0  0  0  0  0  0  0  0  0  0  0  0
   -3.7863    0.2239   -0.4950 H   0  0  0  0  0  0  0  0  0  0  0  0
   -3.9842    1.6056    1.3367 H   0  0  0  0  0  0  0  0  0  0  0  0
   -1.4924    0.2421   -0.1340 C   0  0  0  0  0  0  0  0  0  0  0  0
   -2.8954   -1.1013   -0.7747 H   0  0  0  0  0  0  0  0  0  0  0  0
   -2.6465   -1.1206    0.9437 H   0  0  0  0  0  0  0  0  0  0  0  0
   -0.1221   -0.7622    0.0884 C   0  0  0  0  0  0  0  0  0  0  0  0
   -1.4006    0.7863    0.6720 H   0  0  0  0  0  0  0  0  0  0  0  0
   -1.4983    0.8526   -0.9931 H   0  0  0  0  0  0  0  0  0  0  0  0
   -0.3374   -1.3767    1.0947 H   0  0  0  0  0  0  0  0  0  0  0  0
    0.8186   -0.0410    0.1471 H   0  0  0  0  0  0  0  0  0  0  0  0
    0.1760   -1.1332   -0.6548 H   0  0  0  0  0  0  0  0  0  0  0  0
  1  2  1  0  0  0  0
  2  8  1  0  0  0  0
  3  1  1  0  0  0  0
  6  9  1  0  0  0  0
  6 10  1  0  0  0  0
  7  2  1  0  0  0  0
  9 13  1  0  0  0  0
  9 12  1  0  0  0  0
 11  6  1  0  0  0  0
 14  9  1  0  0  0  0
M  RAD  5   1   3   2   2   4   2   5   2   6   2
M  END
$$$$
