butane_opt
 OpenBabel08242015403D

 14 10  0  0  0  0  0  0  0  0999 V2000
   -3.9146    0.3154   -0.1142 C   0  0  0  0  0  0  0  0  0  0  0  0
   -2.6438   -0.6474    0.1925 C   0  0  0  0  0  0  0  0  0  0  0  0
   -4.9312   -0.3217   -0.0171 H   0  0  0  0  0  0  0  0  0  0  0  0
   -3.7946    1.4042   -1.1801 H   0  0  0  0  0  0  0  0  0  0  0  0
   -3.9920    0.6625    0.4489 H   0  0  0  0  0  0  0  0  0  0  0  0
   -1.4085    0.0885    0.1626 C   0  0  0  0  0  0  0  0  0  0  0  0
   -2.5650   -1.0513   -0.4384 H   0  0  0  0  0  0  0  0  0  0  0  0
   -2.9007   -1.4654    1.2593 H   0  0  0  0  0  0  0  0  0  0  0  0
   -0.1815   -0.6460   -0.1039 C   0  0  0  0  0  1  0  0  0  0  0  0
   -1.5267    0.6423    1.1001 H   0  0  0  0  0  0  0  0  0  0  0  0
   -1.3666    0.6736   -0.6742 H   0  0  0  0  0  0  0  0  0  0  0  0
   -0.4360   -0.5398    0.3448 H   0  0  0  0  0  0  0  0  0  0  0  0
    0.7795    0.0146    0.1743 H   0  0  0  0  0  0  0  0  0  0  0  0
   -0.5116   -1.8204   -1.3561 H   0  0  0  0  0  0  0  0  0  0  0  0
  1  3  1  0  0  0  0
  1  2  1  0  0  0  0
  1  5  1  0  0  0  0
  2  8  1  0  0  0  0
  6  2  1  0  0  0  0
  6 12  1  0  0  0  0
  6 10  1  0  0  0  0
  7  2  1  0  0  0  0
  9 13  1  0  0  0  0
 11  6  1  0  0  0  0
M  RAD  3   1   2   4   2  14   2
M  END
$$$$
