14
butane_opt
C  -3.937743   0.172345  -0.106441
C  -2.684480  -0.516982   0.223886
H  -5.042521  -0.536823  -0.700936
H  -3.715962   0.688229  -0.934150
H  -4.239630   1.057058   1.016422
C  -1.439464   0.249420   0.115886
H  -3.032287  -1.093861  -0.595262
H  -2.824364  -1.042246   0.973264
C  -0.103722  -0.768588  -0.070232
H  -1.539154   0.895114   0.965798
H  -1.619317   0.843890  -0.729339
H   0.321146  -1.422716   0.776274
H   0.884311  -0.184562  -0.449486
H  -0.200025  -1.325195  -0.853149
