butane_opt
 OpenBabel08242015403D

 14 13  0  0  0  0  0  0  0  0999 V2000
   -3.9584    0.2702    0.0268 C   0  0  0  0  0  0  0  0  0  0  0  0
   -2.7049   -0.6239    0.0101 C   0  0  0  0  0  0  0  0  0  0  0  0
   -4.8439   -0.2927    0.1772 H   0  0  0  0  0  0  0  0  0  0  0  0
   -4.0367    0.9520   -0.9156 H   0  0  0  0  0  0  0  0  0  0  0  0
   -3.9109    0.8116    0.8343 H   0  0  0  0  0  0  0  0  0  0  0  0
   -1.4064    0.1905    0.0096 C   0  0  0  0  0  0  0  0  0  0  0  0
   -2.7411   -1.2984   -0.8033 H   0  0  0  0  0  0  0  0  0  0  0  0
   -2.6787   -1.2685    0.9083 H   0  0  0  0  0  0  0  0  0  0  0  0
   -0.1464   -0.6913    0.0400 C   0  0  0  0  0  0  0  0  0  0  0  0
   -1.3834    0.8752    0.8687 H   0  0  0  0  0  0  0  0  0  0  0  0
   -1.3870    0.7841   -0.8576 H   0  0  0  0  0  0  0  0  0  0  0  0
   -0.1143   -1.2945    0.9250 H   0  0  0  0  0  0  0  0  0  0  0  0
    0.7801   -0.0943    0.0816 H   0  0  0  0  0  0  0  0  0  0  0  0
   -0.1247   -1.3790   -0.8276 H   0  0  0  0  0  0  0  0  0  0  0  0
  1  3  1  0  0  0  0
  1  5  1  0  0  0  0
  2  1  1  0  0  0  0
  2  8  1  0  0  0  0
  4  1  1  0  0  0  0
  6  2  1  0  0  0  0
  6  9  1  0  0  0  0
  6 10  1  0  0  0  0
  7  2  1  0  0  0  0
  9 13  1  0  0  0  0
  9 12  1  0  0  0  0
 11  6  1  0  0  0  0
 14  9  1  0  0  0  0
M  END
$$$$
