butane_opt
 OpenBabel08242015403D

 14  9  0  0  0  0  0  0  0  0999 V2000
   -3.9466    0.1934    0.1546 C   0  0  0  0  0  0  0  0  0  0  0  0
   -2.6868   -0.5264   -0.0605 C   0  0  0  0  0  0  0  0  0  0  0  0
   -4.9892   -0.3069   -0.1161 H   0  0  0  0  0  0  0  0  0  0  0  0
   -3.9150    0.3187   -0.4219 H   0  0  0  0  0  0  0  0  0  0  0  0
   -3.8647    1.1990    1.3230 H   0  0  0  0  0  0  0  0  0  0  0  0
   -1.4538    0.2324   -0.1730 C   0  0  0  0  0  0  0  0  0  0  0  0
   -2.8247   -1.2657   -1.0632 H   0  0  0  0  0  0  0  0  0  0  0  0
   -2.5741   -1.1460    0.7607 H   0  0  0  0  0  0  0  0  0  0  0  0
   -0.1499   -0.7394    0.1628 C   0  0  0  0  0  0  0  0  0  0  0  0
   -1.5237    0.5141    0.3232 H   0  0  0  0  0  0  0  0  0  0  0  0
   -1.2176    1.3356   -1.3336 H   0  0  0  0  0  0  0  0  0  0  0  0
   -0.2013   -1.3444    1.1537 H   0  0  0  0  0  0  0  0  0  0  0  0
    0.8356   -0.0698    0.5927 H   0  0  0  0  0  0  0  0  0  0  0  0
    0.1120   -1.6728   -0.7398 H   0  0  0  0  0  0  0  0  0  0  0  0
  2  1  1  0  0  0  0
  2  8  1  0  0  0  0
  3  1  1  0  0  0  0
  6  2  1  0  0  0  0
  6  9  1  0  0  0  0
  7  2  1  0  0  0  0
  9 13  1  0  0  0  0
  9 12  1  0  0  0  0
 14  9  1  0  0  0  0
M  RAD  6   1   3   4   2   5   2   6   3  10   2  11   2
M  END
$$$$
