14
butane_opt
C  -3.869768   0.239505  -0.094381
C  -2.712316  -0.541344   0.196075
H  -5.062342  -0.629493  -0.368961
H  -3.782170   0.594936  -0.923964
H  -3.874763   0.892515   0.685066
C  -1.403128   0.258242   0.105911
H  -2.827653  -1.201381  -0.655759
H  -2.662293  -1.310599   1.155485
C  -0.207630  -0.763163  -0.035628
H  -1.431428   0.900282   0.890174
H  -1.432144   1.144802  -0.834561
H   0.194690  -1.317105   0.664273
H   0.567590  -0.089584  -0.041271
H  -0.364019  -1.849834  -1.230668
