butane_opt
 OpenBabel08242015403D

 14 11  0  0  0  0  0  0  0  0999 V2000
   -3.9213    0.3000   -0.1065 C   0  0  0  0  0  1  0  0  0  0  0  0
   -2.6494   -0.6622    0.0778 C   0  0  0  0  0  0  0  0  0  0  0  0
   -4.8168   -0.4307    0.7854 H   0  0  0  0  0  0  0  0  0  0  0  0
   -4.2292    1.4396   -1.3469 H   0  0  0  0  0  0  0  0  0  0  0  0
   -3.6370    0.3651    0.3979 H   0  0  0  0  0  0  0  0  0  0  0  0
   -1.3897    0.2092    0.1474 C   0  0  0  0  0  0  0  0  0  0  0  0
   -2.5346   -1.2270   -0.6829 H   0  0  0  0  0  0  0  0  0  0  0  0
   -2.7287   -1.4786    1.0966 H   0  0  0  0  0  0  0  0  0  0  0  0
   -0.2482   -0.6934   -0.0447 C   0  0  0  0  0  0  0  0  0  0  0  0
   -1.6409    1.1080    1.3070 H   0  0  0  0  0  0  0  0  0  0  0  0
   -1.2563    0.5017   -0.5056 H   0  0  0  0  0  0  0  0  0  0  0  0
   -0.0641   -0.8339    0.6202 H   0  0  0  0  0  0  0  0  0  0  0  0
    0.6526   -0.2009   -0.2138 H   0  0  0  0  0  0  0  0  0  0  0  0
   -0.2669   -1.5202   -1.0401 H   0  0  0  0  0  0  0  0  0  0  0  0
  1  3  1  0  0  0  0
  2  6  1  0  0  0  0
  2  5  1  0  0  0  0
  2  8  1  0  0  0  0
  6 10  1  0  0  0  0
  7  2  1  0  0  0  0
  9  6  1  0  0  0  0
  9 12  1  0  0  0  0
 11  6  1  0  0  0  0
 13  9  1  0  0  0  0
 14  9  1  0  0  0  0
M  RAD  1   4   2
M  END
$$$$
