14
butane_opt
C  -3.906395   0.315948  -0.171263
C  -2.707847  -0.690809   0.183235
H  -4.819559  -0.106697   0.576094
H  -4.230071   1.619152  -1.513073
H  -3.860731   0.433515   0.371270
C  -1.359561   0.111455   0.215529
H  -2.726463  -1.443431  -0.790007
H  -2.726892  -1.357821   1.145058
C  -0.172301  -0.624372  -0.146023
H  -1.234593   1.135245   1.475535
H  -1.680505   0.520539  -0.443687
H  -0.159974  -1.131293   0.640266
H   0.619764  -0.163278  -0.018994
H  -0.452937  -1.300344  -1.048338
