butane_opt
 OpenBabel08242015403D

 14 11  0  0  0  0  0  0  0  0999 V2000
   -3.8789    0.3034    0.1310 C   0  0  0  0  0  0  0  0  0  0  0  0
   -2.6568   -0.7057   -0.0879 C   0  0  0  0  0  0  0  0  0  0  0  0
   -4.7346   -0.2477    0.1978 H   0  0  0  0  0  0  0  0  0  0  0  0
   -4.1435    0.9586   -0.6797 H   0  0  0  0  0  0  0  0  0  0  0  0
   -3.7776    1.2634    1.2878 H   0  0  0  0  0  0  0  0  0  0  0  0
   -1.4342    0.1225   -0.1171 C   0  0  0  0  0  0  0  0  0  0  0  0
   -2.7966   -1.4585   -0.9755 H   0  0  0  0  0  0  0  0  0  0  0  0
   -2.5527   -1.3055    0.8128 H   0  0  0  0  0  0  0  0  0  0  0  0
   -0.1950   -0.6369    0.1522 C   0  0  0  0  0  0  0  0  0  0  0  0
   -1.5721    0.5010    0.3653 H   0  0  0  0  0  0  0  0  0  0  0  0
   -1.4743    1.2283   -1.3525 H   0  0  0  0  0  0  0  0  0  0  0  0
   -0.5192   -1.0018    1.0127 H   0  0  0  0  0  0  0  0  0  0  0  0
    0.7214    0.0283    0.7753 H   0  0  0  0  0  0  0  0  0  0  0  0
   -0.2030   -1.4485   -0.9206 H   0  0  0  0  0  0  0  0  0  0  0  0
  1  3  1  0  0  0  0
  1  5  1  0  0  0  0
  2  1  1  0  0  0  0
  2  8  1  0  0  0  0
  4  1  1  0  0  0  0
  6  2  1  0  0  0  0
  6  9  1  0  0  0  0
  7  2  1  0  0  0  0
  9 13  1  0  0  0  0
  9 12  1  0  0  0  0
 14  9  1  0  0  0  0
M  RAD  3   6   3  10   2  11   2
M  END
$$$$
