14
butane_opt
C  -3.979014   0.185957   0.081665
C  -2.704831  -0.585279  -0.051984
H  -4.860868  -0.290946   0.186868
H  -3.898480   0.791880  -0.844914
H  -4.123370   1.037048   0.954302
C  -1.427483   0.303358  -0.060881
H  -2.953310  -1.357328  -0.857833
H  -2.569025  -1.130972   0.785350
C  -0.096327  -0.718883   0.084186
H  -1.427792   1.044076   0.815384
H  -1.226944   0.550523  -0.658197
H   0.013702  -1.852477   1.252952
H   0.624426  -0.353364  -0.227112
H  -0.067840  -1.135756  -0.564051
