butane_opt
 OpenBabel08242015403D

 14 13  0  0  0  0  0  0  0  0999 V2000
   -3.9245    0.1944    0.1616 C   0  0  0  0  0  0  0  0  0  0  0  0
   -2.6634   -0.4815   -0.0566 C   0  0  0  0  0  0  0  0  0  0  0  0
   -5.0706   -0.6060    0.0456 H   0  0  0  0  0  0  0  0  0  0  0  0
   -4.0778    0.7480   -0.5762 H   0  0  0  0  0  0  0  0  0  0  0  0
   -3.7243    0.7348    1.0241 H   0  0  0  0  0  0  0  0  0  0  0  0
   -1.4511    0.2028   -0.2040 C   0  0  0  0  0  0  0  0  0  0  0  0
   -2.9327   -1.2714   -0.8315 H   0  0  0  0  0  0  0  0  0  0  0  0
   -2.6768   -1.0840    0.8258 H   0  0  0  0  0  0  0  0  0  0  0  0
   -0.1456   -0.7387    0.1423 C   0  0  0  0  0  0  0  0  0  0  0  0
   -1.3645    0.8384    0.6105 H   0  0  0  0  0  0  0  0  0  0  0  0
   -1.6094    1.0913   -1.2457 H   0  0  0  0  0  0  0  0  0  0  0  0
   -0.5637   -1.0595    0.9173 H   0  0  0  0  0  0  0  0  0  0  0  0
    0.7484   -0.3548    0.9570 H   0  0  0  0  0  0  0  0  0  0  0  0
    0.5015   -1.6918   -0.8421 H   0  0  0  0  0  0  0  0  0  0  0  0
  1  5  1  0  0  0  0
  2  1  1  0  0  0  0
  2  8  1  0  0  0  0
  3  1  1  0  0  0  0
  4  1  1  0  0  0  0
  6  2  1  0  0  0  0
  6  9  1  0  0  0  0
  6 10  1  0  0  0  0
  7  2  1  0  0  0  0
  9 12  1  0  0  0  0
  9 13  1  0  0  0  0
 11  6  1  0  0  0  0
 14  9  1  0  0  0  0
M  END
$$$$
