14
butane_opt
C  -3.999562   0.313801   0.064370
C  -2.760206  -0.664974  -0.031904
H  -4.769081  -0.052504  -0.119225
H  -3.781964   0.634498  -0.719694
H  -4.113866   1.224853   1.150733
C  -1.357973   0.152895  -0.038110
H  -2.622293  -1.448711  -1.001648
H  -2.717365  -1.273402   0.865088
C  -0.105441  -0.694672   0.076411
H  -1.441317   0.885362   0.914097
H  -1.364432   0.510801  -0.668389
H  -0.037982  -1.768710   1.226220
H   0.902322   0.105105  -0.526296
H  -0.432600  -0.512315  -0.420596
