14
butane_opt
C  -3.946567   0.193430   0.154591
C  -2.686827  -0.526404  -0.060527
H  -4.989196  -0.306878  -0.116116
H  -3.914980   0.318656  -0.421863
H  -3.864741   1.198961   1.323026
C  -1.453794   0.232408  -0.173027
H  -2.824707  -1.265699  -1.063178
H  -2.574126  -1.145984   0.760741
C  -0.149936  -0.739410   0.162756
H  -1.523694   0.514131   0.323162
H  -1.217579   1.335613  -1.333630
H  -0.201344  -1.344392   1.153722
H   0.835598  -0.069820   0.592727
H   0.112001  -1.672826  -0.739796
