butane_opt
 OpenBabel08242015403D

 14 11  0  0  0  0  0  0  0  0999 V2000
   -3.8942    0.3013   -0.0377 C   0  0  0  0  0  0  0  0  0  0  0  0
   -2.6444   -0.6802    0.1258 C   0  0  0  0  0  0  0  0  0  0  0  0
   -4.7222   -0.1855    0.0221 H   0  0  0  0  0  0  0  0  0  0  0  0
   -3.8706    0.9928   -0.8356 H   0  0  0  0  0  0  0  0  0  0  0  0
   -3.9229    0.8126    0.6684 H   0  0  0  0  0  0  0  0  0  0  0  0
   -1.4281    0.1397    0.0143 C   0  0  0  0  0  0  0  0  0  0  0  0
   -2.7592   -1.2514   -0.5278 H   0  0  0  0  0  0  0  0  0  0  0  0
   -2.7771   -1.2598    1.0435 H   0  0  0  0  0  0  0  0  0  0  0  0
   -0.2431   -0.6673    0.0218 C   0  0  0  0  0  0  0  0  0  0  0  0
   -1.5847    0.9171    0.9311 H   0  0  0  0  0  0  0  0  0  0  0  0
   -1.2525    0.8900   -1.0045 H   0  0  0  0  0  0  0  0  0  0  0  0
   -0.2968   -0.7145    0.5212 H   0  0  0  0  0  0  0  0  0  0  0  0
    0.7475   -0.0445    0.1790 H   0  0  0  0  0  0  0  0  0  0  0  0
   -0.1208   -1.7528   -1.1511 H   0  0  0  0  0  0  0  0  0  0  0  0
  1  3  1  0  0  0  0
  1  2  1  0  0  0  0
  1  5  1  0  0  0  0
  2  8  1  0  0  0  0
  4  1  1  0  0  0  0
  6  9  1  0  0  0  0
  6  2  1  0  0  0  0
  6 10  1  0  0  0  0
  7  2  1  0  0  0  0
  9 13  1  0  0  0  0
 11  6  1  0  0  0  0
M  RAD  3   9   3  12   2  14   2
M  END
$$$$
