butane_opt
 OpenBabel08242015403D

 14 13  0  0  0  0  0  0  0  0999 V2000
   -3.9418    0.2783   -0.0160 C   0  0  0  0  0  0  0  0  0  0  0  0
   -2.6921   -0.6251    0.0539 C   0  0  0  0  0  0  0  0  0  0  0  0
   -4.8620   -0.3497    0.0180 H   0  0  0  0  0  0  0  0  0  0  0  0
   -3.9385    0.8802   -0.9274 H   0  0  0  0  0  0  0  0  0  0  0  0
   -4.0168    0.9171    0.8288 H   0  0  0  0  0  0  0  0  0  0  0  0
   -1.3929    0.1721    0.0627 C   0  0  0  0  0  0  0  0  0  0  0  0
   -2.6725   -1.2130   -0.7456 H   0  0  0  0  0  0  0  0  0  0  0  0
   -2.7015   -1.2782    0.9786 H   0  0  0  0  0  0  0  0  0  0  0  0
   -0.1800   -0.6891    0.0032 C   0  0  0  0  0  0  0  0  0  0  0  0
   -1.3666    0.9015    0.9416 H   0  0  0  0  0  0  0  0  0  0  0  0
   -1.4187    0.7569   -0.8121 H   0  0  0  0  0  0  0  0  0  0  0  0
   -0.0621   -1.3477    0.9216 H   0  0  0  0  0  0  0  0  0  0  0  0
    0.7673   -0.0667   -0.1516 H   0  0  0  0  0  0  0  0  0  0  0  0
   -0.2716   -1.3042   -0.8514 H   0  0  0  0  0  0  0  0  0  0  0  0
  1  3  1  0  0  0  0
  1  2  1  0  0  0  0
  1  5  1  0  0  0  0
  2  6  1  0  0  0  0
  2  8  1  0  0  0  0
  4  1  1  0  0  0  0
  6 10  1  0  0  0  0
  7  2  1  0  0  0  0
  9  6  1  0  0  0  0
  9 12  1  0  0  0  0
 11  6  1  0  0  0  0
 13  9  1  0  0  0  0
 14  9  1  0  0  0  0
M  END
$$$$
