butane_opt
 OpenBabel08242015403D

 14  9  0  0  0  0  0  0  0  0999 V2000
   -3.9035    0.1733    0.1439 C   0  0  0  0  0  0  0  0  0  0  0  0
   -2.7097   -0.4786    0.0053 C   0  0  0  0  0  1  0  0  0  0  0  0
   -4.7883   -0.6133   -0.6084 H   0  0  0  0  0  0  0  0  0  0  0  0
   -3.5273    0.3796   -0.4802 H   0  0  0  0  0  0  0  0  0  0  0  0
   -4.1463    1.4751    1.4001 H   0  0  0  0  0  0  0  0  0  0  0  0
   -1.5034    0.2086   -0.1730 C   0  0  0  0  0  0  0  0  0  0  0  0
   -3.0120   -1.4445   -1.1630 H   0  0  0  0  0  0  0  0  0  0  0  0
   -2.5983   -0.9803    0.7111 H   0  0  0  0  0  0  0  0  0  0  0  0
   -0.1143   -0.7519    0.1739 C   0  0  0  0  0  0  0  0  0  0  0  0
   -1.3769    0.6767    0.6362 H   0  0  0  0  0  0  0  0  0  0  0  0
   -1.5691    1.0645   -1.3194 H   0  0  0  0  0  0  0  0  0  0  0  0
    0.0979   -1.6524    1.1366 H   0  0  0  0  0  0  0  0  0  0  0  0
    0.8298   -0.1010   -0.0164 H   0  0  0  0  0  0  0  0  0  0  0  0
   -0.1500   -1.0869   -0.5374 H   0  0  0  0  0  0  0  0  0  0  0  0
  2  8  1  0  0  0  0
  3  1  1  0  0  0  0
  4  1  1  0  0  0  0
  6  9  1  0  0  0  0
  6 10  1  0  0  0  0
  9 12  1  0  0  0  0
 11  6  1  0  0  0  0
 13  9  1  0  0  0  0
 14  9  1  0  0  0  0
M  RAD  4   1   3   5   2   6   2   7   2
M  END
$$$$
