butane_opt
 OpenBabel08242015403D

 14 12  0  0  0  0  0  0  0  0999 V2000
   -3.9602    0.3498   -0.1191 C   0  0  0  0  0  0  0  0  0  0  0  0
   -2.6704   -0.6526    0.1787 C   0  0  0  0  0  0  0  0  0  0  0  0
   -4.8962   -0.3557    0.1243 H   0  0  0  0  0  0  0  0  0  0  0  0
   -3.7216    1.3639   -1.3716 H   0  0  0  0  0  0  0  0  0  0  0  0
   -4.2007    0.6512    0.5750 H   0  0  0  0  0  0  0  0  0  0  0  0
   -1.3855    0.0914    0.2317 C   0  0  0  0  0  0  0  0  0  0  0  0
   -2.3508   -1.4627   -0.7716 H   0  0  0  0  0  0  0  0  0  0  0  0
   -2.8431   -1.1938    0.9878 H   0  0  0  0  0  0  0  0  0  0  0  0
   -0.2536   -0.6324   -0.1410 C   0  0  0  0  0  0  0  0  0  0  0  0
   -0.9172    0.5635    1.1486 H   0  0  0  0  0  0  0  0  0  0  0  0
   -1.4833    0.4857   -0.5278 H   0  0  0  0  0  0  0  0  0  0  0  0
    0.0300   -1.2808    0.7669 H   0  0  0  0  0  0  0  0  0  0  0  0
    0.8554    0.1711   -0.2810 H   0  0  0  0  0  0  0  0  0  0  0  0
   -0.3144   -1.2044   -0.9955 H   0  0  0  0  0  0  0  0  0  0  0  0
  1  3  1  0  0  0  0
  1  2  1  0  0  0  0
  1  5  1  0  0  0  0
  2  6  1  0  0  0  0
  2  8  1  0  0  0  0
  6 10  1  0  0  0  0
  7  2  1  0  0  0  0
  9  6  1  0  0  0  0
  9 12  1  0  0  0  0
 11  6  1  0  0  0  0
 13  9  1  0  0  0  0
 14  9  1  0  0  0  0
M  RAD  2   1   2   4   2
M  END
$$$$
