butane_opt
 OpenBabel08242015403D

 14  7  0  0  0  0  0  0  0  0999 V2000
   -3.9348    0.3010   -0.0840 C   0  0  0  0  0  0  0  0  0  0  0  0
   -2.6382   -0.6378    0.1403 C   0  0  0  0  0  0  0  0  0  0  0  0
   -4.8226   -0.1908    0.3669 H   0  0  0  0  0  0  0  0  0  0  0  0
   -4.2295    1.7242   -1.5731 H   0  0  0  0  0  0  0  0  0  0  0  0
   -3.9691    0.3191    0.3820 H   0  0  0  0  0  0  0  0  0  0  0  0
   -1.3913    0.0323    0.1584 C   0  0  0  0  0  0  0  0  0  0  0  0
   -2.7700   -1.1117   -0.4676 H   0  0  0  0  0  0  0  0  0  0  0  0
   -2.4585   -1.5142    1.0968 H   0  0  0  0  0  0  0  0  0  0  0  0
   -0.2313   -0.6296   -0.1184 C   0  0  0  0  0  0  0  0  0  0  0  0
   -1.4285    1.2485    1.3100 H   0  0  0  0  0  0  0  0  0  0  0  0
   -1.5650    0.4851   -0.6518 H   0  0  0  0  0  0  0  0  0  0  0  0
   -0.4215   -0.8490    0.5572 H   0  0  0  0  0  0  0  0  0  0  0  0
    0.9871    0.3493    0.4456 H   0  0  0  0  0  0  0  0  0  0  0  0
   -0.0567   -1.6814   -1.3371 H   0  0  0  0  0  0  0  0  0  0  0  0
  1  2  1  0  0  0  0
  1  3  1  0  0  0  0
  2  8  1  0  0  0  0
  7  2  1  0  0  0  0
  9  6  1  0  0  0  0
  9 12  1  0  0  0  0
 11  6  1  0  0  0  0
M  RAD  8   1   3   2   2   4   2   5   2   6   3   9   3  10   2  13   2
M  RAD  1  14   2
M  END
$$$$
