butane_opt
 OpenBabel08242015403D

 14 13  0  0  0  0  0  0  0  0999 V2000
   -3.9317    0.2954   -0.1824 C   0  0  0  0  0  0  0  0  0  0  0  0
   -2.6486   -0.6274    0.2843 C   0  0  0  0  0  0  0  0  0  0  0  0
   -4.9516   -0.3973   -0.3333 H   0  0  0  0  0  0  0  0  0  0  0  0
   -3.6879    0.7437   -0.9684 H   0  0  0  0  0  0  0  0  0  0  0  0
   -4.3486    1.0985    0.6782 H   0  0  0  0  0  0  0  0  0  0  0  0
   -1.3971    0.1167    0.1789 C   0  0  0  0  0  0  0  0  0  0  0  0
   -2.1596   -1.1475   -0.3696 H   0  0  0  0  0  0  0  0  0  0  0  0
   -2.6232   -1.4414    1.2438 H   0  0  0  0  0  0  0  0  0  0  0  0
   -0.2463   -0.6640   -0.1767 C   0  0  0  0  0  0  0  0  0  0  0  0
   -1.2123    0.9305    1.2309 H   0  0  0  0  0  0  0  0  0  0  0  0
   -1.4804    0.7540   -0.6650 H   0  0  0  0  0  0  0  0  0  0  0  0
   -0.3262   -1.1671    0.5798 H   0  0  0  0  0  0  0  0  0  0  0  0
    0.8389   -0.0271    0.0205 H   0  0  0  0  0  0  0  0  0  0  0  0
   -0.3626   -1.2904   -1.1934 H   0  0  0  0  0  0  0  0  0  0  0  0
  1  2  1  0  0  0  0
  1  5  1  0  0  0  0
  2  8  1  0  0  0  0
  3  1  1  0  0  0  0
  4  1  1  0  0  0  0
  6  2  1  0  0  0  0
  6 10  1  0  0  0  0
  7  2  1  0  0  0  0
  9 13  1  0  0  0  0
  9  6  1  0  0  0  0
  9 12  1  0  0  0  0
 11  6  1  0  0  0  0
 14  9  1  0  0  0  0
M  END
$$$$
