14
butane_opt
C  -4.014703   0.266462   0.130847
C  -2.711790  -0.664435   0.047084
H  -4.791196  -0.231014  -0.853400
H  -3.940904   0.365847  -0.424235
H  -4.340384   1.757929   1.337938
C  -1.388831   0.141107  -0.158437
H  -2.450791  -1.427690  -0.687080
H  -2.713767  -0.957825   0.696850
C  -0.083167  -0.657308   0.115380
H  -1.330688   0.622673   0.506006
H  -1.391660   1.016095  -1.230861
H  -0.433132  -1.523093   1.151792
H   0.975957   0.020473   0.066221
H  -0.211116  -1.161637  -0.639371
