butane_opt
 OpenBabel08242015403D

 14 12  0  0  0  0  0  0  0  0999 V2000
   -3.9301    0.3359    0.2058 C   0  0  0  0  0  0  0  0  0  0  0  0
   -2.7341   -0.7191   -0.1099 C   0  0  0  0  0  0  0  0  0  0  0  0
   -4.9376   -0.2386    0.1681 H   0  0  0  0  0  0  0  0  0  0  0  0
   -4.2225    0.9575   -0.5076 H   0  0  0  0  0  0  0  0  0  0  0  0
   -4.0114    1.0489    1.1800 H   0  0  0  0  0  0  0  0  0  0  0  0
   -1.3412    0.1802   -0.2413 C   0  0  0  0  0  0  0  0  0  0  0  0
   -2.7373   -1.4881   -1.0176 H   0  0  0  0  0  0  0  0  0  0  0  0
   -2.6339   -1.2789    0.7058 H   0  0  0  0  0  0  0  0  0  0  0  0
   -0.1814   -0.6503    0.2332 C   0  0  0  0  0  0  0  0  0  0  0  0
   -1.5791    0.5973    0.2960 H   0  0  0  0  0  0  0  0  0  0  0  0
   -1.0882    0.8953   -1.2145 H   0  0  0  0  0  0  0  0  0  0  0  0
   -0.5261   -0.9259    1.0363 H   0  0  0  0  0  0  0  0  0  0  0  0
    0.7238   -0.1524    0.5905 H   0  0  0  0  0  0  0  0  0  0  0  0
    0.2293   -1.6684   -0.8946 H   0  0  0  0  0  0  0  0  0  0  0  0
  1  5  1  0  0  0  0
  2  1  1  0  0  0  0
  2  8  1  0  0  0  0
  3  1  1  0  0  0  0
  4  1  1  0  0  0  0
  6  2  1  0  0  0  0
  6  9  1  0  0  0  0
  6 10  1  0  0  0  0
  7  2  1  0  0  0  0
  9 13  1  0  0  0  0
  9 12  1  0  0  0  0
 11  6  1  0  0  0  0
M  RAD  2   9   2  14   2
M  END
$$$$
