butane_opt
 OpenBabel08242015403D

 14 10  0  0  0  0  0  0  0  0999 V2000
   -3.8308    0.2634   -0.0753 C   0  0  0  0  0  0  0  0  0  0  0  0
   -2.7150   -0.6060    0.1406 C   0  0  0  0  0  0  0  0  0  0  0  0
   -4.8065   -0.4666    0.2723 H   0  0  0  0  0  0  0  0  0  0  0  0
   -3.9727    1.0287   -0.9311 H   0  0  0  0  0  0  0  0  0  0  0  0
   -3.8942    0.6531    0.6361 H   0  0  0  0  0  0  0  0  0  0  0  0
   -1.4717    0.2398    0.0194 C   0  0  0  0  0  0  0  0  0  0  0  0
   -2.7244   -1.2802   -0.5086 H   0  0  0  0  0  0  0  0  0  0  0  0
   -2.6021   -1.5959    1.2928 H   0  0  0  0  0  0  0  0  0  0  0  0
   -0.1832   -0.7108   -0.0466 C   0  0  0  0  0  0  0  0  0  0  0  0
   -1.3119    0.9551    0.9660 H   0  0  0  0  0  0  0  0  0  0  0  0
   -1.6910    0.8763   -0.8193 H   0  0  0  0  0  0  0  0  0  0  0  0
   -0.6550   -0.6800    0.4029 H   0  0  0  0  0  0  0  0  0  0  0  0
    0.7174   -0.2303    0.7713 H   0  0  0  0  0  0  0  0  0  0  0  0
    0.3391   -1.9718   -1.2035 H   0  0  0  0  0  0  0  0  0  0  0  0
  1  2  1  0  0  0  0
  1  3  1  0  0  0  0
  1  5  1  0  0  0  0
  4  1  1  0  0  0  0
  6  2  1  0  0  0  0
  6 10  1  0  0  0  0
  7  2  1  0  0  0  0
  9 12  1  0  0  0  0
  9 13  1  0  0  0  0
 11  6  1  0  0  0  0
M  RAD  5   2   2   6   2   8   2   9   3  14   2
M  END
$$$$
