14
butane_opt
C  -3.926257   0.259041   0.053276
C  -2.696661  -0.608210  -0.006954
H  -4.878818  -0.366472   0.161099
H  -4.008363   0.928577  -0.872184
H  -3.888501   0.850404   0.892173
C  -1.405273   0.207057  -0.027333
H  -2.793843  -1.294748  -0.881681
H  -2.687593  -1.216075   0.858170
C  -0.171525  -0.707589   0.065749
H  -1.416346   0.884417   0.848912
H  -1.413327   0.773945  -0.889979
H  -0.158828  -1.356164   0.987673
H   0.750943  -0.117263   0.081520
H  -0.127205  -1.358399  -0.764919
