14
butane_opt
C  -3.914570   0.315397  -0.114228
C  -2.643823  -0.647430   0.192527
H  -4.931156  -0.321691  -0.017117
H  -3.794614   1.404233  -1.180083
H  -3.992033   0.662453   0.448938
C  -1.408471   0.088526   0.162617
H  -2.564986  -1.051277  -0.438384
H  -2.900673  -1.465423   1.259273
C  -0.181530  -0.645950  -0.103876
H  -1.526652   0.642346   1.100069
H  -1.366617   0.673569  -0.674191
H  -0.436002  -0.539771   0.344783
H   0.779507   0.014591   0.174293
H  -0.511639  -1.820352  -1.356061
