butane_opt
 OpenBabel08242015403D

 14 12  0  0  0  0  0  0  0  0999 V2000
   -3.9790    0.1860    0.0817 C   0  0  0  0  0  0  0  0  0  0  0  0
   -2.7048   -0.5853   -0.0520 C   0  0  0  0  0  0  0  0  0  0  0  0
   -4.8609   -0.2909    0.1869 H   0  0  0  0  0  0  0  0  0  0  0  0
   -3.8985    0.7919   -0.8449 H   0  0  0  0  0  0  0  0  0  0  0  0
   -4.1234    1.0370    0.9543 H   0  0  0  0  0  0  0  0  0  0  0  0
   -1.4275    0.3034   -0.0609 C   0  0  0  0  0  0  0  0  0  0  0  0
   -2.9533   -1.3573   -0.8578 H   0  0  0  0  0  0  0  0  0  0  0  0
   -2.5690   -1.1310    0.7853 H   0  0  0  0  0  0  0  0  0  0  0  0
   -0.0963   -0.7189    0.0842 C   0  0  0  0  0  0  0  0  0  0  0  0
   -1.4278    1.0441    0.8154 H   0  0  0  0  0  0  0  0  0  0  0  0
   -1.2269    0.5505   -0.6582 H   0  0  0  0  0  0  0  0  0  0  0  0
    0.0137   -1.8525    1.2530 H   0  0  0  0  0  0  0  0  0  0  0  0
    0.6244   -0.3534   -0.2271 H   0  0  0  0  0  0  0  0  0  0  0  0
   -0.0678   -1.1358   -0.5641 H   0  0  0  0  0  0  0  0  0  0  0  0
  1  3  1  0  0  0  0
  1  5  1  0  0  0  0
  2  1  1  0  0  0  0
  2  8  1  0  0  0  0
  4  1  1  0  0  0  0
  6  2  1  0  0  0  0
  6  9  1  0  0  0  0
  6 10  1  0  0  0  0
  7  2  1  0  0  0  0
 11  6  1  0  0  0  0
 13  9  1  0  0  0  0
 14  9  1  0  0  0  0
M  RAD  2   9   2  12   2
M  END
$$$$
