14
butane_opt
C  -3.935849   0.270704  -0.017330
C  -2.698449  -0.606492   0.066114
H  -4.833058  -0.314856   0.008338
H  -3.957420   0.908392  -0.940473
H  -3.962191   0.910777   0.807264
C  -1.406825   0.165663   0.067211
H  -2.686119  -1.303729  -0.775920
H  -2.773902  -1.285086   0.985095
C  -0.167331  -0.691750  -0.006049
H  -1.384630   0.864584   0.919767
H  -1.383111   0.774997  -0.822550
H  -0.086932  -1.314268   0.884725
H   0.766010  -0.046746  -0.117941
H  -0.227943  -1.309487  -0.830303
