14
butane_opt
C  -3.944724   0.301456   0.210845
C  -2.681550  -0.646931  -0.143557
H  -5.110536  -0.358760   0.348757
H  -4.212206   0.807227  -0.675573
H  -3.585202   1.305687   1.280921
C  -1.363787   0.094865  -0.231892
H  -2.762295  -1.387898  -1.102602
H  -2.495852  -1.026443   0.676907
C  -0.189509  -0.633119   0.267131
H  -1.449832   0.285700   0.249520
H  -1.337389   1.142626  -1.400067
H  -0.678272  -0.875110   0.995999
H   0.639362  -0.114558   0.644636
H   0.143173  -1.696470  -0.826296
