14
butane_opt
C  -3.946897   0.175314   0.102738
C  -2.642714  -0.513870   0.001475
H  -5.022985  -0.532278  -0.548937
H  -3.751406   0.526767  -0.711224
H  -3.982595   1.384616   1.305113
C  -1.447077   0.223147  -0.117681
H  -3.153426  -1.268665  -0.868698
H  -2.491802  -1.147120   0.913496
C  -0.158455  -0.729265   0.098070
H  -1.517224   0.954606   0.860028
H  -1.437379   0.778496  -1.097302
H  -0.056599  -1.638580   1.147949
H   0.739659  -0.233052  -0.112374
H   0.018698  -1.160712  -0.443794
