butane_opt
 OpenBabel08242015403D

 14 13  0  0  0  0  0  0  0  0999 V2000
   -3.9516    0.3702   -0.1203 C   0  0  0  0  0  0  0  0  0  0  0  0
   -2.6884   -0.7081    0.2498 C   0  0  0  0  0  0  0  0  0  0  0  0
   -4.7677   -0.2383   -0.7450 H   0  0  0  0  0  0  0  0  0  0  0  0
   -3.6972    0.5378   -0.7203 H   0  0  0  0  0  0  0  0  0  0  0  0
   -4.0940    1.1231    0.6655 H   0  0  0  0  0  0  0  0  0  0  0  0
   -1.3456    0.1322    0.1296 C   0  0  0  0  0  0  0  0  0  0  0  0
   -2.5229   -1.0701   -0.4727 H   0  0  0  0  0  0  0  0  0  0  0  0
   -2.6740   -1.5838    1.2014 H   0  0  0  0  0  0  0  0  0  0  0  0
   -0.2652   -0.6256   -0.1505 C   0  0  0  0  0  0  0  0  0  0  0  0
   -1.2723    0.8680    1.1027 H   0  0  0  0  0  0  0  0  0  0  0  0
   -1.5291    0.5217   -0.6417 H   0  0  0  0  0  0  0  0  0  0  0  0
   -0.1875   -1.3288    0.8002 H   0  0  0  0  0  0  0  0  0  0  0  0
    0.7658   -0.0242   -0.1060 H   0  0  0  0  0  0  0  0  0  0  0  0
   -0.1237   -1.2646   -0.9387 H   0  0  0  0  0  0  0  0  0  0  0  0
  1  2  1  0  0  0  0
  1  5  1  0  0  0  0
  2  8  1  0  0  0  0
  3  1  1  0  0  0  0
  4  1  1  0  0  0  0
  6  2  1  0  0  0  0
  6 10  1  0  0  0  0
  7  2  1  0  0  0  0
  9 13  1  0  0  0  0
  9  6  1  0  0  0  0
  9 12  1  0  0  0  0
 11  6  1  0  0  0  0
 14  9  1  0  0  0  0
M  END
$$$$
