butane_opt
 OpenBabel08242015403D

 14 12  0  0  0  0  0  0  0  0999 V2000
   -4.0217    0.2581    0.1595 C   0  0  0  0  0  0  0  0  0  0  0  0
   -2.7223   -0.6103   -0.1169 C   0  0  0  0  0  0  0  0  0  0  0  0
   -4.9892   -0.4345    0.1158 H   0  0  0  0  0  0  0  0  0  0  0  0
   -4.1545    0.8517   -0.5195 H   0  0  0  0  0  0  0  0  0  0  0  0
   -3.7098    0.8881    1.0681 H   0  0  0  0  0  0  0  0  0  0  0  0
   -1.3822    0.2347   -0.1111 C   0  0  0  0  0  0  0  0  0  0  0  0
   -2.8715   -1.2597   -1.1375 H   0  0  0  0  0  0  0  0  0  0  0  0
   -2.3425   -1.0902    0.6606 H   0  0  0  0  0  0  0  0  0  0  0  0
   -0.1008   -0.7188    0.1857 C   0  0  0  0  0  0  0  0  0  0  0  0
   -1.4448    0.4695    0.4200 H   0  0  0  0  0  0  0  0  0  0  0  0
   -1.0359    1.1559   -1.2435 H   0  0  0  0  0  0  0  0  0  0  0  0
   -0.3360   -1.3391    1.1698 H   0  0  0  0  0  0  0  0  0  0  0  0
    0.7551   -0.0943    0.3002 H   0  0  0  0  0  0  0  0  0  0  0  0
   -0.1299   -1.6408   -0.8453 H   0  0  0  0  0  0  0  0  0  0  0  0
  1  5  1  0  0  0  0
  2  6  1  0  0  0  0
  2  1  1  0  0  0  0
  2  8  1  0  0  0  0
  3  1  1  0  0  0  0
  4  1  1  0  0  0  0
  6  9  1  0  0  0  0
  7  2  1  0  0  0  0
  9 13  1  0  0  0  0
  9 12  1  0  0  0  0
 11  6  1  0  0  0  0
 14  9  1  0  0  0  0
M  RAD  2   6   2  10   2
M  END
$$$$
