14
butane_opt
C  -3.900292   0.336208  -0.207106
C  -2.647574  -0.672071   0.199755
H  -4.782003  -0.184755  -0.093375
H  -4.084924   0.861846  -0.954039
H  -4.073651   0.903836   0.699729
C  -1.435456   0.106218   0.275814
H  -2.448461  -1.407842  -0.762585
H  -2.706499  -1.344357   1.066243
C  -0.245030  -0.623421  -0.123686
H  -1.083936   0.713564   1.025357
H  -1.400204   0.547994  -0.393536
H   0.283487  -1.404139   0.884183
H   0.631305  -0.041309  -0.905877
H  -0.628835  -0.849871  -0.835008
