butane_opt
 OpenBabel08242015403D

 14 10  0  0  0  0  0  0  0  0999 V2000
   -3.9662    0.3522    0.1045 C   0  0  0  0  0  1  0  0  0  0  0  0
   -2.7311   -0.6905   -0.0094 C   0  0  0  0  0  0  0  0  0  0  0  0
   -4.8952   -0.0502   -0.7335 H   0  0  0  0  0  0  0  0  0  0  0  0
   -4.0078    0.0998   -0.1853 H   0  0  0  0  0  0  0  0  0  0  0  0
   -4.3435    1.6605    1.4656 H   0  0  0  0  0  0  0  0  0  0  0  0
   -1.4035    0.0919   -0.1449 C   0  0  0  0  0  0  0  0  0  0  0  0
   -2.9156   -1.5141   -0.8833 H   0  0  0  0  0  0  0  0  0  0  0  0
   -2.5107   -1.2022    0.8793 H   0  0  0  0  0  0  0  0  0  0  0  0
   -0.1122   -0.6487    0.1750 C   0  0  0  0  0  0  0  0  0  0  0  0
   -1.3733    0.4652    0.4324 H   0  0  0  0  0  0  0  0  0  0  0  0
   -1.0014    1.1498   -1.3019 H   0  0  0  0  0  0  0  0  0  0  0  0
   -0.1679   -1.3806    1.1301 H   0  0  0  0  0  0  0  0  0  0  0  0
    1.0367    0.1779   -0.2216 H   0  0  0  0  0  0  0  0  0  0  0  0
   -0.3149   -1.1363   -0.5929 H   0  0  0  0  0  0  0  0  0  0  0  0
  2  8  1  0  0  0  0
  3  1  1  0  0  0  0
  4  2  1  0  0  0  0
  6  2  1  0  0  0  0
  6  9  1  0  0  0  0
  6 10  1  0  0  0  0
  7  2  1  0  0  0  0
  9 12  1  0  0  0  0
 13  9  1  0  0  0  0
 14  9  1  0  0  0  0
M  RAD  3   5   2   6   2  11   2
M  END
$$$$
