butane_opt
 OpenBabel08242015403D

 14 13  0  0  0  0  0  0  0  0999 V2000
   -3.9377    0.1723   -0.1064 C   0  0  0  0  0  0  0  0  0  0  0  0
   -2.6845   -0.5170    0.2239 C   0  0  0  0  0  0  0  0  0  0  0  0
   -5.0425   -0.5368   -0.7009 H   0  0  0  0  0  0  0  0  0  0  0  0
   -3.7160    0.6882   -0.9342 H   0  0  0  0  0  0  0  0  0  0  0  0
   -4.2396    1.0571    1.0164 H   0  0  0  0  0  0  0  0  0  0  0  0
   -1.4395    0.2494    0.1159 C   0  0  0  0  0  0  0  0  0  0  0  0
   -3.0323   -1.0939   -0.5953 H   0  0  0  0  0  0  0  0  0  0  0  0
   -2.8244   -1.0422    0.9733 H   0  0  0  0  0  0  0  0  0  0  0  0
   -0.1037   -0.7686   -0.0702 C   0  0  0  0  0  0  0  0  0  0  0  0
   -1.5392    0.8951    0.9658 H   0  0  0  0  0  0  0  0  0  0  0  0
   -1.6193    0.8439   -0.7293 H   0  0  0  0  0  0  0  0  0  0  0  0
    0.3211   -1.4227    0.7763 H   0  0  0  0  0  0  0  0  0  0  0  0
    0.8843   -0.1846   -0.4495 H   0  0  0  0  0  0  0  0  0  0  0  0
   -0.2000   -1.3252   -0.8531 H   0  0  0  0  0  0  0  0  0  0  0  0
  1  2  1  0  0  0  0
  1  5  1  0  0  0  0
  2  8  1  0  0  0  0
  3  1  1  0  0  0  0
  4  1  1  0  0  0  0
  6  2  1  0  0  0  0
  6 10  1  0  0  0  0
  7  2  1  0  0  0  0
  9  6  1  0  0  0  0
  9 12  1  0  0  0  0
 11  6  1  0  0  0  0
 13  9  1  0  0  0  0
 14  9  1  0  0  0  0
M  END
$$$$
