14
butane_opt
C  -3.955470   0.290767  -0.067939
C  -2.616588  -0.670380   0.050126
H  -4.908938  -0.195170   0.838101
H  -4.426398   1.622678  -1.431251
H  -3.663669   0.478967   0.418233
C  -1.352811   0.143337   0.140752
H  -2.857073  -1.291616  -0.834977
H  -2.696862  -1.160743   0.865261
C  -0.272603  -0.654993  -0.020722
H  -1.291091   0.740967   1.137433
H  -1.260053   0.607255  -0.647615
H   0.146025  -1.010357   0.705327
H   0.693628  -0.055898   0.136224
H  -0.408010  -1.478498  -1.055830
