butane_opt
 OpenBabel08242015403D

 14 12  0  0  0  0  0  0  0  0999 V2000
   -3.9962    0.3184    0.1385 C   0  0  0  0  0  0  0  0  0  0  0  0
   -2.7146   -0.7233   -0.0381 C   0  0  0  0  0  0  0  0  0  0  0  0
   -4.9113   -0.2313    0.1192 H   0  0  0  0  0  0  0  0  0  0  0  0
   -4.0090    0.9527   -0.5992 H   0  0  0  0  0  0  0  0  0  0  0  0
   -3.9699    1.3268    1.2097 H   0  0  0  0  0  0  0  0  0  0  0  0
   -1.3605    0.1680   -0.1698 C   0  0  0  0  0  0  0  0  0  0  0  0
   -2.8709   -1.6834   -0.9297 H   0  0  0  0  0  0  0  0  0  0  0  0
   -2.4169   -1.2440    0.7505 H   0  0  0  0  0  0  0  0  0  0  0  0
   -0.1766   -0.6569    0.1512 C   0  0  0  0  0  0  0  0  0  0  0  0
   -1.2600    0.5083    0.4039 H   0  0  0  0  0  0  0  0  0  0  0  0
   -1.2992    1.1739   -1.3505 H   0  0  0  0  0  0  0  0  0  0  0  0
   -0.6590   -0.9332    0.8715 H   0  0  0  0  0  0  0  0  0  0  0  0
    0.7898   -0.0316    0.7657 H   0  0  0  0  0  0  0  0  0  0  0  0
    0.5209   -1.5747   -0.8047 H   0  0  0  0  0  0  0  0  0  0  0  0
  1  5  1  0  0  0  0
  2  1  1  0  0  0  0
  2  8  1  0  0  0  0
  3  1  1  0  0  0  0
  4  1  1  0  0  0  0
  6  2  1  0  0  0  0
  6  9  1  0  0  0  0
  6 10  1  0  0  0  0
  7  2  1  0  0  0  0
  9 13  1  0  0  0  0
  9 12  1  0  0  0  0
 14  9  1  0  0  0  0
M  RAD  2   6   2  11   2
M  END
$$$$
