14
butane_opt
C  -3.868547   0.216205   0.175775
C  -2.732861  -0.507239  -0.132668
H  -4.949035  -0.565185  -0.079462
H  -3.899660   0.631795  -0.615861
H  -3.944889   0.833010   1.111432
C  -1.485644   0.203503  -0.073299
H  -2.738904  -1.585435  -1.179003
H  -2.671981  -0.906027   0.520039
C  -0.105996  -0.755794   0.155557
H  -1.676739   0.934076   0.811163
H  -1.450516   1.112529  -1.086198
H  -0.114552  -1.909544   1.338315
H   0.881770  -0.131635  -0.569746
H  -0.113016  -0.767837  -0.264575
