14
butane_opt
C  -4.021734   0.258089   0.159534
C  -2.722328  -0.610263  -0.116860
H  -4.989173  -0.434460   0.115807
H  -4.154490   0.851698  -0.519498
H  -3.709832   0.888121   1.068124
C  -1.382212   0.234745  -0.111076
H  -2.871539  -1.259700  -1.137545
H  -2.342507  -1.090184   0.660588
C  -0.100764  -0.718812   0.185681
H  -1.444812   0.469470   0.419982
H  -1.035950   1.155899  -1.243511
H  -0.336040  -1.339118   1.169809
H   0.755090  -0.094343   0.300175
H  -0.129948  -1.640771  -0.845306
