butane_opt
 OpenBabel08242015403D

 14 12  0  0  0  0  0  0  0  0999 V2000
   -4.0361    0.3074    0.1198 C   0  0  0  0  0  0  0  0  0  0  0  0
   -2.6626   -0.6439   -0.0018 C   0  0  0  0  0  0  0  0  0  0  0  0
   -5.0218   -0.2853    0.2328 H   0  0  0  0  0  0  0  0  0  0  0  0
   -4.0780    0.9995   -0.7249 H   0  0  0  0  0  0  0  0  0  0  0  0
   -4.1534    1.1067    0.9570 H   0  0  0  0  0  0  0  0  0  0  0  0
   -1.3084    0.1320   -0.1714 C   0  0  0  0  0  0  0  0  0  0  0  0
   -2.7766   -1.6104   -0.9339 H   0  0  0  0  0  0  0  0  0  0  0  0
   -2.8742   -1.2250    0.9441 H   0  0  0  0  0  0  0  0  0  0  0  0
   -0.1868   -0.6540    0.1295 C   0  0  0  0  0  0  0  0  0  0  0  0
   -1.2841    0.6278    0.4851 H   0  0  0  0  0  0  0  0  0  0  0  0
   -1.2239    0.9186   -1.0868 H   0  0  0  0  0  0  0  0  0  0  0  0
   -0.4301   -0.9080    0.8427 H   0  0  0  0  0  0  0  0  0  0  0  0
    0.8100    0.0462    0.7266 H   0  0  0  0  0  0  0  0  0  0  0  0
    0.3198   -1.8412   -0.9358 H   0  0  0  0  0  0  0  0  0  0  0  0
  1  3  1  0  0  0  0
  1  5  1  0  0  0  0
  2  1  1  0  0  0  0
  2  8  1  0  0  0  0
  4  1  1  0  0  0  0
  6  2  1  0  0  0  0
  6  9  1  0  0  0  0
  6 10  1  0  0  0  0
  7  2  1  0  0  0  0
  9 13  1  0  0  0  0
  9 12  1  0  0  0  0
 11  6  1  0  0  0  0
M  RAD  2   9   2  14   2
M  END
$$$$
