butane_opt
 OpenBabel08242015403D

 14 13  0  0  0  0  0  0  0  0999 V2000
   -3.9684    0.2152   -0.1664 C   0  0  0  0  0  0  0  0  0  0  0  0
   -2.7143   -0.5597    0.1678 C   0  0  0  0  0  0  0  0  0  0  0  0
   -4.9705   -0.5293   -0.0050 H   0  0  0  0  0  0  0  0  0  0  0  0
   -3.8063    1.1290   -1.2782 H   0  0  0  0  0  0  0  0  0  0  0  0
   -3.8683    0.6362    0.4377 H   0  0  0  0  0  0  0  0  0  0  0  0
   -1.4057    0.2193    0.2923 C   0  0  0  0  0  0  0  0  0  0  0  0
   -2.7175   -1.1161   -0.6556 H   0  0  0  0  0  0  0  0  0  0  0  0
   -2.9352   -1.0844    1.1297 H   0  0  0  0  0  0  0  0  0  0  0  0
   -0.1154   -0.7230   -0.1159 C   0  0  0  0  0  0  0  0  0  0  0  0
   -1.1418    1.1551    1.2710 H   0  0  0  0  0  0  0  0  0  0  0  0
   -1.5960    0.8389   -0.5939 H   0  0  0  0  0  0  0  0  0  0  0  0
    0.3970   -1.5339    0.8318 H   0  0  0  0  0  0  0  0  0  0  0  0
    0.7022   -0.3245   -0.8818 H   0  0  0  0  0  0  0  0  0  0  0  0
   -0.6089   -1.5038   -0.9760 H   0  0  0  0  0  0  0  0  0  0  0  0
  1  3  1  0  0  0  0
  1  2  1  0  0  0  0
  1  5  1  0  0  0  0
  2  6  1  0  0  0  0
  2  8  1  0  0  0  0
  4  1  1  0  0  0  0
  6 10  1  0  0  0  0
  7  2  1  0  0  0  0
  9  6  1  0  0  0  0
  9 12  1  0  0  0  0
 11  6  1  0  0  0  0
 13  9  1  0  0  0  0
 14  9  1  0  0  0  0
M  END
$$$$
