butane_opt
 OpenBabel08242015403D

 14  9  0  0  0  0  0  0  0  0999 V2000
   -4.0198    0.3374   -0.0529 C   0  0  0  0  0  0  0  0  0  0  0  0
   -2.6968   -0.7460    0.1616 C   0  0  0  0  0  0  0  0  0  0  0  0
   -4.7974   -0.1361    0.2928 H   0  0  0  0  0  0  0  0  0  0  0  0
   -4.1560    1.3126   -1.2459 H   0  0  0  0  0  0  0  0  0  0  0  0
   -4.1715    0.7314    0.5600 H   0  0  0  0  0  0  0  0  0  0  0  0
   -1.2903    0.1912    0.0527 C   0  0  0  0  0  0  0  0  0  0  0  0
   -2.4955   -1.1394   -0.6294 H   0  0  0  0  0  0  0  0  0  0  0  0
   -2.9099   -1.5586    1.1845 H   0  0  0  0  0  0  0  0  0  0  0  0
   -0.2126   -0.6434   -0.0840 C   0  0  0  0  0  0  0  0  0  0  0  0
   -1.1494    0.9342    0.9530 H   0  0  0  0  0  0  0  0  0  0  0  0
   -1.4245    0.4731   -0.5966 H   0  0  0  0  0  0  0  0  0  0  0  0
   -0.5578   -0.8524    0.4812 H   0  0  0  0  0  0  0  0  0  0  0  0
    0.7882    0.0526    0.5947 H   0  0  0  0  0  0  0  0  0  0  0  0
    0.4493   -1.9219   -1.1572 H   0  0  0  0  0  0  0  0  0  0  0  0
  1  2  1  0  0  0  0
  1  3  1  0  0  0  0
  1  5  1  0  0  0  0
  2  8  1  0  0  0  0
  6 10  1  0  0  0  0
  7  2  1  0  0  0  0
  9 12  1  0  0  0  0
  9 13  1  0  0  0  0
 11  6  1  0  0  0  0
M  RAD  6   1   2   2   2   4   2   6   3   9   3  14   2
M  END
$$$$
