butane_opt
 OpenBabel08242015403D

 14  9  0  0  0  0  0  0  0  0999 V2000
   -3.9846    0.3258    0.1801 C   0  0  0  0  0  1  0  0  0  0  0  0
   -2.6085   -0.6465   -0.0380 C   0  0  0  0  0  0  0  0  0  0  0  0
   -5.0691   -0.4391   -0.7717 H   0  0  0  0  0  0  0  0  0  0  0  0
   -3.6279    0.1128   -0.3216 H   0  0  0  0  0  0  0  0  0  0  0  0
   -4.4057    1.6845    1.3964 H   0  0  0  0  0  0  0  0  0  0  0  0
   -1.3682    0.1534   -0.1615 C   0  0  0  0  0  0  0  0  0  0  0  0
   -2.9365   -1.4320   -1.0729 H   0  0  0  0  0  0  0  0  0  0  0  0
   -2.4404   -1.1398    0.6844 H   0  0  0  0  0  0  0  0  0  0  0  0
   -0.2306   -0.6597    0.1581 C   0  0  0  0  0  0  0  0  0  0  0  0
   -1.4300    0.3501    0.4677 H   0  0  0  0  0  0  0  0  0  0  0  0
   -1.2661    0.9363   -1.1804 H   0  0  0  0  0  0  0  0  0  0  0  0
   -0.3764   -1.6843    1.3704 H   0  0  0  0  0  0  0  0  0  0  0  0
    0.8837    0.0076   -0.2546 H   0  0  0  0  0  0  0  0  0  0  0  0
   -0.0603   -0.9331   -0.4459 H   0  0  0  0  0  0  0  0  0  0  0  0
  2  8  1  0  0  0  0
  4  1  1  0  0  0  0
  6  2  1  0  0  0  0
  6  9  1  0  0  0  0
  6 10  1  0  0  0  0
  7  2  1  0  0  0  0
 11  6  1  0  0  0  0
 13  9  1  0  0  0  0
 14  9  1  0  0  0  0
M  RAD  5   2   2   3   2   5   2   9   2  12   2
M  END
$$$$
