14
butane_opt
C  -3.903514   0.173257   0.143921
C  -2.709678  -0.478647   0.005314
H  -4.788303  -0.613271  -0.608417
H  -3.527299   0.379554  -0.480223
H  -4.146346   1.475115   1.400051
C  -1.503381   0.208635  -0.172991
H  -3.011965  -1.444547  -1.163015
H  -2.598326  -0.980294   0.711096
C  -0.114309  -0.751867   0.173861
H  -1.376909   0.676660   0.636184
H  -1.569108   1.064480  -1.319369
H   0.097908  -1.652364   1.136564
H   0.829793  -0.100966  -0.016381
H  -0.150042  -1.086868  -0.537447
