14
butane_opt
C  -3.968447   0.215206  -0.166351
C  -2.714266  -0.559728   0.167763
H  -4.970510  -0.529335  -0.005020
H  -3.806261   1.129048  -1.278238
H  -3.868265   0.636151   0.437729
C  -1.405722   0.219348   0.292348
H  -2.717532  -1.116106  -0.655649
H  -2.935187  -1.084430   1.129674
C  -0.115429  -0.723043  -0.115933
H  -1.141753   1.155140   1.270982
H  -1.596021   0.838912  -0.593857
H   0.397031  -1.533915   0.831753
H   0.702227  -0.324542  -0.881832
H  -0.608901  -1.503774  -0.975977
