butane_opt
 OpenBabel08242015403D

 14 10  0  0  0  0  0  0  0  0999 V2000
   -3.9996    0.3138    0.0644 C   0  0  0  0  0  0  0  0  0  0  0  0
   -2.7602   -0.6650   -0.0319 C   0  0  0  0  0  0  0  0  0  0  0  0
   -4.7691   -0.0525   -0.1192 H   0  0  0  0  0  0  0  0  0  0  0  0
   -3.7820    0.6345   -0.7197 H   0  0  0  0  0  0  0  0  0  0  0  0
   -4.1139    1.2249    1.1507 H   0  0  0  0  0  0  0  0  0  0  0  0
   -1.3580    0.1529   -0.0381 C   0  0  0  0  0  0  0  0  0  0  0  0
   -2.6223   -1.4487   -1.0016 H   0  0  0  0  0  0  0  0  0  0  0  0
   -2.7174   -1.2734    0.8651 H   0  0  0  0  0  0  0  0  0  0  0  0
   -0.1054   -0.6947    0.0764 C   0  0  0  0  0  1  0  0  0  0  0  0
   -1.4413    0.8854    0.9141 H   0  0  0  0  0  0  0  0  0  0  0  0
   -1.3644    0.5108   -0.6684 H   0  0  0  0  0  0  0  0  0  0  0  0
   -0.0380   -1.7687    1.2262 H   0  0  0  0  0  0  0  0  0  0  0  0
    0.9023    0.1051   -0.5263 H   0  0  0  0  0  0  0  0  0  0  0  0
   -0.4326   -0.5123   -0.4206 H   0  0  0  0  0  0  0  0  0  0  0  0
  1  5  1  0  0  0  0
  2  1  1  0  0  0  0
  2  8  1  0  0  0  0
  3  1  1  0  0  0  0
  4  1  1  0  0  0  0
  6 10  1  0  0  0  0
  7  2  1  0  0  0  0
 11  6  1  0  0  0  0
 13  9  1  0  0  0  0
 14  6  1  0  0  0  0
M  RAD  3   2   2   6   2  12   2
M  END
$$$$
