14
butane_opt
C  -3.868909   0.311230  -0.082132
C  -2.676921  -0.669641   0.085987
H  -4.829280  -0.222182   0.606012
H  -4.224276   1.628483  -1.474343
H  -3.774208   0.402785   0.432201
C  -1.370129   0.143964   0.163939
H  -2.651389  -1.338866  -0.791426
H  -2.757323  -1.445412   1.177225
C  -0.231155  -0.651400  -0.096056
H  -1.149110   1.084106   1.254988
H  -1.787920   0.547598  -0.572661
H  -0.489929  -1.213413   0.726253
H   0.817209  -0.001667   0.311176
H  -0.404689  -1.491568  -1.140413
