14
butane_opt
C  -3.901001   0.313429   0.160177
C  -2.671877  -0.629354  -0.144017
H  -5.060124  -0.504471  -0.132077
H  -3.760387   0.590834  -0.603356
H  -4.081331   1.315460   1.133632
C  -1.411770   0.095243  -0.020661
H  -2.643556  -1.518909  -1.098132
H  -2.634267  -1.058213   0.543425
C  -0.206661  -0.640959   0.166005
H  -1.604089   0.732009   0.701091
H  -1.341869   1.040493  -1.246926
H   0.160288  -1.894235   1.506406
H   0.843822  -0.072684  -0.757797
H  -0.627293  -0.763423  -0.419447
