14
butane_opt
C  -3.870457   0.269537  -0.145046
C  -2.708326  -0.648248   0.246644
H  -4.838389  -0.277528   0.196990
H  -4.012077   1.176639  -1.181167
H  -3.944914   0.849807   0.662619
C  -1.445419   0.198835   0.070782
H  -2.462110  -1.215064  -0.556798
H  -2.727918  -1.645714   1.538746
C  -0.194112  -0.684131  -0.096710
H  -1.413352   0.931641   0.908365
H  -1.508632   0.687065  -0.748159
H  -0.523430  -0.426779   0.390019
H   0.858647   0.062316   0.671621
H   0.168981  -2.250687  -1.476937
