14
butane_opt
C  -3.984372   0.287815  -0.009777
C  -2.664947  -0.702656   0.154128
H  -4.656992   0.059043  -0.230948
H  -4.013774   1.147377  -1.133838
H  -4.520853   0.768381   0.737853
C  -1.377102   0.153559   0.034207
H  -2.592066  -1.249978  -0.629929
H  -2.738911  -1.377419   1.217021
C  -0.171552  -0.668219  -0.026779
H  -1.326679   0.745752   0.818809
H  -1.313036   0.736919  -0.872988
H  -0.261569  -0.596871   0.366709
H   0.779376   0.111823   0.448035
H  -0.003693  -1.645840  -1.179175
