butane_opt
 OpenBabel08242015403D

 14 10  0  0  0  0  0  0  0  0999 V2000
   -3.9927    0.2823    0.1789 C   0  0  0  0  0  0  0  0  0  0  0  0
   -2.7146   -0.6722   -0.1295 C   0  0  0  0  0  0  0  0  0  0  0  0
   -4.8174   -0.0462   -0.2634 H   0  0  0  0  0  0  0  0  0  0  0  0
   -4.1875    0.5455   -0.4807 H   0  0  0  0  0  0  0  0  0  0  0  0
   -4.0343    1.2662    1.2390 H   0  0  0  0  0  0  0  0  0  0  0  0
   -1.3738    0.2082   -0.1568 C   0  0  0  0  0  0  0  0  0  0  0  0
   -2.6808   -1.6650   -1.0530 H   0  0  0  0  0  0  0  0  0  0  0  0
   -2.4985   -1.1982    0.6082 H   0  0  0  0  0  0  0  0  0  0  0  0
   -0.1449   -0.6838    0.1738 C   0  0  0  0  0  1  0  0  0  0  0  0
   -1.4698    0.8395    0.7305 H   0  0  0  0  0  0  0  0  0  0  0  0
   -1.2821    0.6817   -0.8806 H   0  0  0  0  0  0  0  0  0  0  0  0
   -0.0553   -1.7999    1.4655 H   0  0  0  0  0  0  0  0  0  0  0  0
    0.7932   -0.0690   -0.5000 H   0  0  0  0  0  0  0  0  0  0  0  0
   -0.0976   -0.5899   -0.1584 H   0  0  0  0  0  0  0  0  0  0  0  0
  1  5  1  0  0  0  0
  2  1  1  0  0  0  0
  2  8  1  0  0  0  0
  3  1  1  0  0  0  0
  4  1  1  0  0  0  0
  6 10  1  0  0  0  0
  7  2  1  0  0  0  0
 11  6  1  0  0  0  0
 13  9  1  0  0  0  0
 14  6  1  0  0  0  0
M  RAD  3   2   2   6   2  12   2
M  END
$$$$
