14
butane_opt
C  -3.938547   0.228402   0.118875
C  -2.745277  -0.626349  -0.117221
H  -4.847304  -0.236468   0.902291
H  -4.580326   1.271719  -1.035859
H  -3.625271   0.501290   0.788370
C  -1.426585   0.233321  -0.095200
H  -2.933502  -1.428668  -1.094664
H  -2.706136  -1.046540   0.468088
C  -0.053103  -0.680527   0.115347
H  -1.534888   1.134378   0.907321
H  -1.514622   0.655379  -0.766040
H  -0.188327  -1.677847   1.364434
H   0.670618  -0.189831   0.309287
H   0.191097  -1.315455  -0.678306
