14
butane_opt
C  -3.984761   0.323046   0.105780
C  -2.667949  -0.653640  -0.105392
H  -4.867314  -0.223518   0.815825
H  -4.451570   1.521732  -1.174531
H  -3.843340   0.463205   0.622539
C  -1.377375   0.107651   0.015137
H  -2.736636  -1.777573  -1.195708
H  -2.598735  -1.059612   0.678947
C  -0.151515  -0.696397   0.076175
H  -1.064767   0.786334   0.810577
H  -1.376064   0.856575  -0.888705
H  -0.479019  -1.183226   1.022935
H   0.920738   0.158815   0.304455
H  -0.312542  -0.957604  -0.663642
