14
butane_opt
C  -3.954513   0.267778   0.007195
C  -2.691629  -0.623227   0.043206
H  -4.872569  -0.327154   0.169494
H  -3.949177   1.039012  -1.003363
H  -3.956629   0.805589   0.784418
C  -1.399377   0.175921   0.035842
H  -2.650820  -1.293933  -0.792792
H  -2.674037  -1.200688   0.926538
C  -0.169676  -0.687581   0.014263
H  -1.380562   0.884834   0.918912
H  -1.398443   0.772745  -0.829139
H  -0.168730  -1.262298   0.870879
H   0.775809  -0.067825   0.030097
H  -0.166344  -1.412183  -0.858753
