butane_opt
 OpenBabel08242015403D

 14 12  0  0  0  0  0  0  0  0999 V2000
   -3.9183    0.2218    0.2101 C   0  0  0  0  0  0  0  0  0  0  0  0
   -2.7966   -0.5348   -0.1258 C   0  0  0  0  0  0  0  0  0  0  0  0
   -4.9708   -0.4504    0.0234 H   0  0  0  0  0  0  0  0  0  0  0  0
   -3.9642    0.5310   -0.5304 H   0  0  0  0  0  0  0  0  0  0  0  0
   -3.8630    1.0257    1.2812 H   0  0  0  0  0  0  0  0  0  0  0  0
   -1.4040    0.2365   -0.2427 C   0  0  0  0  0  0  0  0  0  0  0  0
   -3.1207   -1.0287   -1.0361 H   0  0  0  0  0  0  0  0  0  0  0  0
   -2.7351   -1.2473    0.8251 H   0  0  0  0  0  0  0  0  0  0  0  0
   -0.0841   -0.7542    0.2211 C   0  0  0  0  0  0  0  0  0  0  0  0
   -1.5881    0.7632    0.4787 H   0  0  0  0  0  0  0  0  0  0  0  0
   -1.4899    0.9692   -1.1699 H   0  0  0  0  0  0  0  0  0  0  0  0
   -0.3695   -1.3454    1.0642 H   0  0  0  0  0  0  0  0  0  0  0  0
    0.8244   -0.0894    0.5559 H   0  0  0  0  0  0  0  0  0  0  0  0
    0.6732   -1.6607   -0.8106 H   0  0  0  0  0  0  0  0  0  0  0  0
  1  5  1  0  0  0  0
  2  1  1  0  0  0  0
  2  8  1  0  0  0  0
  3  1  1  0  0  0  0
  4  1  1  0  0  0  0
  6  2  1  0  0  0  0
  6  9  1  0  0  0  0
  6 10  1  0  0  0  0
  7  2  1  0  0  0  0
  9 13  1  0  0  0  0
  9 12  1  0  0  0  0
 11  6  1  0  0  0  0
M  RAD  2   9   2  14   2
M  END
$$$$
