butane_opt
 OpenBabel08242015403D

 14  8  0  0  0  0  0  0  0  0999 V2000
   -3.8670    0.2287   -0.0888 C   0  0  0  0  0  1  0  0  0  0  0  0
   -2.7113   -0.5974    0.1489 C   0  0  0  0  0  0  0  0  0  0  0  0
   -4.8812   -0.4594    0.3380 H   0  0  0  0  0  0  0  0  0  0  0  0
   -3.9415    1.3354   -1.4406 H   0  0  0  0  0  0  0  0  0  0  0  0
   -3.6861    0.3096    0.3012 H   0  0  0  0  0  0  0  0  0  0  0  0
   -1.4843    0.2519    0.1757 C   0  0  0  0  0  0  0  0  0  0  0  0
   -2.8424   -1.0024   -0.4528 H   0  0  0  0  0  0  0  0  0  0  0  0
   -2.8506   -1.2403    1.0196 H   0  0  0  0  0  0  0  0  0  0  0  0
   -0.1108   -0.7236   -0.0917 C   0  0  0  0  0  0  0  0  0  0  0  0
   -1.6852    0.9605    1.1135 H   0  0  0  0  0  0  0  0  0  0  0  0
   -1.4112    0.8654   -0.6743 H   0  0  0  0  0  0  0  0  0  0  0  0
   -0.1254   -0.8923    0.4890 H   0  0  0  0  0  0  0  0  0  0  0  0
    0.7388   -0.3063    0.2486 H   0  0  0  0  0  0  0  0  0  0  0  0
   -0.2522   -1.9801   -1.3785 H   0  0  0  0  0  0  0  0  0  0  0  0
  1  3  1  0  0  0  0
  2  5  1  0  0  0  0
  2  8  1  0  0  0  0
  6 10  1  0  0  0  0
  7  2  1  0  0  0  0
  9  6  1  0  0  0  0
  9 13  1  0  0  0  0
 11  6  1  0  0  0  0
M  RAD  6   2   2   4   2   6   2   9   3  12   2  14   2
M  END
$$$$
