14
butane_opt
C  -3.979229   0.215286   0.057421
C  -2.706400  -0.554113   0.030991
H  -5.007232  -0.471069  -0.670892
H  -3.828298   0.432447  -0.551963
H  -4.029118   1.363616   1.243273
C  -1.429792   0.188406  -0.081333
H  -2.867001  -0.991827  -0.646588
H  -2.761300  -1.437643   0.939210
C  -0.071109  -0.679404   0.091475
H  -1.374486   0.946216   0.880325
H  -1.410007   0.996815  -1.086235
H   0.082584  -1.497965   1.073499
H   0.638979  -0.315071  -0.157867
H  -0.212895  -1.586274  -0.741057
