butane_opt
 OpenBabel08242015403D

 14 13  0  0  0  0  0  0  0  0999 V2000
   -3.9354    0.2415   -0.2016 C   0  0  0  0  0  0  0  0  0  0  0  0
   -2.7350   -0.6589    0.1600 C   0  0  0  0  0  0  0  0  0  0  0  0
   -4.8057   -0.1506    0.2759 H   0  0  0  0  0  0  0  0  0  0  0  0
   -3.9589    0.9129   -1.1165 H   0  0  0  0  0  0  0  0  0  0  0  0
   -4.0089    0.6689    0.4666 H   0  0  0  0  0  0  0  0  0  0  0  0
   -1.4196    0.2556    0.2868 C   0  0  0  0  0  0  0  0  0  0  0  0
   -2.5586   -0.9526   -0.5188 H   0  0  0  0  0  0  0  0  0  0  0  0
   -2.8753   -1.4034    1.2618 H   0  0  0  0  0  0  0  0  0  0  0  0
   -0.0982   -0.7099   -0.1739 C   0  0  0  0  0  0  0  0  0  0  0  0
   -1.3578    1.1436    1.2154 H   0  0  0  0  0  0  0  0  0  0  0  0
   -1.8354    0.6787   -0.4646 H   0  0  0  0  0  0  0  0  0  0  0  0
    0.1964   -1.3772    0.8721 H   0  0  0  0  0  0  0  0  0  0  0  0
    0.7949   -0.1913   -0.3888 H   0  0  0  0  0  0  0  0  0  0  0  0
   -0.3656   -1.3557   -1.0019 H   0  0  0  0  0  0  0  0  0  0  0  0
  1  2  1  0  0  0  0
  1  3  1  0  0  0  0
  1  5  1  0  0  0  0
  2  6  1  0  0  0  0
  2  8  1  0  0  0  0
  4  1  1  0  0  0  0
  6 10  1  0  0  0  0
  7  2  1  0  0  0  0
  9  6  1  0  0  0  0
  9 12  1  0  0  0  0
 11  6  1  0  0  0  0
 13  9  1  0  0  0  0
 14  9  1  0  0  0  0
M  END
$$$$
