butane_opt
 OpenBabel08242015403D

 14 12  0  0  0  0  0  0  0  0999 V2000
   -3.9303    0.3428   -0.1246 C   0  0  0  0  0  0  0  0  0  0  0  0
   -2.6771   -0.6644    0.1990 C   0  0  0  0  0  0  0  0  0  0  0  0
   -4.7908   -0.3327   -0.2482 H   0  0  0  0  0  0  0  0  0  0  0  0
   -3.7916    1.1064   -1.2330 H   0  0  0  0  0  0  0  0  0  0  0  0
   -4.5185    0.7619    0.4571 H   0  0  0  0  0  0  0  0  0  0  0  0
   -1.3293    0.1180    0.2151 C   0  0  0  0  0  0  0  0  0  0  0  0
   -2.5440   -1.2892   -0.5449 H   0  0  0  0  0  0  0  0  0  0  0  0
   -2.8504   -1.5416    1.2227 H   0  0  0  0  0  0  0  0  0  0  0  0
   -0.2043   -0.6656   -0.1498 C   0  0  0  0  0  0  0  0  0  0  0  0
   -1.2766    1.2280    1.2876 H   0  0  0  0  0  0  0  0  0  0  0  0
   -1.6749    0.3907   -0.4701 H   0  0  0  0  0  0  0  0  0  0  0  0
   -0.1494   -1.2371    0.7662 H   0  0  0  0  0  0  0  0  0  0  0  0
    0.8237    0.1030   -0.5917 H   0  0  0  0  0  0  0  0  0  0  0  0
   -0.5556   -1.1913   -0.8931 H   0  0  0  0  0  0  0  0  0  0  0  0
  1  2  1  0  0  0  0
  1  5  1  0  0  0  0
  2  6  1  0  0  0  0
  2  8  1  0  0  0  0
  3  1  1  0  0  0  0
  4  1  1  0  0  0  0
  7  2  1  0  0  0  0
  9  6  1  0  0  0  0
  9 12  1  0  0  0  0
 11  6  1  0  0  0  0
 13  9  1  0  0  0  0
 14  9  1  0  0  0  0
M  RAD  2   6   2  10   2
M  END
$$$$
