butane_opt
 OpenBabel08242015403D

 14  8  0  0  0  0  0  0  0  0999 V2000
   -3.9546    0.3134    0.0698 C   0  0  0  0  0  0  0  0  0  0  0  0
   -2.6861   -0.6680   -0.0660 C   0  0  0  0  0  0  0  0  0  0  0  0
   -4.5825   -0.1037   -0.1040 H   0  0  0  0  0  0  0  0  0  0  0  0
   -4.2584    0.7815   -0.6081 H   0  0  0  0  0  0  0  0  0  0  0  0
   -4.3603    1.2029    1.1504 H   0  0  0  0  0  0  0  0  0  0  0  0
   -1.3666    0.1354    0.0377 C   0  0  0  0  0  0  0  0  0  0  0  0
   -2.8485   -1.7415   -1.3002 H   0  0  0  0  0  0  0  0  0  0  0  0
   -2.7048   -1.1926    0.6719 H   0  0  0  0  0  0  0  0  0  0  0  0
   -0.1861   -0.6625    0.0727 C   0  0  0  0  0 15  0  0  0  0  0  0
   -1.0772    0.7370    0.7851 H   0  0  0  0  0  0  0  0  0  0  0  0
   -1.2569    0.8921   -0.8573 H   0  0  0  0  0  0  0  0  0  0  0  0
   -0.1030   -1.9260    1.4756 H   0  0  0  0  0  0  0  0  0  0  0  0
    0.8853    0.0030   -0.8150 H   0  0  0  0  0  0  0  0  0  0  0  0
   -0.3799   -0.4842   -0.2295 H   0  0  0  0  0  0  0  0  0  0  0  0
  1  5  1  0  0  0  0
  2  1  1  0  0  0  0
  2  8  1  0  0  0  0
  3  1  1  0  0  0  0
  4  1  1  0  0  0  0
  6 10  1  0  0  0  0
 11  6  1  0  0  0  0
 14  6  1  0  0  0  0
M  RAD  5   2   3   6   2   7   2  12   2  13   2
M  END
$$$$
