14
butane_opt
C  -4.010095   0.307279   0.126255
C  -2.674902  -0.676962  -0.009310
H  -4.751389  -0.110608  -0.801690
H  -3.901839   0.130227  -0.293020
H  -4.062245   1.802128   1.699524
C  -1.419200   0.138384  -0.196763
H  -2.760094  -1.399270  -0.904029
H  -2.542366  -1.365832   0.956789
C  -0.175234  -0.601451   0.145358
H  -1.350414   0.638029   0.554732
H  -0.969725   0.763663  -1.310783
H  -0.177035  -1.699378   1.363425
H   0.761414  -0.081463   0.050247
H   0.022457  -1.114805  -0.574578
