butane_opt
 OpenBabel08242015403D

 14 10  0  0  0  0  0  0  0  0999 V2000
   -3.9766    0.2284    0.1548 C   0  0  0  0  0  1  0  0  0  0  0  0
   -2.7125   -0.5576   -0.0945 C   0  0  0  0  0  0  0  0  0  0  0  0
   -4.9095   -0.4267   -0.6576 H   0  0  0  0  0  0  0  0  0  0  0  0
   -3.8005   -0.0305   -0.1945 H   0  0  0  0  0  0  0  0  0  0  0  0
   -4.1595    1.4092    1.5409 H   0  0  0  0  0  0  0  0  0  0  0  0
   -1.4085    0.2631   -0.1787 C   0  0  0  0  0  0  0  0  0  0  0  0
   -3.0220   -1.0187   -0.8814 H   0  0  0  0  0  0  0  0  0  0  0  0
   -2.7627   -1.3106    0.8451 H   0  0  0  0  0  0  0  0  0  0  0  0
   -0.0789   -0.7651    0.1906 C   0  0  0  0  0  0  0  0  0  0  0  0
   -1.6233    0.7054    0.5928 H   0  0  0  0  0  0  0  0  0  0  0  0
   -1.5279    1.0663   -1.2529 H   0  0  0  0  0  0  0  0  0  0  0  0
    0.1562   -1.6672    1.2675 H   0  0  0  0  0  0  0  0  0  0  0  0
    0.9122   -0.0884   -0.0818 H   0  0  0  0  0  0  0  0  0  0  0  0
   -0.1758   -1.1387   -0.4934 H   0  0  0  0  0  0  0  0  0  0  0  0
  2  8  1  0  0  0  0
  3  1  1  0  0  0  0
  4  2  1  0  0  0  0
  6  9  1  0  0  0  0
  6 10  1  0  0  0  0
  7  2  1  0  0  0  0
  9 12  1  0  0  0  0
 11  6  1  0  0  0  0
 13  9  1  0  0  0  0
 14  9  1  0  0  0  0
M  RAD  3   2   2   5   2   6   2
M  END
$$$$
