butane_opt
 OpenBabel08242015403D

 14 11  0  0  0  0  0  0  0  0999 V2000
   -4.0418    0.3170   -0.1512 C   0  0  0  0  0  0  0  0  0  0  0  0
   -2.6676   -0.6995    0.2604 C   0  0  0  0  0  0  0  0  0  0  0  0
   -4.7994   -0.1802   -0.9636 H   0  0  0  0  0  0  0  0  0  0  0  0
   -3.8761    0.4306   -0.7729 H   0  0  0  0  0  0  0  0  0  0  0  0
   -4.4151    1.3515    1.0985 H   0  0  0  0  0  0  0  0  0  0  0  0
   -1.3257    0.2075    0.1473 C   0  0  0  0  0  0  0  0  0  0  0  0
   -2.4167   -1.1825   -0.4166 H   0  0  0  0  0  0  0  0  0  0  0  0
   -2.8734   -1.9177    1.4028 H   0  0  0  0  0  0  0  0  0  0  0  0
   -0.1787   -0.6669   -0.1461 C   0  0  0  0  0  0  0  0  0  0  0  0
   -1.1738    0.8673    1.0396 H   0  0  0  0  0  0  0  0  0  0  0  0
   -1.6445    0.8993   -0.7919 H   0  0  0  0  0  0  0  0  0  0  0  0
    0.0614   -1.2038    0.6657 H   0  0  0  0  0  0  0  0  0  0  0  0
    0.7675   -0.0262   -0.0972 H   0  0  0  0  0  0  0  0  0  0  0  0
   -0.1216   -1.3615   -1.0044 H   0  0  0  0  0  0  0  0  0  0  0  0
  1  2  1  0  0  0  0
  3  1  1  0  0  0  0
  4  1  1  0  0  0  0
  6  2  1  0  0  0  0
  6 10  1  0  0  0  0
  7  2  1  0  0  0  0
  9 13  1  0  0  0  0
  9  6  1  0  0  0  0
  9 12  1  0  0  0  0
 11  6  1  0  0  0  0
 14  9  1  0  0  0  0
M  RAD  4   1   2   2   2   5   2   8   2
M  END
$$$$
