butane_opt
 OpenBabel08242015403D

 14 13  0  0  0  0  0  0  0  0999 V2000
   -3.9430    0.2607    0.0463 C   0  0  0  0  0  0  0  0  0  0  0  0
   -2.7074   -0.6177    0.0079 C   0  0  0  0  0  0  0  0  0  0  0  0
   -4.8905   -0.3630    0.1151 H   0  0  0  0  0  0  0  0  0  0  0  0
   -4.0124    0.9210   -0.8662 H   0  0  0  0  0  0  0  0  0  0  0  0
   -3.9400    0.8929    0.8685 H   0  0  0  0  0  0  0  0  0  0  0  0
   -1.4007    0.1972   -0.0075 C   0  0  0  0  0  0  0  0  0  0  0  0
   -2.7402   -1.3425   -0.8750 H   0  0  0  0  0  0  0  0  0  0  0  0
   -2.7038   -1.1734    0.8620 H   0  0  0  0  0  0  0  0  0  0  0  0
   -0.1531   -0.6969    0.0535 C   0  0  0  0  0  0  0  0  0  0  0  0
   -1.3869    0.8408    0.8015 H   0  0  0  0  0  0  0  0  0  0  0  0
   -1.4192    0.8555   -0.9103 H   0  0  0  0  0  0  0  0  0  0  0  0
   -0.1174   -1.3421    0.9462 H   0  0  0  0  0  0  0  0  0  0  0  0
    0.7012   -0.1576    0.0749 H   0  0  0  0  0  0  0  0  0  0  0  0
   -0.0568   -1.3329   -0.7745 H   0  0  0  0  0  0  0  0  0  0  0  0
  1  3  1  0  0  0  0
  1  5  1  0  0  0  0
  2  1  1  0  0  0  0
  2  8  1  0  0  0  0
  4  1  1  0  0  0  0
  6  2  1  0  0  0  0
  6  9  1  0  0  0  0
  6 10  1  0  0  0  0
  7  2  1  0  0  0  0
  9 13  1  0  0  0  0
  9 12  1  0  0  0  0
 11  6  1  0  0  0  0
 14  9  1  0  0  0  0
M  END
$$$$
