butane_opt
 OpenBabel08242015403D

 14 12  0  0  0  0  0  0  0  0999 V2000
   -3.9246    0.2769   -0.1070 C   0  0  0  0  0  0  0  0  0  0  0  0
   -2.6111   -0.5985    0.1495 C   0  0  0  0  0  0  0  0  0  0  0  0
   -4.8069   -0.2145   -0.1210 H   0  0  0  0  0  0  0  0  0  0  0  0
   -3.8446    1.1482   -1.2264 H   0  0  0  0  0  0  0  0  0  0  0  0
   -4.2589    0.8510    0.6347 H   0  0  0  0  0  0  0  0  0  0  0  0
   -1.4270    0.0610    0.2068 C   0  0  0  0  0  0  0  0  0  0  0  0
   -2.7831   -1.5015   -0.7037 H   0  0  0  0  0  0  0  0  0  0  0  0
   -2.6239   -1.0436    0.9179 H   0  0  0  0  0  0  0  0  0  0  0  0
   -0.1791   -0.6398   -0.1027 C   0  0  0  0  0  0  0  0  0  0  0  0
   -1.3231    0.8251    1.1585 H   0  0  0  0  0  0  0  0  0  0  0  0
   -1.5579    0.5593   -0.5422 H   0  0  0  0  0  0  0  0  0  0  0  0
   -0.0077   -1.3961    1.0025 H   0  0  0  0  0  0  0  0  0  0  0  0
    0.8400    0.0108   -0.6827 H   0  0  0  0  0  0  0  0  0  0  0  0
   -0.9391   -0.8689   -0.7531 H   0  0  0  0  0  0  0  0  0  0  0  0
  1  2  1  0  0  0  0
  1  5  1  0  0  0  0
  2  6  1  0  0  0  0
  2  8  1  0  0  0  0
  3  1  1  0  0  0  0
  4  1  1  0  0  0  0
  6 10  1  0  0  0  0
  7  2  1  0  0  0  0
  9 12  1  0  0  0  0
 11  6  1  0  0  0  0
 13  9  1  0  0  0  0
 14  9  1  0  0  0  0
M  RAD  2   6   2   9   2
M  END
$$$$
