butane_opt
 OpenBabel08242015403D

 14 11  0  0  0  0  0  0  0  0999 V2000
   -3.9788    0.2317    0.1201 C   0  0  0  0  0  0  0  0  0  0  0  0
   -2.7279   -0.6233   -0.1129 C   0  0  0  0  0  0  0  0  0  0  0  0
   -4.9176   -0.4648    0.1085 H   0  0  0  0  0  0  0  0  0  0  0  0
   -4.0675    0.6449   -0.6428 H   0  0  0  0  0  0  0  0  0  0  0  0
   -3.7689    1.1779    1.0804 H   0  0  0  0  0  0  0  0  0  0  0  0
   -1.3739    0.3105   -0.0062 C   0  0  0  0  0  0  0  0  0  0  0  0
   -2.6276   -1.4335   -1.2348 H   0  0  0  0  0  0  0  0  0  0  0  0
   -2.9964   -0.9900    0.5942 H   0  0  0  0  0  0  0  0  0  0  0  0
   -0.1620   -0.7840    0.1274 C   0  0  0  0  0  0  0  0  0  0  0  0
   -1.3612    0.8181    0.7004 H   0  0  0  0  0  0  0  0  0  0  0  0
   -1.1456    1.0941   -1.0208 H   0  0  0  0  0  0  0  0  0  0  0  0
    0.2282   -1.8406    1.2388 H   0  0  0  0  0  0  0  0  0  0  0  0
    0.6779   -0.3709   -0.6557 H   0  0  0  0  0  0  0  0  0  0  0  0
   -0.0904   -0.7347   -0.1643 H   0  0  0  0  0  0  0  0  0  0  0  0
  1  5  1  0  0  0  0
  2  6  1  0  0  0  0
  2  1  1  0  0  0  0
  2  8  1  0  0  0  0
  3  1  1  0  0  0  0
  4  1  1  0  0  0  0
  6  9  1  0  0  0  0
  6 10  1  0  0  0  0
  7  2  1  0  0  0  0
 11  6  1  0  0  0  0
 13  9  1  0  0  0  0
M  RAD  3   9   3  12   2  14   2
M  END
$$$$
