14
butane_opt
C  -4.000306   0.221316   0.214208
C  -2.729139  -0.574820  -0.162279
H  -5.031735  -0.368897   0.120812
H  -3.871181   0.796172  -0.663320
H  -3.788389   1.008288   1.159735
C  -1.398999   0.171389  -0.150658
H  -2.853295  -1.318121  -1.126201
H  -2.479650  -0.871822   0.538655
C  -0.109120  -0.677914   0.220879
H  -1.546781   0.592202   0.525642
H  -1.432135   1.056609  -1.155980
H  -0.170847  -1.606395   1.154627
H   0.660610  -0.157267  -0.024102
H   0.321032  -1.308016  -0.546806
