14
butane_opt
C  -3.955826   0.335685   0.107903
C  -2.657740  -0.694762   0.036061
H  -4.957143  -0.291567  -0.337921
H  -3.658496   0.457293  -0.421089
H  -4.307466   1.547349   1.208706
C  -1.325352   0.100577  -0.132640
H  -2.645893  -1.444583  -0.814099
H  -2.498503  -1.077627   0.665462
C  -0.241954  -0.623738   0.081748
H  -1.360910   0.640432   0.500402
H  -1.348500   1.016068  -1.285286
H  -0.719247  -1.393369   1.225708
H   0.724924  -0.000780   0.338017
H  -0.088255  -1.379722  -0.673261
