14
butane_opt
C  -3.870693   0.206603  -0.105586
C  -2.686469  -0.573277   0.241659
H  -4.602182  -0.246702  -0.014603
H  -3.714830   1.149607  -1.271854
H  -4.232418   0.357510   0.548939
C  -1.448899   0.200638   0.095669
H  -2.535283  -1.021315  -0.453363
H  -2.678102  -1.232870   1.305226
C  -0.185728  -0.705072  -0.118675
H  -1.472283   1.084005   1.021731
H  -1.552101   0.767246  -0.794140
H  -0.245871  -0.667963   0.383220
H   0.583208  -0.222525   0.732912
H  -0.232232  -2.033068  -1.463537
