14
butane_opt
C  -3.943446   0.301742   0.166452
C  -2.660957  -0.651678  -0.095609
H  -4.684216  -0.107735  -0.293169
H  -3.969033   0.247147  -0.235244
H  -4.219116   1.658309   1.470395
C  -1.392578   0.119898  -0.224659
H  -2.864510  -1.231229  -0.900412
H  -2.593201  -1.259675   0.762032
C  -0.212628  -0.654904   0.246748
H  -1.392649   0.441690   0.354068
H  -1.303265   0.783822  -1.351741
H  -0.241590  -1.358807   1.131003
H   0.906637   0.312234   0.130041
H  -0.201692  -1.295078  -0.639370
