14
butane_opt
C  -3.954603   0.313365   0.069796
C  -2.686139  -0.668024  -0.065993
H  -4.582547  -0.103686  -0.103958
H  -4.258437   0.781534  -0.608074
H  -4.360305   1.202935   1.150394
C  -1.366631   0.135439   0.037734
H  -2.848452  -1.741515  -1.300178
H  -2.704751  -1.192551   0.671927
C  -0.186130  -0.662487   0.072681
H  -1.077167   0.737001   0.785098
H  -1.256940   0.892125  -0.857314
H  -0.102961  -1.926012   1.475577
H   0.885287   0.002990  -0.815025
H  -0.379893  -0.484166  -0.229504
