butane_opt
 OpenBabel08242015403D

 14 13  0  0  0  0  0  0  0  0999 V2000
   -4.0464    0.2941    0.0174 C   0  0  0  0  0  0  0  0  0  0  0  0
   -2.6987   -0.6297    0.0087 C   0  0  0  0  0  0  0  0  0  0  0  0
   -4.9705   -0.2211    0.3522 H   0  0  0  0  0  0  0  0  0  0  0  0
   -4.2940    0.8538   -0.8264 H   0  0  0  0  0  0  0  0  0  0  0  0
   -3.7781    0.8842    0.9345 H   0  0  0  0  0  0  0  0  0  0  0  0
   -1.3248    0.1338   -0.0185 C   0  0  0  0  0  0  0  0  0  0  0  0
   -2.7708   -1.2710   -0.8556 H   0  0  0  0  0  0  0  0  0  0  0  0
   -2.8748   -1.2424    0.7873 H   0  0  0  0  0  0  0  0  0  0  0  0
   -0.1133   -0.6825    0.1074 C   0  0  0  0  0  0  0  0  0  0  0  0
   -1.1475    0.8035    0.8559 H   0  0  0  0  0  0  0  0  0  0  0  0
   -1.3658    1.1158   -1.1334 H   0  0  0  0  0  0  0  0  0  0  0  0
   -0.3328   -1.0385    0.7993 H   0  0  0  0  0  0  0  0  0  0  0  0
    0.7799   -0.2128    0.1153 H   0  0  0  0  0  0  0  0  0  0  0  0
   -0.0653   -1.5540   -0.9814 H   0  0  0  0  0  0  0  0  0  0  0  0
  1  3  1  0  0  0  0
  1  5  1  0  0  0  0
  2  1  1  0  0  0  0
  2  8  1  0  0  0  0
  4  1  1  0  0  0  0
  6  2  1  0  0  0  0
  6  9  1  0  0  0  0
  6 10  1  0  0  0  0
  7  2  1  0  0  0  0
  9 13  1  0  0  0  0
  9 12  1  0  0  0  0
 11  6  1  0  0  0  0
 14  9  1  0  0  0  0
M  END
$$$$
