14
butane_opt
C  -4.010746   0.209281   0.156017
C  -2.702411  -0.516406   0.049359
H  -5.110494  -0.445648  -0.877041
H  -3.723552   0.046456  -0.243034
H  -4.232427   1.478661   1.231847
C  -1.414452   0.223360  -0.175979
H  -2.713653  -1.502928  -1.039961
H  -2.920892  -1.018166   0.659460
C  -0.075916  -0.726055   0.128911
H  -1.329620   0.693444   0.501562
H  -1.377752   1.155152  -1.316112
H  -0.010574  -1.754503   1.265096
H   0.715065  -0.206639   0.019271
H   0.134846  -1.253773  -0.531305
