14
butane_opt
C  -4.019299   0.323077   0.111158
C  -2.704679  -0.720732   0.010654
H  -4.920486  -0.073469  -0.656455
H  -3.846998   0.338811  -0.419583
H  -4.384253   1.619392   1.352937
C  -1.375638   0.120489  -0.174392
H  -2.605162  -1.391051  -0.752512
H  -2.421156  -1.412822   0.831721
C  -0.121110  -0.628272   0.102398
H  -1.459717   0.997823   0.936498
H  -1.137092   0.820292  -1.099112
H  -0.154723  -1.597477   1.266601
H   0.839403  -0.007853  -0.026027
H  -0.307719  -0.904623  -0.501336
