14
butane_opt
C  -3.961078   0.276283  -0.055907
C  -2.720274  -0.627918   0.079184
H  -4.871201  -0.305211   0.574643
H  -4.179801   1.589826  -1.418779
H  -3.748843   0.184690   0.321659
C  -1.440150   0.196377   0.167529
H  -2.523549  -1.273974  -0.785050
H  -2.853498  -1.210300   1.050853
C  -0.080308  -0.698422  -0.066546
H  -1.435702   0.809136   1.007336
H  -1.251911   0.639003  -0.542833
H  -0.113240  -0.858524   0.620845
H   0.879365  -0.171783   0.127962
H  -0.472839  -1.618152  -1.122370
