butane_opt
 OpenBabel08242015403D

 14 10  0  0  0  0  0  0  0  0999 V2000
   -3.9844    0.2878   -0.0098 C   0  0  0  0  0  0  0  0  0  0  0  0
   -2.6649   -0.7027    0.1541 C   0  0  0  0  0  0  0  0  0  0  0  0
   -4.6570    0.0590   -0.2309 H   0  0  0  0  0  0  0  0  0  0  0  0
   -4.0138    1.1474   -1.1338 H   0  0  0  0  0  0  0  0  0  0  0  0
   -4.5209    0.7684    0.7379 H   0  0  0  0  0  0  0  0  0  0  0  0
   -1.3771    0.1536    0.0342 C   0  0  0  0  0  0  0  0  0  0  0  0
   -2.5921   -1.2500   -0.6299 H   0  0  0  0  0  0  0  0  0  0  0  0
   -2.7389   -1.3774    1.2170 H   0  0  0  0  0  0  0  0  0  0  0  0
   -0.1716   -0.6682   -0.0268 C   0  0  0  0  0  1  0  0  0  0  0  0
   -1.3267    0.7458    0.8188 H   0  0  0  0  0  0  0  0  0  0  0  0
   -1.3130    0.7369   -0.8730 H   0  0  0  0  0  0  0  0  0  0  0  0
   -0.2616   -0.5969    0.3667 H   0  0  0  0  0  0  0  0  0  0  0  0
    0.7794    0.1118    0.4480 H   0  0  0  0  0  0  0  0  0  0  0  0
   -0.0037   -1.6458   -1.1792 H   0  0  0  0  0  0  0  0  0  0  0  0
  1  2  1  0  0  0  0
  1  5  1  0  0  0  0
  2  8  1  0  0  0  0
  3  1  1  0  0  0  0
  4  1  1  0  0  0  0
  6 12  1  0  0  0  0
  6 10  1  0  0  0  0
  7  2  1  0  0  0  0
  9 13  1  0  0  0  0
 11  6  1  0  0  0  0
M  RAD  3   2   2   6   2  14   2
M  END
$$$$
