14
butane_opt
C  -3.873419   0.334094  -0.060648
C  -2.676749  -0.616720   0.204259
H  -4.798173  -0.241509  -0.072921
H  -3.952843   1.022890  -1.005895
H  -4.044218   0.499357   0.460471
C  -1.412203   0.075153   0.051416
H  -2.655120  -1.046884  -0.588590
H  -2.987745  -1.337800   1.225592
C  -0.194916  -0.650641  -0.022643
H  -1.463596   0.738591   0.822635
H  -1.317681   0.658330  -0.920342
H  -0.340781  -0.531720   0.262952
H   0.736972   0.142042   0.539209
H  -0.338303  -2.094347  -1.454987
