butane_opt
 OpenBabel08242015403D

 14 12  0  0  0  0  0  0  0  0999 V2000
   -3.8782    0.3331    0.0877 C   0  0  0  0  0  0  0  0  0  0  0  0
   -2.6747   -0.6127   -0.0747 C   0  0  0  0  0  0  0  0  0  0  0  0
   -4.8430   -0.2631    0.6417 H   0  0  0  0  0  0  0  0  0  0  0  0
   -4.3066    1.2944   -1.0603 H   0  0  0  0  0  0  0  0  0  0  0  0
   -3.8564    0.6431    0.7977 H   0  0  0  0  0  0  0  0  0  0  0  0
   -1.4182    0.0301   -0.0045 C   0  0  0  0  0  0  0  0  0  0  0  0
   -2.8093   -1.5452   -1.1701 H   0  0  0  0  0  0  0  0  0  0  0  0
   -2.6787   -1.1886    0.7075 H   0  0  0  0  0  0  0  0  0  0  0  0
   -0.2115   -0.6385    0.0638 C   0  0  0  0  0  0  0  0  0  0  0  0
   -1.5297    0.7769    0.9157 H   0  0  0  0  0  0  0  0  0  0  0  0
   -1.0757    0.7252   -0.9232 H   0  0  0  0  0  0  0  0  0  0  0  0
   -0.3119   -1.2515    1.0168 H   0  0  0  0  0  0  0  0  0  0  0  0
    0.9583    0.0969    0.1574 H   0  0  0  0  0  0  0  0  0  0  0  0
   -0.3865   -1.0453   -0.5294 H   0  0  0  0  0  0  0  0  0  0  0  0
  1  3  1  0  0  0  0
  1  5  1  0  0  0  0
  2  6  1  0  0  0  0
  2  1  1  0  0  0  0
  2  8  1  0  0  0  0
  6  9  1  0  0  0  0
  6 10  1  0  0  0  0
  7  2  1  0  0  0  0
  9 13  1  0  0  0  0
  9 12  1  0  0  0  0
 11  6  1  0  0  0  0
 14  9  1  0  0  0  0
M  RAD  2   1   2   4   2
M  END
$$$$
