butane_opt
 OpenBabel08242015403D

 14  8  0  0  0  0  0  0  0  0999 V2000
   -3.9307    0.3012    0.1146 C   0  0  0  0  0  0  0  0  0  0  0  0
   -2.6833   -0.5969   -0.1300 C   0  0  0  0  0  0  0  0  0  0  0  0
   -4.6966   -0.1790   -0.0416 H   0  0  0  0  0  0  0  0  0  0  0  0
   -4.2134    0.5628   -0.3577 H   0  0  0  0  0  0  0  0  0  0  0  0
   -3.8768    1.4359    1.3670 H   0  0  0  0  0  0  0  0  0  0  0  0
   -1.3597    0.0718   -0.0720 C   0  0  0  0  0  0  0  0  0  0  0  0
   -2.5314   -1.4888   -1.1069 H   0  0  0  0  0  0  0  0  0  0  0  0
   -2.5972   -1.2915    0.8429 H   0  0  0  0  0  0  0  0  0  0  0  0
   -0.2197   -0.6446    0.1160 C   0  0  0  0  0  1  0  0  0  0  0  0
   -1.4897    0.6511    0.6487 H   0  0  0  0  0  0  0  0  0  0  0  0
   -1.1142    0.6532   -1.1109 H   0  0  0  0  0  0  0  0  0  0  0  0
   -0.4763   -1.8341    1.5051 H   0  0  0  0  0  0  0  0  0  0  0  0
    0.7862    0.1349   -0.2638 H   0  0  0  0  0  0  0  0  0  0  0  0
   -0.4829   -0.6528   -0.2844 H   0  0  0  0  0  0  0  0  0  0  0  0
  2  1  1  0  0  0  0
  2  8  1  0  0  0  0
  3  1  1  0  0  0  0
  6 10  1  0  0  0  0
  7  2  1  0  0  0  0
 11  6  1  0  0  0  0
 13  9  1  0  0  0  0
 14  6  1  0  0  0  0
M  RAD  6   1   3   2   2   4   2   5   2   6   2  12   2
M  END
$$$$
