butane_opt
 OpenBabel08242015403D

 14  9  0  0  0  0  0  0  0  0999 V2000
   -3.9128    0.3524    0.1220 C   0  0  0  0  0  0  0  0  0  0  0  0
   -2.6422   -0.6922   -0.1275 C   0  0  0  0  0  0  0  0  0  0  0  0
   -4.6958   -0.2062    0.0240 H   0  0  0  0  0  0  0  0  0  0  0  0
   -4.0342    0.4619   -0.3301 H   0  0  0  0  0  0  0  0  0  0  0  0
   -4.1192    1.2856    1.2393 H   0  0  0  0  0  0  0  0  0  0  0  0
   -1.4136    0.1074   -0.0844 C   0  0  0  0  0  0  0  0  0  0  0  0
   -2.6964   -1.5599   -1.0938 H   0  0  0  0  0  0  0  0  0  0  0  0
   -2.4875   -1.1570    0.6297 H   0  0  0  0  0  0  0  0  0  0  0  0
   -0.2559   -0.6025    0.1203 C   0  0  0  0  0  1  0  0  0  0  0  0
   -1.2843    0.7854    0.8373 H   0  0  0  0  0  0  0  0  0  0  0  0
   -1.0931    0.5591   -1.0599 H   0  0  0  0  0  0  0  0  0  0  0  0
   -0.2980   -2.0227    1.5549 H   0  0  0  0  0  0  0  0  0  0  0  0
    0.5852   -0.0552   -0.4925 H   0  0  0  0  0  0  0  0  0  0  0  0
   -0.2354   -0.4974   -0.1120 H   0  0  0  0  0  0  0  0  0  0  0  0
  1  5  1  0  0  0  0
  2  1  1  0  0  0  0
  2  8  1  0  0  0  0
  3  1  1  0  0  0  0
  6 10  1  0  0  0  0
  7  2  1  0  0  0  0
 11  6  1  0  0  0  0
 13  9  1  0  0  0  0
 14  6  1  0  0  0  0
M  RAD  5   1   2   2   2   4   2   6   2  12   2
M  END
$$$$
