butane_opt
 OpenBabel08242015403D

 14 10  0  0  0  0  0  0  0  0999 V2000
   -4.0193    0.3231    0.1112 C   0  0  0  0  0  0  0  0  0  0  0  0
   -2.7047   -0.7207    0.0107 C   0  0  0  0  0  0  0  0  0  0  0  0
   -4.9205   -0.0735   -0.6565 H   0  0  0  0  0  0  0  0  0  0  0  0
   -3.8470    0.3388   -0.4196 H   0  0  0  0  0  0  0  0  0  0  0  0
   -4.3843    1.6194    1.3529 H   0  0  0  0  0  0  0  0  0  0  0  0
   -1.3756    0.1205   -0.1744 C   0  0  0  0  0  0  0  0  0  0  0  0
   -2.6052   -1.3911   -0.7525 H   0  0  0  0  0  0  0  0  0  0  0  0
   -2.4212   -1.4128    0.8317 H   0  0  0  0  0  0  0  0  0  0  0  0
   -0.1211   -0.6283    0.1024 C   0  0  0  0  0  0  0  0  0  0  0  0
   -1.4597    0.9978    0.9365 H   0  0  0  0  0  0  0  0  0  0  0  0
   -1.1371    0.8203   -1.0991 H   0  0  0  0  0  0  0  0  0  0  0  0
   -0.1547   -1.5975    1.2666 H   0  0  0  0  0  0  0  0  0  0  0  0
    0.8394   -0.0079   -0.0260 H   0  0  0  0  0  0  0  0  0  0  0  0
   -0.3077   -0.9046   -0.5013 H   0  0  0  0  0  0  0  0  0  0  0  0
  2  1  1  0  0  0  0
  2  8  1  0  0  0  0
  3  1  1  0  0  0  0
  6  9  1  0  0  0  0
  6 10  1  0  0  0  0
  7  2  1  0  0  0  0
  9 12  1  0  0  0  0
 11  6  1  0  0  0  0
 13  9  1  0  0  0  0
 14  9  1  0  0  0  0
M  RAD  5   1   3   2   2   4   2   5   2   6   2
M  END
$$$$
