14
butane_opt
C  -3.917808   0.283595   0.136354
C  -2.605445  -0.633733  -0.070850
H  -4.742672  -0.429790   0.256238
H  -4.021892   0.513586  -0.454240
H  -3.885661   1.217872   1.168155
C  -1.439379   0.212355  -0.209433
H  -2.576384  -1.359155  -0.933095
H  -2.693825  -1.264713   0.914135
C  -0.269967  -0.697132   0.165845
H  -1.470044   0.657350   0.489258
H  -1.255515   0.757819  -1.170747
H  -0.506020  -1.053044   1.034994
H   0.735372   0.009914   0.560858
H   0.177991  -1.483205  -0.648509
