14
butane_opt
C  -3.936584   0.273161   0.047723
C  -2.700549  -0.621777  -0.009429
H  -4.822588  -0.289034   0.196233
H  -4.047718   0.891805  -0.850576
H  -3.909967   0.903834   0.909411
C  -1.397916   0.179388  -0.005802
H  -2.702091  -1.372322  -0.920122
H  -2.681308  -1.211209   0.858210
C  -0.179026  -0.694167   0.061994
H  -1.424911   0.837071   0.810370
H  -1.338202   0.852525  -0.956831
H  -0.192369  -1.370174   0.994932
H   0.800624  -0.043596   0.028224
H  -0.141867  -1.296350  -0.754959
