14
butane_opt
C  -3.920159   0.257793   0.123998
C  -2.636722  -0.659456  -0.104260
H  -4.781661  -0.133780   0.428005
H  -4.239240   0.923667  -0.657674
H  -3.553577   1.126872   1.298668
C  -1.448904   0.170360  -0.170492
H  -2.812196  -1.333715  -0.870586
H  -2.842701  -1.394838   0.887860
C  -0.183913  -0.660678   0.134110
H  -1.693448   0.865519   0.596199
H  -1.237609   0.900594  -1.186345
H  -0.483917  -1.193543   1.026507
H   0.757905  -0.047885   0.851927
H   0.105059  -1.460093  -0.728276
