14
butane_opt
C  -3.908439   0.328750  -0.114805
C  -2.637878  -0.705157   0.120678
H  -4.619875  -0.202042   0.356419
H  -4.233198   1.587908  -1.489112
H  -3.786511   0.433087   0.392049
C  -1.387371   0.162248   0.207780
H  -2.830582  -1.348866  -0.666926
H  -2.700357  -1.317160   1.092919
C  -0.222586  -0.657656  -0.070433
H  -1.384914   0.974656   1.094001
H  -1.388723   0.400730  -0.331109
H  -0.207153  -1.145984   0.660096
H   0.817538   0.028753  -0.313582
H  -0.809318  -1.362473  -1.187144
