14
butane_opt
C  -3.868000   0.192111  -0.127007
C  -2.760229  -0.481098   0.223261
H  -4.837859  -0.597505   0.430928
H  -3.869552   1.139640  -1.294907
H  -3.963447   0.424605   0.350202
C  -1.453546   0.203906   0.137846
H  -2.731628  -1.125445  -0.700797
H  -2.715552  -1.109088   1.008504
C  -0.133829  -0.758818  -0.117671
H  -1.293694   1.045723   1.192400
H  -1.754041   0.817344  -0.747690
H  -0.163131  -0.971688   0.513758
H   0.824451  -0.170878   0.426792
H   0.091233  -1.817822  -1.185001
