butane_opt
 OpenBabel08242015403D

 14 11  0  0  0  0  0  0  0  0999 V2000
   -3.9558    0.3357    0.1079 C   0  0  0  0  0  0  0  0  0  0  0  0
   -2.6577   -0.6948    0.0361 C   0  0  0  0  0  0  0  0  0  0  0  0
   -4.9571   -0.2916   -0.3379 H   0  0  0  0  0  0  0  0  0  0  0  0
   -3.6585    0.4573   -0.4211 H   0  0  0  0  0  0  0  0  0  0  0  0
   -4.3075    1.5473    1.2087 H   0  0  0  0  0  0  0  0  0  0  0  0
   -1.3254    0.1006   -0.1326 C   0  0  0  0  0  0  0  0  0  0  0  0
   -2.6459   -1.4446   -0.8141 H   0  0  0  0  0  0  0  0  0  0  0  0
   -2.4985   -1.0776    0.6655 H   0  0  0  0  0  0  0  0  0  0  0  0
   -0.2420   -0.6237    0.0817 C   0  0  0  0  0  0  0  0  0  0  0  0
   -1.3609    0.6404    0.5004 H   0  0  0  0  0  0  0  0  0  0  0  0
   -1.3485    1.0161   -1.2853 H   0  0  0  0  0  0  0  0  0  0  0  0
   -0.7192   -1.3934    1.2257 H   0  0  0  0  0  0  0  0  0  0  0  0
    0.7249   -0.0008    0.3380 H   0  0  0  0  0  0  0  0  0  0  0  0
   -0.0883   -1.3797   -0.6733 H   0  0  0  0  0  0  0  0  0  0  0  0
  2  1  1  0  0  0  0
  2  8  1  0  0  0  0
  3  1  1  0  0  0  0
  6  2  1  0  0  0  0
  6  9  1  0  0  0  0
  6 10  1  0  0  0  0
  7  2  1  0  0  0  0
  9 13  1  0  0  0  0
  9 12  1  0  0  0  0
 11  6  1  0  0  0  0
 14  9  1  0  0  0  0
M  RAD  3   1   3   4   2   5   2
M  END
$$$$
