butane_opt
 OpenBabel08242015403D

 14  9  0  0  0  0  0  0  0  0999 V2000
   -3.9268    0.2169   -0.1390 C   0  0  0  0  0  0  0  0  0  0  0  0
   -2.6447   -0.5266    0.1759 C   0  0  0  0  0  0  0  0  0  0  0  0
   -5.1786   -0.7705   -0.0781 H   0  0  0  0  0  0  0  0  0  0  0  0
   -3.9019    1.1566   -1.2995 H   0  0  0  0  0  0  0  0  0  0  0  0
   -3.8440    0.5255    0.3863 H   0  0  0  0  0  0  0  0  0  0  0  0
   -1.4385    0.2386    0.2624 C   0  0  0  0  0  0  0  0  0  0  0  0
   -2.5280   -1.2566   -0.6161 H   0  0  0  0  0  0  0  0  0  0  0  0
   -2.9130   -1.1850    1.1781 H   0  0  0  0  0  0  0  0  0  0  0  0
   -0.1619   -0.7402   -0.2025 C   0  0  0  0  0  0  0  0  0  0  0  0
   -1.3726    1.3116    1.5280 H   0  0  0  0  0  0  0  0  0  0  0  0
   -1.5964    0.6048   -0.4858 H   0  0  0  0  0  0  0  0  0  0  0  0
    0.0435   -1.7460    0.9188 H   0  0  0  0  0  0  0  0  0  0  0  0
    0.6972   -0.2480   -0.5349 H   0  0  0  0  0  0  0  0  0  0  0  0
   -0.3105   -1.1544   -0.7485 H   0  0  0  0  0  0  0  0  0  0  0  0
  1  2  1  0  0  0  0
  2  6  1  0  0  0  0
  2  8  1  0  0  0  0
  4  1  1  0  0  0  0
  7  2  1  0  0  0  0
  9  6  1  0  0  0  0
 11  6  1  0  0  0  0
 13  9  1  0  0  0  0
 14  9  1  0  0  0  0
M  RAD  7   1   3   3   2   5   2   6   2   9   2  10   2  12   2
M  END
$$$$
