14
butane_opt
C  -3.992688   0.282327   0.178948
C  -2.714644  -0.672195  -0.129544
H  -4.817364  -0.046163  -0.263446
H  -4.187541   0.545524  -0.480689
H  -4.034327   1.266201   1.238993
C  -1.373753   0.208204  -0.156795
H  -2.680844  -1.664955  -1.053029
H  -2.498477  -1.198159   0.608193
C  -0.144881  -0.683843   0.173776
H  -1.469847   0.839487   0.730518
H  -1.282089   0.681658  -0.880603
H  -0.055273  -1.799896   1.465523
H   0.793222  -0.068975  -0.499958
H  -0.097601  -0.589923  -0.158421
