butane_opt
 OpenBabel08242015403D

 14 10  0  0  0  0  0  0  0  0999 V2000
   -4.0430    0.3218    0.0245 C   0  0  0  0  0  0  0  0  0  0  0  0
   -2.7054   -0.6996    0.0233 C   0  0  0  0  0  0  0  0  0  0  0  0
   -4.7969   -0.2378   -0.0771 H   0  0  0  0  0  0  0  0  0  0  0  0
   -4.0929    0.8343   -0.7808 H   0  0  0  0  0  0  0  0  0  0  0  0
   -4.0839    1.1078    0.9377 H   0  0  0  0  0  0  0  0  0  0  0  0
   -1.3252    0.1390    0.0466 C   0  0  0  0  0  0  0  0  0  0  0  0
   -2.4915   -1.6846   -1.0863 H   0  0  0  0  0  0  0  0  0  0  0  0
   -2.5925   -1.0514    0.5977 H   0  0  0  0  0  0  0  0  0  0  0  0
   -0.1512   -0.6499    0.0076 C   0  0  0  0  0  1  0  0  0  0  0  0
   -1.1993    1.1198    1.0585 H   0  0  0  0  0  0  0  0  0  0  0  0
   -1.1699    0.8472   -0.8407 H   0  0  0  0  0  0  0  0  0  0  0  0
    0.0561   -1.9666    1.4581 H   0  0  0  0  0  0  0  0  0  0  0  0
    0.6900   -0.1671   -0.6418 H   0  0  0  0  0  0  0  0  0  0  0  0
   -0.6257   -0.6103   -0.3069 H   0  0  0  0  0  0  0  0  0  0  0  0
  1  5  1  0  0  0  0
  2  1  1  0  0  0  0
  2  8  1  0  0  0  0
  3  1  1  0  0  0  0
  4  1  1  0  0  0  0
  6 10  1  0  0  0  0
  7  2  1  0  0  0  0
 11  6  1  0  0  0  0
 13  9  1  0  0  0  0
 14  6  1  0  0  0  0
M  RAD  3   2   2   6   2  12   2
M  END
$$$$
