14
butane_opt
C  -3.929860   0.334480   0.204715
C  -2.605551  -0.706459  -0.121689
H  -4.936189  -0.407677   0.458205
H  -4.090290   0.908428  -0.664074
H  -3.957254   0.966961   1.098336
C  -1.403266   0.122088  -0.238075
H  -2.776174  -1.521646  -1.110652
H  -2.266425  -0.939241   0.561375
C  -0.254368  -0.614015   0.257752
H  -1.446383   0.571770   0.416528
H  -1.397943   1.006056  -1.341946
H  -0.625159  -1.104736   0.932210
H   0.766846   0.080409   0.639910
H   0.015825  -1.676631  -0.785852
