butane_opt
 OpenBabel08242015403D

 14 13  0  0  0  0  0  0  0  0999 V2000
   -3.9470    0.2615   -0.0124 C   0  0  0  0  0  0  0  0  0  0  0  0
   -2.7128   -0.6127    0.0733 C   0  0  0  0  0  0  0  0  0  0  0  0
   -4.8687   -0.3535    0.0402 H   0  0  0  0  0  0  0  0  0  0  0  0
   -3.9740    0.9353   -0.9301 H   0  0  0  0  0  0  0  0  0  0  0  0
   -3.9223    0.8550    0.7869 H   0  0  0  0  0  0  0  0  0  0  0  0
   -1.4052    0.1999    0.0440 C   0  0  0  0  0  0  0  0  0  0  0  0
   -2.7479   -1.2563   -0.7363 H   0  0  0  0  0  0  0  0  0  0  0  0
   -2.7631   -1.2472    0.9849 H   0  0  0  0  0  0  0  0  0  0  0  0
   -0.1398   -0.7012    0.0033 C   0  0  0  0  0  0  0  0  0  0  0  0
   -1.3706    0.8426    0.8610 H   0  0  0  0  0  0  0  0  0  0  0  0
   -1.4315    0.8525   -0.8615 H   0  0  0  0  0  0  0  0  0  0  0  0
   -0.1502   -1.2295    0.8236 H   0  0  0  0  0  0  0  0  0  0  0  0
    0.7726   -0.1284    0.1142 H   0  0  0  0  0  0  0  0  0  0  0  0
   -0.1103   -1.5178   -0.9624 H   0  0  0  0  0  0  0  0  0  0  0  0
  1  3  1  0  0  0  0
  1  2  1  0  0  0  0
  1  5  1  0  0  0  0
  2  8  1  0  0  0  0
  4  1  1  0  0  0  0
  6  2  1  0  0  0  0
  6 10  1  0  0  0  0
  7  2  1  0  0  0  0
  9  6  1  0  0  0  0
  9 13  1  0  0  0  0
  9 12  1  0  0  0  0
 11  6  1  0  0  0  0
 14  9  1  0  0  0  0
M  END
$$$$
