14
butane_opt
C  -3.944997   0.182584  -0.173325
C  -2.772168  -0.600589   0.300514
H  -4.808713  -0.316863  -0.874179
H  -3.540946   0.743625  -1.015150
H  -4.235512   1.370483   0.919273
C  -1.441513   0.277088   0.156141
H  -2.500483  -1.037660  -0.279586
H  -3.093242  -1.634982   1.463777
C  -0.070909  -0.744869  -0.136873
H  -1.434451   1.121482   1.196047
H  -1.629459   0.859269  -0.653230
H   0.295015  -1.179125   0.505615
H   0.804432  -0.264722  -0.303688
H  -0.132494  -1.511377  -1.275495
