14
butane_opt
C  -4.048770   0.331021   0.144996
C  -2.668935  -0.716030  -0.125787
H  -4.848990  -0.167817   0.351617
H  -4.367230   0.988064  -0.622346
H  -3.701968   1.010520   1.223381
C  -1.386237   0.088080  -0.166993
H  -2.826035  -1.122667  -0.880317
H  -2.718040  -1.364568   0.771274
C  -0.108058  -0.611714   0.161304
H  -1.575616   0.788468   0.700911
H  -1.165225   0.889310  -1.192919
H  -0.531599  -1.103731   1.025153
H   0.997810   0.018704   0.627276
H   0.193188  -1.478545  -0.762551
