butane_opt
 OpenBabel08242015403D

 14 11  0  0  0  0  0  0  0  0999 V2000
   -4.0624    0.2692    0.1220 C   0  0  0  0  0  0  0  0  0  0  0  0
   -2.6167   -0.6743   -0.0487 C   0  0  0  0  0  0  0  0  0  0  0  0
   -4.8446   -0.1490   -0.4269 H   0  0  0  0  0  0  0  0  0  0  0  0
   -3.7564    0.4846   -0.5152 H   0  0  0  0  0  0  0  0  0  0  0  0
   -4.4572    1.5832    1.4030 H   0  0  0  0  0  0  0  0  0  0  0  0
   -1.3617    0.1803   -0.0985 C   0  0  0  0  0  0  0  0  0  0  0  0
   -2.7852   -1.4805   -0.9028 H   0  0  0  0  0  0  0  0  0  0  0  0
   -2.7973   -1.3468    1.0057 H   0  0  0  0  0  0  0  0  0  0  0  0
   -0.1560   -0.6393    0.1504 C   0  0  0  0  0  0  0  0  0  0  0  0
   -1.4746    0.4655    0.5239 H   0  0  0  0  0  0  0  0  0  0  0  0
   -1.1107    1.1017   -1.2946 H   0  0  0  0  0  0  0  0  0  0  0  0
    0.0983   -1.3279    1.1182 H   0  0  0  0  0  0  0  0  0  0  0  0
    0.5763   -0.1535   -0.0939 H   0  0  0  0  0  0  0  0  0  0  0  0
   -0.1265   -1.2768   -0.8087 H   0  0  0  0  0  0  0  0  0  0  0  0
  2  1  1  0  0  0  0
  2  8  1  0  0  0  0
  3  1  1  0  0  0  0
  4  1  1  0  0  0  0
  6  2  1  0  0  0  0
  6  9  1  0  0  0  0
  6 10  1  0  0  0  0
  7  2  1  0  0  0  0
  9 12  1  0  0  0  0
 13  9  1  0  0  0  0
 14  9  1  0  0  0  0
M  RAD  4   1   2   5   2   6   2  11   2
M  END
$$$$
