14
butane_opt
C  -3.959609   0.330355   0.171691
C  -2.690693  -0.696235  -0.140661
H  -4.892616  -0.239735  -0.091737
H  -4.076353   0.716608  -0.550020
H  -3.951463   1.128921   1.282973
C  -1.394946   0.194491  -0.117019
H  -2.923712  -1.564548  -1.185438
H  -2.686079  -1.270525   0.670507
C  -0.181641  -0.667136   0.154949
H  -1.240391   0.691908   0.757675
H  -1.273309   0.833099  -1.069710
H  -0.171284  -1.788843   1.454668
H   0.711924   0.005360  -0.231464
H   0.150191  -0.878059  -0.372635
