14
butane_opt
C  -4.010331   0.183012   0.130493
C  -2.746376  -0.550559  -0.173240
H  -4.750474  -0.379325   0.777347
H  -4.125915   0.981842  -0.860750
H  -3.693931   0.665636   0.972512
C  -1.399028   0.279171  -0.075473
H  -2.849147  -1.397186  -1.059897
H  -2.588619  -1.053384   0.526536
C  -0.112545  -0.743110   0.122839
H  -1.298587   1.129887   1.041312
H  -1.300479   0.893244  -0.907298
H  -0.048495  -1.900776   1.333297
H   0.521335  -0.387185  -0.026694
H   0.336499  -1.036697  -0.375105
