14
butane_opt
C  -3.949971   0.325109  -0.192813
C  -2.693695  -0.691887   0.299414
H  -4.681390  -0.184002  -0.587262
H  -3.510559   0.797532  -0.860024
H  -4.337738   1.279599   0.840870
C  -1.384055   0.087454   0.194744
H  -2.169309  -1.234075  -0.474154
H  -2.906112  -1.422681   1.238925
C  -0.236818  -0.634125  -0.142965
H  -0.975379   0.766996   1.063518
H  -1.416978   0.872948  -0.727237
H   0.006827  -1.054191   0.591445
H   0.610859   0.016354  -0.349781
H  -0.496575  -1.360748  -1.148113
