butane_opt
 OpenBabel08242015403D

 14 11  0  0  0  0  0  0  0  0999 V2000
   -4.0101    0.2541   -0.1617 C   0  0  0  0  0  0  0  0  0  0  0  0
   -2.7308   -0.6362    0.2020 C   0  0  0  0  0  0  0  0  0  0  0  0
   -5.0900   -0.4980   -0.1902 H   0  0  0  0  0  0  0  0  0  0  0  0
   -3.6507    1.1170   -1.3300 H   0  0  0  0  0  0  0  0  0  0  0  0
   -4.1960    0.8390    0.7312 H   0  0  0  0  0  0  0  0  0  0  0  0
   -1.4070    0.2356    0.2682 C   0  0  0  0  0  0  0  0  0  0  0  0
   -2.2700   -1.2492   -0.6902 H   0  0  0  0  0  0  0  0  0  0  0  0
   -2.9630   -1.3275    1.1498 H   0  0  0  0  0  0  0  0  0  0  0  0
   -0.1002   -0.7194   -0.1821 C   0  0  0  0  0  0  0  0  0  0  0  0
   -1.0868    1.2728    1.4082 H   0  0  0  0  0  0  0  0  0  0  0  0
   -1.6278    0.5740   -0.4198 H   0  0  0  0  0  0  0  0  0  0  0  0
    0.3915   -1.7745    0.9033 H   0  0  0  0  0  0  0  0  0  0  0  0
    0.7008   -0.0951   -0.7777 H   0  0  0  0  0  0  0  0  0  0  0  0
   -0.2412   -0.9433   -0.7949 H   0  0  0  0  0  0  0  0  0  0  0  0
  1  2  1  0  0  0  0
  1  5  1  0  0  0  0
  2  6  1  0  0  0  0
  2  8  1  0  0  0  0
  3  1  1  0  0  0  0
  4  1  1  0  0  0  0
  7  2  1  0  0  0  0
  9  6  1  0  0  0  0
 11  6  1  0  0  0  0
 13  9  1  0  0  0  0
 14  9  1  0  0  0  0
M  RAD  4   6   2   9   2  10   2  12   2
M  END
$$$$
