14
butane_opt
C  -3.866978   0.228748  -0.088775
C  -2.711328  -0.597380   0.148916
H  -4.881169  -0.459420   0.338042
H  -3.941540   1.335368  -1.440650
H  -3.686060   0.309607   0.301163
C  -1.484306   0.251892   0.175658
H  -2.842371  -1.002367  -0.452780
H  -2.850610  -1.240298   1.019619
C  -0.110755  -0.723644  -0.091652
H  -1.685177   0.960472   1.113515
H  -1.411235   0.865375  -0.674263
H  -0.125370  -0.892338   0.489036
H   0.738834  -0.306297   0.248607
H  -0.252195  -1.980138  -1.378480
