14
butane_opt
C  -3.905521   0.200541   0.086354
C  -2.763263  -0.449417  -0.053262
H  -5.042796  -0.625052  -0.071049
H  -3.910890   0.563463  -0.659946
H  -3.914302   0.948689   0.975805
C  -1.388989   0.236390   0.005153
H  -2.846172  -1.435202  -1.140804
H  -2.474983  -1.158194   0.764950
C  -0.144283  -0.769519   0.106979
H  -1.516417   0.820442   0.607403
H  -1.258383   0.965025  -0.993828
H   0.165529  -1.808289   1.094617
H   0.686038  -0.311309  -0.369492
H  -0.400812  -1.070769  -0.452007
