butane_opt
 OpenBabel08242015403D

 14 12  0  0  0  0  0  0  0  0999 V2000
   -3.9816    0.2827   -0.1491 C   0  0  0  0  0  0  0  0  0  0  0  0
   -2.7091   -0.6898    0.2174 C   0  0  0  0  0  0  0  0  0  0  0  0
   -4.7658   -0.3045   -0.5509 H   0  0  0  0  0  0  0  0  0  0  0  0
   -4.0266    0.7497   -1.0612 H   0  0  0  0  0  0  0  0  0  0  0  0
   -4.5605    1.3715    0.9022 H   0  0  0  0  0  0  0  0  0  0  0  0
   -1.3639    0.1926    0.1412 C   0  0  0  0  0  0  0  0  0  0  0  0
   -2.5207   -0.9669   -0.3987 H   0  0  0  0  0  0  0  0  0  0  0  0
   -2.6447   -1.5871    1.2654 H   0  0  0  0  0  0  0  0  0  0  0  0
   -0.1564   -0.6552   -0.0912 C   0  0  0  0  0  0  0  0  0  0  0  0
   -1.0998    0.8650    1.1792 H   0  0  0  0  0  0  0  0  0  0  0  0
   -1.4544    0.5244   -0.5344 H   0  0  0  0  0  0  0  0  0  0  0  0
    0.3671   -1.2381    0.7423 H   0  0  0  0  0  0  0  0  0  0  0  0
    0.7394   -0.1190   -0.4317 H   0  0  0  0  0  0  0  0  0  0  0  0
   -0.4981   -1.3166   -1.0607 H   0  0  0  0  0  0  0  0  0  0  0  0
  1  2  1  0  0  0  0
  2  8  1  0  0  0  0
  3  1  1  0  0  0  0
  4  1  1  0  0  0  0
  6  2  1  0  0  0  0
  6 10  1  0  0  0  0
  7  2  1  0  0  0  0
  9  6  1  0  0  0  0
  9 12  1  0  0  0  0
 11  6  1  0  0  0  0
 13  9  1  0  0  0  0
 14  9  1  0  0  0  0
M  RAD  2   1   2   5   2
M  END
$$$$
