butane_opt
 OpenBabel08242015403D

 14 11  0  0  0  0  0  0  0  0999 V2000
   -3.8379    0.2640   -0.1144 C   0  0  0  0  0  0  0  0  0  0  0  0
   -2.7126   -0.6076    0.1258 C   0  0  0  0  0  0  0  0  0  0  0  0
   -4.9799   -0.4606   -0.1692 H   0  0  0  0  0  0  0  0  0  0  0  0
   -3.8609    0.7940   -0.9077 H   0  0  0  0  0  0  0  0  0  0  0  0
   -3.8249    0.7863    0.6428 H   0  0  0  0  0  0  0  0  0  0  0  0
   -1.4355    0.2082    0.1732 C   0  0  0  0  0  0  0  0  0  0  0  0
   -2.6528   -1.2201   -0.6812 H   0  0  0  0  0  0  0  0  0  0  0  0
   -2.8869   -1.1768    1.0339 H   0  0  0  0  0  0  0  0  0  0  0  0
   -0.2041   -0.7222   -0.0926 C   0  0  0  0  0  0  0  0  0  0  0  0
   -1.1589    1.4012    1.2646 H   0  0  0  0  0  0  0  0  0  0  0  0
   -1.8016    0.6657   -0.5102 H   0  0  0  0  0  0  0  0  0  0  0  0
    0.2273   -1.8678    1.1351 H   0  0  0  0  0  0  0  0  0  0  0  0
    0.6793   -0.2926   -0.6695 H   0  0  0  0  0  0  0  0  0  0  0  0
   -0.4715   -0.8584   -0.7345 H   0  0  0  0  0  0  0  0  0  0  0  0
  1  2  1  0  0  0  0
  1  5  1  0  0  0  0
  2  6  1  0  0  0  0
  2  8  1  0  0  0  0
  3  1  1  0  0  0  0
  4  1  1  0  0  0  0
  7  2  1  0  0  0  0
  9  6  1  0  0  0  0
 11  6  1  0  0  0  0
 13  9  1  0  0  0  0
 14  9  1  0  0  0  0
M  RAD  4   6   2   9   2  10   2  12   2
M  END
$$$$
