butane_opt
 OpenBabel08242015403D

 14 12  0  0  0  0  0  0  0  0999 V2000
   -4.0267    0.3077    0.1743 C   0  0  0  0  0  0  0  0  0  0  0  0
   -2.7025   -0.6884   -0.1974 C   0  0  0  0  0  0  0  0  0  0  0  0
   -4.7899   -0.0827    0.4272 H   0  0  0  0  0  0  0  0  0  0  0  0
   -4.2864    1.0163   -0.8780 H   0  0  0  0  0  0  0  0  0  0  0  0
   -3.8266    0.9319    1.0238 H   0  0  0  0  0  0  0  0  0  0  0  0
   -1.3443    0.1758   -0.0785 C   0  0  0  0  0  0  0  0  0  0  0  0
   -3.0125   -1.5041   -0.9814 H   0  0  0  0  0  0  0  0  0  0  0  0
   -2.4201   -1.1150    0.5044 H   0  0  0  0  0  0  0  0  0  0  0  0
   -0.1646   -0.6447    0.1636 C   0  0  0  0  0  0  0  0  0  0  0  0
   -1.2182    0.7192    0.6970 H   0  0  0  0  0  0  0  0  0  0  0  0
   -1.0290    0.6460   -0.8955 H   0  0  0  0  0  0  0  0  0  0  0  0
   -0.2127   -1.7217    1.5183 H   0  0  0  0  0  0  0  0  0  0  0  0
    0.6166   -0.0815   -0.2283 H   0  0  0  0  0  0  0  0  0  0  0  0
   -0.0200   -1.0453   -0.5007 H   0  0  0  0  0  0  0  0  0  0  0  0
  1  3  1  0  0  0  0
  1  5  1  0  0  0  0
  2  6  1  0  0  0  0
  2  1  1  0  0  0  0
  2  8  1  0  0  0  0
  4  1  1  0  0  0  0
  6  9  1  0  0  0  0
  6 10  1  0  0  0  0
  7  2  1  0  0  0  0
 11  6  1  0  0  0  0
 13  9  1  0  0  0  0
 14  9  1  0  0  0  0
M  RAD  2   9   2  12   2
M  END
$$$$
