butane_opt
 OpenBabel08242015403D

 14 13  0  0  0  0  0  0  0  0999 V2000
   -3.9432    0.2777   -0.0029 C   0  0  0  0  0  0  0  0  0  0  0  0
   -2.6890   -0.6321    0.0613 C   0  0  0  0  0  0  0  0  0  0  0  0
   -4.8363   -0.3165   -0.0788 H   0  0  0  0  0  0  0  0  0  0  0  0
   -3.9376    0.7980   -0.8070 H   0  0  0  0  0  0  0  0  0  0  0  0
   -4.0061    1.0696    0.9457 H   0  0  0  0  0  0  0  0  0  0  0  0
   -1.4102    0.1724    0.0130 C   0  0  0  0  0  0  0  0  0  0  0  0
   -2.7184   -1.2607   -0.7694 H   0  0  0  0  0  0  0  0  0  0  0  0
   -2.7078   -1.3064    1.0051 H   0  0  0  0  0  0  0  0  0  0  0  0
   -0.1668   -0.6807    0.0190 C   0  0  0  0  0  0  0  0  0  0  0  0
   -1.3657    0.8253    0.8287 H   0  0  0  0  0  0  0  0  0  0  0  0
   -1.4193    0.7714   -0.8684 H   0  0  0  0  0  0  0  0  0  0  0  0
   -0.1504   -1.3030    0.9135 H   0  0  0  0  0  0  0  0  0  0  0  0
    0.7916   -0.0465    0.0309 H   0  0  0  0  0  0  0  0  0  0  0  0
   -0.1726   -1.3428   -0.8308 H   0  0  0  0  0  0  0  0  0  0  0  0
  1  2  1  0  0  0  0
  1  5  1  0  0  0  0
  2  8  1  0  0  0  0
  3  1  1  0  0  0  0
  4  1  1  0  0  0  0
  6  9  1  0  0  0  0
  6  2  1  0  0  0  0
  6 10  1  0  0  0  0
  7  2  1  0  0  0  0
  9 13  1  0  0  0  0
  9 12  1  0  0  0  0
 11  6  1  0  0  0  0
 14  9  1  0  0  0  0
M  END
$$$$
