14
butane_opt
C  -3.941534   0.236981   0.159171
C  -2.769539  -0.622415  -0.173513
H  -5.061940  -0.589542   0.634250
H  -4.450813   1.156394  -0.810209
H  -3.409216   0.654820   0.876174
C  -1.377352   0.306703  -0.045178
H  -3.009046  -1.530883  -1.257018
H  -2.661522  -0.982538   0.454943
C  -0.117091  -0.745572   0.177144
H  -1.576458   0.862074   0.635465
H  -1.230437   1.321874  -1.168233
H   0.083696  -1.766171   1.178407
H   0.633279  -0.395088   0.116883
H   0.149002  -1.354247  -0.650672
