14
butane_opt
C  -3.912844   0.352353   0.121952
C  -2.642177  -0.692182  -0.127504
H  -4.695825  -0.206236   0.023994
H  -4.034175   0.461894  -0.330077
H  -4.119159   1.285601   1.239254
C  -1.413588   0.107364  -0.084361
H  -2.696414  -1.559894  -1.093812
H  -2.487530  -1.156981   0.629711
C  -0.255935  -0.602512   0.120298
H  -1.284292   0.785364   0.837320
H  -1.093075   0.559094  -1.059853
H  -0.298013  -2.022712   1.554866
H   0.585223  -0.055198  -0.492461
H  -0.235351  -0.497397  -0.111964
