butane_opt
 OpenBabel08242015403D

 14 13  0  0  0  0  0  0  0  0999 V2000
   -3.9563    0.2264   -0.1419 C   0  0  0  0  0  0  0  0  0  0  0  0
   -2.7585   -0.5175    0.3230 C   0  0  0  0  0  0  0  0  0  0  0  0
   -5.0356   -0.5333   -0.8525 H   0  0  0  0  0  0  0  0  0  0  0  0
   -3.3465    0.6427   -0.9529 H   0  0  0  0  0  0  0  0  0  0  0  0
   -4.5270    1.1278    0.8001 H   0  0  0  0  0  0  0  0  0  0  0  0
   -1.4225    0.2357    0.1491 C   0  0  0  0  0  0  0  0  0  0  0  0
   -2.6083   -1.2913   -0.5028 H   0  0  0  0  0  0  0  0  0  0  0  0
   -3.1322   -1.3407    1.3090 H   0  0  0  0  0  0  0  0  0  0  0  0
   -0.0841   -0.7301   -0.1773 C   0  0  0  0  0  0  0  0  0  0  0  0
   -1.0612    0.7003    1.0324 H   0  0  0  0  0  0  0  0  0  0  0  0
   -1.5275    0.8625   -0.6826 H   0  0  0  0  0  0  0  0  0  0  0  0
    0.1933   -1.3885    0.5631 H   0  0  0  0  0  0  0  0  0  0  0  0
    0.8099   -0.2190    0.0477 H   0  0  0  0  0  0  0  0  0  0  0  0
   -0.1176   -1.6063   -1.1022 H   0  0  0  0  0  0  0  0  0  0  0  0
  1  2  1  0  0  0  0
  1  5  1  0  0  0  0
  2  8  1  0  0  0  0
  3  1  1  0  0  0  0
  4  1  1  0  0  0  0
  6  2  1  0  0  0  0
  6 10  1  0  0  0  0
  7  2  1  0  0  0  0
  9 13  1  0  0  0  0
  9  6  1  0  0  0  0
  9 12  1  0  0  0  0
 11  6  1  0  0  0  0
 14  9  1  0  0  0  0
M  END
$$$$
