butane_opt
 OpenBabel08242015403D

 14  8  0  0  0  0  0  0  0  0999 V2000
   -3.9627    0.2426   -0.1016 C   0  0  0  0  0 15  0  0  0  0  0  0
   -2.7514   -0.5345    0.1090 C   0  0  0  0  0  0  0  0  0  0  0  0
   -5.0872   -0.5454    0.5825 H   0  0  0  0  0  0  0  0  0  0  0  0
   -4.2870    1.4361   -1.4227 H   0  0  0  0  0  0  0  0  0  0  0  0
   -3.5435    0.0754    0.2211 H   0  0  0  0  0  0  0  0  0  0  0  0
   -1.3911    0.2267    0.1663 C   0  0  0  0  0  0  0  0  0  0  0  0
   -2.8809   -1.0050   -0.6373 H   0  0  0  0  0  0  0  0  0  0  0  0
   -2.8935   -1.4277    1.1012 H   0  0  0  0  0  0  0  0  0  0  0  0
   -0.0968   -0.7116   -0.0683 C   0  0  0  0  0  0  0  0  0  0  0  0
   -1.2387    1.2848    1.2193 H   0  0  0  0  0  0  0  0  0  0  0  0
   -1.4278    0.5598   -0.4824 H   0  0  0  0  0  0  0  0  0  0  0  0
    0.1831   -1.1930    0.6136 H   0  0  0  0  0  0  0  0  0  0  0  0
    0.6523   -0.3193    0.0891 H   0  0  0  0  0  0  0  0  0  0  0  0
   -0.0667   -2.0397   -1.2421 H   0  0  0  0  0  0  0  0  0  0  0  0
  2  5  1  0  0  0  0
  2  8  1  0  0  0  0
  6 10  1  0  0  0  0
  7  2  1  0  0  0  0
  9 13  1  0  0  0  0
  9  6  1  0  0  0  0
  9 12  1  0  0  0  0
 11  6  1  0  0  0  0
M  RAD  6   2   2   3   2   4   2   6   2   9   2  14   2
M  END
$$$$
