butane_opt
 OpenBabel08242015403D

 14 10  0  0  0  0  0  0  0  0999 V2000
   -3.8937    0.2208    0.1127 C   0  0  0  0  0  0  0  0  0  0  0  0
   -2.7487   -0.5205   -0.0029 C   0  0  0  0  0  0  0  0  0  0  0  0
   -5.0209   -0.4066   -0.6770 H   0  0  0  0  0  0  0  0  0  0  0  0
   -3.4045    0.1923   -0.4103 H   0  0  0  0  0  0  0  0  0  0  0  0
   -3.8656    1.3949    1.3131 H   0  0  0  0  0  0  0  0  0  0  0  0
   -1.4262    0.2231   -0.1038 C   0  0  0  0  0  0  0  0  0  0  0  0
   -2.8696   -1.2892   -0.8799 H   0  0  0  0  0  0  0  0  0  0  0  0
   -2.3751   -1.1482    0.7525 H   0  0  0  0  0  0  0  0  0  0  0  0
   -0.2016   -0.7595    0.1416 C   0  0  0  0  0  0  0  0  0  0  0  0
   -1.4886    0.4668    0.5113 H   0  0  0  0  0  0  0  0  0  0  0  0
   -1.2632    1.2031   -1.2025 H   0  0  0  0  0  0  0  0  0  0  0  0
   -0.0359   -1.3536    1.0852 H   0  0  0  0  0  0  0  0  0  0  0  0
    0.6580   -0.2461   -0.2153 H   0  0  0  0  0  0  0  0  0  0  0  0
   -0.1116   -1.2831   -0.5802 H   0  0  0  0  0  0  0  0  0  0  0  0
  2  8  1  0  0  0  0
  3  1  1  0  0  0  0
  4  1  1  0  0  0  0
  6  9  1  0  0  0  0
  6 10  1  0  0  0  0
  7  2  1  0  0  0  0
  9 12  1  0  0  0  0
 11  6  1  0  0  0  0
 13  9  1  0  0  0  0
 14  9  1  0  0  0  0
M  RAD  4   1   3   2   3   5   2   6   2
M  END
$$$$
