14
butane_opt
C  -3.981646   0.282682  -0.149103
C  -2.709086  -0.689783   0.217409
H  -4.765830  -0.304452  -0.550869
H  -4.026606   0.749690  -1.061205
H  -4.560534   1.371493   0.902240
C  -1.363895   0.192553   0.141200
H  -2.520749  -0.966891  -0.398735
H  -2.644741  -1.587134   1.265442
C  -0.156439  -0.655186  -0.091191
H  -1.099759   0.865006   1.179237
H  -1.454351   0.524361  -0.534393
H   0.367150  -1.238075   0.742321
H   0.739417  -0.118991  -0.431687
H  -0.498051  -1.316592  -1.060745
