butane_opt
 OpenBabel08242015403D

 14 13  0  0  0  0  0  0  0  0999 V2000
   -3.9055    0.2005    0.0864 C   0  0  0  0  0  0  0  0  0  0  0  0
   -2.7633   -0.4494   -0.0533 C   0  0  0  0  0  0  0  0  0  0  0  0
   -5.0428   -0.6251   -0.0710 H   0  0  0  0  0  0  0  0  0  0  0  0
   -3.9109    0.5635   -0.6599 H   0  0  0  0  0  0  0  0  0  0  0  0
   -3.9143    0.9487    0.9758 H   0  0  0  0  0  0  0  0  0  0  0  0
   -1.3890    0.2364    0.0052 C   0  0  0  0  0  0  0  0  0  0  0  0
   -2.8462   -1.4352   -1.1408 H   0  0  0  0  0  0  0  0  0  0  0  0
   -2.4750   -1.1582    0.7650 H   0  0  0  0  0  0  0  0  0  0  0  0
   -0.1443   -0.7695    0.1070 C   0  0  0  0  0  0  0  0  0  0  0  0
   -1.5164    0.8204    0.6074 H   0  0  0  0  0  0  0  0  0  0  0  0
   -1.2584    0.9650   -0.9938 H   0  0  0  0  0  0  0  0  0  0  0  0
    0.1655   -1.8083    1.0946 H   0  0  0  0  0  0  0  0  0  0  0  0
    0.6860   -0.3113   -0.3695 H   0  0  0  0  0  0  0  0  0  0  0  0
   -0.4008   -1.0708   -0.4520 H   0  0  0  0  0  0  0  0  0  0  0  0
  1  5  1  0  0  0  0
  2  6  1  0  0  0  0
  2  1  1  0  0  0  0
  2  8  1  0  0  0  0
  3  1  1  0  0  0  0
  4  1  1  0  0  0  0
  6  9  1  0  0  0  0
  6 10  1  0  0  0  0
  7  2  1  0  0  0  0
  9 12  1  0  0  0  0
 11  6  1  0  0  0  0
 13  9  1  0  0  0  0
 14  9  1  0  0  0  0
M  END
$$$$
