butane_opt
 OpenBabel08242015403D

 14 13  0  0  0  0  0  0  0  0999 V2000
   -3.9341    0.2204   -0.1406 C   0  0  0  0  0  0  0  0  0  0  0  0
   -2.7144   -0.5888    0.2344 C   0  0  0  0  0  0  0  0  0  0  0  0
   -4.9285   -0.3396   -0.5525 H   0  0  0  0  0  0  0  0  0  0  0  0
   -3.5002    1.0268   -1.2541 H   0  0  0  0  0  0  0  0  0  0  0  0
   -4.4277    0.9923    0.5626 H   0  0  0  0  0  0  0  0  0  0  0  0
   -1.4288    0.1963    0.2616 C   0  0  0  0  0  0  0  0  0  0  0  0
   -2.7892   -1.2296   -0.6168 H   0  0  0  0  0  0  0  0  0  0  0  0
   -2.8791   -1.4590    1.2643 H   0  0  0  0  0  0  0  0  0  0  0  0
   -0.0775   -0.6773   -0.1588 C   0  0  0  0  0  0  0  0  0  0  0  0
   -1.2856    1.1219    1.1258 H   0  0  0  0  0  0  0  0  0  0  0  0
   -1.8164    0.7000   -0.5019 H   0  0  0  0  0  0  0  0  0  0  0  0
    0.1634   -1.5024    0.8433 H   0  0  0  0  0  0  0  0  0  0  0  0
    0.7052   -0.1671   -0.7570 H   0  0  0  0  0  0  0  0  0  0  0  0
   -0.3954   -1.4389   -1.0368 H   0  0  0  0  0  0  0  0  0  0  0  0
  1  2  1  0  0  0  0
  1  5  1  0  0  0  0
  2  6  1  0  0  0  0
  2  8  1  0  0  0  0
  3  1  1  0  0  0  0
  4  1  1  0  0  0  0
  6 10  1  0  0  0  0
  7  2  1  0  0  0  0
  9  6  1  0  0  0  0
  9 12  1  0  0  0  0
 11  6  1  0  0  0  0
 13  9  1  0  0  0  0
 14  9  1  0  0  0  0
M  END
$$$$
