14
butane_opt
C  -4.026708   0.307749   0.174290
C  -2.702514  -0.688428  -0.197413
H  -4.789924  -0.082738   0.427230
H  -4.286405   1.016251  -0.877955
H  -3.826631   0.931939   1.023803
C  -1.344324   0.175845  -0.078471
H  -3.012475  -1.504104  -0.981356
H  -2.420064  -1.115040   0.504390
C  -0.164649  -0.644725   0.163617
H  -1.218156   0.719158   0.696992
H  -1.028985   0.646013  -0.895537
H  -0.212711  -1.721737   1.518325
H   0.616633  -0.081508  -0.228335
H  -0.020007  -1.045307  -0.500709
