14
butane_opt
C  -3.993420   0.246713  -0.040516
C  -2.768483  -0.582214   0.113784
H  -5.116782  -0.435270   0.310011
H  -3.922174   0.980959  -1.028953
H  -3.780383   0.712030   0.700167
C  -1.399524   0.266479  -0.022369
H  -2.960295  -1.021156  -0.660030
H  -2.620268  -1.391558   1.164149
C  -0.056213  -0.735283   0.020247
H  -1.322122   0.839150   0.849558
H  -1.208228   0.659500  -0.699151
H  -0.161536  -0.970177   0.474301
H   0.663500  -0.261701   0.680175
H   0.050473  -1.977001  -1.282993
