14
butane_opt
C  -4.001033   0.259832   0.189483
C  -2.739174  -0.616602  -0.086420
H  -5.068104  -0.468472   0.193380
H  -4.145548   0.753185  -0.653077
H  -3.809497   1.294928   1.196552
C  -1.357875   0.218406  -0.239220
H  -2.933722  -1.367772  -0.904222
H  -2.384329  -1.197121   0.680845
C  -0.120843  -0.734275   0.217923
H  -1.606369   0.559564   0.364313
H  -1.056871   1.066778  -1.373216
H  -0.315788  -0.974452   0.855722
H   0.754219  -0.006399   0.902313
H   0.190661  -1.687308  -0.821138
