14
butane_opt
C  -4.064746   0.259416  -0.175048
C  -2.649795  -0.627239   0.201764
H  -4.906912  -0.350545   0.148614
H  -4.048140   1.367102  -1.355424
H  -4.090873   0.585025   0.403983
C  -1.375357   0.141352   0.283578
H  -2.705442  -1.163722  -0.607088
H  -2.851608  -1.119788   0.942170
C  -0.101618  -0.671874  -0.135976
H  -1.438195   1.042369   1.192778
H  -1.234402   0.660941  -0.439386
H   0.309138  -1.245126   0.816786
H   0.767125  -0.021876  -0.752435
H  -0.524836  -1.458027  -1.090872
