butane_opt
 OpenBabel08242015403D

 14 11  0  0  0  0  0  0  0  0999 V2000
   -3.9934    0.2467   -0.0405 C   0  0  0  0  0  0  0  0  0  0  0  0
   -2.7685   -0.5822    0.1138 C   0  0  0  0  0  0  0  0  0  0  0  0
   -5.1168   -0.4353    0.3100 H   0  0  0  0  0  0  0  0  0  0  0  0
   -3.9222    0.9810   -1.0290 H   0  0  0  0  0  0  0  0  0  0  0  0
   -3.7804    0.7120    0.7002 H   0  0  0  0  0  0  0  0  0  0  0  0
   -1.3995    0.2665   -0.0224 C   0  0  0  0  0  0  0  0  0  0  0  0
   -2.9603   -1.0212   -0.6600 H   0  0  0  0  0  0  0  0  0  0  0  0
   -2.6203   -1.3916    1.1641 H   0  0  0  0  0  0  0  0  0  0  0  0
   -0.0562   -0.7353    0.0202 C   0  0  0  0  0  0  0  0  0  0  0  0
   -1.3221    0.8391    0.8496 H   0  0  0  0  0  0  0  0  0  0  0  0
   -1.2082    0.6595   -0.6992 H   0  0  0  0  0  0  0  0  0  0  0  0
   -0.1615   -0.9702    0.4743 H   0  0  0  0  0  0  0  0  0  0  0  0
    0.6635   -0.2617    0.6802 H   0  0  0  0  0  0  0  0  0  0  0  0
    0.0505   -1.9770   -1.2830 H   0  0  0  0  0  0  0  0  0  0  0  0
  1  2  1  0  0  0  0
  1  3  1  0  0  0  0
  1  5  1  0  0  0  0
  2  8  1  0  0  0  0
  4  1  1  0  0  0  0
  6  9  1  0  0  0  0
  6  2  1  0  0  0  0
  6 10  1  0  0  0  0
  7  2  1  0  0  0  0
  9 13  1  0  0  0  0
 11  6  1  0  0  0  0
M  RAD  3   9   3  12   2  14   2
M  END
$$$$
