14
butane_opt
C  -3.941643   0.330415   0.090270
C  -2.650079  -0.723240  -0.033340
H  -4.580730  -0.091153   0.232020
H  -4.346732   0.896045  -0.674556
H  -3.712361   1.059226   0.986920
C  -1.359792   0.166635  -0.100128
H  -2.775750  -1.170544  -0.899004
H  -2.800423  -1.533724   1.032121
C  -0.204489  -0.665167   0.086982
H  -1.614707   0.633374   0.563907
H  -1.200800   0.789185  -1.011912
H  -0.855550  -0.916176   0.783516
H   0.721288   0.056213   0.760675
H   0.007497  -1.478459  -0.900892
