butane_opt
 OpenBabel08242015403D

 14 11  0  0  0  0  0  0  0  0999 V2000
   -3.8880    0.2052   -0.0518 C   0  0  0  0  0  0  0  0  0  0  0  0
   -2.6635   -0.5871    0.1481 C   0  0  0  0  0  0  0  0  0  0  0  0
   -4.6569   -0.3222    0.1893 H   0  0  0  0  0  0  0  0  0  0  0  0
   -3.8357    1.1139   -1.1034 H   0  0  0  0  0  0  0  0  0  0  0  0
   -3.7616    0.6661    0.6694 H   0  0  0  0  0  0  0  0  0  0  0  0
   -1.4297    0.2411    0.0696 C   0  0  0  0  0  0  0  0  0  0  0  0
   -2.5254   -1.2115   -0.5727 H   0  0  0  0  0  0  0  0  0  0  0  0
   -2.9928   -1.3782    1.2709 H   0  0  0  0  0  0  0  0  0  0  0  0
   -0.2194   -0.7113   -0.0300 C   0  0  0  0  0  1  0  0  0  0  0  0
   -1.6158    0.8379    0.6771 H   0  0  0  0  0  0  0  0  0  0  0  0
   -1.6540    1.2536   -1.0016 H   0  0  0  0  0  0  0  0  0  0  0  0
   -0.5253   -0.7210    0.3855 H   0  0  0  0  0  0  0  0  0  0  0  0
    0.7886   -0.0947    0.7211 H   0  0  0  0  0  0  0  0  0  0  0  0
    0.1484   -2.4036   -1.5287 H   0  0  0  0  0  0  0  0  0  0  0  0
  1  2  1  0  0  0  0
  1  3  1  0  0  0  0
  1  5  1  0  0  0  0
  2  8  1  0  0  0  0
  4  1  1  0  0  0  0
  6  2  1  0  0  0  0
  6 12  1  0  0  0  0
  6 10  1  0  0  0  0
  7  2  1  0  0  0  0
  9 13  1  0  0  0  0
 11  6  1  0  0  0  0
M  RAD  1  14   2
M  END
$$$$
