butane_opt
 OpenBabel08242015403D

 14 13  0  0  0  0  0  0  0  0999 V2000
   -3.9258    0.3100    0.1804 C   0  0  0  0  0  0  0  0  0  0  0  0
   -2.6779   -0.6597   -0.0808 C   0  0  0  0  0  0  0  0  0  0  0  0
   -4.6328   -0.2253    0.0814 H   0  0  0  0  0  0  0  0  0  0  0  0
   -3.6890    0.8767   -0.6676 H   0  0  0  0  0  0  0  0  0  0  0  0
   -4.0253    0.8482    1.1058 H   0  0  0  0  0  0  0  0  0  0  0  0
   -1.3856    0.1599   -0.1600 C   0  0  0  0  0  0  0  0  0  0  0  0
   -2.6746   -1.5138   -1.1213 H   0  0  0  0  0  0  0  0  0  0  0  0
   -2.4872   -1.2596    0.7294 H   0  0  0  0  0  0  0  0  0  0  0  0
   -0.2623   -0.6591    0.1675 C   0  0  0  0  0  0  0  0  0  0  0  0
   -1.5096    0.7422    0.6034 H   0  0  0  0  0  0  0  0  0  0  0  0
   -1.2068    1.0571   -1.2222 H   0  0  0  0  0  0  0  0  0  0  0  0
   -0.4955   -1.2021    1.1333 H   0  0  0  0  0  0  0  0  0  0  0  0
    0.7331   -0.0706    0.3640 H   0  0  0  0  0  0  0  0  0  0  0  0
   -0.0551   -1.5196   -0.8584 H   0  0  0  0  0  0  0  0  0  0  0  0
  1  5  1  0  0  0  0
  2  1  1  0  0  0  0
  2  8  1  0  0  0  0
  3  1  1  0  0  0  0
  4  1  1  0  0  0  0
  6  2  1  0  0  0  0
  6  9  1  0  0  0  0
  6 10  1  0  0  0  0
  7  2  1  0  0  0  0
  9 13  1  0  0  0  0
  9 12  1  0  0  0  0
 11  6  1  0  0  0  0
 14  9  1  0  0  0  0
M  END
$$$$
