14
butane_opt
C  -3.950450   0.259350   0.010462
C  -2.709215  -0.611371   0.048986
H  -4.876914  -0.355076  -0.008230
H  -3.964108   0.838675  -0.852880
H  -4.011527   0.954114   0.885697
C  -1.402510   0.198227   0.009772
H  -2.684960  -1.259441  -0.767631
H  -2.738594  -1.258547   0.951418
C  -0.142665  -0.702431   0.028220
H  -1.426632   0.882316   0.863066
H  -1.397599   0.798788  -0.885204
H  -0.072250  -1.312456   0.919211
H   0.773844  -0.076803   0.011116
H  -0.164712  -1.410678  -0.841472
