butane_opt
 OpenBabel08242015403D

 14 11  0  0  0  0  0  0  0  0999 V2000
   -3.9434    0.3017    0.1665 C   0  0  0  0  0  0  0  0  0  0  0  0
   -2.6610   -0.6517   -0.0956 C   0  0  0  0  0  0  0  0  0  0  0  0
   -4.6842   -0.1077   -0.2932 H   0  0  0  0  0  0  0  0  0  0  0  0
   -3.9690    0.2471   -0.2352 H   0  0  0  0  0  0  0  0  0  0  0  0
   -4.2191    1.6583    1.4704 H   0  0  0  0  0  0  0  0  0  0  0  0
   -1.3926    0.1199   -0.2247 C   0  0  0  0  0  0  0  0  0  0  0  0
   -2.8645   -1.2312   -0.9004 H   0  0  0  0  0  0  0  0  0  0  0  0
   -2.5932   -1.2597    0.7620 H   0  0  0  0  0  0  0  0  0  0  0  0
   -0.2126   -0.6549    0.2467 C   0  0  0  0  0  0  0  0  0  0  0  0
   -1.3926    0.4417    0.3541 H   0  0  0  0  0  0  0  0  0  0  0  0
   -1.3033    0.7838   -1.3517 H   0  0  0  0  0  0  0  0  0  0  0  0
   -0.2416   -1.3588    1.1310 H   0  0  0  0  0  0  0  0  0  0  0  0
    0.9066    0.3122    0.1300 H   0  0  0  0  0  0  0  0  0  0  0  0
   -0.2017   -1.2951   -0.6394 H   0  0  0  0  0  0  0  0  0  0  0  0
  2  1  1  0  0  0  0
  2  8  1  0  0  0  0
  3  1  1  0  0  0  0
  6  2  1  0  0  0  0
  6  9  1  0  0  0  0
  6 10  1  0  0  0  0
  7  2  1  0  0  0  0
  9 12  1  0  0  0  0
 11  6  1  0  0  0  0
 13  9  1  0  0  0  0
 14  9  1  0  0  0  0
M  RAD  3   1   3   4   2   5   2
M  END
$$$$
