butane_opt
 OpenBabel08242015403D

 14 11  0  0  0  0  0  0  0  0999 V2000
   -3.9450    0.1826   -0.1733 C   0  0  0  0  0  0  0  0  0  0  0  0
   -2.7722   -0.6006    0.3005 C   0  0  0  0  0  0  0  0  0  0  0  0
   -4.8087   -0.3169   -0.8742 H   0  0  0  0  0  0  0  0  0  0  0  0
   -3.5409    0.7436   -1.0151 H   0  0  0  0  0  0  0  0  0  0  0  0
   -4.2355    1.3705    0.9193 H   0  0  0  0  0  0  0  0  0  0  0  0
   -1.4415    0.2771    0.1561 C   0  0  0  0  0  0  0  0  0  0  0  0
   -2.5005   -1.0377   -0.2796 H   0  0  0  0  0  0  0  0  0  0  0  0
   -3.0932   -1.6350    1.4638 H   0  0  0  0  0  0  0  0  0  0  0  0
   -0.0709   -0.7449   -0.1369 C   0  0  0  0  0  0  0  0  0  0  0  0
   -1.4345    1.1215    1.1960 H   0  0  0  0  0  0  0  0  0  0  0  0
   -1.6295    0.8593   -0.6532 H   0  0  0  0  0  0  0  0  0  0  0  0
    0.2950   -1.1791    0.5056 H   0  0  0  0  0  0  0  0  0  0  0  0
    0.8044   -0.2647   -0.3037 H   0  0  0  0  0  0  0  0  0  0  0  0
   -0.1325   -1.5114   -1.2755 H   0  0  0  0  0  0  0  0  0  0  0  0
  1  2  1  0  0  0  0
  3  1  1  0  0  0  0
  4  1  1  0  0  0  0
  6  2  1  0  0  0  0
  6 10  1  0  0  0  0
  7  2  1  0  0  0  0
  9  6  1  0  0  0  0
  9 12  1  0  0  0  0
 11  6  1  0  0  0  0
 13  9  1  0  0  0  0
 14  9  1  0  0  0  0
M  RAD  4   1   2   2   2   5   2   8   2
M  END
$$$$
