butane_opt
 OpenBabel08242015403D

 14 12  0  0  0  0  0  0  0  0999 V2000
   -3.9792    0.2153    0.0574 C   0  0  0  0  0  0  0  0  0  0  0  0
   -2.7064   -0.5541    0.0310 C   0  0  0  0  0  0  0  0  0  0  0  0
   -5.0072   -0.4711   -0.6709 H   0  0  0  0  0  0  0  0  0  0  0  0
   -3.8283    0.4324   -0.5520 H   0  0  0  0  0  0  0  0  0  0  0  0
   -4.0291    1.3636    1.2433 H   0  0  0  0  0  0  0  0  0  0  0  0
   -1.4298    0.1884   -0.0813 C   0  0  0  0  0  0  0  0  0  0  0  0
   -2.8670   -0.9918   -0.6466 H   0  0  0  0  0  0  0  0  0  0  0  0
   -2.7613   -1.4376    0.9392 H   0  0  0  0  0  0  0  0  0  0  0  0
   -0.0711   -0.6794    0.0915 C   0  0  0  0  0  0  0  0  0  0  0  0
   -1.3745    0.9462    0.8803 H   0  0  0  0  0  0  0  0  0  0  0  0
   -1.4100    0.9968   -1.0862 H   0  0  0  0  0  0  0  0  0  0  0  0
    0.0826   -1.4980    1.0735 H   0  0  0  0  0  0  0  0  0  0  0  0
    0.6390   -0.3151   -0.1579 H   0  0  0  0  0  0  0  0  0  0  0  0
   -0.2129   -1.5863   -0.7411 H   0  0  0  0  0  0  0  0  0  0  0  0
  2  1  1  0  0  0  0
  2  8  1  0  0  0  0
  3  1  1  0  0  0  0
  4  1  1  0  0  0  0
  6  2  1  0  0  0  0
  6  9  1  0  0  0  0
  6 10  1  0  0  0  0
  7  2  1  0  0  0  0
  9 12  1  0  0  0  0
 11  6  1  0  0  0  0
 13  9  1  0  0  0  0
 14  9  1  0  0  0  0
M  RAD  2   1   2   5   2
M  END
$$$$
