butane_opt
 OpenBabel08242015403D

 14 13  0  0  0  0  0  0  0  0999 V2000
   -3.9430    0.2024    0.0604 C   0  0  0  0  0  0  0  0  0  0  0  0
   -2.7157   -0.5987    0.0502 C   0  0  0  0  0  0  0  0  0  0  0  0
   -4.8887   -0.2898   -0.2322 H   0  0  0  0  0  0  0  0  0  0  0  0
   -3.6904    0.5557   -0.6003 H   0  0  0  0  0  0  0  0  0  0  0  0
   -4.2995    1.2369    1.0907 H   0  0  0  0  0  0  0  0  0  0  0  0
   -1.4180    0.3037   -0.0646 C   0  0  0  0  0  0  0  0  0  0  0  0
   -2.9046   -1.3356   -0.8685 H   0  0  0  0  0  0  0  0  0  0  0  0
   -2.9508   -1.3978    0.9382 H   0  0  0  0  0  0  0  0  0  0  0  0
   -0.1154   -0.7780    0.0743 C   0  0  0  0  0  0  0  0  0  0  0  0
   -1.3082    0.8172    0.6480 H   0  0  0  0  0  0  0  0  0  0  0  0
   -1.6335    1.2010   -1.1510 H   0  0  0  0  0  0  0  0  0  0  0  0
   -0.1077   -1.1774    0.8039 H   0  0  0  0  0  0  0  0  0  0  0  0
    0.7776   -0.2658    0.3098 H   0  0  0  0  0  0  0  0  0  0  0  0
    0.2970   -1.3906   -0.8682 H   0  0  0  0  0  0  0  0  0  0  0  0
  1  5  1  0  0  0  0
  2  1  1  0  0  0  0
  2  8  1  0  0  0  0
  3  1  1  0  0  0  0
  4  1  1  0  0  0  0
  6  2  1  0  0  0  0
  6  9  1  0  0  0  0
  6 10  1  0  0  0  0
  7  2  1  0  0  0  0
  9 13  1  0  0  0  0
  9 12  1  0  0  0  0
 11  6  1  0  0  0  0
 14  9  1  0  0  0  0
M  END
$$$$
