butane_opt
 OpenBabel08242015403D

 14 13  0  0  0  0  0  0  0  0999 V2000
   -4.0003    0.2213    0.2142 C   0  0  0  0  0  0  0  0  0  0  0  0
   -2.7291   -0.5748   -0.1623 C   0  0  0  0  0  0  0  0  0  0  0  0
   -5.0317   -0.3689    0.1208 H   0  0  0  0  0  0  0  0  0  0  0  0
   -3.8712    0.7962   -0.6633 H   0  0  0  0  0  0  0  0  0  0  0  0
   -3.7884    1.0083    1.1597 H   0  0  0  0  0  0  0  0  0  0  0  0
   -1.3990    0.1714   -0.1507 C   0  0  0  0  0  0  0  0  0  0  0  0
   -2.8533   -1.3181   -1.1262 H   0  0  0  0  0  0  0  0  0  0  0  0
   -2.4796   -0.8718    0.5387 H   0  0  0  0  0  0  0  0  0  0  0  0
   -0.1091   -0.6779    0.2209 C   0  0  0  0  0  0  0  0  0  0  0  0
   -1.5468    0.5922    0.5256 H   0  0  0  0  0  0  0  0  0  0  0  0
   -1.4321    1.0566   -1.1560 H   0  0  0  0  0  0  0  0  0  0  0  0
   -0.1708   -1.6064    1.1546 H   0  0  0  0  0  0  0  0  0  0  0  0
    0.6606   -0.1573   -0.0241 H   0  0  0  0  0  0  0  0  0  0  0  0
    0.3210   -1.3080   -0.5468 H   0  0  0  0  0  0  0  0  0  0  0  0
  1  5  1  0  0  0  0
  2  6  1  0  0  0  0
  2  1  1  0  0  0  0
  2  8  1  0  0  0  0
  3  1  1  0  0  0  0
  4  1  1  0  0  0  0
  6  9  1  0  0  0  0
  6 10  1  0  0  0  0
  7  2  1  0  0  0  0
  9 12  1  0  0  0  0
 11  6  1  0  0  0  0
 13  9  1  0  0  0  0
 14  9  1  0  0  0  0
M  END
$$$$
