butane_opt
 OpenBabel08242015403D

 14 11  0  0  0  0  0  0  0  0999 V2000
   -3.9360    0.3068   -0.1114 C   0  0  0  0  0  0  0  0  0  0  0  0
   -2.6729   -0.6850    0.2470 C   0  0  0  0  0  0  0  0  0  0  0  0
   -4.6481   -0.0459   -0.7265 H   0  0  0  0  0  0  0  0  0  0  0  0
   -3.4994    0.6110   -0.8179 H   0  0  0  0  0  0  0  0  0  0  0  0
   -4.6658    1.3687    0.9080 H   0  0  0  0  0  0  0  0  0  0  0  0
   -1.3969    0.1451    0.0976 C   0  0  0  0  0  0  0  0  0  0  0  0
   -2.6358   -1.1995   -0.4203 H   0  0  0  0  0  0  0  0  0  0  0  0
   -2.8559   -1.4298    1.1339 H   0  0  0  0  0  0  0  0  0  0  0  0
   -0.1793   -0.6401   -0.0736 C   0  0  0  0  0  0  0  0  0  0  0  0
   -1.0897    0.6761    0.8559 H   0  0  0  0  0  0  0  0  0  0  0  0
   -1.3990    0.7752   -0.7649 H   0  0  0  0  0  0  0  0  0  0  0  0
   -0.0856   -1.1266    0.7033 H   0  0  0  0  0  0  0  0  0  0  0  0
    0.8641    0.0327   -0.2261 H   0  0  0  0  0  0  0  0  0  0  0  0
   -0.7971   -1.6310   -1.0709 H   0  0  0  0  0  0  0  0  0  0  0  0
  1  2  1  0  0  0  0
  2  8  1  0  0  0  0
  3  1  1  0  0  0  0
  4  1  1  0  0  0  0
  6  2  1  0  0  0  0
  6 10  1  0  0  0  0
  7  2  1  0  0  0  0
  9  6  1  0  0  0  0
  9 12  1  0  0  0  0
 11  6  1  0  0  0  0
 13  9  1  0  0  0  0
M  RAD  4   1   2   5   2   9   2  14   2
M  END
$$$$
