butane_opt
 OpenBabel08242015403D

 14 10  0  0  0  0  0  0  0  0999 V2000
   -3.9340    0.1901   -0.1553 C   0  0  0  0  0  0  0  0  0  0  0  0
   -2.7057   -0.5196    0.2352 C   0  0  0  0  0  1  0  0  0  0  0  0
   -4.8702   -0.4347   -0.3382 H   0  0  0  0  0  0  0  0  0  0  0  0
   -3.5083    0.6891   -0.9242 H   0  0  0  0  0  0  0  0  0  0  0  0
   -4.0850    0.9588    0.8065 H   0  0  0  0  0  0  0  0  0  0  0  0
   -1.4251    0.2107    0.1365 C   0  0  0  0  0  0  0  0  0  0  0  0
   -2.4269   -0.7902   -0.2502 H   0  0  0  0  0  0  0  0  0  0  0  0
   -3.1803   -1.5589    1.4264 H   0  0  0  0  0  0  0  0  0  0  0  0
   -0.1191   -0.7686   -0.1471 C   0  0  0  0  0  0  0  0  0  0  0  0
   -1.4432    1.1416    1.2374 H   0  0  0  0  0  0  0  0  0  0  0  0
   -1.7467    0.9547   -0.8253 H   0  0  0  0  0  0  0  0  0  0  0  0
   -0.1835   -0.9991    0.4888 H   0  0  0  0  0  0  0  0  0  0  0  0
    0.7436   -0.0335    0.2191 H   0  0  0  0  0  0  0  0  0  0  0  0
   -0.1100   -1.7943   -1.2301 H   0  0  0  0  0  0  0  0  0  0  0  0
  1  2  1  0  0  0  0
  1  5  1  0  0  0  0
  3  1  1  0  0  0  0
  4  1  1  0  0  0  0
  6 10  1  0  0  0  0
  7  6  1  0  0  0  0
  9 13  1  0  0  0  0
  9 12  1  0  0  0  0
 11  6  1  0  0  0  0
 14  9  1  0  0  0  0
M  RAD  3   6   2   8   2   9   2
M  END
$$$$
