14
butane_opt
C  -3.943557   0.278831   0.059185
C  -2.693854  -0.622169   0.006929
H  -4.871777  -0.349717   0.029432
H  -3.968514   0.839470  -0.791488
H  -3.900328   0.946969   0.920105
C  -1.403201   0.174706  -0.034727
H  -2.739903  -1.292496  -0.869009
H  -2.686462  -1.220843   0.876224
C  -0.166161  -0.686630   0.071018
H  -1.443615   0.773521   0.757374
H  -1.324397   0.864514  -0.983031
H  -0.221401  -1.254006   0.951506
H   0.750669  -0.092809   0.126006
H  -0.140007  -1.427700  -0.812968
