butane_opt
 OpenBabel08242015403D

 14 10  0  0  0  0  0  0  0  0999 V2000
   -3.9848    0.3230    0.1058 C   0  0  0  0  0  0  0  0  0  0  0  0
   -2.6679   -0.6536   -0.1054 C   0  0  0  0  0  0  0  0  0  0  0  0
   -4.8673   -0.2235    0.8158 H   0  0  0  0  0  0  0  0  0  0  0  0
   -4.4516    1.5217   -1.1745 H   0  0  0  0  0  0  0  0  0  0  0  0
   -3.8433    0.4632    0.6225 H   0  0  0  0  0  0  0  0  0  0  0  0
   -1.3774    0.1077    0.0151 C   0  0  0  0  0  0  0  0  0  0  0  0
   -2.7366   -1.7776   -1.1957 H   0  0  0  0  0  0  0  0  0  0  0  0
   -2.5987   -1.0596    0.6789 H   0  0  0  0  0  0  0  0  0  0  0  0
   -0.1515   -0.6964    0.0762 C   0  0  0  0  0  0  0  0  0  0  0  0
   -1.0648    0.7863    0.8106 H   0  0  0  0  0  0  0  0  0  0  0  0
   -1.3761    0.8566   -0.8887 H   0  0  0  0  0  0  0  0  0  0  0  0
   -0.4790   -1.1832    1.0229 H   0  0  0  0  0  0  0  0  0  0  0  0
    0.9207    0.1588    0.3045 H   0  0  0  0  0  0  0  0  0  0  0  0
   -0.3125   -0.9576   -0.6636 H   0  0  0  0  0  0  0  0  0  0  0  0
  1  3  1  0  0  0  0
  2  6  1  0  0  0  0
  2  1  1  0  0  0  0
  2  8  1  0  0  0  0
  6  9  1  0  0  0  0
  6 10  1  0  0  0  0
  9 13  1  0  0  0  0
  9 12  1  0  0  0  0
 11  6  1  0  0  0  0
 14  9  1  0  0  0  0
M  RAD  5   1   3   2   2   4   2   5   2   7   2
M  END
$$$$
