butane_opt
 OpenBabel08242015403D

 14 11  0  0  0  0  0  0  0  0999 V2000
   -3.8846    0.2433    0.1277 C   0  0  0  0  0  0  0  0  0  0  0  0
   -2.7489   -0.6101   -0.1142 C   0  0  0  0  0  0  0  0  0  0  0  0
   -5.0191   -0.5782    0.1571 H   0  0  0  0  0  0  0  0  0  0  0  0
   -3.8877    0.8222   -0.7858 H   0  0  0  0  0  0  0  0  0  0  0  0
   -4.0984    0.9860    0.9994 H   0  0  0  0  0  0  0  0  0  0  0  0
   -1.4224    0.2848   -0.0036 C   0  0  0  0  0  0  0  0  0  0  0  0
   -3.0857   -1.5632   -1.0543 H   0  0  0  0  0  0  0  0  0  0  0  0
   -2.8089   -0.9339    0.5070 H   0  0  0  0  0  0  0  0  0  0  0  0
   -0.1161   -0.7369    0.1028 C   0  0  0  0  0  0  0  0  0  0  0  0
   -1.5266    1.0719    0.8643 H   0  0  0  0  0  0  0  0  0  0  0  0
   -1.2566    0.9314   -1.0432 H   0  0  0  0  0  0  0  0  0  0  0  0
    0.2162   -2.2170    1.3777 H   0  0  0  0  0  0  0  0  0  0  0  0
    0.6661   -0.3380   -0.5139 H   0  0  0  0  0  0  0  0  0  0  0  0
   -0.1374   -0.8349   -0.3306 H   0  0  0  0  0  0  0  0  0  0  0  0
  1  3  1  0  0  0  0
  1  5  1  0  0  0  0
  2  6  1  0  0  0  0
  2  1  1  0  0  0  0
  2  8  1  0  0  0  0
  4  1  1  0  0  0  0
  6  9  1  0  0  0  0
  6 10  1  0  0  0  0
  7  2  1  0  0  0  0
 11  6  1  0  0  0  0
 13  9  1  0  0  0  0
M  RAD  3   9   3  12   2  14   2
M  END
$$$$
