butane_opt
 OpenBabel08242015403D

 14 11  0  0  0  0  0  0  0  0999 V2000
   -3.9642    0.2337    0.0787 C   0  0  0  0  0  0  0  0  0  0  0  0
   -2.7191   -0.6151    0.0587 C   0  0  0  0  0  0  0  0  0  0  0  0
   -4.9123   -0.3518   -0.8111 H   0  0  0  0  0  0  0  0  0  0  0  0
   -3.8334    0.4331   -0.5456 H   0  0  0  0  0  0  0  0  0  0  0  0
   -4.1559    1.5242    1.3041 H   0  0  0  0  0  0  0  0  0  0  0  0
   -1.3682    0.2947   -0.0415 C   0  0  0  0  0  0  0  0  0  0  0  0
   -2.9779   -1.4601   -1.0485 H   0  0  0  0  0  0  0  0  0  0  0  0
   -2.8609   -1.3068    0.9130 H   0  0  0  0  0  0  0  0  0  0  0  0
   -0.0986   -0.7302    0.0503 C   0  0  0  0  0  0  0  0  0  0  0  0
   -1.3118    0.5481    0.6044 H   0  0  0  0  0  0  0  0  0  0  0  0
   -1.3855    1.1587   -1.1596 H   0  0  0  0  0  0  0  0  0  0  0  0
   -0.1637   -1.6979    1.2634 H   0  0  0  0  0  0  0  0  0  0  0  0
    0.5566   -0.2460   -0.0832 H   0  0  0  0  0  0  0  0  0  0  0  0
   -0.1345   -1.3007   -0.6837 H   0  0  0  0  0  0  0  0  0  0  0  0
  2  1  1  0  0  0  0
  2  8  1  0  0  0  0
  3  1  1  0  0  0  0
  4  1  1  0  0  0  0
  6  9  1  0  0  0  0
  6  2  1  0  0  0  0
  6 10  1  0  0  0  0
  7  2  1  0  0  0  0
 11  6  1  0  0  0  0
 13  9  1  0  0  0  0
 14  9  1  0  0  0  0
M  RAD  4   1   2   5   2   9   2  12   2
M  END
$$$$
