14
butane_opt
C  -3.919575   0.285561  -0.069052
C  -2.638527  -0.711063   0.194735
H  -4.715783  -0.140684  -0.128334
H  -4.005378   1.220161  -0.998671
H  -4.023907   0.957505   0.703094
C  -1.428715   0.154798   0.000240
H  -2.442369  -1.091695  -0.287442
H  -2.804018  -1.408173   1.192257
C  -0.247288  -0.674424  -0.062276
H  -1.127451   0.959812   0.974154
H  -1.502830   0.691611  -0.725032
H  -0.626834  -0.611592   0.423467
H   0.936064   0.156102   0.689551
H   0.074533  -1.862587  -1.252067
