butane_opt
 OpenBabel08242015403D

 14 11  0  0  0  0  0  0  0  0999 V2000
   -3.9611    0.2763   -0.0559 C   0  0  0  0  0  1  0  0  0  0  0  0
   -2.7203   -0.6279    0.0792 C   0  0  0  0  0  0  0  0  0  0  0  0
   -4.8712   -0.3052    0.5746 H   0  0  0  0  0  0  0  0  0  0  0  0
   -4.1798    1.5898   -1.4188 H   0  0  0  0  0  0  0  0  0  0  0  0
   -3.7488    0.1847    0.3217 H   0  0  0  0  0  0  0  0  0  0  0  0
   -1.4402    0.1964    0.1675 C   0  0  0  0  0  0  0  0  0  0  0  0
   -2.5235   -1.2740   -0.7851 H   0  0  0  0  0  0  0  0  0  0  0  0
   -2.8535   -1.2103    1.0509 H   0  0  0  0  0  0  0  0  0  0  0  0
   -0.0803   -0.6984   -0.0665 C   0  0  0  0  0  0  0  0  0  0  0  0
   -1.4357    0.8091    1.0073 H   0  0  0  0  0  0  0  0  0  0  0  0
   -1.2519    0.6390   -0.5428 H   0  0  0  0  0  0  0  0  0  0  0  0
   -0.1132   -0.8585    0.6208 H   0  0  0  0  0  0  0  0  0  0  0  0
    0.8794   -0.1718    0.1280 H   0  0  0  0  0  0  0  0  0  0  0  0
   -0.4728   -1.6182   -1.1224 H   0  0  0  0  0  0  0  0  0  0  0  0
  1  3  1  0  0  0  0
  2  6  1  0  0  0  0
  2  5  1  0  0  0  0
  2  8  1  0  0  0  0
  6 10  1  0  0  0  0
  7  2  1  0  0  0  0
  9 13  1  0  0  0  0
  9  6  1  0  0  0  0
  9 12  1  0  0  0  0
 11  6  1  0  0  0  0
 14  9  1  0  0  0  0
M  RAD  1   4   2
M  END
$$$$
