butane_opt
 OpenBabel08242015403D

 14 10  0  0  0  0  0  0  0  0999 V2000
   -3.8733    0.2719   -0.0878 C   0  0  0  0  0  1  0  0  0  0  0  0
   -2.7112   -0.5945    0.0825 C   0  0  0  0  0  0  0  0  0  0  0  0
   -4.8357   -0.4679    0.7644 H   0  0  0  0  0  0  0  0  0  0  0  0
   -4.1783    1.5217   -1.3311 H   0  0  0  0  0  0  0  0  0  0  0  0
   -3.6873    0.0985    0.2900 H   0  0  0  0  0  0  0  0  0  0  0  0
   -1.4626    0.1449    0.1446 C   0  0  0  0  0  0  0  0  0  0  0  0
   -2.4675   -1.2970   -0.7412 H   0  0  0  0  0  0  0  0  0  0  0  0
   -2.7125   -1.1712    0.9661 H   0  0  0  0  0  0  0  0  0  0  0  0
   -0.1630   -0.7053   -0.0555 C   0  0  0  0  0  0  0  0  0  0  0  0
   -1.2993    1.2654    1.3364 H   0  0  0  0  0  0  0  0  0  0  0  0
   -1.8208    0.6981   -0.5080 H   0  0  0  0  0  0  0  0  0  0  0  0
   -0.3133   -1.0566    0.6215 H   0  0  0  0  0  0  0  0  0  0  0  0
    0.8747    0.0428   -0.0854 H   0  0  0  0  0  0  0  0  0  0  0  0
   -0.0671   -1.5040   -0.9773 H   0  0  0  0  0  0  0  0  0  0  0  0
  1  3  1  0  0  0  0
  2  6  1  0  0  0  0
  2  5  1  0  0  0  0
  2  8  1  0  0  0  0
  7  2  1  0  0  0  0
  9  6  1  0  0  0  0
  9 12  1  0  0  0  0
 11  6  1  0  0  0  0
 13  9  1  0  0  0  0
 14  9  1  0  0  0  0
M  RAD  3   4   2   6   2  10   2
M  END
$$$$
