butane_opt
 OpenBabel08242015403D

 14 13  0  0  0  0  0  0  0  0999 V2000
   -3.9633    0.2646   -0.0436 C   0  0  0  0  0  0  0  0  0  0  0  0
   -2.7731   -0.6858    0.1613 C   0  0  0  0  0  0  0  0  0  0  0  0
   -4.7052   -0.0253   -0.4693 H   0  0  0  0  0  0  0  0  0  0  0  0
   -3.8917    0.9063   -0.9673 H   0  0  0  0  0  0  0  0  0  0  0  0
   -4.4323    1.2751    0.8721 H   0  0  0  0  0  0  0  0  0  0  0  0
   -1.3610    0.1625    0.0566 C   0  0  0  0  0  0  0  0  0  0  0  0
   -2.4743   -1.1949   -0.3988 H   0  0  0  0  0  0  0  0  0  0  0  0
   -2.9195   -1.3971    1.1101 H   0  0  0  0  0  0  0  0  0  0  0  0
   -0.1078   -0.6490   -0.0909 C   0  0  0  0  0  0  0  0  0  0  0  0
   -1.1123    1.0989    1.1209 H   0  0  0  0  0  0  0  0  0  0  0  0
   -1.4100    0.6961   -0.7898 H   0  0  0  0  0  0  0  0  0  0  0  0
   -0.1813   -1.5238    0.8426 H   0  0  0  0  0  0  0  0  0  0  0  0
    0.7270   -0.0768    0.1486 H   0  0  0  0  0  0  0  0  0  0  0  0
   -0.1688   -1.3463   -0.9758 H   0  0  0  0  0  0  0  0  0  0  0  0
  1  2  1  0  0  0  0
  1  5  1  0  0  0  0
  2  8  1  0  0  0  0
  3  1  1  0  0  0  0
  4  1  1  0  0  0  0
  6  2  1  0  0  0  0
  6 10  1  0  0  0  0
  7  2  1  0  0  0  0
  9  6  1  0  0  0  0
  9 13  1  0  0  0  0
  9 12  1  0  0  0  0
 11  6  1  0  0  0  0
 14  9  1  0  0  0  0
M  END
$$$$
