14
butane_opt
C  -3.930676   0.301180   0.114569
C  -2.683317  -0.596878  -0.129959
H  -4.696633  -0.179045  -0.041618
H  -4.213367   0.562769  -0.357657
H  -3.876755   1.435949   1.367047
C  -1.359682   0.071849  -0.071951
H  -2.531419  -1.488800  -1.106937
H  -2.597150  -1.291506   0.842852
C  -0.219693  -0.644650   0.116011
H  -1.489691   0.651099   0.648742
H  -1.114239   0.653233  -1.110939
H  -0.476272  -1.834064   1.505061
H   0.786180   0.134917  -0.263789
H  -0.482866  -0.652815  -0.284417
