14
butane_opt
C  -3.993850   0.321172   0.187552
C  -2.676496  -0.654407  -0.136337
H  -4.683289  -0.195865  -0.349883
H  -4.230959   0.474211  -0.469843
H  -4.020657   1.302101   1.214598
C  -1.396934   0.123713  -0.068460
H  -2.785191  -1.637646  -1.157423
H  -2.968785  -1.111894   0.540171
C  -0.129880  -0.648625   0.172420
H  -1.602498   0.398781   0.544132
H  -1.203335   1.040401  -1.181672
H   0.155647  -1.789496   1.318429
H   0.866080   0.068359  -0.499492
H  -0.253513  -0.637936  -0.282786
