14
butane_opt
C  -3.854494   0.182614  -0.116368
C  -2.715508  -0.507921   0.187160
H  -4.847677  -0.498225   0.083853
H  -3.982323   1.096630  -1.097429
H  -4.006463   0.571688   0.596591
C  -1.443865   0.267412   0.076140
H  -2.643146  -1.093661  -0.367874
H  -3.021777  -1.579759   1.461414
C  -0.159731  -0.762233  -0.058186
H  -1.512688   1.105604   1.022625
H  -1.573737   0.821925  -0.749165
H  -0.101235  -0.606341   0.322241
H   0.730505  -0.296817   0.440420
H   0.059716  -2.175054  -1.458202
