butane_opt
 OpenBabel08242015403D

 14 13  0  0  0  0  0  0  0  0999 V2000
   -3.9320    0.3319    0.0093 C   0  0  0  0  0  0  0  0  0  0  0  0
   -2.6352   -0.6782   -0.0262 C   0  0  0  0  0  0  0  0  0  0  0  0
   -4.7306   -0.2630    0.2495 H   0  0  0  0  0  0  0  0  0  0  0  0
   -4.2112    0.7673   -0.8102 H   0  0  0  0  0  0  0  0  0  0  0  0
   -4.0168    1.0799    0.8987 H   0  0  0  0  0  0  0  0  0  0  0  0
   -1.3822    0.1132    0.0099 C   0  0  0  0  0  0  0  0  0  0  0  0
   -2.6184   -1.1922   -0.6285 H   0  0  0  0  0  0  0  0  0  0  0  0
   -2.5461   -1.2859    0.8632 H   0  0  0  0  0  0  0  0  0  0  0  0
   -0.2968   -0.6403    0.0642 C   0  0  0  0  0  0  0  0  0  0  0  0
   -1.3949    0.9136    0.9734 H   0  0  0  0  0  0  0  0  0  0  0  0
   -0.8712    0.5221   -0.7896 H   0  0  0  0  0  0  0  0  0  0  0  0
   -0.0116   -1.4298    1.1060 H   0  0  0  0  0  0  0  0  0  0  0  0
    0.7609   -0.0211   -0.3289 H   0  0  0  0  0  0  0  0  0  0  0  0
   -0.4466   -1.0541   -0.7691 H   0  0  0  0  0  0  0  0  0  0  0  0
  1  3  1  0  0  0  0
  1  5  1  0  0  0  0
  2  1  1  0  0  0  0
  2  6  1  0  0  0  0
  2  8  1  0  0  0  0
  4  1  1  0  0  0  0
  6  9  1  0  0  0  0
  6 10  1  0  0  0  0
  7  2  1  0  0  0  0
  9 12  1  0  0  0  0
 11  6  1  0  0  0  0
 13  9  1  0  0  0  0
 14  9  1  0  0  0  0
M  END
$$$$
