14
butane_opt
C  -3.952732   0.190525   0.136906
C  -2.698593  -0.567151  -0.115763
H  -4.656447  -0.393249  -0.006214
H  -4.147281   0.420833  -0.445139
H  -3.899160   1.308559   1.260232
C  -1.447799   0.269889  -0.110226
H  -2.856527  -1.466637  -1.133392
H  -2.531951  -0.985055   0.436138
C  -0.126010  -0.705398   0.168040
H  -1.387943   0.888198   0.698756
H  -1.366397   0.844769  -0.945751
H  -0.160737  -2.244139   1.675868
H   0.646616  -0.285565  -0.597107
H   0.056509  -0.808729  -0.351162
