14
butane_opt
C  -3.910491   0.356136  -0.142189
C  -2.679404  -0.636577   0.275237
H  -4.983224  -0.413223  -0.486235
H  -3.531910   0.594629  -0.869242
H  -4.390628   1.202766   0.715627
C  -1.368223   0.068914   0.089034
H  -2.536573  -1.062637  -0.456951
H  -2.742616  -1.599762   1.316935
C  -0.239537  -0.641518  -0.126502
H  -1.276309   0.955006   1.058397
H  -1.417948   0.391162  -0.492222
H  -0.145035  -1.024193   0.650816
H   0.630488   0.026517  -0.048241
H  -0.271148  -1.327136  -1.073866
