butane_opt
 OpenBabel08242015403D

 14 12  0  0  0  0  0  0  0  0999 V2000
   -3.9046    0.2425    0.1643 C   0  0  0  0  0  0  0  0  0  0  0  0
   -2.6902   -0.5563   -0.0965 C   0  0  0  0  0  0  0  0  0  0  0  0
   -5.0805   -0.6376    0.3205 H   0  0  0  0  0  0  0  0  0  0  0  0
   -3.9097    0.6244   -0.6533 H   0  0  0  0  0  0  0  0  0  0  0  0
   -3.8804    0.9328    1.1310 H   0  0  0  0  0  0  0  0  0  0  0  0
   -1.4372    0.2306   -0.1749 C   0  0  0  0  0  0  0  0  0  0  0  0
   -2.8677   -1.0278   -0.9538 H   0  0  0  0  0  0  0  0  0  0  0  0
   -2.5533   -1.1400    0.6944 H   0  0  0  0  0  0  0  0  0  0  0  0
   -0.1695   -0.7681    0.2036 C   0  0  0  0  0  0  0  0  0  0  0  0
   -1.3815    0.6306    0.4586 H   0  0  0  0  0  0  0  0  0  0  0  0
   -1.2443    1.1949   -1.3428 H   0  0  0  0  0  0  0  0  0  0  0  0
   -0.4515   -0.9972    0.8288 H   0  0  0  0  0  0  0  0  0  0  0  0
    0.7539   -0.1245    0.6990 H   0  0  0  0  0  0  0  0  0  0  0  0
    0.0756   -1.7853   -0.8924 H   0  0  0  0  0  0  0  0  0  0  0  0
  1  3  1  0  0  0  0
  1  5  1  0  0  0  0
  2  1  1  0  0  0  0
  2  8  1  0  0  0  0
  4  1  1  0  0  0  0
  6  2  1  0  0  0  0
  6  9  1  0  0  0  0
  6 10  1  0  0  0  0
  7  2  1  0  0  0  0
  9 13  1  0  0  0  0
  9 12  1  0  0  0  0
 14  9  1  0  0  0  0
M  RAD  2   6   2  11   2
M  END
$$$$
