butane_opt
 OpenBabel08242015403D

 14 11  0  0  0  0  0  0  0  0999 V2000
   -3.9510    0.1959   -0.0217 C   0  0  0  0  0  0  0  0  0  0  0  0
   -2.7160   -0.5868    0.0799 C   0  0  0  0  0  0  0  0  0  0  0  0
   -4.8433   -0.3982    0.4664 H   0  0  0  0  0  0  0  0  0  0  0  0
   -3.8391    1.4018   -1.3824 H   0  0  0  0  0  0  0  0  0  0  0  0
   -3.7937    0.4243    0.4529 H   0  0  0  0  0  0  0  0  0  0  0  0
   -1.3941    0.2662    0.1079 C   0  0  0  0  0  0  0  0  0  0  0  0
   -2.9470   -1.2567   -0.8633 H   0  0  0  0  0  0  0  0  0  0  0  0
   -2.6308   -1.0381    0.9093 H   0  0  0  0  0  0  0  0  0  0  0  0
   -0.1257   -0.7520   -0.0438 C   0  0  0  0  0  0  0  0  0  0  0  0
   -1.6691    1.0009    1.0228 H   0  0  0  0  0  0  0  0  0  0  0  0
   -1.6185    0.8378   -0.6237 H   0  0  0  0  0  0  0  0  0  0  0  0
   -0.0511   -1.0976    0.6514 H   0  0  0  0  0  0  0  0  0  0  0  0
    0.7324   -0.3825    0.1783 H   0  0  0  0  0  0  0  0  0  0  0  0
   -0.0950   -1.4478   -0.9202 H   0  0  0  0  0  0  0  0  0  0  0  0
  1  2  1  0  0  0  0
  1  3  1  0  0  0  0
  2  6  1  0  0  0  0
  2  8  1  0  0  0  0
  6 10  1  0  0  0  0
  7  2  1  0  0  0  0
  9  6  1  0  0  0  0
  9 13  1  0  0  0  0
  9 12  1  0  0  0  0
 11  6  1  0  0  0  0
 14  9  1  0  0  0  0
M  RAD  3   1   3   4   2   5   2
M  END
$$$$
