14
butane_opt
C  -3.865781   0.224673  -0.172819
C  -2.679725  -0.579905   0.311337
H  -4.854998  -0.446414  -0.732733
H  -3.546834   0.497087  -0.860740
H  -4.170336   1.332171   1.017654
C  -1.455277   0.211943   0.108592
H  -2.240754  -0.991650  -0.384679
H  -2.986184  -1.544372   1.369227
C  -0.201053  -0.677772  -0.139315
H  -1.365522   0.919290   0.874261
H  -1.683289   0.613993  -0.539014
H   0.089221  -1.269761   0.685337
H   0.498326  -0.274301   0.069496
H  -0.313259  -1.500032  -1.276013
