butane_opt
 OpenBabel08242015403D

 14 11  0  0  0  0  0  0  0  0999 V2000
   -3.8977    0.2767   -0.0720 C   0  0  0  0  0  0  0  0  0  0  0  0
   -2.6551   -0.6695    0.0714 C   0  0  0  0  0  0  0  0  0  0  0  0
   -4.6934   -0.1479    0.6643 H   0  0  0  0  0  0  0  0  0  0  0  0
   -4.1970    1.5218   -1.4538 H   0  0  0  0  0  0  0  0  0  0  0  0
   -3.6498    0.4183    0.4778 H   0  0  0  0  0  0  0  0  0  0  0  0
   -1.4281    0.1770    0.1819 C   0  0  0  0  0  0  0  0  0  0  0  0
   -2.4956   -1.4421   -0.8411 H   0  0  0  0  0  0  0  0  0  0  0  0
   -2.7710   -1.2188    0.7987 H   0  0  0  0  0  0  0  0  0  0  0  0
   -0.2194   -0.6528   -0.0219 C   0  0  0  0  0  0  0  0  0  0  0  0
   -1.3820    0.7654    1.0296 H   0  0  0  0  0  0  0  0  0  0  0  0
   -1.7677    0.6148   -0.6064 H   0  0  0  0  0  0  0  0  0  0  0  0
   -0.1126   -1.0732    0.7919 H   0  0  0  0  0  0  0  0  0  0  0  0
    0.6924    0.0464   -0.3033 H   0  0  0  0  0  0  0  0  0  0  0  0
   -0.2926   -1.4657   -1.0966 H   0  0  0  0  0  0  0  0  0  0  0  0
  1  2  1  0  0  0  0
  1  3  1  0  0  0  0
  2  6  1  0  0  0  0
  2  8  1  0  0  0  0
  6 10  1  0  0  0  0
  7  2  1  0  0  0  0
  9  6  1  0  0  0  0
  9 12  1  0  0  0  0
 11  6  1  0  0  0  0
 13  9  1  0  0  0  0
 14  9  1  0  0  0  0
M  RAD  3   1   3   4   2   5   2
M  END
$$$$
