14
butane_opt
C  -3.848118   0.182102   0.129713
C  -2.721800  -0.513358  -0.019329
H  -4.717322  -0.422165   0.049210
H  -3.685103   0.345087  -0.516490
H  -3.837071   1.361762   1.214191
C  -1.469417   0.242765  -0.224197
H  -2.888019  -1.374683  -1.058120
H  -2.701669  -1.281312   0.982765
C  -0.166707  -0.708356   0.154806
H  -1.750272   0.812803   0.610811
H  -1.524385   0.921715  -1.124210
H  -0.393742  -1.362572   1.050055
H   0.607134  -0.406847   0.509276
H   0.338745  -1.506579  -0.714814
