14
butane_opt
C  -3.946970   0.301267  -0.116852
C  -2.667296  -0.591003   0.146186
H  -4.902907  -0.116151   0.680236
H  -4.129705   1.459336  -1.463932
H  -3.791678   0.308861   0.235637
C  -1.369924   0.065674   0.150711
H  -2.661266  -1.360505  -0.668624
H  -2.425362  -1.378076   1.032647
C  -0.236168  -0.643717  -0.082988
H  -1.164064   1.131357   1.397090
H  -1.293122   0.481712  -0.512297
H  -0.506721  -0.973418   0.662983
H   0.792390   0.048714  -0.010087
H  -0.307529  -1.638566  -1.214944
