14
butane_opt
C  -3.978031   0.332403  -0.109337
C  -2.702015  -0.720837   0.232173
H  -4.700888  -0.232949  -0.542885
H  -3.469663   0.755677  -0.896721
H  -4.447918   1.303727   0.863655
C  -1.350613   0.135799   0.123490
H  -2.563401  -1.158556  -0.615946
H  -2.909978  -1.472083   1.241782
C  -0.217672  -0.616346  -0.106873
H  -1.002833   0.830992   1.028608
H  -1.604985   0.815792  -0.775433
H   0.001112  -1.388696   0.773970
H   0.660299   0.007189  -0.065254
H  -0.078850  -1.498647  -1.174707
