14
butane_opt
C  -4.072252   0.258459  -0.063051
C  -2.656706  -0.609267   0.099508
H  -5.020608  -0.343816  -0.204481
H  -3.949988   0.929961  -1.062202
H  -4.127624   1.153807   0.913953
C  -1.361216   0.141825   0.108625
H  -2.714974  -1.222347  -0.815912
H  -2.860984  -1.402200   1.035028
C  -0.105679  -0.673975  -0.028837
H  -0.983161   1.112668   1.168970
H  -1.563486   0.606398  -0.557540
H   0.098927  -1.659159   1.027328
H   0.688965   0.011503  -0.706109
H  -0.227733  -1.065600  -0.709614
