14
butane_opt
C  -3.957746   0.206855  -0.062847
C  -2.791451  -0.524936   0.096937
H  -4.722363  -0.279537   0.524617
H  -3.865073   1.297329  -1.366612
H  -3.797176   0.146016   0.431531
C  -1.385186   0.258091   0.124100
H  -2.906428  -0.975054  -0.661941
H  -2.540293  -1.395289   1.059182
C  -0.102656  -0.781763  -0.062764
H  -1.409869   1.211729   1.050683
H  -1.489592   0.630369  -0.501897
H  -0.371393  -1.071964   0.563363
H   0.855745  -0.119189   0.269514
H   0.080382  -1.804966  -1.200709
