butane_opt
 OpenBabel08242015403D

 14 13  0  0  0  0  0  0  0  0999 V2000
   -3.9492    0.2455    0.1216 C   0  0  0  0  0  0  0  0  0  0  0  0
   -2.7566   -0.5561    0.0031 C   0  0  0  0  0  0  0  0  0  0  0  0
   -5.0784   -0.7057   -0.0532 H   0  0  0  0  0  0  0  0  0  0  0  0
   -3.9146    0.7354   -0.6946 H   0  0  0  0  0  0  0  0  0  0  0  0
   -3.9670    1.0299    1.1691 H   0  0  0  0  0  0  0  0  0  0  0  0
   -1.3963    0.2224   -0.1518 C   0  0  0  0  0  0  0  0  0  0  0  0
   -3.0611   -1.2737   -0.8577 H   0  0  0  0  0  0  0  0  0  0  0  0
   -2.7453   -0.9394    0.8106 H   0  0  0  0  0  0  0  0  0  0  0  0
   -0.0915   -0.7334    0.1023 C   0  0  0  0  0  0  0  0  0  0  0  0
   -1.3844    0.5955    0.5106 H   0  0  0  0  0  0  0  0  0  0  0  0
   -1.2761    1.0280   -1.2273 H   0  0  0  0  0  0  0  0  0  0  0  0
   -0.2773   -1.1378    0.9272 H   0  0  0  0  0  0  0  0  0  0  0  0
    0.5989   -0.4329    0.8312 H   0  0  0  0  0  0  0  0  0  0  0  0
    0.4475   -1.5766   -0.8815 H   0  0  0  0  0  0  0  0  0  0  0  0
  1  5  1  0  0  0  0
  2  1  1  0  0  0  0
  2  8  1  0  0  0  0
  3  1  1  0  0  0  0
  4  1  1  0  0  0  0
  6  2  1  0  0  0  0
  6  9  1  0  0  0  0
  6 10  1  0  0  0  0
  7  2  1  0  0  0  0
  9 13  1  0  0  0  0
  9 12  1  0  0  0  0
 11  6  1  0  0  0  0
 14  9  1  0  0  0  0
M  END
$$$$
