butane_opt
 OpenBabel08242015403D

 14 13  0  0  0  0  0  0  0  0999 V2000
   -3.9590    0.2415   -0.0676 C   0  0  0  0  0  0  0  0  0  0  0  0
   -2.7205   -0.5726    0.1767 C   0  0  0  0  0  0  0  0  0  0  0  0
   -5.1055   -0.5711    0.0968 H   0  0  0  0  0  0  0  0  0  0  0  0
   -3.5488    0.8240   -0.9388 H   0  0  0  0  0  0  0  0  0  0  0  0
   -3.9066    1.0067    1.0341 H   0  0  0  0  0  0  0  0  0  0  0  0
   -1.3451    0.2335   -0.0456 C   0  0  0  0  0  0  0  0  0  0  0  0
   -2.6580   -1.0651   -0.5342 H   0  0  0  0  0  0  0  0  0  0  0  0
   -2.8009   -1.2344    1.1158 H   0  0  0  0  0  0  0  0  0  0  0  0
   -0.1653   -0.7569   -0.0334 C   0  0  0  0  0  0  0  0  0  0  0  0
   -1.4492    0.9954    0.9339 H   0  0  0  0  0  0  0  0  0  0  0  0
   -1.5887    0.6475   -0.8157 H   0  0  0  0  0  0  0  0  0  0  0  0
   -0.4701   -0.9474    0.6853 H   0  0  0  0  0  0  0  0  0  0  0  0
    0.6107   -0.1912    0.6096 H   0  0  0  0  0  0  0  0  0  0  0  0
    0.1983   -1.7320   -1.1198 H   0  0  0  0  0  0  0  0  0  0  0  0
  1  3  1  0  0  0  0
  1  2  1  0  0  0  0
  1  5  1  0  0  0  0
  2  8  1  0  0  0  0
  4  1  1  0  0  0  0
  6  9  1  0  0  0  0
  6  2  1  0  0  0  0
  6 10  1  0  0  0  0
  7  2  1  0  0  0  0
  9 13  1  0  0  0  0
  9 12  1  0  0  0  0
 11  6  1  0  0  0  0
 14  9  1  0  0  0  0
M  END
$$$$
