14
butane_opt
C  -3.965514   0.210172   0.169627
C  -2.741037  -0.546368  -0.149455
H  -4.882055  -0.331599   0.566174
H  -4.192025   1.197174  -1.046999
H  -3.643140   0.753710   1.060420
C  -1.400773   0.193121  -0.084298
H  -3.026493  -1.443911  -1.213193
H  -2.732710  -0.821072   0.507780
C  -0.096212  -0.750102   0.164826
H  -1.694046   0.634553   0.630620
H  -1.001110   0.977343  -0.945869
H  -0.200292  -1.401193   1.199924
H   0.793780  -0.030493  -0.062670
H   0.020990  -1.279870  -0.527521
