14
butane_opt
C  -3.936886   0.265962   0.006274
C  -2.697173  -0.614069   0.033188
H  -4.884199  -0.343629   0.173550
H  -4.018501   0.971436  -0.929785
H  -3.858537   0.835760   0.807983
C  -1.403549   0.194006   0.028613
H  -2.726123  -1.293405  -0.807950
H  -2.735023  -1.292176   0.951954
C  -0.176498  -0.699400   0.020358
H  -1.357940   0.917628   0.896163
H  -1.408459   0.782694  -0.852538
H  -0.118877  -1.305147   0.923157
H   0.750864  -0.105104   0.083854
H  -0.104437  -1.394792  -0.875577
