butane_opt
 OpenBabel08242015403D

 14 13  0  0  0  0  0  0  0  0999 V2000
   -3.9358    0.2531   -0.0021 C   0  0  0  0  0  0  0  0  0  0  0  0
   -2.7020   -0.6063    0.0560 C   0  0  0  0  0  0  0  0  0  0  0  0
   -4.8743   -0.3537   -0.0369 H   0  0  0  0  0  0  0  0  0  0  0  0
   -3.8602    0.9174   -0.9487 H   0  0  0  0  0  0  0  0  0  0  0  0
   -3.9844    0.9050    0.8538 H   0  0  0  0  0  0  0  0  0  0  0  0
   -1.4119    0.2011    0.0512 C   0  0  0  0  0  0  0  0  0  0  0  0
   -2.7390   -1.3201   -0.7885 H   0  0  0  0  0  0  0  0  0  0  0  0
   -2.7122   -1.2388    0.9399 H   0  0  0  0  0  0  0  0  0  0  0  0
   -0.1587   -0.7018    0.0097 C   0  0  0  0  0  0  0  0  0  0  0  0
   -1.3777    0.9062    0.9233 H   0  0  0  0  0  0  0  0  0  0  0  0
   -1.4553    0.8073   -0.8260 H   0  0  0  0  0  0  0  0  0  0  0  0
   -0.0560   -1.3831    0.9297 H   0  0  0  0  0  0  0  0  0  0  0  0
    0.7290   -0.1479   -0.1711 H   0  0  0  0  0  0  0  0  0  0  0  0
   -0.1911   -1.3134   -0.8145 H   0  0  0  0  0  0  0  0  0  0  0  0
  1  2  1  0  0  0  0
  1  5  1  0  0  0  0
  2  8  1  0  0  0  0
  3  1  1  0  0  0  0
  4  1  1  0  0  0  0
  6  2  1  0  0  0  0
  6 10  1  0  0  0  0
  7  2  1  0  0  0  0
  9  6  1  0  0  0  0
  9 12  1  0  0  0  0
 11  6  1  0  0  0  0
 13  9  1  0  0  0  0
 14  9  1  0  0  0  0
M  END
$$$$
