butane_opt
 OpenBabel08242015403D

 14 13  0  0  0  0  0  0  0  0999 V2000
   -3.9300    0.2539    0.0424 C   0  0  0  0  0  0  0  0  0  0  0  0
   -2.7031   -0.6036    0.0169 C   0  0  0  0  0  0  0  0  0  0  0  0
   -4.8793   -0.3610    0.0882 H   0  0  0  0  0  0  0  0  0  0  0  0
   -3.9979    0.8403   -0.8037 H   0  0  0  0  0  0  0  0  0  0  0  0
   -3.9215    0.9368    0.9244 H   0  0  0  0  0  0  0  0  0  0  0  0
   -1.4082    0.2042   -0.0339 C   0  0  0  0  0  0  0  0  0  0  0  0
   -2.7107   -1.2588   -0.8427 H   0  0  0  0  0  0  0  0  0  0  0  0
   -2.7173   -1.2238    0.9143 H   0  0  0  0  0  0  0  0  0  0  0  0
   -0.1685   -0.7048    0.0642 C   0  0  0  0  0  0  0  0  0  0  0  0
   -1.3969    0.8288    0.7874 H   0  0  0  0  0  0  0  0  0  0  0  0
   -1.3501    0.8318   -0.9284 H   0  0  0  0  0  0  0  0  0  0  0  0
   -0.2060   -1.2717    0.9481 H   0  0  0  0  0  0  0  0  0  0  0  0
    0.7314   -0.1397    0.1296 H   0  0  0  0  0  0  0  0  0  0  0  0
   -0.0472   -1.4648   -0.8563 H   0  0  0  0  0  0  0  0  0  0  0  0
  1  3  1  0  0  0  0
  1  5  1  0  0  0  0
  2  1  1  0  0  0  0
  2  8  1  0  0  0  0
  4  1  1  0  0  0  0
  6  2  1  0  0  0  0
  6  9  1  0  0  0  0
  6 10  1  0  0  0  0
  7  2  1  0  0  0  0
  9 13  1  0  0  0  0
  9 12  1  0  0  0  0
 11  6  1  0  0  0  0
 14  9  1  0  0  0  0
M  END
$$$$
