14
butane_opt
C  -3.890360   0.306954  -0.053148
C  -2.682906  -0.705351   0.057437
H  -4.676874   0.027013   0.050186
H  -4.073802   1.127184  -1.016566
H  -3.983218   0.716604   0.737700
C  -1.384316   0.146611   0.111117
H  -2.427915  -1.130433  -0.596667
H  -2.795401  -1.386860   0.916869
C  -0.222430  -0.664236  -0.010057
H  -1.401792   1.093257   1.273080
H  -1.288346   0.564614  -0.705266
H  -0.136252  -1.263877   0.876060
H   0.752804  -0.036003  -0.551195
H  -0.835613  -1.166401  -0.836228
