butane_opt
 OpenBabel08242015403D

 14  9  0  0  0  0  0  0  0  0999 V2000
   -3.9515    0.3429    0.0894 C   0  0  0  0  0  0  0  0  0  0  0  0
   -2.6030   -0.6804   -0.0836 C   0  0  0  0  0  0  0  0  0  0  0  0
   -4.7255   -0.1944    0.1608 H   0  0  0  0  0  0  0  0  0  0  0  0
   -4.3570    0.5769   -0.7120 H   0  0  0  0  0  0  0  0  0  0  0  0
   -4.0381    1.1886    1.0711 H   0  0  0  0  0  0  0  0  0  0  0  0
   -1.3899    0.1329   -0.0393 C   0  0  0  0  0  0  0  0  0  0  0  0
   -2.8640   -1.7323   -1.2621 H   0  0  0  0  0  0  0  0  0  0  0  0
   -2.5765   -1.2686    0.6602 H   0  0  0  0  0  0  0  0  0  0  0  0
   -0.2017   -0.6391    0.1062 C   0  0  0  0  0  1  0  0  0  0  0  0
   -1.3098    0.7230    0.9286 H   0  0  0  0  0  0  0  0  0  0  0  0
   -1.4958    0.6991   -0.9125 H   0  0  0  0  0  0  0  0  0  0  0  0
   -0.1865   -1.8545    1.4165 H   0  0  0  0  0  0  0  0  0  0  0  0
    0.8108    0.0828   -0.4169 H   0  0  0  0  0  0  0  0  0  0  0  0
   -0.5375   -0.4822   -0.2455 H   0  0  0  0  0  0  0  0  0  0  0  0
  1  3  1  0  0  0  0
  1  5  1  0  0  0  0
  2  1  1  0  0  0  0
  2  8  1  0  0  0  0
  4  1  1  0  0  0  0
  6 10  1  0  0  0  0
 11  6  1  0  0  0  0
 13  9  1  0  0  0  0
 14  6  1  0  0  0  0
M  RAD  4   2   3   6   2   7   2  12   2
M  END
$$$$
