butane_opt
 OpenBabel08242015403D

 14 13  0  0  0  0  0  0  0  0999 V2000
   -3.9101    0.1519    0.2087 C   0  0  0  0  0  0  0  0  0  0  0  0
   -2.6955   -0.4769   -0.1068 C   0  0  0  0  0  0  0  0  0  0  0  0
   -4.9715   -0.5372    0.1764 H   0  0  0  0  0  0  0  0  0  0  0  0
   -4.0748    0.8995   -0.7748 H   0  0  0  0  0  0  0  0  0  0  0  0
   -3.6209    0.9181    1.0567 H   0  0  0  0  0  0  0  0  0  0  0  0
   -1.4660    0.2119   -0.2090 C   0  0  0  0  0  0  0  0  0  0  0  0
   -3.0197   -1.4241   -1.1902 H   0  0  0  0  0  0  0  0  0  0  0  0
   -2.2578   -0.9437    0.6228 H   0  0  0  0  0  0  0  0  0  0  0  0
   -0.1401   -0.7533    0.2107 C   0  0  0  0  0  0  0  0  0  0  0  0
   -1.5342    0.8265    0.5097 H   0  0  0  0  0  0  0  0  0  0  0  0
   -1.3151    1.1496   -1.1686 H   0  0  0  0  0  0  0  0  0  0  0  0
   -0.4281   -1.2822    1.0915 H   0  0  0  0  0  0  0  0  0  0  0  0
    0.6492   -0.2390    0.5016 H   0  0  0  0  0  0  0  0  0  0  0  0
    0.1689   -1.5157   -0.6770 H   0  0  0  0  0  0  0  0  0  0  0  0
  1  5  1  0  0  0  0
  2  1  1  0  0  0  0
  2  8  1  0  0  0  0
  3  1  1  0  0  0  0
  4  1  1  0  0  0  0
  6  2  1  0  0  0  0
  6  9  1  0  0  0  0
  6 10  1  0  0  0  0
  7  2  1  0  0  0  0
  9 13  1  0  0  0  0
  9 12  1  0  0  0  0
 11  6  1  0  0  0  0
 14  9  1  0  0  0  0
M  END
$$$$
