butane_opt
 OpenBabel08242015403D

 14 12  0  0  0  0  0  0  0  0999 V2000
   -3.8641    0.2246   -0.1699 C   0  0  0  0  0  0  0  0  0  0  0  0
   -2.7555   -0.5641    0.1452 C   0  0  0  0  0  0  0  0  0  0  0  0
   -4.8716   -0.3311    0.1562 H   0  0  0  0  0  0  0  0  0  0  0  0
   -3.7825    0.9808   -1.2302 H   0  0  0  0  0  0  0  0  0  0  0  0
   -3.8508    0.6437    0.4852 H   0  0  0  0  0  0  0  0  0  0  0  0
   -1.4318    0.2439    0.2887 C   0  0  0  0  0  0  0  0  0  0  0  0
   -2.2489   -0.9696   -0.4715 H   0  0  0  0  0  0  0  0  0  0  0  0
   -2.9543   -1.4268    1.1992 H   0  0  0  0  0  0  0  0  0  0  0  0
   -0.1839   -0.7043   -0.1688 C   0  0  0  0  0  0  0  0  0  0  0  0
   -1.2505    1.1162    1.3086 H   0  0  0  0  0  0  0  0  0  0  0  0
   -1.5177    0.4353   -0.4626 H   0  0  0  0  0  0  0  0  0  0  0  0
    0.2167   -1.6688    0.9644 H   0  0  0  0  0  0  0  0  0  0  0  0
    0.6146   -0.3053   -0.5665 H   0  0  0  0  0  0  0  0  0  0  0  0
   -0.5465   -1.3508   -1.0510 H   0  0  0  0  0  0  0  0  0  0  0  0
  1  2  1  0  0  0  0
  1  3  1  0  0  0  0
  1  5  1  0  0  0  0
  2  6  1  0  0  0  0
  2  8  1  0  0  0  0
  4  1  1  0  0  0  0
  6 10  1  0  0  0  0
  7  2  1  0  0  0  0
  9  6  1  0  0  0  0
 11  6  1  0  0  0  0
 13  9  1  0  0  0  0
 14  9  1  0  0  0  0
M  RAD  2   9   2  12   2
M  END
$$$$
