14
butane_opt
C  -3.956010   0.194949  -0.021878
C  -2.751555  -0.563468   0.129480
H  -5.002607  -0.442895  -0.032429
H  -3.740060   1.123200  -1.170991
H  -3.692597   0.644683   0.721728
C  -1.435394   0.246941   0.003322
H  -3.004390  -0.805528  -0.505404
H  -2.661941  -1.482696   1.278792
C  -0.061159  -0.748562  -0.040412
H  -1.575006   1.151216   1.018835
H  -1.665715   0.918345  -0.935616
H  -0.306665  -0.777705   0.487953
H   0.817206  -0.141918   0.847377
H   0.247066  -2.260594  -1.250582
