butane_opt
 OpenBabel08242015403D

 14 10  0  0  0  0  0  0  0  0999 V2000
   -4.0268    0.3356   -0.0018 C   0  0  0  0  0  0  0  0  0  0  0  0
   -2.7010   -0.6906    0.0022 C   0  0  0  0  0  0  0  0  0  0  0  0
   -4.8411   -0.1527    0.0353 H   0  0  0  0  0  0  0  0  0  0  0  0
   -4.0349    0.8861   -0.7482 H   0  0  0  0  0  0  0  0  0  0  0  0
   -4.3307    0.9759    0.9033 H   0  0  0  0  0  0  0  0  0  0  0  0
   -1.3129    0.1334    0.0891 C   0  0  0  0  0  0  0  0  0  0  0  0
   -2.6550   -1.4779   -0.9018 H   0  0  0  0  0  0  0  0  0  0  0  0
   -2.9332   -1.0399    0.7174 H   0  0  0  0  0  0  0  0  0  0  0  0
   -0.1365   -0.6634    0.0540 C   0  0  0  0  0  0  0  0  0  0  0  0
   -1.4725    0.8239    0.7838 H   0  0  0  0  0  0  0  0  0  0  0  0
   -1.2918    0.6551   -0.7317 H   0  0  0  0  0  0  0  0  0  0  0  0
    0.3238   -1.7802    1.1824 H   0  0  0  0  0  0  0  0  0  0  0  0
    0.9990    0.2869   -0.8653 H   0  0  0  0  0  0  0  0  0  0  0  0
   -0.7054   -0.9765   -0.5831 H   0  0  0  0  0  0  0  0  0  0  0  0
  1  2  1  0  0  0  0
  1  3  1  0  0  0  0
  1  5  1  0  0  0  0
  2  8  1  0  0  0  0
  4  1  1  0  0  0  0
  6 10  1  0  0  0  0
  7  2  1  0  0  0  0
  9  6  1  0  0  0  0
 11  6  1  0  0  0  0
 14  9  1  0  0  0  0
M  RAD  5   2   2   6   2   9   3  12   2  13   2
M  END
$$$$
