14
butane_opt
C  -4.014876   0.343806  -0.070283
C  -2.673836  -0.721939   0.157655
H  -4.830608  -0.290513   0.058785
H  -4.357649   1.082673  -1.025742
H  -4.122545   0.792340   0.656557
C  -1.328001   0.196152   0.023250
H  -2.544641  -1.213510  -0.468008
H  -2.755877  -1.925856   1.363637
C  -0.158306  -0.643426  -0.046529
H  -1.154930   0.951574   0.895563
H  -1.590271   0.734700  -0.802918
H  -0.423677  -0.518589   0.399022
H   0.691705  -0.034661   0.782850
H   0.162427  -2.127510  -1.281027
