butane_opt
 OpenBabel08242015403D

 14  9  0  0  0  0  0  0  0  0999 V2000
   -4.0170    0.3066    0.0575 C   0  0  0  0  0  0  0  0  0  0  0  0
   -2.6728   -0.6779    0.0199 C   0  0  0  0  0  0  0  0  0  0  0  0
   -4.9320   -0.2451    0.0893 H   0  0  0  0  0  0  0  0  0  0  0  0
   -4.3657    1.0499   -0.8876 H   0  0  0  0  0  0  0  0  0  0  0  0
   -4.0442    0.9949    0.8540 H   0  0  0  0  0  0  0  0  0  0  0  0
   -1.3826    0.1125   -0.0645 C   0  0  0  0  0  0  0  0  0  0  0  0
   -2.8111   -0.8905   -0.5239 H   0  0  0  0  0  0  0  0  0  0  0  0
   -2.3986   -1.5919    0.9353 H   0  0  0  0  0  0  0  0  0  0  0  0
   -0.1399   -0.6451    0.0565 C   0  0  0  0  0  0  0  0  0  0  0  0
   -1.2847    0.7316    0.7444 H   0  0  0  0  0  0  0  0  0  0  0  0
   -1.0007    0.7923   -1.0440 H   0  0  0  0  0  0  0  0  0  0  0  0
   -0.4959   -0.7300    0.5960 H   0  0  0  0  0  0  0  0  0  0  0  0
    0.7834    0.0929    0.8490 H   0  0  0  0  0  0  0  0  0  0  0  0
    0.0873   -1.8550   -1.1008 H   0  0  0  0  0  0  0  0  0  0  0  0
  1  3  1  0  0  0  0
  1  5  1  0  0  0  0
  2  1  1  0  0  0  0
  2  8  1  0  0  0  0
  4  1  1  0  0  0  0
  6 10  1  0  0  0  0
  9 12  1  0  0  0  0
  9 13  1  0  0  0  0
 11  6  1  0  0  0  0
M  RAD  5   2   3   6   3   7   2   9   3  14   2
M  END
$$$$
