butane_opt
 OpenBabel08242015403D

 14 11  0  0  0  0  0  0  0  0999 V2000
   -4.0204    0.3020   -0.1682 C   0  0  0  0  0  0  0  0  0  0  0  0
   -2.6232   -0.7101    0.2626 C   0  0  0  0  0  0  0  0  0  0  0  0
   -4.8367   -0.2337   -0.5574 H   0  0  0  0  0  0  0  0  0  0  0  0
   -3.7183    0.8078   -1.0473 H   0  0  0  0  0  0  0  0  0  0  0  0
   -4.2244    1.1130    0.9508 H   0  0  0  0  0  0  0  0  0  0  0  0
   -1.3835    0.2144    0.1395 C   0  0  0  0  0  0  0  0  0  0  0  0
   -2.5834   -1.0440   -0.3961 H   0  0  0  0  0  0  0  0  0  0  0  0
   -2.8803   -1.6387    1.5140 H   0  0  0  0  0  0  0  0  0  0  0  0
   -0.1823   -0.6478   -0.1212 C   0  0  0  0  0  0  0  0  0  0  0  0
   -1.2960    0.8519    0.9135 H   0  0  0  0  0  0  0  0  0  0  0  0
   -1.4480    0.5765   -0.6366 H   0  0  0  0  0  0  0  0  0  0  0  0
    0.2018   -0.9846    0.5082 H   0  0  0  0  0  0  0  0  0  0  0  0
    0.6512   -0.0495    0.0720 H   0  0  0  0  0  0  0  0  0  0  0  0
   -0.3994   -1.7536   -1.2490 H   0  0  0  0  0  0  0  0  0  0  0  0
  1  2  1  0  0  0  0
  1  5  1  0  0  0  0
  3  1  1  0  0  0  0
  4  1  1  0  0  0  0
  6  2  1  0  0  0  0
  6 10  1  0  0  0  0
  7  2  1  0  0  0  0
  9 13  1  0  0  0  0
  9  6  1  0  0  0  0
  9 12  1  0  0  0  0
 11  6  1  0  0  0  0
M  RAD  4   2   2   8   2   9   2  14   2
M  END
$$$$
