butane_opt
 OpenBabel08242015403D

 14 11  0  0  0  0  0  0  0  0999 V2000
   -3.8912    0.1986   -0.0876 C   0  0  0  0  0  0  0  0  0  0  0  0
   -2.7317   -0.4938    0.1695 C   0  0  0  0  0  0  0  0  0  0  0  0
   -4.7503   -0.3789    0.1349 H   0  0  0  0  0  0  0  0  0  0  0  0
   -3.3333    1.0714   -1.2440 H   0  0  0  0  0  0  0  0  0  0  0  0
   -4.0981    0.2768    0.3653 H   0  0  0  0  0  0  0  0  0  0  0  0
   -1.4677    0.1834    0.1971 C   0  0  0  0  0  0  0  0  0  0  0  0
   -2.6475   -1.1657   -0.7314 H   0  0  0  0  0  0  0  0  0  0  0  0
   -2.9420   -1.0132    0.9295 H   0  0  0  0  0  0  0  0  0  0  0  0
   -0.1164   -0.7083   -0.0992 C   0  0  0  0  0  0  0  0  0  0  0  0
   -1.6471    1.0409    1.0504 H   0  0  0  0  0  0  0  0  0  0  0  0
   -1.7575    0.7089   -0.5042 H   0  0  0  0  0  0  0  0  0  0  0  0
    0.1678   -1.4151    0.6471 H   0  0  0  0  0  0  0  0  0  0  0  0
    0.7661   -0.2202   -0.3540 H   0  0  0  0  0  0  0  0  0  0  0  0
   -0.3279   -1.5218   -1.0230 H   0  0  0  0  0  0  0  0  0  0  0  0
  1  3  1  0  0  0  0
  1  2  1  0  0  0  0
  2  6  1  0  0  0  0
  2  8  1  0  0  0  0
  6 10  1  0  0  0  0
  7  2  1  0  0  0  0
  9  6  1  0  0  0  0
  9 12  1  0  0  0  0
 11  6  1  0  0  0  0
 13  9  1  0  0  0  0
 14  9  1  0  0  0  0
M  RAD  3   1   3   4   2   5   2
M  END
$$$$
