butane_opt
 OpenBabel08242015403D

 14 11  0  0  0  0  0  0  0  0999 V2000
   -3.8364    0.2135    0.0744 C   0  0  0  0  0  0  0  0  0  0  0  0
   -2.7834   -0.5627   -0.0845 C   0  0  0  0  0  0  0  0  0  0  0  0
   -4.8970   -0.5366   -0.0428 H   0  0  0  0  0  0  0  0  0  0  0  0
   -3.8588    0.5619   -0.5350 H   0  0  0  0  0  0  0  0  0  0  0  0
   -3.7866    1.1540    1.2339 H   0  0  0  0  0  0  0  0  0  0  0  0
   -1.4657    0.2539   -0.0279 C   0  0  0  0  0  0  0  0  0  0  0  0
   -2.7932   -1.1156   -0.8660 H   0  0  0  0  0  0  0  0  0  0  0  0
   -2.5737   -0.9709    0.6508 H   0  0  0  0  0  0  0  0  0  0  0  0
   -0.1212   -0.7770    0.0789 C   0  0  0  0  0  0  0  0  0  0  0  0
   -1.3788    0.8873    0.8633 H   0  0  0  0  0  0  0  0  0  0  0  0
   -1.5850    0.8599   -0.9974 H   0  0  0  0  0  0  0  0  0  0  0  0
   -0.2086   -1.9304    1.5133 H   0  0  0  0  0  0  0  0  0  0  0  0
    0.7448   -0.1320   -0.3110 H   0  0  0  0  0  0  0  0  0  0  0  0
   -0.1736   -0.8280   -0.4710 H   0  0  0  0  0  0  0  0  0  0  0  0
  1  5  1  0  0  0  0
  2  6  1  0  0  0  0
  2  1  1  0  0  0  0
  2  8  1  0  0  0  0
  3  1  1  0  0  0  0
  4  1  1  0  0  0  0
  6  9  1  0  0  0  0
  6 10  1  0  0  0  0
  7  2  1  0  0  0  0
 11  6  1  0  0  0  0
 13  9  1  0  0  0  0
M  RAD  3   9   3  12   2  14   2
M  END
$$$$
