14
butane_opt
C  -3.943852   0.254529   0.031537
C  -2.691892  -0.602630   0.026926
H  -4.874149  -0.365437   0.100316
H  -3.974750   0.928929  -0.902413
H  -3.934646   0.882711   0.851126
C  -1.410886   0.195887   0.000271
H  -2.744610  -1.348506  -0.884954
H  -2.728602  -1.198890   0.899610
C  -0.151700  -0.701462   0.043049
H  -1.435748   0.866071   0.868263
H  -1.396868   0.814681  -0.884445
H  -0.117597  -1.343214   0.974858
H   0.748275  -0.101984   0.018659
H  -0.179231  -1.362916  -0.823681
