14
butane_opt
C  -3.919504   0.222009  -0.142204
C  -2.708126  -0.563282   0.138416
H  -4.927753  -0.603310   0.790507
H  -4.256804   1.505502  -1.380732
H  -3.622422   0.147145   0.227036
C  -1.410595   0.251942   0.175386
H  -2.688194  -1.008506  -0.570439
H  -2.836885  -1.308776   0.998534
C  -0.131492  -0.772981  -0.085635
H  -1.408882   1.184922   1.251411
H  -1.816457   0.629640  -0.471693
H  -0.111074  -0.685928   0.433849
H   0.722957  -0.214208   0.083341
H  -0.005251  -1.783253  -1.087180
