butane_opt
 OpenBabel08242015403D

 14 11  0  0  0  0  0  0  0  0999 V2000
   -4.0132    0.3242   -0.0149 C   0  0  0  0  0  0  0  0  0  0  0  0
   -2.7056   -0.6770    0.0851 C   0  0  0  0  0  0  0  0  0  0  0  0
   -4.7177    0.0293    0.3407 H   0  0  0  0  0  0  0  0  0  0  0  0
   -4.3140    1.4440   -1.1923 H   0  0  0  0  0  0  0  0  0  0  0  0
   -3.9557    0.4257    0.3657 H   0  0  0  0  0  0  0  0  0  0  0  0
   -1.4106    0.0854    0.0992 C   0  0  0  0  0  0  0  0  0  0  0  0
   -2.5339   -1.7432   -0.8723 H   0  0  0  0  0  0  0  0  0  0  0  0
   -2.7924   -1.1421    0.8980 H   0  0  0  0  0  0  0  0  0  0  0  0
   -0.1390   -0.6337   -0.0314 C   0  0  0  0  0  0  0  0  0  0  0  0
   -1.1719    0.9089    1.0422 H   0  0  0  0  0  0  0  0  0  0  0  0
   -1.3454    0.7344   -0.7731 H   0  0  0  0  0  0  0  0  0  0  0  0
   -0.0496   -1.0799    0.8177 H   0  0  0  0  0  0  0  0  0  0  0  0
    1.1291    0.1976    0.0579 H   0  0  0  0  0  0  0  0  0  0  0  0
   -0.1393   -1.3553   -0.9628 H   0  0  0  0  0  0  0  0  0  0  0  0
  1  2  1  0  0  0  0
  1  3  1  0  0  0  0
  2  6  1  0  0  0  0
  2  8  1  0  0  0  0
  6 10  1  0  0  0  0
  7  2  1  0  0  0  0
  9 13  1  0  0  0  0
  9  6  1  0  0  0  0
  9 12  1  0  0  0  0
 11  6  1  0  0  0  0
 14  9  1  0  0  0  0
M  RAD  3   1   3   4   2   5   2
M  END
$$$$
