butane_opt
 OpenBabel08242015403D

 14  7  0  0  0  0  0  0  0  0999 V2000
   -3.8920    0.2202   -0.0758 C   0  0  0  0  0  1  0  0  0  0  0  0
   -2.7439   -0.5506    0.0706 C   0  0  0  0  0  0  0  0  0  0  0  0
   -5.0391   -0.5674    0.4667 H   0  0  0  0  0  0  0  0  0  0  0  0
   -4.3051    1.3630   -1.3061 H   0  0  0  0  0  0  0  0  0  0  0  0
   -3.6989    0.2102    0.4283 H   0  0  0  0  0  0  0  0  0  0  0  0
   -1.4166    0.2506    0.1097 C   0  0  0  0  0  0  0  0  0  0  0  0
   -2.7621   -1.1101   -0.5991 H   0  0  0  0  0  0  0  0  0  0  0  0
   -2.7561   -1.4510    1.2349 H   0  0  0  0  0  0  0  0  0  0  0  0
   -0.1259   -0.7231   -0.0180 C   0  0  0  0  0  0  0  0  0  0  0  0
   -1.3642    1.2955    1.2550 H   0  0  0  0  0  0  0  0  0  0  0  0
   -1.6450    0.6348   -0.6668 H   0  0  0  0  0  0  0  0  0  0  0  0
    0.2256   -0.9562    0.4771 H   0  0  0  0  0  0  0  0  0  0  0  0
    0.5106   -0.4862    0.0963 H   0  0  0  0  0  0  0  0  0  0  0  0
   -0.0027   -1.7997   -1.1086 H   0  0  0  0  0  0  0  0  0  0  0  0
  1  3  1  0  0  0  0
  2  5  1  0  0  0  0
  7  2  1  0  0  0  0
  9 13  1  0  0  0  0
  9  6  1  0  0  0  0
  9 12  1  0  0  0  0
 11  6  1  0  0  0  0
M  RAD  7   2   3   4   2   6   3   8   2   9   2  10   2  14   2
M  END
$$$$
