14
butane_opt
C  -3.982490   0.275465  -0.088299
C  -2.612668  -0.619209   0.210855
H  -4.889649  -0.443591  -0.054892
H  -3.691893   1.121486  -1.094113
H  -3.818393   0.771891   0.666662
C  -1.415468   0.155060   0.083558
H  -2.688345  -1.291064  -0.539150
H  -2.637865  -1.195861   1.191819
C  -0.231426  -0.670831  -0.102019
H  -1.255002   0.783334   0.985824
H  -1.479108   0.970616  -1.010054
H  -0.479716  -0.906822   0.576693
H   0.849406  -0.027844   0.753573
H  -0.061948  -1.943408  -1.357701
