butane_opt
 OpenBabel08242015403D

 14 12  0  0  0  0  0  0  0  0999 V2000
   -3.8973    0.2201    0.0247 C   0  0  0  0  0  0  0  0  0  0  0  0
   -2.6478   -0.5345   -0.0523 C   0  0  0  0  0  0  0  0  0  0  0  0
   -4.8709   -0.4827    0.1807 H   0  0  0  0  0  0  0  0  0  0  0  0
   -4.0814    0.8810   -0.6900 H   0  0  0  0  0  0  0  0  0  0  0  0
   -3.7905    1.1066    1.0401 H   0  0  0  0  0  0  0  0  0  0  0  0
   -1.4489    0.1912   -0.0083 C   0  0  0  0  0  0  0  0  0  0  0  0
   -2.5452   -1.4889   -0.9040 H   0  0  0  0  0  0  0  0  0  0  0  0
   -2.8035   -1.3078    0.9488 H   0  0  0  0  0  0  0  0  0  0  0  0
   -0.2538   -0.7015    0.0864 C   0  0  0  0  0  0  0  0  0  0  0  0
   -1.3187    0.9939    0.9672 H   0  0  0  0  0  0  0  0  0  0  0  0
   -1.2658    0.6299   -0.7443 H   0  0  0  0  0  0  0  0  0  0  0  0
    0.0232   -1.7227    1.1870 H   0  0  0  0  0  0  0  0  0  0  0  0
    0.7686   -0.1257   -0.5966 H   0  0  0  0  0  0  0  0  0  0  0  0
   -0.1548   -1.0192   -0.5221 H   0  0  0  0  0  0  0  0  0  0  0  0
  1  3  1  0  0  0  0
  1  5  1  0  0  0  0
  2  6  1  0  0  0  0
  2  1  1  0  0  0  0
  2  8  1  0  0  0  0
  4  1  1  0  0  0  0
  6  9  1  0  0  0  0
  6 10  1  0  0  0  0
  7  2  1  0  0  0  0
 11  6  1  0  0  0  0
 13  9  1  0  0  0  0
 14  9  1  0  0  0  0
M  RAD  2   9   2  12   2
M  END
$$$$
