14
butane_opt
C  -3.968911   0.299006  -0.118160
C  -2.682747  -0.648821   0.130965
H  -4.638287  -0.177563  -0.075775
H  -4.206940   0.934335  -1.025856
H  -3.815051   1.067751   0.898699
C  -1.394765   0.098629   0.118826
H  -2.444363  -1.229673  -0.490469
H  -2.604140  -1.440936   1.064097
C  -0.171708  -0.653208  -0.066012
H  -1.318121   0.832698   1.112182
H  -1.596730   0.605294  -0.560654
H  -0.265950  -1.133852   0.830040
H   0.940258   0.081043  -0.249373
H  -0.477571  -1.091061  -0.870327
