14
butane_opt
C  -3.836400   0.213476   0.074436
C  -2.783394  -0.562749  -0.084468
H  -4.897000  -0.536555  -0.042829
H  -3.858794   0.561884  -0.535014
H  -3.786563   1.154017   1.233937
C  -1.465691   0.253930  -0.027855
H  -2.793190  -1.115637  -0.866026
H  -2.573660  -0.970863   0.650796
C  -0.121217  -0.776992   0.078926
H  -1.378831   0.887311   0.863266
H  -1.585034   0.859857  -0.997401
H  -0.208580  -1.930401   1.513323
H   0.744795  -0.131961  -0.310998
H  -0.173634  -0.827998  -0.471015
