14
butane_opt
C  -3.917621   0.232302  -0.168435
C  -2.687194  -0.549932   0.186230
H  -5.003085  -0.627843  -0.251372
H  -3.789033   0.996987  -1.116292
H  -3.809321   0.763183   0.749504
C  -1.471699   0.259871   0.245511
H  -2.772261  -1.415638  -0.734021
H  -2.798295  -1.391280   1.097235
C  -0.140231  -0.729396  -0.102628
H  -1.502591   0.997270   1.162865
H  -1.506358   0.751678  -0.510492
H   0.555981  -1.652444   0.815607
H   0.752469  -0.133259  -0.854988
H  -0.555776  -1.272428  -0.874278
