butane_opt
 OpenBabel08242015403D

 14 13  0  0  0  0  0  0  0  0999 V2000
   -3.9459    0.2782    0.0377 C   0  0  0  0  0  0  0  0  0  0  0  0
   -2.6968   -0.6216    0.0245 C   0  0  0  0  0  0  0  0  0  0  0  0
   -4.8263   -0.3191    0.0233 H   0  0  0  0  0  0  0  0  0  0  0  0
   -3.9312    0.8084   -0.7880 H   0  0  0  0  0  0  0  0  0  0  0  0
   -3.9555    1.0194    0.9556 H   0  0  0  0  0  0  0  0  0  0  0  0
   -1.4084    0.1703   -0.0264 C   0  0  0  0  0  0  0  0  0  0  0  0
   -2.7131   -1.3364   -0.8659 H   0  0  0  0  0  0  0  0  0  0  0  0
   -2.6948   -1.2652    0.9377 H   0  0  0  0  0  0  0  0  0  0  0  0
   -0.1646   -0.6890    0.0587 C   0  0  0  0  0  0  0  0  0  0  0  0
   -1.4211    0.7872    0.7876 H   0  0  0  0  0  0  0  0  0  0  0  0
   -1.3160    0.8569   -0.9430 H   0  0  0  0  0  0  0  0  0  0  0  0
   -0.2048   -1.2594    0.9285 H   0  0  0  0  0  0  0  0  0  0  0  0
    0.7764   -0.0529    0.0860 H   0  0  0  0  0  0  0  0  0  0  0  0
   -0.1558   -1.3592   -0.8110 H   0  0  0  0  0  0  0  0  0  0  0  0
  1  5  1  0  0  0  0
  2  1  1  0  0  0  0
  2  8  1  0  0  0  0
  3  1  1  0  0  0  0
  4  1  1  0  0  0  0
  6  2  1  0  0  0  0
  6  9  1  0  0  0  0
  6 10  1  0  0  0  0
  7  2  1  0  0  0  0
  9 13  1  0  0  0  0
  9 12  1  0  0  0  0
 11  6  1  0  0  0  0
 14  9  1  0  0  0  0
M  END
$$$$
