butane_opt
 OpenBabel08242015403D

 14  9  0  0  0  0  0  0  0  0999 V2000
   -3.9577    0.2069   -0.0628 C   0  0  0  0  0  1  0  0  0  0  0  0
   -2.7915   -0.5249    0.0969 C   0  0  0  0  0  0  0  0  0  0  0  0
   -4.7224   -0.2795    0.5246 H   0  0  0  0  0  0  0  0  0  0  0  0
   -3.8651    1.2973   -1.3666 H   0  0  0  0  0  0  0  0  0  0  0  0
   -3.7972    0.1460    0.4315 H   0  0  0  0  0  0  0  0  0  0  0  0
   -1.3852    0.2581    0.1241 C   0  0  0  0  0  0  0  0  0  0  0  0
   -2.9064   -0.9751   -0.6619 H   0  0  0  0  0  0  0  0  0  0  0  0
   -2.5403   -1.3953    1.0592 H   0  0  0  0  0  0  0  0  0  0  0  0
   -0.1027   -0.7818   -0.0628 C   0  0  0  0  0  0  0  0  0  0  0  0
   -1.4099    1.2117    1.0507 H   0  0  0  0  0  0  0  0  0  0  0  0
   -1.4896    0.6304   -0.5019 H   0  0  0  0  0  0  0  0  0  0  0  0
   -0.3714   -1.0720    0.5634 H   0  0  0  0  0  0  0  0  0  0  0  0
    0.8557   -0.1192    0.2695 H   0  0  0  0  0  0  0  0  0  0  0  0
    0.0804   -1.8050   -1.2007 H   0  0  0  0  0  0  0  0  0  0  0  0
  1  3  1  0  0  0  0
  2  5  1  0  0  0  0
  2  8  1  0  0  0  0
  6 10  1  0  0  0  0
  7  2  1  0  0  0  0
  9  6  1  0  0  0  0
  9 13  1  0  0  0  0
  9 12  1  0  0  0  0
 11  6  1  0  0  0  0
M  RAD  5   2   2   4   2   6   2   9   2  14   2
M  END
$$$$
