14
butane_opt
C  -3.960798   0.272716   0.001108
C  -2.701587  -0.615138   0.062435
H  -4.864579  -0.317383  -0.069154
H  -3.871464   0.765527  -0.838542
H  -4.009924   1.022781   0.901446
C  -1.393103   0.178544   0.020924
H  -2.669781  -1.239713  -0.770972
H  -2.789899  -1.312797   0.990337
C  -0.157300  -0.690779   0.014976
H  -1.366414   0.834984   0.873261
H  -1.394059   0.779056  -0.866145
H  -0.104760  -1.299304   0.926583
H   0.734249  -0.110841  -0.024789
H  -0.143215  -1.336184  -0.856172
