14
butane_opt
C  -3.951547   0.342940   0.089417
C  -2.602978  -0.680398  -0.083574
H  -4.725549  -0.194363   0.160824
H  -4.356963   0.576899  -0.711982
H  -4.038136   1.188557   1.071064
C  -1.389889   0.132854  -0.039270
H  -2.864045  -1.732346  -1.262071
H  -2.576451  -1.268555   0.660151
C  -0.201688  -0.639097   0.106220
H  -1.309757   0.723026   0.928604
H  -1.495789   0.699107  -0.912483
H  -0.186478  -1.854468   1.416456
H   0.810808   0.082780  -0.416853
H  -0.537497  -0.482184  -0.245550
