butane_opt
 OpenBabel08242015403D

 14  9  0  0  0  0  0  0  0  0999 V2000
   -3.8951    0.2497    0.1802 C   0  0  0  0  0  0  0  0  0  0  0  0
   -2.6547   -0.6211   -0.1052 C   0  0  0  0  0  0  0  0  0  0  0  0
   -4.9217   -0.4599   -0.2159 H   0  0  0  0  0  0  0  0  0  0  0  0
   -3.8619    0.5787   -0.5892 H   0  0  0  0  0  0  0  0  0  0  0  0
   -3.6839    1.1504    1.2044 H   0  0  0  0  0  0  0  0  0  0  0  0
   -1.4489    0.2305   -0.1223 C   0  0  0  0  0  0  0  0  0  0  0  0
   -2.9676   -1.6644   -1.2873 H   0  0  0  0  0  0  0  0  0  0  0  0
   -2.5570   -0.7745    0.4350 H   0  0  0  0  0  0  0  0  0  0  0  0
   -0.2124   -0.7249    0.1749 C   0  0  0  0  0  0  0  0  0  0  0  0
   -1.3696    0.7058    0.5894 H   0  0  0  0  0  0  0  0  0  0  0  0
   -1.5325    1.1340   -1.0189 H   0  0  0  0  0  0  0  0  0  0  0  0
   -0.0148   -1.7907    1.5383 H   0  0  0  0  0  0  0  0  0  0  0  0
    0.5089   -0.2776   -0.4198 H   0  0  0  0  0  0  0  0  0  0  0  0
   -0.0797   -0.7189   -0.2580 H   0  0  0  0  0  0  0  0  0  0  0  0
  1  5  1  0  0  0  0
  2  1  1  0  0  0  0
  3  1  1  0  0  0  0
  4  1  1  0  0  0  0
  6  2  1  0  0  0  0
  6  9  1  0  0  0  0
  6 10  1  0  0  0  0
 11  6  1  0  0  0  0
 13  9  1  0  0  0  0
M  RAD  6   2   3   7   2   8   2   9   3  12   2  14   2
M  END
$$$$
