butane_opt
 OpenBabel08242015403D

 14 12  0  0  0  0  0  0  0  0999 V2000
   -3.8329    0.2410   -0.1664 C   0  0  0  0  0  0  0  0  0  0  0  0
   -2.6960   -0.5969    0.1516 C   0  0  0  0  0  0  0  0  0  0  0  0
   -5.0413   -0.4492    0.2340 H   0  0  0  0  0  0  0  0  0  0  0  0
   -3.7905    1.1440   -1.2849 H   0  0  0  0  0  0  0  0  0  0  0  0
   -3.8981    0.7863    0.6773 H   0  0  0  0  0  0  0  0  0  0  0  0
   -1.4173    0.2210    0.2236 C   0  0  0  0  0  0  0  0  0  0  0  0
   -2.3618   -1.2271   -0.6478 H   0  0  0  0  0  0  0  0  0  0  0  0
   -3.0705   -1.4489    1.2021 H   0  0  0  0  0  0  0  0  0  0  0  0
   -0.2184   -0.7008   -0.1272 C   0  0  0  0  0  0  0  0  0  0  0  0
   -1.3213    1.2637    1.3659 H   0  0  0  0  0  0  0  0  0  0  0  0
   -1.7296    0.5649   -0.3185 H   0  0  0  0  0  0  0  0  0  0  0  0
    0.1164   -1.6619    0.8675 H   0  0  0  0  0  0  0  0  0  0  0  0
    0.5433   -0.2512   -0.6268 H   0  0  0  0  0  0  0  0  0  0  0  0
   -0.4587   -1.1828   -0.9717 H   0  0  0  0  0  0  0  0  0  0  0  0
  1  2  1  0  0  0  0
  1  3  1  0  0  0  0
  1  5  1  0  0  0  0
  2  6  1  0  0  0  0
  2  8  1  0  0  0  0
  4  1  1  0  0  0  0
  7  2  1  0  0  0  0
  9  6  1  0  0  0  0
  9 12  1  0  0  0  0
 11  6  1  0  0  0  0
 13  9  1  0  0  0  0
 14  9  1  0  0  0  0
M  RAD  2   6   2  10   2
M  END
$$$$
