14
butane_opt
C  -3.981268   0.311321   0.158136
C  -2.705844  -0.642887  -0.076690
H  -4.906459  -0.293301   0.016574
H  -4.049806   0.873091  -0.693644
H  -3.796689   1.309886   1.156555
C  -1.355217   0.047092  -0.118515
H  -2.441830  -1.417025  -1.016448
H  -2.691184  -1.183218   0.754044
C  -0.206305  -0.626912   0.154591
H  -1.349658   0.513888   0.483419
H  -1.218011   1.116400  -1.234128
H  -0.351099  -1.193189   1.011491
H   0.738824   0.047957   0.367957
H   0.002501  -1.325790  -0.775595
