butane_opt
 OpenBabel08242015403D

 14 11  0  0  0  0  0  0  0  0999 V2000
   -4.0341    0.3280    0.1239 C   0  0  0  0  0  0  0  0  0  0  0  0
   -2.6831   -0.6391   -0.1031 C   0  0  0  0  0  0  0  0  0  0  0  0
   -4.9963   -0.4281    0.5723 H   0  0  0  0  0  0  0  0  0  0  0  0
   -4.5428    1.4176   -0.9612 H   0  0  0  0  0  0  0  0  0  0  0  0
   -3.7704    0.6936    0.7015 H   0  0  0  0  0  0  0  0  0  0  0  0
   -1.3046    0.1210   -0.0416 C   0  0  0  0  0  0  0  0  0  0  0  0
   -2.7525   -1.8337   -1.1925 H   0  0  0  0  0  0  0  0  0  0  0  0
   -2.5706   -1.1205    0.6270 H   0  0  0  0  0  0  0  0  0  0  0  0
   -0.1714   -0.6413    0.1599 C   0  0  0  0  0  0  0  0  0  0  0  0
   -1.5887    0.7275    0.7007 H   0  0  0  0  0  0  0  0  0  0  0  0
   -0.9526    0.7499   -0.9267 H   0  0  0  0  0  0  0  0  0  0  0  0
   -0.0407   -1.4074    1.0931 H   0  0  0  0  0  0  0  0  0  0  0  0
    0.8106    0.0239   -0.1214 H   0  0  0  0  0  0  0  0  0  0  0  0
   -0.3031   -1.2800   -0.7869 H   0  0  0  0  0  0  0  0  0  0  0  0
  1  3  1  0  0  0  0
  1  5  1  0  0  0  0
  2  6  1  0  0  0  0
  2  1  1  0  0  0  0
  2  8  1  0  0  0  0
  6  9  1  0  0  0  0
  6 10  1  0  0  0  0
  9 12  1  0  0  0  0
 11  6  1  0  0  0  0
 13  9  1  0  0  0  0
 14  9  1  0  0  0  0
M  RAD  4   1   2   2   2   4   2   7   2
M  END
$$$$
