butane_opt
 OpenBabel08242015403D

 14 11  0  0  0  0  0  0  0  0999 V2000
   -3.8815    0.2300    0.0479 C   0  0  0  0  0  0  0  0  0  0  0  0
   -2.6608   -0.5751   -0.0001 C   0  0  0  0  0  0  0  0  0  0  0  0
   -4.9426   -0.4446   -0.1868 H   0  0  0  0  0  0  0  0  0  0  0  0
   -3.8319    0.6847   -0.7659 H   0  0  0  0  0  0  0  0  0  0  0  0
   -3.9693    1.2306    1.1451 H   0  0  0  0  0  0  0  0  0  0  0  0
   -1.4889    0.1918    0.0066 C   0  0  0  0  0  0  0  0  0  0  0  0
   -2.7154   -1.5803   -1.0516 H   0  0  0  0  0  0  0  0  0  0  0  0
   -2.5812   -1.0905    0.6434 H   0  0  0  0  0  0  0  0  0  0  0  0
   -0.2238   -0.6969    0.0804 C   0  0  0  0  0  0  0  0  0  0  0  0
   -1.3930    0.8939    0.9434 H   0  0  0  0  0  0  0  0  0  0  0  0
   -1.1450    0.8362   -0.9220 H   0  0  0  0  0  0  0  0  0  0  0  0
    0.3585   -1.9641    1.2682 H   0  0  0  0  0  0  0  0  0  0  0  0
    0.5731   -0.1480   -0.6750 H   0  0  0  0  0  0  0  0  0  0  0  0
   -0.3128   -0.6800   -0.4865 H   0  0  0  0  0  0  0  0  0  0  0  0
  1  5  1  0  0  0  0
  2  6  1  0  0  0  0
  2  1  1  0  0  0  0
  2  8  1  0  0  0  0
  3  1  1  0  0  0  0
  4  1  1  0  0  0  0
  6  9  1  0  0  0  0
  6 10  1  0  0  0  0
  7  2  1  0  0  0  0
 11  6  1  0  0  0  0
 13  9  1  0  0  0  0
M  RAD  3   9   3  12   2  14   2
M  END
$$$$
