butane_opt
 OpenBabel08242015403D

 14  9  0  0  0  0  0  0  0  0999 V2000
   -4.0149    0.3438   -0.0703 C   0  0  0  0  0  0  0  0  0  0  0  0
   -2.6738   -0.7219    0.1577 C   0  0  0  0  0  0  0  0  0  0  0  0
   -4.8306   -0.2905    0.0588 H   0  0  0  0  0  0  0  0  0  0  0  0
   -4.3576    1.0827   -1.0257 H   0  0  0  0  0  0  0  0  0  0  0  0
   -4.1225    0.7923    0.6566 H   0  0  0  0  0  0  0  0  0  0  0  0
   -1.3280    0.1962    0.0232 C   0  0  0  0  0  0  0  0  0  0  0  0
   -2.5446   -1.2135   -0.4680 H   0  0  0  0  0  0  0  0  0  0  0  0
   -2.7559   -1.9259    1.3636 H   0  0  0  0  0  0  0  0  0  0  0  0
   -0.1583   -0.6434   -0.0465 C   0  0  0  0  0  1  0  0  0  0  0  0
   -1.1549    0.9516    0.8956 H   0  0  0  0  0  0  0  0  0  0  0  0
   -1.5903    0.7347   -0.8029 H   0  0  0  0  0  0  0  0  0  0  0  0
   -0.4237   -0.5186    0.3990 H   0  0  0  0  0  0  0  0  0  0  0  0
    0.6917   -0.0347    0.7829 H   0  0  0  0  0  0  0  0  0  0  0  0
    0.1624   -2.1275   -1.2810 H   0  0  0  0  0  0  0  0  0  0  0  0
  1  3  1  0  0  0  0
  1  2  1  0  0  0  0
  1  5  1  0  0  0  0
  4  1  1  0  0  0  0
  6 12  1  0  0  0  0
  6 10  1  0  0  0  0
  7  2  1  0  0  0  0
  9 13  1  0  0  0  0
 11  6  1  0  0  0  0
M  RAD  4   2   3   6   2   8   2  14   2
M  END
$$$$
