butane_opt
 OpenBabel08242015403D

 14 12  0  0  0  0  0  0  0  0999 V2000
   -3.9097    0.3231    0.2292 C   0  0  0  0  0  0  0  0  0  0  0  0
   -2.6682   -0.6296   -0.2163 C   0  0  0  0  0  0  0  0  0  0  0  0
   -4.8676   -0.3068    0.4551 H   0  0  0  0  0  0  0  0  0  0  0  0
   -4.3116    0.8519   -0.5953 H   0  0  0  0  0  0  0  0  0  0  0  0
   -3.8226    0.7376    0.9021 H   0  0  0  0  0  0  0  0  0  0  0  0
   -1.3992    0.1132   -0.1610 C   0  0  0  0  0  0  0  0  0  0  0  0
   -2.9334   -1.2869   -1.1914 H   0  0  0  0  0  0  0  0  0  0  0  0
   -2.5904   -1.1303    0.5158 H   0  0  0  0  0  0  0  0  0  0  0  0
   -0.1914   -0.6635    0.1987 C   0  0  0  0  0  0  0  0  0  0  0  0
   -1.6590    0.9088    0.6915 H   0  0  0  0  0  0  0  0  0  0  0  0
   -1.1981    0.6453   -0.9222 H   0  0  0  0  0  0  0  0  0  0  0  0
   -0.6481   -1.6028    1.4357 H   0  0  0  0  0  0  0  0  0  0  0  0
    1.0136    0.0036   -0.0709 H   0  0  0  0  0  0  0  0  0  0  0  0
    0.0035   -0.9932   -0.3988 H   0  0  0  0  0  0  0  0  0  0  0  0
  1  3  1  0  0  0  0
  1  5  1  0  0  0  0
  2  6  1  0  0  0  0
  2  1  1  0  0  0  0
  2  8  1  0  0  0  0
  4  1  1  0  0  0  0
  6  9  1  0  0  0  0
  6 10  1  0  0  0  0
  7  2  1  0  0  0  0
 11  6  1  0  0  0  0
 13  9  1  0  0  0  0
 14  9  1  0  0  0  0
M  RAD  2   9   2  12   2
M  END
$$$$
