butane_opt
 OpenBabel08242015403D

 14 11  0  0  0  0  0  0  0  0999 V2000
   -3.8601    0.1913   -0.1553 C   0  0  0  0  0  0  0  0  0  0  0  0
   -2.6512   -0.5552    0.2870 C   0  0  0  0  0  0  0  0  0  0  0  0
   -4.7137   -0.5283    0.3299 H   0  0  0  0  0  0  0  0  0  0  0  0
   -3.8369    1.1210   -1.2057 H   0  0  0  0  0  0  0  0  0  0  0  0
   -4.1053    0.4761    0.3981 H   0  0  0  0  0  0  0  0  0  0  0  0
   -1.4785    0.2336    0.1036 C   0  0  0  0  0  0  0  0  0  0  0  0
   -2.9475   -0.9915   -0.6199 H   0  0  0  0  0  0  0  0  0  0  0  0
   -2.8139   -1.1693    1.1732 H   0  0  0  0  0  0  0  0  0  0  0  0
   -0.1727   -0.7525   -0.1064 C   0  0  0  0  0  1  0  0  0  0  0  0
   -1.3575    1.1441    1.0780 H   0  0  0  0  0  0  0  0  0  0  0  0
   -1.7550    0.9640   -0.8288 H   0  0  0  0  0  0  0  0  0  0  0  0
   -0.3819   -0.6337    0.2121 H   0  0  0  0  0  0  0  0  0  0  0  0
    0.6962   -0.2047    0.7280 H   0  0  0  0  0  0  0  0  0  0  0  0
    0.1827   -2.1188   -1.4593 H   0  0  0  0  0  0  0  0  0  0  0  0
  1  2  1  0  0  0  0
  1  3  1  0  0  0  0
  1  5  1  0  0  0  0
  2  8  1  0  0  0  0
  4  1  1  0  0  0  0
  6 12  1  0  0  0  0
  6  2  1  0  0  0  0
  6 10  1  0  0  0  0
  7  2  1  0  0  0  0
  9 13  1  0  0  0  0
 11  6  1  0  0  0  0
M  RAD  1  14   2
M  END
$$$$
