butane_opt
 OpenBabel08242015403D

 14 13  0  0  0  0  0  0  0  0999 V2000
   -3.9278    0.1860    0.1434 C   0  0  0  0  0  0  0  0  0  0  0  0
   -2.7193   -0.4948   -0.0776 C   0  0  0  0  0  0  0  0  0  0  0  0
   -4.8446   -0.6029    0.0212 H   0  0  0  0  0  0  0  0  0  0  0  0
   -4.0091    0.7109   -0.5763 H   0  0  0  0  0  0  0  0  0  0  0  0
   -3.4671    1.0380    1.2091 H   0  0  0  0  0  0  0  0  0  0  0  0
   -1.4361    0.2250   -0.1709 C   0  0  0  0  0  0  0  0  0  0  0  0
   -2.8346   -0.9319   -0.6566 H   0  0  0  0  0  0  0  0  0  0  0  0
   -2.7964   -1.1105    0.7927 H   0  0  0  0  0  0  0  0  0  0  0  0
   -0.1712   -0.7679    0.1434 C   0  0  0  0  0  0  0  0  0  0  0  0
   -1.5216    0.8122    0.5147 H   0  0  0  0  0  0  0  0  0  0  0  0
   -1.1253    0.9086   -1.1666 H   0  0  0  0  0  0  0  0  0  0  0  0
   -0.4519   -1.2183    0.9490 H   0  0  0  0  0  0  0  0  0  0  0  0
    0.7119   -0.2248    0.6509 H   0  0  0  0  0  0  0  0  0  0  0  0
    0.3848   -1.6677   -0.7957 H   0  0  0  0  0  0  0  0  0  0  0  0
  1  5  1  0  0  0  0
  2  1  1  0  0  0  0
  2  8  1  0  0  0  0
  3  1  1  0  0  0  0
  4  1  1  0  0  0  0
  6  2  1  0  0  0  0
  6  9  1  0  0  0  0
  6 10  1  0  0  0  0
  7  2  1  0  0  0  0
  9 13  1  0  0  0  0
  9 12  1  0  0  0  0
 11  6  1  0  0  0  0
 14  9  1  0  0  0  0
M  END
$$$$
