butane_opt
 OpenBabel08242015403D

 14 11  0  0  0  0  0  0  0  0999 V2000
   -3.8481    0.1821    0.1297 C   0  0  0  0  0  0  0  0  0  0  0  0
   -2.7218   -0.5134   -0.0193 C   0  0  0  0  0  0  0  0  0  0  0  0
   -4.7173   -0.4222    0.0492 H   0  0  0  0  0  0  0  0  0  0  0  0
   -3.6851    0.3451   -0.5165 H   0  0  0  0  0  0  0  0  0  0  0  0
   -3.8371    1.3618    1.2142 H   0  0  0  0  0  0  0  0  0  0  0  0
   -1.4694    0.2428   -0.2242 C   0  0  0  0  0  0  0  0  0  0  0  0
   -2.8880   -1.3747   -1.0581 H   0  0  0  0  0  0  0  0  0  0  0  0
   -2.7017   -1.2813    0.9828 H   0  0  0  0  0  0  0  0  0  0  0  0
   -0.1667   -0.7084    0.1548 C   0  0  0  0  0  0  0  0  0  0  0  0
   -1.7503    0.8128    0.6108 H   0  0  0  0  0  0  0  0  0  0  0  0
   -1.5244    0.9217   -1.1242 H   0  0  0  0  0  0  0  0  0  0  0  0
   -0.3937   -1.3626    1.0501 H   0  0  0  0  0  0  0  0  0  0  0  0
    0.6071   -0.4068    0.5093 H   0  0  0  0  0  0  0  0  0  0  0  0
    0.3387   -1.5066   -0.7148 H   0  0  0  0  0  0  0  0  0  0  0  0
  2  1  1  0  0  0  0
  2  8  1  0  0  0  0
  3  1  1  0  0  0  0
  4  1  1  0  0  0  0
  6  9  1  0  0  0  0
  6 10  1  0  0  0  0
  7  2  1  0  0  0  0
  9 13  1  0  0  0  0
  9 12  1  0  0  0  0
 11  6  1  0  0  0  0
 14  9  1  0  0  0  0
M  RAD  4   1   2   2   2   5   2   6   2
M  END
$$$$
