butane_opt
 OpenBabel08242015403D

 14 12  0  0  0  0  0  0  0  0999 V2000
   -3.9813    0.3113    0.1581 C   0  0  0  0  0  0  0  0  0  0  0  0
   -2.7058   -0.6429   -0.0767 C   0  0  0  0  0  0  0  0  0  0  0  0
   -4.9065   -0.2933    0.0166 H   0  0  0  0  0  0  0  0  0  0  0  0
   -4.0498    0.8731   -0.6936 H   0  0  0  0  0  0  0  0  0  0  0  0
   -3.7967    1.3099    1.1566 H   0  0  0  0  0  0  0  0  0  0  0  0
   -1.3552    0.0471   -0.1185 C   0  0  0  0  0  0  0  0  0  0  0  0
   -2.4418   -1.4170   -1.0164 H   0  0  0  0  0  0  0  0  0  0  0  0
   -2.6912   -1.1832    0.7540 H   0  0  0  0  0  0  0  0  0  0  0  0
   -0.2063   -0.6269    0.1546 C   0  0  0  0  0  0  0  0  0  0  0  0
   -1.3497    0.5139    0.4834 H   0  0  0  0  0  0  0  0  0  0  0  0
   -1.2180    1.1164   -1.2341 H   0  0  0  0  0  0  0  0  0  0  0  0
   -0.3511   -1.1932    1.0115 H   0  0  0  0  0  0  0  0  0  0  0  0
    0.7388    0.0480    0.3680 H   0  0  0  0  0  0  0  0  0  0  0  0
    0.0025   -1.3258   -0.7756 H   0  0  0  0  0  0  0  0  0  0  0  0
  1  5  1  0  0  0  0
  2  1  1  0  0  0  0
  2  8  1  0  0  0  0
  3  1  1  0  0  0  0
  4  1  1  0  0  0  0
  6  2  1  0  0  0  0
  6  9  1  0  0  0  0
  6 10  1  0  0  0  0
  7  2  1  0  0  0  0
  9 13  1  0  0  0  0
  9 12  1  0  0  0  0
 14  9  1  0  0  0  0
M  RAD  2   6   2  11   2
M  END
$$$$
