14
butane_opt
C  -3.964010   0.257942   0.051212
C  -2.704562  -0.610875   0.011148
H  -4.881331  -0.345723   0.073918
H  -3.963147   0.845857  -0.804906
H  -3.924581   0.977070   0.944220
C  -1.398730   0.195580  -0.045550
H  -2.794815  -1.274883  -0.826924
H  -2.640767  -1.206803   0.861059
C  -0.152263  -0.705715   0.069855
H  -1.382098   0.846826   0.801646
H  -1.322494   0.844489  -0.947884
H  -0.205844  -1.290365   0.951348
H   0.765279  -0.105656   0.149518
H  -0.037722  -1.412455  -0.807437
