14
butane_opt
C  -3.903019   0.238639   0.202548
C  -2.665943  -0.603398  -0.199524
H  -5.052271  -0.558120   0.181700
H  -4.162504   0.731927  -0.599228
H  -3.391216   0.993863   1.171729
C  -1.482446   0.215190  -0.193662
H  -2.859794  -1.193413  -0.945811
H  -2.516613  -1.113599   0.662710
C  -0.141788  -0.709177   0.246700
H  -1.484321   1.005565   0.661064
H  -1.313655   1.022331  -1.149506
H  -0.227229  -1.555455   1.283098
H   0.519784  -0.181757   0.066097
H  -0.178884  -1.399468  -0.571372
