butane_opt
 OpenBabel08242015403D

 14 12  0  0  0  0  0  0  0  0999 V2000
   -4.0025    0.3376   -0.0329 C   0  0  0  0  0  0  0  0  0  0  0  0
   -2.7494   -0.6547    0.1316 C   0  0  0  0  0  0  0  0  0  0  0  0
   -4.8678   -0.2925    0.1536 H   0  0  0  0  0  0  0  0  0  0  0  0
   -3.9715    1.2196   -1.0958 H   0  0  0  0  0  0  0  0  0  0  0  0
   -4.1093    0.7820    0.7699 H   0  0  0  0  0  0  0  0  0  0  0  0
   -1.3562    0.1096   -0.0365 C   0  0  0  0  0  0  0  0  0  0  0  0
   -2.4640   -1.3000   -0.6442 H   0  0  0  0  0  0  0  0  0  0  0  0
   -2.6651   -1.5338    1.2443 H   0  0  0  0  0  0  0  0  0  0  0  0
   -0.1321   -0.6244   -0.0118 C   0  0  0  0  0  0  0  0  0  0  0  0
   -1.1989    0.8762    1.0527 H   0  0  0  0  0  0  0  0  0  0  0  0
   -1.2750    0.4651   -0.7064 H   0  0  0  0  0  0  0  0  0  0  0  0
   -0.3043   -0.8425    0.6956 H   0  0  0  0  0  0  0  0  0  0  0  0
    0.8661   -0.0258    0.6155 H   0  0  0  0  0  0  0  0  0  0  0  0
   -0.1718   -1.8088   -1.3045 H   0  0  0  0  0  0  0  0  0  0  0  0
  1  2  1  0  0  0  0
  1  3  1  0  0  0  0
  1  5  1  0  0  0  0
  2  8  1  0  0  0  0
  4  1  1  0  0  0  0
  6  9  1  0  0  0  0
  6  2  1  0  0  0  0
  6 10  1  0  0  0  0
  7  2  1  0  0  0  0
  9 13  1  0  0  0  0
  9 12  1  0  0  0  0
 11  6  1  0  0  0  0
M  RAD  2   9   2  14   2
M  END
$$$$
