14
butane_opt
C  -3.971823   0.366803   0.158620
C  -2.733223  -0.729366  -0.230905
H  -4.889914  -0.195754   0.829168
H  -4.811512   1.165317  -0.825412
H  -3.530078   0.917096   1.115683
C  -1.331008   0.109658  -0.095389
H  -2.966089  -1.480666  -1.128782
H  -2.613247  -1.397427   0.638721
C  -0.119473  -0.648765   0.200977
H  -1.555540   0.847091   0.738078
H  -1.210197   0.767364  -1.228563
H  -0.370472  -1.317470   1.189281
H   0.822465   0.075469   0.211449
H  -0.061467  -0.981884  -0.511065
