14
butane_opt
C  -3.978095   0.249805   0.087419
C  -2.693676  -0.558374   0.053900
H  -5.074482  -0.697231  -0.798089
H  -3.637688   0.070558  -0.403467
H  -4.395545   1.558800   1.263098
C  -1.378251   0.218455  -0.092980
H  -2.743972  -1.195274  -0.806523
H  -2.666813  -1.341252   1.021170
C  -0.118574  -0.742990   0.043121
H  -1.644453   0.996058   0.593900
H  -1.334487   0.960802  -1.068395
H  -0.107431  -1.622830   1.134824
H   0.749432  -0.229544   0.017014
H  -0.075564  -1.038869  -0.500167
