14
butane_opt
C  -3.860053   0.191290  -0.155339
C  -2.651175  -0.555240   0.286965
H  -4.713661  -0.528255   0.329897
H  -3.836862   1.120980  -1.205734
H  -4.105299   0.476069   0.398146
C  -1.478533   0.233560   0.103617
H  -2.947451  -0.991531  -0.619868
H  -2.813903  -1.169311   1.173157
C  -0.172721  -0.752536  -0.106398
H  -1.357474   1.144139   1.077981
H  -1.755037   0.964046  -0.828818
H  -0.381865  -0.633745   0.212105
H   0.696239  -0.204680   0.728031
H   0.182669  -2.118819  -1.459268
