14
butane_opt
C  -3.938765   0.281144   0.119499
C  -2.671836  -0.717904  -0.094855
H  -4.634118  -0.078937  -0.208417
H  -3.768157   0.677057  -0.645861
H  -4.136692   1.473919   1.437573
C  -1.457978   0.185437  -0.061743
H  -2.778525  -1.420557  -0.925336
H  -2.601060  -1.142801   0.710233
C  -0.164138  -0.671831   0.167433
H  -1.354960   0.401175   0.554928
H  -1.322499   1.034387  -1.226896
H  -0.007102  -1.383728   1.122983
H   0.772048   0.048720  -0.286747
H  -0.432170  -0.955523  -0.570905
