14
butane_opt
C  -3.996243   0.334731  -0.073695
C  -2.691356  -0.649611   0.123510
H  -5.007223  -0.308180   0.460715
H  -4.343106   1.614328  -1.509650
H  -4.040728   0.266722   0.257940
C  -1.294584   0.081999   0.188979
H  -2.775237  -1.264379  -0.731721
H  -2.505730  -1.232100   0.880918
C  -0.196150  -0.617525  -0.088078
H  -1.163286   0.922454   1.145064
H  -1.400147   0.613798  -0.567281
H  -0.233401  -1.147147   0.677739
H   0.847188   0.004339   0.082880
H  -0.260041  -1.725417  -1.185984
