butane_opt
 OpenBabel08242015403D

 14 13  0  0  0  0  0  0  0  0999 V2000
   -3.9689    0.2990   -0.1182 C   0  0  0  0  0  0  0  0  0  0  0  0
   -2.6827   -0.6488    0.1310 C   0  0  0  0  0  0  0  0  0  0  0  0
   -4.6383   -0.1776   -0.0758 H   0  0  0  0  0  0  0  0  0  0  0  0
   -4.2069    0.9343   -1.0259 H   0  0  0  0  0  0  0  0  0  0  0  0
   -3.8151    1.0678    0.8987 H   0  0  0  0  0  0  0  0  0  0  0  0
   -1.3948    0.0986    0.1188 C   0  0  0  0  0  0  0  0  0  0  0  0
   -2.4444   -1.2297   -0.4905 H   0  0  0  0  0  0  0  0  0  0  0  0
   -2.6041   -1.4409    1.0641 H   0  0  0  0  0  0  0  0  0  0  0  0
   -0.1717   -0.6532   -0.0660 C   0  0  0  0  0  0  0  0  0  0  0  0
   -1.3181    0.8327    1.1122 H   0  0  0  0  0  0  0  0  0  0  0  0
   -1.5967    0.6053   -0.5607 H   0  0  0  0  0  0  0  0  0  0  0  0
   -0.2660   -1.1339    0.8300 H   0  0  0  0  0  0  0  0  0  0  0  0
    0.9403    0.0810   -0.2494 H   0  0  0  0  0  0  0  0  0  0  0  0
   -0.4776   -1.0911   -0.8703 H   0  0  0  0  0  0  0  0  0  0  0  0
  1  3  1  0  0  0  0
  1  2  1  0  0  0  0
  1  5  1  0  0  0  0
  2  8  1  0  0  0  0
  4  1  1  0  0  0  0
  6  2  1  0  0  0  0
  6 10  1  0  0  0  0
  7  2  1  0  0  0  0
  9  6  1  0  0  0  0
  9 12  1  0  0  0  0
 11  6  1  0  0  0  0
 13  9  1  0  0  0  0
 14  9  1  0  0  0  0
M  END
$$$$
