14
butane_opt
C  -3.927217   0.251644  -0.108023
C  -2.737765  -0.555101   0.181023
H  -5.158057  -0.675759   0.717464
H  -4.013276   1.751987  -1.597384
H  -3.954826   0.197497   0.234944
C  -1.414068   0.167882   0.173178
H  -2.899933  -1.354136  -0.764882
H  -2.774461  -0.991076   0.975193
C  -0.105174  -0.719133  -0.096172
H  -1.324339   1.149712   1.059331
H  -1.251140   0.567184  -0.584615
H   0.097665  -0.993240   0.428372
H   0.611094  -0.172241   0.317096
H  -0.090774  -1.748151  -1.253777
