butane_opt
 OpenBabel08242015403D

 14 13  0  0  0  0  0  0  0  0999 V2000
   -3.9071    0.2272    0.1811 C   0  0  0  0  0  0  0  0  0  0  0  0
   -2.6466   -0.5829   -0.1674 C   0  0  0  0  0  0  0  0  0  0  0  0
   -4.8181   -0.2669    0.5322 H   0  0  0  0  0  0  0  0  0  0  0  0
   -4.4008    0.6163   -0.3395 H   0  0  0  0  0  0  0  0  0  0  0  0
   -3.4488    0.9424    1.1534 H   0  0  0  0  0  0  0  0  0  0  0  0
   -1.4288    0.2226   -0.2363 C   0  0  0  0  0  0  0  0  0  0  0  0
   -2.5883   -1.3200   -1.0491 H   0  0  0  0  0  0  0  0  0  0  0  0
   -2.5354   -1.1935    0.6849 H   0  0  0  0  0  0  0  0  0  0  0  0
   -0.2626   -0.7014    0.2360 C   0  0  0  0  0  0  0  0  0  0  0  0
   -1.7327    0.6453    0.5555 H   0  0  0  0  0  0  0  0  0  0  0  0
   -1.1405    0.9444   -1.2579 H   0  0  0  0  0  0  0  0  0  0  0  0
   -0.5140   -1.2150    1.0286 H   0  0  0  0  0  0  0  0  0  0  0  0
    0.6078   -0.0801    0.4899 H   0  0  0  0  0  0  0  0  0  0  0  0
    0.4728   -1.5273   -0.5548 H   0  0  0  0  0  0  0  0  0  0  0  0
  1  3  1  0  0  0  0
  1  5  1  0  0  0  0
  2  1  1  0  0  0  0
  2  8  1  0  0  0  0
  4  1  1  0  0  0  0
  6  2  1  0  0  0  0
  6  9  1  0  0  0  0
  6 10  1  0  0  0  0
  7  2  1  0  0  0  0
  9 13  1  0  0  0  0
  9 12  1  0  0  0  0
 11  6  1  0  0  0  0
 14  9  1  0  0  0  0
M  END
$$$$
