butane_opt
 OpenBabel08242015403D

 14 13  0  0  0  0  0  0  0  0999 V2000
   -3.9678    0.2477    0.1118 C   0  0  0  0  0  0  0  0  0  0  0  0
   -2.7159   -0.6050   -0.0378 C   0  0  0  0  0  0  0  0  0  0  0  0
   -4.8149   -0.2689   -0.2275 H   0  0  0  0  0  0  0  0  0  0  0  0
   -4.1752    0.5280   -0.6210 H   0  0  0  0  0  0  0  0  0  0  0  0
   -3.9855    1.1244    0.9875 H   0  0  0  0  0  0  0  0  0  0  0  0
   -1.3682    0.2353   -0.1147 C   0  0  0  0  0  0  0  0  0  0  0  0
   -3.0750   -1.0421   -0.7363 H   0  0  0  0  0  0  0  0  0  0  0  0
   -2.7007   -1.4462    1.1306 H   0  0  0  0  0  0  0  0  0  0  0  0
   -0.1542   -0.7220    0.1088 C   0  0  0  0  0  0  0  0  0  0  0  0
   -1.3656    0.8529    0.6969 H   0  0  0  0  0  0  0  0  0  0  0  0
   -1.1437    0.9360   -1.1141 H   0  0  0  0  0  0  0  0  0  0  0  0
   -0.1893   -1.2454    0.8762 H   0  0  0  0  0  0  0  0  0  0  0  0
    0.6204   -0.1290    0.4330 H   0  0  0  0  0  0  0  0  0  0  0  0
    0.2845   -1.6850   -0.8393 H   0  0  0  0  0  0  0  0  0  0  0  0
  1  5  1  0  0  0  0
  2  1  1  0  0  0  0
  2  8  1  0  0  0  0
  3  1  1  0  0  0  0
  4  1  1  0  0  0  0
  6  2  1  0  0  0  0
  6  9  1  0  0  0  0
  6 10  1  0  0  0  0
  7  2  1  0  0  0  0
  9 13  1  0  0  0  0
  9 12  1  0  0  0  0
 11  6  1  0  0  0  0
 14  9  1  0  0  0  0
M  END
$$$$
