butane_opt
 OpenBabel08242015403D

 14 11  0  0  0  0  0  0  0  0999 V2000
   -3.9894    0.3384   -0.0880 C   0  0  0  0  0  0  0  0  0  0  0  0
   -2.6711   -0.7270    0.0876 C   0  0  0  0  0  0  0  0  0  0  0  0
   -4.7773   -0.0691    0.5477 H   0  0  0  0  0  0  0  0  0  0  0  0
   -4.0881    1.4086   -1.3152 H   0  0  0  0  0  0  0  0  0  0  0  0
   -4.0055    0.5177    0.3600 H   0  0  0  0  0  0  0  0  0  0  0  0
   -1.3497    0.1287    0.2230 C   0  0  0  0  0  0  0  0  0  0  0  0
   -2.3604   -1.5141   -0.7713 H   0  0  0  0  0  0  0  0  0  0  0  0
   -2.8351   -1.3806    0.9213 H   0  0  0  0  0  0  0  0  0  0  0  0
   -0.1998   -0.6242   -0.0738 C   0  0  0  0  0  0  0  0  0  0  0  0
   -1.0828    0.8879    1.2189 H   0  0  0  0  0  0  0  0  0  0  0  0
   -1.4416    0.9305   -0.7536 H   0  0  0  0  0  0  0  0  0  0  0  0
   -0.0374   -1.1740    0.7592 H   0  0  0  0  0  0  0  0  0  0  0  0
    0.6825   -0.1276   -0.1572 H   0  0  0  0  0  0  0  0  0  0  0  0
   -0.5843   -1.3196   -1.1523 H   0  0  0  0  0  0  0  0  0  0  0  0
  1  2  1  0  0  0  0
  1  3  1  0  0  0  0
  2  6  1  0  0  0  0
  2  8  1  0  0  0  0
  6 10  1  0  0  0  0
  7  2  1  0  0  0  0
  9  6  1  0  0  0  0
  9 12  1  0  0  0  0
 11  6  1  0  0  0  0
 13  9  1  0  0  0  0
 14  9  1  0  0  0  0
M  RAD  3   1   3   4   2   5   2
M  END
$$$$
