butane_opt
 OpenBabel08242015403D

 14 12  0  0  0  0  0  0  0  0999 V2000
   -3.9740    0.3233   -0.0957 C   0  0  0  0  0  0  0  0  0  0  0  0
   -2.7145   -0.7099    0.1334 C   0  0  0  0  0  0  0  0  0  0  0  0
   -4.6995   -0.2107   -0.3626 H   0  0  0  0  0  0  0  0  0  0  0  0
   -4.3448    0.7664   -0.7625 H   0  0  0  0  0  0  0  0  0  0  0  0
   -4.3874    1.3862    1.1347 H   0  0  0  0  0  0  0  0  0  0  0  0
   -1.3196    0.1441    0.0734 C   0  0  0  0  0  0  0  0  0  0  0  0
   -2.5180   -1.1481   -0.6302 H   0  0  0  0  0  0  0  0  0  0  0  0
   -2.8982   -1.6491    1.2380 H   0  0  0  0  0  0  0  0  0  0  0  0
   -0.1771   -0.6485   -0.0189 C   0  0  0  0  0  0  0  0  0  0  0  0
   -0.9971    0.8652    1.0381 H   0  0  0  0  0  0  0  0  0  0  0  0
   -1.3658    0.7654   -0.8707 H   0  0  0  0  0  0  0  0  0  0  0  0
   -0.1175   -1.1575    0.8166 H   0  0  0  0  0  0  0  0  0  0  0  0
    0.7560   -0.0747   -0.2883 H   0  0  0  0  0  0  0  0  0  0  0  0
   -0.2038   -1.3118   -0.9561 H   0  0  0  0  0  0  0  0  0  0  0  0
  1  2  1  0  0  0  0
  2  8  1  0  0  0  0
  3  1  1  0  0  0  0
  4  1  1  0  0  0  0
  6  2  1  0  0  0  0
  6 10  1  0  0  0  0
  7  2  1  0  0  0  0
  9  6  1  0  0  0  0
  9 12  1  0  0  0  0
 11  6  1  0  0  0  0
 13  9  1  0  0  0  0
 14  9  1  0  0  0  0
M  RAD  2   1   2   5   2
M  END
$$$$
