14
butane_opt
C  -3.940246   0.261785   0.097763
C  -2.700740  -0.545089  -0.015044
H  -5.052006  -0.618115   0.046004
H  -3.695617   0.725414  -0.609310
H  -3.822910   0.971153   0.963267
C  -1.377502   0.211094  -0.096534
H  -2.799937  -1.258585  -0.867969
H  -2.765404  -1.344500   0.857970
C  -0.218139  -0.734512   0.123851
H  -1.499988   0.591426   0.585191
H  -1.384203   1.248291  -1.233999
H  -0.118675  -1.086090   0.826231
H   0.917945  -0.057184   0.530265
H   0.004375  -1.964057  -0.981584
