butane_opt
 OpenBabel08242015403D

 14 11  0  0  0  0  0  0  0  0999 V2000
   -4.0072    0.3485    0.0810 C   0  0  0  0  0  0  0  0  0  0  0  0
   -2.6954   -0.7384    0.0202 C   0  0  0  0  0  0  0  0  0  0  0  0
   -4.8913   -0.2207   -0.4506 H   0  0  0  0  0  0  0  0  0  0  0  0
   -4.0658    0.3148   -0.3385 H   0  0  0  0  0  0  0  0  0  0  0  0
   -4.3043    1.5632    1.3076 H   0  0  0  0  0  0  0  0  0  0  0  0
   -1.3870    0.1384   -0.1242 C   0  0  0  0  0  0  0  0  0  0  0  0
   -2.5599   -1.4573   -0.7507 H   0  0  0  0  0  0  0  0  0  0  0  0
   -2.4842   -1.4508    0.8875 H   0  0  0  0  0  0  0  0  0  0  0  0
   -0.1625   -0.6153    0.0797 C   0  0  0  0  0  0  0  0  0  0  0  0
   -1.2833    0.9124    0.7361 H   0  0  0  0  0  0  0  0  0  0  0  0
   -1.1622    0.9181   -1.2473 H   0  0  0  0  0  0  0  0  0  0  0  0
   -0.4435   -1.4374    1.1948 H   0  0  0  0  0  0  0  0  0  0  0  0
    0.8541   -0.1620    0.1190 H   0  0  0  0  0  0  0  0  0  0  0  0
    0.3091   -1.0514   -0.6313 H   0  0  0  0  0  0  0  0  0  0  0  0
  2  1  1  0  0  0  0
  2  8  1  0  0  0  0
  3  1  1  0  0  0  0
  6  2  1  0  0  0  0
  6  9  1  0  0  0  0
  6 10  1  0  0  0  0
  7  2  1  0  0  0  0
  9 13  1  0  0  0  0
  9 12  1  0  0  0  0
 11  6  1  0  0  0  0
 14  9  1  0  0  0  0
M  RAD  3   1   3   4   2   5   2
M  END
$$$$
