butane_opt
 OpenBabel08242015403D

 14 13  0  0  0  0  0  0  0  0999 V2000
   -3.9102    0.2261    0.1111 C   0  0  0  0  0  0  0  0  0  0  0  0
   -2.6994   -0.5627    0.0063 C   0  0  0  0  0  0  0  0  0  0  0  0
   -4.8167   -0.4207    0.1678 H   0  0  0  0  0  0  0  0  0  0  0  0
   -3.7590    0.7637   -0.8304 H   0  0  0  0  0  0  0  0  0  0  0  0
   -3.6657    0.8759    0.9417 H   0  0  0  0  0  0  0  0  0  0  0  0
   -1.4285    0.2384   -0.1659 C   0  0  0  0  0  0  0  0  0  0  0  0
   -2.8612   -1.3442   -0.9811 H   0  0  0  0  0  0  0  0  0  0  0  0
   -2.4547   -1.2088    0.9252 H   0  0  0  0  0  0  0  0  0  0  0  0
   -0.1777   -0.7281    0.1267 C   0  0  0  0  0  0  0  0  0  0  0  0
   -1.8631    0.8574    0.6583 H   0  0  0  0  0  0  0  0  0  0  0  0
   -1.3695    0.7243   -0.8763 H   0  0  0  0  0  0  0  0  0  0  0  0
   -0.5013   -1.0453    0.9180 H   0  0  0  0  0  0  0  0  0  0  0  0
    0.5915   -0.2204    0.4293 H   0  0  0  0  0  0  0  0  0  0  0  0
    0.2664   -1.5513   -0.9221 H   0  0  0  0  0  0  0  0  0  0  0  0
  1  3  1  0  0  0  0
  1  5  1  0  0  0  0
  2  1  1  0  0  0  0
  2  8  1  0  0  0  0
  4  1  1  0  0  0  0
  6  2  1  0  0  0  0
  6  9  1  0  0  0  0
  6 10  1  0  0  0  0
  7  2  1  0  0  0  0
  9 13  1  0  0  0  0
  9 12  1  0  0  0  0
 11  6  1  0  0  0  0
 14  9  1  0  0  0  0
M  END
$$$$
