14
butane_opt
C  -3.983056   0.318460   0.164807
C  -2.599644  -0.658959  -0.180478
H  -4.936337  -0.371252  -0.145133
H  -3.992736   0.656781  -0.497346
H  -3.804660   1.386831   1.413405
C  -1.368992   0.092404  -0.100309
H  -2.443902  -1.563619  -1.145323
H  -2.547157  -1.228162   0.830304
C  -0.242249  -0.621810   0.148806
H  -1.623038   0.831975   0.737556
H  -1.331975   0.728343  -0.963613
H  -0.176779  -2.065568   1.576771
H   0.706578   0.136147  -0.468472
H  -0.551185  -0.518618  -0.174931
