butane_opt
 OpenBabel08242015403D

 14  8  0  0  0  0  0  0  0  0999 V2000
   -3.8901    0.2372   -0.1194 C   0  0  0  0  0  1  0  0  0  0  0  0
   -2.7297   -0.5376    0.1402 C   0  0  0  0  0  0  0  0  0  0  0  0
   -5.0018   -0.4891    0.4371 H   0  0  0  0  0  0  0  0  0  0  0  0
   -4.0644    1.4413   -1.4142 H   0  0  0  0  0  0  0  0  0  0  0  0
   -3.4806    0.1403    0.4158 H   0  0  0  0  0  0  0  0  0  0  0  0
   -1.4102    0.2232    0.1752 C   0  0  0  0  0  0  0  0  0  0  0  0
   -2.4962   -1.2944   -0.7926 H   0  0  0  0  0  0  0  0  0  0  0  0
   -2.6664   -1.3429    1.2355 H   0  0  0  0  0  0  0  0  0  0  0  0
   -0.1671   -0.7463   -0.0564 C   0  0  0  0  0  0  0  0  0  0  0  0
   -1.3489    0.9705    1.1692 H   0  0  0  0  0  0  0  0  0  0  0  0
   -1.4625    0.8712   -0.6231 H   0  0  0  0  0  0  0  0  0  0  0  0
   -0.0624   -0.8241    0.4650 H   0  0  0  0  0  0  0  0  0  0  0  0
    0.4934   -0.2624    0.0527 H   0  0  0  0  0  0  0  0  0  0  0  0
   -0.4964   -1.8470   -1.3220 H   0  0  0  0  0  0  0  0  0  0  0  0
  1  5  1  0  0  0  0
  2  6  1  0  0  0  0
  2  8  1  0  0  0  0
  6 10  1  0  0  0  0
  7  2  1  0  0  0  0
  9 13  1  0  0  0  0
  9  6  1  0  0  0  0
 11  6  1  0  0  0  0
M  RAD  6   2   2   3   2   4   2   9   3  12   2  14   2
M  END
$$$$
