butane_opt
 OpenBabel08242015403D

 14 11  0  0  0  0  0  0  0  0999 V2000
   -3.8880    0.1897   -0.0647 C   0  0  0  0  0  0  0  0  0  0  0  0
   -2.6369   -0.5499    0.0656 C   0  0  0  0  0  0  0  0  0  0  0  0
   -4.9246   -0.5141    0.6761 H   0  0  0  0  0  0  0  0  0  0  0  0
   -4.0437    1.2611   -1.3894 H   0  0  0  0  0  0  0  0  0  0  0  0
   -3.7943    0.4257    0.4846 H   0  0  0  0  0  0  0  0  0  0  0  0
   -1.4497    0.2736    0.1191 C   0  0  0  0  0  0  0  0  0  0  0  0
   -2.8034   -0.9568   -0.6994 H   0  0  0  0  0  0  0  0  0  0  0  0
   -2.5431   -1.4054    1.0575 H   0  0  0  0  0  0  0  0  0  0  0  0
   -0.1979   -0.7074   -0.0548 C   0  0  0  0  0  0  0  0  0  0  0  0
   -1.4000    1.0897    1.0824 H   0  0  0  0  0  0  0  0  0  0  0  0
   -1.5313    0.4494   -0.5162 H   0  0  0  0  0  0  0  0  0  0  0  0
   -0.1743   -1.1747    0.7294 H   0  0  0  0  0  0  0  0  0  0  0  0
    0.4561   -0.4545    0.2228 H   0  0  0  0  0  0  0  0  0  0  0  0
   -0.1204   -1.6897   -1.0570 H   0  0  0  0  0  0  0  0  0  0  0  0
  1  2  1  0  0  0  0
  1  3  1  0  0  0  0
  2  6  1  0  0  0  0
  2  8  1  0  0  0  0
  6 10  1  0  0  0  0
  7  2  1  0  0  0  0
  9  6  1  0  0  0  0
  9 13  1  0  0  0  0
  9 12  1  0  0  0  0
 11  6  1  0  0  0  0
 14  9  1  0  0  0  0
M  RAD  3   1   3   4   2   5   2
M  END
$$$$
