butane_opt
 OpenBabel08242015403D

 14  9  0  0  0  0  0  0  0  0999 V2000
   -4.0180    0.3037   -0.1299 C   0  0  0  0  0  0  0  0  0  0  0  0
   -2.6865   -0.7124    0.2532 C   0  0  0  0  0  0  0  0  0  0  0  0
   -4.5711   -0.0807    0.0716 H   0  0  0  0  0  0  0  0  0  0  0  0
   -3.8181    1.2841   -1.2647 H   0  0  0  0  0  0  0  0  0  0  0  0
   -4.4993    0.8450    0.6346 H   0  0  0  0  0  0  0  0  0  0  0  0
   -1.3695    0.1778    0.1158 C   0  0  0  0  0  0  0  0  0  0  0  0
   -2.3676   -1.4783   -0.4604 H   0  0  0  0  0  0  0  0  0  0  0  0
   -2.8648   -1.5731    1.4134 H   0  0  0  0  0  0  0  0  0  0  0  0
   -0.1532   -0.6317   -0.1531 C   0  0  0  0  0  1  0  0  0  0  0  0
   -1.1146    0.8652    1.0421 H   0  0  0  0  0  0  0  0  0  0  0  0
   -1.5451    0.7273   -0.7463 H   0  0  0  0  0  0  0  0  0  0  0  0
   -0.5312   -0.7836    0.4006 H   0  0  0  0  0  0  0  0  0  0  0  0
    0.8781    0.1131    0.6800 H   0  0  0  0  0  0  0  0  0  0  0  0
    0.0998   -1.9738   -1.4059 H   0  0  0  0  0  0  0  0  0  0  0  0
  1  3  1  0  0  0  0
  1  2  1  0  0  0  0
  1  5  1  0  0  0  0
  2  8  1  0  0  0  0
  4  1  1  0  0  0  0
  6 10  1  0  0  0  0
  7  2  1  0  0  0  0
  9 12  1  0  0  0  0
 11  6  1  0  0  0  0
M  RAD  4   2   2   6   3  13   2  14   2
M  END
$$$$
