14
butane_opt
C  -4.017971   0.303659  -0.129879
C  -2.686546  -0.712440   0.253175
H  -4.571073  -0.080700   0.071558
H  -3.818147   1.284143  -1.264669
H  -4.499313   0.845046   0.634588
C  -1.369460   0.177819   0.115752
H  -2.367645  -1.478266  -0.460417
H  -2.864779  -1.573125   1.413417
C  -0.153206  -0.631739  -0.153057
H  -1.114641   0.865230   1.042068
H  -1.545085   0.727316  -0.746309
H  -0.531193  -0.783593   0.400564
H   0.878053   0.113105   0.680027
H   0.099809  -1.973761  -1.405907
