14
butane_opt
C  -3.954400   0.225030  -0.103741
C  -2.658956  -0.527237   0.093551
H  -4.968446  -0.446825   0.068507
H  -3.726458   0.911799  -1.130318
H  -3.736297   0.735884   0.660467
C  -1.422386   0.185408   0.219172
H  -2.528519  -1.137290  -0.640812
H  -2.918012  -1.422831   1.132331
C  -0.182602  -0.710807  -0.079562
H  -1.198262   1.031811   1.088962
H  -1.797082   0.817882  -0.681750
H  -0.011590  -1.519699   1.050582
H   0.732857  -0.056160  -0.509573
H  -0.275401  -1.462746  -1.138755
