butane_opt
 OpenBabel08242015403D

 14 12  0  0  0  0  0  0  0  0999 V2000
   -4.0151    0.3010   -0.1152 C   0  0  0  0  0  0  0  0  0  0  0  0
   -2.6853   -0.6807    0.1171 C   0  0  0  0  0  0  0  0  0  0  0  0
   -4.8653   -0.2713    0.3945 H   0  0  0  0  0  0  0  0  0  0  0  0
   -4.4464    1.4864   -1.2842 H   0  0  0  0  0  0  0  0  0  0  0  0
   -3.8870    0.5502    0.6007 H   0  0  0  0  0  0  0  0  0  0  0  0
   -1.3745    0.1726    0.1907 C   0  0  0  0  0  0  0  0  0  0  0  0
   -2.3720   -1.2186   -0.6360 H   0  0  0  0  0  0  0  0  0  0  0  0
   -2.7459   -1.5151    1.1439 H   0  0  0  0  0  0  0  0  0  0  0  0
   -0.1582   -0.6769   -0.1035 C   0  0  0  0  0  0  0  0  0  0  0  0
   -1.3792    0.8936    0.9671 H   0  0  0  0  0  0  0  0  0  0  0  0
   -1.3178    0.6382   -0.4760 H   0  0  0  0  0  0  0  0  0  0  0  0
   -0.2032   -0.9682    0.5877 H   0  0  0  0  0  0  0  0  0  0  0  0
    1.0980    0.0864    0.0991 H   0  0  0  0  0  0  0  0  0  0  0  0
   -0.1046   -1.4957   -1.1225 H   0  0  0  0  0  0  0  0  0  0  0  0
  1  2  1  0  0  0  0
  1  3  1  0  0  0  0
  1  5  1  0  0  0  0
  2  6  1  0  0  0  0
  2  8  1  0  0  0  0
  6 10  1  0  0  0  0
  7  2  1  0  0  0  0
  9 13  1  0  0  0  0
  9  6  1  0  0  0  0
  9 12  1  0  0  0  0
 11  6  1  0  0  0  0
 14  9  1  0  0  0  0
M  RAD  2   1   2   4   2
M  END
$$$$
