butane_opt
 OpenBabel08242015403D

 14 13  0  0  0  0  0  0  0  0999 V2000
   -3.8471    0.2486   -0.1310 C   0  0  0  0  0  0  0  0  0  0  0  0
   -2.7441   -0.5664    0.2044 C   0  0  0  0  0  0  0  0  0  0  0  0
   -4.8342   -0.4303   -0.5025 H   0  0  0  0  0  0  0  0  0  0  0  0
   -3.5554    0.7070   -1.0850 H   0  0  0  0  0  0  0  0  0  0  0  0
   -4.0592    1.0201    0.8451 H   0  0  0  0  0  0  0  0  0  0  0  0
   -1.4308    0.1837    0.1815 C   0  0  0  0  0  0  0  0  0  0  0  0
   -2.7137   -1.1092   -0.3969 H   0  0  0  0  0  0  0  0  0  0  0  0
   -2.9335   -1.1341    1.0542 H   0  0  0  0  0  0  0  0  0  0  0  0
   -0.1969   -0.7262   -0.0477 C   0  0  0  0  0  0  0  0  0  0  0  0
   -1.4624    0.8387    0.9736 H   0  0  0  0  0  0  0  0  0  0  0  0
   -1.6361    0.8277   -0.7419 H   0  0  0  0  0  0  0  0  0  0  0  0
    0.3464   -1.3152    0.6325 H   0  0  0  0  0  0  0  0  0  0  0  0
    0.8948   -0.0171   -0.7165 H   0  0  0  0  0  0  0  0  0  0  0  0
   -0.4863   -1.5078   -1.1162 H   0  0  0  0  0  0  0  0  0  0  0  0
  1  2  1  0  0  0  0
  1  5  1  0  0  0  0
  2  8  1  0  0  0  0
  3  1  1  0  0  0  0
  4  1  1  0  0  0  0
  6  2  1  0  0  0  0
  6 10  1  0  0  0  0
  7  2  1  0  0  0  0
  9  6  1  0  0  0  0
  9 12  1  0  0  0  0
 11  6  1  0  0  0  0
 13  9  1  0  0  0  0
 14  9  1  0  0  0  0
M  END
$$$$
