butane_opt
 OpenBabel08242015403D

 14 13  0  0  0  0  0  0  0  0999 V2000
   -3.9272    0.2568    0.1731 C   0  0  0  0  0  0  0  0  0  0  0  0
   -2.7490   -0.6196   -0.1425 C   0  0  0  0  0  0  0  0  0  0  0  0
   -4.8383   -0.4231    0.4263 H   0  0  0  0  0  0  0  0  0  0  0  0
   -4.1720    0.7461   -0.5932 H   0  0  0  0  0  0  0  0  0  0  0  0
   -3.6238    1.0374    1.1931 H   0  0  0  0  0  0  0  0  0  0  0  0
   -1.4090    0.2677   -0.1641 C   0  0  0  0  0  0  0  0  0  0  0  0
   -3.0556   -1.5229   -1.0453 H   0  0  0  0  0  0  0  0  0  0  0  0
   -2.8567   -1.0793    0.5296 H   0  0  0  0  0  0  0  0  0  0  0  0
   -0.1109   -0.7568    0.2302 C   0  0  0  0  0  0  0  0  0  0  0  0
   -1.5937    0.5946    0.3511 H   0  0  0  0  0  0  0  0  0  0  0  0
   -1.4044    1.1895   -1.3514 H   0  0  0  0  0  0  0  0  0  0  0  0
   -0.2022   -1.0599    0.9572 H   0  0  0  0  0  0  0  0  0  0  0  0
    0.7440   -0.1901    0.2792 H   0  0  0  0  0  0  0  0  0  0  0  0
    0.3102   -1.5111   -0.4723 H   0  0  0  0  0  0  0  0  0  0  0  0
  1  3  1  0  0  0  0
  1  5  1  0  0  0  0
  2  1  1  0  0  0  0
  2  8  1  0  0  0  0
  4  1  1  0  0  0  0
  6  2  1  0  0  0  0
  6  9  1  0  0  0  0
  6 10  1  0  0  0  0
  7  2  1  0  0  0  0
  9 13  1  0  0  0  0
  9 12  1  0  0  0  0
 11  6  1  0  0  0  0
 14  9  1  0  0  0  0
M  END
$$$$
