butane_opt
 OpenBabel08242015403D

 14 13  0  0  0  0  0  0  0  0999 V2000
   -3.8821    0.2134   -0.1551 C   0  0  0  0  0  0  0  0  0  0  0  0
   -2.7254   -0.4828    0.3198 C   0  0  0  0  0  0  0  0  0  0  0  0
   -4.9857   -0.5777   -0.7040 H   0  0  0  0  0  0  0  0  0  0  0  0
   -3.2011    0.4056   -0.8387 H   0  0  0  0  0  0  0  0  0  0  0  0
   -4.2828    1.1040    0.8729 H   0  0  0  0  0  0  0  0  0  0  0  0
   -1.4681    0.1986    0.1517 C   0  0  0  0  0  0  0  0  0  0  0  0
   -2.6136   -1.3093   -0.5662 H   0  0  0  0  0  0  0  0  0  0  0  0
   -2.9284   -1.1124    1.1806 H   0  0  0  0  0  0  0  0  0  0  0  0
   -0.1933   -0.7518   -0.1536 C   0  0  0  0  0  0  0  0  0  0  0  0
   -1.2194    0.9761    1.0229 H   0  0  0  0  0  0  0  0  0  0  0  0
   -1.5477    0.9310   -0.9383 H   0  0  0  0  0  0  0  0  0  0  0  0
    0.1164   -1.4113    0.7233 H   0  0  0  0  0  0  0  0  0  0  0  0
    0.8441   -0.2488   -0.1643 H   0  0  0  0  0  0  0  0  0  0  0  0
    0.0078   -1.3766   -1.0342 H   0  0  0  0  0  0  0  0  0  0  0  0
  1  2  1  0  0  0  0
  1  5  1  0  0  0  0
  2  8  1  0  0  0  0
  3  1  1  0  0  0  0
  4  1  1  0  0  0  0
  6  2  1  0  0  0  0
  6 10  1  0  0  0  0
  7  2  1  0  0  0  0
  9  6  1  0  0  0  0
  9 12  1  0  0  0  0
 11  6  1  0  0  0  0
 13  9  1  0  0  0  0
 14  9  1  0  0  0  0
M  END
$$$$
