butane_opt
 OpenBabel08242015403D

 14  9  0  0  0  0  0  0  0  0999 V2000
   -4.0031    0.2784    0.1088 C   0  0  0  0  0  0  0  0  0  0  0  0
   -2.6755   -0.6588   -0.1119 C   0  0  0  0  0  0  0  0  0  0  0  0
   -4.7555   -0.2472   -0.3002 H   0  0  0  0  0  0  0  0  0  0  0  0
   -4.2773    0.5024   -0.4409 H   0  0  0  0  0  0  0  0  0  0  0  0
   -3.9234    1.4761    1.2282 H   0  0  0  0  0  0  0  0  0  0  0  0
   -1.3788    0.1970   -0.0649 C   0  0  0  0  0  0  0  0  0  0  0  0
   -2.7844   -1.3318   -0.8951 H   0  0  0  0  0  0  0  0  0  0  0  0
   -2.5461   -1.1672    0.7577 H   0  0  0  0  0  0  0  0  0  0  0  0
   -0.1697   -0.6411    0.1474 C   0  0  0  0  0  0  0  0  0  0  0  0
   -1.3976    0.7070    0.7404 H   0  0  0  0  0  0  0  0  0  0  0  0
   -0.8826    0.5893   -0.9423 H   0  0  0  0  0  0  0  0  0  0  0  0
    0.0734   -2.0676    1.5239 H   0  0  0  0  0  0  0  0  0  0  0  0
    0.6920   -0.2066   -0.6712 H   0  0  0  0  0  0  0  0  0  0  0  0
   -0.4897   -0.8108   -0.4504 H   0  0  0  0  0  0  0  0  0  0  0  0
  2  1  1  0  0  0  0
  2  8  1  0  0  0  0
  3  1  1  0  0  0  0
  4  1  1  0  0  0  0
  6 10  1  0  0  0  0
  7  2  1  0  0  0  0
 11  6  1  0  0  0  0
 13  9  1  0  0  0  0
 14  9  1  0  0  0  0
M  RAD  6   1   2   2   2   5   2   6   3   9   3  12   2
M  END
$$$$
