14
butane_opt
C  -3.948120   0.343823  -0.111074
C  -2.675976  -0.744213   0.241303
H  -4.764768  -0.048071   0.066329
H  -3.936988   1.218556  -1.045042
H  -4.143723   0.674014   0.526150
C  -1.390432   0.124253   0.067535
H  -2.705917  -1.146720  -0.444884
H  -2.974330  -1.445170   1.214768
C  -0.179241  -0.658890  -0.077397
H  -1.486131   0.839625   0.893571
H  -1.262422   0.931022  -0.840012
H  -0.249459  -0.299889   0.188464
H   0.913612   0.067614   0.773622
H  -0.143902  -2.047098  -1.451171
