butane_opt
 OpenBabel08242015403D

 14 13  0  0  0  0  0  0  0  0999 V2000
   -3.9590    0.2610   -0.0188 C   0  0  0  0  0  0  0  0  0  0  0  0
   -2.7148   -0.6059    0.0820 C   0  0  0  0  0  0  0  0  0  0  0  0
   -4.8772   -0.3669   -0.0662 H   0  0  0  0  0  0  0  0  0  0  0  0
   -3.8968    0.8044   -0.8664 H   0  0  0  0  0  0  0  0  0  0  0  0
   -3.9392    0.9671    0.8816 H   0  0  0  0  0  0  0  0  0  0  0  0
   -1.4006    0.1960    0.0331 C   0  0  0  0  0  0  0  0  0  0  0  0
   -2.7003   -1.2204   -0.7352 H   0  0  0  0  0  0  0  0  0  0  0  0
   -2.7795   -1.2964    1.0024 H   0  0  0  0  0  0  0  0  0  0  0  0
   -0.1423   -0.7057    0.0038 C   0  0  0  0  0  0  0  0  0  0  0  0
   -1.3876    0.9183    0.9292 H   0  0  0  0  0  0  0  0  0  0  0  0
   -1.3846    0.8177   -0.8708 H   0  0  0  0  0  0  0  0  0  0  0  0
   -0.0765   -1.3056    0.8573 H   0  0  0  0  0  0  0  0  0  0  0  0
    0.7420   -0.1357   -0.0127 H   0  0  0  0  0  0  0  0  0  0  0  0
   -0.1286   -1.4029   -0.8785 H   0  0  0  0  0  0  0  0  0  0  0  0
  1  2  1  0  0  0  0
  1  5  1  0  0  0  0
  2  8  1  0  0  0  0
  3  1  1  0  0  0  0
  4  1  1  0  0  0  0
  6  2  1  0  0  0  0
  6 10  1  0  0  0  0
  7  2  1  0  0  0  0
  9  6  1  0  0  0  0
  9 12  1  0  0  0  0
 11  6  1  0  0  0  0
 13  9  1  0  0  0  0
 14  9  1  0  0  0  0
M  END
$$$$
