butane_opt
 OpenBabel08242015403D

 14 13  0  0  0  0  0  0  0  0999 V2000
   -3.9229    0.2592    0.0360 C   0  0  0  0  0  0  0  0  0  0  0  0
   -2.7013   -0.6042    0.0305 C   0  0  0  0  0  0  0  0  0  0  0  0
   -4.8793   -0.3621   -0.1014 H   0  0  0  0  0  0  0  0  0  0  0  0
   -3.9310    0.6961   -0.7447 H   0  0  0  0  0  0  0  0  0  0  0  0
   -3.9693    1.0337    0.9892 H   0  0  0  0  0  0  0  0  0  0  0  0
   -1.4139    0.1969   -0.0221 C   0  0  0  0  0  0  0  0  0  0  0  0
   -2.6894   -1.3078   -0.8293 H   0  0  0  0  0  0  0  0  0  0  0  0
   -2.7341   -1.2185    0.8998 H   0  0  0  0  0  0  0  0  0  0  0  0
   -0.1677   -0.6973    0.0564 C   0  0  0  0  0  0  0  0  0  0  0  0
   -1.4285    0.8006    0.7853 H   0  0  0  0  0  0  0  0  0  0  0  0
   -1.4054    0.8800   -0.9405 H   0  0  0  0  0  0  0  0  0  0  0  0
   -0.0768   -1.3887    0.9933 H   0  0  0  0  0  0  0  0  0  0  0  0
    0.6964   -0.1381   -0.0043 H   0  0  0  0  0  0  0  0  0  0  0  0
   -0.1352   -1.3324   -0.7924 H   0  0  0  0  0  0  0  0  0  0  0  0
  1  5  1  0  0  0  0
  2  1  1  0  0  0  0
  2  8  1  0  0  0  0
  3  1  1  0  0  0  0
  4  1  1  0  0  0  0
  6  2  1  0  0  0  0
  6  9  1  0  0  0  0
  6 10  1  0  0  0  0
  7  2  1  0  0  0  0
  9 12  1  0  0  0  0
 11  6  1  0  0  0  0
 13  9  1  0  0  0  0
 14  9  1  0  0  0  0
M  END
$$$$
