butane_opt
 OpenBabel08242015403D

 14 13  0  0  0  0  0  0  0  0999 V2000
   -3.9592    0.2740   -0.0005 C   0  0  0  0  0  0  0  0  0  0  0  0
   -2.7018   -0.6190    0.0515 C   0  0  0  0  0  0  0  0  0  0  0  0
   -4.8716   -0.3196    0.1150 H   0  0  0  0  0  0  0  0  0  0  0  0
   -4.0049    0.9646   -0.9295 H   0  0  0  0  0  0  0  0  0  0  0  0
   -3.9368    0.8380    0.8083 H   0  0  0  0  0  0  0  0  0  0  0  0
   -1.3932    0.1819    0.0329 C   0  0  0  0  0  0  0  0  0  0  0  0
   -2.7218   -1.3103   -0.7896 H   0  0  0  0  0  0  0  0  0  0  0  0
   -2.6868   -1.2549    0.9247 H   0  0  0  0  0  0  0  0  0  0  0  0
   -0.1544   -0.6898    0.0119 C   0  0  0  0  0  0  0  0  0  0  0  0
   -1.3202    0.8744    0.8955 H   0  0  0  0  0  0  0  0  0  0  0  0
   -1.3859    0.7642   -0.8390 H   0  0  0  0  0  0  0  0  0  0  0  0
   -0.2053   -1.2864    0.8968 H   0  0  0  0  0  0  0  0  0  0  0  0
    0.7545   -0.1029    0.0448 H   0  0  0  0  0  0  0  0  0  0  0  0
   -0.1398   -1.3994   -0.8501 H   0  0  0  0  0  0  0  0  0  0  0  0
  1  2  1  0  0  0  0
  1  3  1  0  0  0  0
  1  5  1  0  0  0  0
  2  8  1  0  0  0  0
  4  1  1  0  0  0  0
  6  2  1  0  0  0  0
  6 10  1  0  0  0  0
  7  2  1  0  0  0  0
  9  6  1  0  0  0  0
  9 13  1  0  0  0  0
  9 12  1  0  0  0  0
 11  6  1  0  0  0  0
 14  9  1  0  0  0  0
M  END
$$$$
