14
butane_opt
C  -3.975103   0.227576   0.064489
C  -2.709744  -0.569007   0.031114
H  -4.713763  -0.193371   0.388299
H  -4.105081   0.809649  -0.792501
H  -3.670766   0.781458   0.884750
C  -1.444085   0.198030  -0.115481
H  -2.524620  -1.457027  -0.888488
H  -2.826934  -1.185088   0.874244
C  -0.134810  -0.684380   0.116850
H  -1.303472   0.610855   0.553165
H  -1.250876   1.160058  -1.138570
H  -0.228084  -0.893293   0.597583
H   0.616437  -0.227531   0.853121
H   0.137835  -1.947968  -1.067469
