14
butane_opt
C  -3.910731   0.246416  -0.186007
C  -2.661521  -0.589047   0.166520
H  -4.871032  -0.331773  -0.200722
H  -4.116140   1.147589  -1.223446
H  -4.212158   0.944149   0.531177
C  -1.419658   0.134566   0.303650
H  -2.506166  -1.232115  -0.563654
H  -2.704927  -1.418183   1.324838
C  -0.188824  -0.671397  -0.132008
H  -1.392054   1.009819   1.325769
H  -1.475664   0.426489  -0.401307
H   0.409261  -1.529270   0.842632
H   0.883506   0.089682  -1.055281
H  -0.844981  -0.995429  -0.984545
