14
butane_opt
C  -3.952122   0.274948  -0.005295
C  -2.704069  -0.640148   0.070212
H  -4.825326  -0.305354   0.034383
H  -3.978011   0.938572  -0.948282
H  -4.009686   0.903178   0.830777
C  -1.397190   0.193976   0.023540
H  -2.721539  -1.270293  -0.749589
H  -2.727676  -1.305361   1.001361
C  -0.155255  -0.687770   0.004561
H  -1.359089   0.861278   0.896188
H  -1.464731   0.785324  -0.811052
H  -0.175860  -1.213156   0.848517
H   0.777593  -0.065658   0.108733
H  -0.047108  -1.481713  -0.905882
