butane_opt
 OpenBabel08242015403D

 14 13  0  0  0  0  0  0  0  0999 V2000
   -3.9037    0.3120   -0.1005 C   0  0  0  0  0  0  0  0  0  0  0  0
   -2.6644   -0.6117    0.2029 C   0  0  0  0  0  0  0  0  0  0  0  0
   -4.8063   -0.3094   -0.4971 H   0  0  0  0  0  0  0  0  0  0  0  0
   -3.5139    1.0420   -1.1966 H   0  0  0  0  0  0  0  0  0  0  0  0
   -4.2447    0.9767    0.6050 H   0  0  0  0  0  0  0  0  0  0  0  0
   -1.4210    0.0990    0.2108 C   0  0  0  0  0  0  0  0  0  0  0  0
   -2.7938   -1.3602   -0.6085 H   0  0  0  0  0  0  0  0  0  0  0  0
   -2.9302   -1.2273    1.1441 H   0  0  0  0  0  0  0  0  0  0  0  0
   -0.2070   -0.6376   -0.1537 C   0  0  0  0  0  0  0  0  0  0  0  0
   -1.3631    0.7281    1.1345 H   0  0  0  0  0  0  0  0  0  0  0  0
   -1.5428    0.3567   -0.5265 H   0  0  0  0  0  0  0  0  0  0  0  0
    0.0485   -1.6183    0.7870 H   0  0  0  0  0  0  0  0  0  0  0  0
    0.9559    0.1747   -0.4583 H   0  0  0  0  0  0  0  0  0  0  0  0
   -0.5525   -1.0756   -0.8378 H   0  0  0  0  0  0  0  0  0  0  0  0
  1  2  1  0  0  0  0
  1  5  1  0  0  0  0
  2  6  1  0  0  0  0
  2  8  1  0  0  0  0
  3  1  1  0  0  0  0
  4  1  1  0  0  0  0
  6 10  1  0  0  0  0
  7  2  1  0  0  0  0
  9  6  1  0  0  0  0
  9 12  1  0  0  0  0
 11  6  1  0  0  0  0
 13  9  1  0  0  0  0
 14  9  1  0  0  0  0
M  END
$$$$
