butane_opt
 OpenBabel08242015403D

 14 12  0  0  0  0  0  0  0  0999 V2000
   -3.9498    0.3225   -0.1012 C   0  0  0  0  0  0  0  0  0  0  0  0
   -2.7158   -0.6501    0.0823 C   0  0  0  0  0  0  0  0  0  0  0  0
   -4.8235   -0.2054   -0.0603 H   0  0  0  0  0  0  0  0  0  0  0  0
   -4.0953    0.7316   -0.9632 H   0  0  0  0  0  0  0  0  0  0  0  0
   -4.1049    0.8437    0.6593 H   0  0  0  0  0  0  0  0  0  0  0  0
   -1.3923    0.1701    0.1902 C   0  0  0  0  0  0  0  0  0  0  0  0
   -2.7555   -1.0988   -0.5261 H   0  0  0  0  0  0  0  0  0  0  0  0
   -2.6787   -1.4656    1.0071 H   0  0  0  0  0  0  0  0  0  0  0  0
   -0.1344   -0.7127   -0.0517 C   0  0  0  0  0  0  0  0  0  0  0  0
   -1.3491    1.0631    1.1391 H   0  0  0  0  0  0  0  0  0  0  0  0
   -1.2504    0.4560   -0.6008 H   0  0  0  0  0  0  0  0  0  0  0  0
    0.0373   -1.4141    0.9645 H   0  0  0  0  0  0  0  0  0  0  0  0
    0.8961    0.1186   -0.8724 H   0  0  0  0  0  0  0  0  0  0  0  0
   -0.6018   -1.0224   -0.7620 H   0  0  0  0  0  0  0  0  0  0  0  0
  1  3  1  0  0  0  0
  1  2  1  0  0  0  0
  1  5  1  0  0  0  0
  2  6  1  0  0  0  0
  2  8  1  0  0  0  0
  4  1  1  0  0  0  0
  6 10  1  0  0  0  0
  7  2  1  0  0  0  0
  9  6  1  0  0  0  0
  9 12  1  0  0  0  0
 11  6  1  0  0  0  0
 14  9  1  0  0  0  0
M  RAD  2   9   2  13   2
M  END
$$$$
