14
butane_opt
C  -3.949770   0.322523  -0.101248
C  -2.715827  -0.650067   0.082324
H  -4.823508  -0.205425  -0.060289
H  -4.095284   0.731626  -0.963225
H  -4.104876   0.843669   0.659250
C  -1.392279   0.170050   0.190219
H  -2.755501  -1.098754  -0.526109
H  -2.678686  -1.465630   1.007147
C  -0.134444  -0.712729  -0.051703
H  -1.349057   1.063125   1.139132
H  -1.250394   0.456040  -0.600809
H   0.037305  -1.414068   0.964481
H   0.896117   0.118551  -0.872430
H  -0.601815  -1.022439  -0.761987
