butane_opt
 OpenBabel08242015403D

 14 12  0  0  0  0  0  0  0  0999 V2000
   -4.0118    0.2026   -0.1445 C   0  0  0  0  0  0  0  0  0  0  0  0
   -2.7028   -0.5289    0.1020 C   0  0  0  0  0  0  0  0  0  0  0  0
   -5.0946   -0.5372    0.1126 H   0  0  0  0  0  0  0  0  0  0  0  0
   -3.9278    0.9082   -1.1302 H   0  0  0  0  0  0  0  0  0  0  0  0
   -4.0151    0.7659    0.6411 H   0  0  0  0  0  0  0  0  0  0  0  0
   -1.3871    0.2266    0.2730 C   0  0  0  0  0  0  0  0  0  0  0  0
   -2.4356   -0.9807   -0.5276 H   0  0  0  0  0  0  0  0  0  0  0  0
   -3.1149   -1.2905    1.1475 H   0  0  0  0  0  0  0  0  0  0  0  0
   -0.0808   -0.7208   -0.1291 C   0  0  0  0  0  0  0  0  0  0  0  0
   -1.2165    1.1597    1.3542 H   0  0  0  0  0  0  0  0  0  0  0  0
   -1.5402    0.6697   -0.6793 H   0  0  0  0  0  0  0  0  0  0  0  0
    0.3410   -1.8198    0.9069 H   0  0  0  0  0  0  0  0  0  0  0  0
    0.6799   -0.3416   -0.6619 H   0  0  0  0  0  0  0  0  0  0  0  0
   -0.4643   -1.1817   -0.8731 H   0  0  0  0  0  0  0  0  0  0  0  0
  1  2  1  0  0  0  0
  1  3  1  0  0  0  0
  1  5  1  0  0  0  0
  2  6  1  0  0  0  0
  2  8  1  0  0  0  0
  4  1  1  0  0  0  0
  6 10  1  0  0  0  0
  7  2  1  0  0  0  0
  9  6  1  0  0  0  0
 11  6  1  0  0  0  0
 13  9  1  0  0  0  0
 14  9  1  0  0  0  0
M  RAD  2   9   2  12   2
M  END
$$$$
