butane_opt
 OpenBabel08242015403D

 14 13  0  0  0  0  0  0  0  0999 V2000
   -3.9990    0.2996   -0.1704 C   0  0  0  0  0  0  0  0  0  0  0  0
   -2.6769   -0.6972    0.1797 C   0  0  0  0  0  0  0  0  0  0  0  0
   -4.8138   -0.3719    0.2516 H   0  0  0  0  0  0  0  0  0  0  0  0
   -3.7334    1.2189   -1.2363 H   0  0  0  0  0  0  0  0  0  0  0  0
   -4.0582    0.8647    0.6508 H   0  0  0  0  0  0  0  0  0  0  0  0
   -1.3738    0.2155    0.2445 C   0  0  0  0  0  0  0  0  0  0  0  0
   -2.6654   -1.5228   -0.6137 H   0  0  0  0  0  0  0  0  0  0  0  0
   -3.0099   -1.0560    0.9480 H   0  0  0  0  0  0  0  0  0  0  0  0
   -0.1678   -0.6851   -0.1246 C   0  0  0  0  0  0  0  0  0  0  0  0
   -1.3013    0.9204    1.1203 H   0  0  0  0  0  0  0  0  0  0  0  0
   -1.3542    0.7325   -0.5180 H   0  0  0  0  0  0  0  0  0  0  0  0
    0.2550   -1.4691    0.8477 H   0  0  0  0  0  0  0  0  0  0  0  0
    0.7291   -0.1796   -0.6020 H   0  0  0  0  0  0  0  0  0  0  0  0
   -0.4874   -1.1634   -0.9437 H   0  0  0  0  0  0  0  0  0  0  0  0
  1  2  1  0  0  0  0
  1  3  1  0  0  0  0
  1  5  1  0  0  0  0
  2  6  1  0  0  0  0
  2  8  1  0  0  0  0
  4  1  1  0  0  0  0
  6 10  1  0  0  0  0
  7  2  1  0  0  0  0
  9  6  1  0  0  0  0
  9 12  1  0  0  0  0
 11  6  1  0  0  0  0
 13  9  1  0  0  0  0
 14  9  1  0  0  0  0
M  END
$$$$
