butane_opt
 OpenBabel08242015403D

 14 12  0  0  0  0  0  0  0  0999 V2000
   -3.9692    0.2074   -0.1777 C   0  0  0  0  0  0  0  0  0  0  0  0
   -2.7438   -0.6004    0.2375 C   0  0  0  0  0  0  0  0  0  0  0  0
   -4.9054   -0.3472    0.0401 H   0  0  0  0  0  0  0  0  0  0  0  0
   -3.7423    1.0140   -1.4383 H   0  0  0  0  0  0  0  0  0  0  0  0
   -4.1301    0.6940    0.5526 H   0  0  0  0  0  0  0  0  0  0  0  0
   -1.4125    0.3236    0.2785 C   0  0  0  0  0  0  0  0  0  0  0  0
   -2.4866   -1.6520   -0.8280 H   0  0  0  0  0  0  0  0  0  0  0  0
   -2.9022   -1.0870    1.0732 H   0  0  0  0  0  0  0  0  0  0  0  0
   -0.1002   -0.7518   -0.1727 C   0  0  0  0  0  0  0  0  0  0  0  0
   -1.2740    1.2014    1.1981 H   0  0  0  0  0  0  0  0  0  0  0  0
   -1.5308    0.8042   -0.3997 H   0  0  0  0  0  0  0  0  0  0  0  0
    0.4337   -1.7835    1.0001 H   0  0  0  0  0  0  0  0  0  0  0  0
    0.6410   -0.2551   -0.7847 H   0  0  0  0  0  0  0  0  0  0  0  0
   -0.3838   -1.2103   -0.9296 H   0  0  0  0  0  0  0  0  0  0  0  0
  1  3  1  0  0  0  0
  1  2  1  0  0  0  0
  1  5  1  0  0  0  0
  2  6  1  0  0  0  0
  2  8  1  0  0  0  0
  4  1  1  0  0  0  0
  6 10  1  0  0  0  0
  7  2  1  0  0  0  0
  9  6  1  0  0  0  0
 11  6  1  0  0  0  0
 13  9  1  0  0  0  0
 14  9  1  0  0  0  0
M  RAD  2   9   2  12   2
M  END
$$$$
