14
butane_opt
C  -3.845465   0.231120   0.176009
C  -2.742176  -0.504760  -0.060284
H  -4.936399  -0.537130  -0.668528
H  -3.601569  -0.058568  -0.126370
H  -4.189831   1.448840   1.422066
C  -1.480226   0.202677  -0.199337
H  -2.703174  -1.240157  -0.887489
H  -2.426697  -1.284638   0.806003
C  -0.160355  -0.719204   0.153084
H  -1.718589   0.798063   0.495052
H  -1.273203   0.847934  -1.289768
H  -0.175282  -1.821519   1.253597
H   0.755723  -0.154433   0.139855
H  -0.001950  -1.006996  -0.413811
