butane_opt
 OpenBabel08242015403D

 14 13  0  0  0  0  0  0  0  0999 V2000
   -3.9479    0.1961    0.1598 C   0  0  0  0  0  0  0  0  0  0  0  0
   -2.7456   -0.5716   -0.0833 C   0  0  0  0  0  0  0  0  0  0  0  0
   -4.7887   -0.2362    0.2973 H   0  0  0  0  0  0  0  0  0  0  0  0
   -3.8730    0.5611   -0.5780 H   0  0  0  0  0  0  0  0  0  0  0  0
   -3.7230    1.0729    1.1913 H   0  0  0  0  0  0  0  0  0  0  0  0
   -1.4519    0.2969   -0.2574 C   0  0  0  0  0  0  0  0  0  0  0  0
   -2.9937   -1.3260   -1.1166 H   0  0  0  0  0  0  0  0  0  0  0  0
   -2.6889   -1.3328    1.0013 H   0  0  0  0  0  0  0  0  0  0  0  0
   -0.0874   -0.7575    0.1928 C   0  0  0  0  0  0  0  0  0  0  0  0
   -1.3640    0.8988    0.6110 H   0  0  0  0  0  0  0  0  0  0  0  0
   -1.5784    0.9603   -1.0745 H   0  0  0  0  0  0  0  0  0  0  0  0
   -0.4586   -1.2112    0.9425 H   0  0  0  0  0  0  0  0  0  0  0  0
    0.7612   -0.3244    0.8040 H   0  0  0  0  0  0  0  0  0  0  0  0
    0.4818   -1.5091   -0.7432 H   0  0  0  0  0  0  0  0  0  0  0  0
  1  3  1  0  0  0  0
  1  5  1  0  0  0  0
  2  1  1  0  0  0  0
  2  8  1  0  0  0  0
  4  1  1  0  0  0  0
  6  2  1  0  0  0  0
  6  9  1  0  0  0  0
  6 10  1  0  0  0  0
  7  2  1  0  0  0  0
  9 13  1  0  0  0  0
  9 12  1  0  0  0  0
 11  6  1  0  0  0  0
 14  9  1  0  0  0  0
M  END
$$$$
