14
butane_opt
C  -3.949962   0.269104   0.033128
C  -2.693663  -0.613909   0.008093
H  -4.844047  -0.297134   0.040733
H  -3.996164   0.770913  -0.802205
H  -3.945416   0.996641   0.942871
C  -1.407938   0.180703   0.002201
H  -2.695780  -1.313620  -0.879766
H  -2.725170  -1.260199   0.893801
C  -0.162231  -0.695992   0.049395
H  -1.398631   0.856431   0.869893
H  -1.362664   0.819388  -0.921894
H  -0.129642  -1.430154   1.029934
H   0.823320  -0.049645  -0.109474
H  -0.191723  -1.227846  -0.713040
