butane_opt
 OpenBabel08242015403D

 14 11  0  0  0  0  0  0  0  0999 V2000
   -3.9902    0.2597    0.1928 C   0  0  0  0  0  0  0  0  0  0  0  0
   -2.5986   -0.5717   -0.1538 C   0  0  0  0  0  0  0  0  0  0  0  0
   -4.9526   -0.3450    0.3807 H   0  0  0  0  0  0  0  0  0  0  0  0
   -4.1768    0.7818   -0.5867 H   0  0  0  0  0  0  0  0  0  0  0  0
   -3.5605    1.1070    1.3186 H   0  0  0  0  0  0  0  0  0  0  0  0
   -1.4114    0.1088   -0.1868 C   0  0  0  0  0  0  0  0  0  0  0  0
   -2.7750   -1.2883   -1.1375 H   0  0  0  0  0  0  0  0  0  0  0  0
   -2.5989   -1.2587    0.6629 H   0  0  0  0  0  0  0  0  0  0  0  0
   -0.2247   -0.6453    0.2229 C   0  0  0  0  0  0  0  0  0  0  0  0
   -1.4041    0.3394    0.2786 H   0  0  0  0  0  0  0  0  0  0  0  0
   -1.3352    1.1633   -1.3704 H   0  0  0  0  0  0  0  0  0  0  0  0
   -0.5538   -1.1110    1.0235 H   0  0  0  0  0  0  0  0  0  0  0  0
    0.8549   -0.0418    0.8172 H   0  0  0  0  0  0  0  0  0  0  0  0
    0.1590   -1.6231   -0.8232 H   0  0  0  0  0  0  0  0  0  0  0  0
  1  3  1  0  0  0  0
  1  5  1  0  0  0  0
  2  1  1  0  0  0  0
  2  8  1  0  0  0  0
  4  1  1  0  0  0  0
  6  2  1  0  0  0  0
  6  9  1  0  0  0  0
  7  2  1  0  0  0  0
  9 13  1  0  0  0  0
  9 12  1  0  0  0  0
 14  9  1  0  0  0  0
M  RAD  3   6   3  10   2  11   2
M  END
$$$$
