14
butane_opt
C  -3.971360   0.298895  -0.122952
C  -2.674817  -0.663607   0.257206
H  -4.691266  -0.119863  -0.547863
H  -3.748060   0.680252  -0.867558
H  -4.522850   1.105459   0.841428
C  -1.337698   0.173483   0.068568
H  -2.976091  -1.164949  -0.477391
H  -2.743746  -1.477087   1.304904
C  -0.196901  -0.690524  -0.110591
H  -1.228335   0.964588   0.845543
H  -1.570623   0.540134  -0.597259
H  -0.035865  -0.962387   0.664125
H   0.765469  -0.029227   0.221707
H  -0.121660  -1.414248  -1.053430
