butane_opt
 OpenBabel08242015403D

 14 12  0  0  0  0  0  0  0  0999 V2000
   -3.8713    0.3179   -0.0511 C   0  0  0  0  0  0  0  0  0  0  0  0
   -2.6430   -0.6999    0.0891 C   0  0  0  0  0  0  0  0  0  0  0  0
   -4.8643   -0.2601   -0.0501 H   0  0  0  0  0  0  0  0  0  0  0  0
   -3.8584    1.1278   -1.0347 H   0  0  0  0  0  0  0  0  0  0  0  0
   -4.2147    0.8284    0.6029 H   0  0  0  0  0  0  0  0  0  0  0  0
   -1.4670    0.1461    0.1786 C   0  0  0  0  0  0  0  0  0  0  0  0
   -2.5497   -1.5087   -1.0014 H   0  0  0  0  0  0  0  0  0  0  0  0
   -2.4905   -1.2714    0.9286 H   0  0  0  0  0  0  0  0  0  0  0  0
   -0.2379   -0.6203   -0.0874 C   0  0  0  0  0  0  0  0  0  0  0  0
   -1.2769    1.0036    1.2250 H   0  0  0  0  0  0  0  0  0  0  0  0
   -1.2739    0.6020   -0.6256 H   0  0  0  0  0  0  0  0  0  0  0  0
   -0.0488   -1.7901    1.1830 H   0  0  0  0  0  0  0  0  0  0  0  0
    0.7212    0.0712   -0.7564 H   0  0  0  0  0  0  0  0  0  0  0  0
   -0.5427   -0.9840   -0.5743 H   0  0  0  0  0  0  0  0  0  0  0  0
  1  3  1  0  0  0  0
  1  2  1  0  0  0  0
  1  5  1  0  0  0  0
  2  6  1  0  0  0  0
  2  8  1  0  0  0  0
  4  1  1  0  0  0  0
  6 10  1  0  0  0  0
  7  2  1  0  0  0  0
  9  6  1  0  0  0  0
 11  6  1  0  0  0  0
 13  9  1  0  0  0  0
 14  9  1  0  0  0  0
M  RAD  2   9   2  12   2
M  END
$$$$
