butane_opt
 OpenBabel08242015403D

 14 10  0  0  0  0  0  0  0  0999 V2000
   -3.9216    0.3520    0.0937 C   0  0  0  0  0  1  0  0  0  0  0  0
   -2.6174   -0.7005   -0.0216 C   0  0  0  0  0  0  0  0  0  0  0  0
   -4.8422   -0.2521   -0.4222 H   0  0  0  0  0  0  0  0  0  0  0  0
   -3.8498    0.0957   -0.2523 H   0  0  0  0  0  0  0  0  0  0  0  0
   -4.2741    1.7107    1.2943 H   0  0  0  0  0  0  0  0  0  0  0  0
   -1.3910    0.1168   -0.1155 C   0  0  0  0  0  0  0  0  0  0  0  0
   -2.6126   -1.6497   -1.0595 H   0  0  0  0  0  0  0  0  0  0  0  0
   -2.5210   -1.4046    0.8863 H   0  0  0  0  0  0  0  0  0  0  0  0
   -0.2577   -0.5937    0.1710 C   0  0  0  0  0  0  0  0  0  0  0  0
   -1.3502    0.4471    0.5831 H   0  0  0  0  0  0  0  0  0  0  0  0
   -1.4651    1.1383   -1.2643 H   0  0  0  0  0  0  0  0  0  0  0  0
   -0.1336   -1.5353    1.1051 H   0  0  0  0  0  0  0  0  0  0  0  0
    0.6332   -0.0443   -0.2720 H   0  0  0  0  0  0  0  0  0  0  0  0
   -0.3820   -1.0548   -0.5513 H   0  0  0  0  0  0  0  0  0  0  0  0
  2  8  1  0  0  0  0
  3  1  1  0  0  0  0
  4  2  1  0  0  0  0
  6  2  1  0  0  0  0
  6  9  1  0  0  0  0
  6 10  1  0  0  0  0
  7  2  1  0  0  0  0
  9 12  1  0  0  0  0
 13  9  1  0  0  0  0
 14  9  1  0  0  0  0
M  RAD  3   5   2   6   2  11   2
M  END
$$$$
