butane_opt
 OpenBabel08242015403D

 14 12  0  0  0  0  0  0  0  0999 V2000
   -4.0039    0.3430    0.0839 C   0  0  0  0  0  0  0  0  0  0  0  0
   -2.6427   -0.6942    0.0157 C   0  0  0  0  0  0  0  0  0  0  0  0
   -4.7889   -0.1127    0.0283 H   0  0  0  0  0  0  0  0  0  0  0  0
   -3.8222    0.8638   -0.7673 H   0  0  0  0  0  0  0  0  0  0  0  0
   -3.9980    0.8132    0.9514 H   0  0  0  0  0  0  0  0  0  0  0  0
   -1.3638    0.1249   -0.1111 C   0  0  0  0  0  0  0  0  0  0  0  0
   -2.7499   -1.2380   -0.7557 H   0  0  0  0  0  0  0  0  0  0  0  0
   -2.5855   -1.3427    1.0757 H   0  0  0  0  0  0  0  0  0  0  0  0
   -0.2166   -0.6381    0.0708 C   0  0  0  0  0  0  0  0  0  0  0  0
   -1.5017    0.7895    0.7430 H   0  0  0  0  0  0  0  0  0  0  0  0
   -1.1670    0.6776   -0.9851 H   0  0  0  0  0  0  0  0  0  0  0  0
   -0.7496   -0.8910    0.7414 H   0  0  0  0  0  0  0  0  0  0  0  0
    0.8380    0.0084    0.5283 H   0  0  0  0  0  0  0  0  0  0  0  0
    0.1774   -1.6383   -0.9121 H   0  0  0  0  0  0  0  0  0  0  0  0
  1  5  1  0  0  0  0
  2  1  1  0  0  0  0
  2  8  1  0  0  0  0
  3  1  1  0  0  0  0
  4  1  1  0  0  0  0
  6  9  1  0  0  0  0
  6 10  1  0  0  0  0
  7  2  1  0  0  0  0
  9 13  1  0  0  0  0
  9 12  1  0  0  0  0
 11  6  1  0  0  0  0
 14  9  1  0  0  0  0
M  RAD  2   2   2   6   2
M  END
$$$$
