butane_opt
 OpenBabel08242015403D

 14 13  0  0  0  0  0  0  0  0999 V2000
   -3.9114    0.2415    0.2010 C   0  0  0  0  0  0  0  0  0  0  0  0
   -2.6597   -0.5482   -0.2449 C   0  0  0  0  0  0  0  0  0  0  0  0
   -5.0327   -0.5349    0.7731 H   0  0  0  0  0  0  0  0  0  0  0  0
   -4.1855    1.1739   -0.8863 H   0  0  0  0  0  0  0  0  0  0  0  0
   -3.0631    0.6646    0.9656 H   0  0  0  0  0  0  0  0  0  0  0  0
   -1.4782    0.2005   -0.0901 C   0  0  0  0  0  0  0  0  0  0  0  0
   -2.6358   -1.4949   -1.1862 H   0  0  0  0  0  0  0  0  0  0  0  0
   -2.8746   -1.2337    0.6383 H   0  0  0  0  0  0  0  0  0  0  0  0
   -0.1926   -0.7068    0.1903 C   0  0  0  0  0  0  0  0  0  0  0  0
   -1.6230    0.9107    0.6932 H   0  0  0  0  0  0  0  0  0  0  0  0
   -1.3323    0.7881   -1.0581 H   0  0  0  0  0  0  0  0  0  0  0  0
   -0.3291   -1.6327    1.3470 H   0  0  0  0  0  0  0  0  0  0  0  0
    0.8347   -0.1536    0.0547 H   0  0  0  0  0  0  0  0  0  0  0  0
    0.0860   -1.1612   -0.5781 H   0  0  0  0  0  0  0  0  0  0  0  0
  1  3  1  0  0  0  0
  1  5  1  0  0  0  0
  2  6  1  0  0  0  0
  2  1  1  0  0  0  0
  2  8  1  0  0  0  0
  4  1  1  0  0  0  0
  6  9  1  0  0  0  0
  6 10  1  0  0  0  0
  7  2  1  0  0  0  0
  9 12  1  0  0  0  0
 11  6  1  0  0  0  0
 13  9  1  0  0  0  0
 14  9  1  0  0  0  0
M  END
$$$$
