14
butane_opt
C  -4.030037   0.338213  -0.075612
C  -2.670357  -0.736099   0.134925
H  -4.898318  -0.264865   0.306980
H  -4.138405   1.351597  -1.327075
H  -4.031399   0.644672   0.555196
C  -1.377247   0.153112   0.105746
H  -2.683685  -1.204459  -0.457467
H  -2.766914  -1.600677   1.233825
C  -0.155613  -0.641032  -0.061608
H  -1.255483   0.887437   0.965227
H  -1.359730   0.987643  -0.892268
H   0.007441  -0.558592   0.315233
H   0.868301   0.091380   0.706395
H  -0.021543  -2.149796  -1.311939
