butane_opt
 OpenBabel08242015403D

 14 10  0  0  0  0  0  0  0  0999 V2000
   -3.9591    0.2025   -0.0578 C   0  0  0  0  0  0  0  0  0  0  0  0
   -2.7539   -0.5387    0.0665 C   0  0  0  0  0  0  0  0  0  0  0  0
   -4.8593   -0.4759    0.7285 H   0  0  0  0  0  0  0  0  0  0  0  0
   -4.2381    1.4916   -1.5433 H   0  0  0  0  0  0  0  0  0  0  0  0
   -3.5117    0.1915    0.4264 H   0  0  0  0  0  0  0  0  0  0  0  0
   -1.4526    0.2849    0.1534 C   0  0  0  0  0  0  0  0  0  0  0  0
   -2.8264   -1.2216   -0.7830 H   0  0  0  0  0  0  0  0  0  0  0  0
   -2.7662   -1.4138    1.0700 H   0  0  0  0  0  0  0  0  0  0  0  0
   -0.0604   -0.7620   -0.0974 C   0  0  0  0  0  0  0  0  0  0  0  0
   -1.4962    1.1769    1.1640 H   0  0  0  0  0  0  0  0  0  0  0  0
   -1.6452    0.5561   -0.6366 H   0  0  0  0  0  0  0  0  0  0  0  0
   -0.1011   -1.1875    0.7866 H   0  0  0  0  0  0  0  0  0  0  0  0
    0.9368   -0.1074    0.4127 H   0  0  0  0  0  0  0  0  0  0  0  0
    0.1788   -1.6625   -1.0588 H   0  0  0  0  0  0  0  0  0  0  0  0
  1  5  1  0  0  0  0
  1  3  1  0  0  0  0
  2  8  1  0  0  0  0
  6 10  1  0  0  0  0
  7  2  1  0  0  0  0
  9  6  1  0  0  0  0
  9 13  1  0  0  0  0
  9 12  1  0  0  0  0
 11  6  1  0  0  0  0
 14  9  1  0  0  0  0
M  RAD  4   1   3   2   3   4   2   6   2
M  END
$$$$
