butane_opt
 OpenBabel08242015403D

 14 13  0  0  0  0  0  0  0  0999 V2000
   -3.9302    0.2654    0.0092 C   0  0  0  0  0  0  0  0  0  0  0  0
   -2.6939   -0.6137    0.0449 C   0  0  0  0  0  0  0  0  0  0  0  0
   -4.8812   -0.3609    0.1169 H   0  0  0  0  0  0  0  0  0  0  0  0
   -3.9154    0.9210   -0.9165 H   0  0  0  0  0  0  0  0  0  0  0  0
   -3.9286    0.8810    0.8685 H   0  0  0  0  0  0  0  0  0  0  0  0
   -1.4124    0.1979    0.0123 C   0  0  0  0  0  0  0  0  0  0  0  0
   -2.7225   -1.2875   -0.7831 H   0  0  0  0  0  0  0  0  0  0  0  0
   -2.7431   -1.2706    0.9404 H   0  0  0  0  0  0  0  0  0  0  0  0
   -0.1679   -0.6950    0.0323 C   0  0  0  0  0  0  0  0  0  0  0  0
   -1.4193    0.8535    0.8420 H   0  0  0  0  0  0  0  0  0  0  0  0
   -1.3700    0.7945   -0.8730 H   0  0  0  0  0  0  0  0  0  0  0  0
   -0.1539   -1.2441    0.8738 H   0  0  0  0  0  0  0  0  0  0  0  0
    0.7221   -0.1405    0.0761 H   0  0  0  0  0  0  0  0  0  0  0  0
   -0.1584   -1.4719   -0.9005 H   0  0  0  0  0  0  0  0  0  0  0  0
  1  2  1  0  0  0  0
  1  3  1  0  0  0  0
  1  5  1  0  0  0  0
  2  8  1  0  0  0  0
  4  1  1  0  0  0  0
  6  9  1  0  0  0  0
  6  2  1  0  0  0  0
  6 10  1  0  0  0  0
  7  2  1  0  0  0  0
  9 13  1  0  0  0  0
  9 12  1  0  0  0  0
 11  6  1  0  0  0  0
 14  9  1  0  0  0  0
M  END
$$$$
