butane_opt
 OpenBabel08242015403D

 14 12  0  0  0  0  0  0  0  0999 V2000
   -4.0145    0.2764   -0.1010 C   0  0  0  0  0  0  0  0  0  0  0  0
   -2.6982   -0.6427    0.1116 C   0  0  0  0  0  0  0  0  0  0  0  0
   -5.0820   -0.4620   -0.1674 H   0  0  0  0  0  0  0  0  0  0  0  0
   -3.7804    0.9108   -1.1808 H   0  0  0  0  0  0  0  0  0  0  0  0
   -4.2558    0.6461    0.4337 H   0  0  0  0  0  0  0  0  0  0  0  0
   -1.3997    0.2167    0.2456 C   0  0  0  0  0  0  0  0  0  0  0  0
   -2.5939   -1.0264   -0.5405 H   0  0  0  0  0  0  0  0  0  0  0  0
   -2.8057   -1.2202    1.1348 H   0  0  0  0  0  0  0  0  0  0  0  0
   -0.0852   -0.7281   -0.1240 C   0  0  0  0  0  0  0  0  0  0  0  0
   -1.3542    1.3054    1.3506 H   0  0  0  0  0  0  0  0  0  0  0  0
   -1.4127    0.4900   -0.3748 H   0  0  0  0  0  0  0  0  0  0  0  0
    0.3215   -1.5707    0.9659 H   0  0  0  0  0  0  0  0  0  0  0  0
    0.6663   -0.2064   -1.0278 H   0  0  0  0  0  0  0  0  0  0  0  0
   -0.3260   -0.8531   -0.7537 H   0  0  0  0  0  0  0  0  0  0  0  0
  1  2  1  0  0  0  0
  1  5  1  0  0  0  0
  2  6  1  0  0  0  0
  2  8  1  0  0  0  0
  3  1  1  0  0  0  0
  4  1  1  0  0  0  0
  7  2  1  0  0  0  0
  9  6  1  0  0  0  0
  9 12  1  0  0  0  0
 11  6  1  0  0  0  0
 13  9  1  0  0  0  0
 14  9  1  0  0  0  0
M  RAD  2   6   2  10   2
M  END
$$$$
