butane_opt
 OpenBabel08242015403D

 14 13  0  0  0  0  0  0  0  0999 V2000
   -4.0244    0.2932    0.1471 C   0  0  0  0  0  0  0  0  0  0  0  0
   -2.6729   -0.7032   -0.1039 C   0  0  0  0  0  0  0  0  0  0  0  0
   -4.8637   -0.2860    0.1338 H   0  0  0  0  0  0  0  0  0  0  0  0
   -4.3119    1.0685   -0.8098 H   0  0  0  0  0  0  0  0  0  0  0  0
   -3.7107    0.9978    1.1245 H   0  0  0  0  0  0  0  0  0  0  0  0
   -1.3114    0.2129   -0.1446 C   0  0  0  0  0  0  0  0  0  0  0  0
   -2.8308   -1.0920   -0.7395 H   0  0  0  0  0  0  0  0  0  0  0  0
   -2.6645   -1.5752    0.8539 H   0  0  0  0  0  0  0  0  0  0  0  0
   -0.1815   -0.6809    0.1539 C   0  0  0  0  0  0  0  0  0  0  0  0
   -1.4178    0.7512    0.6127 H   0  0  0  0  0  0  0  0  0  0  0  0
   -1.2694    1.0045   -1.0910 H   0  0  0  0  0  0  0  0  0  0  0  0
   -0.3608   -0.8482    0.8175 H   0  0  0  0  0  0  0  0  0  0  0  0
    0.5792   -0.2103    0.6825 H   0  0  0  0  0  0  0  0  0  0  0  0
    0.1163   -1.7537   -0.8441 H   0  0  0  0  0  0  0  0  0  0  0  0
  1  5  1  0  0  0  0
  2  1  1  0  0  0  0
  2  8  1  0  0  0  0
  3  1  1  0  0  0  0
  4  1  1  0  0  0  0
  6  2  1  0  0  0  0
  6  9  1  0  0  0  0
  6 10  1  0  0  0  0
  7  2  1  0  0  0  0
  9 13  1  0  0  0  0
  9 12  1  0  0  0  0
 11  6  1  0  0  0  0
 14  9  1  0  0  0  0
M  END
$$$$
