14
butane_opt
C  -3.905212   0.275777   0.153777
C  -2.695016  -0.617281  -0.176469
H  -4.608501  -0.094345   0.479156
H  -4.533960   0.844360  -0.809746
H  -3.365122   0.935544   1.162363
C  -1.355570   0.149564  -0.068200
H  -2.851982  -1.633688  -1.445328
H  -2.629317  -1.032101   0.538280
C  -0.236499  -0.663671   0.197440
H  -1.557941   0.574828   0.617037
H  -1.387709   0.985562  -1.130814
H  -0.140736  -1.677445   1.374239
H   0.668929  -0.099157  -0.235406
H  -0.330962  -0.942388  -0.352761
