14
butane_opt
C  -3.967992   0.283333  -0.080914
C  -2.689093  -0.585718   0.095229
H  -4.949729  -0.388346  -0.146872
H  -3.652687   0.916302  -1.087766
H  -3.852865   0.835722   0.886285
C  -1.384953   0.182305   0.149137
H  -2.356135  -1.252564  -0.748529
H  -2.863799  -1.211131   1.122894
C  -0.210797  -0.711933  -0.109492
H  -1.127291   0.956141   1.208018
H  -1.447817   0.330394  -0.321784
H   0.049168  -1.888038   1.122991
H   0.750427   0.026310  -0.556905
H  -0.536859  -0.773441  -0.614181
