14
butane_opt
C  -3.911376   0.241474   0.201032
C  -2.659750  -0.548192  -0.244860
H  -5.032731  -0.534863   0.773123
H  -4.185471   1.173862  -0.886270
H  -3.063125   0.664614   0.965625
C  -1.478196   0.200481  -0.090094
H  -2.635842  -1.494920  -1.186199
H  -2.874640  -1.233733   0.638296
C  -0.192624  -0.706830   0.190296
H  -1.623024   0.910737   0.693228
H  -1.332337   0.788071  -1.058054
H  -0.329109  -1.632658   1.347032
H   0.834681  -0.153552   0.054686
H   0.086030  -1.161204  -0.578094
