14
butane_opt
C  -4.021009   0.332673   0.018250
C  -2.732502  -0.693947   0.107752
H  -4.932388  -0.114459   0.036747
H  -3.978283   1.153266  -1.021426
H  -4.077623   0.886976   0.865694
C  -1.325222   0.148110  -0.007026
H  -2.587394  -1.360980  -0.728276
H  -2.895662  -1.400930   1.072515
C  -0.113709  -0.647052   0.030257
H  -1.496918   0.479554   0.580381
H  -1.357351   0.744994  -1.091936
H  -0.437531  -0.626532   0.505529
H   0.959829   0.075768   0.633344
H   0.038844  -1.936790  -1.269219
