14
butane_opt
C  -3.947895   0.196054   0.159793
C  -2.745647  -0.571618  -0.083304
H  -4.788746  -0.236175   0.297259
H  -3.873040   0.561121  -0.577999
H  -3.722984   1.072893   1.191289
C  -1.451880   0.296897  -0.257439
H  -2.993692  -1.326049  -1.116642
H  -2.688901  -1.332826   1.001287
C  -0.087433  -0.757479   0.192807
H  -1.364033   0.898839   0.611000
H  -1.578373   0.960296  -1.074532
H  -0.458566  -1.211213   0.942478
H   0.761190  -0.324363   0.804003
H   0.481849  -1.509078  -0.743188
