butane_opt
 OpenBabel08242015403D

 14 12  0  0  0  0  0  0  0  0999 V2000
   -4.0657    0.3315   -0.1640 C   0  0  0  0  0  0  0  0  0  0  0  0
   -2.6913   -0.7081    0.1706 C   0  0  0  0  0  0  0  0  0  0  0  0
   -4.8943   -0.2384   -0.1418 H   0  0  0  0  0  0  0  0  0  0  0  0
   -3.7384    0.9690   -1.2158 H   0  0  0  0  0  0  0  0  0  0  0  0
   -4.3024    0.9023    0.5536 H   0  0  0  0  0  0  0  0  0  0  0  0
   -1.3868    0.1624    0.3210 C   0  0  0  0  0  0  0  0  0  0  0  0
   -2.4252   -1.3710   -0.6873 H   0  0  0  0  0  0  0  0  0  0  0  0
   -2.6779   -1.4531    1.1732 H   0  0  0  0  0  0  0  0  0  0  0  0
   -0.1351   -0.6272   -0.1437 C   0  0  0  0  0  0  0  0  0  0  0  0
   -1.0544    0.8216    1.1667 H   0  0  0  0  0  0  0  0  0  0  0  0
   -1.4429    0.7975   -0.6483 H   0  0  0  0  0  0  0  0  0  0  0  0
    0.5307   -1.5814    0.8723 H   0  0  0  0  0  0  0  0  0  0  0  0
    0.8449    0.1445   -0.8278 H   0  0  0  0  0  0  0  0  0  0  0  0
   -0.5832   -1.3137   -0.9721 H   0  0  0  0  0  0  0  0  0  0  0  0
  1  3  1  0  0  0  0
  1  2  1  0  0  0  0
  1  5  1  0  0  0  0
  2  6  1  0  0  0  0
  2  8  1  0  0  0  0
  4  1  1  0  0  0  0
  6 10  1  0  0  0  0
  7  2  1  0  0  0  0
  9  6  1  0  0  0  0
 11  6  1  0  0  0  0
 13  9  1  0  0  0  0
 14  9  1  0  0  0  0
M  RAD  2   9   2  12   2
M  END
$$$$
