butane_opt
 OpenBabel08242015403D

 14 11  0  0  0  0  0  0  0  0999 V2000
   -3.9654    0.2184   -0.1802 C   0  0  0  0  0  0  0  0  0  0  0  0
   -2.7569   -0.5469    0.2622 C   0  0  0  0  0  0  0  0  0  0  0  0
   -5.0057   -0.4643   -0.3404 H   0  0  0  0  0  0  0  0  0  0  0  0
   -3.9014    0.3287   -0.7739 H   0  0  0  0  0  0  0  0  0  0  0  0
   -4.2412    1.0536    0.7718 H   0  0  0  0  0  0  0  0  0  0  0  0
   -1.4180    0.2871    0.1105 C   0  0  0  0  0  0  0  0  0  0  0  0
   -2.4748   -0.9472   -0.3535 H   0  0  0  0  0  0  0  0  0  0  0  0
   -2.9064   -1.6039    1.4563 H   0  0  0  0  0  0  0  0  0  0  0  0
   -0.0585   -0.7676   -0.1436 C   0  0  0  0  0  0  0  0  0  0  0  0
   -1.4578    1.0243    1.1762 H   0  0  0  0  0  0  0  0  0  0  0  0
   -1.5117    0.8566   -0.7236 H   0  0  0  0  0  0  0  0  0  0  0  0
    0.0517   -1.0919    0.6197 H   0  0  0  0  0  0  0  0  0  0  0  0
    0.9438   -0.2517    0.1874 H   0  0  0  0  0  0  0  0  0  0  0  0
   -0.0973   -1.6985   -1.1560 H   0  0  0  0  0  0  0  0  0  0  0  0
  1  2  1  0  0  0  0
  1  5  1  0  0  0  0
  3  1  1  0  0  0  0
  6  2  1  0  0  0  0
  6 10  1  0  0  0  0
  7  2  1  0  0  0  0
  9  6  1  0  0  0  0
  9 13  1  0  0  0  0
  9 12  1  0  0  0  0
 11  6  1  0  0  0  0
 14  9  1  0  0  0  0
M  RAD  4   1   2   2   2   4   2   8   2
M  END
$$$$
