butane_opt
 OpenBabel08242015403D

 14 13  0  0  0  0  0  0  0  0999 V2000
   -3.9829    0.2993    0.1875 C   0  0  0  0  0  0  0  0  0  0  0  0
   -2.6952   -0.6534   -0.0987 C   0  0  0  0  0  0  0  0  0  0  0  0
   -4.7725   -0.1827    0.0932 H   0  0  0  0  0  0  0  0  0  0  0  0
   -4.2580    1.0212   -0.7688 H   0  0  0  0  0  0  0  0  0  0  0  0
   -3.9708    0.9487    1.0462 H   0  0  0  0  0  0  0  0  0  0  0  0
   -1.3773    0.0960   -0.1901 C   0  0  0  0  0  0  0  0  0  0  0  0
   -2.9438   -1.3476   -0.9387 H   0  0  0  0  0  0  0  0  0  0  0  0
   -2.4774   -1.4244    0.7100 H   0  0  0  0  0  0  0  0  0  0  0  0
   -0.1680   -0.6404    0.1551 C   0  0  0  0  0  0  0  0  0  0  0  0
   -1.4053    0.8552    0.7489 H   0  0  0  0  0  0  0  0  0  0  0  0
   -1.4747    0.8572   -1.1421 H   0  0  0  0  0  0  0  0  0  0  0  0
   -0.4052   -0.9394    0.9860 H   0  0  0  0  0  0  0  0  0  0  0  0
    0.9160   -0.0527    0.6009 H   0  0  0  0  0  0  0  0  0  0  0  0
    0.3936   -1.3750   -0.5840 H   0  0  0  0  0  0  0  0  0  0  0  0
  1  5  1  0  0  0  0
  2  1  1  0  0  0  0
  2  8  1  0  0  0  0
  3  1  1  0  0  0  0
  4  1  1  0  0  0  0
  6  2  1  0  0  0  0
  6  9  1  0  0  0  0
  6 10  1  0  0  0  0
  7  2  1  0  0  0  0
  9 13  1  0  0  0  0
  9 12  1  0  0  0  0
 11  6  1  0  0  0  0
 14  9  1  0  0  0  0
M  END
$$$$
