butane_opt
 OpenBabel08242015403D

 14 11  0  0  0  0  0  0  0  0999 V2000
   -3.9773    0.1995   -0.0940 C   0  0  0  0  0  0  0  0  0  0  0  0
   -2.7070   -0.5065    0.2237 C   0  0  0  0  0  0  0  0  0  0  0  0
   -5.0860   -0.6598   -0.7479 H   0  0  0  0  0  0  0  0  0  0  0  0
   -3.4525    0.4120   -0.8002 H   0  0  0  0  0  0  0  0  0  0  0  0
   -4.2089    1.3693    0.9550 H   0  0  0  0  0  0  0  0  0  0  0  0
   -1.3764    0.2545    0.1344 C   0  0  0  0  0  0  0  0  0  0  0  0
   -2.6567   -1.1453   -0.6554 H   0  0  0  0  0  0  0  0  0  0  0  0
   -3.0951   -1.3130    1.3251 H   0  0  0  0  0  0  0  0  0  0  0  0
   -0.1463   -0.7789   -0.0957 C   0  0  0  0  0  0  0  0  0  0  0  0
   -1.1865    0.7027    0.6530 H   0  0  0  0  0  0  0  0  0  0  0  0
   -1.6824    1.1532   -0.9339 H   0  0  0  0  0  0  0  0  0  0  0  0
    0.3090   -1.3241    0.7767 H   0  0  0  0  0  0  0  0  0  0  0  0
    0.6787   -0.1491    0.0175 H   0  0  0  0  0  0  0  0  0  0  0  0
   -0.1246   -1.6060   -1.0795 H   0  0  0  0  0  0  0  0  0  0  0  0
  1  2  1  0  0  0  0
  2  8  1  0  0  0  0
  4  1  1  0  0  0  0
  6  2  1  0  0  0  0
  6 10  1  0  0  0  0
  7  2  1  0  0  0  0
  9 13  1  0  0  0  0
  9  6  1  0  0  0  0
  9 12  1  0  0  0  0
 11  6  1  0  0  0  0
 14  9  1  0  0  0  0
M  RAD  3   1   3   3   2   5   2
M  END
$$$$
