14
butane_opt
C  -3.994842   0.154540   0.167461
C  -2.749448  -0.516694  -0.062990
H  -4.790605  -0.341191  -0.747987
H  -3.693051   0.105259  -0.386879
H  -4.212637   1.667859   1.532085
C  -1.409258   0.257147  -0.174147
H  -2.894498  -1.021248  -0.993210
H  -2.682096  -1.369480   0.905048
C  -0.043850  -0.755754   0.176085
H  -1.558299   0.825857   0.616068
H  -1.459160   1.058069  -1.237470
H  -0.031141  -1.630229   1.121666
H   0.759865  -0.303033  -0.202620
H  -0.043081  -1.149722  -0.338871
