14
butane_opt
C  -3.967726   0.277396   0.188898
C  -2.755379  -0.673881  -0.248643
H  -4.582331   0.006377   0.914921
H  -4.505520   0.933865  -0.587203
H  -3.559772   1.019380   1.024672
C  -1.390950   0.146862  -0.175191
H  -2.605817  -1.371843  -1.134112
H  -2.732533  -1.057725   0.652631
C  -0.135568  -0.644935   0.247120
H  -1.464864   0.780339   0.612931
H  -1.186788   0.703813  -1.042441
H  -0.294624  -1.585274   1.262225
H   0.847068   0.002036   0.151958
H   0.009596  -1.129494  -0.508251
