butane_opt
 OpenBabel08242015403D

 14 10  0  0  0  0  0  0  0  0999 V2000
   -4.0210    0.3327    0.0182 C   0  0  0  0  0  0  0  0  0  0  0  0
   -2.7325   -0.6939    0.1078 C   0  0  0  0  0  0  0  0  0  0  0  0
   -4.9324   -0.1145    0.0367 H   0  0  0  0  0  0  0  0  0  0  0  0
   -3.9783    1.1533   -1.0214 H   0  0  0  0  0  0  0  0  0  0  0  0
   -4.0776    0.8870    0.8657 H   0  0  0  0  0  0  0  0  0  0  0  0
   -1.3252    0.1481   -0.0070 C   0  0  0  0  0  0  0  0  0  0  0  0
   -2.5874   -1.3610   -0.7283 H   0  0  0  0  0  0  0  0  0  0  0  0
   -2.8957   -1.4009    1.0725 H   0  0  0  0  0  0  0  0  0  0  0  0
   -0.1137   -0.6471    0.0303 C   0  0  0  0  0  1  0  0  0  0  0  0
   -1.4969    0.4796    0.5804 H   0  0  0  0  0  0  0  0  0  0  0  0
   -1.3574    0.7450   -1.0919 H   0  0  0  0  0  0  0  0  0  0  0  0
   -0.4375   -0.6265    0.5055 H   0  0  0  0  0  0  0  0  0  0  0  0
    0.9598    0.0758    0.6333 H   0  0  0  0  0  0  0  0  0  0  0  0
    0.0388   -1.9368   -1.2692 H   0  0  0  0  0  0  0  0  0  0  0  0
  1  3  1  0  0  0  0
  1  2  1  0  0  0  0
  1  5  1  0  0  0  0
  2  8  1  0  0  0  0
  4  1  1  0  0  0  0
  6 12  1  0  0  0  0
  6 10  1  0  0  0  0
  7  2  1  0  0  0  0
  9 13  1  0  0  0  0
 11  6  1  0  0  0  0
M  RAD  3   2   2   6   2  14   2
M  END
$$$$
