butane_opt
 OpenBabel08242015403D

 14 13  0  0  0  0  0  0  0  0999 V2000
   -3.9677    0.2774    0.1889 C   0  0  0  0  0  0  0  0  0  0  0  0
   -2.7554   -0.6739   -0.2486 C   0  0  0  0  0  0  0  0  0  0  0  0
   -4.5823    0.0064    0.9149 H   0  0  0  0  0  0  0  0  0  0  0  0
   -4.5055    0.9339   -0.5872 H   0  0  0  0  0  0  0  0  0  0  0  0
   -3.5598    1.0194    1.0247 H   0  0  0  0  0  0  0  0  0  0  0  0
   -1.3909    0.1469   -0.1752 C   0  0  0  0  0  0  0  0  0  0  0  0
   -2.6058   -1.3718   -1.1341 H   0  0  0  0  0  0  0  0  0  0  0  0
   -2.7325   -1.0577    0.6526 H   0  0  0  0  0  0  0  0  0  0  0  0
   -0.1356   -0.6449    0.2471 C   0  0  0  0  0  0  0  0  0  0  0  0
   -1.4649    0.7803    0.6129 H   0  0  0  0  0  0  0  0  0  0  0  0
   -1.1868    0.7038   -1.0424 H   0  0  0  0  0  0  0  0  0  0  0  0
   -0.2946   -1.5853    1.2622 H   0  0  0  0  0  0  0  0  0  0  0  0
    0.8471    0.0020    0.1520 H   0  0  0  0  0  0  0  0  0  0  0  0
    0.0096   -1.1295   -0.5083 H   0  0  0  0  0  0  0  0  0  0  0  0
  1  3  1  0  0  0  0
  1  5  1  0  0  0  0
  2  6  1  0  0  0  0
  2  1  1  0  0  0  0
  2  8  1  0  0  0  0
  4  1  1  0  0  0  0
  6  9  1  0  0  0  0
  6 10  1  0  0  0  0
  7  2  1  0  0  0  0
  9 12  1  0  0  0  0
 11  6  1  0  0  0  0
 13  9  1  0  0  0  0
 14  9  1  0  0  0  0
M  END
$$$$
