14
butane_opt
C  -4.008494   0.213209   0.173306
C  -2.660378  -0.605363  -0.071504
H  -5.015254  -0.380068   0.300193
H  -4.149566   0.764604  -0.639815
H  -3.770159   1.049502   1.165680
C  -1.406825   0.311179  -0.233859
H  -3.116694  -1.667325  -1.141374
H  -2.617925  -1.146583   0.686719
C  -0.092213  -0.711614   0.185246
H  -1.414580   0.788349   0.420992
H  -1.367383   1.026337  -1.233178
H  -0.448777  -1.318596   1.162827
H   0.530889  -0.370845   0.755323
H   0.396230  -1.734133  -0.678173
