14
butane_opt
C  -3.886802   0.203948   0.163210
C  -2.679929  -0.536959  -0.173767
H  -4.945250  -0.533602   0.494949
H  -4.410339   0.880472  -0.688265
H  -3.478769   1.134413   1.237023
C  -1.435790   0.180284  -0.125422
H  -2.699488  -1.595578  -1.182045
H  -2.396737  -0.978777   0.538055
C  -0.188359  -0.716131   0.230335
H  -1.641474   0.676189   0.544362
H  -1.256554   1.074357  -1.295813
H  -0.348574  -1.481608   1.273334
H   0.604085  -0.157548  -0.027123
H  -0.094796  -1.092826  -0.578512
