14
butane_opt
C  -3.882124   0.213430  -0.155126
C  -2.725450  -0.482760   0.319807
H  -4.985657  -0.577697  -0.703999
H  -3.201123   0.405594  -0.838652
H  -4.282786   1.103978   0.872857
C  -1.468076   0.198605   0.151684
H  -2.613612  -1.309333  -0.566154
H  -2.928386  -1.112423   1.180578
C  -0.193318  -0.751782  -0.153604
H  -1.219415   0.976056   1.022882
H  -1.547708   0.930950  -0.938289
H   0.116402  -1.411282   0.723264
H   0.844069  -0.248800  -0.164256
H   0.007765  -1.376622  -1.034175
