butane_opt
 OpenBabel08242015403D

 14  8  0  0  0  0  0  0  0  0999 V2000
   -3.8455    0.2311    0.1760 C   0  0  0  0  0 15  0  0  0  0  0  0
   -2.7422   -0.5048   -0.0603 C   0  0  0  0  0  0  0  0  0  0  0  0
   -4.9364   -0.5371   -0.6685 H   0  0  0  0  0  0  0  0  0  0  0  0
   -3.6016   -0.0586   -0.1264 H   0  0  0  0  0  0  0  0  0  0  0  0
   -4.1898    1.4488    1.4221 H   0  0  0  0  0  0  0  0  0  0  0  0
   -1.4802    0.2027   -0.1993 C   0  0  0  0  0  0  0  0  0  0  0  0
   -2.7032   -1.2402   -0.8875 H   0  0  0  0  0  0  0  0  0  0  0  0
   -2.4267   -1.2846    0.8060 H   0  0  0  0  0  0  0  0  0  0  0  0
   -0.1604   -0.7192    0.1531 C   0  0  0  0  0  0  0  0  0  0  0  0
   -1.7186    0.7981    0.4951 H   0  0  0  0  0  0  0  0  0  0  0  0
   -1.2732    0.8479   -1.2898 H   0  0  0  0  0  0  0  0  0  0  0  0
   -0.1753   -1.8215    1.2536 H   0  0  0  0  0  0  0  0  0  0  0  0
    0.7557   -0.1544    0.1399 H   0  0  0  0  0  0  0  0  0  0  0  0
   -0.0019   -1.0070   -0.4138 H   0  0  0  0  0  0  0  0  0  0  0  0
  2  8  1  0  0  0  0
  4  2  1  0  0  0  0
  6  9  1  0  0  0  0
  6 10  1  0  0  0  0
  7  2  1  0  0  0  0
 11  6  1  0  0  0  0
 13  9  1  0  0  0  0
 14  9  1  0  0  0  0
M  RAD  6   2   2   3   2   5   2   6   2   9   2  12   2
M  END
$$$$
