butane_opt
 OpenBabel08242015403D

 14 11  0  0  0  0  0  0  0  0999 V2000
   -3.9751    0.2276    0.0645 C   0  0  0  0  0  0  0  0  0  0  0  0
   -2.7097   -0.5690    0.0311 C   0  0  0  0  0  0  0  0  0  0  0  0
   -4.7138   -0.1934    0.3883 H   0  0  0  0  0  0  0  0  0  0  0  0
   -4.1051    0.8096   -0.7925 H   0  0  0  0  0  0  0  0  0  0  0  0
   -3.6708    0.7815    0.8848 H   0  0  0  0  0  0  0  0  0  0  0  0
   -1.4441    0.1980   -0.1155 C   0  0  0  0  0  0  0  0  0  0  0  0
   -2.5246   -1.4570   -0.8885 H   0  0  0  0  0  0  0  0  0  0  0  0
   -2.8269   -1.1851    0.8742 H   0  0  0  0  0  0  0  0  0  0  0  0
   -0.1348   -0.6844    0.1168 C   0  0  0  0  0  0  0  0  0  0  0  0
   -1.3035    0.6109    0.5532 H   0  0  0  0  0  0  0  0  0  0  0  0
   -1.2509    1.1601   -1.1386 H   0  0  0  0  0  0  0  0  0  0  0  0
   -0.2281   -0.8933    0.5976 H   0  0  0  0  0  0  0  0  0  0  0  0
    0.6164   -0.2275    0.8531 H   0  0  0  0  0  0  0  0  0  0  0  0
    0.1378   -1.9480   -1.0675 H   0  0  0  0  0  0  0  0  0  0  0  0
  1  3  1  0  0  0  0
  1  5  1  0  0  0  0
  2  1  1  0  0  0  0
  2  8  1  0  0  0  0
  4  1  1  0  0  0  0
  6  2  1  0  0  0  0
  6  9  1  0  0  0  0
  6 10  1  0  0  0  0
  7  2  1  0  0  0  0
  9 13  1  0  0  0  0
 11  6  1  0  0  0  0
M  RAD  3   9   3  12   2  14   2
M  END
$$$$
