butane_opt
 OpenBabel08242015403D

 14  9  0  0  0  0  0  0  0  0999 V2000
   -4.0050    0.2813    0.0852 C   0  0  0  0  0  0  0  0  0  0  0  0
   -2.6875   -0.6561   -0.0770 C   0  0  0  0  0  0  0  0  0  0  0  0
   -4.8266   -0.2275   -0.2409 H   0  0  0  0  0  0  0  0  0  0  0  0
   -4.0090    0.7094   -0.5850 H   0  0  0  0  0  0  0  0  0  0  0  0
   -4.2083    1.5555    1.3097 H   0  0  0  0  0  0  0  0  0  0  0  0
   -1.3728    0.1316    0.0065 C   0  0  0  0  0  0  0  0  0  0  0  0
   -2.7055   -1.4969   -1.0835 H   0  0  0  0  0  0  0  0  0  0  0  0
   -2.8026   -1.1308    0.6960 H   0  0  0  0  0  0  0  0  0  0  0  0
   -0.1036   -0.6766    0.1104 C   0  0  0  0  0  0  0  0  0  0  0  0
   -1.1222    0.5778    0.7078 H   0  0  0  0  0  0  0  0  0  0  0  0
   -1.4028    1.0768   -1.0127 H   0  0  0  0  0  0  0  0  0  0  0  0
   -0.2823   -1.7740    1.3273 H   0  0  0  0  0  0  0  0  0  0  0  0
    0.9654   -0.0195   -0.7155 H   0  0  0  0  0  0  0  0  0  0  0  0
   -0.5600   -0.6899   -0.3438 H   0  0  0  0  0  0  0  0  0  0  0  0
  2  1  1  0  0  0  0
  2  8  1  0  0  0  0
  3  1  1  0  0  0  0
  4  1  1  0  0  0  0
  6 10  1  0  0  0  0
  7  2  1  0  0  0  0
 11  6  1  0  0  0  0
 13  9  1  0  0  0  0
 14  9  1  0  0  0  0
M  RAD  6   1   2   2   2   5   2   6   3   9   3  12   2
M  END
$$$$
