14
butane_opt
C  -3.968934   0.254416   0.201966
C  -2.764444  -0.642775  -0.132727
H  -4.990378  -0.465839   0.260983
H  -4.163762   0.647323  -0.463661
H  -3.603178   0.972968   1.066141
C  -1.382986   0.279407  -0.169053
H  -2.759744  -1.261536  -1.052384
H  -2.860604  -0.937431   0.607214
C  -0.088104  -0.736065   0.192791
H  -1.517279   0.660761   0.353969
H  -1.153481   1.268856  -1.433473
H  -0.332898  -1.298655   1.043825
H   0.521668  -0.487818   0.650742
H   0.324941  -1.519497  -0.681652
