butane_opt
 OpenBabel08242015403D

 14 13  0  0  0  0  0  0  0  0999 V2000
   -3.9544    0.2250   -0.1037 C   0  0  0  0  0  0  0  0  0  0  0  0
   -2.6590   -0.5272    0.0936 C   0  0  0  0  0  0  0  0  0  0  0  0
   -4.9684   -0.4468    0.0685 H   0  0  0  0  0  0  0  0  0  0  0  0
   -3.7265    0.9118   -1.1303 H   0  0  0  0  0  0  0  0  0  0  0  0
   -3.7363    0.7359    0.6605 H   0  0  0  0  0  0  0  0  0  0  0  0
   -1.4224    0.1854    0.2192 C   0  0  0  0  0  0  0  0  0  0  0  0
   -2.5285   -1.1373   -0.6408 H   0  0  0  0  0  0  0  0  0  0  0  0
   -2.9180   -1.4228    1.1323 H   0  0  0  0  0  0  0  0  0  0  0  0
   -0.1826   -0.7108   -0.0796 C   0  0  0  0  0  0  0  0  0  0  0  0
   -1.1983    1.0318    1.0890 H   0  0  0  0  0  0  0  0  0  0  0  0
   -1.7971    0.8179   -0.6817 H   0  0  0  0  0  0  0  0  0  0  0  0
   -0.0116   -1.5197    1.0506 H   0  0  0  0  0  0  0  0  0  0  0  0
    0.7329   -0.0562   -0.5096 H   0  0  0  0  0  0  0  0  0  0  0  0
   -0.2754   -1.4627   -1.1388 H   0  0  0  0  0  0  0  0  0  0  0  0
  1  3  1  0  0  0  0
  1  2  1  0  0  0  0
  1  5  1  0  0  0  0
  2  6  1  0  0  0  0
  2  8  1  0  0  0  0
  4  1  1  0  0  0  0
  6 10  1  0  0  0  0
  7  2  1  0  0  0  0
  9  6  1  0  0  0  0
  9 12  1  0  0  0  0
 11  6  1  0  0  0  0
 13  9  1  0  0  0  0
 14  9  1  0  0  0  0
M  END
$$$$
