14
butane_opt
C  -3.938926   0.248447  -0.004622
C  -2.699374  -0.599071   0.050351
H  -4.864688  -0.339119   0.173139
H  -3.967909   0.983421  -0.980992
H  -3.890629   0.806981   0.770912
C  -1.418032   0.200324   0.039182
H  -2.697889  -1.257188  -0.772774
H  -2.720808  -1.268775   0.954833
C  -0.161359  -0.698238   0.007587
H  -1.355131   0.908457   0.931762
H  -1.414667   0.760063  -0.793166
H  -0.143124  -1.299463   0.878940
H   0.717016  -0.133815   0.045749
H  -0.073618  -1.449213  -0.896554
