butane_opt
 OpenBabel08242015403D

 14 12  0  0  0  0  0  0  0  0999 V2000
   -3.9721    0.2990   -0.0775 C   0  0  0  0  0  0  0  0  0  0  0  0
   -2.6074   -0.6480    0.1639 C   0  0  0  0  0  0  0  0  0  0  0  0
   -4.9838   -0.3013   -0.2016 H   0  0  0  0  0  0  0  0  0  0  0  0
   -3.8297    1.4240   -1.2681 H   0  0  0  0  0  0  0  0  0  0  0  0
   -4.1877    0.8065    0.4787 H   0  0  0  0  0  0  0  0  0  0  0  0
   -1.3567    0.0615    0.2133 C   0  0  0  0  0  0  0  0  0  0  0  0
   -2.5297   -1.3476   -0.6554 H   0  0  0  0  0  0  0  0  0  0  0  0
   -2.6175   -1.1502    0.8506 H   0  0  0  0  0  0  0  0  0  0  0  0
   -0.2233   -0.6155   -0.1157 C   0  0  0  0  0  0  0  0  0  0  0  0
   -1.4731    0.7652    1.1434 H   0  0  0  0  0  0  0  0  0  0  0  0
   -1.3455    0.5951   -0.5263 H   0  0  0  0  0  0  0  0  0  0  0  0
   -0.1629   -1.3287    0.8338 H   0  0  0  0  0  0  0  0  0  0  0  0
    0.7288    0.0320   -0.5242 H   0  0  0  0  0  0  0  0  0  0  0  0
   -0.6956   -1.1274   -0.9550 H   0  0  0  0  0  0  0  0  0  0  0  0
  1  2  1  0  0  0  0
  1  5  1  0  0  0  0
  2  6  1  0  0  0  0
  2  8  1  0  0  0  0
  3  1  1  0  0  0  0
  6 10  1  0  0  0  0
  7  2  1  0  0  0  0
  9  6  1  0  0  0  0
  9 12  1  0  0  0  0
 11  6  1  0  0  0  0
 13  9  1  0  0  0  0
 14  9  1  0  0  0  0
M  RAD  2   1   2   4   2
M  END
$$$$
