butane_opt
 OpenBabel08242015403D

 14 13  0  0  0  0  0  0  0  0999 V2000
   -4.0298    0.3347   -0.1050 C   0  0  0  0  0  0  0  0  0  0  0  0
   -2.6534   -0.7239    0.2216 C   0  0  0  0  0  0  0  0  0  0  0  0
   -4.9338   -0.1775   -0.4474 H   0  0  0  0  0  0  0  0  0  0  0  0
   -3.7856    0.9775   -1.1661 H   0  0  0  0  0  0  0  0  0  0  0  0
   -4.3120    0.9597    0.6998 H   0  0  0  0  0  0  0  0  0  0  0  0
   -1.3813    0.1709    0.1510 C   0  0  0  0  0  0  0  0  0  0  0  0
   -2.5658   -1.3220   -0.6371 H   0  0  0  0  0  0  0  0  0  0  0  0
   -2.8460   -1.6478    1.2406 H   0  0  0  0  0  0  0  0  0  0  0  0
   -0.1318   -0.5984   -0.1273 C   0  0  0  0  0  0  0  0  0  0  0  0
   -1.1968    0.9291    1.1587 H   0  0  0  0  0  0  0  0  0  0  0  0
   -1.4042    0.5278   -0.5492 H   0  0  0  0  0  0  0  0  0  0  0  0
   -0.0968   -1.2275    0.7834 H   0  0  0  0  0  0  0  0  0  0  0  0
    0.6372   -0.2361   -0.3025 H   0  0  0  0  0  0  0  0  0  0  0  0
   -0.1886   -1.4255   -1.0528 H   0  0  0  0  0  0  0  0  0  0  0  0
  1  2  1  0  0  0  0
  1  5  1  0  0  0  0
  2  8  1  0  0  0  0
  3  1  1  0  0  0  0
  4  1  1  0  0  0  0
  6  2  1  0  0  0  0
  6 10  1  0  0  0  0
  7  2  1  0  0  0  0
  9  6  1  0  0  0  0
  9 12  1  0  0  0  0
 11  6  1  0  0  0  0
 13  9  1  0  0  0  0
 14  9  1  0  0  0  0
M  END
$$$$
