butane_opt
 OpenBabel08242015403D

 14  9  0  0  0  0  0  0  0  0999 V2000
   -3.9421    0.2062    0.1646 C   0  0  0  0  0  1  0  0  0  0  0  0
   -2.7812   -0.5262   -0.0916 C   0  0  0  0  0  0  0  0  0  0  0  0
   -4.8780   -0.3707   -0.5132 H   0  0  0  0  0  0  0  0  0  0  0  0
   -3.8445    0.1615   -0.2294 H   0  0  0  0  0  0  0  0  0  0  0  0
   -4.1416    1.4165    1.4156 H   0  0  0  0  0  0  0  0  0  0  0  0
   -1.4378    0.2475   -0.1748 C   0  0  0  0  0  0  0  0  0  0  0  0
   -2.8723   -1.3554   -0.8676 H   0  0  0  0  0  0  0  0  0  0  0  0
   -2.7242   -1.1714    0.8056 H   0  0  0  0  0  0  0  0  0  0  0  0
   -0.0573   -0.7407    0.1475 C   0  0  0  0  0  0  0  0  0  0  0  0
   -1.3831    0.5903    0.4290 H   0  0  0  0  0  0  0  0  0  0  0  0
   -1.6699    0.9547   -1.1027 H   0  0  0  0  0  0  0  0  0  0  0  0
   -0.0030   -1.7517    1.2123 H   0  0  0  0  0  0  0  0  0  0  0  0
    0.8405   -0.1667    0.1720 H   0  0  0  0  0  0  0  0  0  0  0  0
    0.2656   -1.0010   -0.3000 H   0  0  0  0  0  0  0  0  0  0  0  0
  2  8  1  0  0  0  0
  3  1  1  0  0  0  0
  4  2  1  0  0  0  0
  6  9  1  0  0  0  0
  6 10  1  0  0  0  0
  7  2  1  0  0  0  0
  9 13  1  0  0  0  0
  9 12  1  0  0  0  0
 11  6  1  0  0  0  0
M  RAD  5   2   2   5   2   6   2   9   2  14   2
M  END
$$$$
