14
butane_opt
C  -3.972147   0.299038  -0.077454
C  -2.607437  -0.647987   0.163887
H  -4.983777  -0.301255  -0.201610
H  -3.829694   1.424024  -1.268057
H  -4.187685   0.806507   0.478691
C  -1.356725   0.061512   0.213315
H  -2.529652  -1.347589  -0.655439
H  -2.617524  -1.150165   0.850562
C  -0.223339  -0.615536  -0.115716
H  -1.473092   0.765228   1.143384
H  -1.345470   0.595137  -0.526272
H  -0.162879  -1.328682   0.833837
H   0.728828   0.031984  -0.524183
H  -0.695620  -1.127449  -0.954953
