butane_opt
 OpenBabel08242015403D

 14 13  0  0  0  0  0  0  0  0999 V2000
   -3.9356    0.2577    0.0350 C   0  0  0  0  0  0  0  0  0  0  0  0
   -2.6941   -0.6035    0.0350 C   0  0  0  0  0  0  0  0  0  0  0  0
   -4.8995   -0.3825   -0.0966 H   0  0  0  0  0  0  0  0  0  0  0  0
   -3.8713    0.7230   -0.7742 H   0  0  0  0  0  0  0  0  0  0  0  0
   -3.9700    1.0253    0.9544 H   0  0  0  0  0  0  0  0  0  0  0  0
   -1.4177    0.1988   -0.0116 C   0  0  0  0  0  0  0  0  0  0  0  0
   -2.7464   -1.2959   -0.8207 H   0  0  0  0  0  0  0  0  0  0  0  0
   -2.6891   -1.1952    0.8987 H   0  0  0  0  0  0  0  0  0  0  0  0
   -0.1584   -0.6973    0.0434 C   0  0  0  0  0  0  0  0  0  0  0  0
   -1.3974    0.8120    0.7805 H   0  0  0  0  0  0  0  0  0  0  0  0
   -1.4175    0.8713   -0.9266 H   0  0  0  0  0  0  0  0  0  0  0  0
   -0.1632   -1.4339    0.9851 H   0  0  0  0  0  0  0  0  0  0  0  0
    0.7289   -0.1320    0.0338 H   0  0  0  0  0  0  0  0  0  0  0  0
   -0.1235   -1.3443   -0.7932 H   0  0  0  0  0  0  0  0  0  0  0  0
  1  2  1  0  0  0  0
  1  5  1  0  0  0  0
  2  8  1  0  0  0  0
  3  1  1  0  0  0  0
  4  1  1  0  0  0  0
  6  2  1  0  0  0  0
  6  9  1  0  0  0  0
  6 10  1  0  0  0  0
  7  2  1  0  0  0  0
  9 12  1  0  0  0  0
 11  6  1  0  0  0  0
 13  9  1  0  0  0  0
 14  9  1  0  0  0  0
M  END
$$$$
