14
butane_opt
C  -3.905517   0.200884   0.166535
C  -2.777692  -0.559597  -0.133890
H  -4.920472  -0.415626  -0.114176
H  -3.920239   0.415238  -0.531568
H  -3.883827   1.312544   1.426477
C  -1.406394   0.319812  -0.149205
H  -2.759567  -1.419145  -1.138462
H  -2.754572  -1.070440   0.672456
C  -0.114027  -0.748826   0.184771
H  -1.563525   0.895218   0.508338
H  -1.143791   0.774632  -0.957805
H   0.149702  -2.079625   1.556361
H   0.652721  -0.446857  -0.393627
H  -0.368255  -0.999674  -0.287671
