14
butane_opt
C  -4.015119   0.300998  -0.115211
C  -2.685264  -0.680720   0.117095
H  -4.865330  -0.271326   0.394487
H  -4.446436   1.486436  -1.284162
H  -3.886977   0.550200   0.600650
C  -1.374498   0.172605   0.190673
H  -2.371985  -1.218627  -0.636009
H  -2.745932  -1.515137   1.143864
C  -0.158174  -0.676868  -0.103515
H  -1.379178   0.893604   0.967139
H  -1.317765   0.638232  -0.476028
H  -0.203175  -0.968246   0.587715
H   1.097952   0.086412   0.099057
H  -0.104625  -1.495666  -1.122518
