14
butane_opt
C  -3.977277   0.321451  -0.177669
C  -2.669040  -0.755788   0.274064
H  -4.871037  -0.186534  -0.481333
H  -3.936168   1.011079  -1.006194
H  -4.267425   1.248666   0.750018
C  -1.359646   0.171954   0.212430
H  -2.183998  -1.264352  -0.523923
H  -2.901493  -1.374804   1.250414
C  -0.240167  -0.651710  -0.136963
H  -1.062650   0.779374   0.912272
H  -1.383899   0.710497  -0.671670
H   0.238549  -1.150629   0.540501
H   0.792421   0.099521  -0.254604
H  -0.501967  -1.374329  -1.099550
