14
butane_opt
C  -3.947089   0.178145  -0.116296
C  -2.738518  -0.553838   0.101123
H  -4.951959  -0.509650   0.772768
H  -4.191761   1.678426  -1.498499
H  -3.741958   0.209729   0.391570
C  -1.418840   0.331217   0.195419
H  -2.749111  -1.299619  -0.772793
H  -2.674651  -1.335407   1.191496
C  -0.108541  -0.780061  -0.118802
H  -1.148806   1.124538   1.288121
H  -1.577388   0.689490  -0.488895
H  -0.289566  -1.170028   0.740403
H   0.640891  -0.266973   0.169818
H   0.282220  -1.718608  -1.223301
