butane_opt
 OpenBabel08242015403D

 14 11  0  0  0  0  0  0  0  0999 V2000
   -3.9294    0.2246    0.1472 C   0  0  0  0  0  0  0  0  0  0  0  0
   -2.8133   -0.5101   -0.1228 C   0  0  0  0  0  0  0  0  0  0  0  0
   -5.0252   -0.4968   -0.3197 H   0  0  0  0  0  0  0  0  0  0  0  0
   -3.9895    0.6546   -0.5718 H   0  0  0  0  0  0  0  0  0  0  0  0
   -4.0338    0.9835    1.1268 H   0  0  0  0  0  0  0  0  0  0  0  0
   -1.3797    0.2253   -0.0630 C   0  0  0  0  0  0  0  0  0  0  0  0
   -2.9556   -1.4514   -1.0810 H   0  0  0  0  0  0  0  0  0  0  0  0
   -2.9192   -1.2091    0.8994 H   0  0  0  0  0  0  0  0  0  0  0  0
   -0.0319   -0.7505    0.1161 C   0  0  0  0  0  0  0  0  0  0  0  0
   -1.6364    1.0377    0.8391 H   0  0  0  0  0  0  0  0  0  0  0  0
   -1.4525    0.8387   -0.8492 H   0  0  0  0  0  0  0  0  0  0  0  0
    0.1620   -2.0138    1.3173 H   0  0  0  0  0  0  0  0  0  0  0  0
    0.8090   -0.2815   -0.5534 H   0  0  0  0  0  0  0  0  0  0  0  0
   -0.0968   -0.8052   -0.2473 H   0  0  0  0  0  0  0  0  0  0  0  0
  1  5  1  0  0  0  0
  2  6  1  0  0  0  0
  2  1  1  0  0  0  0
  2  8  1  0  0  0  0
  3  1  1  0  0  0  0
  4  1  1  0  0  0  0
  6  9  1  0  0  0  0
  6 10  1  0  0  0  0
  7  2  1  0  0  0  0
 11  6  1  0  0  0  0
 13  9  1  0  0  0  0
M  RAD  3   9   3  12   2  14   2
M  END
$$$$
