14
butane_opt
C  -3.944531   0.276598   0.053121
C  -2.695769  -0.629498   0.010762
H  -4.833886  -0.301946   0.048863
H  -3.966302   0.886827  -0.853923
H  -3.958449   0.912876   0.928746
C  -1.412788   0.170611  -0.031144
H  -2.750375  -1.308999  -0.840407
H  -2.625573  -1.204588   0.882969
C  -0.157648  -0.687222   0.065105
H  -1.384065   0.816955   0.807220
H  -1.374979   0.840252  -0.952323
H  -0.272582  -1.233610   0.933228
H   0.780113  -0.057976   0.115623
H  -0.111335  -1.386000  -0.816904
