butane_opt
 OpenBabel08242015403D

 14 10  0  0  0  0  0  0  0  0999 V2000
   -3.9471    0.1781   -0.1163 C   0  0  0  0  0  1  0  0  0  0  0  0
   -2.7385   -0.5538    0.1011 C   0  0  0  0  0  0  0  0  0  0  0  0
   -4.9520   -0.5097    0.7728 H   0  0  0  0  0  0  0  0  0  0  0  0
   -4.1918    1.6784   -1.4985 H   0  0  0  0  0  0  0  0  0  0  0  0
   -3.7420    0.2097    0.3916 H   0  0  0  0  0  0  0  0  0  0  0  0
   -1.4188    0.3312    0.1954 C   0  0  0  0  0  0  0  0  0  0  0  0
   -2.7491   -1.2996   -0.7728 H   0  0  0  0  0  0  0  0  0  0  0  0
   -2.6747   -1.3354    1.1915 H   0  0  0  0  0  0  0  0  0  0  0  0
   -0.1085   -0.7801   -0.1188 C   0  0  0  0  0  0  0  0  0  0  0  0
   -1.1488    1.1245    1.2881 H   0  0  0  0  0  0  0  0  0  0  0  0
   -1.5774    0.6895   -0.4889 H   0  0  0  0  0  0  0  0  0  0  0  0
   -0.2896   -1.1700    0.7404 H   0  0  0  0  0  0  0  0  0  0  0  0
    0.6409   -0.2670    0.1698 H   0  0  0  0  0  0  0  0  0  0  0  0
    0.2822   -1.7186   -1.2233 H   0  0  0  0  0  0  0  0  0  0  0  0
  1  3  1  0  0  0  0
  2  5  1  0  0  0  0
  2  8  1  0  0  0  0
  6 10  1  0  0  0  0
  7  2  1  0  0  0  0
  9 13  1  0  0  0  0
  9  6  1  0  0  0  0
  9 12  1  0  0  0  0
 11  6  1  0  0  0  0
 14  9  1  0  0  0  0
M  RAD  3   2   2   4   2   6   2
M  END
$$$$
