14
butane_opt
C  -3.924982   0.285895  -0.153417
C  -2.697030  -0.595440   0.231953
H  -4.869579  -0.439197  -0.727143
H  -3.998565   0.641921  -0.924360
H  -4.178184   1.440592   1.056467
C  -1.356507   0.108689   0.132274
H  -2.504633  -1.063514  -0.454861
H  -2.713793  -1.575944   1.355291
C  -0.230185  -0.674317  -0.128666
H  -1.155157   0.877610   1.096283
H  -1.455108   0.716275  -0.579854
H  -0.027069  -1.297130   0.843565
H   0.837099   0.029784  -0.274150
H  -0.422486  -1.299876  -0.924329
