14
butane_opt
C  -3.904988   0.288307   0.096516
C  -2.662298  -0.628936  -0.040871
H  -4.857086  -0.288080  -0.227807
H  -3.716186   0.541169  -0.601305
H  -4.223835   1.495654   1.199775
C  -1.366064   0.124233  -0.107770
H  -2.726146  -1.300621  -0.914285
H  -2.588696  -1.418805   1.076143
C  -0.231342  -0.640224   0.104855
H  -1.446829   0.852061   0.799302
H  -1.404670   0.682723  -0.894141
H  -0.363519  -1.647416   1.194585
H   0.594130   0.017191  -0.141823
H  -0.299249  -1.138285  -0.604499
