butane_opt
 OpenBabel08242015403D

 14 11  0  0  0  0  0  0  0  0999 V2000
   -3.8929    0.2818    0.1273 C   0  0  0  0  0  0  0  0  0  0  0  0
   -2.6717   -0.6573   -0.0583 C   0  0  0  0  0  0  0  0  0  0  0  0
   -4.6330   -0.1142   -0.5654 H   0  0  0  0  0  0  0  0  0  0  0  0
   -3.9256    0.2914   -0.4331 H   0  0  0  0  0  0  0  0  0  0  0  0
   -4.1652    1.8880    1.5330 H   0  0  0  0  0  0  0  0  0  0  0  0
   -1.3753    0.1212   -0.1202 C   0  0  0  0  0  0  0  0  0  0  0  0
   -2.4521   -1.2474   -0.8395 H   0  0  0  0  0  0  0  0  0  0  0  0
   -2.7903   -1.3692    0.9101 H   0  0  0  0  0  0  0  0  0  0  0  0
   -0.2776   -0.6588    0.1350 C   0  0  0  0  0  0  0  0  0  0  0  0
   -1.3656    0.5111    0.6067 H   0  0  0  0  0  0  0  0  0  0  0  0
   -1.2760    0.9011   -1.1447 H   0  0  0  0  0  0  0  0  0  0  0  0
   -0.3862   -1.5809    1.1942 H   0  0  0  0  0  0  0  0  0  0  0  0
    0.6938    0.1905   -0.2581 H   0  0  0  0  0  0  0  0  0  0  0  0
   -0.1269   -0.9575   -0.4527 H   0  0  0  0  0  0  0  0  0  0  0  0
  2  1  1  0  0  0  0
  2  8  1  0  0  0  0
  3  1  1  0  0  0  0
  6  2  1  0  0  0  0
  6  9  1  0  0  0  0
  6 10  1  0  0  0  0
  7  2  1  0  0  0  0
  9 12  1  0  0  0  0
 11  6  1  0  0  0  0
 13  9  1  0  0  0  0
 14  9  1  0  0  0  0
M  RAD  3   1   3   4   2   5   2
M  END
$$$$
