14
butane_opt
C  -3.935162   0.214846  -0.106943
C  -2.672613  -0.533701   0.082921
H  -5.000185  -0.457944   0.528616
H  -3.932523   1.401402  -1.363132
H  -3.649632   0.232797   0.264130
C  -1.402463   0.211384   0.219373
H  -2.789540  -0.906421  -0.479083
H  -2.859771  -1.339061   1.115605
C  -0.171520  -0.735072  -0.106458
H  -1.361767   1.237509   1.285041
H  -1.433741   0.575180  -0.524070
H  -0.145117  -1.124616   0.691886
H   0.575063  -0.263180  -0.200189
H  -0.217511  -1.752538  -1.072452
