14
butane_opt
C  -3.938474   0.191494  -0.127151
C  -2.691836  -0.579493   0.134648
H  -4.976094  -0.450138  -0.282991
H  -3.899437   1.083989  -1.346588
H  -4.103825   0.689968   0.660218
C  -1.466907   0.274158   0.269020
H  -2.659064  -1.176752  -0.634309
H  -2.802705  -1.301086   1.109721
C  -0.139614  -0.754350  -0.093392
H  -1.112545   1.207830   1.318864
H  -1.449761   0.895302  -0.500570
H   0.751475  -1.684362   0.846248
H   0.607937  -0.199933  -0.959924
H  -0.494736  -1.152058  -0.976500
