butane_opt
 OpenBabel08242015403D

 14 10  0  0  0  0  0  0  0  0999 V2000
   -4.0018    0.2440   -0.1313 C   0  0  0  0  0  0  0  0  0  0  0  0
   -2.8044   -0.5610    0.1092 C   0  0  0  0  0  0  0  0  0  0  0  0
   -4.9327   -0.4412    0.7111 H   0  0  0  0  0  0  0  0  0  0  0  0
   -4.0575    1.5055   -1.3572 H   0  0  0  0  0  0  0  0  0  0  0  0
   -3.3476    0.0022    0.1767 H   0  0  0  0  0  0  0  0  0  0  0  0
   -1.3579    0.2534    0.1880 C   0  0  0  0  0  0  0  0  0  0  0  0
   -2.7113   -1.2060   -0.5847 H   0  0  0  0  0  0  0  0  0  0  0  0
   -2.9351   -1.1149    1.0984 H   0  0  0  0  0  0  0  0  0  0  0  0
   -0.0794   -0.7511   -0.0936 C   0  0  0  0  0  0  0  0  0  0  0  0
   -1.2188    1.2433    1.3608 H   0  0  0  0  0  0  0  0  0  0  0  0
   -1.7851    0.5271   -0.4442 H   0  0  0  0  0  0  0  0  0  0  0  0
    0.0697   -1.1902    0.6276 H   0  0  0  0  0  0  0  0  0  0  0  0
    0.7725   -0.3048   -0.0549 H   0  0  0  0  0  0  0  0  0  0  0  0
    0.0035   -1.6948   -1.0744 H   0  0  0  0  0  0  0  0  0  0  0  0
  1  5  1  0  0  0  0
  1  3  1  0  0  0  0
  2  6  1  0  0  0  0
  2  8  1  0  0  0  0
  7  2  1  0  0  0  0
  9 13  1  0  0  0  0
  9  6  1  0  0  0  0
  9 12  1  0  0  0  0
 11  6  1  0  0  0  0
 14  9  1  0  0  0  0
M  RAD  5   1   3   2   2   4   2   6   2  10   2
M  END
$$$$
