14
butane_opt
C  -3.988209   0.220795   0.141201
C  -2.747264  -0.598335  -0.042765
H  -4.757375  -0.324115  -0.194442
H  -3.917028   0.423186  -0.380146
H  -3.910953   1.306833   1.419808
C  -1.338921   0.246459  -0.202660
H  -2.873312  -1.161675  -0.737321
H  -2.757171  -1.207954   0.707998
C  -0.130374  -0.725634   0.133051
H  -1.624783   0.877478   0.550163
H  -1.292817   1.024556  -1.200378
H  -0.572261  -1.387807   1.092420
H   0.454498  -0.340534   0.439921
H   0.683332  -1.436963  -0.596841
