butane_opt
 OpenBabel08242015403D

 14  9  0  0  0  0  0  0  0  0999 V2000
   -4.0159    0.3334   -0.1110 C   0  0  0  0  0  0  0  0  0  0  0  0
   -2.7005   -0.6790    0.1983 C   0  0  0  0  0  0  0  0  0  0  0  0
   -4.8868   -0.2448    0.3907 H   0  0  0  0  0  0  0  0  0  0  0  0
   -4.1983    1.6409   -1.3275 H   0  0  0  0  0  0  0  0  0  0  0  0
   -4.0009    0.3067    0.3083 H   0  0  0  0  0  0  0  0  0  0  0  0
   -1.3451    0.1291    0.1523 C   0  0  0  0  0  0  0  0  0  0  0  0
   -2.6029   -1.5669   -0.7344 H   0  0  0  0  0  0  0  0  0  0  0  0
   -2.6140   -1.1865    1.0080 H   0  0  0  0  0  0  0  0  0  0  0  0
   -0.1663   -0.6700   -0.1043 C   0  0  0  0  0  0  0  0  0  0  0  0
   -1.1935    1.0836    1.0392 H   0  0  0  0  0  0  0  0  0  0  0  0
   -1.1259    0.5350   -0.5924 H   0  0  0  0  0  0  0  0  0  0  0  0
   -0.2372   -0.8149    0.5022 H   0  0  0  0  0  0  0  0  0  0  0  0
    0.8419   -0.0441    0.1948 H   0  0  0  0  0  0  0  0  0  0  0  0
   -0.2570   -1.5305   -1.0970 H   0  0  0  0  0  0  0  0  0  0  0  0
  1  2  1  0  0  0  0
  1  3  1  0  0  0  0
  2  8  1  0  0  0  0
  6 10  1  0  0  0  0
  7  2  1  0  0  0  0
  9  6  1  0  0  0  0
  9 13  1  0  0  0  0
 11  6  1  0  0  0  0
 14  9  1  0  0  0  0
M  RAD  7   1   3   2   2   4   2   5   2   6   2   9   2  12   2
M  END
$$$$
