butane_opt
 OpenBabel08242015403D

 14 12  0  0  0  0  0  0  0  0999 V2000
   -4.0085    0.2132    0.1733 C   0  0  0  0  0  0  0  0  0  0  0  0
   -2.6604   -0.6054   -0.0715 C   0  0  0  0  0  0  0  0  0  0  0  0
   -5.0153   -0.3801    0.3002 H   0  0  0  0  0  0  0  0  0  0  0  0
   -4.1496    0.7646   -0.6398 H   0  0  0  0  0  0  0  0  0  0  0  0
   -3.7702    1.0495    1.1657 H   0  0  0  0  0  0  0  0  0  0  0  0
   -1.4068    0.3112   -0.2339 C   0  0  0  0  0  0  0  0  0  0  0  0
   -3.1167   -1.6673   -1.1414 H   0  0  0  0  0  0  0  0  0  0  0  0
   -2.6179   -1.1466    0.6867 H   0  0  0  0  0  0  0  0  0  0  0  0
   -0.0922   -0.7116    0.1852 C   0  0  0  0  0  0  0  0  0  0  0  0
   -1.4146    0.7883    0.4210 H   0  0  0  0  0  0  0  0  0  0  0  0
   -1.3674    1.0263   -1.2332 H   0  0  0  0  0  0  0  0  0  0  0  0
   -0.4488   -1.3186    1.1628 H   0  0  0  0  0  0  0  0  0  0  0  0
    0.5309   -0.3708    0.7553 H   0  0  0  0  0  0  0  0  0  0  0  0
    0.3962   -1.7341   -0.6782 H   0  0  0  0  0  0  0  0  0  0  0  0
  1  3  1  0  0  0  0
  1  5  1  0  0  0  0
  2  1  1  0  0  0  0
  2  8  1  0  0  0  0
  4  1  1  0  0  0  0
  6  2  1  0  0  0  0
  6  9  1  0  0  0  0
  6 10  1  0  0  0  0
  9 13  1  0  0  0  0
  9 12  1  0  0  0  0
 11  6  1  0  0  0  0
 14  9  1  0  0  0  0
M  RAD  2   2   2   7   2
M  END
$$$$
