14
butane_opt
C  -3.885293   0.337954   0.076816
C  -2.626307  -0.717186   0.015818
H  -4.959633  -0.370578   0.224189
H  -4.382064   0.905054  -0.698005
H  -3.747681   1.158465   1.073407
C  -1.414235   0.100600  -0.138352
H  -2.654957  -1.560659  -0.814967
H  -2.427580  -1.239693   0.819057
C  -0.248646  -0.610184   0.143803
H  -1.538162   0.542204   0.554959
H  -1.349009   1.209655  -1.411159
H  -0.603746  -0.779821   0.699588
H   0.596521   0.098565   0.868047
H   0.121307  -1.802658  -1.107247
