butane_opt
 OpenBabel08242015403D

 14 11  0  0  0  0  0  0  0  0999 V2000
   -3.9455    0.2078    0.1260 C   0  0  0  0  0  0  0  0  0  0  0  0
   -2.7622   -0.6556   -0.0268 C   0  0  0  0  0  0  0  0  0  0  0  0
   -4.8834   -0.2739    0.0070 H   0  0  0  0  0  0  0  0  0  0  0  0
   -4.2658    0.7839   -0.6122 H   0  0  0  0  0  0  0  0  0  0  0  0
   -3.7342    1.1342    1.1740 H   0  0  0  0  0  0  0  0  0  0  0  0
   -1.3648    0.2998   -0.1571 C   0  0  0  0  0  0  0  0  0  0  0  0
   -2.9548   -1.2669   -0.9304 H   0  0  0  0  0  0  0  0  0  0  0  0
   -2.8152   -0.8620    0.6820 H   0  0  0  0  0  0  0  0  0  0  0  0
   -0.0875   -0.7557    0.1737 C   0  0  0  0  0  0  0  0  0  0  0  0
   -1.4639    0.6868    0.3979 H   0  0  0  0  0  0  0  0  0  0  0  0
   -1.5448    1.3058   -1.3561 H   0  0  0  0  0  0  0  0  0  0  0  0
   -0.3323   -1.0928    1.0417 H   0  0  0  0  0  0  0  0  0  0  0  0
    0.7528   -0.2861    0.5355 H   0  0  0  0  0  0  0  0  0  0  0  0
    0.1718   -1.8348   -0.9072 H   0  0  0  0  0  0  0  0  0  0  0  0
  1  5  1  0  0  0  0
  2  1  1  0  0  0  0
  2  8  1  0  0  0  0
  3  1  1  0  0  0  0
  4  1  1  0  0  0  0
  6  2  1  0  0  0  0
  6  9  1  0  0  0  0
  6 10  1  0  0  0  0
  7  2  1  0  0  0  0
  9 13  1  0  0  0  0
  9 12  1  0  0  0  0
M  RAD  4   6   2   9   2  11   2  14   2
M  END
$$$$
