14
butane_opt
C  -3.959701   0.271935   0.000037
C  -2.697539  -0.625121   0.043578
H  -4.880148  -0.321791   0.024787
H  -3.981667   0.885470  -0.896534
H  -3.971138   0.908607   0.835203
C  -1.394442   0.180541   0.035288
H  -2.653133  -1.283969  -0.789882
H  -2.707777  -1.263175   0.973132
C  -0.161104  -0.692557   0.023008
H  -1.380057   0.943700   0.947918
H  -1.385270   0.770195  -0.830555
H  -0.060785  -1.360896   0.919524
H   0.751299  -0.062315  -0.159979
H  -0.203321  -1.305424  -0.808299
