butane_opt
 OpenBabel08242015403D

 14 13  0  0  0  0  0  0  0  0999 V2000
   -3.9267    0.2561    0.0117 C   0  0  0  0  0  0  0  0  0  0  0  0
   -2.7043   -0.6124    0.0546 C   0  0  0  0  0  0  0  0  0  0  0  0
   -4.8313   -0.3241    0.0447 H   0  0  0  0  0  0  0  0  0  0  0  0
   -3.9572    0.9275   -0.9174 H   0  0  0  0  0  0  0  0  0  0  0  0
   -3.9697    0.8807    0.8501 H   0  0  0  0  0  0  0  0  0  0  0  0
   -1.4155    0.1921    0.0087 C   0  0  0  0  0  0  0  0  0  0  0  0
   -2.6703   -1.2431   -0.7662 H   0  0  0  0  0  0  0  0  0  0  0  0
   -2.7207   -1.2813    0.9892 H   0  0  0  0  0  0  0  0  0  0  0  0
   -0.1646   -0.6986    0.0191 C   0  0  0  0  0  0  0  0  0  0  0  0
   -1.3958    0.8920    0.8623 H   0  0  0  0  0  0  0  0  0  0  0  0
   -1.4278    0.7711   -0.8532 H   0  0  0  0  0  0  0  0  0  0  0  0
   -0.2079   -1.2022    0.8311 H   0  0  0  0  0  0  0  0  0  0  0  0
    0.7179   -0.0968    0.1299 H   0  0  0  0  0  0  0  0  0  0  0  0
   -0.0248   -1.4446   -0.8773 H   0  0  0  0  0  0  0  0  0  0  0  0
  1  3  1  0  0  0  0
  1  2  1  0  0  0  0
  1  5  1  0  0  0  0
  2  8  1  0  0  0  0
  4  1  1  0  0  0  0
  6  9  1  0  0  0  0
  6  2  1  0  0  0  0
  6 10  1  0  0  0  0
  7  2  1  0  0  0  0
  9 13  1  0  0  0  0
  9 12  1  0  0  0  0
 11  6  1  0  0  0  0
 14  9  1  0  0  0  0
M  END
$$$$
