14
butane_opt
C  -3.938169   0.266890   0.003325
C  -2.697475  -0.621836   0.072313
H  -4.852676  -0.322645  -0.072854
H  -3.882330   0.828878  -0.858509
H  -4.013441   1.061728   0.913794
C  -1.407867   0.179639   0.013024
H  -2.730461  -1.309895  -0.794970
H  -2.702305  -1.212632   0.932258
C  -0.168466  -0.694821   0.018777
H  -1.338943   0.811674   0.840447
H  -1.420823   0.808755  -0.905188
H  -0.168093  -1.286830   0.907161
H   0.779082  -0.062973   0.015583
H  -0.153042  -1.342620  -0.813747
