14
butane_opt
C  -3.942634   0.254847  -0.002278
C  -2.711692  -0.615378   0.078336
H  -4.837182  -0.341517   0.029581
H  -3.937662   0.962866  -0.973898
H  -4.028959   0.864876   0.804597
C  -1.409637   0.203198   0.027386
H  -2.726124  -1.268508  -0.733653
H  -2.761540  -1.228827   0.971658
C  -0.142963  -0.701008   0.006688
H  -1.354196   0.873098   0.890017
H  -1.401012   0.810373  -0.864577
H  -0.161863  -1.203112   0.807637
H   0.720718  -0.129373   0.115586
H  -0.048042  -1.516940  -0.950875
