butane_opt
 OpenBabel08242015403D

 14 13  0  0  0  0  0  0  0  0999 V2000
   -3.9261    0.2513    0.0121 C   0  0  0  0  0  0  0  0  0  0  0  0
   -2.6965   -0.6030    0.0445 C   0  0  0  0  0  0  0  0  0  0  0  0
   -4.8359   -0.3519    0.0876 H   0  0  0  0  0  0  0  0  0  0  0  0
   -3.9131    0.9195   -0.9127 H   0  0  0  0  0  0  0  0  0  0  0  0
   -3.9369    0.8954    0.8640 H   0  0  0  0  0  0  0  0  0  0  0  0
   -1.4223    0.1953    0.0113 C   0  0  0  0  0  0  0  0  0  0  0  0
   -2.7651   -1.2776   -0.7816 H   0  0  0  0  0  0  0  0  0  0  0  0
   -2.7254   -1.2617    0.9601 H   0  0  0  0  0  0  0  0  0  0  0  0
   -0.1642   -0.7008    0.0308 C   0  0  0  0  0  0  0  0  0  0  0  0
   -1.4279    0.8574    0.8549 H   0  0  0  0  0  0  0  0  0  0  0  0
   -1.4039    0.8626   -0.9083 H   0  0  0  0  0  0  0  0  0  0  0  0
   -0.1316   -1.2115    0.8660 H   0  0  0  0  0  0  0  0  0  0  0  0
    0.7438   -0.1420    0.1208 H   0  0  0  0  0  0  0  0  0  0  0  0
   -0.1211   -1.4758   -0.9085 H   0  0  0  0  0  0  0  0  0  0  0  0
  1  2  1  0  0  0  0
  1  3  1  0  0  0  0
  1  5  1  0  0  0  0
  2  8  1  0  0  0  0
  4  1  1  0  0  0  0
  6  9  1  0  0  0  0
  6  2  1  0  0  0  0
  6 10  1  0  0  0  0
  7  2  1  0  0  0  0
  9 13  1  0  0  0  0
  9 12  1  0  0  0  0
 11  6  1  0  0  0  0
 14  9  1  0  0  0  0
M  END
$$$$
