butane_opt
 OpenBabel08242015403D

 14 13  0  0  0  0  0  0  0  0999 V2000
   -3.9510    0.2706    0.0050 C   0  0  0  0  0  0  0  0  0  0  0  0
   -2.6868   -0.6148    0.0666 C   0  0  0  0  0  0  0  0  0  0  0  0
   -4.8616   -0.3404    0.0331 H   0  0  0  0  0  0  0  0  0  0  0  0
   -3.9187    0.8706   -0.8812 H   0  0  0  0  0  0  0  0  0  0  0  0
   -3.9463    0.9127    0.8288 H   0  0  0  0  0  0  0  0  0  0  0  0
   -1.4032    0.1751    0.0079 C   0  0  0  0  0  0  0  0  0  0  0  0
   -2.6797   -1.3009   -0.7978 H   0  0  0  0  0  0  0  0  0  0  0  0
   -2.6926   -1.2550    0.9660 H   0  0  0  0  0  0  0  0  0  0  0  0
   -0.1713   -0.6863    0.0243 C   0  0  0  0  0  0  0  0  0  0  0  0
   -1.3580    0.8487    0.8803 H   0  0  0  0  0  0  0  0  0  0  0  0
   -1.4510    0.8311   -0.8945 H   0  0  0  0  0  0  0  0  0  0  0  0
   -0.2248   -1.2244    0.8539 H   0  0  0  0  0  0  0  0  0  0  0  0
    0.7651   -0.0925    0.1096 H   0  0  0  0  0  0  0  0  0  0  0  0
   -0.1142   -1.4570   -0.9105 H   0  0  0  0  0  0  0  0  0  0  0  0
  1  3  1  0  0  0  0
  1  2  1  0  0  0  0
  1  5  1  0  0  0  0
  2  8  1  0  0  0  0
  4  1  1  0  0  0  0
  6  9  1  0  0  0  0
  6  2  1  0  0  0  0
  6 10  1  0  0  0  0
  7  2  1  0  0  0  0
  9 13  1  0  0  0  0
  9 12  1  0  0  0  0
 11  6  1  0  0  0  0
 14  9  1  0  0  0  0
M  END
$$$$
