14
butane_opt
C  -3.934872   0.292890   0.081517
C  -2.656819  -0.653751   0.010884
H  -4.577791  -0.031060  -0.002941
H  -4.265072   0.834471  -0.601442
H  -3.898491   1.051666   0.886632
C  -1.368066   0.116467  -0.097534
H  -3.029635  -1.573645  -1.037304
H  -2.567833  -1.091371   0.764271
C  -0.216360  -0.643817   0.090739
H  -1.195544   0.761686   0.806494
H  -1.373946   0.911193  -1.185531
H  -0.583575  -1.274133   1.169186
H   0.693012  -0.040320   0.274644
H  -0.132907  -1.352278  -0.675597
