14
butane_opt
C  -3.960444   0.277764   0.026186
C  -2.700462  -0.631440   0.038127
H  -4.876339  -0.313976  -0.110311
H  -3.975074   0.760099  -0.779165
H  -3.990748   1.075208   0.988526
C  -1.398019   0.168591  -0.017932
H  -2.690404  -1.265158  -0.776721
H  -2.739735  -1.251958   0.928405
C  -0.149151  -0.676373   0.045483
H  -1.358101   0.842057   0.840944
H  -1.352741   0.825523  -0.900610
H  -0.159870  -1.364133   0.971938
H   0.752657  -0.107897  -0.019064
H  -0.139042  -1.339463  -0.793345
