butane_opt
 OpenBabel08242015403D

 14 13  0  0  0  0  0  0  0  0999 V2000
   -3.9480    0.2724   -0.0005 C   0  0  0  0  0  0  0  0  0  0  0  0
   -2.7042   -0.6337    0.0610 C   0  0  0  0  0  0  0  0  0  0  0  0
   -4.8315   -0.2949    0.0778 H   0  0  0  0  0  0  0  0  0  0  0  0
   -4.0515    0.9593   -0.9287 H   0  0  0  0  0  0  0  0  0  0  0  0
   -4.0068    0.8853    0.8433 H   0  0  0  0  0  0  0  0  0  0  0  0
   -1.3875    0.1788    0.0150 C   0  0  0  0  0  0  0  0  0  0  0  0
   -2.7560   -1.2516   -0.7452 H   0  0  0  0  0  0  0  0  0  0  0  0
   -2.7154   -1.2597    0.9484 H   0  0  0  0  0  0  0  0  0  0  0  0
   -0.1571   -0.6883    0.0162 C   0  0  0  0  0  0  0  0  0  0  0  0
   -1.3513    0.9079    0.8843 H   0  0  0  0  0  0  0  0  0  0  0  0
   -1.4254    0.7776   -0.8487 H   0  0  0  0  0  0  0  0  0  0  0  0
   -0.2043   -1.2103    0.8740 H   0  0  0  0  0  0  0  0  0  0  0  0
    0.7544   -0.0871    0.1235 H   0  0  0  0  0  0  0  0  0  0  0  0
   -0.0742   -1.4527   -0.9092 H   0  0  0  0  0  0  0  0  0  0  0  0
  1  2  1  0  0  0  0
  1  3  1  0  0  0  0
  1  5  1  0  0  0  0
  2  8  1  0  0  0  0
  4  1  1  0  0  0  0
  6  9  1  0  0  0  0
  6  2  1  0  0  0  0
  6 10  1  0  0  0  0
  7  2  1  0  0  0  0
  9 13  1  0  0  0  0
  9 12  1  0  0  0  0
 11  6  1  0  0  0  0
 14  9  1  0  0  0  0
M  END
$$$$
