14
butane_opt
C  -3.929836   0.257623   0.036856
C  -2.705013  -0.603734   0.022743
H  -4.859510  -0.353642   0.104947
H  -3.951178   0.819336  -0.803209
H  -3.906465   0.951748   0.911423
C  -1.418764   0.193026  -0.026428
H  -2.735003  -1.315085  -0.883471
H  -2.649419  -1.211898   0.899060
C  -0.162879  -0.703794   0.056980
H  -1.426877   0.809571   0.783293
H  -1.420086   0.859616  -0.930556
H  -0.188539  -1.266631   0.936888
H   0.770374  -0.085217   0.129342
H  -0.059919  -1.398859  -0.786779
