butane_opt
 OpenBabel08242015403D

 14 13  0  0  0  0  0  0  0  0999 V2000
   -3.9417    0.2535   -0.0157 C   0  0  0  0  0  0  0  0  0  0  0  0
   -2.6979   -0.6044    0.0907 C   0  0  0  0  0  0  0  0  0  0  0  0
   -4.8722   -0.3587   -0.1311 H   0  0  0  0  0  0  0  0  0  0  0  0
   -3.9028    0.8371   -0.8989 H   0  0  0  0  0  0  0  0  0  0  0  0
   -4.0460    0.9949    0.8791 H   0  0  0  0  0  0  0  0  0  0  0  0
   -1.4147    0.1901    0.0323 C   0  0  0  0  0  0  0  0  0  0  0  0
   -2.6951   -1.2559   -0.7347 H   0  0  0  0  0  0  0  0  0  0  0  0
   -2.7286   -1.2723    1.0115 H   0  0  0  0  0  0  0  0  0  0  0  0
   -0.1476   -0.7038    0.0019 C   0  0  0  0  0  0  0  0  0  0  0  0
   -1.3951    0.8708    0.9271 H   0  0  0  0  0  0  0  0  0  0  0  0
   -1.3926    0.8336   -0.8656 H   0  0  0  0  0  0  0  0  0  0  0  0
   -0.1109   -1.2540    0.8592 H   0  0  0  0  0  0  0  0  0  0  0  0
    0.7530   -0.0815   -0.0317 H   0  0  0  0  0  0  0  0  0  0  0  0
   -0.1992   -1.4185   -0.8933 H   0  0  0  0  0  0  0  0  0  0  0  0
  1  2  1  0  0  0  0
  1  5  1  0  0  0  0
  2  8  1  0  0  0  0
  3  1  1  0  0  0  0
  4  1  1  0  0  0  0
  6  2  1  0  0  0  0
  6 10  1  0  0  0  0
  7  2  1  0  0  0  0
  9  6  1  0  0  0  0
  9 12  1  0  0  0  0
 11  6  1  0  0  0  0
 13  9  1  0  0  0  0
 14  9  1  0  0  0  0
M  END
$$$$
