butane_opt
 OpenBabel08242015403D

 14 13  0  0  0  0  0  0  0  0999 V2000
   -3.9308    0.2649    0.0121 C   0  0  0  0  0  0  0  0  0  0  0  0
   -2.7009   -0.6206    0.0567 C   0  0  0  0  0  0  0  0  0  0  0  0
   -4.8292   -0.3034    0.0684 H   0  0  0  0  0  0  0  0  0  0  0  0
   -3.9453    0.9217   -0.9337 H   0  0  0  0  0  0  0  0  0  0  0  0
   -3.9676    0.9403    0.8701 H   0  0  0  0  0  0  0  0  0  0  0  0
   -1.4009    0.1761    0.0079 C   0  0  0  0  0  0  0  0  0  0  0  0
   -2.7100   -1.2538   -0.7775 H   0  0  0  0  0  0  0  0  0  0  0  0
   -2.7499   -1.2644    0.9449 H   0  0  0  0  0  0  0  0  0  0  0  0
   -0.1699   -0.6858    0.0187 C   0  0  0  0  0  0  0  0  0  0  0  0
   -1.4101    0.8552    0.8514 H   0  0  0  0  0  0  0  0  0  0  0  0
   -1.4262    0.8063   -0.8669 H   0  0  0  0  0  0  0  0  0  0  0  0
   -0.2311   -1.2327    0.8586 H   0  0  0  0  0  0  0  0  0  0  0  0
    0.7493   -0.0986    0.1548 H   0  0  0  0  0  0  0  0  0  0  0  0
   -0.0778   -1.4545   -0.8806 H   0  0  0  0  0  0  0  0  0  0  0  0
  1  2  1  0  0  0  0
  1  3  1  0  0  0  0
  1  5  1  0  0  0  0
  2  8  1  0  0  0  0
  4  1  1  0  0  0  0
  6  9  1  0  0  0  0
  6  2  1  0  0  0  0
  6 10  1  0  0  0  0
  7  2  1  0  0  0  0
  9 13  1  0  0  0  0
  9 12  1  0  0  0  0
 11  6  1  0  0  0  0
 14  9  1  0  0  0  0
M  END
$$$$
