butane_opt
 OpenBabel08242015403D

 14 13  0  0  0  0  0  0  0  0999 V2000
   -3.9479    0.2721    0.0019 C   0  0  0  0  0  0  0  0  0  0  0  0
   -2.6908   -0.6263    0.0668 C   0  0  0  0  0  0  0  0  0  0  0  0
   -4.8367   -0.3007   -0.0558 H   0  0  0  0  0  0  0  0  0  0  0  0
   -3.8965    0.8520   -0.8913 H   0  0  0  0  0  0  0  0  0  0  0  0
   -4.0170    0.9857    0.8802 H   0  0  0  0  0  0  0  0  0  0  0  0
   -1.4030    0.1691    0.0182 C   0  0  0  0  0  0  0  0  0  0  0  0
   -2.7269   -1.2544   -0.7603 H   0  0  0  0  0  0  0  0  0  0  0  0
   -2.6793   -1.2794    0.9827 H   0  0  0  0  0  0  0  0  0  0  0  0
   -0.1622   -0.6880    0.0162 C   0  0  0  0  0  0  0  0  0  0  0  0
   -1.3923    0.8647    0.8749 H   0  0  0  0  0  0  0  0  0  0  0  0
   -1.4592    0.7765   -0.8660 H   0  0  0  0  0  0  0  0  0  0  0  0
   -0.1928   -1.2347    0.8580 H   0  0  0  0  0  0  0  0  0  0  0  0
    0.7618   -0.0426    0.0253 H   0  0  0  0  0  0  0  0  0  0  0  0
   -0.1451   -1.3576   -0.8479 H   0  0  0  0  0  0  0  0  0  0  0  0
  1  2  1  0  0  0  0
  1  5  1  0  0  0  0
  2  8  1  0  0  0  0
  3  1  1  0  0  0  0
  4  1  1  0  0  0  0
  6  2  1  0  0  0  0
  6 10  1  0  0  0  0
  7  2  1  0  0  0  0
  9  6  1  0  0  0  0
  9 13  1  0  0  0  0
  9 12  1  0  0  0  0
 11  6  1  0  0  0  0
 14  9  1  0  0  0  0
M  END
$$$$
