14
butane_opt
C  -3.934228   0.273841   0.051717
C  -2.688568  -0.626135   0.012034
H  -4.854939  -0.329630   0.097259
H  -3.986411   0.867734  -0.838536
H  -3.976199   0.956246   0.909449
C  -1.406595   0.174562  -0.035439
H  -2.705576  -1.309249  -0.832847
H  -2.688537  -1.269529   0.899503
C  -0.176310  -0.678752   0.056880
H  -1.404911   0.871147   0.816635
H  -1.379415   0.801493  -0.948852
H  -0.234410  -1.292516   0.968971
H   0.716532  -0.071198   0.171858
H  -0.047529  -1.420416  -0.822034
