14
butane_opt
C  -3.937452   0.270531   0.007348
C  -2.696242  -0.621150   0.056933
H  -4.833770  -0.342232   0.014045
H  -3.984744   0.903152  -0.892417
H  -3.962270   0.955982   0.880189
C  -1.400787   0.175624   0.017769
H  -2.675665  -1.280260  -0.763260
H  -2.728601  -1.261927   0.956117
C  -0.175633  -0.695895   0.017753
H  -1.394134   0.835341   0.850827
H  -1.386460   0.872124  -0.924713
H  -0.195222  -1.218707   0.869384
H   0.803928  -0.038699   0.130686
H  -0.147690  -1.443059  -0.885789
