butane_opt
 OpenBabel08242015403D

 14 13  0  0  0  0  0  0  0  0999 V2000
   -3.9318    0.2685    0.0129 C   0  0  0  0  0  0  0  0  0  0  0  0
   -2.6940   -0.6190    0.0411 C   0  0  0  0  0  0  0  0  0  0  0  0
   -4.8934   -0.3455    0.1086 H   0  0  0  0  0  0  0  0  0  0  0  0
   -3.9935    0.9381   -0.9230 H   0  0  0  0  0  0  0  0  0  0  0  0
   -3.9340    0.9096    0.8454 H   0  0  0  0  0  0  0  0  0  0  0  0
   -1.3974    0.1848    0.0184 C   0  0  0  0  0  0  0  0  0  0  0  0
   -2.6588   -1.3412   -0.8404 H   0  0  0  0  0  0  0  0  0  0  0  0
   -2.7322   -1.2413    0.9223 H   0  0  0  0  0  0  0  0  0  0  0  0
   -0.1797   -0.6941    0.0296 C   0  0  0  0  0  0  0  0  0  0  0  0
   -1.3717    0.8575    0.8918 H   0  0  0  0  0  0  0  0  0  0  0  0
   -1.4039    0.8315   -0.8832 H   0  0  0  0  0  0  0  0  0  0  0  0
   -0.1287   -1.2989    0.9169 H   0  0  0  0  0  0  0  0  0  0  0  0
    0.7296   -0.1013    0.0300 H   0  0  0  0  0  0  0  0  0  0  0  0
   -0.1967   -1.3662   -0.8483 H   0  0  0  0  0  0  0  0  0  0  0  0
  1  2  1  0  0  0  0
  1  3  1  0  0  0  0
  1  5  1  0  0  0  0
  2  8  1  0  0  0  0
  4  1  1  0  0  0  0
  6  9  1  0  0  0  0
  6  2  1  0  0  0  0
  6 10  1  0  0  0  0
  7  2  1  0  0  0  0
  9 13  1  0  0  0  0
  9 12  1  0  0  0  0
 11  6  1  0  0  0  0
 14  9  1  0  0  0  0
M  END
$$$$
