14
butane_opt
C  -3.929645   0.250626  -0.022917
C  -2.694878  -0.603749   0.088173
H  -4.829590  -0.337659  -0.088599
H  -3.908407   0.811878  -0.887181
H  -3.988579   0.979403   0.854148
C  -1.413172   0.193828   0.049592
H  -2.704255  -1.238152  -0.753081
H  -2.745017  -1.250639   1.005155
C  -0.162271  -0.697125  -0.000477
H  -1.390878   0.847035   0.867923
H  -1.481700   0.819876  -0.850904
H  -0.116968  -1.281865   0.868871
H   0.735096  -0.138471  -0.059952
H  -0.187631  -1.411095  -0.887870
