14
butane_opt
C  -3.936594   0.253397   0.055270
C  -2.693931  -0.600461   0.007609
H  -4.900506  -0.393409   0.057518
H  -3.910783   0.837172  -0.815076
H  -3.914215   0.972668   0.933861
C  -1.421030   0.195786  -0.035307
H  -2.757608  -1.279584  -0.843637
H  -2.676889  -1.228962   0.896523
C  -0.153953  -0.702079   0.063238
H  -1.466327   0.852757   0.786404
H  -1.360832   0.820584  -0.950273
H  -0.220331  -1.314273   0.959669
H   0.729790  -0.132372   0.130886
H  -0.072277  -1.376468  -0.803883
