14
butane_opt
C  -3.940152   0.263594   0.035530
C  -2.705209  -0.601278   0.031392
H  -4.874697  -0.366641  -0.089888
H  -3.909462   0.721509  -0.790362
H  -3.972744   1.045050   0.978401
C  -1.398573   0.182727  -0.020401
H  -2.729554  -1.264934  -0.831980
H  -2.726327  -1.260417   0.922529
C  -0.169771  -0.697491   0.056449
H  -1.416756   0.865318   0.816167
H  -1.379613   0.849235  -0.925997
H  -0.097618  -1.368107   0.984088
H   0.742453  -0.102084  -0.050530
H  -0.099688  -1.365494  -0.794139
