14
butane_opt
C  -3.945805   0.269087   0.038753
C  -2.687579  -0.622465   0.007025
H  -4.837411  -0.307932   0.153718
H  -4.027275   0.954605  -0.888121
H  -3.906556   0.878805   0.859730
C  -1.403450   0.171633  -0.003624
H  -2.738668  -1.312855  -0.875911
H  -2.683166  -1.237305   0.881618
C  -0.168097  -0.687400   0.045877
H  -1.457601   0.921670   0.876039
H  -1.382296   0.783431  -0.866581
H  -0.175154  -1.384748   0.985414
H   0.789675  -0.029203   0.042804
H  -0.154803  -1.301015  -0.786581
