14
butane_opt
C  -3.931085   0.249640   0.011081
C  -2.702718  -0.587437   0.045008
H  -4.894266  -0.379179  -0.019820
H  -3.892766   0.851513  -0.883285
H  -3.999567   0.913235   0.834579
C  -1.414880   0.194674   0.030749
H  -2.691002  -1.285480  -0.840699
H  -2.682209  -1.273747   0.957332
C  -0.160191  -0.703735   0.019435
H  -1.385488   0.906639   0.924759
H  -1.424484   0.783092  -0.840301
H  -0.071743  -1.400455   0.953810
H   0.723994  -0.128318  -0.116238
H  -0.188090  -1.302256  -0.796570
