14
butane_opt
C  -3.953969   0.261666  -0.012010
C  -2.704844  -0.618462   0.060284
H  -4.855964  -0.339172   0.125873
H  -3.994961   0.945106  -0.977332
H  -3.921973   0.826712   0.803289
C  -1.403878   0.210980   0.050334
H  -2.708644  -1.315653  -0.804154
H  -2.735456  -1.215841   0.922204
C  -0.154316  -0.702426   0.011020
H  -1.363630   0.869658   0.924571
H  -1.374950   0.807304  -0.826391
H  -0.067084  -1.333179   0.900813
H   0.743339  -0.125129  -0.060859
H  -0.142679  -1.406026  -0.896386
