14
butane_opt
C  -3.958595   0.277712  -0.011263
C  -2.698881  -0.632052   0.075378
H  -4.844136  -0.291034   0.067667
H  -3.958688   0.946818  -0.946992
H  -3.957820   0.892207   0.812349
C  -1.393331   0.182426   0.030361
H  -2.708988  -1.302082  -0.771208
H  -2.764836  -1.320907   1.019788
C  -0.159766  -0.685977   0.000881
H  -1.348554   0.857453   0.917701
H  -1.392586   0.793948  -0.845081
H  -0.202074  -1.173051   0.844732
H   0.736597  -0.105425   0.111258
H  -0.066574  -1.468639  -0.936020
