14
butane_opt
C  -3.953192   0.277553   0.005984
C  -2.705186  -0.625828   0.041863
H  -4.880182  -0.333172   0.104935
H  -4.026932   1.009953  -0.929957
H  -3.966512   0.816636   0.770431
C  -1.392673   0.167916   0.031071
H  -2.714986  -1.258984  -0.767816
H  -2.692820  -1.265350   0.919289
C  -0.155310  -0.684317   0.016301
H  -1.331975   0.917087   0.930783
H  -1.415449   0.746756  -0.818697
H  -0.113447  -1.263716   0.900729
H   0.744235  -0.097881   0.026950
H  -0.151944  -1.369780  -0.854820
