butane_opt
 OpenBabel08242015403D

 14 13  0  0  0  0  0  0  0  0999 V2000
   -3.9640    0.2859    0.0041 C   0  0  0  0  0  0  0  0  0  0  0  0
   -2.7021   -0.6357    0.0402 C   0  0  0  0  0  0  0  0  0  0  0  0
   -4.8736   -0.2967    0.0654 H   0  0  0  0  0  0  0  0  0  0  0  0
   -3.9752    0.8839   -0.8717 H   0  0  0  0  0  0  0  0  0  0  0  0
   -3.9803    0.9229    0.8060 H   0  0  0  0  0  0  0  0  0  0  0  0
   -1.3936    0.1722    0.0354 C   0  0  0  0  0  0  0  0  0  0  0  0
   -2.6628   -1.2877   -0.7940 H   0  0  0  0  0  0  0  0  0  0  0  0
   -2.7647   -1.2922    0.9730 H   0  0  0  0  0  0  0  0  0  0  0  0
   -0.1492   -0.6806    0.0155 C   0  0  0  0  0  0  0  0  0  0  0  0
   -1.3351    0.8803    0.9192 H   0  0  0  0  0  0  0  0  0  0  0  0
   -1.3708    0.7626   -0.8440 H   0  0  0  0  0  0  0  0  0  0  0  0
   -0.1316   -1.3399    0.9430 H   0  0  0  0  0  0  0  0  0  0  0  0
    0.7620   -0.0863   -0.0569 H   0  0  0  0  0  0  0  0  0  0  0  0
   -0.1927   -1.3171   -0.8335 H   0  0  0  0  0  0  0  0  0  0  0  0
  1  2  1  0  0  0  0
  1  3  1  0  0  0  0
  1  5  1  0  0  0  0
  2  8  1  0  0  0  0
  4  1  1  0  0  0  0
  6  2  1  0  0  0  0
  6 10  1  0  0  0  0
  7  2  1  0  0  0  0
  9  6  1  0  0  0  0
  9 12  1  0  0  0  0
 11  6  1  0  0  0  0
 13  9  1  0  0  0  0
 14  9  1  0  0  0  0
M  END
$$$$
