butane_opt
 OpenBabel08242015403D

 14 13  0  0  0  0  0  0  0  0999 V2000
   -3.9421    0.2591   -0.0074 C   0  0  0  0  0  0  0  0  0  0  0  0
   -2.7066   -0.6139    0.0570 C   0  0  0  0  0  0  0  0  0  0  0  0
   -4.8601   -0.3340    0.1291 H   0  0  0  0  0  0  0  0  0  0  0  0
   -4.0372    1.0176   -0.9962 H   0  0  0  0  0  0  0  0  0  0  0  0
   -3.9355    0.7733    0.7489 H   0  0  0  0  0  0  0  0  0  0  0  0
   -1.3954    0.1907    0.0481 C   0  0  0  0  0  0  0  0  0  0  0  0
   -2.7177   -1.2653   -0.7766 H   0  0  0  0  0  0  0  0  0  0  0  0
   -2.7206   -1.2304    0.9506 H   0  0  0  0  0  0  0  0  0  0  0  0
   -0.1612   -0.6974   -0.0017 C   0  0  0  0  0  0  0  0  0  0  0  0
   -1.3496    0.9434    0.9641 H   0  0  0  0  0  0  0  0  0  0  0  0
   -1.4289    0.8043   -0.7915 H   0  0  0  0  0  0  0  0  0  0  0  0
   -0.1220   -1.2882    0.8813 H   0  0  0  0  0  0  0  0  0  0  0  0
    0.7324   -0.1534    0.0348 H   0  0  0  0  0  0  0  0  0  0  0  0
   -0.1136   -1.4085   -0.8794 H   0  0  0  0  0  0  0  0  0  0  0  0
  1  2  1  0  0  0  0
  1  3  1  0  0  0  0
  1  5  1  0  0  0  0
  2  8  1  0  0  0  0
  4  1  1  0  0  0  0
  6  2  1  0  0  0  0
  6 10  1  0  0  0  0
  7  2  1  0  0  0  0
  9 13  1  0  0  0  0
  9  6  1  0  0  0  0
  9 12  1  0  0  0  0
 11  6  1  0  0  0  0
 14  9  1  0  0  0  0
M  END
$$$$
