butane_opt
 OpenBabel08242015403D

 14 13  0  0  0  0  0  0  0  0999 V2000
   -3.9555    0.2706    0.0436 C   0  0  0  0  0  0  0  0  0  0  0  0
   -2.6902   -0.6283    0.0070 C   0  0  0  0  0  0  0  0  0  0  0  0
   -4.8643   -0.2928    0.1714 H   0  0  0  0  0  0  0  0  0  0  0  0
   -4.0792    0.9591   -0.8765 H   0  0  0  0  0  0  0  0  0  0  0  0
   -3.9380    0.9048    0.8731 H   0  0  0  0  0  0  0  0  0  0  0  0
   -1.3997    0.1813   -0.0094 C   0  0  0  0  0  0  0  0  0  0  0  0
   -2.7174   -1.3805   -0.8919 H   0  0  0  0  0  0  0  0  0  0  0  0
   -2.6769   -1.1994    0.8363 H   0  0  0  0  0  0  0  0  0  0  0  0
   -0.1649   -0.6824    0.0555 C   0  0  0  0  0  0  0  0  0  0  0  0
   -1.3761    0.8333    0.8073 H   0  0  0  0  0  0  0  0  0  0  0  0
   -1.3105    0.7679   -0.9033 H   0  0  0  0  0  0  0  0  0  0  0  0
   -0.1519   -1.3586    0.9800 H   0  0  0  0  0  0  0  0  0  0  0  0
    0.7425   -0.0828    0.0624 H   0  0  0  0  0  0  0  0  0  0  0  0
   -0.1282   -1.3089   -0.7757 H   0  0  0  0  0  0  0  0  0  0  0  0
  1  3  1  0  0  0  0
  1  5  1  0  0  0  0
  2  1  1  0  0  0  0
  2  8  1  0  0  0  0
  4  1  1  0  0  0  0
  6  2  1  0  0  0  0
  6  9  1  0  0  0  0
  6 10  1  0  0  0  0
  7  2  1  0  0  0  0
  9 13  1  0  0  0  0
  9 12  1  0  0  0  0
 11  6  1  0  0  0  0
 14  9  1  0  0  0  0
M  END
$$$$
