butane_opt
 OpenBabel08242015403D

 14 13  0  0  0  0  0  0  0  0999 V2000
   -3.9438    0.2751    0.0357 C   0  0  0  0  0  0  0  0  0  0  0  0
   -2.6895   -0.6232    0.0305 C   0  0  0  0  0  0  0  0  0  0  0  0
   -4.8011   -0.2823   -0.0617 H   0  0  0  0  0  0  0  0  0  0  0  0
   -3.9537    0.8016   -0.8312 H   0  0  0  0  0  0  0  0  0  0  0  0
   -3.9627    1.0004    0.9324 H   0  0  0  0  0  0  0  0  0  0  0  0
   -1.3935    0.1661   -0.0088 C   0  0  0  0  0  0  0  0  0  0  0  0
   -2.7273   -1.3342   -0.8418 H   0  0  0  0  0  0  0  0  0  0  0  0
   -2.6619   -1.2584    0.9114 H   0  0  0  0  0  0  0  0  0  0  0  0
   -0.1862   -0.6781    0.0509 C   0  0  0  0  0  0  0  0  0  0  0  0
   -1.4056    0.8263    0.8180 H   0  0  0  0  0  0  0  0  0  0  0  0
   -1.3647    0.8649   -0.9311 H   0  0  0  0  0  0  0  0  0  0  0  0
   -0.1395   -1.3396    0.9558 H   0  0  0  0  0  0  0  0  0  0  0  0
    0.7199   -0.0758    0.0001 H   0  0  0  0  0  0  0  0  0  0  0  0
   -0.1817   -1.3470   -0.8072 H   0  0  0  0  0  0  0  0  0  0  0  0
  1  5  1  0  0  0  0
  2  1  1  0  0  0  0
  2  8  1  0  0  0  0
  3  1  1  0  0  0  0
  4  1  1  0  0  0  0
  6  2  1  0  0  0  0
  6  9  1  0  0  0  0
  6 10  1  0  0  0  0
  7  2  1  0  0  0  0
  9 12  1  0  0  0  0
 11  6  1  0  0  0  0
 13  9  1  0  0  0  0
 14  9  1  0  0  0  0
M  END
$$$$
