butane_opt
 OpenBabel08242015403D

 14 13  0  0  0  0  0  0  0  0999 V2000
   -3.9397    0.2638    0.0470 C   0  0  0  0  0  0  0  0  0  0  0  0
   -2.7090   -0.6212    0.0106 C   0  0  0  0  0  0  0  0  0  0  0  0
   -4.8582   -0.3451    0.0985 H   0  0  0  0  0  0  0  0  0  0  0  0
   -4.0270    0.8562   -0.8567 H   0  0  0  0  0  0  0  0  0  0  0  0
   -3.9258    0.8894    0.9034 H   0  0  0  0  0  0  0  0  0  0  0  0
   -1.4091    0.2052   -0.0282 C   0  0  0  0  0  0  0  0  0  0  0  0
   -2.7827   -1.2717   -0.8469 H   0  0  0  0  0  0  0  0  0  0  0  0
   -2.7119   -1.2175    0.8867 H   0  0  0  0  0  0  0  0  0  0  0  0
   -0.1476   -0.7060    0.0603 C   0  0  0  0  0  0  0  0  0  0  0  0
   -1.3733    0.8861    0.8418 H   0  0  0  0  0  0  0  0  0  0  0  0
   -1.4025    0.8401   -0.9164 H   0  0  0  0  0  0  0  0  0  0  0  0
   -0.2005   -1.3009    0.9412 H   0  0  0  0  0  0  0  0  0  0  0  0
    0.7352   -0.1323    0.1091 H   0  0  0  0  0  0  0  0  0  0  0  0
   -0.0084   -1.3857   -0.8045 H   0  0  0  0  0  0  0  0  0  0  0  0
  1  3  1  0  0  0  0
  1  5  1  0  0  0  0
  2  1  1  0  0  0  0
  2  8  1  0  0  0  0
  4  1  1  0  0  0  0
  6  2  1  0  0  0  0
  6  9  1  0  0  0  0
  6 10  1  0  0  0  0
  7  2  1  0  0  0  0
  9 13  1  0  0  0  0
  9 12  1  0  0  0  0
 11  6  1  0  0  0  0
 14  9  1  0  0  0  0
M  END
$$$$
