14
butane_opt
C  -3.937569   0.255263  -0.008466
C  -2.708170  -0.598085   0.071409
H  -4.826881  -0.342460   0.021203
H  -3.986693   0.870878  -0.916866
H  -3.931915   0.911491   0.841674
C  -1.401819   0.192811   0.024049
H  -2.712260  -1.218199  -0.748253
H  -2.732787  -1.294597   0.984533
C  -0.163073  -0.706611   0.009566
H  -1.381815   0.875050   0.877625
H  -1.409005   0.785276  -0.833942
H  -0.141694  -1.218153   0.853018
H   0.757412  -0.116824   0.096870
H  -0.125863  -1.444171  -0.906062
