butane_opt
 OpenBabel08242015403D

 14 13  0  0  0  0  0  0  0  0999 V2000
   -3.9422    0.2723    0.0265 C   0  0  0  0  0  0  0  0  0  0  0  0
   -2.6939   -0.6185    0.0155 C   0  0  0  0  0  0  0  0  0  0  0  0
   -4.8341   -0.3203    0.1137 H   0  0  0  0  0  0  0  0  0  0  0  0
   -4.0143    0.9061   -0.8924 H   0  0  0  0  0  0  0  0  0  0  0  0
   -3.9128    0.8838    0.8644 H   0  0  0  0  0  0  0  0  0  0  0  0
   -1.4052    0.1780    0.0092 C   0  0  0  0  0  0  0  0  0  0  0  0
   -2.7089   -1.2947   -0.8580 H   0  0  0  0  0  0  0  0  0  0  0  0
   -2.7368   -1.2588    0.9239 H   0  0  0  0  0  0  0  0  0  0  0  0
   -0.1596   -0.6932    0.0459 C   0  0  0  0  0  0  0  0  0  0  0  0
   -1.4170    0.9079    0.8995 H   0  0  0  0  0  0  0  0  0  0  0  0
   -1.3547    0.7865   -0.8765 H   0  0  0  0  0  0  0  0  0  0  0  0
   -0.1737   -1.3308    0.9700 H   0  0  0  0  0  0  0  0  0  0  0  0
    0.7693   -0.0676   -0.0813 H   0  0  0  0  0  0  0  0  0  0  0  0
   -0.2272   -1.3422   -0.7941 H   0  0  0  0  0  0  0  0  0  0  0  0
  1  3  1  0  0  0  0
  1  5  1  0  0  0  0
  2  1  1  0  0  0  0
  2  8  1  0  0  0  0
  4  1  1  0  0  0  0
  6  2  1  0  0  0  0
  6  9  1  0  0  0  0
  6 10  1  0  0  0  0
  7  2  1  0  0  0  0
  9 12  1  0  0  0  0
 11  6  1  0  0  0  0
 13  9  1  0  0  0  0
 14  9  1  0  0  0  0
M  END
$$$$
