butane_opt
 OpenBabel08242015403D

 14 13  0  0  0  0  0  0  0  0999 V2000
   -3.9369    0.2543   -0.0122 C   0  0  0  0  0  0  0  0  0  0  0  0
   -2.7089   -0.5956    0.0659 C   0  0  0  0  0  0  0  0  0  0  0  0
   -4.8913   -0.3959    0.0354 H   0  0  0  0  0  0  0  0  0  0  0  0
   -3.9016    0.9232   -0.9387 H   0  0  0  0  0  0  0  0  0  0  0  0
   -3.9824    0.8913    0.8060 H   0  0  0  0  0  0  0  0  0  0  0  0
   -1.4119    0.1871    0.0574 C   0  0  0  0  0  0  0  0  0  0  0  0
   -2.6809   -1.2881   -0.7878 H   0  0  0  0  0  0  0  0  0  0  0  0
   -2.7740   -1.1932    0.9469 H   0  0  0  0  0  0  0  0  0  0  0  0
   -0.1555   -0.7025   -0.0003 C   0  0  0  0  0  0  0  0  0  0  0  0
   -1.3377    0.9148    0.9154 H   0  0  0  0  0  0  0  0  0  0  0  0
   -1.4115    0.8080   -0.8223 H   0  0  0  0  0  0  0  0  0  0  0  0
   -0.0482   -1.3879    0.9087 H   0  0  0  0  0  0  0  0  0  0  0  0
    0.7518   -0.1337   -0.0959 H   0  0  0  0  0  0  0  0  0  0  0  0
   -0.1814   -1.3377   -0.8483 H   0  0  0  0  0  0  0  0  0  0  0  0
  1  3  1  0  0  0  0
  1  2  1  0  0  0  0
  1  5  1  0  0  0  0
  2  8  1  0  0  0  0
  4  1  1  0  0  0  0
  6  2  1  0  0  0  0
  6 10  1  0  0  0  0
  7  2  1  0  0  0  0
  9  6  1  0  0  0  0
  9 12  1  0  0  0  0
 11  6  1  0  0  0  0
 13  9  1  0  0  0  0
 14  9  1  0  0  0  0
M  END
$$$$
