butane_opt
 OpenBabel08242015403D

 14 13  0  0  0  0  0  0  0  0999 V2000
   -3.9553    0.2617    0.0416 C   0  0  0  0  0  0  0  0  0  0  0  0
   -2.7094   -0.6076    0.0042 C   0  0  0  0  0  0  0  0  0  0  0  0
   -4.9088   -0.3798    0.0669 H   0  0  0  0  0  0  0  0  0  0  0  0
   -4.0072    0.8456   -0.8458 H   0  0  0  0  0  0  0  0  0  0  0  0
   -3.8912    0.9727    0.9344 H   0  0  0  0  0  0  0  0  0  0  0  0
   -1.3906    0.1963   -0.0039 C   0  0  0  0  0  0  0  0  0  0  0  0
   -2.7363   -1.3576   -0.9085 H   0  0  0  0  0  0  0  0  0  0  0  0
   -2.7365   -1.1777    0.8546 H   0  0  0  0  0  0  0  0  0  0  0  0
   -0.1545   -0.7080    0.0647 C   0  0  0  0  0  0  0  0  0  0  0  0
   -1.3892    0.8329    0.8418 H   0  0  0  0  0  0  0  0  0  0  0  0
   -1.4052    0.8743   -0.9347 H   0  0  0  0  0  0  0  0  0  0  0  0
   -0.0630   -1.4042    1.0261 H   0  0  0  0  0  0  0  0  0  0  0  0
    0.7531   -0.1126   -0.1137 H   0  0  0  0  0  0  0  0  0  0  0  0
   -0.1218   -1.2737   -0.7468 H   0  0  0  0  0  0  0  0  0  0  0  0
  1  3  1  0  0  0  0
  1  5  1  0  0  0  0
  2  1  1  0  0  0  0
  2  8  1  0  0  0  0
  4  1  1  0  0  0  0
  6  2  1  0  0  0  0
  6  9  1  0  0  0  0
  6 10  1  0  0  0  0
  7  2  1  0  0  0  0
  9 12  1  0  0  0  0
 11  6  1  0  0  0  0
 13  9  1  0  0  0  0
 14  9  1  0  0  0  0
M  END
$$$$
