butane_opt
 OpenBabel08242015403D

 14 13  0  0  0  0  0  0  0  0999 V2000
   -3.9606    0.2778    0.0436 C   0  0  0  0  0  0  0  0  0  0  0  0
   -2.6899   -0.6334    0.0126 C   0  0  0  0  0  0  0  0  0  0  0  0
   -4.8516   -0.3162    0.0356 H   0  0  0  0  0  0  0  0  0  0  0  0
   -3.9860    0.8795   -0.8390 H   0  0  0  0  0  0  0  0  0  0  0  0
   -3.9765    0.9180    0.9156 H   0  0  0  0  0  0  0  0  0  0  0  0
   -1.3987    0.1757   -0.0080 C   0  0  0  0  0  0  0  0  0  0  0  0
   -2.6998   -1.3599   -0.8972 H   0  0  0  0  0  0  0  0  0  0  0  0
   -2.6623   -1.1545    0.8284 H   0  0  0  0  0  0  0  0  0  0  0  0
   -0.1664   -0.6860    0.0569 C   0  0  0  0  0  0  0  0  0  0  0  0
   -1.3908    0.8561    0.8530 H   0  0  0  0  0  0  0  0  0  0  0  0
   -1.3504    0.8103   -0.9055 H   0  0  0  0  0  0  0  0  0  0  0  0
   -0.1057   -1.4071    1.0033 H   0  0  0  0  0  0  0  0  0  0  0  0
    0.7663   -0.0590   -0.0937 H   0  0  0  0  0  0  0  0  0  0  0  0
   -0.1845   -1.2407   -0.7122 H   0  0  0  0  0  0  0  0  0  0  0  0
  1  5  1  0  0  0  0
  2  1  1  0  0  0  0
  2  8  1  0  0  0  0
  3  1  1  0  0  0  0
  4  1  1  0  0  0  0
  6  2  1  0  0  0  0
  6  9  1  0  0  0  0
  6 10  1  0  0  0  0
  7  2  1  0  0  0  0
  9 12  1  0  0  0  0
 11  6  1  0  0  0  0
 13  9  1  0  0  0  0
 14  9  1  0  0  0  0
M  END
$$$$
