butane_opt
 OpenBabel08242015403D

 14 13  0  0  0  0  0  0  0  0999 V2000
   -3.9508    0.2642    0.0046 C   0  0  0  0  0  0  0  0  0  0  0  0
   -2.7104   -0.6079    0.0371 C   0  0  0  0  0  0  0  0  0  0  0  0
   -4.8946   -0.3939    0.0204 H   0  0  0  0  0  0  0  0  0  0  0  0
   -3.9316    0.8510   -0.8627 H   0  0  0  0  0  0  0  0  0  0  0  0
   -3.9577    0.9269    0.8707 H   0  0  0  0  0  0  0  0  0  0  0  0
   -1.4011    0.1984    0.0324 C   0  0  0  0  0  0  0  0  0  0  0  0
   -2.7217   -1.2442   -0.7809 H   0  0  0  0  0  0  0  0  0  0  0  0
   -2.7524   -1.2592    0.9550 H   0  0  0  0  0  0  0  0  0  0  0  0
   -0.1424   -0.7041    0.0197 C   0  0  0  0  0  0  0  0  0  0  0  0
   -1.4119    0.8801    0.9091 H   0  0  0  0  0  0  0  0  0  0  0  0
   -1.3636    0.7833   -0.8347 H   0  0  0  0  0  0  0  0  0  0  0  0
   -0.0609   -1.3801    0.9388 H   0  0  0  0  0  0  0  0  0  0  0  0
    0.7141   -0.1501   -0.0942 H   0  0  0  0  0  0  0  0  0  0  0  0
   -0.1793   -1.2973   -0.8027 H   0  0  0  0  0  0  0  0  0  0  0  0
  1  3  1  0  0  0  0
  1  2  1  0  0  0  0
  1  5  1  0  0  0  0
  2  8  1  0  0  0  0
  4  1  1  0  0  0  0
  6  2  1  0  0  0  0
  6 10  1  0  0  0  0
  7  2  1  0  0  0  0
  9  6  1  0  0  0  0
  9 12  1  0  0  0  0
 11  6  1  0  0  0  0
 13  9  1  0  0  0  0
 14  9  1  0  0  0  0
M  END
$$$$
