butane_opt
 OpenBabel08242015403D

 14 13  0  0  0  0  0  0  0  0999 V2000
   -3.9382    0.2568    0.0384 C   0  0  0  0  0  0  0  0  0  0  0  0
   -2.6974   -0.5980    0.0071 C   0  0  0  0  0  0  0  0  0  0  0  0
   -4.8576   -0.3794    0.0520 H   0  0  0  0  0  0  0  0  0  0  0  0
   -3.9456    0.8811   -0.8566 H   0  0  0  0  0  0  0  0  0  0  0  0
   -3.8744    0.9099    0.8958 H   0  0  0  0  0  0  0  0  0  0  0  0
   -1.4109    0.1888    0.0088 C   0  0  0  0  0  0  0  0  0  0  0  0
   -2.7632   -1.3013   -0.8544 H   0  0  0  0  0  0  0  0  0  0  0  0
   -2.7163   -1.1937    0.8674 H   0  0  0  0  0  0  0  0  0  0  0  0
   -0.1629   -0.7041    0.0470 C   0  0  0  0  0  0  0  0  0  0  0  0
   -1.4536    0.8497    0.8312 H   0  0  0  0  0  0  0  0  0  0  0  0
   -1.3668    0.8185   -0.8976 H   0  0  0  0  0  0  0  0  0  0  0  0
   -0.0884   -1.3704    0.9903 H   0  0  0  0  0  0  0  0  0  0  0  0
    0.7208   -0.1375   -0.0667 H   0  0  0  0  0  0  0  0  0  0  0  0
   -0.1648   -1.2681   -0.7362 H   0  0  0  0  0  0  0  0  0  0  0  0
  1  3  1  0  0  0  0
  1  5  1  0  0  0  0
  2  6  1  0  0  0  0
  2  1  1  0  0  0  0
  2  8  1  0  0  0  0
  4  1  1  0  0  0  0
  6  9  1  0  0  0  0
  6 10  1  0  0  0  0
  7  2  1  0  0  0  0
  9 12  1  0  0  0  0
 11  6  1  0  0  0  0
 13  9  1  0  0  0  0
 14  9  1  0  0  0  0
M  END
$$$$
