14
butane_opt
C  -3.933768   0.275475   0.031750
C  -2.702198  -0.615597   0.036925
H  -4.847875  -0.297596  -0.098081
H  -3.912270   0.757347  -0.788984
H  -4.020663   1.065866   0.934477
C  -1.401230   0.163370  -0.008800
H  -2.715865  -1.317036  -0.815719
H  -2.680991  -1.265872   0.930388
C  -0.167374  -0.681627   0.037689
H  -1.360160   0.800236   0.814949
H  -1.422723   0.796780  -0.910031
H  -0.197867  -1.355067   0.974490
H   0.752263  -0.074423   0.019107
H  -0.166780  -1.277367  -0.767802
