14
butane_opt
C  -3.949315   0.272156  -0.003803
C  -2.699527  -0.630858   0.067949
H  -4.853619  -0.295733   0.062434
H  -4.006575   0.958206  -0.945611
H  -4.028556   0.907612   0.799062
C  -1.403274   0.173186   0.017119
H  -2.751920  -1.259593  -0.723702
H  -2.674296  -1.312451   1.002238
C  -0.156158  -0.682294   0.012024
H  -1.339048   0.915721   0.933511
H  -1.378229   0.769803  -0.860518
H  -0.193858  -1.175417   0.833083
H   0.762097  -0.062123   0.118378
H  -0.065389  -1.504893  -0.927817
