butane_opt
 OpenBabel08242015403D

 14 13  0  0  0  0  0  0  0  0999 V2000
   -3.9423    0.2479   -0.0132 C   0  0  0  0  0  0  0  0  0  0  0  0
   -2.7145   -0.5995    0.0796 C   0  0  0  0  0  0  0  0  0  0  0  0
   -4.8730   -0.3459   -0.0943 H   0  0  0  0  0  0  0  0  0  0  0  0
   -3.9252    0.8114   -0.8851 H   0  0  0  0  0  0  0  0  0  0  0  0
   -4.0246    0.9811    0.8683 H   0  0  0  0  0  0  0  0  0  0  0  0
   -1.4115    0.1934    0.0405 C   0  0  0  0  0  0  0  0  0  0  0  0
   -2.6816   -1.2349   -0.7561 H   0  0  0  0  0  0  0  0  0  0  0  0
   -2.7740   -1.2672    1.0122 H   0  0  0  0  0  0  0  0  0  0  0  0
   -0.1414   -0.7068   -0.0072 C   0  0  0  0  0  0  0  0  0  0  0  0
   -1.3921    0.9338    0.9211 H   0  0  0  0  0  0  0  0  0  0  0  0
   -1.4277    0.8224   -0.8540 H   0  0  0  0  0  0  0  0  0  0  0  0
   -0.0486   -1.3355    0.9070 H   0  0  0  0  0  0  0  0  0  0  0  0
    0.7664   -0.1300   -0.0246 H   0  0  0  0  0  0  0  0  0  0  0  0
   -0.1214   -1.3372   -0.8403 H   0  0  0  0  0  0  0  0  0  0  0  0
  1  2  1  0  0  0  0
  1  5  1  0  0  0  0
  2  8  1  0  0  0  0
  3  1  1  0  0  0  0
  4  1  1  0  0  0  0
  6  2  1  0  0  0  0
  6 10  1  0  0  0  0
  7  2  1  0  0  0  0
  9  6  1  0  0  0  0
  9 12  1  0  0  0  0
 11  6  1  0  0  0  0
 13  9  1  0  0  0  0
 14  9  1  0  0  0  0
M  END
$$$$
