14
butane_opt
C  -3.949356   0.259350   0.043618
C  -2.699922  -0.619696   0.015977
H  -4.872742  -0.318762   0.084296
H  -4.017274   0.901759  -0.876374
H  -3.932420   0.887851   0.864038
C  -1.404026   0.192803  -0.012126
H  -2.773296  -1.314441  -0.858437
H  -2.690517  -1.171394   0.847927
C  -0.150112  -0.691338   0.058073
H  -1.384103   0.876192   0.819591
H  -1.378731   0.832020  -0.911664
H  -0.111414  -1.331190   0.959561
H   0.695047  -0.156277   0.028721
H  -0.112290  -1.381463  -0.788715
