butane_opt
 OpenBabel08242015403D

 14 13  0  0  0  0  0  0  0  0999 V2000
   -3.9410    0.2754    0.0496 C   0  0  0  0  0  0  0  0  0  0  0  0
   -2.6838   -0.6212    0.0071 C   0  0  0  0  0  0  0  0  0  0  0  0
   -4.8287   -0.3242    0.0872 H   0  0  0  0  0  0  0  0  0  0  0  0
   -4.0374    0.8647   -0.8060 H   0  0  0  0  0  0  0  0  0  0  0  0
   -3.9430    0.9673    0.9326 H   0  0  0  0  0  0  0  0  0  0  0  0
   -1.4040    0.1598   -0.0249 C   0  0  0  0  0  0  0  0  0  0  0  0
   -2.7376   -1.3335   -0.8507 H   0  0  0  0  0  0  0  0  0  0  0  0
   -2.7090   -1.2005    0.8544 H   0  0  0  0  0  0  0  0  0  0  0  0
   -0.1719   -0.6839    0.0599 C   0  0  0  0  0  0  0  0  0  0  0  0
   -1.4450    0.7858    0.7987 H   0  0  0  0  0  0  0  0  0  0  0  0
   -1.3436    0.8852   -0.9789 H   0  0  0  0  0  0  0  0  0  0  0  0
   -0.2305   -1.2830    0.9567 H   0  0  0  0  0  0  0  0  0  0  0  0
    0.7843   -0.0555    0.1376 H   0  0  0  0  0  0  0  0  0  0  0  0
   -0.1302   -1.3342   -0.7891 H   0  0  0  0  0  0  0  0  0  0  0  0
  1  3  1  0  0  0  0
  1  5  1  0  0  0  0
  2  1  1  0  0  0  0
  2  8  1  0  0  0  0
  4  1  1  0  0  0  0
  6  2  1  0  0  0  0
  6  9  1  0  0  0  0
  6 10  1  0  0  0  0
  7  2  1  0  0  0  0
  9 13  1  0  0  0  0
  9 12  1  0  0  0  0
 11  6  1  0  0  0  0
 14  9  1  0  0  0  0
M  END
$$$$
