butane_opt
 OpenBabel08242015403D

 14 13  0  0  0  0  0  0  0  0999 V2000
   -3.9285    0.2559   -0.0111 C   0  0  0  0  0  0  0  0  0  0  0  0
   -2.7077   -0.6052    0.0610 C   0  0  0  0  0  0  0  0  0  0  0  0
   -4.8057   -0.3341   -0.0185 H   0  0  0  0  0  0  0  0  0  0  0  0
   -3.8705    0.9193   -0.9501 H   0  0  0  0  0  0  0  0  0  0  0  0
   -3.9753    0.8892    0.8054 H   0  0  0  0  0  0  0  0  0  0  0  0
   -1.4081    0.1910    0.0551 C   0  0  0  0  0  0  0  0  0  0  0  0
   -2.7197   -1.2452   -0.7506 H   0  0  0  0  0  0  0  0  0  0  0  0
   -2.7381   -1.2589    0.9869 H   0  0  0  0  0  0  0  0  0  0  0  0
   -0.1660   -0.7017   -0.0053 C   0  0  0  0  0  0  0  0  0  0  0  0
   -1.3645    0.9355    0.9715 H   0  0  0  0  0  0  0  0  0  0  0  0
   -1.4781    0.7286   -0.7793 H   0  0  0  0  0  0  0  0  0  0  0  0
   -0.0524   -1.3752    0.9169 H   0  0  0  0  0  0  0  0  0  0  0  0
    0.7299   -0.1260   -0.1048 H   0  0  0  0  0  0  0  0  0  0  0  0
   -0.2290   -1.2776   -0.8271 H   0  0  0  0  0  0  0  0  0  0  0  0
  1  2  1  0  0  0  0
  1  5  1  0  0  0  0
  2  8  1  0  0  0  0
  3  1  1  0  0  0  0
  4  1  1  0  0  0  0
  6  2  1  0  0  0  0
  6 10  1  0  0  0  0
  7  2  1  0  0  0  0
  9  6  1  0  0  0  0
  9 12  1  0  0  0  0
 11  6  1  0  0  0  0
 13  9  1  0  0  0  0
 14  9  1  0  0  0  0
M  END
$$$$
