butane_opt
 OpenBabel08242015403D

 14 13  0  0  0  0  0  0  0  0999 V2000
   -3.9453    0.2710    0.0301 C   0  0  0  0  0  0  0  0  0  0  0  0
   -2.6897   -0.6241    0.0203 C   0  0  0  0  0  0  0  0  0  0  0  0
   -4.8637   -0.2944    0.0100 H   0  0  0  0  0  0  0  0  0  0  0  0
   -4.0209    0.8810   -0.8684 H   0  0  0  0  0  0  0  0  0  0  0  0
   -3.9543    0.9877    0.9277 H   0  0  0  0  0  0  0  0  0  0  0  0
   -1.4000    0.1745    0.0019 C   0  0  0  0  0  0  0  0  0  0  0  0
   -2.6940   -1.3462   -0.8534 H   0  0  0  0  0  0  0  0  0  0  0  0
   -2.6862   -1.2347    0.9177 H   0  0  0  0  0  0  0  0  0  0  0  0
   -0.1717   -0.6833    0.0381 C   0  0  0  0  0  0  0  0  0  0  0  0
   -1.3528    0.8719    0.8723 H   0  0  0  0  0  0  0  0  0  0  0  0
   -1.3403    0.7518   -0.8589 H   0  0  0  0  0  0  0  0  0  0  0  0
   -0.1672   -1.4121    1.0315 H   0  0  0  0  0  0  0  0  0  0  0  0
    0.7415   -0.0816   -0.0785 H   0  0  0  0  0  0  0  0  0  0  0  0
   -0.1988   -1.2479   -0.7376 H   0  0  0  0  0  0  0  0  0  0  0  0
  1  5  1  0  0  0  0
  2  1  1  0  0  0  0
  2  8  1  0  0  0  0
  3  1  1  0  0  0  0
  4  1  1  0  0  0  0
  6  2  1  0  0  0  0
  6  9  1  0  0  0  0
  6 10  1  0  0  0  0
  7  2  1  0  0  0  0
  9 12  1  0  0  0  0
 11  6  1  0  0  0  0
 13  9  1  0  0  0  0
 14  9  1  0  0  0  0
M  END
$$$$
