butane_opt
 OpenBabel08242015403D

 14 13  0  0  0  0  0  0  0  0999 V2000
   -3.9587    0.2750    0.0009 C   0  0  0  0  0  0  0  0  0  0  0  0
   -2.7014   -0.6409    0.0589 C   0  0  0  0  0  0  0  0  0  0  0  0
   -4.8240   -0.2748   -0.0577 H   0  0  0  0  0  0  0  0  0  0  0  0
   -3.9082    0.8595   -0.8727 H   0  0  0  0  0  0  0  0  0  0  0  0
   -4.0645    0.9991    0.9046 H   0  0  0  0  0  0  0  0  0  0  0  0
   -1.3826    0.1826    0.0281 C   0  0  0  0  0  0  0  0  0  0  0  0
   -2.6706   -1.2731   -0.7568 H   0  0  0  0  0  0  0  0  0  0  0  0
   -2.7505   -1.2796    0.9837 H   0  0  0  0  0  0  0  0  0  0  0  0
   -0.1632   -0.6912    0.0152 C   0  0  0  0  0  0  0  0  0  0  0  0
   -1.3862    0.8499    0.8731 H   0  0  0  0  0  0  0  0  0  0  0  0
   -1.3762    0.8375   -0.8699 H   0  0  0  0  0  0  0  0  0  0  0  0
   -0.1068   -1.2657    0.8945 H   0  0  0  0  0  0  0  0  0  0  0  0
    0.7370   -0.0977   -0.0234 H   0  0  0  0  0  0  0  0  0  0  0  0
   -0.2044   -1.3346   -0.8653 H   0  0  0  0  0  0  0  0  0  0  0  0
  1  2  1  0  0  0  0
  1  5  1  0  0  0  0
  2  8  1  0  0  0  0
  3  1  1  0  0  0  0
  4  1  1  0  0  0  0
  6  2  1  0  0  0  0
  6 10  1  0  0  0  0
  7  2  1  0  0  0  0
  9  6  1  0  0  0  0
  9 12  1  0  0  0  0
 11  6  1  0  0  0  0
 13  9  1  0  0  0  0
 14  9  1  0  0  0  0
M  END
$$$$
