14
butane_opt
C  -3.936893   0.255335   0.039193
C  -2.692915  -0.600523   0.034037
H  -4.897424  -0.386670  -0.086219
H  -3.952077   0.765873  -0.781942
H  -3.966214   1.025690   0.977614
C  -1.404101   0.182354  -0.025931
H  -2.694413  -1.280843  -0.834999
H  -2.708448  -1.168951   0.881591
C  -0.169093  -0.699964   0.051830
H  -1.411275   0.838712   0.791646
H  -1.425432   0.863773  -0.930416
H  -0.150553  -1.356071   1.008068
H   0.732612  -0.103428   0.029814
H  -0.105049  -1.334639  -0.789193
