14
butane_opt
C  -3.949909   0.265181   0.001041
C  -2.709160  -0.621180   0.053638
H  -4.862559  -0.326528   0.099658
H  -4.008982   1.036558  -0.981755
H  -3.963279   0.820001   0.761152
C  -1.407172   0.186489   0.044596
H  -2.706527  -1.314667  -0.808632
H  -2.719483  -1.245282   0.946047
C  -0.139232  -0.692345   0.009057
H  -1.339154   0.867398   0.894365
H  -1.455190   0.790798  -0.796472
H  -0.131224  -1.270411   0.866327
H   0.782959  -0.091403   0.027621
H  -0.151647  -1.393168  -0.884026
