butane_opt
 OpenBabel08242015403D

 14 13  0  0  0  0  0  0  0  0999 V2000
   -3.9603    0.2702   -0.0186 C   0  0  0  0  0  0  0  0  0  0  0  0
   -2.6977   -0.6376    0.0869 C   0  0  0  0  0  0  0  0  0  0  0  0
   -4.8492   -0.2994   -0.0790 H   0  0  0  0  0  0  0  0  0  0  0  0
   -3.8720    0.8348   -0.8684 H   0  0  0  0  0  0  0  0  0  0  0  0
   -4.0610    0.9926    0.8488 H   0  0  0  0  0  0  0  0  0  0  0  0
   -1.4028    0.1923    0.0279 C   0  0  0  0  0  0  0  0  0  0  0  0
   -2.7357   -1.2421   -0.7168 H   0  0  0  0  0  0  0  0  0  0  0  0
   -2.6919   -1.2944    1.0126 H   0  0  0  0  0  0  0  0  0  0  0  0
   -0.1519   -0.6851    0.0013 C   0  0  0  0  0  0  0  0  0  0  0  0
   -1.3600    0.8960    0.9250 H   0  0  0  0  0  0  0  0  0  0  0  0
   -1.4190    0.7624   -0.8186 H   0  0  0  0  0  0  0  0  0  0  0  0
   -0.1058   -1.2973    0.8796 H   0  0  0  0  0  0  0  0  0  0  0  0
    0.7404   -0.1043   -0.0014 H   0  0  0  0  0  0  0  0  0  0  0  0
   -0.1277   -1.4007   -0.9127 H   0  0  0  0  0  0  0  0  0  0  0  0
  1  2  1  0  0  0  0
  1  5  1  0  0  0  0
  2  8  1  0  0  0  0
  3  1  1  0  0  0  0
  4  1  1  0  0  0  0
  6  2  1  0  0  0  0
  6 10  1  0  0  0  0
  7  2  1  0  0  0  0
  9  6  1  0  0  0  0
  9 12  1  0  0  0  0
 11  6  1  0  0  0  0
 13  9  1  0  0  0  0
 14  9  1  0  0  0  0
M  END
$$$$
