14
butane_opt
C  -3.955951   0.274719  -0.015418
C  -2.696107  -0.622162   0.069720
H  -4.850671  -0.330471   0.028912
H  -4.005090   0.887637  -0.919940
H  -3.984456   0.934018   0.832715
C  -1.391705   0.175054   0.034693
H  -2.699170  -1.244542  -0.740234
H  -2.709403  -1.292007   1.015872
C  -0.167436  -0.691589   0.006991
H  -1.340099   0.870962   0.898547
H  -1.375369   0.761361  -0.819031
H  -0.139061  -1.206873   0.835821
H   0.752217  -0.089155   0.018271
H  -0.134731  -1.393628  -0.876441
