14
butane_opt
C  -3.947232   0.260541  -0.018821
C  -2.717722  -0.607363   0.055647
H  -4.852719  -0.337717   0.042999
H  -3.963415   0.847102  -0.891817
H  -3.954668   0.906472   0.827455
C  -1.401077   0.198218   0.056534
H  -2.691527  -1.258801  -0.773226
H  -2.732636  -1.289396   0.981393
C  -0.155539  -0.700003   0.002651
H  -1.339835   0.917698   0.937021
H  -1.397649   0.804470  -0.789666
H  -0.028354  -1.409895   0.921004
H   0.740957  -0.146572  -0.125418
H  -0.146113  -1.321023  -0.835710
