butane_opt
 OpenBabel08242015403D

 14 13  0  0  0  0  0  0  0  0999 V2000
   -3.9323    0.2540    0.0271 C   0  0  0  0  0  0  0  0  0  0  0  0
   -2.6907   -0.6023    0.0427 C   0  0  0  0  0  0  0  0  0  0  0  0
   -4.8495   -0.3627   -0.0785 H   0  0  0  0  0  0  0  0  0  0  0  0
   -3.8987    0.7619   -0.8085 H   0  0  0  0  0  0  0  0  0  0  0  0
   -3.9967    0.9940    0.9430 H   0  0  0  0  0  0  0  0  0  0  0  0
   -1.4125    0.1886   -0.0103 C   0  0  0  0  0  0  0  0  0  0  0  0
   -2.7338   -1.2653   -0.8252 H   0  0  0  0  0  0  0  0  0  0  0  0
   -2.7088   -1.2163    0.9350 H   0  0  0  0  0  0  0  0  0  0  0  0
   -0.1675   -0.6998    0.0436 C   0  0  0  0  0  0  0  0  0  0  0  0
   -1.4048    0.9061    0.8485 H   0  0  0  0  0  0  0  0  0  0  0  0
   -1.4123    0.8387   -0.9231 H   0  0  0  0  0  0  0  0  0  0  0  0
   -0.1716   -1.3485    0.9696 H   0  0  0  0  0  0  0  0  0  0  0  0
    0.7073   -0.1484   -0.0323 H   0  0  0  0  0  0  0  0  0  0  0  0
   -0.1100   -1.3327   -0.8148 H   0  0  0  0  0  0  0  0  0  0  0  0
  1  2  1  0  0  0  0
  1  5  1  0  0  0  0
  2  8  1  0  0  0  0
  3  1  1  0  0  0  0
  4  1  1  0  0  0  0
  6  2  1  0  0  0  0
  6  9  1  0  0  0  0
  6 10  1  0  0  0  0
  7  2  1  0  0  0  0
  9 12  1  0  0  0  0
 11  6  1  0  0  0  0
 13  9  1  0  0  0  0
 14  9  1  0  0  0  0
M  END
$$$$
