14
butane_opt
C  -3.947417   0.270770   0.001693
C  -2.695115  -0.623985   0.069074
H  -4.844388  -0.331308   0.077584
H  -3.981431   0.976239  -0.951479
H  -4.008540   0.853313   0.783277
C  -1.399210   0.172785   0.027995
H  -2.662760  -1.301764  -0.758357
H  -2.754281  -1.256202   0.954787
C  -0.163422  -0.682746   0.004349
H  -1.363039   0.874133   0.889994
H  -1.418567   0.839063  -0.888780
H  -0.163654  -1.183516   0.839978
H   0.727759  -0.102054   0.168964
H  -0.095948  -1.485438  -0.926162
