butane_opt
 OpenBabel08242015403D

 14 13  0  0  0  0  0  0  0  0999 V2000
   -3.9269    0.2558    0.0082 C   0  0  0  0  0  0  0  0  0  0  0  0
   -2.7074   -0.6112    0.0513 C   0  0  0  0  0  0  0  0  0  0  0  0
   -4.8213   -0.3228    0.1162 H   0  0  0  0  0  0  0  0  0  0  0  0
   -3.9794    0.9945   -0.9805 H   0  0  0  0  0  0  0  0  0  0  0  0
   -3.9268    0.8386    0.8002 H   0  0  0  0  0  0  0  0  0  0  0  0
   -1.4161    0.1851    0.0330 C   0  0  0  0  0  0  0  0  0  0  0  0
   -2.6692   -1.3121   -0.8308 H   0  0  0  0  0  0  0  0  0  0  0  0
   -2.7507   -1.2103    0.9385 H   0  0  0  0  0  0  0  0  0  0  0  0
   -0.1583   -0.6957    0.0152 C   0  0  0  0  0  0  0  0  0  0  0  0
   -1.3750    0.9022    0.9076 H   0  0  0  0  0  0  0  0  0  0  0  0
   -1.4270    0.8214   -0.8698 H   0  0  0  0  0  0  0  0  0  0  0  0
   -0.1704   -1.2818    0.9012 H   0  0  0  0  0  0  0  0  0  0  0  0
    0.7280   -0.0860    0.0262 H   0  0  0  0  0  0  0  0  0  0  0  0
   -0.1264   -1.4276   -0.8743 H   0  0  0  0  0  0  0  0  0  0  0  0
  1  2  1  0  0  0  0
  1  3  1  0  0  0  0
  1  5  1  0  0  0  0
  2  8  1  0  0  0  0
  4  1  1  0  0  0  0
  6  2  1  0  0  0  0
  6 10  1  0  0  0  0
  7  2  1  0  0  0  0
  9 13  1  0  0  0  0
  9  6  1  0  0  0  0
  9 12  1  0  0  0  0
 11  6  1  0  0  0  0
 14  9  1  0  0  0  0
M  END
$$$$
