butane_opt
 OpenBabel08242015403D

 14 13  0  0  0  0  0  0  0  0999 V2000
   -3.9394    0.2738    0.0059 C   0  0  0  0  0  0  0  0  0  0  0  0
   -2.6886   -0.6280    0.0355 C   0  0  0  0  0  0  0  0  0  0  0  0
   -4.8708   -0.3420    0.1602 H   0  0  0  0  0  0  0  0  0  0  0  0
   -4.0150    1.0093   -0.9575 H   0  0  0  0  0  0  0  0  0  0  0  0
   -3.9299    0.8327    0.7954 H   0  0  0  0  0  0  0  0  0  0  0  0
   -1.4127    0.1773    0.0377 C   0  0  0  0  0  0  0  0  0  0  0  0
   -2.7029   -1.3123   -0.8019 H   0  0  0  0  0  0  0  0  0  0  0  0
   -2.6666   -1.2574    0.9151 H   0  0  0  0  0  0  0  0  0  0  0  0
   -0.1699   -0.6867    0.0224 C   0  0  0  0  0  0  0  0  0  0  0  0
   -1.3708    0.8645    0.9164 H   0  0  0  0  0  0  0  0  0  0  0  0
   -1.3667    0.8292   -0.8651 H   0  0  0  0  0  0  0  0  0  0  0  0
   -0.1137   -1.2762    0.8912 H   0  0  0  0  0  0  0  0  0  0  0  0
    0.7454   -0.0610    0.0314 H   0  0  0  0  0  0  0  0  0  0  0  0
   -0.2066   -1.3954   -0.8785 H   0  0  0  0  0  0  0  0  0  0  0  0
  1  2  1  0  0  0  0
  1  3  1  0  0  0  0
  1  5  1  0  0  0  0
  2  6  1  0  0  0  0
  2  8  1  0  0  0  0
  4  1  1  0  0  0  0
  6 10  1  0  0  0  0
  7  2  1  0  0  0  0
  9 13  1  0  0  0  0
  9  6  1  0  0  0  0
  9 12  1  0  0  0  0
 11  6  1  0  0  0  0
 14  9  1  0  0  0  0
M  END
$$$$
