butane_opt
 OpenBabel08242015403D

 14 13  0  0  0  0  0  0  0  0999 V2000
   -3.9278    0.2658    0.0007 C   0  0  0  0  0  0  0  0  0  0  0  0
   -2.7089   -0.6057    0.0661 C   0  0  0  0  0  0  0  0  0  0  0  0
   -4.8480   -0.3407   -0.1011 H   0  0  0  0  0  0  0  0  0  0  0  0
   -3.9258    0.7679   -0.8406 H   0  0  0  0  0  0  0  0  0  0  0  0
   -3.9964    1.0016    0.9206 H   0  0  0  0  0  0  0  0  0  0  0  0
   -1.4071    0.1842    0.0128 C   0  0  0  0  0  0  0  0  0  0  0  0
   -2.6574   -1.2757   -0.7829 H   0  0  0  0  0  0  0  0  0  0  0  0
   -2.7694   -1.2874    1.0168 H   0  0  0  0  0  0  0  0  0  0  0  0
   -0.1646   -0.6993    0.0153 C   0  0  0  0  0  0  0  0  0  0  0  0
   -1.3781    0.8880    0.8814 H   0  0  0  0  0  0  0  0  0  0  0  0
   -1.4309    0.7853   -0.8725 H   0  0  0  0  0  0  0  0  0  0  0  0
   -0.1075   -1.3164    0.9261 H   0  0  0  0  0  0  0  0  0  0  0  0
    0.7583   -0.0890   -0.0118 H   0  0  0  0  0  0  0  0  0  0  0  0
   -0.1667   -1.3438   -0.8212 H   0  0  0  0  0  0  0  0  0  0  0  0
  1  2  1  0  0  0  0
  1  5  1  0  0  0  0
  2  8  1  0  0  0  0
  3  1  1  0  0  0  0
  4  1  1  0  0  0  0
  6  9  1  0  0  0  0
  6  2  1  0  0  0  0
  6 10  1  0  0  0  0
  7  2  1  0  0  0  0
  9 12  1  0  0  0  0
 11  6  1  0  0  0  0
 13  9  1  0  0  0  0
 14  9  1  0  0  0  0
M  END
$$$$
