14
butane_opt
C  -3.926682   0.262434  -0.012126
C  -2.706967  -0.602364   0.076292
H  -4.898266  -0.365259   0.074119
H  -3.949210   0.955010  -0.950831
H  -3.965988   0.863414   0.821018
C  -1.404207   0.180303   0.021431
H  -2.757406  -1.234926  -0.729097
H  -2.715748  -1.285700   1.002823
C  -0.161150  -0.697580   0.002839
H  -1.391181   0.914075   0.899591
H  -1.445009   0.742341  -0.832499
H  -0.163741  -1.182564   0.820746
H   0.753295  -0.109376   0.177569
H  -0.099026  -1.486750  -0.924547
