14
butane_opt
C  -3.939641   0.256257   0.056149
C  -2.702534  -0.605421  -0.007789
H  -4.884820  -0.355327   0.166971
H  -4.056960   0.909796  -0.862458
H  -3.912588   0.878767   0.897606
C  -1.400246   0.203142  -0.023274
H  -2.774086  -1.332022  -0.888957
H  -2.748685  -1.186057   0.843210
C  -0.155672  -0.705106   0.075340
H  -1.421029   0.841670   0.791212
H  -1.343572   0.838737  -0.946564
H  -0.105926  -1.339848   0.976528
H   0.717677  -0.134081   0.066635
H  -0.108555  -1.384480  -0.808839
