butane_opt
 OpenBabel08242015403D

 14 13  0  0  0  0  0  0  0  0999 V2000
   -3.9399    0.2529    0.0381 C   0  0  0  0  0  0  0  0  0  0  0  0
   -2.7175   -0.6067    0.0019 C   0  0  0  0  0  0  0  0  0  0  0  0
   -4.8635   -0.3162    0.0691 H   0  0  0  0  0  0  0  0  0  0  0  0
   -3.9978    0.8338   -0.8125 H   0  0  0  0  0  0  0  0  0  0  0  0
   -3.9178    0.9367    0.9328 H   0  0  0  0  0  0  0  0  0  0  0  0
   -1.4051    0.2020   -0.0080 C   0  0  0  0  0  0  0  0  0  0  0  0
   -2.7116   -1.3088   -0.8777 H   0  0  0  0  0  0  0  0  0  0  0  0
   -2.7339   -1.2364    0.8880 H   0  0  0  0  0  0  0  0  0  0  0  0
   -0.1476   -0.7005    0.0612 C   0  0  0  0  0  0  0  0  0  0  0  0
   -1.4112    0.9194    0.8602 H   0  0  0  0  0  0  0  0  0  0  0  0
   -1.3625    0.8249   -0.8875 H   0  0  0  0  0  0  0  0  0  0  0  0
   -0.0808   -1.4403    1.0347 H   0  0  0  0  0  0  0  0  0  0  0  0
    0.7098   -0.1606   -0.1253 H   0  0  0  0  0  0  0  0  0  0  0  0
   -0.1289   -1.3026   -0.7503 H   0  0  0  0  0  0  0  0  0  0  0  0
  1  3  1  0  0  0  0
  1  5  1  0  0  0  0
  2  1  1  0  0  0  0
  2  8  1  0  0  0  0
  4  1  1  0  0  0  0
  6  2  1  0  0  0  0
  6  9  1  0  0  0  0
  6 10  1  0  0  0  0
  7  2  1  0  0  0  0
  9 12  1  0  0  0  0
 11  6  1  0  0  0  0
 13  9  1  0  0  0  0
 14  9  1  0  0  0  0
M  END
$$$$
