butane_opt
 OpenBabel08242015403D

 14 13  0  0  0  0  0  0  0  0999 V2000
   -3.9550    0.2490   -0.0062 C   0  0  0  0  0  0  0  0  0  0  0  0
   -2.7050   -0.5985    0.0710 C   0  0  0  0  0  0  0  0  0  0  0  0
   -4.8486   -0.3126    0.0673 H   0  0  0  0  0  0  0  0  0  0  0  0
   -3.9960    0.9396   -0.9496 H   0  0  0  0  0  0  0  0  0  0  0  0
   -3.9315    0.8244    0.8187 H   0  0  0  0  0  0  0  0  0  0  0  0
   -1.4095    0.1973    0.0230 C   0  0  0  0  0  0  0  0  0  0  0  0
   -2.7193   -1.2599   -0.7689 H   0  0  0  0  0  0  0  0  0  0  0  0
   -2.7520   -1.2486    0.9847 H   0  0  0  0  0  0  0  0  0  0  0  0
   -0.1422   -0.7079    0.0067 C   0  0  0  0  0  0  0  0  0  0  0  0
   -1.3753    0.9307    0.9267 H   0  0  0  0  0  0  0  0  0  0  0  0
   -1.4103    0.7635   -0.8503 H   0  0  0  0  0  0  0  0  0  0  0  0
   -0.1536   -1.2425    0.8544 H   0  0  0  0  0  0  0  0  0  0  0  0
    0.7698   -0.0906    0.1108 H   0  0  0  0  0  0  0  0  0  0  0  0
   -0.0677   -1.4539   -0.9084 H   0  0  0  0  0  0  0  0  0  0  0  0
  1  3  1  0  0  0  0
  1  2  1  0  0  0  0
  1  5  1  0  0  0  0
  2  8  1  0  0  0  0
  4  1  1  0  0  0  0
  6  2  1  0  0  0  0
  6 10  1  0  0  0  0
  7  2  1  0  0  0  0
  9  6  1  0  0  0  0
  9 13  1  0  0  0  0
  9 12  1  0  0  0  0
 11  6  1  0  0  0  0
 14  9  1  0  0  0  0
M  END
$$$$
