butane_opt
 OpenBabel08242015403D

 14 13  0  0  0  0  0  0  0  0999 V2000
   -3.9306    0.2663    0.0372 C   0  0  0  0  0  0  0  0  0  0  0  0
   -2.7050   -0.6253    0.0116 C   0  0  0  0  0  0  0  0  0  0  0  0
   -4.8221   -0.3020    0.1737 H   0  0  0  0  0  0  0  0  0  0  0  0
   -4.0152    0.9301   -0.8645 H   0  0  0  0  0  0  0  0  0  0  0  0
   -3.9139    0.9383    0.8859 H   0  0  0  0  0  0  0  0  0  0  0  0
   -1.4083    0.1757   -0.0158 C   0  0  0  0  0  0  0  0  0  0  0  0
   -2.7176   -1.3365   -0.8757 H   0  0  0  0  0  0  0  0  0  0  0  0
   -2.6744   -1.2032    0.8816 H   0  0  0  0  0  0  0  0  0  0  0  0
   -0.1676   -0.6855    0.0495 C   0  0  0  0  0  0  0  0  0  0  0  0
   -1.4020    0.9135    0.8698 H   0  0  0  0  0  0  0  0  0  0  0  0
   -1.3604    0.7939   -0.9131 H   0  0  0  0  0  0  0  0  0  0  0  0
   -0.2159   -1.3505    1.0069 H   0  0  0  0  0  0  0  0  0  0  0  0
    0.7500   -0.0919    0.0575 H   0  0  0  0  0  0  0  0  0  0  0  0
   -0.1150   -1.3385   -0.7701 H   0  0  0  0  0  0  0  0  0  0  0  0
  1  3  1  0  0  0  0
  1  5  1  0  0  0  0
  2  1  1  0  0  0  0
  2  8  1  0  0  0  0
  4  1  1  0  0  0  0
  6  2  1  0  0  0  0
  6  9  1  0  0  0  0
  6 10  1  0  0  0  0
  7  2  1  0  0  0  0
  9 13  1  0  0  0  0
  9 12  1  0  0  0  0
 11  6  1  0  0  0  0
 14  9  1  0  0  0  0
M  END
$$$$
