14
butane_opt
C  -3.925104   0.263636   0.020716
C  -2.700936  -0.604215   0.039156
H  -4.872149  -0.387405  -0.078578
H  -3.909690   0.754494  -0.803417
H  -3.967152   1.015281   0.949435
C  -1.417688   0.196025   0.000920
H  -2.701521  -1.256222  -0.792672
H  -2.731018  -1.300504   0.954533
C  -0.172363  -0.702136   0.033814
H  -1.343724   0.833715   0.832424
H  -1.390570   0.866199  -0.917176
H  -0.102995  -1.340708   0.971119
H   0.743274  -0.116827   0.035836
H  -0.152576  -1.385126  -0.829039
