14
butane_opt
C  -3.955802   0.257981   0.020097
C  -2.706384  -0.601706   0.040333
H  -4.890183  -0.349518  -0.037006
H  -3.939391   0.741536  -0.780726
H  -3.969622   1.047471   0.958438
C  -1.397187   0.196687  -0.011613
H  -2.757359  -1.276434  -0.822575
H  -2.728126  -1.272431   0.942381
C  -0.146450  -0.702046   0.041605
H  -1.375804   0.843188   0.822505
H  -1.373422   0.839533  -0.909412
H  -0.132746  -1.356606   0.969424
H   0.733498  -0.133442   0.023495
H  -0.114570  -1.373244  -0.796153
