butane_opt
 OpenBabel08242015403D

 14 13  0  0  0  0  0  0  0  0999 V2000
   -3.9392    0.2611   -0.0037 C   0  0  0  0  0  0  0  0  0  0  0  0
   -2.6976   -0.5961    0.0502 C   0  0  0  0  0  0  0  0  0  0  0  0
   -4.8887   -0.3885    0.1735 H   0  0  0  0  0  0  0  0  0  0  0  0
   -3.9753    0.9874   -0.9721 H   0  0  0  0  0  0  0  0  0  0  0  0
   -3.9108    0.7864    0.7745 H   0  0  0  0  0  0  0  0  0  0  0  0
   -1.4002    0.1845    0.0384 C   0  0  0  0  0  0  0  0  0  0  0  0
   -2.6913   -1.2926   -0.8106 H   0  0  0  0  0  0  0  0  0  0  0  0
   -2.7217   -1.2599    0.9992 H   0  0  0  0  0  0  0  0  0  0  0  0
   -0.1641   -0.6992    0.0051 C   0  0  0  0  0  0  0  0  0  0  0  0
   -1.3977    0.9288    0.9382 H   0  0  0  0  0  0  0  0  0  0  0  0
   -1.4240    0.7642   -0.8116 H   0  0  0  0  0  0  0  0  0  0  0  0
   -0.2039   -1.2747    0.8710 H   0  0  0  0  0  0  0  0  0  0  0  0
    0.7136   -0.1205    0.0520 H   0  0  0  0  0  0  0  0  0  0  0  0
   -0.0998   -1.4105   -0.8745 H   0  0  0  0  0  0  0  0  0  0  0  0
  1  2  1  0  0  0  0
  1  3  1  0  0  0  0
  1  5  1  0  0  0  0
  2  8  1  0  0  0  0
  4  1  1  0  0  0  0
  6  2  1  0  0  0  0
  6 10  1  0  0  0  0
  7  2  1  0  0  0  0
  9  6  1  0  0  0  0
  9 13  1  0  0  0  0
  9 12  1  0  0  0  0
 11  6  1  0  0  0  0
 14  9  1  0  0  0  0
M  END
$$$$
