butane_opt
 OpenBabel08242015403D

 14 13  0  0  0  0  0  0  0  0999 V2000
   -3.9520    0.2674    0.0362 C   0  0  0  0  0  0  0  0  0  0  0  0
   -2.7002   -0.6244    0.0261 C   0  0  0  0  0  0  0  0  0  0  0  0
   -4.8390   -0.2928   -0.0704 H   0  0  0  0  0  0  0  0  0  0  0  0
   -3.9650    0.7557   -0.7859 H   0  0  0  0  0  0  0  0  0  0  0  0
   -4.0199    1.0917    0.9907 H   0  0  0  0  0  0  0  0  0  0  0  0
   -1.4023    0.1846   -0.0258 C   0  0  0  0  0  0  0  0  0  0  0  0
   -2.7079   -1.2850   -0.8214 H   0  0  0  0  0  0  0  0  0  0  0  0
   -2.7264   -1.2803    0.9385 H   0  0  0  0  0  0  0  0  0  0  0  0
   -0.1554   -0.6846    0.0601 C   0  0  0  0  0  0  0  0  0  0  0  0
   -1.3809    0.8169    0.7974 H   0  0  0  0  0  0  0  0  0  0  0  0
   -1.3229    0.8054   -0.8936 H   0  0  0  0  0  0  0  0  0  0  0  0
   -0.1383   -1.3384    0.9716 H   0  0  0  0  0  0  0  0  0  0  0  0
    0.7449   -0.1258   -0.0378 H   0  0  0  0  0  0  0  0  0  0  0  0
   -0.1457   -1.3336   -0.7940 H   0  0  0  0  0  0  0  0  0  0  0  0
  1  5  1  0  0  0  0
  2  1  1  0  0  0  0
  2  8  1  0  0  0  0
  3  1  1  0  0  0  0
  4  1  1  0  0  0  0
  6  2  1  0  0  0  0
  6  9  1  0  0  0  0
  6 10  1  0  0  0  0
  7  2  1  0  0  0  0
  9 12  1  0  0  0  0
 11  6  1  0  0  0  0
 13  9  1  0  0  0  0
 14  9  1  0  0  0  0
M  END
$$$$
