butane_opt
 OpenBabel08242015403D

 14 13  0  0  0  0  0  0  0  0999 V2000
   -3.9459    0.2553    0.0442 C   0  0  0  0  0  0  0  0  0  0  0  0
   -2.7079   -0.6114    0.0070 C   0  0  0  0  0  0  0  0  0  0  0  0
   -4.8328   -0.2988   -0.0093 H   0  0  0  0  0  0  0  0  0  0  0  0
   -4.0231    0.8503   -0.8054 H   0  0  0  0  0  0  0  0  0  0  0  0
   -3.9715    0.9878    0.9282 H   0  0  0  0  0  0  0  0  0  0  0  0
   -1.3919    0.1957    0.0023 C   0  0  0  0  0  0  0  0  0  0  0  0
   -2.7590   -1.3746   -0.9160 H   0  0  0  0  0  0  0  0  0  0  0  0
   -2.7469   -1.2093    0.8510 H   0  0  0  0  0  0  0  0  0  0  0  0
   -0.1493   -0.6981    0.0552 C   0  0  0  0  0  0  0  0  0  0  0  0
   -1.3844    0.8489    0.8199 H   0  0  0  0  0  0  0  0  0  0  0  0
   -1.4178    0.8539   -0.9138 H   0  0  0  0  0  0  0  0  0  0  0  0
   -0.1071   -1.4695    1.0462 H   0  0  0  0  0  0  0  0  0  0  0  0
    0.7269   -0.1434   -0.1248 H   0  0  0  0  0  0  0  0  0  0  0  0
   -0.1605   -1.2136   -0.7197 H   0  0  0  0  0  0  0  0  0  0  0  0
  1  5  1  0  0  0  0
  2  1  1  0  0  0  0
  2  8  1  0  0  0  0
  3  1  1  0  0  0  0
  4  1  1  0  0  0  0
  6  2  1  0  0  0  0
  6  9  1  0  0  0  0
  6 10  1  0  0  0  0
  7  2  1  0  0  0  0
  9 12  1  0  0  0  0
 11  6  1  0  0  0  0
 13  9  1  0  0  0  0
 14  9  1  0  0  0  0
M  END
$$$$
