14
butane_opt
C  -3.930338   0.255885  -0.003843
C  -2.702912  -0.591415   0.073787
H  -4.921314  -0.399578   0.056333
H  -3.898668   0.962210  -0.954915
H  -3.958145   0.818250   0.777677
C  -1.405050   0.193264   0.031462
H  -2.732317  -1.286922  -0.775442
H  -2.683512  -1.260392   0.978775
C  -0.164933  -0.710772   0.003303
H  -1.389782   0.874259   0.901082
H  -1.423608   0.839402  -0.855927
H  -0.168230  -1.186229   0.815439
H   0.732084  -0.139070   0.150387
H  -0.127398  -1.470129  -0.932985
