14
butane_opt
C  -3.955003   0.274043   0.051973
C  -2.713697  -0.624055   0.008134
H  -4.871318  -0.301644   0.079780
H  -4.022477   0.853766  -0.795138
H  -3.951404   0.971839   0.932811
C  -1.393755   0.169929  -0.029892
H  -2.692244  -1.326844  -0.861697
H  -2.706770  -1.201660   0.856256
C  -0.153486  -0.690762   0.067007
H  -1.379634   0.791808   0.765151
H  -1.340683   0.896023  -0.974118
H  -0.165429  -1.279646   0.920296
H   0.774862  -0.069858   0.142863
H  -0.080784  -1.358695  -0.782531
