butane_opt
 OpenBabel08242015403D

 14 13  0  0  0  0  0  0  0  0999 V2000
   -3.9277    0.2504    0.0478 C   0  0  0  0  0  0  0  0  0  0  0  0
   -2.6996   -0.6067    0.0176 C   0  0  0  0  0  0  0  0  0  0  0  0
   -4.8277   -0.3481    0.0369 H   0  0  0  0  0  0  0  0  0  0  0  0
   -3.9362    0.8644   -0.8512 H   0  0  0  0  0  0  0  0  0  0  0  0
   -3.9473    0.9244    0.9358 H   0  0  0  0  0  0  0  0  0  0  0  0
   -1.4205    0.2037   -0.0359 C   0  0  0  0  0  0  0  0  0  0  0  0
   -2.7396   -1.2521   -0.7928 H   0  0  0  0  0  0  0  0  0  0  0  0
   -2.6858   -1.2319    0.9203 H   0  0  0  0  0  0  0  0  0  0  0  0
   -0.1596   -0.7067    0.0555 C   0  0  0  0  0  0  0  0  0  0  0  0
   -1.4243    0.8831    0.8376 H   0  0  0  0  0  0  0  0  0  0  0  0
   -1.3881    0.8269   -0.9418 H   0  0  0  0  0  0  0  0  0  0  0  0
   -0.2308   -1.2828    0.9255 H   0  0  0  0  0  0  0  0  0  0  0  0
    0.7528   -0.1066    0.1802 H   0  0  0  0  0  0  0  0  0  0  0  0
   -0.1008   -1.4415   -0.8361 H   0  0  0  0  0  0  0  0  0  0  0  0
  1  5  1  0  0  0  0
  2  1  1  0  0  0  0
  2  8  1  0  0  0  0
  3  1  1  0  0  0  0
  4  1  1  0  0  0  0
  6  2  1  0  0  0  0
  6  9  1  0  0  0  0
  6 10  1  0  0  0  0
  7  2  1  0  0  0  0
  9 13  1  0  0  0  0
  9 12  1  0  0  0  0
 11  6  1  0  0  0  0
 14  9  1  0  0  0  0
M  END
$$$$
