14
butane_opt
C  -3.944833   0.274132   0.019576
C  -2.694822  -0.620478   0.030770
H  -4.837456  -0.290699   0.029405
H  -3.944365   0.854500  -0.857944
H  -3.969999   1.001780   0.944312
C  -1.402689   0.164407   0.014024
H  -2.746229  -1.360961  -0.871188
H  -2.742576  -1.207607   0.903545
C  -0.164164  -0.678536   0.040787
H  -1.422318   0.822549   0.850030
H  -1.356615   0.804464  -0.924159
H  -0.101618  -1.400882   0.998671
H   0.788869  -0.065782  -0.101501
H  -0.227505  -1.286318  -0.777647
