butane_opt
 OpenBabel08242015403D

 14 13  0  0  0  0  0  0  0  0999 V2000
   -3.9302    0.2602    0.0490 C   0  0  0  0  0  0  0  0  0  0  0  0
   -2.6997   -0.6013    0.0228 C   0  0  0  0  0  0  0  0  0  0  0  0
   -4.8973   -0.3602    0.0446 H   0  0  0  0  0  0  0  0  0  0  0  0
   -3.9101    0.8441   -0.8365 H   0  0  0  0  0  0  0  0  0  0  0  0
   -3.9694    0.9537    0.9073 H   0  0  0  0  0  0  0  0  0  0  0  0
   -1.4080    0.1920   -0.0258 C   0  0  0  0  0  0  0  0  0  0  0  0
   -2.7884   -1.3474   -0.8721 H   0  0  0  0  0  0  0  0  0  0  0  0
   -2.6991   -1.2295    0.8909 H   0  0  0  0  0  0  0  0  0  0  0  0
   -0.1619   -0.7028    0.0560 C   0  0  0  0  0  0  0  0  0  0  0  0
   -1.4621    0.8504    0.7824 H   0  0  0  0  0  0  0  0  0  0  0  0
   -1.3673    0.8407   -0.9511 H   0  0  0  0  0  0  0  0  0  0  0  0
   -0.1958   -1.3085    0.9470 H   0  0  0  0  0  0  0  0  0  0  0  0
    0.7502   -0.1026    0.1086 H   0  0  0  0  0  0  0  0  0  0  0  0
   -0.0847   -1.3924   -0.8040 H   0  0  0  0  0  0  0  0  0  0  0  0
  1  5  1  0  0  0  0
  2  1  1  0  0  0  0
  2  8  1  0  0  0  0
  3  1  1  0  0  0  0
  4  1  1  0  0  0  0
  6  2  1  0  0  0  0
  6  9  1  0  0  0  0
  6 10  1  0  0  0  0
  7  2  1  0  0  0  0
  9 13  1  0  0  0  0
  9 12  1  0  0  0  0
 11  6  1  0  0  0  0
 14  9  1  0  0  0  0
M  END
$$$$
