14
butane_opt
C  -3.928303   0.254478   0.004658
C  -2.701022  -0.607995   0.060063
H  -4.863515  -0.340120   0.095530
H  -3.947886   0.898384  -0.912286
H  -3.911971   0.842799   0.799136
C  -1.423347   0.204374   0.019086
H  -2.685020  -1.279899  -0.776276
H  -2.715055  -1.235821   0.961756
C  -0.159385  -0.699831   0.019618
H  -1.430005   0.845933   0.858175
H  -1.374283   0.837944  -0.902796
H  -0.139916  -1.217699   0.842768
H   0.714681  -0.152786   0.163468
H  -0.123524  -1.492062  -0.945128
