butane_opt
 OpenBabel08242015403D

 14 13  0  0  0  0  0  0  0  0999 V2000
   -3.9534    0.2699    0.0260 C   0  0  0  0  0  0  0  0  0  0  0  0
   -2.7109   -0.6207    0.0389 C   0  0  0  0  0  0  0  0  0  0  0  0
   -4.8984   -0.3294   -0.0735 H   0  0  0  0  0  0  0  0  0  0  0  0
   -3.9590    0.7426   -0.7757 H   0  0  0  0  0  0  0  0  0  0  0  0
   -4.0258    1.0787    0.9841 H   0  0  0  0  0  0  0  0  0  0  0  0
   -1.3976    0.1842   -0.0123 C   0  0  0  0  0  0  0  0  0  0  0  0
   -2.6812   -1.3082   -0.8351 H   0  0  0  0  0  0  0  0  0  0  0  0
   -2.6978   -1.2354    0.9119 H   0  0  0  0  0  0  0  0  0  0  0  0
   -0.1507   -0.6889    0.0466 C   0  0  0  0  0  0  0  0  0  0  0  0
   -1.4034    0.7949    0.8028 H   0  0  0  0  0  0  0  0  0  0  0  0
   -1.3440    0.8237   -0.9139 H   0  0  0  0  0  0  0  0  0  0  0  0
   -0.1052   -1.3570    0.9924 H   0  0  0  0  0  0  0  0  0  0  0  0
    0.7568   -0.1026   -0.0505 H   0  0  0  0  0  0  0  0  0  0  0  0
   -0.1142   -1.3164   -0.7764 H   0  0  0  0  0  0  0  0  0  0  0  0
  1  2  1  0  0  0  0
  1  5  1  0  0  0  0
  2  8  1  0  0  0  0
  3  1  1  0  0  0  0
  4  1  1  0  0  0  0
  6  2  1  0  0  0  0
  6  9  1  0  0  0  0
  6 10  1  0  0  0  0
  7  2  1  0  0  0  0
  9 12  1  0  0  0  0
 11  6  1  0  0  0  0
 13  9  1  0  0  0  0
 14  9  1  0  0  0  0
M  END
$$$$
