14
butane_opt
C  -3.953997   0.275643   0.036889
C  -2.681617  -0.630038   0.015764
H  -4.888630  -0.348341   0.150038
H  -4.068258   0.935286  -0.879118
H  -3.901756   0.932453   0.876231
C  -1.398266   0.172317  -0.010636
H  -2.720411  -1.333414  -0.890805
H  -2.675455  -1.226306   0.885883
C  -0.166548  -0.685268   0.057564
H  -1.369115   0.831512   0.828780
H  -1.386427   0.845348  -0.933478
H  -0.222140  -1.255780   0.937043
H   0.739205  -0.068228   0.078841
H  -0.119553  -1.381756  -0.815029
