14
butane_opt
C  -3.947992   0.256746  -0.004942
C  -2.708448  -0.611333   0.086475
H  -4.909101  -0.353349  -0.124399
H  -3.897440   0.808333  -0.865746
H  -4.019995   0.942627   0.865255
C  -1.413060   0.203980   0.024755
H  -2.679379  -1.270871  -0.767079
H  -2.745641  -1.225025   0.954105
C  -0.140896  -0.705604   0.006672
H  -1.335843   0.893889   0.899675
H  -1.425580   0.827789  -0.881094
H  -0.101616  -1.311989   0.885115
H   0.728602  -0.150436  -0.008120
H  -0.105295  -1.373827  -0.867808
