butane_opt
 OpenBabel08242015403D

 14 13  0  0  0  0  0  0  0  0999 V2000
   -3.9585    0.2732   -0.0050 C   0  0  0  0  0  0  0  0  0  0  0  0
   -2.6887   -0.6198    0.0547 C   0  0  0  0  0  0  0  0  0  0  0  0
   -4.8516   -0.3166    0.0417 H   0  0  0  0  0  0  0  0  0  0  0  0
   -3.9574    0.8902   -0.9029 H   0  0  0  0  0  0  0  0  0  0  0  0
   -4.0110    0.9079    0.7945 H   0  0  0  0  0  0  0  0  0  0  0  0
   -1.3940    0.1728    0.0487 C   0  0  0  0  0  0  0  0  0  0  0  0
   -2.6632   -1.2895   -0.7685 H   0  0  0  0  0  0  0  0  0  0  0  0
   -2.7620   -1.2497    0.9456 H   0  0  0  0  0  0  0  0  0  0  0  0
   -0.1628   -0.6837    0.0027 C   0  0  0  0  0  0  0  0  0  0  0  0
   -1.3274    0.8816    0.9192 H   0  0  0  0  0  0  0  0  0  0  0  0
   -1.4084    0.7627   -0.8159 H   0  0  0  0  0  0  0  0  0  0  0  0
   -0.1203   -1.3695    0.9446 H   0  0  0  0  0  0  0  0  0  0  0  0
    0.7300   -0.0941   -0.0720 H   0  0  0  0  0  0  0  0  0  0  0  0
   -0.2070   -1.3044   -0.8472 H   0  0  0  0  0  0  0  0  0  0  0  0
  1  3  1  0  0  0  0
  1  2  1  0  0  0  0
  1  5  1  0  0  0  0
  2  8  1  0  0  0  0
  4  1  1  0  0  0  0
  6  2  1  0  0  0  0
  6 10  1  0  0  0  0
  7  2  1  0  0  0  0
  9  6  1  0  0  0  0
  9 12  1  0  0  0  0
 11  6  1  0  0  0  0
 13  9  1  0  0  0  0
 14  9  1  0  0  0  0
M  END
$$$$
