14
butane_opt
C  -3.946477   0.247681  -0.010534
C  -2.710181  -0.596763   0.080672
H  -4.871545  -0.360575   0.095471
H  -3.976388   0.903650  -0.944477
H  -4.009109   0.864848   0.811703
C  -1.408840   0.197759   0.023192
H  -2.729875  -1.259833  -0.788780
H  -2.712382  -1.216321   0.965747
C  -0.139763  -0.707755   0.007544
H  -1.360259   0.890569   0.900979
H  -1.442792   0.842468  -0.872051
H  -0.166184  -1.222418   0.823071
H   0.771551  -0.109755   0.141760
H  -0.051888  -1.505474  -0.916473
