butane_opt
 OpenBabel08242015403D

 14 13  0  0  0  0  0  0  0  0999 V2000
   -3.9514    0.2724    0.0439 C   0  0  0  0  0  0  0  0  0  0  0  0
   -2.6997   -0.6250    0.0152 C   0  0  0  0  0  0  0  0  0  0  0  0
   -4.8477   -0.3021    0.1083 H   0  0  0  0  0  0  0  0  0  0  0  0
   -4.0212    0.8929   -0.8510 H   0  0  0  0  0  0  0  0  0  0  0  0
   -3.9739    0.9914    0.9460 H   0  0  0  0  0  0  0  0  0  0  0  0
   -1.3962    0.1680   -0.0367 C   0  0  0  0  0  0  0  0  0  0  0  0
   -2.7409   -1.2742   -0.8441 H   0  0  0  0  0  0  0  0  0  0  0  0
   -2.6858   -1.2490    0.8963 H   0  0  0  0  0  0  0  0  0  0  0  0
   -0.1612   -0.6890    0.0606 C   0  0  0  0  0  0  0  0  0  0  0  0
   -1.3403    0.8361    0.8135 H   0  0  0  0  0  0  0  0  0  0  0  0
   -1.3670    0.7936   -0.9212 H   0  0  0  0  0  0  0  0  0  0  0  0
   -0.2413   -1.2382    0.9265 H   0  0  0  0  0  0  0  0  0  0  0  0
    0.7771   -0.0425    0.1568 H   0  0  0  0  0  0  0  0  0  0  0  0
   -0.0802   -1.3931   -0.7850 H   0  0  0  0  0  0  0  0  0  0  0  0
  1  3  1  0  0  0  0
  1  5  1  0  0  0  0
  2  1  1  0  0  0  0
  2  8  1  0  0  0  0
  4  1  1  0  0  0  0
  6  2  1  0  0  0  0
  6  9  1  0  0  0  0
  6 10  1  0  0  0  0
  7  2  1  0  0  0  0
  9 13  1  0  0  0  0
  9 12  1  0  0  0  0
 11  6  1  0  0  0  0
 14  9  1  0  0  0  0
M  END
$$$$
