butane_opt
 OpenBabel08242015403D

 14 13  0  0  0  0  0  0  0  0999 V2000
   -3.9334    0.2595   -0.0060 C   0  0  0  0  0  0  0  0  0  0  0  0
   -2.7075   -0.6061    0.0738 C   0  0  0  0  0  0  0  0  0  0  0  0
   -4.8789   -0.3651    0.0402 H   0  0  0  0  0  0  0  0  0  0  0  0
   -3.9430    0.9370   -0.9386 H   0  0  0  0  0  0  0  0  0  0  0  0
   -3.8929    0.8670    0.7926 H   0  0  0  0  0  0  0  0  0  0  0  0
   -1.4051    0.1921    0.0200 C   0  0  0  0  0  0  0  0  0  0  0  0
   -2.6952   -1.2030   -0.7284 H   0  0  0  0  0  0  0  0  0  0  0  0
   -2.7339   -1.3029    0.9986 H   0  0  0  0  0  0  0  0  0  0  0  0
   -0.1614   -0.7009    0.0145 C   0  0  0  0  0  0  0  0  0  0  0  0
   -1.3899    0.9033    0.8903 H   0  0  0  0  0  0  0  0  0  0  0  0
   -1.4410    0.7961   -0.8434 H   0  0  0  0  0  0  0  0  0  0  0  0
   -0.1739   -1.1809    0.8082 H   0  0  0  0  0  0  0  0  0  0  0  0
    0.7517   -0.1084    0.1425 H   0  0  0  0  0  0  0  0  0  0  0  0
   -0.1361   -1.5595   -0.9746 H   0  0  0  0  0  0  0  0  0  0  0  0
  1  3  1  0  0  0  0
  1  2  1  0  0  0  0
  1  5  1  0  0  0  0
  2  8  1  0  0  0  0
  4  1  1  0  0  0  0
  6  2  1  0  0  0  0
  6 10  1  0  0  0  0
  7  2  1  0  0  0  0
  9  6  1  0  0  0  0
  9 13  1  0  0  0  0
  9 12  1  0  0  0  0
 11  6  1  0  0  0  0
 14  9  1  0  0  0  0
M  END
$$$$
