14
butane_opt
C  -3.942621   0.255800  -0.011834
C  -2.692463  -0.605156   0.065444
H  -4.883390  -0.335993   0.027991
H  -3.922170   0.888670  -0.938531
H  -3.936369   0.918142   0.852305
C  -1.412205   0.192759   0.040073
H  -2.717256  -1.283076  -0.802596
H  -2.757686  -1.257036   1.001551
C  -0.154577  -0.701645   0.003499
H  -1.409587   0.907898   0.929744
H  -1.441898   0.772214  -0.805146
H  -0.115048  -1.359894   0.905287
H   0.772626  -0.086820  -0.040547
H  -0.188857  -1.334389  -0.854142
