14
butane_opt
C  -3.942996   0.269401   0.044765
C  -2.681326  -0.625609  -0.005391
H  -4.853523  -0.323073   0.199920
H  -4.069433   0.933647  -0.878351
H  -3.855034   0.920805   0.905411
C  -1.409354   0.184285  -0.015967
H  -2.724497  -1.340674  -0.913897
H  -2.641884  -1.267286   0.880102
C  -0.176537  -0.687647   0.062519
H  -1.375728   0.857468   0.815604
H  -1.346794   0.810523  -0.895820
H  -0.205760  -1.328562   1.013264
H   0.730447  -0.088159   0.081477
H  -0.152703  -1.331433  -0.798540
