14
butane_opt
C  -3.944035   0.265330  -0.000203
C  -2.699456  -0.629615   0.067962
H  -4.827105  -0.293694  -0.106930
H  -3.947890   0.819272  -0.858396
H  -4.042331   1.026760   0.915473
C  -1.411631   0.182232   0.021287
H  -2.663349  -1.229034  -0.732778
H  -2.777584  -1.283860   0.969739
C  -0.157665  -0.690505   0.008346
H  -1.347846   0.869012   0.871411
H  -1.385003   0.823680  -0.858256
H  -0.090013  -1.305699   0.904301
H   0.748893  -0.059809   0.014130
H  -0.141836  -1.370955  -0.835628
