butane_opt
 OpenBabel08242015403D

 14 13  0  0  0  0  0  0  0  0999 V2000
   -3.9482    0.2533    0.0441 C   0  0  0  0  0  0  0  0  0  0  0  0
   -2.7153   -0.6013    0.0034 C   0  0  0  0  0  0  0  0  0  0  0  0
   -4.8660   -0.3366    0.1270 H   0  0  0  0  0  0  0  0  0  0  0  0
   -4.0378    0.9082   -0.8341 H   0  0  0  0  0  0  0  0  0  0  0  0
   -3.8695    0.8654    0.8747 H   0  0  0  0  0  0  0  0  0  0  0  0
   -1.4050    0.1974   -0.0183 C   0  0  0  0  0  0  0  0  0  0  0  0
   -2.7129   -1.3355   -0.8946 H   0  0  0  0  0  0  0  0  0  0  0  0
   -2.7087   -1.2156    0.8691 H   0  0  0  0  0  0  0  0  0  0  0  0
   -0.1453   -0.6983    0.0579 C   0  0  0  0  0  0  0  0  0  0  0  0
   -1.4003    0.9209    0.8790 H   0  0  0  0  0  0  0  0  0  0  0  0
   -1.3799    0.7926   -0.8846 H   0  0  0  0  0  0  0  0  0  0  0  0
   -0.1200   -1.4098    1.0226 H   0  0  0  0  0  0  0  0  0  0  0  0
    0.7220   -0.1566    0.0019 H   0  0  0  0  0  0  0  0  0  0  0  0
   -0.0834   -1.3197   -0.7661 H   0  0  0  0  0  0  0  0  0  0  0  0
  1  3  1  0  0  0  0
  1  5  1  0  0  0  0
  2  1  1  0  0  0  0
  2  8  1  0  0  0  0
  4  1  1  0  0  0  0
  6  2  1  0  0  0  0
  6  9  1  0  0  0  0
  6 10  1  0  0  0  0
  7  2  1  0  0  0  0
  9 12  1  0  0  0  0
 11  6  1  0  0  0  0
 13  9  1  0  0  0  0
 14  9  1  0  0  0  0
M  END
$$$$
