14
butane_opt
C  -3.938730   0.252755  -0.004358
C  -2.696360  -0.603991   0.079277
H  -4.861550  -0.349288  -0.061109
H  -3.859970   0.885039  -0.898165
H  -4.080681   0.946654   0.860675
C  -1.408385   0.193607   0.027200
H  -2.680797  -1.278687  -0.783718
H  -2.721989  -1.288719   1.004832
C  -0.169418  -0.697120   0.006158
H  -1.355801   0.878229   0.877650
H  -1.409535   0.824433  -0.848431
H  -0.118419  -1.277422   0.857908
H   0.743264  -0.112643   0.029319
H  -0.115788  -1.448004  -0.899226
