butane_opt
 OpenBabel08242015403D

 14 13  0  0  0  0  0  0  0  0999 V2000
   -3.9472    0.2778    0.0423 C   0  0  0  0  0  0  0  0  0  0  0  0
   -2.7059   -0.6272    0.0233 C   0  0  0  0  0  0  0  0  0  0  0  0
   -4.8431   -0.2859    0.0029 H   0  0  0  0  0  0  0  0  0  0  0  0
   -3.9385    0.8372   -0.8293 H   0  0  0  0  0  0  0  0  0  0  0  0
   -3.9946    0.9567    0.9283 H   0  0  0  0  0  0  0  0  0  0  0  0
   -1.4019    0.1715   -0.0231 C   0  0  0  0  0  0  0  0  0  0  0  0
   -2.7452   -1.2960   -0.8325 H   0  0  0  0  0  0  0  0  0  0  0  0
   -2.6281   -1.2440    0.9216 H   0  0  0  0  0  0  0  0  0  0  0  0
   -0.1634   -0.6862    0.0515 C   0  0  0  0  0  0  0  0  0  0  0  0
   -1.4014    0.7993    0.8073 H   0  0  0  0  0  0  0  0  0  0  0  0
   -1.3737    0.8325   -0.9284 H   0  0  0  0  0  0  0  0  0  0  0  0
   -0.1891   -1.2715    0.9219 H   0  0  0  0  0  0  0  0  0  0  0  0
    0.8089   -0.0498    0.1332 H   0  0  0  0  0  0  0  0  0  0  0  0
   -0.1095   -1.3739   -0.8149 H   0  0  0  0  0  0  0  0  0  0  0  0
  1  5  1  0  0  0  0
  2  1  1  0  0  0  0
  2  8  1  0  0  0  0
  3  1  1  0  0  0  0
  4  1  1  0  0  0  0
  6  2  1  0  0  0  0
  6  9  1  0  0  0  0
  6 10  1  0  0  0  0
  7  2  1  0  0  0  0
  9 13  1  0  0  0  0
  9 12  1  0  0  0  0
 11  6  1  0  0  0  0
 14  9  1  0  0  0  0
M  END
$$$$
