14
butane_opt
C  -3.959450   0.271011  -0.006174
C  -2.690409  -0.621226   0.056205
H  -4.854355  -0.312599   0.138356
H  -4.023102   1.065926  -1.020094
H  -3.917493   0.812111   0.769934
C  -1.390071   0.165389   0.047681
H  -2.680680  -1.308364  -0.781059
H  -2.732000  -1.237240   0.954270
C  -0.168884  -0.680152   0.009095
H  -1.380702   0.877442   0.913846
H  -1.371110   0.771742  -0.808702
H  -0.107080  -1.226834   0.850062
H   0.754924  -0.082478   0.009133
H  -0.209277  -1.443597  -0.895208
