butane_opt
 OpenBabel08242015403D

 14 13  0  0  0  0  0  0  0  0999 V2000
   -3.9653    0.2700    0.0221 C   0  0  0  0  0  0  0  0  0  0  0  0
   -2.6978   -0.6237    0.0419 C   0  0  0  0  0  0  0  0  0  0  0  0
   -4.8398   -0.3057    0.0745 H   0  0  0  0  0  0  0  0  0  0  0  0
   -4.0026    0.9443   -0.9371 H   0  0  0  0  0  0  0  0  0  0  0  0
   -3.9892    0.8978    0.8420 H   0  0  0  0  0  0  0  0  0  0  0  0
   -1.3899    0.1758    0.0014 C   0  0  0  0  0  0  0  0  0  0  0  0
   -2.7112   -1.2658   -0.7644 H   0  0  0  0  0  0  0  0  0  0  0  0
   -2.7213   -1.3036    0.9508 H   0  0  0  0  0  0  0  0  0  0  0  0
   -0.1452   -0.6882    0.0291 C   0  0  0  0  0  0  0  0  0  0  0  0
   -1.4251    0.8633    0.8744 H   0  0  0  0  0  0  0  0  0  0  0  0
   -1.4059    0.7941   -0.8714 H   0  0  0  0  0  0  0  0  0  0  0  0
   -0.1835   -1.1879    0.8353 H   0  0  0  0  0  0  0  0  0  0  0  0
    0.7608   -0.0820    0.1668 H   0  0  0  0  0  0  0  0  0  0  0  0
   -0.1294   -1.4252   -0.8769 H   0  0  0  0  0  0  0  0  0  0  0  0
  1  2  1  0  0  0  0
  1  3  1  0  0  0  0
  1  5  1  0  0  0  0
  2  8  1  0  0  0  0
  4  1  1  0  0  0  0
  6  9  1  0  0  0  0
  6  2  1  0  0  0  0
  6 10  1  0  0  0  0
  7  2  1  0  0  0  0
  9 13  1  0  0  0  0
  9 12  1  0  0  0  0
 11  6  1  0  0  0  0
 14  9  1  0  0  0  0
M  END
$$$$
