butane_opt
 OpenBabel08242015403D

 14 13  0  0  0  0  0  0  0  0999 V2000
   -3.9346    0.2575    0.0408 C   0  0  0  0  0  0  0  0  0  0  0  0
   -2.6989   -0.6143    0.0259 C   0  0  0  0  0  0  0  0  0  0  0  0
   -4.8366   -0.3321   -0.0463 H   0  0  0  0  0  0  0  0  0  0  0  0
   -3.9958    0.7949   -0.7961 H   0  0  0  0  0  0  0  0  0  0  0  0
   -3.9453    1.0531    0.9822 H   0  0  0  0  0  0  0  0  0  0  0  0
   -1.4187    0.1903   -0.0193 C   0  0  0  0  0  0  0  0  0  0  0  0
   -2.7275   -1.3069   -0.8668 H   0  0  0  0  0  0  0  0  0  0  0  0
   -2.7168   -1.2606    0.9203 H   0  0  0  0  0  0  0  0  0  0  0  0
   -0.1593   -0.6969    0.0515 C   0  0  0  0  0  0  0  0  0  0  0  0
   -1.4319    0.8102    0.7734 H   0  0  0  0  0  0  0  0  0  0  0  0
   -1.3652    0.8849   -0.9598 H   0  0  0  0  0  0  0  0  0  0  0  0
   -0.1563   -1.3313    0.9713 H   0  0  0  0  0  0  0  0  0  0  0  0
    0.7602   -0.0730    0.0813 H   0  0  0  0  0  0  0  0  0  0  0  0
   -0.0713   -1.3520   -0.7968 H   0  0  0  0  0  0  0  0  0  0  0  0
  1  5  1  0  0  0  0
  2  1  1  0  0  0  0
  2  8  1  0  0  0  0
  3  1  1  0  0  0  0
  4  1  1  0  0  0  0
  6  2  1  0  0  0  0
  6  9  1  0  0  0  0
  6 10  1  0  0  0  0
  7  2  1  0  0  0  0
  9 13  1  0  0  0  0
  9 12  1  0  0  0  0
 11  6  1  0  0  0  0
 14  9  1  0  0  0  0
M  END
$$$$
