butane_opt
 OpenBabel08242015403D

 14 13  0  0  0  0  0  0  0  0999 V2000
   -3.9450    0.2534    0.0518 C   0  0  0  0  0  0  0  0  0  0  0  0
   -2.7086   -0.6100    0.0153 C   0  0  0  0  0  0  0  0  0  0  0  0
   -4.8697   -0.3752    0.0363 H   0  0  0  0  0  0  0  0  0  0  0  0
   -3.9608    0.8505   -0.8365 H   0  0  0  0  0  0  0  0  0  0  0  0
   -3.9614    0.9733    0.9596 H   0  0  0  0  0  0  0  0  0  0  0  0
   -1.4024    0.2042   -0.0309 C   0  0  0  0  0  0  0  0  0  0  0  0
   -2.7792   -1.3306   -0.8915 H   0  0  0  0  0  0  0  0  0  0  0  0
   -2.6912   -1.1944    0.8871 H   0  0  0  0  0  0  0  0  0  0  0  0
   -0.1548   -0.7012    0.0632 C   0  0  0  0  0  0  0  0  0  0  0  0
   -1.4504    0.8341    0.7694 H   0  0  0  0  0  0  0  0  0  0  0  0
   -1.3771    0.8784   -0.9634 H   0  0  0  0  0  0  0  0  0  0  0  0
   -0.0897   -1.3214    0.9752 H   0  0  0  0  0  0  0  0  0  0  0  0
    0.7289   -0.1589    0.1119 H   0  0  0  0  0  0  0  0  0  0  0  0
   -0.0405   -1.3915   -0.7968 H   0  0  0  0  0  0  0  0  0  0  0  0
  1  5  1  0  0  0  0
  2  1  1  0  0  0  0
  2  8  1  0  0  0  0
  3  1  1  0  0  0  0
  4  1  1  0  0  0  0
  6  2  1  0  0  0  0
  6  9  1  0  0  0  0
  6 10  1  0  0  0  0
  7  2  1  0  0  0  0
  9 13  1  0  0  0  0
  9 12  1  0  0  0  0
 11  6  1  0  0  0  0
 14  9  1  0  0  0  0
M  END
$$$$
