butane_opt
 OpenBabel08242015403D

 14 13  0  0  0  0  0  0  0  0999 V2000
   -3.9537    0.2751    0.0005 C   0  0  0  0  0  0  0  0  0  0  0  0
   -2.6958   -0.6223    0.0584 C   0  0  0  0  0  0  0  0  0  0  0  0
   -4.8389   -0.3087    0.0704 H   0  0  0  0  0  0  0  0  0  0  0  0
   -3.9525    0.9230   -0.8953 H   0  0  0  0  0  0  0  0  0  0  0  0
   -3.9569    0.9210    0.8411 H   0  0  0  0  0  0  0  0  0  0  0  0
   -1.4031    0.1624    0.0232 C   0  0  0  0  0  0  0  0  0  0  0  0
   -2.6608   -1.2991   -0.7719 H   0  0  0  0  0  0  0  0  0  0  0  0
   -2.6697   -1.2727    0.9785 H   0  0  0  0  0  0  0  0  0  0  0  0
   -0.1708   -0.6758    0.0170 C   0  0  0  0  0  0  0  0  0  0  0  0
   -1.3657    0.8022    0.8639 H   0  0  0  0  0  0  0  0  0  0  0  0
   -1.3856    0.8233   -0.9122 H   0  0  0  0  0  0  0  0  0  0  0  0
   -0.1860   -1.2105    0.8601 H   0  0  0  0  0  0  0  0  0  0  0  0
    0.7655   -0.0466    0.1323 H   0  0  0  0  0  0  0  0  0  0  0  0
   -0.1075   -1.4702   -0.9283 H   0  0  0  0  0  0  0  0  0  0  0  0
  1  2  1  0  0  0  0
  1  3  1  0  0  0  0
  1  5  1  0  0  0  0
  2  8  1  0  0  0  0
  4  1  1  0  0  0  0
  6  2  1  0  0  0  0
  6 10  1  0  0  0  0
  7  2  1  0  0  0  0
  9  6  1  0  0  0  0
  9 13  1  0  0  0  0
  9 12  1  0  0  0  0
 11  6  1  0  0  0  0
 14  9  1  0  0  0  0
M  END
$$$$
