14
butane_opt
C  -3.945341   0.266655  -0.008451
C  -2.687585  -0.619349   0.076840
H  -4.840650  -0.309187  -0.060828
H  -3.916137   0.864989  -0.879329
H  -4.033131   0.969790   0.841126
C  -1.410371   0.176944   0.025814
H  -2.658085  -1.247826  -0.754874
H  -2.718977  -1.330515   1.014940
C  -0.169991  -0.681900   0.009530
H  -1.333619   0.889931   0.918398
H  -1.374794   0.769920  -0.862089
H  -0.111532  -1.270565   0.874432
H   0.740711  -0.096752   0.025949
H  -0.218418  -1.422083  -0.919362
