butane_opt
 OpenBabel08242015403D

 14 13  0  0  0  0  0  0  0  0999 V2000
   -3.9290    0.2531    0.0499 C   0  0  0  0  0  0  0  0  0  0  0  0
   -2.7024   -0.6020    0.0089 C   0  0  0  0  0  0  0  0  0  0  0  0
   -4.8432   -0.3732    0.1144 H   0  0  0  0  0  0  0  0  0  0  0  0
   -3.9587    0.8991   -0.8834 H   0  0  0  0  0  0  0  0  0  0  0  0
   -3.8829    0.8975    0.8922 H   0  0  0  0  0  0  0  0  0  0  0  0
   -1.4280    0.1968   -0.0250 C   0  0  0  0  0  0  0  0  0  0  0  0
   -2.7472   -1.2983   -0.8579 H   0  0  0  0  0  0  0  0  0  0  0  0
   -2.7133   -1.2232    0.8551 H   0  0  0  0  0  0  0  0  0  0  0  0
   -0.1540   -0.7065    0.0572 C   0  0  0  0  0  0  0  0  0  0  0  0
   -1.4192    0.9265    0.8652 H   0  0  0  0  0  0  0  0  0  0  0  0
   -1.3940    0.8182   -0.9179 H   0  0  0  0  0  0  0  0  0  0  0  0
   -0.1616   -1.3514    0.9800 H   0  0  0  0  0  0  0  0  0  0  0  0
    0.7674   -0.0970    0.0850 H   0  0  0  0  0  0  0  0  0  0  0  0
   -0.1124   -1.3649   -0.7809 H   0  0  0  0  0  0  0  0  0  0  0  0
  1  3  1  0  0  0  0
  1  5  1  0  0  0  0
  2  1  1  0  0  0  0
  2  8  1  0  0  0  0
  4  1  1  0  0  0  0
  6  2  1  0  0  0  0
  6  9  1  0  0  0  0
  6 10  1  0  0  0  0
  7  2  1  0  0  0  0
  9 13  1  0  0  0  0
  9 12  1  0  0  0  0
 11  6  1  0  0  0  0
 14  9  1  0  0  0  0
M  END
$$$$
