butane_opt
 OpenBabel08242015403D

 14 13  0  0  0  0  0  0  0  0999 V2000
   -3.9425    0.2517    0.0415 C   0  0  0  0  0  0  0  0  0  0  0  0
   -2.7067   -0.5927    0.0049 C   0  0  0  0  0  0  0  0  0  0  0  0
   -4.8679   -0.3707    0.0386 H   0  0  0  0  0  0  0  0  0  0  0  0
   -3.9478    0.8594   -0.8497 H   0  0  0  0  0  0  0  0  0  0  0  0
   -3.8727    0.9466    0.9289 H   0  0  0  0  0  0  0  0  0  0  0  0
   -1.4017    0.1997    0.0067 C   0  0  0  0  0  0  0  0  0  0  0  0
   -2.7354   -1.3538   -0.9099 H   0  0  0  0  0  0  0  0  0  0  0  0
   -2.6762   -1.1834    0.8670 H   0  0  0  0  0  0  0  0  0  0  0  0
   -0.1666   -0.7083    0.0499 C   0  0  0  0  0  0  0  0  0  0  0  0
   -1.3893    0.8350    0.8223 H   0  0  0  0  0  0  0  0  0  0  0  0
   -1.4073    0.8420   -0.9180 H   0  0  0  0  0  0  0  0  0  0  0  0
   -0.1290   -1.4497    1.0593 H   0  0  0  0  0  0  0  0  0  0  0  0
    0.7676   -0.1211   -0.0959 H   0  0  0  0  0  0  0  0  0  0  0  0
   -0.1524   -1.2755   -0.7269 H   0  0  0  0  0  0  0  0  0  0  0  0
  1  5  1  0  0  0  0
  2  6  1  0  0  0  0
  2  1  1  0  0  0  0
  2  8  1  0  0  0  0
  3  1  1  0  0  0  0
  4  1  1  0  0  0  0
  6  9  1  0  0  0  0
  6 10  1  0  0  0  0
  7  2  1  0  0  0  0
  9 12  1  0  0  0  0
 11  6  1  0  0  0  0
 13  9  1  0  0  0  0
 14  9  1  0  0  0  0
M  END
$$$$
