14
butane_opt
C  -3.944888   0.262200   0.046089
C  -2.711596  -0.613634   0.017777
H  -4.875163  -0.356797   0.067399
H  -3.979978   0.830270  -0.835546
H  -3.901197   0.923868   0.897668
C  -1.402000   0.202564  -0.035186
H  -2.783585  -1.279072  -0.830000
H  -2.707693  -1.218465   0.880469
C  -0.147546  -0.703458   0.061697
H  -1.372995   0.876947   0.820289
H  -1.411740   0.842712  -0.901852
H  -0.194573  -1.293650   0.934818
H   0.709231  -0.166404   0.114476
H  -0.029326  -1.413634  -0.796339
