butane_opt
 OpenBabel08242015403D

 14 13  0  0  0  0  0  0  0  0999 V2000
   -3.9468    0.2566    0.0014 C   0  0  0  0  0  0  0  0  0  0  0  0
   -2.6876   -0.6154    0.0498 C   0  0  0  0  0  0  0  0  0  0  0  0
   -4.8364   -0.3220    0.0122 H   0  0  0  0  0  0  0  0  0  0  0  0
   -3.9445    0.8965   -0.8953 H   0  0  0  0  0  0  0  0  0  0  0  0
   -3.9765    0.9438    0.8748 H   0  0  0  0  0  0  0  0  0  0  0  0
   -1.4126    0.1876    0.0295 C   0  0  0  0  0  0  0  0  0  0  0  0
   -2.6599   -1.3170   -0.7813 H   0  0  0  0  0  0  0  0  0  0  0  0
   -2.7403   -1.1981    0.9142 H   0  0  0  0  0  0  0  0  0  0  0  0
   -0.1705   -0.6906    0.0153 C   0  0  0  0  0  0  0  0  0  0  0  0
   -1.3232    0.9090    0.9195 H   0  0  0  0  0  0  0  0  0  0  0  0
   -1.4205    0.7650   -0.8275 H   0  0  0  0  0  0  0  0  0  0  0  0
   -0.0623   -1.4113    0.9681 H   0  0  0  0  0  0  0  0  0  0  0  0
    0.7471   -0.1222   -0.0944 H   0  0  0  0  0  0  0  0  0  0  0  0
   -0.1987   -1.2667   -0.7853 H   0  0  0  0  0  0  0  0  0  0  0  0
  1  3  1  0  0  0  0
  1  2  1  0  0  0  0
  1  5  1  0  0  0  0
  2  8  1  0  0  0  0
  4  1  1  0  0  0  0
  6  2  1  0  0  0  0
  6 10  1  0  0  0  0
  7  2  1  0  0  0  0
  9  6  1  0  0  0  0
  9 12  1  0  0  0  0
 11  6  1  0  0  0  0
 13  9  1  0  0  0  0
 14  9  1  0  0  0  0
M  END
$$$$
