butane_opt
 OpenBabel08242015403D

 14 13  0  0  0  0  0  0  0  0999 V2000
   -3.9439    0.2514   -0.0041 C   0  0  0  0  0  0  0  0  0  0  0  0
   -2.7082   -0.5948    0.0621 C   0  0  0  0  0  0  0  0  0  0  0  0
   -4.8755   -0.3740    0.0808 H   0  0  0  0  0  0  0  0  0  0  0  0
   -3.9361    0.8981   -0.9352 H   0  0  0  0  0  0  0  0  0  0  0  0
   -3.9414    0.8875    0.8343 H   0  0  0  0  0  0  0  0  0  0  0  0
   -1.4055    0.1938    0.0226 C   0  0  0  0  0  0  0  0  0  0  0  0
   -2.7228   -1.2137   -0.7641 H   0  0  0  0  0  0  0  0  0  0  0  0
   -2.6980   -1.2351    0.9652 H   0  0  0  0  0  0  0  0  0  0  0  0
   -0.1551   -0.7045    0.0123 C   0  0  0  0  0  0  0  0  0  0  0  0
   -1.3250    0.9174    0.9038 H   0  0  0  0  0  0  0  0  0  0  0  0
   -1.4175    0.7670   -0.8439 H   0  0  0  0  0  0  0  0  0  0  0  0
   -0.1707   -1.2897    0.8783 H   0  0  0  0  0  0  0  0  0  0  0  0
    0.7362   -0.1311    0.0743 H   0  0  0  0  0  0  0  0  0  0  0  0
   -0.1092   -1.4579   -0.8744 H   0  0  0  0  0  0  0  0  0  0  0  0
  1  2  1  0  0  0  0
  1  3  1  0  0  0  0
  1  5  1  0  0  0  0
  2  8  1  0  0  0  0
  4  1  1  0  0  0  0
  6  2  1  0  0  0  0
  6 10  1  0  0  0  0
  7  2  1  0  0  0  0
  9  6  1  0  0  0  0
  9 13  1  0  0  0  0
  9 12  1  0  0  0  0
 11  6  1  0  0  0  0
 14  9  1  0  0  0  0
M  END
$$$$
