butane_opt
 OpenBabel08242015403D

 14 13  0  0  0  0  0  0  0  0999 V2000
   -3.9382    0.2558    0.0045 C   0  0  0  0  0  0  0  0  0  0  0  0
   -2.7006   -0.5969    0.0556 C   0  0  0  0  0  0  0  0  0  0  0  0
   -4.8624   -0.3714    0.0909 H   0  0  0  0  0  0  0  0  0  0  0  0
   -3.9036    0.8898   -0.9130 H   0  0  0  0  0  0  0  0  0  0  0  0
   -3.9189    0.8841    0.8558 H   0  0  0  0  0  0  0  0  0  0  0  0
   -1.4103    0.1988    0.0128 C   0  0  0  0  0  0  0  0  0  0  0  0
   -2.7332   -1.2489   -0.7922 H   0  0  0  0  0  0  0  0  0  0  0  0
   -2.6968   -1.2929    1.0099 H   0  0  0  0  0  0  0  0  0  0  0  0
   -0.1687   -0.7116    0.0191 C   0  0  0  0  0  0  0  0  0  0  0  0
   -1.3585    0.8833    0.8558 H   0  0  0  0  0  0  0  0  0  0  0  0
   -1.4035    0.8207   -0.8869 H   0  0  0  0  0  0  0  0  0  0  0  0
   -0.2192   -1.2018    0.8380 H   0  0  0  0  0  0  0  0  0  0  0  0
    0.7515   -0.1222    0.1771 H   0  0  0  0  0  0  0  0  0  0  0  0
   -0.0584   -1.4699   -0.9111 H   0  0  0  0  0  0  0  0  0  0  0  0
  1  2  1  0  0  0  0
  1  3  1  0  0  0  0
  1  5  1  0  0  0  0
  2  8  1  0  0  0  0
  4  1  1  0  0  0  0
  6  9  1  0  0  0  0
  6  2  1  0  0  0  0
  6 10  1  0  0  0  0
  7  2  1  0  0  0  0
  9 13  1  0  0  0  0
  9 12  1  0  0  0  0
 11  6  1  0  0  0  0
 14  9  1  0  0  0  0
M  END
$$$$
