butane_opt
 OpenBabel08242015403D

 14 13  0  0  0  0  0  0  0  0999 V2000
   -3.9233    0.2566   -0.0024 C   0  0  0  0  0  0  0  0  0  0  0  0
   -2.7025   -0.5996    0.0672 C   0  0  0  0  0  0  0  0  0  0  0  0
   -4.8787   -0.3647    0.0439 H   0  0  0  0  0  0  0  0  0  0  0  0
   -3.8850    0.8804   -0.9246 H   0  0  0  0  0  0  0  0  0  0  0  0
   -3.9752    0.8938    0.8416 H   0  0  0  0  0  0  0  0  0  0  0  0
   -1.4120    0.1941    0.0155 C   0  0  0  0  0  0  0  0  0  0  0  0
   -2.7619   -1.2686   -0.7776 H   0  0  0  0  0  0  0  0  0  0  0  0
   -2.7360   -1.2599    0.9883 H   0  0  0  0  0  0  0  0  0  0  0  0
   -0.1701   -0.7034    0.0172 C   0  0  0  0  0  0  0  0  0  0  0  0
   -1.3691    0.8819    0.9226 H   0  0  0  0  0  0  0  0  0  0  0  0
   -1.4389    0.8206   -0.8714 H   0  0  0  0  0  0  0  0  0  0  0  0
   -0.1100   -1.2170    0.8474 H   0  0  0  0  0  0  0  0  0  0  0  0
    0.7192   -0.1501    0.0726 H   0  0  0  0  0  0  0  0  0  0  0  0
   -0.0928   -1.4642   -0.8850 H   0  0  0  0  0  0  0  0  0  0  0  0
  1  3  1  0  0  0  0
  1  2  1  0  0  0  0
  1  5  1  0  0  0  0
  2  8  1  0  0  0  0
  4  1  1  0  0  0  0
  6  9  1  0  0  0  0
  6  2  1  0  0  0  0
  6 10  1  0  0  0  0
  7  2  1  0  0  0  0
  9 13  1  0  0  0  0
  9 12  1  0  0  0  0
 11  6  1  0  0  0  0
 14  9  1  0  0  0  0
M  END
$$$$
