14
butane_opt
C  -3.959077   0.270045   0.032286
C  -2.697825  -0.630256   0.034851
H  -4.846029  -0.287180  -0.110322
H  -3.958498   0.798143  -0.793615
H  -4.025639   0.992509   0.934827
C  -1.398875   0.187513   0.001420
H  -2.714232  -1.300980  -0.816904
H  -2.738671  -1.238129   0.914640
C  -0.154379  -0.693377   0.042936
H  -1.428186   0.817915   0.792227
H  -1.361865   0.867419  -0.931634
H  -0.080449  -1.320463   0.951929
H   0.788307  -0.082809  -0.026944
H  -0.145081  -1.323175  -0.804596
