butane_opt
 OpenBabel08242015403D

 14 13  0  0  0  0  0  0  0  0999 V2000
   -3.9430    0.2709   -0.0041 C   0  0  0  0  0  0  0  0  0  0  0  0
   -2.6949   -0.6180    0.0773 C   0  0  0  0  0  0  0  0  0  0  0  0
   -4.8489   -0.3292    0.0243 H   0  0  0  0  0  0  0  0  0  0  0  0
   -3.9597    0.9685   -0.9308 H   0  0  0  0  0  0  0  0  0  0  0  0
   -3.9960    0.8777    0.8088 H   0  0  0  0  0  0  0  0  0  0  0  0
   -1.3953    0.1736    0.0283 C   0  0  0  0  0  0  0  0  0  0  0  0
   -2.7130   -1.2980   -0.7677 H   0  0  0  0  0  0  0  0  0  0  0  0
   -2.7345   -1.2842    0.9705 H   0  0  0  0  0  0  0  0  0  0  0  0
   -0.1689   -0.6940    0.0009 C   0  0  0  0  0  0  0  0  0  0  0  0
   -1.3992    0.8848    0.9062 H   0  0  0  0  0  0  0  0  0  0  0  0
   -1.4101    0.8186   -0.8660 H   0  0  0  0  0  0  0  0  0  0  0  0
   -0.2281   -1.1866    0.8162 H   0  0  0  0  0  0  0  0  0  0  0  0
    0.7932   -0.0784    0.1283 H   0  0  0  0  0  0  0  0  0  0  0  0
   -0.1039   -1.4307   -0.9001 H   0  0  0  0  0  0  0  0  0  0  0  0
  1  3  1  0  0  0  0
  1  2  1  0  0  0  0
  1  5  1  0  0  0  0
  2  8  1  0  0  0  0
  4  1  1  0  0  0  0
  6  2  1  0  0  0  0
  6 10  1  0  0  0  0
  7  2  1  0  0  0  0
  9  6  1  0  0  0  0
  9 13  1  0  0  0  0
  9 12  1  0  0  0  0
 11  6  1  0  0  0  0
 14  9  1  0  0  0  0
M  END
$$$$
