14
butane_opt
C  -3.936794   0.252845   0.038514
C  -2.708715  -0.603026   0.035569
H  -4.861483  -0.362646  -0.015322
H  -3.929836   0.828061  -0.842013
H  -3.907850   0.961085   0.919421
C  -1.403589   0.204523  -0.023785
H  -2.734978  -1.322127  -0.827916
H  -2.673312  -1.218482   0.905619
C  -0.166739  -0.709410   0.051280
H  -1.357525   0.871938   0.829196
H  -1.416651   0.892396  -0.963334
H  -0.202744  -1.300479   0.910659
H   0.721074  -0.153789   0.124193
H  -0.063082  -1.414841  -0.819177
