butane_opt
 OpenBabel08242015403D

 14 13  0  0  0  0  0  0  0  0999 V2000
   -3.9275    0.2590    0.0452 C   0  0  0  0  0  0  0  0  0  0  0  0
   -2.7035   -0.5999    0.0077 C   0  0  0  0  0  0  0  0  0  0  0  0
   -4.8641   -0.3548    0.0961 H   0  0  0  0  0  0  0  0  0  0  0  0
   -3.9598    0.8521   -0.8359 H   0  0  0  0  0  0  0  0  0  0  0  0
   -3.8878    0.9207    0.9043 H   0  0  0  0  0  0  0  0  0  0  0  0
   -1.4094    0.1886   -0.0152 C   0  0  0  0  0  0  0  0  0  0  0  0
   -2.7469   -1.3357   -0.8853 H   0  0  0  0  0  0  0  0  0  0  0  0
   -2.7074   -1.2161    0.8925 H   0  0  0  0  0  0  0  0  0  0  0  0
   -0.1725   -0.7014    0.0482 C   0  0  0  0  0  0  0  0  0  0  0  0
   -1.4198    0.8800    0.8149 H   0  0  0  0  0  0  0  0  0  0  0  0
   -1.3974    0.8269   -0.9015 H   0  0  0  0  0  0  0  0  0  0  0  0
   -0.1533   -1.3742    1.0162 H   0  0  0  0  0  0  0  0  0  0  0  0
    0.7219   -0.1157    0.0641 H   0  0  0  0  0  0  0  0  0  0  0  0
   -0.0572   -1.3135   -0.7483 H   0  0  0  0  0  0  0  0  0  0  0  0
  1  3  1  0  0  0  0
  1  5  1  0  0  0  0
  2  1  1  0  0  0  0
  2  8  1  0  0  0  0
  4  1  1  0  0  0  0
  6  2  1  0  0  0  0
  6  9  1  0  0  0  0
  6 10  1  0  0  0  0
  7  2  1  0  0  0  0
  9 13  1  0  0  0  0
  9 12  1  0  0  0  0
 11  6  1  0  0  0  0
 14  9  1  0  0  0  0
M  END
$$$$
