14
butane_opt
C  -3.947343   0.277273  -0.019998
C  -2.696236  -0.617810   0.096522
H  -4.860732  -0.331291  -0.106183
H  -3.816643   0.823757  -0.887190
H  -4.028961   1.000132   0.867401
C  -1.395859   0.168504   0.032566
H  -2.699056  -1.273366  -0.741715
H  -2.715211  -1.293030   0.997859
C  -0.173216  -0.686040  -0.006253
H  -1.377303   0.865838   0.907873
H  -1.420692   0.752663  -0.820889
H  -0.133402  -1.256966   0.876715
H   0.758489  -0.098150  -0.017743
H  -0.188141  -1.357942  -0.865901
