butane_opt
 OpenBabel08242015403D

 14 13  0  0  0  0  0  0  0  0999 V2000
   -3.9600    0.2738   -0.0019 C   0  0  0  0  0  0  0  0  0  0  0  0
   -2.7049   -0.6235    0.0550 C   0  0  0  0  0  0  0  0  0  0  0  0
   -4.9057   -0.3152    0.1075 H   0  0  0  0  0  0  0  0  0  0  0  0
   -3.9935    0.8849   -0.9025 H   0  0  0  0  0  0  0  0  0  0  0  0
   -3.9382    0.9424    0.8669 H   0  0  0  0  0  0  0  0  0  0  0  0
   -1.3945    0.1814    0.0145 C   0  0  0  0  0  0  0  0  0  0  0  0
   -2.7231   -1.2739   -0.7753 H   0  0  0  0  0  0  0  0  0  0  0  0
   -2.7192   -1.3134    0.9891 H   0  0  0  0  0  0  0  0  0  0  0  0
   -0.1559   -0.6980    0.0228 C   0  0  0  0  0  0  0  0  0  0  0  0
   -1.3326    0.8939    0.8617 H   0  0  0  0  0  0  0  0  0  0  0  0
   -1.3622    0.8153   -0.8870 H   0  0  0  0  0  0  0  0  0  0  0  0
   -0.1571   -1.1947    0.8350 H   0  0  0  0  0  0  0  0  0  0  0  0
    0.7670   -0.0922    0.1279 H   0  0  0  0  0  0  0  0  0  0  0  0
   -0.0767   -1.4267   -0.8752 H   0  0  0  0  0  0  0  0  0  0  0  0
  1  2  1  0  0  0  0
  1  3  1  0  0  0  0
  1  5  1  0  0  0  0
  2  8  1  0  0  0  0
  4  1  1  0  0  0  0
  6  9  1  0  0  0  0
  6  2  1  0  0  0  0
  6 10  1  0  0  0  0
  7  2  1  0  0  0  0
  9 13  1  0  0  0  0
  9 12  1  0  0  0  0
 11  6  1  0  0  0  0
 14  9  1  0  0  0  0
M  END
$$$$
