butane_opt
 OpenBabel08242015403D

 14 13  0  0  0  0  0  0  0  0999 V2000
   -3.9360    0.2589   -0.0194 C   0  0  0  0  0  0  0  0  0  0  0  0
   -2.6997   -0.6005    0.0856 C   0  0  0  0  0  0  0  0  0  0  0  0
   -4.9034   -0.3957   -0.0854 H   0  0  0  0  0  0  0  0  0  0  0  0
   -3.8693    0.8454   -0.8896 H   0  0  0  0  0  0  0  0  0  0  0  0
   -4.0016    0.9522    0.8595 H   0  0  0  0  0  0  0  0  0  0  0  0
   -1.4019    0.1911    0.0515 C   0  0  0  0  0  0  0  0  0  0  0  0
   -2.6724   -1.2790   -0.7309 H   0  0  0  0  0  0  0  0  0  0  0  0
   -2.7508   -1.2372    0.9876 H   0  0  0  0  0  0  0  0  0  0  0  0
   -0.1685   -0.7043   -0.0069 C   0  0  0  0  0  0  0  0  0  0  0  0
   -1.3895    0.8672    0.9036 H   0  0  0  0  0  0  0  0  0  0  0  0
   -1.4168    0.8637   -0.8796 H   0  0  0  0  0  0  0  0  0  0  0  0
   -0.1283   -1.3159    0.8664 H   0  0  0  0  0  0  0  0  0  0  0  0
    0.7515   -0.1131   -0.0408 H   0  0  0  0  0  0  0  0  0  0  0  0
   -0.1643   -1.4106   -0.8823 H   0  0  0  0  0  0  0  0  0  0  0  0
  1  2  1  0  0  0  0
  1  5  1  0  0  0  0
  2  8  1  0  0  0  0
  3  1  1  0  0  0  0
  4  1  1  0  0  0  0
  6  2  1  0  0  0  0
  6 10  1  0  0  0  0
  7  2  1  0  0  0  0
  9  6  1  0  0  0  0
  9 12  1  0  0  0  0
 11  6  1  0  0  0  0
 13  9  1  0  0  0  0
 14  9  1  0  0  0  0
M  END
$$$$
