14
butane_opt
C  -3.941734   0.262435  -0.018378
C  -2.708641  -0.606199   0.096223
H  -4.888274  -0.370725  -0.130013
H  -3.902236   0.832371  -0.895828
H  -4.028113   0.956990   0.861628
C  -1.408138   0.196560   0.029894
H  -2.704306  -1.279616  -0.735496
H  -2.816009  -1.292135   1.043263
C  -0.139944  -0.706082  -0.008966
H  -1.355754   0.932794   0.915556
H  -1.465648   0.783504  -0.807390
H  -0.116327  -1.303408   0.876021
H   0.767743  -0.083891   0.009355
H  -0.129448  -1.413240  -0.881203
