butane_opt
 OpenBabel08242015403D

 14 13  0  0  0  0  0  0  0  0999 V2000
   -3.9294    0.2561    0.0018 C   0  0  0  0  0  0  0  0  0  0  0  0
   -2.6962   -0.6080    0.0596 C   0  0  0  0  0  0  0  0  0  0  0  0
   -4.8636   -0.3629   -0.0592 H   0  0  0  0  0  0  0  0  0  0  0  0
   -3.9490    0.8491   -0.8831 H   0  0  0  0  0  0  0  0  0  0  0  0
   -3.9837    0.9289    0.8232 H   0  0  0  0  0  0  0  0  0  0  0  0
   -1.4187    0.1932    0.0332 C   0  0  0  0  0  0  0  0  0  0  0  0
   -2.7444   -1.2654   -0.7854 H   0  0  0  0  0  0  0  0  0  0  0  0
   -2.7035   -1.2481    0.9622 H   0  0  0  0  0  0  0  0  0  0  0  0
   -0.1619   -0.6976    0.0127 C   0  0  0  0  0  0  0  0  0  0  0  0
   -1.3731    0.9244    0.9273 H   0  0  0  0  0  0  0  0  0  0  0  0
   -1.4247    0.7928   -0.8660 H   0  0  0  0  0  0  0  0  0  0  0  0
   -0.0632   -1.3494    0.9235 H   0  0  0  0  0  0  0  0  0  0  0  0
    0.7115   -0.1451   -0.0764 H   0  0  0  0  0  0  0  0  0  0  0  0
   -0.1524   -1.3282   -0.8157 H   0  0  0  0  0  0  0  0  0  0  0  0
  1  2  1  0  0  0  0
  1  5  1  0  0  0  0
  2  8  1  0  0  0  0
  3  1  1  0  0  0  0
  4  1  1  0  0  0  0
  6  2  1  0  0  0  0
  6 10  1  0  0  0  0
  7  2  1  0  0  0  0
  9  6  1  0  0  0  0
  9 12  1  0  0  0  0
 11  6  1  0  0  0  0
 13  9  1  0  0  0  0
 14  9  1  0  0  0  0
M  END
$$$$
