butane_opt
 OpenBabel08242015403D

 14 13  0  0  0  0  0  0  0  0999 V2000
   -3.9586    0.2778   -0.0160 C   0  0  0  0  0  0  0  0  0  0  0  0
   -2.6994   -0.6245    0.0631 C   0  0  0  0  0  0  0  0  0  0  0  0
   -4.8274   -0.2987    0.0033 H   0  0  0  0  0  0  0  0  0  0  0  0
   -3.9471    0.8917   -0.8951 H   0  0  0  0  0  0  0  0  0  0  0  0
   -4.0748    0.9366    0.8349 H   0  0  0  0  0  0  0  0  0  0  0  0
   -1.3872    0.1708    0.0556 C   0  0  0  0  0  0  0  0  0  0  0  0
   -2.7304   -1.2761   -0.7846 H   0  0  0  0  0  0  0  0  0  0  0  0
   -2.7555   -1.2954    0.9747 H   0  0  0  0  0  0  0  0  0  0  0  0
   -0.1523   -0.6860   -0.0016 C   0  0  0  0  0  0  0  0  0  0  0  0
   -1.3530    0.8788    0.9157 H   0  0  0  0  0  0  0  0  0  0  0  0
   -1.4030    0.7462   -0.7855 H   0  0  0  0  0  0  0  0  0  0  0  0
   -0.0962   -1.3488    0.9171 H   0  0  0  0  0  0  0  0  0  0  0  0
    0.7629   -0.0811   -0.1215 H   0  0  0  0  0  0  0  0  0  0  0  0
   -0.2301   -1.2726   -0.8241 H   0  0  0  0  0  0  0  0  0  0  0  0
  1  3  1  0  0  0  0
  1  2  1  0  0  0  0
  1  5  1  0  0  0  0
  2  8  1  0  0  0  0
  4  1  1  0  0  0  0
  6  2  1  0  0  0  0
  6 10  1  0  0  0  0
  7  2  1  0  0  0  0
  9  6  1  0  0  0  0
  9 12  1  0  0  0  0
 11  6  1  0  0  0  0
 13  9  1  0  0  0  0
 14  9  1  0  0  0  0
M  END
$$$$
