butane_opt
 OpenBabel08242015403D

 14 13  0  0  0  0  0  0  0  0999 V2000
   -3.9591    0.2711    0.0034 C   0  0  0  0  0  0  0  0  0  0  0  0
   -2.6977   -0.6288    0.0538 C   0  0  0  0  0  0  0  0  0  0  0  0
   -4.8326   -0.2844    0.0815 H   0  0  0  0  0  0  0  0  0  0  0  0
   -3.9741    0.9953   -0.9778 H   0  0  0  0  0  0  0  0  0  0  0  0
   -3.9691    0.7961    0.7557 H   0  0  0  0  0  0  0  0  0  0  0  0
   -1.3983    0.1819    0.0445 C   0  0  0  0  0  0  0  0  0  0  0  0
   -2.6875   -1.3156   -0.8006 H   0  0  0  0  0  0  0  0  0  0  0  0
   -2.6837   -1.2402    0.9401 H   0  0  0  0  0  0  0  0  0  0  0  0
   -0.1636   -0.6841    0.0105 C   0  0  0  0  0  0  0  0  0  0  0  0
   -1.3306    0.8722    0.9171 H   0  0  0  0  0  0  0  0  0  0  0  0
   -1.4324    0.7769   -0.8339 H   0  0  0  0  0  0  0  0  0  0  0  0
   -0.0918   -1.2714    0.8868 H   0  0  0  0  0  0  0  0  0  0  0  0
    0.7254   -0.0960    0.0119 H   0  0  0  0  0  0  0  0  0  0  0  0
   -0.1333   -1.3799   -0.9010 H   0  0  0  0  0  0  0  0  0  0  0  0
  1  2  1  0  0  0  0
  1  3  1  0  0  0  0
  1  5  1  0  0  0  0
  2  8  1  0  0  0  0
  4  1  1  0  0  0  0
  6  2  1  0  0  0  0
  6 10  1  0  0  0  0
  7  2  1  0  0  0  0
  9 13  1  0  0  0  0
  9  6  1  0  0  0  0
  9 12  1  0  0  0  0
 11  6  1  0  0  0  0
 14  9  1  0  0  0  0
M  END
$$$$
