14
butane_opt
C  -3.945616   0.278220   0.049437
C  -2.688376  -0.637157  -0.015274
H  -4.841322  -0.337803   0.215820
H  -4.065382   0.945398  -0.869339
H  -3.909947   0.917197   0.894143
C  -1.399611   0.179581  -0.012029
H  -2.720612  -1.301605  -0.886939
H  -2.658058  -1.225051   0.849077
C  -0.175970  -0.687963   0.064509
H  -1.421003   0.843276   0.828452
H  -1.277156   0.804194  -0.902643
H  -0.170453  -1.317771   0.990017
H   0.742392  -0.088559   0.027673
H  -0.180791  -1.301198  -0.747789
