14
butane_opt
C  -3.956461   0.259578   0.004905
C  -2.708958  -0.612061   0.053832
H  -4.903168  -0.352513   0.103065
H  -3.914617   1.021836  -0.994776
H  -3.940194   0.809614   0.785906
C  -1.392538   0.194482   0.038300
H  -2.714137  -1.302569  -0.792448
H  -2.740495  -1.201827   0.945108
C  -0.152854  -0.702358   0.008274
H  -1.393428   0.895225   0.892974
H  -1.407532   0.799108  -0.817029
H  -0.084367  -1.277918   0.875936
H   0.743306  -0.144334   0.057534
H  -0.137351  -1.398845  -0.893922
