14
butane_opt
C  -3.930715   0.255419  -0.001278
C  -2.695245  -0.613966   0.072447
H  -4.851218  -0.325842  -0.071520
H  -3.856228   0.834930  -0.880410
H  -3.990758   0.964611   0.882386
C  -1.419157   0.192159   0.026467
H  -2.702588  -1.307623  -0.784834
H  -2.767701  -1.209702   0.952079
C  -0.160533  -0.700913   0.013783
H  -1.405370   0.906614   0.878872
H  -1.444359   0.862265  -0.878205
H  -0.121382  -1.304980   0.926769
H   0.749979  -0.124177  -0.069952
H  -0.166961  -1.368431  -0.848381
