14
butane_opt
C  -3.959112   0.279463  -0.007829
C  -2.710794  -0.636811   0.065345
H  -4.835358  -0.264341   0.063499
H  -3.981302   0.973365  -0.984544
H  -3.983046   0.870009   0.811217
C  -1.391080   0.178149   0.040888
H  -2.691966  -1.275111  -0.752887
H  -2.719157  -1.310099   0.982701
C  -0.150403  -0.685791  -0.000109
H  -1.304452   0.882138   0.893051
H  -1.448918   0.745463  -0.794430
H  -0.194212  -1.224856   0.869509
H   0.775430  -0.057294   0.056765
H  -0.112486  -1.421147  -0.898672
