butane_opt
 OpenBabel08242015403D

 14 13  0  0  0  0  0  0  0  0999 V2000
   -3.9362    0.2530   -0.0086 C   0  0  0  0  0  0  0  0  0  0  0  0
   -2.7044   -0.6040    0.0762 C   0  0  0  0  0  0  0  0  0  0  0  0
   -4.8736   -0.3517   -0.0678 H   0  0  0  0  0  0  0  0  0  0  0  0
   -3.9147    0.8377   -0.8795 H   0  0  0  0  0  0  0  0  0  0  0  0
   -4.0250    0.9259    0.8298 H   0  0  0  0  0  0  0  0  0  0  0  0
   -1.4183    0.1937    0.0323 C   0  0  0  0  0  0  0  0  0  0  0  0
   -2.7395   -1.1884   -0.7153 H   0  0  0  0  0  0  0  0  0  0  0  0
   -2.7605   -1.2792    0.9767 H   0  0  0  0  0  0  0  0  0  0  0  0
   -0.1426   -0.7022    0.0023 C   0  0  0  0  0  0  0  0  0  0  0  0
   -1.3747    0.9041    0.9112 H   0  0  0  0  0  0  0  0  0  0  0  0
   -1.4562    0.8055   -0.8462 H   0  0  0  0  0  0  0  0  0  0  0  0
   -0.0925   -1.2827    0.8564 H   0  0  0  0  0  0  0  0  0  0  0  0
    0.7529   -0.1346    0.0419 H   0  0  0  0  0  0  0  0  0  0  0  0
   -0.1200   -1.4047   -0.8934 H   0  0  0  0  0  0  0  0  0  0  0  0
  1  2  1  0  0  0  0
  1  5  1  0  0  0  0
  2  8  1  0  0  0  0
  3  1  1  0  0  0  0
  4  1  1  0  0  0  0
  6  2  1  0  0  0  0
  6 10  1  0  0  0  0
  7  2  1  0  0  0  0
  9  6  1  0  0  0  0
  9 13  1  0  0  0  0
  9 12  1  0  0  0  0
 11  6  1  0  0  0  0
 14  9  1  0  0  0  0
M  END
$$$$
