14
butane_opt
C  -3.944840   0.276009  -0.016701
C  -2.705201  -0.636430   0.076036
H  -4.828778  -0.290109  -0.032007
H  -3.956228   0.863388  -0.877943
H  -4.016537   1.002741   0.846972
C  -1.397577   0.181088   0.036942
H  -2.670006  -1.262502  -0.717462
H  -2.742295  -1.315451   0.997408
C  -0.165094  -0.691927  -0.003107
H  -1.356716   0.870682   0.915747
H  -1.386498   0.788544  -0.817719
H  -0.161909  -1.247314   0.867675
H   0.767202  -0.069712  -0.013013
H  -0.125249  -1.352573  -0.851498
