butane_opt
 OpenBabel08242015403D

 14 13  0  0  0  0  0  0  0  0999 V2000
   -3.9391    0.2552   -0.0036 C   0  0  0  0  0  0  0  0  0  0  0  0
   -2.6996   -0.6038    0.0410 C   0  0  0  0  0  0  0  0  0  0  0  0
   -4.9067   -0.3785    0.1932 H   0  0  0  0  0  0  0  0  0  0  0  0
   -3.9939    1.0088   -0.9929 H   0  0  0  0  0  0  0  0  0  0  0  0
   -3.8799    0.8094    0.8158 H   0  0  0  0  0  0  0  0  0  0  0  0
   -1.4052    0.1987    0.0412 C   0  0  0  0  0  0  0  0  0  0  0  0
   -2.7500   -1.2752   -0.7922 H   0  0  0  0  0  0  0  0  0  0  0  0
   -2.7279   -1.2178    0.9343 H   0  0  0  0  0  0  0  0  0  0  0  0
   -0.1534   -0.7101    0.0196 C   0  0  0  0  0  0  0  0  0  0  0  0
   -1.3884    0.8824    0.8901 H   0  0  0  0  0  0  0  0  0  0  0  0
   -1.3978    0.8257   -0.8259 H   0  0  0  0  0  0  0  0  0  0  0  0
   -0.1065   -1.2622    0.8755 H   0  0  0  0  0  0  0  0  0  0  0  0
    0.7253   -0.1276    0.0385 H   0  0  0  0  0  0  0  0  0  0  0  0
   -0.2137   -1.4257   -0.8920 H   0  0  0  0  0  0  0  0  0  0  0  0
  1  2  1  0  0  0  0
  1  3  1  0  0  0  0
  1  5  1  0  0  0  0
  2  6  1  0  0  0  0
  2  8  1  0  0  0  0
  4  1  1  0  0  0  0
  6 10  1  0  0  0  0
  7  2  1  0  0  0  0
  9 13  1  0  0  0  0
  9  6  1  0  0  0  0
  9 12  1  0  0  0  0
 11  6  1  0  0  0  0
 14  9  1  0  0  0  0
M  END
$$$$
