14
butane_opt
C  -3.915714   0.254722   0.030520
C  -2.708922  -0.605643   0.018873
H  -4.854182  -0.373442   0.103969
H  -4.001111   0.874672  -0.858821
H  -3.884482   0.940421   0.881822
C  -1.410871   0.205673  -0.007552
H  -2.762357  -1.247051  -0.802883
H  -2.710759  -1.276148   0.954817
C  -0.162199  -0.706459   0.046448
H  -1.440373   0.832006   0.815243
H  -1.436348   0.825868  -0.908754
H  -0.224818  -1.264021   0.904717
H   0.727746  -0.118818   0.139506
H  -0.058205  -1.449594  -0.859956
