14
butane_opt
C  -3.948954   0.252823   0.046948
C  -2.715362  -0.606590   0.000856
H  -4.851010  -0.355596   0.150123
H  -4.038762   0.945038  -0.881522
H  -3.847497   0.884569   0.918867
C  -1.412157   0.206782  -0.013287
H  -2.778670  -1.393449  -0.950568
H  -2.680310  -1.170972   0.847673
C  -0.137710  -0.706365   0.062608
H  -1.394220   0.850974   0.817218
H  -1.404399   0.852036  -0.916711
H  -0.134040  -1.397154   1.008654
H   0.762687  -0.104199   0.022573
H  -0.085171  -1.335464  -0.743806
