14
butane_opt
C  -3.959575   0.267621   0.005054
C  -2.706825  -0.620088   0.044010
H  -4.830245  -0.278684   0.084889
H  -3.957899   0.961874  -0.939109
H  -3.973401   0.835513   0.784083
C  -1.388439   0.185535   0.032442
H  -2.732274  -1.248992  -0.777881
H  -2.719752  -1.278380   0.966974
C  -0.153828  -0.697260   0.010946
H  -1.362530   0.916551   0.932164
H  -1.439652   0.734383  -0.817425
H  -0.121140  -1.282786   0.922964
H   0.793767  -0.074010   0.023695
H  -0.185906  -1.377570  -0.857942
