butane_opt
 OpenBabel08242015403D

 14 13  0  0  0  0  0  0  0  0999 V2000
   -3.9418    0.2735    0.0459 C   0  0  0  0  0  0  0  0  0  0  0  0
   -2.6827   -0.6302   -0.0007 C   0  0  0  0  0  0  0  0  0  0  0  0
   -4.8580   -0.2963    0.1113 H   0  0  0  0  0  0  0  0  0  0  0  0
   -4.0677    0.8653   -0.8292 H   0  0  0  0  0  0  0  0  0  0  0  0
   -3.8750    0.9604    0.9426 H   0  0  0  0  0  0  0  0  0  0  0  0
   -1.4081    0.1706   -0.0232 C   0  0  0  0  0  0  0  0  0  0  0  0
   -2.7224   -1.3185   -0.8475 H   0  0  0  0  0  0  0  0  0  0  0  0
   -2.6825   -1.2234    0.8772 H   0  0  0  0  0  0  0  0  0  0  0  0
   -0.1764   -0.6794    0.0660 C   0  0  0  0  0  0  0  0  0  0  0  0
   -1.4124    0.8320    0.7967 H   0  0  0  0  0  0  0  0  0  0  0  0
   -1.3445    0.8088   -0.9268 H   0  0  0  0  0  0  0  0  0  0  0  0
   -0.1818   -1.3100    0.9613 H   0  0  0  0  0  0  0  0  0  0  0  0
    0.7160   -0.0993    0.0640 H   0  0  0  0  0  0  0  0  0  0  0  0
   -0.0931   -1.3036   -0.7655 H   0  0  0  0  0  0  0  0  0  0  0  0
  1  3  1  0  0  0  0
  1  5  1  0  0  0  0
  2  1  1  0  0  0  0
  2  8  1  0  0  0  0
  4  1  1  0  0  0  0
  6  2  1  0  0  0  0
  6  9  1  0  0  0  0
  6 10  1  0  0  0  0
  7  2  1  0  0  0  0
  9 12  1  0  0  0  0
 11  6  1  0  0  0  0
 13  9  1  0  0  0  0
 14  9  1  0  0  0  0
M  END
$$$$
