14
butane_opt
C  -3.946152   0.276325   0.008826
C  -2.691671  -0.619791   0.056104
H  -4.879973  -0.317552   0.039941
H  -3.906002   0.886348  -0.879158
H  -3.994272   0.922981   0.840557
C  -1.405852   0.169254   0.014364
H  -2.726378  -1.283351  -0.789570
H  -2.661131  -1.283184   0.966344
C  -0.174035  -0.688533   0.026893
H  -1.372697   0.801190   0.820507
H  -1.365525   0.838529  -0.886639
H  -0.165722  -1.188151   0.824028
H   0.779445  -0.047962   0.123438
H  -0.126173  -1.447213  -0.904266
