butane_opt
 OpenBabel08242015403D

 14 13  0  0  0  0  0  0  0  0999 V2000
   -3.9390    0.2796   -0.0057 C   0  0  0  0  0  0  0  0  0  0  0  0
   -2.6894   -0.6356    0.0790 C   0  0  0  0  0  0  0  0  0  0  0  0
   -4.8563   -0.3198    0.0194 H   0  0  0  0  0  0  0  0  0  0  0  0
   -3.9523    0.9499   -0.9527 H   0  0  0  0  0  0  0  0  0  0  0  0
   -3.9526    0.9043    0.8194 H   0  0  0  0  0  0  0  0  0  0  0  0
   -1.4064    0.1691    0.0159 C   0  0  0  0  0  0  0  0  0  0  0  0
   -2.7356   -1.2371   -0.7516 H   0  0  0  0  0  0  0  0  0  0  0  0
   -2.6559   -1.3103    0.9922 H   0  0  0  0  0  0  0  0  0  0  0  0
   -0.1765   -0.6823    0.0081 C   0  0  0  0  0  0  0  0  0  0  0  0
   -1.3366    0.9184    0.9241 H   0  0  0  0  0  0  0  0  0  0  0  0
   -1.3746    0.7765   -0.8558 H   0  0  0  0  0  0  0  0  0  0  0  0
   -0.2195   -1.1696    0.8544 H   0  0  0  0  0  0  0  0  0  0  0  0
    0.7333   -0.0798    0.1525 H   0  0  0  0  0  0  0  0  0  0  0  0
   -0.1403   -1.4828   -0.9559 H   0  0  0  0  0  0  0  0  0  0  0  0
  1  3  1  0  0  0  0
  1  2  1  0  0  0  0
  1  5  1  0  0  0  0
  2  8  1  0  0  0  0
  4  1  1  0  0  0  0
  6  2  1  0  0  0  0
  6 10  1  0  0  0  0
  7  2  1  0  0  0  0
  9  6  1  0  0  0  0
  9 13  1  0  0  0  0
  9 12  1  0  0  0  0
 11  6  1  0  0  0  0
 14  9  1  0  0  0  0
M  END
$$$$
