butane_opt
 OpenBabel08242015403D

 14 13  0  0  0  0  0  0  0  0999 V2000
   -3.9239    0.2519   -0.0217 C   0  0  0  0  0  0  0  0  0  0  0  0
   -2.7096   -0.5988    0.0703 C   0  0  0  0  0  0  0  0  0  0  0  0
   -4.8303   -0.3258   -0.0413 H   0  0  0  0  0  0  0  0  0  0  0  0
   -3.9214    0.8697   -0.9260 H   0  0  0  0  0  0  0  0  0  0  0  0
   -3.9248    0.9142    0.8494 H   0  0  0  0  0  0  0  0  0  0  0  0
   -1.4192    0.1949    0.0632 C   0  0  0  0  0  0  0  0  0  0  0  0
   -2.7004   -1.2274   -0.7229 H   0  0  0  0  0  0  0  0  0  0  0  0
   -2.7600   -1.2684    0.9820 H   0  0  0  0  0  0  0  0  0  0  0  0
   -0.1642   -0.7003   -0.0076 C   0  0  0  0  0  0  0  0  0  0  0  0
   -1.3502    0.8843    0.9166 H   0  0  0  0  0  0  0  0  0  0  0  0
   -1.4320    0.7806   -0.8171 H   0  0  0  0  0  0  0  0  0  0  0  0
   -0.0745   -1.3763    0.9051 H   0  0  0  0  0  0  0  0  0  0  0  0
    0.7570   -0.1259   -0.0816 H   0  0  0  0  0  0  0  0  0  0  0  0
   -0.1888   -1.3635   -0.8741 H   0  0  0  0  0  0  0  0  0  0  0  0
  1  2  1  0  0  0  0
  1  5  1  0  0  0  0
  2  8  1  0  0  0  0
  3  1  1  0  0  0  0
  4  1  1  0  0  0  0
  6  2  1  0  0  0  0
  6 10  1  0  0  0  0
  7  2  1  0  0  0  0
  9  6  1  0  0  0  0
  9 12  1  0  0  0  0
 11  6  1  0  0  0  0
 13  9  1  0  0  0  0
 14  9  1  0  0  0  0
M  END
$$$$
