butane_opt
 OpenBabel08242015403D

 14 13  0  0  0  0  0  0  0  0999 V2000
   -3.9410    0.2668   -0.0095 C   0  0  0  0  0  0  0  0  0  0  0  0
   -2.6825   -0.6220    0.0774 C   0  0  0  0  0  0  0  0  0  0  0  0
   -4.8434   -0.2910   -0.0240 H   0  0  0  0  0  0  0  0  0  0  0  0
   -3.9608    0.8747   -0.9201 H   0  0  0  0  0  0  0  0  0  0  0  0
   -4.0209    0.9850    0.8893 H   0  0  0  0  0  0  0  0  0  0  0  0
   -1.4061    0.1736    0.0262 C   0  0  0  0  0  0  0  0  0  0  0  0
   -2.6457   -1.3236   -0.7614 H   0  0  0  0  0  0  0  0  0  0  0  0
   -2.7377   -1.2806    1.0053 H   0  0  0  0  0  0  0  0  0  0  0  0
   -0.1746   -0.6797    0.0124 C   0  0  0  0  0  0  0  0  0  0  0  0
   -1.3449    0.8316    0.8629 H   0  0  0  0  0  0  0  0  0  0  0  0
   -1.3855    0.8314   -0.8733 H   0  0  0  0  0  0  0  0  0  0  0  0
   -0.1811   -1.2164    0.8643 H   0  0  0  0  0  0  0  0  0  0  0  0
    0.7300   -0.0956    0.0262 H   0  0  0  0  0  0  0  0  0  0  0  0
   -0.1775   -1.4527   -0.9127 H   0  0  0  0  0  0  0  0  0  0  0  0
  1  2  1  0  0  0  0
  1  5  1  0  0  0  0
  2  8  1  0  0  0  0
  3  1  1  0  0  0  0
  4  1  1  0  0  0  0
  6  2  1  0  0  0  0
  6 10  1  0  0  0  0
  7  2  1  0  0  0  0
  9 13  1  0  0  0  0
  9  6  1  0  0  0  0
  9 12  1  0  0  0  0
 11  6  1  0  0  0  0
 14  9  1  0  0  0  0
M  END
$$$$
