butane_opt
 OpenBabel08242015403D

 14 13  0  0  0  0  0  0  0  0999 V2000
   -3.9558    0.2599   -0.0096 C   0  0  0  0  0  0  0  0  0  0  0  0
   -2.7013   -0.6121    0.0534 C   0  0  0  0  0  0  0  0  0  0  0  0
   -4.8777   -0.3502    0.0218 H   0  0  0  0  0  0  0  0  0  0  0  0
   -3.9716    0.9248   -0.9384 H   0  0  0  0  0  0  0  0  0  0  0  0
   -4.0198    0.9182    0.8195 H   0  0  0  0  0  0  0  0  0  0  0  0
   -1.4000    0.1792    0.0573 C   0  0  0  0  0  0  0  0  0  0  0  0
   -2.6267   -1.2506   -0.7782 H   0  0  0  0  0  0  0  0  0  0  0  0
   -2.7380   -1.2620    0.9778 H   0  0  0  0  0  0  0  0  0  0  0  0
   -0.1554   -0.6937    0.0011 C   0  0  0  0  0  0  0  0  0  0  0  0
   -1.3578    0.9299    0.9657 H   0  0  0  0  0  0  0  0  0  0  0  0
   -1.3743    0.7961   -0.8082 H   0  0  0  0  0  0  0  0  0  0  0  0
   -0.0356   -1.3808    0.9469 H   0  0  0  0  0  0  0  0  0  0  0  0
    0.7581   -0.0817   -0.1499 H   0  0  0  0  0  0  0  0  0  0  0  0
   -0.2221   -1.3222   -0.8400 H   0  0  0  0  0  0  0  0  0  0  0  0
  1  3  1  0  0  0  0
  1  2  1  0  0  0  0
  1  5  1  0  0  0  0
  2  6  1  0  0  0  0
  2  8  1  0  0  0  0
  4  1  1  0  0  0  0
  6 10  1  0  0  0  0
  7  2  1  0  0  0  0
  9  6  1  0  0  0  0
  9 12  1  0  0  0  0
 11  6  1  0  0  0  0
 13  9  1  0  0  0  0
 14  9  1  0  0  0  0
M  END
$$$$
