butane_opt
 OpenBabel08242015403D

 14 13  0  0  0  0  0  0  0  0999 V2000
   -3.9356    0.2702    0.0043 C   0  0  0  0  0  0  0  0  0  0  0  0
   -2.7024   -0.6178    0.0538 C   0  0  0  0  0  0  0  0  0  0  0  0
   -4.8110   -0.3108    0.0903 H   0  0  0  0  0  0  0  0  0  0  0  0
   -3.9695    0.9945   -0.9697 H   0  0  0  0  0  0  0  0  0  0  0  0
   -3.9800    0.8430    0.8045 H   0  0  0  0  0  0  0  0  0  0  0  0
   -1.4093    0.1750    0.0253 C   0  0  0  0  0  0  0  0  0  0  0  0
   -2.7114   -1.2800   -0.8031 H   0  0  0  0  0  0  0  0  0  0  0  0
   -2.7197   -1.3129    0.9795 H   0  0  0  0  0  0  0  0  0  0  0  0
   -0.1611   -0.6863    0.0122 C   0  0  0  0  0  0  0  0  0  0  0  0
   -1.3624    0.9188    0.9258 H   0  0  0  0  0  0  0  0  0  0  0  0
   -1.3918    0.7333   -0.8011 H   0  0  0  0  0  0  0  0  0  0  0  0
   -0.1890   -1.2300    0.8941 H   0  0  0  0  0  0  0  0  0  0  0  0
    0.7565   -0.1013    0.0326 H   0  0  0  0  0  0  0  0  0  0  0  0
   -0.1454   -1.4113   -0.8798 H   0  0  0  0  0  0  0  0  0  0  0  0
  1  2  1  0  0  0  0
  1  3  1  0  0  0  0
  1  5  1  0  0  0  0
  2  8  1  0  0  0  0
  4  1  1  0  0  0  0
  6  2  1  0  0  0  0
  6 10  1  0  0  0  0
  7  2  1  0  0  0  0
  9  6  1  0  0  0  0
  9 13  1  0  0  0  0
  9 12  1  0  0  0  0
 11  6  1  0  0  0  0
 14  9  1  0  0  0  0
M  END
$$$$
