butane_opt
 OpenBabel08242015403D

 14 13  0  0  0  0  0  0  0  0999 V2000
   -3.9527    0.2524    0.0161 C   0  0  0  0  0  0  0  0  0  0  0  0
   -2.7077   -0.6012    0.0408 C   0  0  0  0  0  0  0  0  0  0  0  0
   -4.8934   -0.3664    0.1512 H   0  0  0  0  0  0  0  0  0  0  0  0
   -4.0023    0.9473   -0.9383 H   0  0  0  0  0  0  0  0  0  0  0  0
   -3.9102    0.8514    0.8429 H   0  0  0  0  0  0  0  0  0  0  0  0
   -1.4160    0.1911    0.0085 C   0  0  0  0  0  0  0  0  0  0  0  0
   -2.7276   -1.3313   -0.8407 H   0  0  0  0  0  0  0  0  0  0  0  0
   -2.6973   -1.1740    0.9114 H   0  0  0  0  0  0  0  0  0  0  0  0
   -0.1372   -0.6990    0.0308 C   0  0  0  0  0  0  0  0  0  0  0  0
   -1.3403    0.8817    0.8659 H   0  0  0  0  0  0  0  0  0  0  0  0
   -1.3894    0.8474   -0.8918 H   0  0  0  0  0  0  0  0  0  0  0  0
   -0.1363   -1.2833    0.9415 H   0  0  0  0  0  0  0  0  0  0  0  0
    0.7286   -0.1446    0.1084 H   0  0  0  0  0  0  0  0  0  0  0  0
   -0.0827   -1.4330   -0.8742 H   0  0  0  0  0  0  0  0  0  0  0  0
  1  2  1  0  0  0  0
  1  3  1  0  0  0  0
  1  5  1  0  0  0  0
  2  8  1  0  0  0  0
  4  1  1  0  0  0  0
  6  9  1  0  0  0  0
  6  2  1  0  0  0  0
  6 10  1  0  0  0  0
  7  2  1  0  0  0  0
  9 13  1  0  0  0  0
  9 12  1  0  0  0  0
 11  6  1  0  0  0  0
 14  9  1  0  0  0  0
M  END
$$$$
