14
butane_opt
C  -3.924574   0.257912   0.036364
C  -2.708079  -0.606469   0.030064
H  -4.853535  -0.341292  -0.000891
H  -3.939709   0.845060  -0.812744
H  -3.974923   0.923330   0.873579
C  -1.413077   0.195624  -0.016395
H  -2.772895  -1.297837  -0.826556
H  -2.739383  -1.190701   0.922573
C  -0.158088  -0.701460   0.052129
H  -1.408234   0.853591   0.830509
H  -1.394173   0.819413  -0.917951
H  -0.146484  -1.304080   0.942371
H   0.736053  -0.126202   0.025066
H  -0.085250  -1.408069  -0.828138
