14
butane_opt
C  -3.952322   0.256219   0.007437
C  -2.701097  -0.600642   0.056685
H  -4.876008  -0.363842  -0.102823
H  -3.941910   0.791846  -0.836675
H  -3.982685   1.019946   0.933019
C  -1.408515   0.192019   0.010713
H  -2.729552  -1.275168  -0.787861
H  -2.744348  -1.297052   0.983153
C  -0.144057  -0.696369   0.025913
H  -1.426315   0.892411   0.855495
H  -1.365299   0.785602  -0.866074
H  -0.076993  -1.361909   0.952695
H   0.751473  -0.138311  -0.049143
H  -0.156067  -1.341788  -0.844682
