butane_opt
 OpenBabel08242015403D

 14 13  0  0  0  0  0  0  0  0999 V2000
   -3.9468    0.2671    0.0424 C   0  0  0  0  0  0  0  0  0  0  0  0
   -2.6866   -0.6152   -0.0018 C   0  0  0  0  0  0  0  0  0  0  0  0
   -4.8344   -0.3050    0.1698 H   0  0  0  0  0  0  0  0  0  0  0  0
   -4.0515    0.9258   -0.8996 H   0  0  0  0  0  0  0  0  0  0  0  0
   -3.9064    0.9043    0.9104 H   0  0  0  0  0  0  0  0  0  0  0  0
   -1.4059    0.1697   -0.0086 C   0  0  0  0  0  0  0  0  0  0  0  0
   -2.7327   -1.3222   -0.8897 H   0  0  0  0  0  0  0  0  0  0  0  0
   -2.6504   -1.2175    0.8705 H   0  0  0  0  0  0  0  0  0  0  0  0
   -0.1691   -0.6839    0.0486 C   0  0  0  0  0  0  0  0  0  0  0  0
   -1.3901    0.8323    0.8466 H   0  0  0  0  0  0  0  0  0  0  0  0
   -1.4029    0.7759   -0.8584 H   0  0  0  0  0  0  0  0  0  0  0  0
   -0.2064   -1.3712    1.0243 H   0  0  0  0  0  0  0  0  0  0  0  0
    0.7776   -0.0449    0.0538 H   0  0  0  0  0  0  0  0  0  0  0  0
   -0.1288   -1.2900   -0.7512 H   0  0  0  0  0  0  0  0  0  0  0  0
  1  3  1  0  0  0  0
  1  5  1  0  0  0  0
  2  1  1  0  0  0  0
  2  8  1  0  0  0  0
  4  1  1  0  0  0  0
  6  2  1  0  0  0  0
  6  9  1  0  0  0  0
  6 10  1  0  0  0  0
  7  2  1  0  0  0  0
  9 13  1  0  0  0  0
  9 12  1  0  0  0  0
 11  6  1  0  0  0  0
 14  9  1  0  0  0  0
M  END
$$$$
