butane_opt
 OpenBabel08242015403D

 14 13  0  0  0  0  0  0  0  0999 V2000
   -3.9482    0.2677   -0.0179 C   0  0  0  0  0  0  0  0  0  0  0  0
   -2.6965   -0.6318    0.0924 C   0  0  0  0  0  0  0  0  0  0  0  0
   -4.8359   -0.2917   -0.1253 H   0  0  0  0  0  0  0  0  0  0  0  0
   -3.8962    0.8299   -0.8896 H   0  0  0  0  0  0  0  0  0  0  0  0
   -4.0836    0.9631    0.8603 H   0  0  0  0  0  0  0  0  0  0  0  0
   -1.4058    0.1855    0.0367 C   0  0  0  0  0  0  0  0  0  0  0  0
   -2.7055   -1.2257   -0.7206 H   0  0  0  0  0  0  0  0  0  0  0  0
   -2.7602   -1.2691    1.0067 H   0  0  0  0  0  0  0  0  0  0  0  0
   -0.1600   -0.6884   -0.0105 C   0  0  0  0  0  0  0  0  0  0  0  0
   -1.3268    0.8976    0.9208 H   0  0  0  0  0  0  0  0  0  0  0  0
   -1.4638    0.7946   -0.8390 H   0  0  0  0  0  0  0  0  0  0  0  0
   -0.0679   -1.2783    0.8613 H   0  0  0  0  0  0  0  0  0  0  0  0
    0.7601   -0.1039    0.0245 H   0  0  0  0  0  0  0  0  0  0  0  0
   -0.1255   -1.3844   -0.8602 H   0  0  0  0  0  0  0  0  0  0  0  0
  1  2  1  0  0  0  0
  1  5  1  0  0  0  0
  2  8  1  0  0  0  0
  3  1  1  0  0  0  0
  4  1  1  0  0  0  0
  6  2  1  0  0  0  0
  6 10  1  0  0  0  0
  7  2  1  0  0  0  0
  9 13  1  0  0  0  0
  9  6  1  0  0  0  0
  9 12  1  0  0  0  0
 11  6  1  0  0  0  0
 14  9  1  0  0  0  0
M  END
$$$$
