14
butane_opt
C  -3.950198   0.274560   0.049960
C  -2.680067  -0.629623   0.014701
H  -4.816946  -0.296998  -0.053026
H  -3.937647   0.805320  -0.784417
H  -3.979073   1.009688   0.936832
C  -1.401361   0.175081  -0.025148
H  -2.710712  -1.364573  -0.879866
H  -2.673757  -1.236260   0.884197
C  -0.179111  -0.682453   0.062256
H  -1.419078   0.872523   0.846459
H  -1.375226   0.813997  -0.918711
H  -0.156400  -1.416019   1.029525
H   0.742152  -0.058890  -0.068039
H  -0.179268  -1.244797  -0.758413
