butane_opt
 OpenBabel08242015403D

 14 13  0  0  0  0  0  0  0  0999 V2000
   -3.9445    0.2562    0.0418 C   0  0  0  0  0  0  0  0  0  0  0  0
   -2.6930   -0.5996    0.0180 C   0  0  0  0  0  0  0  0  0  0  0  0
   -4.8735   -0.3635   -0.0080 H   0  0  0  0  0  0  0  0  0  0  0  0
   -3.9219    0.7923   -0.7984 H   0  0  0  0  0  0  0  0  0  0  0  0
   -3.9649    1.0157    0.9647 H   0  0  0  0  0  0  0  0  0  0  0  0
   -1.4070    0.1859   -0.0132 C   0  0  0  0  0  0  0  0  0  0  0  0
   -2.7183   -1.3111   -0.8593 H   0  0  0  0  0  0  0  0  0  0  0  0
   -2.6784   -1.1940    0.8778 H   0  0  0  0  0  0  0  0  0  0  0  0
   -0.1678   -0.6981    0.0508 C   0  0  0  0  0  0  0  0  0  0  0  0
   -1.4315    0.7991    0.7953 H   0  0  0  0  0  0  0  0  0  0  0  0
   -1.3746    0.8266   -0.9453 H   0  0  0  0  0  0  0  0  0  0  0  0
   -0.1531   -1.3817    1.0134 H   0  0  0  0  0  0  0  0  0  0  0  0
    0.7367   -0.0706   -0.0109 H   0  0  0  0  0  0  0  0  0  0  0  0
   -0.0978   -1.3174   -0.7442 H   0  0  0  0  0  0  0  0  0  0  0  0
  1  5  1  0  0  0  0
  2  1  1  0  0  0  0
  2  8  1  0  0  0  0
  3  1  1  0  0  0  0
  4  1  1  0  0  0  0
  6  2  1  0  0  0  0
  6  9  1  0  0  0  0
  6 10  1  0  0  0  0
  7  2  1  0  0  0  0
  9 12  1  0  0  0  0
 11  6  1  0  0  0  0
 13  9  1  0  0  0  0
 14  9  1  0  0  0  0
M  END
$$$$
