14
butane_opt
C  -3.958825   0.278431  -0.025598
C  -2.699559  -0.629665   0.096454
H  -4.853510  -0.300705  -0.105593
H  -3.892285   0.808044  -0.881427
H  -4.054044   1.013675   0.863549
C  -1.398285   0.173357   0.047076
H  -2.671875  -1.297528  -0.778867
H  -2.749598  -1.313873   1.029429
C  -0.151724  -0.681992  -0.001225
H  -1.344096   0.828550   0.882190
H  -1.474511   0.829555  -0.863858
H  -0.086296  -1.254308   0.825234
H   0.788194  -0.066219  -0.039198
H  -0.195224  -1.391521  -0.879798
