butane_opt
 OpenBabel08242015403D

 14 13  0  0  0  0  0  0  0  0999 V2000
   -3.9534    0.2512    0.0422 C   0  0  0  0  0  0  0  0  0  0  0  0
   -2.6986   -0.5961    0.0056 C   0  0  0  0  0  0  0  0  0  0  0  0
   -4.9064   -0.3553    0.0463 H   0  0  0  0  0  0  0  0  0  0  0  0
   -3.9989    0.7988   -0.8224 H   0  0  0  0  0  0  0  0  0  0  0  0
   -3.9392    0.9499    0.9236 H   0  0  0  0  0  0  0  0  0  0  0  0
   -1.4062    0.1955    0.0012 C   0  0  0  0  0  0  0  0  0  0  0  0
   -2.7482   -1.3183   -0.8926 H   0  0  0  0  0  0  0  0  0  0  0  0
   -2.7274   -1.1866    0.8664 H   0  0  0  0  0  0  0  0  0  0  0  0
   -0.1475   -0.7060    0.0527 C   0  0  0  0  0  0  0  0  0  0  0  0
   -1.3794    0.8391    0.8338 H   0  0  0  0  0  0  0  0  0  0  0  0
   -1.4034    0.8863   -0.9699 H   0  0  0  0  0  0  0  0  0  0  0  0
   -0.0662   -1.4128    1.0159 H   0  0  0  0  0  0  0  0  0  0  0  0
    0.7443   -0.1374   -0.0298 H   0  0  0  0  0  0  0  0  0  0  0  0
   -0.1238   -1.2761   -0.7286 H   0  0  0  0  0  0  0  0  0  0  0  0
  1  3  1  0  0  0  0
  1  5  1  0  0  0  0
  2  1  1  0  0  0  0
  2  8  1  0  0  0  0
  4  1  1  0  0  0  0
  6  2  1  0  0  0  0
  6  9  1  0  0  0  0
  6 10  1  0  0  0  0
  7  2  1  0  0  0  0
  9 12  1  0  0  0  0
 11  6  1  0  0  0  0
 13  9  1  0  0  0  0
 14  9  1  0  0  0  0
M  END
$$$$
