butane_opt
 OpenBabel08242015403D

 14 13  0  0  0  0  0  0  0  0999 V2000
   -3.9544    0.2775    0.0604 C   0  0  0  0  0  0  0  0  0  0  0  0
   -2.6930   -0.6232   -0.0102 C   0  0  0  0  0  0  0  0  0  0  0  0
   -4.8371   -0.3253    0.1717 H   0  0  0  0  0  0  0  0  0  0  0  0
   -4.0359    0.9575   -0.8780 H   0  0  0  0  0  0  0  0  0  0  0  0
   -3.9181    0.8780    0.8639 H   0  0  0  0  0  0  0  0  0  0  0  0
   -1.4073    0.1722   -0.0224 C   0  0  0  0  0  0  0  0  0  0  0  0
   -2.7313   -1.3721   -0.9119 H   0  0  0  0  0  0  0  0  0  0  0  0
   -2.6824   -1.2626    0.8549 H   0  0  0  0  0  0  0  0  0  0  0  0
   -0.1594   -0.6869    0.0675 C   0  0  0  0  0  0  0  0  0  0  0  0
   -1.4051    0.8668    0.8375 H   0  0  0  0  0  0  0  0  0  0  0  0
   -1.3678    0.7922   -0.9050 H   0  0  0  0  0  0  0  0  0  0  0  0
   -0.2165   -1.3062    0.9760 H   0  0  0  0  0  0  0  0  0  0  0  0
    0.8033   -0.0425    0.0385 H   0  0  0  0  0  0  0  0  0  0  0  0
   -0.0742   -1.3136   -0.7579 H   0  0  0  0  0  0  0  0  0  0  0  0
  1  3  1  0  0  0  0
  1  5  1  0  0  0  0
  2  1  1  0  0  0  0
  2  8  1  0  0  0  0
  4  1  1  0  0  0  0
  6  2  1  0  0  0  0
  6  9  1  0  0  0  0
  6 10  1  0  0  0  0
  7  2  1  0  0  0  0
  9 12  1  0  0  0  0
 11  6  1  0  0  0  0
 13  9  1  0  0  0  0
 14  9  1  0  0  0  0
M  END
$$$$
