14
butane_opt
C  -3.940918   0.263826   0.050077
C  -2.712884  -0.612285   0.016840
H  -4.855793  -0.342647   0.030030
H  -3.955258   0.842786  -0.809366
H  -3.941724   0.937786   0.902073
C  -1.409411   0.191136  -0.029483
H  -2.804918  -1.279312  -0.849245
H  -2.662499  -1.204674   0.888704
C  -0.151239  -0.708819   0.062851
H  -1.415649   0.822006   0.785392
H  -1.351858   0.869427  -0.949008
H  -0.184169  -1.262807   0.904765
H   0.779752  -0.083143   0.136184
H  -0.059095  -1.383129  -0.810544
