14
butane_opt
C  -3.953820   0.267375   0.034528
C  -2.694081  -0.634245   0.026892
H  -4.815687  -0.286952   0.053013
H  -4.061591   0.919978  -0.870549
H  -3.974655   0.980134   0.915420
C  -1.401804   0.177924  -0.027292
H  -2.722607  -1.265367  -0.806821
H  -2.711403  -1.304193   0.970576
C  -0.153358  -0.681622   0.053632
H  -1.394249   0.864901   0.849724
H  -1.331459   0.827660  -0.913423
H  -0.216551  -1.190612   0.891216
H   0.765682  -0.105938   0.147252
H  -0.118379  -1.466172  -0.867175
