butane_opt
 OpenBabel08242015403D

 14 13  0  0  0  0  0  0  0  0999 V2000
   -3.9409    0.2552    0.0397 C   0  0  0  0  0  0  0  0  0  0  0  0
   -2.7087   -0.6139    0.0318 C   0  0  0  0  0  0  0  0  0  0  0  0
   -4.8358   -0.3422   -0.0615 H   0  0  0  0  0  0  0  0  0  0  0  0
   -3.9526    0.7476   -0.7901 H   0  0  0  0  0  0  0  0  0  0  0  0
   -3.9937    1.0534    0.9926 H   0  0  0  0  0  0  0  0  0  0  0  0
   -1.4039    0.2080   -0.0291 C   0  0  0  0  0  0  0  0  0  0  0  0
   -2.7896   -1.3203   -0.8444 H   0  0  0  0  0  0  0  0  0  0  0  0
   -2.7082   -1.1896    0.8920 H   0  0  0  0  0  0  0  0  0  0  0  0
   -0.1500   -0.7133    0.0519 C   0  0  0  0  0  0  0  0  0  0  0  0
   -1.3769    0.8415    0.7796 H   0  0  0  0  0  0  0  0  0  0  0  0
   -1.3878    0.8992   -0.9466 H   0  0  0  0  0  0  0  0  0  0  0  0
   -0.1671   -1.3348    0.9898 H   0  0  0  0  0  0  0  0  0  0  0  0
    0.7449   -0.1508    0.0737 H   0  0  0  0  0  0  0  0  0  0  0  0
   -0.1012   -1.3176   -0.7589 H   0  0  0  0  0  0  0  0  0  0  0  0
  1  5  1  0  0  0  0
  2  1  1  0  0  0  0
  2  8  1  0  0  0  0
  3  1  1  0  0  0  0
  4  1  1  0  0  0  0
  6  2  1  0  0  0  0
  6  9  1  0  0  0  0
  6 10  1  0  0  0  0
  7  2  1  0  0  0  0
  9 13  1  0  0  0  0
  9 12  1  0  0  0  0
 11  6  1  0  0  0  0
 14  9  1  0  0  0  0
M  END
$$$$
