butane_opt
 OpenBabel08242015403D

 14 13  0  0  0  0  0  0  0  0999 V2000
   -3.9472    0.2695    0.0418 C   0  0  0  0  0  0  0  0  0  0  0  0
   -2.6901   -0.6249    0.0316 C   0  0  0  0  0  0  0  0  0  0  0  0
   -4.8232   -0.2736   -0.1029 H   0  0  0  0  0  0  0  0  0  0  0  0
   -3.8945    0.7740   -0.7698 H   0  0  0  0  0  0  0  0  0  0  0  0
   -4.0263    1.0699    0.9668 H   0  0  0  0  0  0  0  0  0  0  0  0
   -1.4098    0.1676   -0.0224 C   0  0  0  0  0  0  0  0  0  0  0  0
   -2.7868   -1.3334   -0.8529 H   0  0  0  0  0  0  0  0  0  0  0  0
   -2.6558   -1.2172    0.8628 H   0  0  0  0  0  0  0  0  0  0  0  0
   -0.1628   -0.6770    0.0554 C   0  0  0  0  0  0  0  0  0  0  0  0
   -1.4250    0.8011    0.7911 H   0  0  0  0  0  0  0  0  0  0  0  0
   -1.3815    0.8351   -0.9323 H   0  0  0  0  0  0  0  0  0  0  0  0
   -0.1604   -1.3693    1.0220 H   0  0  0  0  0  0  0  0  0  0  0  0
    0.7704   -0.0555   -0.0459 H   0  0  0  0  0  0  0  0  0  0  0  0
   -0.1390   -1.3175   -0.7650 H   0  0  0  0  0  0  0  0  0  0  0  0
  1  5  1  0  0  0  0
  2  1  1  0  0  0  0
  2  8  1  0  0  0  0
  3  1  1  0  0  0  0
  4  1  1  0  0  0  0
  6  2  1  0  0  0  0
  6  9  1  0  0  0  0
  6 10  1  0  0  0  0
  7  2  1  0  0  0  0
  9 12  1  0  0  0  0
 11  6  1  0  0  0  0
 13  9  1  0  0  0  0
 14  9  1  0  0  0  0
M  END
$$$$
