butane_opt
 OpenBabel08242015403D

 14 13  0  0  0  0  0  0  0  0999 V2000
   -3.9483    0.2802    0.0014 C   0  0  0  0  0  0  0  0  0  0  0  0
   -2.7084   -0.6384    0.0694 C   0  0  0  0  0  0  0  0  0  0  0  0
   -4.8640   -0.3163   -0.0963 H   0  0  0  0  0  0  0  0  0  0  0  0
   -3.9424    0.8849   -0.9050 H   0  0  0  0  0  0  0  0  0  0  0  0
   -4.0786    0.9954    0.8535 H   0  0  0  0  0  0  0  0  0  0  0  0
   -1.3915    0.1869    0.0284 C   0  0  0  0  0  0  0  0  0  0  0  0
   -2.7233   -1.3040   -0.7426 H   0  0  0  0  0  0  0  0  0  0  0  0
   -2.6632   -1.3197    0.9875 H   0  0  0  0  0  0  0  0  0  0  0  0
   -0.1612   -0.6849    0.0068 C   0  0  0  0  0  0  0  0  0  0  0  0
   -1.3430    0.8549    0.8760 H   0  0  0  0  0  0  0  0  0  0  0  0
   -1.3723    0.7746   -0.8387 H   0  0  0  0  0  0  0  0  0  0  0  0
   -0.1339   -1.2959    0.8854 H   0  0  0  0  0  0  0  0  0  0  0  0
    0.7592   -0.0828    0.0091 H   0  0  0  0  0  0  0  0  0  0  0  0
   -0.1498   -1.3835   -0.8662 H   0  0  0  0  0  0  0  0  0  0  0  0
  1  2  1  0  0  0  0
  1  5  1  0  0  0  0
  2  8  1  0  0  0  0
  3  1  1  0  0  0  0
  4  1  1  0  0  0  0
  6  2  1  0  0  0  0
  6 10  1  0  0  0  0
  7  2  1  0  0  0  0
  9 13  1  0  0  0  0
  9  6  1  0  0  0  0
  9 12  1  0  0  0  0
 11  6  1  0  0  0  0
 14  9  1  0  0  0  0
M  END
$$$$
