14
butane_opt
C  -3.959827   0.266723   0.036848
C  -2.705265  -0.623219   0.010191
H  -4.819126  -0.276959   0.115941
H  -4.059415   0.879777  -0.860622
H  -3.923205   0.931885   0.896620
C  -1.388345   0.180753  -0.012124
H  -2.752515  -1.323025  -0.866510
H  -2.704787  -1.184715   0.886048
C  -0.151467  -0.687853   0.051745
H  -1.406700   0.870554   0.855762
H  -1.398922   0.777423  -0.873502
H  -0.176356  -1.372046   1.015128
H   0.773948  -0.098799  -0.011992
H  -0.103489  -1.304438  -0.756518
