butane_opt
 OpenBabel08242015403D

 14 13  0  0  0  0  0  0  0  0999 V2000
   -3.9560    0.2642    0.0340 C   0  0  0  0  0  0  0  0  0  0  0  0
   -2.7019   -0.6188    0.0102 C   0  0  0  0  0  0  0  0  0  0  0  0
   -4.8528   -0.3049    0.0582 H   0  0  0  0  0  0  0  0  0  0  0  0
   -3.9984    0.8468   -0.8412 H   0  0  0  0  0  0  0  0  0  0  0  0
   -3.9179    0.9605    0.9314 H   0  0  0  0  0  0  0  0  0  0  0  0
   -1.3960    0.1949    0.0049 C   0  0  0  0  0  0  0  0  0  0  0  0
   -2.7458   -1.3504   -0.8847 H   0  0  0  0  0  0  0  0  0  0  0  0
   -2.7541   -1.1988    0.8435 H   0  0  0  0  0  0  0  0  0  0  0  0
   -0.1563   -0.6911    0.0536 C   0  0  0  0  0  0  0  0  0  0  0  0
   -1.3538    0.7995    0.8180 H   0  0  0  0  0  0  0  0  0  0  0  0
   -1.3905    0.8432   -0.8989 H   0  0  0  0  0  0  0  0  0  0  0  0
   -0.0364   -1.4092    1.0189 H   0  0  0  0  0  0  0  0  0  0  0  0
    0.7196   -0.1616   -0.0873 H   0  0  0  0  0  0  0  0  0  0  0  0
   -0.1751   -1.2793   -0.7300 H   0  0  0  0  0  0  0  0  0  0  0  0
  1  3  1  0  0  0  0
  1  5  1  0  0  0  0
  2  1  1  0  0  0  0
  2  8  1  0  0  0  0
  4  1  1  0  0  0  0
  6  2  1  0  0  0  0
  6  9  1  0  0  0  0
  6 10  1  0  0  0  0
  7  2  1  0  0  0  0
  9 12  1  0  0  0  0
 11  6  1  0  0  0  0
 13  9  1  0  0  0  0
 14  9  1  0  0  0  0
M  END
$$$$
