14
butane_opt
C  -3.940437   0.276715  -0.003931
C  -2.696283  -0.620878   0.053408
H  -4.887366  -0.322702   0.112498
H  -3.934265   0.980657  -0.955462
H  -3.943889   0.822303   0.776792
C  -1.405082   0.167652   0.048134
H  -2.696219  -1.327460  -0.788501
H  -2.729743  -1.214706   0.929288
C  -0.161388  -0.687540   0.007088
H  -1.325627   0.877165   0.923969
H  -1.437647   0.811294  -0.837681
H  -0.166101  -1.282586   0.888410
H   0.745682  -0.100990  -0.006081
H  -0.211252  -1.348671  -0.865361
