butane_opt
 OpenBabel08242015403D

 14 13  0  0  0  0  0  0  0  0999 V2000
   -3.9512    0.2696    0.0464 C   0  0  0  0  0  0  0  0  0  0  0  0
   -2.6829   -0.6329    0.0188 C   0  0  0  0  0  0  0  0  0  0  0  0
   -4.8412   -0.2938    0.0861 H   0  0  0  0  0  0  0  0  0  0  0  0
   -4.0149    0.9310   -0.8701 H   0  0  0  0  0  0  0  0  0  0  0  0
   -3.9566    0.9443    0.9114 H   0  0  0  0  0  0  0  0  0  0  0  0
   -1.4044    0.1829   -0.0232 C   0  0  0  0  0  0  0  0  0  0  0  0
   -2.6877   -1.3319   -0.8629 H   0  0  0  0  0  0  0  0  0  0  0  0
   -2.6797   -1.2554    0.8914 H   0  0  0  0  0  0  0  0  0  0  0  0
   -0.1772   -0.6861    0.0549 C   0  0  0  0  0  0  0  0  0  0  0  0
   -1.3697    0.8279    0.7847 H   0  0  0  0  0  0  0  0  0  0  0  0
   -1.3618    0.8064   -0.9032 H   0  0  0  0  0  0  0  0  0  0  0  0
   -0.2451   -1.2552    0.9401 H   0  0  0  0  0  0  0  0  0  0  0  0
    0.7618   -0.0639    0.1295 H   0  0  0  0  0  0  0  0  0  0  0  0
   -0.0421   -1.3798   -0.8359 H   0  0  0  0  0  0  0  0  0  0  0  0
  1  3  1  0  0  0  0
  1  5  1  0  0  0  0
  2  1  1  0  0  0  0
  2  8  1  0  0  0  0
  4  1  1  0  0  0  0
  6  2  1  0  0  0  0
  6  9  1  0  0  0  0
  6 10  1  0  0  0  0
  7  2  1  0  0  0  0
  9 13  1  0  0  0  0
  9 12  1  0  0  0  0
 11  6  1  0  0  0  0
 14  9  1  0  0  0  0
M  END
$$$$
