butane_opt
 OpenBabel08242015403D

 14 13  0  0  0  0  0  0  0  0999 V2000
   -3.9632    0.2818    0.0361 C   0  0  0  0  0  0  0  0  0  0  0  0
   -2.7000   -0.6341    0.0292 C   0  0  0  0  0  0  0  0  0  0  0  0
   -4.8618   -0.3106   -0.0465 H   0  0  0  0  0  0  0  0  0  0  0  0
   -3.9760    0.7886   -0.8245 H   0  0  0  0  0  0  0  0  0  0  0  0
   -4.0281    1.0146    0.9472 H   0  0  0  0  0  0  0  0  0  0  0  0
   -1.3994    0.1730   -0.0091 C   0  0  0  0  0  0  0  0  0  0  0  0
   -2.7092   -1.3059   -0.8300 H   0  0  0  0  0  0  0  0  0  0  0  0
   -2.6744   -1.2350    0.9036 H   0  0  0  0  0  0  0  0  0  0  0  0
   -0.1514   -0.6757    0.0470 C   0  0  0  0  0  0  0  0  0  0  0  0
   -1.3216    0.7967    0.8005 H   0  0  0  0  0  0  0  0  0  0  0  0
   -1.3767    0.8172   -0.9309 H   0  0  0  0  0  0  0  0  0  0  0  0
   -0.1720   -1.3461    0.9860 H   0  0  0  0  0  0  0  0  0  0  0  0
    0.7539   -0.0820    0.0115 H   0  0  0  0  0  0  0  0  0  0  0  0
   -0.0959   -1.3479   -0.8016 H   0  0  0  0  0  0  0  0  0  0  0  0
  1  5  1  0  0  0  0
  2  1  1  0  0  0  0
  2  8  1  0  0  0  0
  3  1  1  0  0  0  0
  4  1  1  0  0  0  0
  6  2  1  0  0  0  0
  6  9  1  0  0  0  0
  6 10  1  0  0  0  0
  7  2  1  0  0  0  0
  9 12  1  0  0  0  0
 11  6  1  0  0  0  0
 13  9  1  0  0  0  0
 14  9  1  0  0  0  0
M  END
$$$$
