14
butane_opt
C  -3.931473   0.256919   0.054996
C  -2.703544  -0.612438   0.010563
H  -4.834909  -0.340524   0.040874
H  -3.994827   0.832230  -0.819616
H  -3.981052   0.994603   0.944637
C  -1.414646   0.192354  -0.032276
H  -2.762883  -1.316904  -0.866210
H  -2.659668  -1.255937   0.901969
C  -0.155663  -0.696524   0.067115
H  -1.466736   0.836795   0.784110
H  -1.341711   0.868082  -1.004718
H  -0.203381  -1.256461   0.921691
H   0.734116  -0.126075   0.108949
H  -0.041987  -1.392282  -0.781609
