14
butane_opt
C  -3.939054   0.258590   0.053608
C  -2.705146  -0.598862   0.006226
H  -4.880686  -0.355067   0.074744
H  -3.959466   0.823995  -0.812613
H  -3.898704   0.899884   0.906492
C  -1.409304   0.196154  -0.029953
H  -2.740310  -1.266626  -0.845543
H  -2.687836  -1.217409   0.899796
C  -0.164251  -0.710828   0.066407
H  -1.408514   0.809467   0.748019
H  -1.348955   0.885306  -0.968184
H  -0.161831  -1.231495   0.925076
H   0.776937  -0.118141   0.175713
H  -0.096995  -1.450501  -0.822428
