14
butane_opt
C  -3.961245   0.284419  -0.011161
C  -2.697941  -0.631201   0.084881
H  -4.883049  -0.299883   0.043741
H  -3.999374   0.942132  -0.934978
H  -3.987722   0.840121   0.792994
C  -1.388687   0.176133   0.025449
H  -2.729443  -1.299211  -0.778284
H  -2.704203  -1.265777   0.985771
C  -0.159398  -0.686293   0.006315
H  -1.321856   0.822433   0.882916
H  -1.407248   0.790587  -0.855619
H  -0.193650  -1.152221   0.788393
H   0.783410  -0.073796   0.165052
H  -0.098887  -1.488361  -0.939945
