butane_opt
 OpenBabel08242015403D

 14 13  0  0  0  0  0  0  0  0999 V2000
   -3.9205    0.2524    0.0150 C   0  0  0  0  0  0  0  0  0  0  0  0
   -2.6984   -0.6021    0.0333 C   0  0  0  0  0  0  0  0  0  0  0  0
   -4.8616   -0.3515   -0.0092 H   0  0  0  0  0  0  0  0  0  0  0  0
   -3.9643    0.8214   -0.8519 H   0  0  0  0  0  0  0  0  0  0  0  0
   -3.9624    0.9491    0.8873 H   0  0  0  0  0  0  0  0  0  0  0  0
   -1.4177    0.1949    0.0174 C   0  0  0  0  0  0  0  0  0  0  0  0
   -2.7740   -1.2833   -0.8294 H   0  0  0  0  0  0  0  0  0  0  0  0
   -2.6798   -1.2138    0.9198 H   0  0  0  0  0  0  0  0  0  0  0  0
   -0.1642   -0.6986    0.0330 C   0  0  0  0  0  0  0  0  0  0  0  0
   -1.4322    0.9082    0.8696 H   0  0  0  0  0  0  0  0  0  0  0  0
   -1.4426    0.7749   -0.8357 H   0  0  0  0  0  0  0  0  0  0  0  0
   -0.0764   -1.4234    1.0239 H   0  0  0  0  0  0  0  0  0  0  0  0
    0.7502   -0.1202   -0.1488 H   0  0  0  0  0  0  0  0  0  0  0  0
   -0.1676   -1.2957   -0.7673 H   0  0  0  0  0  0  0  0  0  0  0  0
  1  2  1  0  0  0  0
  1  5  1  0  0  0  0
  2  8  1  0  0  0  0
  3  1  1  0  0  0  0
  4  1  1  0  0  0  0
  6  9  1  0  0  0  0
  6  2  1  0  0  0  0
  6 10  1  0  0  0  0
  7  2  1  0  0  0  0
  9 12  1  0  0  0  0
 11  6  1  0  0  0  0
 13  9  1  0  0  0  0
 14  9  1  0  0  0  0
M  END
$$$$
