butane_opt
 OpenBabel08242015403D

 14 13  0  0  0  0  0  0  0  0999 V2000
   -3.9361    0.2523   -0.0149 C   0  0  0  0  0  0  0  0  0  0  0  0
   -2.7197   -0.6059    0.0781 C   0  0  0  0  0  0  0  0  0  0  0  0
   -4.8179   -0.3088    0.0485 H   0  0  0  0  0  0  0  0  0  0  0  0
   -3.9349    0.9056   -0.9320 H   0  0  0  0  0  0  0  0  0  0  0  0
   -3.9700    0.8501    0.8048 H   0  0  0  0  0  0  0  0  0  0  0  0
   -1.4061    0.2035    0.0419 C   0  0  0  0  0  0  0  0  0  0  0  0
   -2.7323   -1.2467   -0.7463 H   0  0  0  0  0  0  0  0  0  0  0  0
   -2.7334   -1.2609    0.9758 H   0  0  0  0  0  0  0  0  0  0  0  0
   -0.1499   -0.7035   -0.0018 C   0  0  0  0  0  0  0  0  0  0  0  0
   -1.3569    0.8822    0.8783 H   0  0  0  0  0  0  0  0  0  0  0  0
   -1.4432    0.8328   -0.8418 H   0  0  0  0  0  0  0  0  0  0  0  0
   -0.1760   -1.2377    0.8379 H   0  0  0  0  0  0  0  0  0  0  0  0
    0.7433   -0.1648    0.0939 H   0  0  0  0  0  0  0  0  0  0  0  0
   -0.0595   -1.4845   -0.9355 H   0  0  0  0  0  0  0  0  0  0  0  0
  1  3  1  0  0  0  0
  1  2  1  0  0  0  0
  1  5  1  0  0  0  0
  2  8  1  0  0  0  0
  4  1  1  0  0  0  0
  6  2  1  0  0  0  0
  6 10  1  0  0  0  0
  7  2  1  0  0  0  0
  9  6  1  0  0  0  0
  9 13  1  0  0  0  0
  9 12  1  0  0  0  0
 11  6  1  0  0  0  0
 14  9  1  0  0  0  0
M  END
$$$$
