14
butane_opt
C  -3.957292   0.254345  -0.007943
C  -2.712922  -0.606484   0.073099
H  -4.863340  -0.324498  -0.020497
H  -3.887617   0.843910  -0.907466
H  -4.000126   0.909819   0.859869
C  -1.406934   0.198408   0.028410
H  -2.654183  -1.209722  -0.736897
H  -2.757393  -1.286533   1.018238
C  -0.141694  -0.701467   0.000995
H  -1.350320   0.893483   0.895085
H  -1.428792   0.787127  -0.843524
H  -0.107576  -1.256292   0.873577
H   0.728750  -0.129758   0.070617
H  -0.077313  -1.444295  -0.903318
