14
butane_opt
C  -3.936641   0.251080   0.007241
C  -2.705611  -0.598314   0.070507
H  -4.862691  -0.374651   0.038183
H  -3.909561   0.927647  -0.941355
H  -3.992754   0.894217   0.823910
C  -1.406983   0.194663   0.010198
H  -2.758781  -1.255699  -0.777365
H  -2.762245  -1.208457   0.968405
C  -0.147466  -0.707613   0.017069
H  -1.390041   0.877582   0.850862
H  -1.415537   0.800457  -0.873804
H  -0.170665  -1.196618   0.844314
H   0.731351  -0.135783   0.149156
H  -0.119059  -1.490902  -0.914526
