butane_opt
 OpenBabel08242015403D

 14 13  0  0  0  0  0  0  0  0999 V2000
   -3.9482    0.2746    0.0466 C   0  0  0  0  0  0  0  0  0  0  0  0
   -2.6961   -0.6213    0.0118 C   0  0  0  0  0  0  0  0  0  0  0  0
   -4.8434   -0.3206    0.0890 H   0  0  0  0  0  0  0  0  0  0  0  0
   -3.9608    0.8693   -0.8494 H   0  0  0  0  0  0  0  0  0  0  0  0
   -3.9348    0.9968    0.9529 H   0  0  0  0  0  0  0  0  0  0  0  0
   -1.3983    0.1631   -0.0247 C   0  0  0  0  0  0  0  0  0  0  0  0
   -2.7317   -1.3122   -0.8189 H   0  0  0  0  0  0  0  0  0  0  0  0
   -2.6993   -1.2299    0.8911 H   0  0  0  0  0  0  0  0  0  0  0  0
   -0.1660   -0.6811    0.0596 C   0  0  0  0  0  0  0  0  0  0  0  0
   -1.4507    0.7846    0.7713 H   0  0  0  0  0  0  0  0  0  0  0  0
   -1.3508    0.8366   -0.9577 H   0  0  0  0  0  0  0  0  0  0  0  0
   -0.2269   -1.2662    0.9155 H   0  0  0  0  0  0  0  0  0  0  0  0
    0.7567   -0.0624    0.1496 H   0  0  0  0  0  0  0  0  0  0  0  0
   -0.0889   -1.3843   -0.8206 H   0  0  0  0  0  0  0  0  0  0  0  0
  1  3  1  0  0  0  0
  1  5  1  0  0  0  0
  2  1  1  0  0  0  0
  2  8  1  0  0  0  0
  4  1  1  0  0  0  0
  6  2  1  0  0  0  0
  6  9  1  0  0  0  0
  6 10  1  0  0  0  0
  7  2  1  0  0  0  0
  9 13  1  0  0  0  0
  9 12  1  0  0  0  0
 11  6  1  0  0  0  0
 14  9  1  0  0  0  0
M  END
$$$$
