14
butane_opt
C  -3.939416   0.244807   0.027350
C  -2.699612  -0.590849   0.033220
H  -4.894513  -0.383480  -0.024452
H  -3.943505   0.796264  -0.826948
H  -3.931137   1.021171   0.965542
C  -1.411886   0.196639  -0.005737
H  -2.681627  -1.318862  -0.864845
H  -2.703483  -1.204744   0.914835
C  -0.157587  -0.703211   0.050986
H  -1.404109   0.815183   0.824764
H  -1.405247   0.891207  -0.942361
H  -0.131205  -1.352026   0.960679
H   0.729440  -0.134930  -0.049847
H  -0.141396  -1.378307  -0.778134
