14
butane_opt
C  -3.933177   0.250451   0.019437
C  -2.696463  -0.594999   0.032670
H  -4.856391  -0.362851  -0.013193
H  -3.925714   0.831124  -0.846436
H  -3.980485   0.956393   0.914117
C  -1.414494   0.191258   0.011459
H  -2.720691  -1.309675  -0.832483
H  -2.705988  -1.220628   0.919535
C  -0.156920  -0.700905   0.040759
H  -1.403652   0.883344   0.862198
H  -1.437711   0.811797  -0.877491
H  -0.109741  -1.391819   0.979821
H   0.724378  -0.107279  -0.125503
H  -0.186248  -1.315023  -0.783642
