14
butane_opt
C  -3.946011   0.271234   0.056276
C  -2.698992  -0.625943   0.011175
H  -4.839579  -0.296155   0.053988
H  -3.961685   0.917863  -0.881149
H  -3.970988   0.970778   0.955046
C  -1.397788   0.174918  -0.028893
H  -2.753528  -1.335021  -0.886569
H  -2.646284  -1.245572   0.876326
C  -0.164626  -0.692110   0.066239
H  -1.388240   0.809191   0.800975
H  -1.380453   0.847561  -0.976832
H  -0.270631  -1.255099   0.942703
H   0.782742  -0.037947   0.114633
H  -0.107471  -1.377146  -0.820644
