14
butane_opt
C  -3.931925   0.259169  -0.006010
C  -2.697809  -0.601172   0.086700
H  -4.869854  -0.353986  -0.120936
H  -3.816736   0.799736  -0.900633
H  -4.025365   0.933336   0.854603
C  -1.419680   0.191701   0.036805
H  -2.718483  -1.249737  -0.760397
H  -2.746565  -1.253050   0.977928
C  -0.159901  -0.701961   0.000015
H  -1.437882   0.856519   0.864502
H  -1.438316   0.814463  -0.851943
H  -0.110928  -1.290346   0.865841
H   0.784264  -0.092255  -0.019541
H  -0.138627  -1.407314  -0.880288
