butane_opt
 OpenBabel08242015403D

 14 13  0  0  0  0  0  0  0  0999 V2000
   -3.9282    0.2536   -0.0098 C   0  0  0  0  0  0  0  0  0  0  0  0
   -2.7017   -0.6025    0.0596 C   0  0  0  0  0  0  0  0  0  0  0  0
   -4.8880   -0.3562   -0.0077 H   0  0  0  0  0  0  0  0  0  0  0  0
   -3.9127    0.8474   -0.9019 H   0  0  0  0  0  0  0  0  0  0  0  0
   -4.0080    0.9310    0.8505 H   0  0  0  0  0  0  0  0  0  0  0  0
   -1.4128    0.1963    0.0423 C   0  0  0  0  0  0  0  0  0  0  0  0
   -2.7019   -1.2872   -0.7964 H   0  0  0  0  0  0  0  0  0  0  0  0
   -2.7377   -1.2797    0.9841 H   0  0  0  0  0  0  0  0  0  0  0  0
   -0.1580   -0.6978    0.0102 C   0  0  0  0  0  0  0  0  0  0  0  0
   -1.3729    0.9298    0.9138 H   0  0  0  0  0  0  0  0  0  0  0  0
   -1.4687    0.7951   -0.8110 H   0  0  0  0  0  0  0  0  0  0  0  0
   -0.0146   -1.3628    0.9404 H   0  0  0  0  0  0  0  0  0  0  0  0
    0.7004   -0.1559   -0.1299 H   0  0  0  0  0  0  0  0  0  0  0  0
   -0.2027   -1.3373   -0.8184 H   0  0  0  0  0  0  0  0  0  0  0  0
  1  3  1  0  0  0  0
  1  2  1  0  0  0  0
  1  5  1  0  0  0  0
  2  8  1  0  0  0  0
  4  1  1  0  0  0  0
  6  2  1  0  0  0  0
  6 10  1  0  0  0  0
  7  2  1  0  0  0  0
  9  6  1  0  0  0  0
  9 12  1  0  0  0  0
 11  6  1  0  0  0  0
 13  9  1  0  0  0  0
 14  9  1  0  0  0  0
M  END
$$$$
