butane_opt
 OpenBabel08242015403D

 14 13  0  0  0  0  0  0  0  0999 V2000
   -3.9389    0.2568   -0.0021 C   0  0  0  0  0  0  0  0  0  0  0  0
   -2.7097   -0.6067    0.0556 C   0  0  0  0  0  0  0  0  0  0  0  0
   -4.8481   -0.3645    0.1266 H   0  0  0  0  0  0  0  0  0  0  0  0
   -3.9875    1.0026   -0.9755 H   0  0  0  0  0  0  0  0  0  0  0  0
   -3.9908    0.8040    0.7654 H   0  0  0  0  0  0  0  0  0  0  0  0
   -1.4041    0.1931    0.0407 C   0  0  0  0  0  0  0  0  0  0  0  0
   -2.7148   -1.2547   -0.7867 H   0  0  0  0  0  0  0  0  0  0  0  0
   -2.7790   -1.2556    0.9555 H   0  0  0  0  0  0  0  0  0  0  0  0
   -0.1454   -0.7026    0.0034 C   0  0  0  0  0  0  0  0  0  0  0  0
   -1.4065    0.9392    0.9421 H   0  0  0  0  0  0  0  0  0  0  0  0
   -1.4433    0.7486   -0.8059 H   0  0  0  0  0  0  0  0  0  0  0  0
   -0.0901   -1.2696    0.8676 H   0  0  0  0  0  0  0  0  0  0  0  0
    0.7402   -0.1325    0.0359 H   0  0  0  0  0  0  0  0  0  0  0  0
   -0.1210   -1.3755   -0.8676 H   0  0  0  0  0  0  0  0  0  0  0  0
  1  2  1  0  0  0  0
  1  3  1  0  0  0  0
  1  5  1  0  0  0  0
  2  8  1  0  0  0  0
  4  1  1  0  0  0  0
  6  2  1  0  0  0  0
  6 10  1  0  0  0  0
  7  2  1  0  0  0  0
  9 13  1  0  0  0  0
  9  6  1  0  0  0  0
  9 12  1  0  0  0  0
 11  6  1  0  0  0  0
 14  9  1  0  0  0  0
M  END
$$$$
