14
butane_opt
C  -3.938726   0.255152   0.008435
C  -2.715037  -0.609938   0.047404
H  -4.843167  -0.339113   0.091314
H  -3.976261   0.966625  -0.961837
H  -3.992852   0.822543   0.769529
C  -1.404747   0.196626   0.041529
H  -2.743102  -1.301861  -0.821941
H  -2.738624  -1.224227   0.926804
C  -0.145441  -0.702172   0.016096
H  -1.387560   0.937344   0.915816
H  -1.396290   0.835595  -0.851046
H  -0.087848  -1.315613   0.911043
H   0.711197  -0.142329  -0.054487
H  -0.115510  -1.395987  -0.861626
