14
butane_opt
C  -3.947224   0.262020   0.044480
C  -2.710830  -0.602966   0.009780
H  -4.884393  -0.348144   0.122558
H  -4.013019   0.823241  -0.813427
H  -3.941617   0.933323   0.885639
C  -1.406534   0.190271  -0.026454
H  -2.762265  -1.284336  -0.820058
H  -2.680464  -1.248666   0.903963
C  -0.147641  -0.701627   0.054209
H  -1.371899   0.832799   0.798348
H  -1.364715   0.838853  -0.935553
H  -0.210692  -1.271531   0.947051
H   0.762152  -0.125688   0.186213
H  -0.007189  -1.400290  -0.818642
