14
butane_opt
C  -3.949515   0.275595   0.053446
C  -2.707774  -0.628118  -0.008723
H  -4.836422  -0.303838   0.155572
H  -4.037044   0.928837  -0.860895
H  -3.922223   0.866938   0.876865
C  -1.403224   0.186354  -0.026272
H  -2.788455  -1.357415  -0.894421
H  -2.676339  -1.233321   0.880715
C  -0.152061  -0.694841   0.066717
H  -1.373184   0.913307   0.864697
H  -1.361355   0.792364  -0.900200
H  -0.126865  -1.359501   0.986734
H   0.771071  -0.064146   0.054290
H  -0.129920  -1.313327  -0.745834
