14
butane_opt
C  -3.964345   0.274154  -0.009666
C  -2.694306  -0.623789   0.078851
H  -4.857083  -0.290818  -0.077586
H  -3.919426   0.879344  -0.914255
H  -4.045379   0.950030   0.843931
C  -1.389426   0.172885   0.030504
H  -2.712025  -1.258876  -0.711278
H  -2.730739  -1.288164   0.997653
C  -0.162734  -0.683286  -0.000391
H  -1.359367   0.901767   0.913740
H  -1.372329   0.712889  -0.804713
H  -0.101518  -1.313914   0.897030
H   0.761858  -0.058969   0.000732
H  -0.169089  -1.378644  -0.900364
