14
butane_opt
C  -3.952536   0.271134   0.029278
C  -2.689663  -0.631339   0.043023
H  -4.870501  -0.300616  -0.082543
H  -3.907914   0.803713  -0.826526
H  -4.009648   1.039488   0.960415
C  -1.399196   0.176532  -0.011757
H  -2.691665  -1.310175  -0.814763
H  -2.637444  -1.212940   0.894543
C  -0.174591  -0.685695   0.048648
H  -1.413151   0.823425   0.841285
H  -1.353580   0.846851  -0.935555
H  -0.160498  -1.334636   0.944186
H   0.770510  -0.062942  -0.024781
H  -0.163129  -1.331768  -0.820498
