14
butane_opt
C  -3.946551   0.260205  -0.013597
C  -2.700763  -0.603893   0.089905
H  -4.897288  -0.345261  -0.109739
H  -3.804477   0.842450  -0.929794
H  -4.020604   0.958389   0.836571
C  -1.395060   0.193424   0.046889
H  -2.692750  -1.275284  -0.752825
H  -2.720934  -1.250562   1.000649
C  -0.167646  -0.702485  -0.008538
H  -1.400307   0.860704   0.900234
H  -1.415697   0.764717  -0.822886
H  -0.120389  -1.312949   0.888434
H   0.745303  -0.108268  -0.067620
H  -0.175772  -1.373330  -0.880048
