14
butane_opt
C  -3.954601   0.276314   0.047652
C  -2.703113  -0.638321  -0.005996
H  -4.810288  -0.269606   0.165531
H  -4.113080   0.925984  -0.865833
H  -3.872152   0.920458   0.898465
C  -1.400589   0.182437  -0.019110
H  -2.704571  -1.332966  -0.860277
H  -2.736272  -1.245047   0.852176
C  -0.156004  -0.685529   0.065075
H  -1.384070   0.858995   0.842019
H  -1.328916   0.803147  -0.898698
H  -0.161608  -1.333388   1.009167
H   0.781505  -0.076195   0.036322
H  -0.133655  -1.329173  -0.791052
