butane_opt
 OpenBabel08242015403D

 14 13  0  0  0  0  0  0  0  0999 V2000
   -3.9542    0.2799    0.0036 C   0  0  0  0  0  0  0  0  0  0  0  0
   -2.6983   -0.6270    0.0383 C   0  0  0  0  0  0  0  0  0  0  0  0
   -4.8595   -0.3107    0.1939 H   0  0  0  0  0  0  0  0  0  0  0  0
   -4.0195    1.0203   -0.9626 H   0  0  0  0  0  0  0  0  0  0  0  0
   -3.9900    0.8050    0.7722 H   0  0  0  0  0  0  0  0  0  0  0  0
   -1.3829    0.1697    0.0339 C   0  0  0  0  0  0  0  0  0  0  0  0
   -2.7374   -1.2871   -0.7971 H   0  0  0  0  0  0  0  0  0  0  0  0
   -2.6837   -1.2780    0.9414 H   0  0  0  0  0  0  0  0  0  0  0  0
   -0.1679   -0.6863    0.0152 C   0  0  0  0  0  0  0  0  0  0  0  0
   -1.3792    0.8877    0.9131 H   0  0  0  0  0  0  0  0  0  0  0  0
   -1.3899    0.7526   -0.7954 H   0  0  0  0  0  0  0  0  0  0  0  0
   -0.1599   -1.2401    0.8868 H   0  0  0  0  0  0  0  0  0  0  0  0
    0.7647   -0.0749    0.0516 H   0  0  0  0  0  0  0  0  0  0  0  0
   -0.1328   -1.3773   -0.8764 H   0  0  0  0  0  0  0  0  0  0  0  0
  1  2  1  0  0  0  0
  1  3  1  0  0  0  0
  1  5  1  0  0  0  0
  2  8  1  0  0  0  0
  4  1  1  0  0  0  0
  6  2  1  0  0  0  0
  6 10  1  0  0  0  0
  7  2  1  0  0  0  0
  9  6  1  0  0  0  0
  9 13  1  0  0  0  0
  9 12  1  0  0  0  0
 11  6  1  0  0  0  0
 14  9  1  0  0  0  0
M  END
$$$$
