butane_opt
 OpenBabel08242015403D

 14 13  0  0  0  0  0  0  0  0999 V2000
   -3.9559    0.2740    0.0359 C   0  0  0  0  0  0  0  0  0  0  0  0
   -2.7057   -0.6319    0.0266 C   0  0  0  0  0  0  0  0  0  0  0  0
   -4.8422   -0.2963   -0.1114 H   0  0  0  0  0  0  0  0  0  0  0  0
   -3.9532    0.7593   -0.7600 H   0  0  0  0  0  0  0  0  0  0  0  0
   -4.0213    1.0870    0.9995 H   0  0  0  0  0  0  0  0  0  0  0  0
   -1.3980    0.1781   -0.0122 C   0  0  0  0  0  0  0  0  0  0  0  0
   -2.6778   -1.3348   -0.8368 H   0  0  0  0  0  0  0  0  0  0  0  0
   -2.7030   -1.2269    0.9246 H   0  0  0  0  0  0  0  0  0  0  0  0
   -0.1504   -0.6835    0.0537 C   0  0  0  0  0  0  0  0  0  0  0  0
   -1.3821    0.7551    0.7628 H   0  0  0  0  0  0  0  0  0  0  0  0
   -1.4049    0.8778   -0.9438 H   0  0  0  0  0  0  0  0  0  0  0  0
   -0.1353   -1.3464    0.9748 H   0  0  0  0  0  0  0  0  0  0  0  0
    0.7891   -0.0939   -0.0159 H   0  0  0  0  0  0  0  0  0  0  0  0
   -0.1749   -1.2907   -0.7765 H   0  0  0  0  0  0  0  0  0  0  0  0
  1  5  1  0  0  0  0
  2  1  1  0  0  0  0
  2  8  1  0  0  0  0
  3  1  1  0  0  0  0
  4  1  1  0  0  0  0
  6  2  1  0  0  0  0
  6  9  1  0  0  0  0
  6 10  1  0  0  0  0
  7  2  1  0  0  0  0
  9 12  1  0  0  0  0
 11  6  1  0  0  0  0
 13  9  1  0  0  0  0
 14  9  1  0  0  0  0
M  END
$$$$
