butane_opt
 OpenBabel08242015403D

 14 13  0  0  0  0  0  0  0  0999 V2000
   -3.9478    0.2633    0.0541 C   0  0  0  0  0  0  0  0  0  0  0  0
   -2.7019   -0.6302    0.0154 C   0  0  0  0  0  0  0  0  0  0  0  0
   -4.8156   -0.2894    0.0597 H   0  0  0  0  0  0  0  0  0  0  0  0
   -4.0254    0.8919   -0.8527 H   0  0  0  0  0  0  0  0  0  0  0  0
   -3.9379    0.9889    0.9509 H   0  0  0  0  0  0  0  0  0  0  0  0
   -1.4104    0.1837   -0.0376 C   0  0  0  0  0  0  0  0  0  0  0  0
   -2.7216   -1.3105   -0.8733 H   0  0  0  0  0  0  0  0  0  0  0  0
   -2.7070   -1.2175    0.8698 H   0  0  0  0  0  0  0  0  0  0  0  0
   -0.1495   -0.6872    0.0698 C   0  0  0  0  0  0  0  0  0  0  0  0
   -1.4267    0.8001    0.7663 H   0  0  0  0  0  0  0  0  0  0  0  0
   -1.3483    0.8427   -0.9574 H   0  0  0  0  0  0  0  0  0  0  0  0
   -0.1827   -1.2419    0.9282 H   0  0  0  0  0  0  0  0  0  0  0  0
    0.7409   -0.0829    0.1360 H   0  0  0  0  0  0  0  0  0  0  0  0
   -0.0848   -1.4064   -0.8098 H   0  0  0  0  0  0  0  0  0  0  0  0
  1  3  1  0  0  0  0
  1  5  1  0  0  0  0
  2  1  1  0  0  0  0
  2  8  1  0  0  0  0
  4  1  1  0  0  0  0
  6  2  1  0  0  0  0
  6  9  1  0  0  0  0
  6 10  1  0  0  0  0
  7  2  1  0  0  0  0
  9 13  1  0  0  0  0
  9 12  1  0  0  0  0
 11  6  1  0  0  0  0
 14  9  1  0  0  0  0
M  END
$$$$
