butane_opt
 OpenBabel08242015403D

 14 13  0  0  0  0  0  0  0  0999 V2000
   -3.9568    0.2743    0.0356 C   0  0  0  0  0  0  0  0  0  0  0  0
   -2.6936   -0.6310    0.0226 C   0  0  0  0  0  0  0  0  0  0  0  0
   -4.8646   -0.3269   -0.0292 H   0  0  0  0  0  0  0  0  0  0  0  0
   -3.9899    0.7666   -0.7837 H   0  0  0  0  0  0  0  0  0  0  0  0
   -4.0230    1.0458    0.9926 H   0  0  0  0  0  0  0  0  0  0  0  0
   -1.3889    0.1852   -0.0213 C   0  0  0  0  0  0  0  0  0  0  0  0
   -2.7243   -1.3433   -0.8387 H   0  0  0  0  0  0  0  0  0  0  0  0
   -2.6829   -1.2541    0.8886 H   0  0  0  0  0  0  0  0  0  0  0  0
   -0.1624   -0.6885    0.0527 C   0  0  0  0  0  0  0  0  0  0  0  0
   -1.3710    0.8888    0.8383 H   0  0  0  0  0  0  0  0  0  0  0  0
   -1.4084    0.8294   -0.9434 H   0  0  0  0  0  0  0  0  0  0  0  0
   -0.1481   -1.3867    1.0048 H   0  0  0  0  0  0  0  0  0  0  0  0
    0.7250   -0.1188   -0.0113 H   0  0  0  0  0  0  0  0  0  0  0  0
   -0.1131   -1.2521   -0.7289 H   0  0  0  0  0  0  0  0  0  0  0  0
  1  5  1  0  0  0  0
  2  1  1  0  0  0  0
  2  8  1  0  0  0  0
  3  1  1  0  0  0  0
  4  1  1  0  0  0  0
  6  2  1  0  0  0  0
  6  9  1  0  0  0  0
  6 10  1  0  0  0  0
  7  2  1  0  0  0  0
  9 12  1  0  0  0  0
 11  6  1  0  0  0  0
 13  9  1  0  0  0  0
 14  9  1  0  0  0  0
M  END
$$$$
