14
butane_opt
C  -3.959077   0.268034   0.044403
C  -2.707268  -0.619125   0.000413
H  -4.867021  -0.287181   0.171380
H  -4.009403   0.961435  -0.890619
H  -3.904800   0.862251   0.871728
C  -1.400658   0.175964  -0.017993
H  -2.714206  -1.326202  -0.869602
H  -2.671812  -1.218398   0.893791
C  -0.155335  -0.684327   0.055733
H  -1.382027   0.905709   0.884798
H  -1.326004   0.742536  -0.873957
H  -0.124929  -1.367729   0.996830
H   0.758102  -0.083480   0.049276
H  -0.122763  -1.341351  -0.788122
