butane_opt
 OpenBabel08242015403D

 14 13  0  0  0  0  0  0  0  0999 V2000
   -3.9606    0.2638   -0.0065 C   0  0  0  0  0  0  0  0  0  0  0  0
   -2.6958   -0.6182    0.0690 C   0  0  0  0  0  0  0  0  0  0  0  0
   -4.9053   -0.3320   -0.0137 H   0  0  0  0  0  0  0  0  0  0  0  0
   -3.9096    0.8957   -0.9297 H   0  0  0  0  0  0  0  0  0  0  0  0
   -4.0191    0.8874    0.8191 H   0  0  0  0  0  0  0  0  0  0  0  0
   -1.4013    0.1956    0.0465 C   0  0  0  0  0  0  0  0  0  0  0  0
   -2.6974   -1.2966   -0.8025 H   0  0  0  0  0  0  0  0  0  0  0  0
   -2.7368   -1.2316    0.9573 H   0  0  0  0  0  0  0  0  0  0  0  0
   -0.1467   -0.6988    0.0039 C   0  0  0  0  0  0  0  0  0  0  0  0
   -1.3340    0.8613    0.9029 H   0  0  0  0  0  0  0  0  0  0  0  0
   -1.4370    0.8010   -0.8312 H   0  0  0  0  0  0  0  0  0  0  0  0
   -0.0911   -1.2839    0.9004 H   0  0  0  0  0  0  0  0  0  0  0  0
    0.7307   -0.1368   -0.0799 H   0  0  0  0  0  0  0  0  0  0  0  0
   -0.1641   -1.3501   -0.8385 H   0  0  0  0  0  0  0  0  0  0  0  0
  1  2  1  0  0  0  0
  1  5  1  0  0  0  0
  2  8  1  0  0  0  0
  3  1  1  0  0  0  0
  4  1  1  0  0  0  0
  6  2  1  0  0  0  0
  6 10  1  0  0  0  0
  7  2  1  0  0  0  0
  9  6  1  0  0  0  0
  9 12  1  0  0  0  0
 11  6  1  0  0  0  0
 13  9  1  0  0  0  0
 14  9  1  0  0  0  0
M  END
$$$$
