butane_opt
 OpenBabel08242015403D

 14 13  0  0  0  0  0  0  0  0999 V2000
   -3.9566    0.2565   -0.0159 C   0  0  0  0  0  0  0  0  0  0  0  0
   -2.7011   -0.6102    0.0891 C   0  0  0  0  0  0  0  0  0  0  0  0
   -4.9171   -0.3870   -0.1214 H   0  0  0  0  0  0  0  0  0  0  0  0
   -3.8423    0.8630   -0.9137 H   0  0  0  0  0  0  0  0  0  0  0  0
   -4.0484    0.9796    0.8465 H   0  0  0  0  0  0  0  0  0  0  0  0
   -1.4085    0.1999    0.0514 C   0  0  0  0  0  0  0  0  0  0  0  0
   -2.7447   -1.2774   -0.7450 H   0  0  0  0  0  0  0  0  0  0  0  0
   -2.7294   -1.2691    0.9890 H   0  0  0  0  0  0  0  0  0  0  0  0
   -0.1383   -0.7017   -0.0049 C   0  0  0  0  0  0  0  0  0  0  0  0
   -1.3574    0.8806    0.8860 H   0  0  0  0  0  0  0  0  0  0  0  0
   -1.4315    0.8377   -0.8567 H   0  0  0  0  0  0  0  0  0  0  0  0
   -0.0902   -1.2897    0.8777 H   0  0  0  0  0  0  0  0  0  0  0  0
    0.7355   -0.1525   -0.0702 H   0  0  0  0  0  0  0  0  0  0  0  0
   -0.1357   -1.4018   -0.8912 H   0  0  0  0  0  0  0  0  0  0  0  0
  1  2  1  0  0  0  0
  1  5  1  0  0  0  0
  2  8  1  0  0  0  0
  3  1  1  0  0  0  0
  4  1  1  0  0  0  0
  6  2  1  0  0  0  0
  6 10  1  0  0  0  0
  7  2  1  0  0  0  0
  9  6  1  0  0  0  0
  9 12  1  0  0  0  0
 11  6  1  0  0  0  0
 13  9  1  0  0  0  0
 14  9  1  0  0  0  0
M  END
$$$$
