14
butane_opt
C  -3.959605   0.257453   0.035577
C  -2.699366  -0.603631   0.012671
H  -4.915423  -0.375913  -0.020082
H  -3.942398   0.803992  -0.839970
H  -3.976362   0.981053   0.946999
C  -1.400898   0.201188   0.001087
H  -2.763787  -1.298743  -0.861367
H  -2.684314  -1.250768   0.939596
C  -0.151847  -0.703950   0.047448
H  -1.410481   0.892510   0.853546
H  -1.378862   0.808821  -0.883472
H  -0.084227  -1.453033   1.007453
H   0.778516  -0.113105  -0.105910
H  -0.101742  -1.277743  -0.748082
