butane_opt
 OpenBabel08242015403D

 14 13  0  0  0  0  0  0  0  0999 V2000
   -3.9486    0.2701   -0.0017 C   0  0  0  0  0  0  0  0  0  0  0  0
   -2.6926   -0.6220    0.0604 C   0  0  0  0  0  0  0  0  0  0  0  0
   -4.8291   -0.2767   -0.0745 H   0  0  0  0  0  0  0  0  0  0  0  0
   -3.9572    0.8381   -0.8880 H   0  0  0  0  0  0  0  0  0  0  0  0
   -3.9675    0.9940    0.9073 H   0  0  0  0  0  0  0  0  0  0  0  0
   -1.4023    0.1638    0.0288 C   0  0  0  0  0  0  0  0  0  0  0  0
   -2.6211   -1.2606   -0.7396 H   0  0  0  0  0  0  0  0  0  0  0  0
   -2.7326   -1.3019    1.0032 H   0  0  0  0  0  0  0  0  0  0  0  0
   -0.1704   -0.6853    0.0115 C   0  0  0  0  0  0  0  0  0  0  0  0
   -1.3659    0.8873    0.9021 H   0  0  0  0  0  0  0  0  0  0  0  0
   -1.4116    0.8219   -0.8796 H   0  0  0  0  0  0  0  0  0  0  0  0
   -0.1713   -1.2889    0.8820 H   0  0  0  0  0  0  0  0  0  0  0  0
    0.7973   -0.0584   -0.0088 H   0  0  0  0  0  0  0  0  0  0  0  0
   -0.2032   -1.3381   -0.8474 H   0  0  0  0  0  0  0  0  0  0  0  0
  1  2  1  0  0  0  0
  1  5  1  0  0  0  0
  2  8  1  0  0  0  0
  3  1  1  0  0  0  0
  4  1  1  0  0  0  0
  6  2  1  0  0  0  0
  6 10  1  0  0  0  0
  7  2  1  0  0  0  0
  9  6  1  0  0  0  0
  9 12  1  0  0  0  0
 11  6  1  0  0  0  0
 13  9  1  0  0  0  0
 14  9  1  0  0  0  0
M  END
$$$$
