butane_opt
 OpenBabel08242015403D

 14 13  0  0  0  0  0  0  0  0999 V2000
   -3.9561    0.2761    0.0289 C   0  0  0  0  0  0  0  0  0  0  0  0
   -2.6955   -0.6403    0.0269 C   0  0  0  0  0  0  0  0  0  0  0  0
   -4.8360   -0.2628    0.1087 H   0  0  0  0  0  0  0  0  0  0  0  0
   -4.0301    0.9277   -0.8748 H   0  0  0  0  0  0  0  0  0  0  0  0
   -3.9385    0.9329    0.8862 H   0  0  0  0  0  0  0  0  0  0  0  0
   -1.3900    0.1796   -0.0064 C   0  0  0  0  0  0  0  0  0  0  0  0
   -2.7069   -1.3038   -0.8231 H   0  0  0  0  0  0  0  0  0  0  0  0
   -2.7767   -1.2764    0.9459 H   0  0  0  0  0  0  0  0  0  0  0  0
   -0.1602   -0.6872    0.0425 C   0  0  0  0  0  0  0  0  0  0  0  0
   -1.3821    0.8546    0.8417 H   0  0  0  0  0  0  0  0  0  0  0  0
   -1.3699    0.8381   -0.9358 H   0  0  0  0  0  0  0  0  0  0  0  0
   -0.2307   -1.2052    0.8864 H   0  0  0  0  0  0  0  0  0  0  0  0
    0.7509   -0.0830    0.1263 H   0  0  0  0  0  0  0  0  0  0  0  0
   -0.0877   -1.4295   -0.8331 H   0  0  0  0  0  0  0  0  0  0  0  0
  1  3  1  0  0  0  0
  1  5  1  0  0  0  0
  2  1  1  0  0  0  0
  2  8  1  0  0  0  0
  4  1  1  0  0  0  0
  6  2  1  0  0  0  0
  6  9  1  0  0  0  0
  6 10  1  0  0  0  0
  7  2  1  0  0  0  0
  9 13  1  0  0  0  0
  9 12  1  0  0  0  0
 11  6  1  0  0  0  0
 14  9  1  0  0  0  0
M  END
$$$$
