butane_opt
 OpenBabel08242015403D

 14 13  0  0  0  0  0  0  0  0999 V2000
   -3.9459    0.2515    0.0418 C   0  0  0  0  0  0  0  0  0  0  0  0
   -2.7011   -0.6033    0.0263 C   0  0  0  0  0  0  0  0  0  0  0  0
   -4.8890   -0.3601    0.0930 H   0  0  0  0  0  0  0  0  0  0  0  0
   -3.9721    0.8506   -0.8503 H   0  0  0  0  0  0  0  0  0  0  0  0
   -3.9437    0.9451    0.9347 H   0  0  0  0  0  0  0  0  0  0  0  0
   -1.4030    0.2006   -0.0329 C   0  0  0  0  0  0  0  0  0  0  0  0
   -2.7879   -1.3281   -0.8611 H   0  0  0  0  0  0  0  0  0  0  0  0
   -2.6805   -1.1976    0.8854 H   0  0  0  0  0  0  0  0  0  0  0  0
   -0.1562   -0.7031    0.0577 C   0  0  0  0  0  0  0  0  0  0  0  0
   -1.4065    0.8239    0.8048 H   0  0  0  0  0  0  0  0  0  0  0  0
   -1.4013    0.9068   -0.9726 H   0  0  0  0  0  0  0  0  0  0  0  0
   -0.1851   -1.2680    0.9437 H   0  0  0  0  0  0  0  0  0  0  0  0
    0.7219   -0.1285    0.1872 H   0  0  0  0  0  0  0  0  0  0  0  0
   -0.0014   -1.4745   -0.8434 H   0  0  0  0  0  0  0  0  0  0  0  0
  1  3  1  0  0  0  0
  1  5  1  0  0  0  0
  2  1  1  0  0  0  0
  2  8  1  0  0  0  0
  4  1  1  0  0  0  0
  6  2  1  0  0  0  0
  6  9  1  0  0  0  0
  6 10  1  0  0  0  0
  7  2  1  0  0  0  0
  9 13  1  0  0  0  0
  9 12  1  0  0  0  0
 11  6  1  0  0  0  0
 14  9  1  0  0  0  0
M  END
$$$$
