14
butane_opt
C  -3.955220   0.260520   0.002198
C  -2.701141  -0.609909   0.045339
H  -4.893496  -0.358913   0.035921
H  -3.950085   0.851717  -0.884955
H  -3.996889   0.924378   0.853363
C  -1.406115   0.188930   0.031690
H  -2.753373  -1.288411  -0.809167
H  -2.715096  -1.215126   0.918370
C  -0.145173  -0.694791   0.029320
H  -1.374926   0.890390   0.927688
H  -1.397883   0.829080  -0.872643
H  -0.022128  -1.377496   0.937475
H   0.747228  -0.153049  -0.128520
H  -0.174743  -1.315344  -0.834104
