butane_opt
 OpenBabel08242015403D

 14 13  0  0  0  0  0  0  0  0999 V2000
   -3.9530    0.2601    0.0513 C   0  0  0  0  0  0  0  0  0  0  0  0
   -2.7054   -0.6254    0.0262 C   0  0  0  0  0  0  0  0  0  0  0  0
   -4.8791   -0.3306   -0.0441 H   0  0  0  0  0  0  0  0  0  0  0  0
   -3.9154    0.7913   -0.8051 H   0  0  0  0  0  0  0  0  0  0  0  0
   -3.9946    1.0438    0.9650 H   0  0  0  0  0  0  0  0  0  0  0  0
   -1.4008    0.1978   -0.0341 C   0  0  0  0  0  0  0  0  0  0  0  0
   -2.7252   -1.3491   -0.8757 H   0  0  0  0  0  0  0  0  0  0  0  0
   -2.7124   -1.1925    0.8833 H   0  0  0  0  0  0  0  0  0  0  0  0
   -0.1493   -0.6927    0.0597 C   0  0  0  0  0  0  0  0  0  0  0  0
   -1.4053    0.8626    0.7932 H   0  0  0  0  0  0  0  0  0  0  0  0
   -1.4044    0.8802   -0.9791 H   0  0  0  0  0  0  0  0  0  0  0  0
   -0.1201   -1.3764    0.9952 H   0  0  0  0  0  0  0  0  0  0  0  0
    0.7126   -0.1331    0.0659 H   0  0  0  0  0  0  0  0  0  0  0  0
   -0.0784   -1.3567   -0.7732 H   0  0  0  0  0  0  0  0  0  0  0  0
  1  5  1  0  0  0  0
  2  1  1  0  0  0  0
  2  8  1  0  0  0  0
  3  1  1  0  0  0  0
  4  1  1  0  0  0  0
  6  2  1  0  0  0  0
  6  9  1  0  0  0  0
  6 10  1  0  0  0  0
  7  2  1  0  0  0  0
  9 13  1  0  0  0  0
  9 12  1  0  0  0  0
 11  6  1  0  0  0  0
 14  9  1  0  0  0  0
M  END
$$$$
