butane_opt
 OpenBabel08242015403D

 14 13  0  0  0  0  0  0  0  0999 V2000
   -3.9411    0.2578    0.0396 C   0  0  0  0  0  0  0  0  0  0  0  0
   -2.7153   -0.6049    0.0129 C   0  0  0  0  0  0  0  0  0  0  0  0
   -4.8630   -0.3450    0.0434 H   0  0  0  0  0  0  0  0  0  0  0  0
   -3.9702    0.8208   -0.8434 H   0  0  0  0  0  0  0  0  0  0  0  0
   -3.9853    0.9945    0.9222 H   0  0  0  0  0  0  0  0  0  0  0  0
   -1.4086    0.2019   -0.0032 C   0  0  0  0  0  0  0  0  0  0  0  0
   -2.7823   -1.3990   -0.9123 H   0  0  0  0  0  0  0  0  0  0  0  0
   -2.7298   -1.1853    0.8640 H   0  0  0  0  0  0  0  0  0  0  0  0
   -0.1440   -0.7046    0.0536 C   0  0  0  0  0  0  0  0  0  0  0  0
   -1.3702    0.8574    0.8422 H   0  0  0  0  0  0  0  0  0  0  0  0
   -1.3731    0.8295   -0.9007 H   0  0  0  0  0  0  0  0  0  0  0  0
   -0.0677   -1.4701    1.0472 H   0  0  0  0  0  0  0  0  0  0  0  0
    0.7783   -0.1370   -0.1155 H   0  0  0  0  0  0  0  0  0  0  0  0
   -0.1495   -1.2312   -0.7163 H   0  0  0  0  0  0  0  0  0  0  0  0
  1  3  1  0  0  0  0
  1  5  1  0  0  0  0
  2  1  1  0  0  0  0
  2  8  1  0  0  0  0
  4  1  1  0  0  0  0
  6  2  1  0  0  0  0
  6  9  1  0  0  0  0
  6 10  1  0  0  0  0
  7  2  1  0  0  0  0
  9 12  1  0  0  0  0
 11  6  1  0  0  0  0
 13  9  1  0  0  0  0
 14  9  1  0  0  0  0
M  END
$$$$
