butane_opt
 OpenBabel08242015403D

 14 13  0  0  0  0  0  0  0  0999 V2000
   -3.9430    0.2552   -0.0129 C   0  0  0  0  0  0  0  0  0  0  0  0
   -2.7066   -0.6074    0.0618 C   0  0  0  0  0  0  0  0  0  0  0  0
   -4.8705   -0.3467   -0.0435 H   0  0  0  0  0  0  0  0  0  0  0  0
   -3.9329    0.8858   -0.9015 H   0  0  0  0  0  0  0  0  0  0  0  0
   -3.9644    0.9082    0.8071 H   0  0  0  0  0  0  0  0  0  0  0  0
   -1.4022    0.1920    0.0546 C   0  0  0  0  0  0  0  0  0  0  0  0
   -2.6939   -1.2497   -0.7564 H   0  0  0  0  0  0  0  0  0  0  0  0
   -2.7492   -1.2800    0.9778 H   0  0  0  0  0  0  0  0  0  0  0  0
   -0.1611   -0.6983   -0.0031 C   0  0  0  0  0  0  0  0  0  0  0  0
   -1.3384    0.9416    0.9721 H   0  0  0  0  0  0  0  0  0  0  0  0
   -1.4748    0.8090   -0.7943 H   0  0  0  0  0  0  0  0  0  0  0  0
   -0.0198   -1.3813    0.9297 H   0  0  0  0  0  0  0  0  0  0  0  0
    0.7112   -0.1496   -0.1327 H   0  0  0  0  0  0  0  0  0  0  0  0
   -0.1392   -1.3141   -0.8214 H   0  0  0  0  0  0  0  0  0  0  0  0
  1  2  1  0  0  0  0
  1  5  1  0  0  0  0
  2  8  1  0  0  0  0
  3  1  1  0  0  0  0
  4  1  1  0  0  0  0
  6  2  1  0  0  0  0
  6 10  1  0  0  0  0
  7  2  1  0  0  0  0
  9  6  1  0  0  0  0
  9 12  1  0  0  0  0
 11  6  1  0  0  0  0
 13  9  1  0  0  0  0
 14  9  1  0  0  0  0
M  END
$$$$
