14
butane_opt
C  -3.934728   0.253994   0.029071
C  -2.710449  -0.594516   0.020243
H  -4.858603  -0.366813   0.037454
H  -3.978340   0.864639  -0.849413
H  -3.891912   0.900979   0.865689
C  -1.416802   0.192569   0.015641
H  -2.760868  -1.329305  -0.891911
H  -2.703826  -1.181050   0.893002
C  -0.153667  -0.709468   0.043460
H  -1.398903   0.855790   0.861702
H  -1.369671   0.870945  -0.898380
H  -0.074726  -1.417190   0.979169
H   0.756564  -0.103231  -0.075792
H  -0.153580  -1.281069  -0.779765
