14
butane_opt
C  -3.949917   0.272643   0.011352
C  -2.698404  -0.633078   0.032254
H  -4.844185  -0.292675   0.131646
H  -4.032511   0.983773  -0.945874
H  -3.949067   0.871484   0.799423
C  -1.401098   0.175891   0.031667
H  -2.702082  -1.257159  -0.768318
H  -2.770504  -1.265867   0.918935
C  -0.162336  -0.684965   0.020137
H  -1.389797   0.890129   0.911986
H  -1.363881   0.776245  -0.828628
H  -0.070423  -1.302749   0.902038
H   0.775398  -0.075347   0.022783
H  -0.149109  -1.357128  -0.854661
