14
butane_opt
C  -3.943624   0.257421   0.056601
C  -2.718721  -0.601997  -0.003267
H  -4.862292  -0.356767   0.164973
H  -4.029545   0.965718  -0.908379
H  -3.913077   0.879211   0.889457
C  -1.400407   0.185991  -0.016334
H  -2.748150  -1.378425  -0.915305
H  -2.746885  -1.172789   0.839165
C  -0.137991  -0.699512   0.057537
H  -1.418629   0.845728   0.839514
H  -1.393550   0.856507  -0.920005
H  -0.154216  -1.349135   1.011922
H   0.756700  -0.140945   0.076195
H  -0.099687  -1.321537  -0.769482
