14
butane_opt
C  -3.947594   0.266995   0.006730
C  -2.696542  -0.617987   0.057841
H  -4.831495  -0.298713  -0.066050
H  -3.873079   0.822472  -0.864133
H  -4.024319   0.986004   0.885701
C  -1.399642   0.178354   0.023973
H  -2.649815  -1.257931  -0.771711
H  -2.717837  -1.273951   0.960144
C  -0.167958  -0.691811   0.017788
H  -1.417032   0.839045   0.873115
H  -1.401812   0.810849  -0.877304
H  -0.128785  -1.299200   0.890213
H   0.784137  -0.062317  -0.034771
H  -0.227813  -1.356508  -0.821495
