butane_opt
 OpenBabel08242015403D

 14 13  0  0  0  0  0  0  0  0999 V2000
   -3.9407    0.2567    0.0272 C   0  0  0  0  0  0  0  0  0  0  0  0
   -2.6912   -0.6006    0.0255 C   0  0  0  0  0  0  0  0  0  0  0  0
   -4.8788   -0.3679    0.0704 H   0  0  0  0  0  0  0  0  0  0  0  0
   -3.9225    0.8517   -0.8433 H   0  0  0  0  0  0  0  0  0  0  0  0
   -3.9422    0.8995    0.8896 H   0  0  0  0  0  0  0  0  0  0  0  0
   -1.4061    0.1958    0.0055 C   0  0  0  0  0  0  0  0  0  0  0  0
   -2.6923   -1.3359   -0.8888 H   0  0  0  0  0  0  0  0  0  0  0  0
   -2.7182   -1.1736    0.8818 H   0  0  0  0  0  0  0  0  0  0  0  0
   -0.1717   -0.7051    0.0411 C   0  0  0  0  0  0  0  0  0  0  0  0
   -1.4024    0.8641    0.8395 H   0  0  0  0  0  0  0  0  0  0  0  0
   -1.4328    0.8045   -0.8612 H   0  0  0  0  0  0  0  0  0  0  0  0
   -0.1068   -1.3925    0.9984 H   0  0  0  0  0  0  0  0  0  0  0  0
    0.7316   -0.1149   -0.0669 H   0  0  0  0  0  0  0  0  0  0  0  0
   -0.1393   -1.2711   -0.7557 H   0  0  0  0  0  0  0  0  0  0  0  0
  1  3  1  0  0  0  0
  1  5  1  0  0  0  0
  2  1  1  0  0  0  0
  2  8  1  0  0  0  0
  4  1  1  0  0  0  0
  6  2  1  0  0  0  0
  6  9  1  0  0  0  0
  6 10  1  0  0  0  0
  7  2  1  0  0  0  0
  9 12  1  0  0  0  0
 11  6  1  0  0  0  0
 13  9  1  0  0  0  0
 14  9  1  0  0  0  0
M  END
$$$$
