butane_opt
 OpenBabel08242015403D

 14 13  0  0  0  0  0  0  0  0999 V2000
   -3.9444    0.2739   -0.0123 C   0  0  0  0  0  0  0  0  0  0  0  0
   -2.6901   -0.6235    0.0756 C   0  0  0  0  0  0  0  0  0  0  0  0
   -4.8595   -0.3393   -0.0570 H   0  0  0  0  0  0  0  0  0  0  0  0
   -3.9181    0.8695   -0.9320 H   0  0  0  0  0  0  0  0  0  0  0  0
   -4.0319    0.9915    0.8657 H   0  0  0  0  0  0  0  0  0  0  0  0
   -1.3967    0.1745    0.0425 C   0  0  0  0  0  0  0  0  0  0  0  0
   -2.7055   -1.2752   -0.7359 H   0  0  0  0  0  0  0  0  0  0  0  0
   -2.7559   -1.2696    0.9905 H   0  0  0  0  0  0  0  0  0  0  0  0
   -0.1678   -0.6918    0.0041 C   0  0  0  0  0  0  0  0  0  0  0  0
   -1.4138    0.8717    0.8901 H   0  0  0  0  0  0  0  0  0  0  0  0
   -1.3914    0.7883   -0.8297 H   0  0  0  0  0  0  0  0  0  0  0  0
   -0.1252   -1.2814    0.8654 H   0  0  0  0  0  0  0  0  0  0  0  0
    0.7876   -0.0496   -0.0784 H   0  0  0  0  0  0  0  0  0  0  0  0
   -0.2213   -1.3686   -0.8604 H   0  0  0  0  0  0  0  0  0  0  0  0
  1  2  1  0  0  0  0
  1  5  1  0  0  0  0
  2  8  1  0  0  0  0
  3  1  1  0  0  0  0
  4  1  1  0  0  0  0
  6  2  1  0  0  0  0
  6 10  1  0  0  0  0
  7  2  1  0  0  0  0
  9  6  1  0  0  0  0
  9 12  1  0  0  0  0
 11  6  1  0  0  0  0
 13  9  1  0  0  0  0
 14  9  1  0  0  0  0
M  END
$$$$
