butane_opt
 OpenBabel08242015403D

 14 13  0  0  0  0  0  0  0  0999 V2000
   -3.9358    0.2813    0.0433 C   0  0  0  0  0  0  0  0  0  0  0  0
   -2.6903   -0.6337    0.0256 C   0  0  0  0  0  0  0  0  0  0  0  0
   -4.8733   -0.3181   -0.0548 H   0  0  0  0  0  0  0  0  0  0  0  0
   -3.9443    0.7915   -0.7812 H   0  0  0  0  0  0  0  0  0  0  0  0
   -3.9994    1.0543    0.9576 H   0  0  0  0  0  0  0  0  0  0  0  0
   -1.3997    0.1684   -0.0352 C   0  0  0  0  0  0  0  0  0  0  0  0
   -2.7067   -1.3302   -0.8394 H   0  0  0  0  0  0  0  0  0  0  0  0
   -2.6726   -1.2804    0.9534 H   0  0  0  0  0  0  0  0  0  0  0  0
   -0.1805   -0.6811    0.0571 C   0  0  0  0  0  0  0  0  0  0  0  0
   -1.4128    0.8735    0.8218 H   0  0  0  0  0  0  0  0  0  0  0  0
   -1.3620    0.8093   -0.9336 H   0  0  0  0  0  0  0  0  0  0  0  0
   -0.1710   -1.3131    0.9516 H   0  0  0  0  0  0  0  0  0  0  0  0
    0.7365   -0.0907    0.0739 H   0  0  0  0  0  0  0  0  0  0  0  0
   -0.1441   -1.2914   -0.7842 H   0  0  0  0  0  0  0  0  0  0  0  0
  1  5  1  0  0  0  0
  2  1  1  0  0  0  0
  2  8  1  0  0  0  0
  3  1  1  0  0  0  0
  4  1  1  0  0  0  0
  6  2  1  0  0  0  0
  6  9  1  0  0  0  0
  6 10  1  0  0  0  0
  7  2  1  0  0  0  0
  9 13  1  0  0  0  0
  9 12  1  0  0  0  0
 11  6  1  0  0  0  0
 14  9  1  0  0  0  0
M  END
$$$$
