butane_opt
 OpenBabel08242015403D

 14 13  0  0  0  0  0  0  0  0999 V2000
   -3.9500    0.2719    0.0594 C   0  0  0  0  0  0  0  0  0  0  0  0
   -2.6833   -0.6275   -0.0092 C   0  0  0  0  0  0  0  0  0  0  0  0
   -4.8672   -0.3533    0.0940 H   0  0  0  0  0  0  0  0  0  0  0  0
   -4.0496    0.9276   -0.8785 H   0  0  0  0  0  0  0  0  0  0  0  0
   -3.9085    0.9324    0.9191 H   0  0  0  0  0  0  0  0  0  0  0  0
   -1.4028    0.1854   -0.0198 C   0  0  0  0  0  0  0  0  0  0  0  0
   -2.7511   -1.3489   -0.8689 H   0  0  0  0  0  0  0  0  0  0  0  0
   -2.6758   -1.2441    0.8633 H   0  0  0  0  0  0  0  0  0  0  0  0
   -0.1717   -0.6908    0.0692 C   0  0  0  0  0  0  0  0  0  0  0  0
   -1.4085    0.8350    0.8139 H   0  0  0  0  0  0  0  0  0  0  0  0
   -1.3431    0.8598   -0.9504 H   0  0  0  0  0  0  0  0  0  0  0  0
   -0.1577   -1.3199    0.9574 H   0  0  0  0  0  0  0  0  0  0  0  0
    0.7483   -0.0736    0.0591 H   0  0  0  0  0  0  0  0  0  0  0  0
   -0.1176   -1.3468   -0.7705 H   0  0  0  0  0  0  0  0  0  0  0  0
  1  3  1  0  0  0  0
  1  5  1  0  0  0  0
  2  1  1  0  0  0  0
  2  8  1  0  0  0  0
  4  1  1  0  0  0  0
  6  2  1  0  0  0  0
  6  9  1  0  0  0  0
  6 10  1  0  0  0  0
  7  2  1  0  0  0  0
  9 12  1  0  0  0  0
 11  6  1  0  0  0  0
 13  9  1  0  0  0  0
 14  9  1  0  0  0  0
M  END
$$$$
