butane_opt
 OpenBabel08242015403D

 14 13  0  0  0  0  0  0  0  0999 V2000
   -3.9482    0.2727    0.0379 C   0  0  0  0  0  0  0  0  0  0  0  0
   -2.6944   -0.6316    0.0291 C   0  0  0  0  0  0  0  0  0  0  0  0
   -4.8261   -0.2968    0.0060 H   0  0  0  0  0  0  0  0  0  0  0  0
   -4.0072    0.8617   -0.8338 H   0  0  0  0  0  0  0  0  0  0  0  0
   -3.9405    0.9802    0.9280 H   0  0  0  0  0  0  0  0  0  0  0  0
   -1.4061    0.1760   -0.0251 C   0  0  0  0  0  0  0  0  0  0  0  0
   -2.7223   -1.3204   -0.8397 H   0  0  0  0  0  0  0  0  0  0  0  0
   -2.6171   -1.2695    0.9230 H   0  0  0  0  0  0  0  0  0  0  0  0
   -0.1722   -0.6784    0.0553 C   0  0  0  0  0  0  0  0  0  0  0  0
   -1.3937    0.8121    0.8194 H   0  0  0  0  0  0  0  0  0  0  0  0
   -1.3378    0.8626   -0.9535 H   0  0  0  0  0  0  0  0  0  0  0  0
   -0.1785   -1.2581    0.9320 H   0  0  0  0  0  0  0  0  0  0  0  0
    0.7307   -0.0608    0.1283 H   0  0  0  0  0  0  0  0  0  0  0  0
   -0.0897   -1.4453   -0.8494 H   0  0  0  0  0  0  0  0  0  0  0  0
  1  5  1  0  0  0  0
  2  1  1  0  0  0  0
  2  8  1  0  0  0  0
  3  1  1  0  0  0  0
  4  1  1  0  0  0  0
  6  2  1  0  0  0  0
  6  9  1  0  0  0  0
  6 10  1  0  0  0  0
  7  2  1  0  0  0  0
  9 13  1  0  0  0  0
  9 12  1  0  0  0  0
 11  6  1  0  0  0  0
 14  9  1  0  0  0  0
M  END
$$$$
