14
butane_opt
C  -3.953227   0.271350  -0.005997
C  -2.686905  -0.619827   0.058554
H  -4.878126  -0.341131   0.057595
H  -3.984737   0.959287  -0.943856
H  -3.914137   0.858821   0.816198
C  -1.404821   0.176795   0.034776
H  -2.698971  -1.268542  -0.779796
H  -2.730501  -1.276807   0.956494
C  -0.163430  -0.690866   0.009366
H  -1.324365   0.923992   0.942243
H  -1.463378   0.759333  -0.812733
H  -0.147608  -1.297197   0.925734
H   0.774445  -0.060846   0.000957
H  -0.162626  -1.376339  -0.891873
