butane_opt
 OpenBabel08242015403D

 14 13  0  0  0  0  0  0  0  0999 V2000
   -3.9432    0.2676   -0.0197 C   0  0  0  0  0  0  0  0  0  0  0  0
   -2.6951   -0.6356    0.0887 C   0  0  0  0  0  0  0  0  0  0  0  0
   -4.8193   -0.3034   -0.0673 H   0  0  0  0  0  0  0  0  0  0  0  0
   -3.9488    0.9002   -0.9169 H   0  0  0  0  0  0  0  0  0  0  0  0
   -4.0595    1.0111    0.8680 H   0  0  0  0  0  0  0  0  0  0  0  0
   -1.4031    0.1811    0.0438 C   0  0  0  0  0  0  0  0  0  0  0  0
   -2.6435   -1.3136   -0.7677 H   0  0  0  0  0  0  0  0  0  0  0  0
   -2.7218   -1.2615    0.9997 H   0  0  0  0  0  0  0  0  0  0  0  0
   -0.1634   -0.6848   -0.0036 C   0  0  0  0  0  0  0  0  0  0  0  0
   -1.3596    0.8865    0.9054 H   0  0  0  0  0  0  0  0  0  0  0  0
   -1.4147    0.7989   -0.8514 H   0  0  0  0  0  0  0  0  0  0  0  0
   -0.1649   -1.2690    0.8862 H   0  0  0  0  0  0  0  0  0  0  0  0
    0.7710   -0.0882   -0.0695 H   0  0  0  0  0  0  0  0  0  0  0  0
   -0.1988   -1.3721   -0.8570 H   0  0  0  0  0  0  0  0  0  0  0  0
  1  2  1  0  0  0  0
  1  5  1  0  0  0  0
  2  8  1  0  0  0  0
  3  1  1  0  0  0  0
  4  1  1  0  0  0  0
  6  2  1  0  0  0  0
  6 10  1  0  0  0  0
  7  2  1  0  0  0  0
  9  6  1  0  0  0  0
  9 12  1  0  0  0  0
 11  6  1  0  0  0  0
 13  9  1  0  0  0  0
 14  9  1  0  0  0  0
M  END
$$$$
