14
butane_opt
C  -3.947398   0.268027   0.038401
C  -2.704667  -0.627370   0.008012
H  -4.885564  -0.347210   0.075920
H  -4.007213   0.833879  -0.815989
H  -3.968359   0.968141   0.936939
C  -1.398994   0.196761  -0.022121
H  -2.741491  -1.276520  -0.811832
H  -2.688141  -1.289218   0.941039
C  -0.156772  -0.692296   0.060039
H  -1.399475   0.884161   0.817707
H  -1.388970   0.874869  -0.928434
H  -0.143268  -1.302455   0.959940
H   0.758306  -0.133672   0.088040
H  -0.064304  -1.433678  -0.835628
