14
butane_opt
C  -3.943939   0.274809   0.029522
C  -2.686071  -0.626022   0.016649
H  -4.830537  -0.306586   0.019890
H  -3.949008   0.885901  -0.843035
H  -3.960482   0.957069   0.900334
C  -1.403026   0.170021   0.014518
H  -2.668765  -1.368668  -0.877326
H  -2.707077  -1.249734   0.905499
C  -0.179838  -0.674264   0.044537
H  -1.425168   0.827059   0.880778
H  -1.385614   0.802791  -0.881009
H  -0.102904  -1.395361   0.991778
H   0.736858  -0.101812  -0.156328
H  -0.188961  -1.240933  -0.755099
