butane_opt
 OpenBabel08242015403D

 14 13  0  0  0  0  0  0  0  0999 V2000
   -3.9471    0.2779   -0.0017 C   0  0  0  0  0  0  0  0  0  0  0  0
   -2.6837   -0.6259    0.0599 C   0  0  0  0  0  0  0  0  0  0  0  0
   -4.8661   -0.3272    0.0287 H   0  0  0  0  0  0  0  0  0  0  0  0
   -3.9522    0.9271   -0.9403 H   0  0  0  0  0  0  0  0  0  0  0  0
   -3.9757    0.9229    0.8229 H   0  0  0  0  0  0  0  0  0  0  0  0
   -1.3975    0.1737    0.0268 C   0  0  0  0  0  0  0  0  0  0  0  0
   -2.7148   -1.2216   -0.7471 H   0  0  0  0  0  0  0  0  0  0  0  0
   -2.7239   -1.3595    1.0366 H   0  0  0  0  0  0  0  0  0  0  0  0
   -0.1799   -0.6848    0.0143 C   0  0  0  0  0  0  0  0  0  0  0  0
   -1.3638    0.8544    0.9066 H   0  0  0  0  0  0  0  0  0  0  0  0
   -1.3909    0.7758   -0.8455 H   0  0  0  0  0  0  0  0  0  0  0  0
   -0.1932   -1.1751    0.8322 H   0  0  0  0  0  0  0  0  0  0  0  0
    0.7877   -0.0705    0.0753 H   0  0  0  0  0  0  0  0  0  0  0  0
   -0.1382   -1.4824   -0.9426 H   0  0  0  0  0  0  0  0  0  0  0  0
  1  3  1  0  0  0  0
  1  2  1  0  0  0  0
  1  5  1  0  0  0  0
  2  8  1  0  0  0  0
  4  1  1  0  0  0  0
  6  2  1  0  0  0  0
  6 10  1  0  0  0  0
  7  2  1  0  0  0  0
  9  6  1  0  0  0  0
  9 13  1  0  0  0  0
  9 12  1  0  0  0  0
 11  6  1  0  0  0  0
 14  9  1  0  0  0  0
M  END
$$$$
