butane_opt
 OpenBabel08242015403D

 14 13  0  0  0  0  0  0  0  0999 V2000
   -3.9572    0.2726    0.0308 C   0  0  0  0  0  0  0  0  0  0  0  0
   -2.6976   -0.6369    0.0217 C   0  0  0  0  0  0  0  0  0  0  0  0
   -4.8419   -0.2695   -0.0145 H   0  0  0  0  0  0  0  0  0  0  0  0
   -3.9936    0.8579   -0.8356 H   0  0  0  0  0  0  0  0  0  0  0  0
   -4.0029    0.9972    0.9143 H   0  0  0  0  0  0  0  0  0  0  0  0
   -1.3894    0.1793    0.0126 C   0  0  0  0  0  0  0  0  0  0  0  0
   -2.7319   -1.3439   -0.8410 H   0  0  0  0  0  0  0  0  0  0  0  0
   -2.6809   -1.1846    0.8613 H   0  0  0  0  0  0  0  0  0  0  0  0
   -0.1689   -0.6877    0.0373 C   0  0  0  0  0  0  0  0  0  0  0  0
   -1.3525    0.8367    0.8412 H   0  0  0  0  0  0  0  0  0  0  0  0
   -1.3464    0.8359   -0.8921 H   0  0  0  0  0  0  0  0  0  0  0  0
   -0.1237   -1.4096    1.0076 H   0  0  0  0  0  0  0  0  0  0  0  0
    0.7435   -0.0762   -0.1114 H   0  0  0  0  0  0  0  0  0  0  0  0
   -0.1388   -1.2399   -0.7091 H   0  0  0  0  0  0  0  0  0  0  0  0
  1  5  1  0  0  0  0
  2  1  1  0  0  0  0
  2  8  1  0  0  0  0
  3  1  1  0  0  0  0
  4  1  1  0  0  0  0
  6  2  1  0  0  0  0
  6  9  1  0  0  0  0
  6 10  1  0  0  0  0
  7  2  1  0  0  0  0
  9 12  1  0  0  0  0
 11  6  1  0  0  0  0
 13  9  1  0  0  0  0
 14  9  1  0  0  0  0
M  END
$$$$
