butane_opt
 OpenBabel08242015403D

 14 13  0  0  0  0  0  0  0  0999 V2000
   -3.9583    0.2764    0.0516 C   0  0  0  0  0  0  0  0  0  0  0  0
   -2.6972   -0.6383    0.0108 C   0  0  0  0  0  0  0  0  0  0  0  0
   -4.8649   -0.3183    0.0485 H   0  0  0  0  0  0  0  0  0  0  0  0
   -4.0208    0.8648   -0.8315 H   0  0  0  0  0  0  0  0  0  0  0  0
   -3.9682    0.9963    0.9772 H   0  0  0  0  0  0  0  0  0  0  0  0
   -1.4033    0.1857   -0.0393 C   0  0  0  0  0  0  0  0  0  0  0  0
   -2.7425   -1.3402   -0.8429 H   0  0  0  0  0  0  0  0  0  0  0  0
   -2.6662   -1.2638    0.9188 H   0  0  0  0  0  0  0  0  0  0  0  0
   -0.1574   -0.6892    0.0568 C   0  0  0  0  0  0  0  0  0  0  0  0
   -1.3647    0.8530    0.7978 H   0  0  0  0  0  0  0  0  0  0  0  0
   -1.3263    0.8427   -0.9516 H   0  0  0  0  0  0  0  0  0  0  0  0
   -0.2083   -1.2864    0.9476 H   0  0  0  0  0  0  0  0  0  0  0  0
    0.7564   -0.0813    0.1974 H   0  0  0  0  0  0  0  0  0  0  0  0
   -0.0244   -1.3521   -0.7760 H   0  0  0  0  0  0  0  0  0  0  0  0
  1  5  1  0  0  0  0
  2  1  1  0  0  0  0
  2  8  1  0  0  0  0
  3  1  1  0  0  0  0
  4  1  1  0  0  0  0
  6  2  1  0  0  0  0
  6  9  1  0  0  0  0
  6 10  1  0  0  0  0
  7  2  1  0  0  0  0
  9 13  1  0  0  0  0
  9 12  1  0  0  0  0
 11  6  1  0  0  0  0
 14  9  1  0  0  0  0
M  END
$$$$
