14
butane_opt
C  -3.953204   0.266954   0.046802
C  -2.695558  -0.623409   0.023325
H  -4.826651  -0.289547  -0.077504
H  -3.957242   0.793617  -0.821401
H  -4.002633   1.028721   0.966792
C  -1.393909   0.184777  -0.020711
H  -2.760059  -1.301036  -0.828138
H  -2.754564  -1.257164   0.899728
C  -0.158647  -0.695981   0.059851
H  -1.416095   0.814448   0.809167
H  -1.354735   0.888255  -0.966582
H  -0.150174  -1.283614   0.930085
H   0.741769  -0.104549   0.014095
H  -0.130143  -1.345365  -0.791948
