14
butane_opt
C  -3.942392   0.276063  -0.008799
C  -2.706859  -0.633682   0.072124
H  -4.837737  -0.300310  -0.015896
H  -3.999315   0.890139  -0.905135
H  -4.016038   0.871519   0.836448
C  -1.399234   0.187896   0.039331
H  -2.734111  -1.317294  -0.799858
H  -2.716946  -1.227365   0.924389
C  -0.152227  -0.690635   0.006941
H  -1.378684   0.885389   0.891907
H  -1.437365   0.812785  -0.828988
H  -0.094125  -1.318015   0.908855
H   0.760679  -0.096396  -0.044884
H  -0.165080  -1.345728  -0.847623
