14
butane_opt
C  -3.948431   0.279830  -0.004516
C  -2.699973  -0.639199   0.068569
H  -4.819215  -0.268732  -0.052324
H  -3.971748   0.877446  -0.901943
H  -4.094012   0.912387   0.841556
C  -1.402064   0.178351   0.039738
H  -2.714648  -1.275377  -0.759097
H  -2.748353  -1.275739   0.988196
C  -0.152183  -0.678717   0.008525
H  -1.339093   0.820610   0.869602
H  -1.404530   0.810080  -0.875148
H  -0.074550  -1.257679   0.865206
H   0.762283  -0.082231   0.023624
H  -0.195303  -1.410647  -0.907282
