butane_opt
 OpenBabel08242015403D

 14 13  0  0  0  0  0  0  0  0999 V2000
   -3.9555    0.2707    0.0388 C   0  0  0  0  0  0  0  0  0  0  0  0
   -2.6985   -0.6233   -0.0087 C   0  0  0  0  0  0  0  0  0  0  0  0
   -4.8638   -0.3190    0.1767 H   0  0  0  0  0  0  0  0  0  0  0  0
   -4.0596    0.8854   -0.8417 H   0  0  0  0  0  0  0  0  0  0  0  0
   -3.8954    0.9498    0.9318 H   0  0  0  0  0  0  0  0  0  0  0  0
   -1.3946    0.1768   -0.0109 C   0  0  0  0  0  0  0  0  0  0  0  0
   -2.7555   -1.2874   -0.8747 H   0  0  0  0  0  0  0  0  0  0  0  0
   -2.7228   -1.2345    0.8756 H   0  0  0  0  0  0  0  0  0  0  0  0
   -0.1507   -0.6915    0.0630 C   0  0  0  0  0  0  0  0  0  0  0  0
   -1.3843    0.8817    0.8628 H   0  0  0  0  0  0  0  0  0  0  0  0
   -1.3876    0.8381   -0.9252 H   0  0  0  0  0  0  0  0  0  0  0  0
   -0.1806   -1.3658    1.0230 H   0  0  0  0  0  0  0  0  0  0  0  0
    0.7971   -0.0906   -0.0033 H   0  0  0  0  0  0  0  0  0  0  0  0
   -0.1788   -1.3196   -0.7630 H   0  0  0  0  0  0  0  0  0  0  0  0
  1  3  1  0  0  0  0
  1  5  1  0  0  0  0
  2  1  1  0  0  0  0
  2  8  1  0  0  0  0
  4  1  1  0  0  0  0
  6  2  1  0  0  0  0
  6  9  1  0  0  0  0
  6 10  1  0  0  0  0
  7  2  1  0  0  0  0
  9 12  1  0  0  0  0
 11  6  1  0  0  0  0
 13  9  1  0  0  0  0
 14  9  1  0  0  0  0
M  END
$$$$
