14
butane_opt
C  -3.931073   0.259721   0.036273
C  -2.699628  -0.617130   0.020383
H  -4.830700  -0.331330   0.053408
H  -4.001637   0.833068  -0.834390
H  -3.949784   0.958954   0.919217
C  -1.410411   0.190722  -0.018564
H  -2.736571  -1.248110  -0.820756
H  -2.636590  -1.283234   0.947349
C  -0.168966  -0.699747   0.055033
H  -1.429976   0.896022   0.827730
H  -1.375240   0.860544  -0.960776
H  -0.226825  -1.241478   0.909061
H   0.764174  -0.112630   0.110591
H  -0.072375  -1.413854  -0.838785
