butane_opt
 OpenBabel08242015403D

 14 13  0  0  0  0  0  0  0  0999 V2000
   -3.9594    0.2781    0.0458 C   0  0  0  0  0  0  0  0  0  0  0  0
   -2.6908   -0.6396    0.0083 C   0  0  0  0  0  0  0  0  0  0  0  0
   -4.8559   -0.2925   -0.0100 H   0  0  0  0  0  0  0  0  0  0  0  0
   -3.9523    0.8836   -0.8499 H   0  0  0  0  0  0  0  0  0  0  0  0
   -3.9949    0.9901    0.9647 H   0  0  0  0  0  0  0  0  0  0  0  0
   -1.3992    0.1731   -0.0069 C   0  0  0  0  0  0  0  0  0  0  0  0
   -2.7401   -1.3692   -0.8906 H   0  0  0  0  0  0  0  0  0  0  0  0
   -2.7105   -1.1795    0.8500 H   0  0  0  0  0  0  0  0  0  0  0  0
   -0.1567   -0.6808    0.0590 C   0  0  0  0  0  0  0  0  0  0  0  0
   -1.4092    0.8737    0.8445 H   0  0  0  0  0  0  0  0  0  0  0  0
   -1.3724    0.7766   -0.9018 H   0  0  0  0  0  0  0  0  0  0  0  0
   -0.1089   -1.4390    1.0452 H   0  0  0  0  0  0  0  0  0  0  0  0
    0.7898   -0.0669   -0.1656 H   0  0  0  0  0  0  0  0  0  0  0  0
   -0.2070   -1.2045   -0.7050 H   0  0  0  0  0  0  0  0  0  0  0  0
  1  5  1  0  0  0  0
  2  1  1  0  0  0  0
  2  8  1  0  0  0  0
  3  1  1  0  0  0  0
  4  1  1  0  0  0  0
  6  2  1  0  0  0  0
  6  9  1  0  0  0  0
  6 10  1  0  0  0  0
  7  2  1  0  0  0  0
  9 12  1  0  0  0  0
 11  6  1  0  0  0  0
 13  9  1  0  0  0  0
 14  9  1  0  0  0  0
M  END
$$$$
