14
butane_opt
C  -3.947827   0.264076   0.002255
C  -2.702021  -0.617972   0.071078
H  -4.900960  -0.352553   0.025613
H  -4.001129   0.911550  -0.925388
H  -3.965533   0.896398   0.846056
C  -1.404009   0.193365   0.017768
H  -2.717896  -1.271952  -0.802474
H  -2.704107  -1.233119   0.951455
C  -0.155747  -0.704549   0.016295
H  -1.321958   0.870560   0.873268
H  -1.381281   0.856348  -0.906220
H  -0.183226  -1.228166   0.855573
H   0.765095  -0.085099   0.135553
H  -0.086953  -1.468755  -0.915762
