butane_opt
 OpenBabel08242015403D

 14 13  0  0  0  0  0  0  0  0999 V2000
   -3.9456    0.2445    0.0437 C   0  0  0  0  0  0  0  0  0  0  0  0
   -2.7099   -0.6047    0.0041 C   0  0  0  0  0  0  0  0  0  0  0  0
   -4.8326   -0.3220   -0.0105 H   0  0  0  0  0  0  0  0  0  0  0  0
   -3.9631    0.8210   -0.8054 H   0  0  0  0  0  0  0  0  0  0  0  0
   -3.9978    0.9780    0.9172 H   0  0  0  0  0  0  0  0  0  0  0  0
   -1.4077    0.2093   -0.0018 C   0  0  0  0  0  0  0  0  0  0  0  0
   -2.7632   -1.3408   -0.8835 H   0  0  0  0  0  0  0  0  0  0  0  0
   -2.6830   -1.1956    0.8858 H   0  0  0  0  0  0  0  0  0  0  0  0
   -0.1491   -0.7065    0.0556 C   0  0  0  0  0  0  0  0  0  0  0  0
   -1.3993    0.8815    0.8464 H   0  0  0  0  0  0  0  0  0  0  0  0
   -1.4142    0.8645   -0.9002 H   0  0  0  0  0  0  0  0  0  0  0  0
   -0.0682   -1.4723    1.0550 H   0  0  0  0  0  0  0  0  0  0  0  0
    0.7661   -0.1199   -0.1506 H   0  0  0  0  0  0  0  0  0  0  0  0
   -0.1186   -1.2763   -0.7211 H   0  0  0  0  0  0  0  0  0  0  0  0
  1  5  1  0  0  0  0
  2  1  1  0  0  0  0
  2  8  1  0  0  0  0
  3  1  1  0  0  0  0
  4  1  1  0  0  0  0
  6  2  1  0  0  0  0
  6  9  1  0  0  0  0
  6 10  1  0  0  0  0
  7  2  1  0  0  0  0
  9 12  1  0  0  0  0
 11  6  1  0  0  0  0
 13  9  1  0  0  0  0
 14  9  1  0  0  0  0
M  END
$$$$
