butane_opt
 OpenBabel08242015403D

 14 13  0  0  0  0  0  0  0  0999 V2000
   -3.9384    0.2508    0.0453 C   0  0  0  0  0  0  0  0  0  0  0  0
   -2.7048   -0.5920    0.0192 C   0  0  0  0  0  0  0  0  0  0  0  0
   -4.8638   -0.3632    0.0369 H   0  0  0  0  0  0  0  0  0  0  0  0
   -3.9274    0.7883   -0.8000 H   0  0  0  0  0  0  0  0  0  0  0  0
   -3.8987    0.9744    0.9324 H   0  0  0  0  0  0  0  0  0  0  0  0
   -1.4041    0.1887   -0.0277 C   0  0  0  0  0  0  0  0  0  0  0  0
   -2.7613   -1.2941   -0.8843 H   0  0  0  0  0  0  0  0  0  0  0  0
   -2.6657   -1.1881    0.8929 H   0  0  0  0  0  0  0  0  0  0  0  0
   -0.1666   -0.7072    0.0668 C   0  0  0  0  0  0  0  0  0  0  0  0
   -1.4356    0.8423    0.7872 H   0  0  0  0  0  0  0  0  0  0  0  0
   -1.3812    0.9001   -0.9877 H   0  0  0  0  0  0  0  0  0  0  0  0
   -0.1642   -1.2975    0.9497 H   0  0  0  0  0  0  0  0  0  0  0  0
    0.7279   -0.1199    0.0646 H   0  0  0  0  0  0  0  0  0  0  0  0
   -0.0831   -1.4083   -0.7919 H   0  0  0  0  0  0  0  0  0  0  0  0
  1  5  1  0  0  0  0
  2  1  1  0  0  0  0
  2  8  1  0  0  0  0
  3  1  1  0  0  0  0
  4  1  1  0  0  0  0
  6  2  1  0  0  0  0
  6  9  1  0  0  0  0
  6 10  1  0  0  0  0
  7  2  1  0  0  0  0
  9 12  1  0  0  0  0
 11  6  1  0  0  0  0
 13  9  1  0  0  0  0
 14  9  1  0  0  0  0
M  END
$$$$
