butane_opt
 OpenBabel08242015403D

 14 13  0  0  0  0  0  0  0  0999 V2000
   -3.9368    0.2480   -0.0153 C   0  0  0  0  0  0  0  0  0  0  0  0
   -2.7011   -0.5902    0.0920 C   0  0  0  0  0  0  0  0  0  0  0  0
   -4.8577   -0.3682   -0.1388 H   0  0  0  0  0  0  0  0  0  0  0  0
   -3.8625    0.7935   -0.8739 H   0  0  0  0  0  0  0  0  0  0  0  0
   -4.0217    0.9681    0.8512 H   0  0  0  0  0  0  0  0  0  0  0  0
   -1.4189    0.1933    0.0378 C   0  0  0  0  0  0  0  0  0  0  0  0
   -2.6971   -1.2447   -0.7364 H   0  0  0  0  0  0  0  0  0  0  0  0
   -2.7413   -1.2235    0.9964 H   0  0  0  0  0  0  0  0  0  0  0  0
   -0.1524   -0.7039   -0.0036 C   0  0  0  0  0  0  0  0  0  0  0  0
   -1.3848    0.8553    0.8666 H   0  0  0  0  0  0  0  0  0  0  0  0
   -1.4117    0.8277   -0.8340 H   0  0  0  0  0  0  0  0  0  0  0  0
   -0.0850   -1.3173    0.8916 H   0  0  0  0  0  0  0  0  0  0  0  0
    0.7604   -0.1185   -0.0181 H   0  0  0  0  0  0  0  0  0  0  0  0
   -0.2033   -1.4231   -0.8932 H   0  0  0  0  0  0  0  0  0  0  0  0
  1  2  1  0  0  0  0
  1  5  1  0  0  0  0
  2  8  1  0  0  0  0
  3  1  1  0  0  0  0
  4  1  1  0  0  0  0
  6  2  1  0  0  0  0
  6 10  1  0  0  0  0
  7  2  1  0  0  0  0
  9  6  1  0  0  0  0
  9 12  1  0  0  0  0
 11  6  1  0  0  0  0
 13  9  1  0  0  0  0
 14  9  1  0  0  0  0
M  END
$$$$
