14
butane_opt
C  -3.947602   0.266551   0.052091
C  -2.688934  -0.609857   0.007318
H  -4.859365  -0.333747   0.097079
H  -4.035476   0.870303  -0.837989
H  -3.871866   0.955642   0.928250
C  -1.402003   0.175389  -0.031149
H  -2.749376  -1.315115  -0.885662
H  -2.676490  -1.216301   0.860917
C  -0.174317  -0.688759   0.070039
H  -1.399589   0.772143   0.751556
H  -1.346730   0.846118  -0.936104
H  -0.196238  -1.275675   0.959004
H   0.766915  -0.091348   0.133087
H  -0.102602  -1.400310  -0.812913
