butane_opt
 OpenBabel08242015403D

 14 13  0  0  0  0  0  0  0  0999 V2000
   -3.9501    0.2601    0.0031 C   0  0  0  0  0  0  0  0  0  0  0  0
   -2.7015   -0.6150    0.0570 C   0  0  0  0  0  0  0  0  0  0  0  0
   -4.8685   -0.3441    0.0222 H   0  0  0  0  0  0  0  0  0  0  0  0
   -3.9929    0.8636   -0.8668 H   0  0  0  0  0  0  0  0  0  0  0  0
   -3.9275    0.9355    0.8609 H   0  0  0  0  0  0  0  0  0  0  0  0
   -1.4052    0.1902    0.0143 C   0  0  0  0  0  0  0  0  0  0  0  0
   -2.7372   -1.2519   -0.7678 H   0  0  0  0  0  0  0  0  0  0  0  0
   -2.7200   -1.2926    0.9750 H   0  0  0  0  0  0  0  0  0  0  0  0
   -0.1556   -0.6941    0.0230 C   0  0  0  0  0  0  0  0  0  0  0  0
   -1.3842    0.8935    0.8686 H   0  0  0  0  0  0  0  0  0  0  0  0
   -1.4037    0.8532   -0.9124 H   0  0  0  0  0  0  0  0  0  0  0  0
   -0.1063   -1.2497    0.8708 H   0  0  0  0  0  0  0  0  0  0  0  0
    0.7126   -0.1350    0.1179 H   0  0  0  0  0  0  0  0  0  0  0  0
   -0.0518   -1.4483   -0.9049 H   0  0  0  0  0  0  0  0  0  0  0  0
  1  3  1  0  0  0  0
  1  2  1  0  0  0  0
  1  5  1  0  0  0  0
  2  8  1  0  0  0  0
  4  1  1  0  0  0  0
  6  9  1  0  0  0  0
  6  2  1  0  0  0  0
  6 10  1  0  0  0  0
  7  2  1  0  0  0  0
  9 13  1  0  0  0  0
  9 12  1  0  0  0  0
 11  6  1  0  0  0  0
 14  9  1  0  0  0  0
M  END
$$$$
