butane_opt
 OpenBabel08242015403D

 14 13  0  0  0  0  0  0  0  0999 V2000
   -3.9343    0.2512    0.0225 C   0  0  0  0  0  0  0  0  0  0  0  0
   -2.7062   -0.5846    0.0205 C   0  0  0  0  0  0  0  0  0  0  0  0
   -4.8598   -0.3781    0.0315 H   0  0  0  0  0  0  0  0  0  0  0  0
   -3.9469    0.8158   -0.8311 H   0  0  0  0  0  0  0  0  0  0  0  0
   -3.9500    0.9703    0.9470 H   0  0  0  0  0  0  0  0  0  0  0  0
   -1.4068    0.1921    0.0104 C   0  0  0  0  0  0  0  0  0  0  0  0
   -2.7160   -1.3150   -0.8678 H   0  0  0  0  0  0  0  0  0  0  0  0
   -2.7407   -1.2323    0.8973 H   0  0  0  0  0  0  0  0  0  0  0  0
   -0.1644   -0.7113    0.0464 C   0  0  0  0  0  0  0  0  0  0  0  0
   -1.3891    0.8579    0.8551 H   0  0  0  0  0  0  0  0  0  0  0  0
   -1.4047    0.8405   -0.8915 H   0  0  0  0  0  0  0  0  0  0  0  0
   -0.0707   -1.4103    1.0111 H   0  0  0  0  0  0  0  0  0  0  0  0
    0.7797   -0.1028   -0.1306 H   0  0  0  0  0  0  0  0  0  0  0  0
   -0.1807   -1.2809   -0.7600 H   0  0  0  0  0  0  0  0  0  0  0  0
  1  3  1  0  0  0  0
  1  5  1  0  0  0  0
  2  1  1  0  0  0  0
  2  8  1  0  0  0  0
  4  1  1  0  0  0  0
  6  2  1  0  0  0  0
  6  9  1  0  0  0  0
  6 10  1  0  0  0  0
  7  2  1  0  0  0  0
  9 12  1  0  0  0  0
 11  6  1  0  0  0  0
 13  9  1  0  0  0  0
 14  9  1  0  0  0  0
M  END
$$$$
