butane_opt
 OpenBabel08242015403D

 14 13  0  0  0  0  0  0  0  0999 V2000
   -3.9321    0.2510   -0.0134 C   0  0  0  0  0  0  0  0  0  0  0  0
   -2.7026   -0.6091    0.0637 C   0  0  0  0  0  0  0  0  0  0  0  0
   -4.8371   -0.3087    0.0053 H   0  0  0  0  0  0  0  0  0  0  0  0
   -3.9305    0.8586   -0.9228 H   0  0  0  0  0  0  0  0  0  0  0  0
   -3.9379    0.9217    0.8232 H   0  0  0  0  0  0  0  0  0  0  0  0
   -1.4151    0.1987    0.0574 C   0  0  0  0  0  0  0  0  0  0  0  0
   -2.6907   -1.3080   -0.7865 H   0  0  0  0  0  0  0  0  0  0  0  0
   -2.7092   -1.1888    0.9277 H   0  0  0  0  0  0  0  0  0  0  0  0
   -0.1649   -0.7067    0.0079 C   0  0  0  0  0  0  0  0  0  0  0  0
   -1.3862    0.8893    0.9291 H   0  0  0  0  0  0  0  0  0  0  0  0
   -1.4296    0.8324   -0.8520 H   0  0  0  0  0  0  0  0  0  0  0  0
   -0.0573   -1.3664    0.9250 H   0  0  0  0  0  0  0  0  0  0  0  0
    0.7477   -0.1100   -0.1787 H   0  0  0  0  0  0  0  0  0  0  0  0
   -0.2174   -1.2978   -0.8149 H   0  0  0  0  0  0  0  0  0  0  0  0
  1  3  1  0  0  0  0
  1  2  1  0  0  0  0
  1  5  1  0  0  0  0
  2  8  1  0  0  0  0
  4  1  1  0  0  0  0
  6  2  1  0  0  0  0
  6 10  1  0  0  0  0
  7  2  1  0  0  0  0
  9  6  1  0  0  0  0
  9 12  1  0  0  0  0
 11  6  1  0  0  0  0
 13  9  1  0  0  0  0
 14  9  1  0  0  0  0
M  END
$$$$
