butane_opt
 OpenBabel08242015403D

 14 13  0  0  0  0  0  0  0  0999 V2000
   -3.9341    0.2588    0.0074 C   0  0  0  0  0  0  0  0  0  0  0  0
   -2.6982   -0.6082    0.0601 C   0  0  0  0  0  0  0  0  0  0  0  0
   -4.8615   -0.3769   -0.0476 H   0  0  0  0  0  0  0  0  0  0  0  0
   -3.8666    0.7975   -0.8709 H   0  0  0  0  0  0  0  0  0  0  0  0
   -4.0157    0.9639    0.8803 H   0  0  0  0  0  0  0  0  0  0  0  0
   -1.4024    0.2050    0.0102 C   0  0  0  0  0  0  0  0  0  0  0  0
   -2.6998   -1.2411   -0.7575 H   0  0  0  0  0  0  0  0  0  0  0  0
   -2.7366   -1.2575    0.9665 H   0  0  0  0  0  0  0  0  0  0  0  0
   -0.1774   -0.7042    0.0203 C   0  0  0  0  0  0  0  0  0  0  0  0
   -1.4091    0.9008    0.8942 H   0  0  0  0  0  0  0  0  0  0  0  0
   -1.4165    0.7836   -0.8419 H   0  0  0  0  0  0  0  0  0  0  0  0
   -0.0958   -1.3512    0.9329 H   0  0  0  0  0  0  0  0  0  0  0  0
    0.7370   -0.1184   -0.0167 H   0  0  0  0  0  0  0  0  0  0  0  0
   -0.1161   -1.3926   -0.8676 H   0  0  0  0  0  0  0  0  0  0  0  0
  1  2  1  0  0  0  0
  1  5  1  0  0  0  0
  2  8  1  0  0  0  0
  3  1  1  0  0  0  0
  4  1  1  0  0  0  0
  6  9  1  0  0  0  0
  6  2  1  0  0  0  0
  6 10  1  0  0  0  0
  7  2  1  0  0  0  0
  9 12  1  0  0  0  0
 11  6  1  0  0  0  0
 13  9  1  0  0  0  0
 14  9  1  0  0  0  0
M  END
$$$$
