butane_opt
 OpenBabel08242015403D

 14 13  0  0  0  0  0  0  0  0999 V2000
   -3.9345    0.2721   -0.0095 C   0  0  0  0  0  0  0  0  0  0  0  0
   -2.6874   -0.6320    0.0643 C   0  0  0  0  0  0  0  0  0  0  0  0
   -4.8508   -0.3005    0.0946 H   0  0  0  0  0  0  0  0  0  0  0  0
   -4.0144    1.0006   -0.9587 H   0  0  0  0  0  0  0  0  0  0  0  0
   -3.9922    0.8551    0.7918 H   0  0  0  0  0  0  0  0  0  0  0  0
   -1.4098    0.1671    0.0474 C   0  0  0  0  0  0  0  0  0  0  0  0
   -2.6583   -1.3308   -0.8001 H   0  0  0  0  0  0  0  0  0  0  0  0
   -2.7001   -1.2210    0.9599 H   0  0  0  0  0  0  0  0  0  0  0  0
   -0.1768   -0.6765   -0.0019 C   0  0  0  0  0  0  0  0  0  0  0  0
   -1.3478    0.8841    0.9330 H   0  0  0  0  0  0  0  0  0  0  0  0
   -1.3949    0.8108   -0.8436 H   0  0  0  0  0  0  0  0  0  0  0  0
   -0.1416   -1.2909    0.8987 H   0  0  0  0  0  0  0  0  0  0  0  0
    0.7471   -0.0835    0.0404 H   0  0  0  0  0  0  0  0  0  0  0  0
   -0.1676   -1.3670   -0.8903 H   0  0  0  0  0  0  0  0  0  0  0  0
  1  2  1  0  0  0  0
  1  3  1  0  0  0  0
  1  5  1  0  0  0  0
  2  8  1  0  0  0  0
  4  1  1  0  0  0  0
  6  2  1  0  0  0  0
  6 10  1  0  0  0  0
  7  2  1  0  0  0  0
  9 13  1  0  0  0  0
  9  6  1  0  0  0  0
  9 12  1  0  0  0  0
 11  6  1  0  0  0  0
 14  9  1  0  0  0  0
M  END
$$$$
