14
butane_opt
C  -3.953339   0.255480   0.041775
C  -2.702796  -0.617696   0.015627
H  -4.832032  -0.332762   0.072923
H  -4.007163   0.854988  -0.839805
H  -3.919480   0.967069   0.950286
C  -1.401192   0.205613  -0.028235
H  -2.675044  -1.274846  -0.809355
H  -2.720655  -1.259713   0.913788
C  -0.157199  -0.705075   0.052241
H  -1.404483   0.827741   0.812103
H  -1.377112   0.858734  -0.928157
H  -0.173624  -1.250765   0.910861
H   0.727721  -0.130399   0.183261
H  -0.061232  -1.391458  -0.798805
