butane_opt
 OpenBabel08242015403D

 14 13  0  0  0  0  0  0  0  0999 V2000
   -3.9511    0.2672    0.0498 C   0  0  0  0  0  0  0  0  0  0  0  0
   -2.7035   -0.6139   -0.0012 C   0  0  0  0  0  0  0  0  0  0  0  0
   -4.8429   -0.2978    0.0116 H   0  0  0  0  0  0  0  0  0  0  0  0
   -3.9829    0.8411   -0.8410 H   0  0  0  0  0  0  0  0  0  0  0  0
   -3.9309    0.9695    0.9492 H   0  0  0  0  0  0  0  0  0  0  0  0
   -1.4048    0.1752   -0.0096 C   0  0  0  0  0  0  0  0  0  0  0  0
   -2.7262   -1.3343   -0.8873 H   0  0  0  0  0  0  0  0  0  0  0  0
   -2.6713   -1.2434    0.9114 H   0  0  0  0  0  0  0  0  0  0  0  0
   -0.1556   -0.6872    0.0589 C   0  0  0  0  0  0  0  0  0  0  0  0
   -1.4425    0.8553    0.8350 H   0  0  0  0  0  0  0  0  0  0  0  0
   -1.3382    0.7994   -0.9121 H   0  0  0  0  0  0  0  0  0  0  0  0
   -0.1358   -1.4161    1.0065 H   0  0  0  0  0  0  0  0  0  0  0  0
    0.7748   -0.0844   -0.0700 H   0  0  0  0  0  0  0  0  0  0  0  0
   -0.1541   -1.2453   -0.7326 H   0  0  0  0  0  0  0  0  0  0  0  0
  1  5  1  0  0  0  0
  2  1  1  0  0  0  0
  2  8  1  0  0  0  0
  3  1  1  0  0  0  0
  4  1  1  0  0  0  0
  6  2  1  0  0  0  0
  6  9  1  0  0  0  0
  6 10  1  0  0  0  0
  7  2  1  0  0  0  0
  9 12  1  0  0  0  0
 11  6  1  0  0  0  0
 13  9  1  0  0  0  0
 14  9  1  0  0  0  0
M  END
$$$$
