butane_opt
 OpenBabel08242015403D

 14 13  0  0  0  0  0  0  0  0999 V2000
   -3.9434    0.2630    0.0195 C   0  0  0  0  0  0  0  0  0  0  0  0
   -2.7029   -0.6168    0.0244 C   0  0  0  0  0  0  0  0  0  0  0  0
   -4.8841   -0.3483    0.1548 H   0  0  0  0  0  0  0  0  0  0  0  0
   -4.0015    0.9431   -0.9281 H   0  0  0  0  0  0  0  0  0  0  0  0
   -3.9303    0.8011    0.7974 H   0  0  0  0  0  0  0  0  0  0  0  0
   -1.4127    0.2061    0.0236 C   0  0  0  0  0  0  0  0  0  0  0  0
   -2.7344   -1.3029   -0.8249 H   0  0  0  0  0  0  0  0  0  0  0  0
   -2.7221   -1.2436    0.9345 H   0  0  0  0  0  0  0  0  0  0  0  0
   -0.1492   -0.7033    0.0379 C   0  0  0  0  0  0  0  0  0  0  0  0
   -1.3923    0.8530    0.8773 H   0  0  0  0  0  0  0  0  0  0  0  0
   -1.3870    0.8509   -0.8883 H   0  0  0  0  0  0  0  0  0  0  0  0
   -0.0914   -1.2478    0.8966 H   0  0  0  0  0  0  0  0  0  0  0  0
    0.7285   -0.1268    0.0184 H   0  0  0  0  0  0  0  0  0  0  0  0
   -0.1095   -1.4428   -0.8811 H   0  0  0  0  0  0  0  0  0  0  0  0
  1  2  1  0  0  0  0
  1  3  1  0  0  0  0
  1  5  1  0  0  0  0
  2  8  1  0  0  0  0
  4  1  1  0  0  0  0
  6  2  1  0  0  0  0
  6  9  1  0  0  0  0
  6 10  1  0  0  0  0
  7  2  1  0  0  0  0
  9 12  1  0  0  0  0
 11  6  1  0  0  0  0
 13  9  1  0  0  0  0
 14  9  1  0  0  0  0
M  END
$$$$
