butane_opt
 OpenBabel08242015403D

 14 13  0  0  0  0  0  0  0  0999 V2000
   -3.9533    0.2545    0.0475 C   0  0  0  0  0  0  0  0  0  0  0  0
   -2.7133   -0.6021   -0.0006 C   0  0  0  0  0  0  0  0  0  0  0  0
   -4.8312   -0.3092    0.0208 H   0  0  0  0  0  0  0  0  0  0  0  0
   -3.9655    0.7969   -0.8129 H   0  0  0  0  0  0  0  0  0  0  0  0
   -3.9628    0.9552    0.9212 H   0  0  0  0  0  0  0  0  0  0  0  0
   -1.4045    0.1940    0.0003 C   0  0  0  0  0  0  0  0  0  0  0  0
   -2.7316   -1.3211   -0.8881 H   0  0  0  0  0  0  0  0  0  0  0  0
   -2.7462   -1.1590    0.8670 H   0  0  0  0  0  0  0  0  0  0  0  0
   -0.1415   -0.7067    0.0599 C   0  0  0  0  0  0  0  0  0  0  0  0
   -1.4096    0.8207    0.8120 H   0  0  0  0  0  0  0  0  0  0  0  0
   -1.3651    0.8571   -0.9268 H   0  0  0  0  0  0  0  0  0  0  0  0
   -0.0371   -1.4543    1.0164 H   0  0  0  0  0  0  0  0  0  0  0  0
    0.7670   -0.0906   -0.1009 H   0  0  0  0  0  0  0  0  0  0  0  0
   -0.1917   -1.2394   -0.7278 H   0  0  0  0  0  0  0  0  0  0  0  0
  1  5  1  0  0  0  0
  2  6  1  0  0  0  0
  2  1  1  0  0  0  0
  2  8  1  0  0  0  0
  3  1  1  0  0  0  0
  4  1  1  0  0  0  0
  6  9  1  0  0  0  0
  6 10  1  0  0  0  0
  7  2  1  0  0  0  0
  9 12  1  0  0  0  0
 11  6  1  0  0  0  0
 13  9  1  0  0  0  0
 14  9  1  0  0  0  0
M  END
$$$$
