14
butane_opt
C  -3.915629   0.258214   0.056288
C  -2.711019  -0.607621   0.019370
H  -4.853810  -0.347307   0.061299
H  -3.968083   0.864618  -0.844388
H  -3.955959   0.893647   0.912532
C  -1.409328   0.191881  -0.040765
H  -2.754357  -1.314421  -0.858433
H  -2.693107  -1.164682   0.859592
C  -0.166001  -0.705083   0.067574
H  -1.433636   0.864142   0.775287
H  -1.392588   0.868394  -0.968850
H  -0.185235  -1.258724   0.925445
H   0.709599  -0.121684   0.178289
H  -0.065272  -1.419492  -0.833069
