butane_opt
 OpenBabel08242015403D

 14 13  0  0  0  0  0  0  0  0999 V2000
   -3.9345    0.2578    0.0401 C   0  0  0  0  0  0  0  0  0  0  0  0
   -2.7103   -0.5985    0.0424 C   0  0  0  0  0  0  0  0  0  0  0  0
   -4.8747   -0.3723   -0.1337 H   0  0  0  0  0  0  0  0  0  0  0  0
   -3.8372    0.7294   -0.7709 H   0  0  0  0  0  0  0  0  0  0  0  0
   -3.9709    1.0297    0.9697 H   0  0  0  0  0  0  0  0  0  0  0  0
   -1.4161    0.1962   -0.0258 C   0  0  0  0  0  0  0  0  0  0  0  0
   -2.7368   -1.3019   -0.8470 H   0  0  0  0  0  0  0  0  0  0  0  0
   -2.6934   -1.1925    0.8903 H   0  0  0  0  0  0  0  0  0  0  0  0
   -0.1608   -0.7063    0.0511 C   0  0  0  0  0  0  0  0  0  0  0  0
   -1.4093    0.8377    0.8106 H   0  0  0  0  0  0  0  0  0  0  0  0
   -1.3569    0.8486   -0.9560 H   0  0  0  0  0  0  0  0  0  0  0  0
   -0.1311   -1.3924    0.9827 H   0  0  0  0  0  0  0  0  0  0  0  0
    0.7708   -0.1287    0.0155 H   0  0  0  0  0  0  0  0  0  0  0  0
   -0.1256   -1.3237   -0.7953 H   0  0  0  0  0  0  0  0  0  0  0  0
  1  2  1  0  0  0  0
  1  5  1  0  0  0  0
  2  8  1  0  0  0  0
  3  1  1  0  0  0  0
  4  1  1  0  0  0  0
  6  2  1  0  0  0  0
  6  9  1  0  0  0  0
  6 10  1  0  0  0  0
  7  2  1  0  0  0  0
  9 12  1  0  0  0  0
 11  6  1  0  0  0  0
 13  9  1  0  0  0  0
 14  9  1  0  0  0  0
M  END
$$$$
