14
butane_opt
C  -3.948454   0.276630   0.004859
C  -2.699692  -0.630385   0.054286
H  -4.826887  -0.279203   0.037565
H  -4.038846   0.860106  -0.852115
H  -4.005558   0.937318   0.856338
C  -1.395815   0.178394   0.011856
H  -2.693747  -1.245794  -0.738312
H  -2.747495  -1.302560   0.987636
C  -0.162577  -0.685747   0.017208
H  -1.370622   0.846208   0.861302
H  -1.335727   0.795449  -0.893917
H  -0.225625  -1.214877   0.853985
H   0.772694  -0.076769   0.129858
H  -0.076610  -1.454965  -0.873740
