14
butane_opt
C  -3.944751   0.252601   0.051758
C  -2.713535  -0.611568   0.004325
H  -4.830697  -0.308566  -0.037913
H  -3.990983   0.810950  -0.801822
H  -3.980881   0.975747   0.913012
C  -1.403307   0.201048  -0.015188
H  -2.756219  -1.291175  -0.849407
H  -2.700885  -1.200661   0.883785
C  -0.144248  -0.699892   0.056262
H  -1.413324   0.885475   0.839848
H  -1.373394   0.804076  -0.902013
H  -0.102472  -1.443858   1.044350
H   0.733604  -0.144443  -0.072778
H  -0.133742  -1.270322  -0.732116
