14
butane_opt
C  -3.946066   0.254761   0.039333
C  -2.699665  -0.604161   0.015721
H  -4.866436  -0.334415   0.069672
H  -3.980960   0.841960  -0.830169
H  -3.979609   0.955430   0.951572
C  -1.414311   0.192817  -0.017281
H  -2.718436  -1.349024  -0.891659
H  -2.736077  -1.192819   0.874416
C  -0.146945  -0.703365   0.056673
H  -1.384843   0.863191   0.818949
H  -1.391827   0.832019  -0.905568
H  -0.135378  -1.382874   1.017333
H   0.776645  -0.079222  -0.015052
H  -0.117494  -1.307201  -0.766154
