14
butane_opt
C  -3.929011   0.251484   0.006352
C  -2.694072  -0.603971   0.050069
H  -4.874780  -0.369966   0.101897
H  -3.944523   0.939288  -0.908767
H  -3.962435   0.863838   0.822776
C  -1.415220   0.201453   0.015767
H  -2.706387  -1.270981  -0.794976
H  -2.678969  -1.269241   0.946353
C  -0.171807  -0.709248   0.019698
H  -1.396068   0.942315   0.919208
H  -1.380786   0.782790  -0.846546
H  -0.166268  -1.257273   0.886347
H   0.719968  -0.132760   0.046209
H  -0.098727  -1.385721  -0.849276
