14
butane_opt
C  -3.941156   0.275967   0.037061
C  -2.699180  -0.612530   0.037125
H  -4.864892  -0.330699   0.076626
H  -3.960376   0.864588  -0.857916
H  -3.925394   0.903990   0.867710
C  -1.405659   0.174983  -0.023196
H  -2.723650  -1.349976  -0.852710
H  -2.670103  -1.240700   0.903458
C  -0.175886  -0.692093   0.052774
H  -1.369221   0.846247   0.813120
H  -1.344466   0.830064  -0.954278
H  -0.238997  -1.221321   0.891463
H   0.778097  -0.069494   0.140436
H  -0.050729  -1.455063  -0.845186
