14
butane_opt
C  -3.940819   0.250181   0.024885
C  -2.701585  -0.594684   0.027381
H  -4.844623  -0.361909   0.075593
H  -3.923634   0.865174  -0.884833
H  -3.932236   0.923615   0.904589
C  -1.417207   0.188597   0.010029
H  -2.694995  -1.330491  -0.854560
H  -2.748735  -1.159647   0.875306
C  -0.151519  -0.705048   0.042499
H  -1.414218   0.864637   0.838171
H  -1.415534   0.830085  -0.891283
H  -0.083925  -1.353431   0.952567
H   0.742748  -0.111262  -0.076008
H  -0.170987  -1.303699  -0.743849
