14
butane_opt
C  -3.927384   0.258286  -0.010741
C  -2.697539  -0.609785   0.063842
H  -4.874393  -0.383586   0.033910
H  -3.877268   0.924319  -0.968888
H  -3.959090   0.864147   0.807879
C  -1.421350   0.200830   0.053310
H  -2.682194  -1.277621  -0.759580
H  -2.758928  -1.221777   0.956560
C  -0.169365  -0.707320   0.005100
H  -1.384821   0.910542   0.913738
H  -1.406206   0.798720  -0.804036
H  -0.017281  -1.305857   0.875985
H   0.725627  -0.111763  -0.112065
H  -0.199503  -1.375022  -0.846487
