butane_opt
 OpenBabel08242015403D

 14 13  0  0  0  0  0  0  0  0999 V2000
   -3.9509    0.2691    0.0341 C   0  0  0  0  0  0  0  0  0  0  0  0
   -2.6964   -0.6351    0.0124 C   0  0  0  0  0  0  0  0  0  0  0  0
   -4.8493   -0.3005    0.0408 H   0  0  0  0  0  0  0  0  0  0  0  0
   -4.0171    0.8787   -0.8452 H   0  0  0  0  0  0  0  0  0  0  0  0
   -3.9822    0.9831    0.9385 H   0  0  0  0  0  0  0  0  0  0  0  0
   -1.3949    0.1866    0.0021 C   0  0  0  0  0  0  0  0  0  0  0  0
   -2.7517   -1.3360   -0.8576 H   0  0  0  0  0  0  0  0  0  0  0  0
   -2.6942   -1.2118    0.8750 H   0  0  0  0  0  0  0  0  0  0  0  0
   -0.1644   -0.6905    0.0437 C   0  0  0  0  0  0  0  0  0  0  0  0
   -1.3925    0.8493    0.8742 H   0  0  0  0  0  0  0  0  0  0  0  0
   -1.4097    0.8612   -0.9218 H   0  0  0  0  0  0  0  0  0  0  0  0
   -0.1095   -1.4155    1.0041 H   0  0  0  0  0  0  0  0  0  0  0  0
    0.7907   -0.0756   -0.0167 H   0  0  0  0  0  0  0  0  0  0  0  0
   -0.1372   -1.2573   -0.7438 H   0  0  0  0  0  0  0  0  0  0  0  0
  1  3  1  0  0  0  0
  1  5  1  0  0  0  0
  2  1  1  0  0  0  0
  2  8  1  0  0  0  0
  4  1  1  0  0  0  0
  6  2  1  0  0  0  0
  6  9  1  0  0  0  0
  6 10  1  0  0  0  0
  7  2  1  0  0  0  0
  9 12  1  0  0  0  0
 11  6  1  0  0  0  0
 13  9  1  0  0  0  0
 14  9  1  0  0  0  0
M  END
$$$$
