butane_opt
 OpenBabel08242015403D

 14 13  0  0  0  0  0  0  0  0999 V2000
   -3.9529    0.2537    0.0304 C   0  0  0  0  0  0  0  0  0  0  0  0
   -2.6999   -0.6107    0.0177 C   0  0  0  0  0  0  0  0  0  0  0  0
   -4.8586   -0.3256    0.0682 H   0  0  0  0  0  0  0  0  0  0  0  0
   -3.9985    0.8674   -0.8801 H   0  0  0  0  0  0  0  0  0  0  0  0
   -3.9595    0.9180    0.9039 H   0  0  0  0  0  0  0  0  0  0  0  0
   -1.3995    0.1983    0.0100 C   0  0  0  0  0  0  0  0  0  0  0  0
   -2.7156   -1.3255   -0.8569 H   0  0  0  0  0  0  0  0  0  0  0  0
   -2.7462   -1.2004    0.8876 H   0  0  0  0  0  0  0  0  0  0  0  0
   -0.1529   -0.7019    0.0506 C   0  0  0  0  0  0  0  0  0  0  0  0
   -1.4235    0.8608    0.8229 H   0  0  0  0  0  0  0  0  0  0  0  0
   -1.3849    0.8549   -0.9003 H   0  0  0  0  0  0  0  0  0  0  0  0
   -0.0446   -1.3289    0.9533 H   0  0  0  0  0  0  0  0  0  0  0  0
    0.7064   -0.1427   -0.0914 H   0  0  0  0  0  0  0  0  0  0  0  0
   -0.1305   -1.3259   -0.7670 H   0  0  0  0  0  0  0  0  0  0  0  0
  1  3  1  0  0  0  0
  1  5  1  0  0  0  0
  2  1  1  0  0  0  0
  2  8  1  0  0  0  0
  4  1  1  0  0  0  0
  6  2  1  0  0  0  0
  6  9  1  0  0  0  0
  6 10  1  0  0  0  0
  7  2  1  0  0  0  0
  9 12  1  0  0  0  0
 11  6  1  0  0  0  0
 13  9  1  0  0  0  0
 14  9  1  0  0  0  0
M  END
$$$$
