14
butane_opt
C  -3.934573   0.263755   0.045314
C  -2.688530  -0.619531   0.019854
H  -4.870293  -0.345869   0.018591
H  -4.038592   0.834177  -0.820873
H  -3.932348   1.012734   0.974129
C  -1.403939   0.182814  -0.032919
H  -2.719937  -1.310441  -0.835434
H  -2.687829  -1.225715   0.870576
C  -0.172870  -0.687117   0.068084
H  -1.413068   0.781137   0.772667
H  -1.414237   0.882501  -0.969365
H  -0.187390  -1.269712   0.922529
H   0.736099  -0.118378   0.133974
H  -0.092592  -1.393938  -0.826611
