14
butane_opt
C  -3.950506   0.263395   0.023679
C  -2.697732  -0.626014   0.032078
H  -4.793179  -0.281533  -0.057472
H  -3.958521   0.783698  -0.808990
H  -4.021798   1.057884   0.975061
C  -1.396361   0.182877  -0.002807
H  -2.673077  -1.267037  -0.784978
H  -2.752506  -1.261592   0.944673
C  -0.164906  -0.688673   0.037140
H  -1.407832   0.834106   0.850386
H  -1.400376   0.829438  -0.897269
H  -0.146398  -1.338801   0.977588
H   0.758969  -0.098256  -0.033649
H  -0.120761  -1.302123  -0.790444
