butane_opt
 OpenBabel08242015403D

 14 13  0  0  0  0  0  0  0  0999 V2000
   -3.9531    0.2732    0.0408 C   0  0  0  0  0  0  0  0  0  0  0  0
   -2.7093   -0.6317   -0.0057 C   0  0  0  0  0  0  0  0  0  0  0  0
   -4.8164   -0.2814    0.1860 H   0  0  0  0  0  0  0  0  0  0  0  0
   -4.1040    0.9184   -0.8584 H   0  0  0  0  0  0  0  0  0  0  0  0
   -3.9019    0.8798    0.9084 H   0  0  0  0  0  0  0  0  0  0  0  0
   -1.3910    0.1891   -0.0061 C   0  0  0  0  0  0  0  0  0  0  0  0
   -2.7141   -1.3215   -0.8777 H   0  0  0  0  0  0  0  0  0  0  0  0
   -2.6883   -1.2553    0.8715 H   0  0  0  0  0  0  0  0  0  0  0  0
   -0.1562   -0.6917    0.0568 C   0  0  0  0  0  0  0  0  0  0  0  0
   -1.4074    0.8639    0.8471 H   0  0  0  0  0  0  0  0  0  0  0  0
   -1.3270    0.8343   -0.9209 H   0  0  0  0  0  0  0  0  0  0  0  0
   -0.1907   -1.3400    0.9843 H   0  0  0  0  0  0  0  0  0  0  0  0
    0.7487   -0.0938    0.0428 H   0  0  0  0  0  0  0  0  0  0  0  0
   -0.1081   -1.3350   -0.7789 H   0  0  0  0  0  0  0  0  0  0  0  0
  1  3  1  0  0  0  0
  1  5  1  0  0  0  0
  2  1  1  0  0  0  0
  2  8  1  0  0  0  0
  4  1  1  0  0  0  0
  6  2  1  0  0  0  0
  6  9  1  0  0  0  0
  6 10  1  0  0  0  0
  7  2  1  0  0  0  0
  9 12  1  0  0  0  0
 11  6  1  0  0  0  0
 13  9  1  0  0  0  0
 14  9  1  0  0  0  0
M  END
$$$$
