butane_opt
 OpenBabel08242015403D

 14 13  0  0  0  0  0  0  0  0999 V2000
   -3.9518    0.2750   -0.0115 C   0  0  0  0  0  0  0  0  0  0  0  0
   -2.7035   -0.6381    0.0786 C   0  0  0  0  0  0  0  0  0  0  0  0
   -4.8288   -0.2842   -0.1002 H   0  0  0  0  0  0  0  0  0  0  0  0
   -3.9445    0.8282   -0.8804 H   0  0  0  0  0  0  0  0  0  0  0  0
   -4.0601    1.0057    0.8712 H   0  0  0  0  0  0  0  0  0  0  0  0
   -1.3875    0.1887    0.0334 C   0  0  0  0  0  0  0  0  0  0  0  0
   -2.6731   -1.2460   -0.7181 H   0  0  0  0  0  0  0  0  0  0  0  0
   -2.7772   -1.3089    1.0063 H   0  0  0  0  0  0  0  0  0  0  0  0
   -0.1642   -0.6907    0.0031 C   0  0  0  0  0  0  0  0  0  0  0  0
   -1.3690    0.8897    0.8740 H   0  0  0  0  0  0  0  0  0  0  0  0
   -1.4206    0.7873   -0.8424 H   0  0  0  0  0  0  0  0  0  0  0  0
   -0.0729   -1.2987    0.8649 H   0  0  0  0  0  0  0  0  0  0  0  0
    0.7909   -0.0557   -0.0034 H   0  0  0  0  0  0  0  0  0  0  0  0
   -0.1941   -1.4023   -0.8662 H   0  0  0  0  0  0  0  0  0  0  0  0
  1  2  1  0  0  0  0
  1  5  1  0  0  0  0
  2  8  1  0  0  0  0
  3  1  1  0  0  0  0
  4  1  1  0  0  0  0
  6  2  1  0  0  0  0
  6 10  1  0  0  0  0
  7  2  1  0  0  0  0
  9  6  1  0  0  0  0
  9 12  1  0  0  0  0
 11  6  1  0  0  0  0
 13  9  1  0  0  0  0
 14  9  1  0  0  0  0
M  END
$$$$
