14
butane_opt
C  -3.949161   0.272980   0.025551
C  -2.704485  -0.631994   0.047052
H  -4.839792  -0.279923  -0.119697
H  -3.957340   0.762994  -0.793542
H  -4.087450   1.067604   0.976609
C  -1.395212   0.187319  -0.018214
H  -2.727472  -1.335821  -0.816310
H  -2.691160  -1.290742   0.967379
C  -0.155447  -0.690814   0.037951
H  -1.383989   0.883129   0.832937
H  -1.363230   0.809497  -0.897845
H  -0.148554  -1.352108   0.948917
H   0.781090  -0.088066   0.021897
H  -0.149874  -1.294534  -0.770906
