14
butane_opt
C  -3.923707   0.251547   0.025638
C  -2.704004  -0.603655   0.022632
H  -4.860525  -0.377254   0.006501
H  -3.986214   0.863553  -0.854364
H  -3.946411   0.949211   0.929350
C  -1.416914   0.204347   0.013100
H  -2.731072  -1.306792  -0.855630
H  -2.740501  -1.226379   0.908353
C  -0.159335  -0.714014   0.032261
H  -1.401250   0.927355   0.875540
H  -1.386804   0.833467  -0.866158
H  -0.130926  -1.432368   1.009269
H   0.761338  -0.131160  -0.088307
H  -0.138085  -1.235177  -0.738118
