14
butane_opt
C  -3.953747   0.260050   0.036725
C  -2.716315  -0.604834   0.010975
H  -4.877914  -0.343788   0.033521
H  -3.933188   0.859036  -0.839405
H  -3.917196   0.909888   0.901509
C  -1.405006   0.197777  -0.001205
H  -2.766413  -1.327222  -0.871066
H  -2.678977  -1.220773   0.893954
C  -0.143860  -0.705501   0.054192
H  -1.366195   0.906959   0.880772
H  -1.367065   0.808043  -0.912049
H  -0.092413  -1.410351   1.002688
H   0.734559  -0.125858  -0.104697
H  -0.133384  -1.297336  -0.751211
