14
butane_opt
C  -3.931931   0.273752   0.021930
C  -2.694450  -0.625739   0.044595
H  -4.849646  -0.335058  -0.061450
H  -3.924210   0.848034  -0.832861
H  -4.026680   0.986542   0.891242
C  -1.399413   0.181327   0.007220
H  -2.708339  -1.304912  -0.809832
H  -2.675955  -1.254471   0.931049
C  -0.184456  -0.686994   0.027971
H  -1.399118   0.871044   0.848438
H  -1.349528   0.794575  -0.867800
H  -0.177252  -1.357252   0.968282
H   0.751519  -0.089576  -0.046839
H  -0.140989  -1.340015  -0.801437
