14
butane_opt
C  -3.947819   0.270273   0.029857
C  -2.695517  -0.624491   0.031644
H  -4.854969  -0.290256  -0.011920
H  -4.032449   0.852772  -0.854271
H  -4.025034   0.942344   0.892502
C  -1.397632   0.182422   0.009604
H  -2.692394  -1.385459  -0.892316
H  -2.684134  -1.190649   0.852303
C  -0.163216  -0.685889   0.037402
H  -1.385014   0.849833   0.842429
H  -1.364633   0.788135  -0.855132
H  -0.089258  -1.421221   1.020489
H   0.747687  -0.102663  -0.126912
H  -0.187430  -1.216935  -0.715838
