14
butane_opt
C  -3.969294   0.280753   0.007434
C  -2.700676  -0.632323   0.048001
H  -4.866262  -0.309409   0.093963
H  -3.978397   0.948563  -0.957259
H  -3.952902   0.868708   0.826789
C  -1.397782   0.174184   0.036150
H  -2.703990  -1.330804  -0.833104
H  -2.689158  -1.256408   0.909572
C  -0.150593  -0.684943   0.018461
H  -1.318774   0.852445   0.906794
H  -1.390217   0.824490  -0.884608
H  -0.157581  -1.267463   0.895162
H   0.762169  -0.091689  -0.004234
H  -0.116845  -1.352938  -0.841702
