butane_opt
 OpenBabel08242015403D

 14 13  0  0  0  0  0  0  0  0999 V2000
   -3.9259    0.2643   -0.0083 C   0  0  0  0  0  0  0  0  0  0  0  0
   -2.7022   -0.6169    0.0630 C   0  0  0  0  0  0  0  0  0  0  0  0
   -4.8530   -0.3492    0.0231 H   0  0  0  0  0  0  0  0  0  0  0  0
   -3.8910    0.9041   -0.9528 H   0  0  0  0  0  0  0  0  0  0  0  0
   -4.0238    0.8719    0.7930 H   0  0  0  0  0  0  0  0  0  0  0  0
   -1.4175    0.1890    0.0534 C   0  0  0  0  0  0  0  0  0  0  0  0
   -2.6482   -1.2660   -0.7649 H   0  0  0  0  0  0  0  0  0  0  0  0
   -2.7271   -1.2488    0.9510 H   0  0  0  0  0  0  0  0  0  0  0  0
   -0.1647   -0.6991   -0.0019 C   0  0  0  0  0  0  0  0  0  0  0  0
   -1.3727    0.9593    0.9519 H   0  0  0  0  0  0  0  0  0  0  0  0
   -1.4254    0.7681   -0.8024 H   0  0  0  0  0  0  0  0  0  0  0  0
   -0.0750   -1.3445    0.9244 H   0  0  0  0  0  0  0  0  0  0  0  0
    0.7519   -0.1109   -0.1171 H   0  0  0  0  0  0  0  0  0  0  0  0
   -0.2309   -1.3073   -0.8335 H   0  0  0  0  0  0  0  0  0  0  0  0
  1  3  1  0  0  0  0
  1  2  1  0  0  0  0
  1  5  1  0  0  0  0
  2  8  1  0  0  0  0
  4  1  1  0  0  0  0
  6  2  1  0  0  0  0
  6 10  1  0  0  0  0
  7  2  1  0  0  0  0
  9  6  1  0  0  0  0
  9 12  1  0  0  0  0
 11  6  1  0  0  0  0
 13  9  1  0  0  0  0
 14  9  1  0  0  0  0
M  END
$$$$
