butane_opt
 OpenBabel08242015403D

 14 13  0  0  0  0  0  0  0  0999 V2000
   -3.9528    0.2614    0.0472 C   0  0  0  0  0  0  0  0  0  0  0  0
   -2.7066   -0.6037    0.0199 C   0  0  0  0  0  0  0  0  0  0  0  0
   -4.8656   -0.3485    0.0372 H   0  0  0  0  0  0  0  0  0  0  0  0
   -4.0125    0.8082   -0.8243 H   0  0  0  0  0  0  0  0  0  0  0  0
   -3.9150    0.9467    0.9349 H   0  0  0  0  0  0  0  0  0  0  0  0
   -1.3956    0.1895   -0.0296 C   0  0  0  0  0  0  0  0  0  0  0  0
   -2.7520   -1.2997   -0.8550 H   0  0  0  0  0  0  0  0  0  0  0  0
   -2.7232   -1.2053    0.8738 H   0  0  0  0  0  0  0  0  0  0  0  0
   -0.1572   -0.7041    0.0658 C   0  0  0  0  0  0  0  0  0  0  0  0
   -1.3901    0.8144    0.7942 H   0  0  0  0  0  0  0  0  0  0  0  0
   -1.3582    0.8983   -1.0010 H   0  0  0  0  0  0  0  0  0  0  0  0
   -0.1392   -1.2608    0.9352 H   0  0  0  0  0  0  0  0  0  0  0  0
    0.7432   -0.1206    0.1276 H   0  0  0  0  0  0  0  0  0  0  0  0
   -0.0653   -1.4245   -0.8220 H   0  0  0  0  0  0  0  0  0  0  0  0
  1  5  1  0  0  0  0
  2  1  1  0  0  0  0
  2  8  1  0  0  0  0
  3  1  1  0  0  0  0
  4  1  1  0  0  0  0
  6  2  1  0  0  0  0
  6  9  1  0  0  0  0
  6 10  1  0  0  0  0
  7  2  1  0  0  0  0
  9 13  1  0  0  0  0
  9 12  1  0  0  0  0
 11  6  1  0  0  0  0
 14  9  1  0  0  0  0
M  END
$$$$
