butane_opt
 OpenBabel08242015403D

 14 13  0  0  0  0  0  0  0  0999 V2000
   -3.9482    0.2489    0.0438 C   0  0  0  0  0  0  0  0  0  0  0  0
   -2.7049   -0.5986    0.0170 C   0  0  0  0  0  0  0  0  0  0  0  0
   -4.8608   -0.3567    0.0599 H   0  0  0  0  0  0  0  0  0  0  0  0
   -4.0123    0.8504   -0.8380 H   0  0  0  0  0  0  0  0  0  0  0  0
   -3.9224    0.9362    0.9198 H   0  0  0  0  0  0  0  0  0  0  0  0
   -1.4145    0.2023   -0.0348 C   0  0  0  0  0  0  0  0  0  0  0  0
   -2.7349   -1.2672   -0.8265 H   0  0  0  0  0  0  0  0  0  0  0  0
   -2.7148   -1.2532    0.9484 H   0  0  0  0  0  0  0  0  0  0  0  0
   -0.1379   -0.7085    0.0609 C   0  0  0  0  0  0  0  0  0  0  0  0
   -1.4362    0.8709    0.8179 H   0  0  0  0  0  0  0  0  0  0  0  0
   -1.3591    0.8434   -0.9293 H   0  0  0  0  0  0  0  0  0  0  0  0
   -0.1861   -1.2632    0.9503 H   0  0  0  0  0  0  0  0  0  0  0  0
    0.7835   -0.1014    0.1504 H   0  0  0  0  0  0  0  0  0  0  0  0
   -0.1042   -1.4690   -0.8664 H   0  0  0  0  0  0  0  0  0  0  0  0
  1  3  1  0  0  0  0
  1  5  1  0  0  0  0
  2  1  1  0  0  0  0
  2  8  1  0  0  0  0
  4  1  1  0  0  0  0
  6  2  1  0  0  0  0
  6  9  1  0  0  0  0
  6 10  1  0  0  0  0
  7  2  1  0  0  0  0
  9 13  1  0  0  0  0
  9 12  1  0  0  0  0
 11  6  1  0  0  0  0
 14  9  1  0  0  0  0
M  END
$$$$
