14
butane_opt
C  -3.950111   0.265522  -0.011607
C  -2.704017  -0.621503   0.090072
H  -4.849978  -0.310756  -0.066765
H  -3.889702   0.873597  -0.904647
H  -4.029972   0.956441   0.839423
C  -1.403686   0.182142   0.026033
H  -2.653694  -1.261149  -0.743216
H  -2.752112  -1.238715   0.993489
C  -0.160597  -0.687984  -0.003564
H  -1.308918   0.855570   0.904457
H  -1.422000   0.787450  -0.831503
H  -0.116666  -1.270343   0.869758
H   0.741084  -0.092662   0.070150
H  -0.125880  -1.433725  -0.898922
