butane_opt
 OpenBabel08242015403D

 14 13  0  0  0  0  0  0  0  0999 V2000
   -3.9582    0.2654    0.0437 C   0  0  0  0  0  0  0  0  0  0  0  0
   -2.6915   -0.6178    0.0091 C   0  0  0  0  0  0  0  0  0  0  0  0
   -4.8754   -0.3158    0.0270 H   0  0  0  0  0  0  0  0  0  0  0  0
   -3.9799    0.8708   -0.8518 H   0  0  0  0  0  0  0  0  0  0  0  0
   -4.0163    0.9603    0.8927 H   0  0  0  0  0  0  0  0  0  0  0  0
   -1.4045    0.1772    0.0006 C   0  0  0  0  0  0  0  0  0  0  0  0
   -2.7052   -1.3200   -0.8917 H   0  0  0  0  0  0  0  0  0  0  0  0
   -2.6821   -1.2248    0.8720 H   0  0  0  0  0  0  0  0  0  0  0  0
   -0.1542   -0.6851    0.0496 C   0  0  0  0  0  0  0  0  0  0  0  0
   -1.3708    0.8923    0.8810 H   0  0  0  0  0  0  0  0  0  0  0  0
   -1.3306    0.7821   -0.8853 H   0  0  0  0  0  0  0  0  0  0  0  0
   -0.1325   -1.4619    1.0453 H   0  0  0  0  0  0  0  0  0  0  0  0
    0.7565   -0.0710   -0.1335 H   0  0  0  0  0  0  0  0  0  0  0  0
   -0.1822   -1.2619   -0.7383 H   0  0  0  0  0  0  0  0  0  0  0  0
  1  5  1  0  0  0  0
  2  1  1  0  0  0  0
  2  8  1  0  0  0  0
  3  1  1  0  0  0  0
  4  1  1  0  0  0  0
  6  2  1  0  0  0  0
  6  9  1  0  0  0  0
  6 10  1  0  0  0  0
  7  2  1  0  0  0  0
  9 12  1  0  0  0  0
 11  6  1  0  0  0  0
 13  9  1  0  0  0  0
 14  9  1  0  0  0  0
M  END
$$$$
