14
butane_opt
C  -3.949061   0.272485   0.048736
C  -2.701081  -0.639556   0.000782
H  -4.812309  -0.274003   0.124305
H  -4.086039   0.946422  -0.846486
H  -3.918323   0.914491   0.879420
C  -1.403713   0.177694  -0.008105
H  -2.696581  -1.358876  -0.865327
H  -2.665902  -1.201223   0.827852
C  -0.153295  -0.683135   0.056169
H  -1.433358   0.830577   0.812899
H  -1.336281   0.850617  -0.941780
H  -0.205561  -1.305697   0.995184
H   0.760836  -0.081974   0.043293
H  -0.146713  -1.318459  -0.767809
