butane_opt
 OpenBabel08242015403D

 14 13  0  0  0  0  0  0  0  0999 V2000
   -3.9420    0.2573    0.0059 C   0  0  0  0  0  0  0  0  0  0  0  0
   -2.7079   -0.6082    0.0548 C   0  0  0  0  0  0  0  0  0  0  0  0
   -4.8593   -0.3444   -0.0153 H   0  0  0  0  0  0  0  0  0  0  0  0
   -3.9597    0.8505   -0.8992 H   0  0  0  0  0  0  0  0  0  0  0  0
   -3.9860    0.9274    0.8473 H   0  0  0  0  0  0  0  0  0  0  0  0
   -1.4089    0.1959    0.0229 C   0  0  0  0  0  0  0  0  0  0  0  0
   -2.6803   -1.2364   -0.7730 H   0  0  0  0  0  0  0  0  0  0  0  0
   -2.7199   -1.2703    0.9695 H   0  0  0  0  0  0  0  0  0  0  0  0
   -0.1544   -0.7010    0.0140 C   0  0  0  0  0  0  0  0  0  0  0  0
   -1.3432    0.8934    0.8888 H   0  0  0  0  0  0  0  0  0  0  0  0
   -1.4655    0.7999   -0.8194 H   0  0  0  0  0  0  0  0  0  0  0  0
   -0.1448   -1.3343    0.9288 H   0  0  0  0  0  0  0  0  0  0  0  0
    0.7986   -0.0967    0.0070 H   0  0  0  0  0  0  0  0  0  0  0  0
   -0.1027   -1.3901   -0.8630 H   0  0  0  0  0  0  0  0  0  0  0  0
  1  2  1  0  0  0  0
  1  5  1  0  0  0  0
  2  8  1  0  0  0  0
  3  1  1  0  0  0  0
  4  1  1  0  0  0  0
  6  2  1  0  0  0  0
  6 10  1  0  0  0  0
  7  2  1  0  0  0  0
  9  6  1  0  0  0  0
  9 12  1  0  0  0  0
 11  6  1  0  0  0  0
 13  9  1  0  0  0  0
 14  9  1  0  0  0  0
M  END
$$$$
