14
butane_opt
C  -3.934954   0.255132   0.025965
C  -2.706004  -0.603912   0.044993
H  -4.861994  -0.353783  -0.058405
H  -3.926510   0.790185  -0.829859
H  -3.946778   0.960332   0.910483
C  -1.414526   0.206711  -0.004546
H  -2.702011  -1.359412  -0.833146
H  -2.714469  -1.213613   0.923840
C  -0.163751  -0.709116   0.037441
H  -1.395394   0.886426   0.842834
H  -1.410218   0.851224  -0.905593
H  -0.113551  -1.377193   0.974820
H   0.750427  -0.113513  -0.011533
H  -0.074842  -1.329928  -0.811640
