14
butane_opt
C  -3.930578   0.256636   0.035768
C  -2.703522  -0.604966   0.020025
H  -4.830990  -0.330841  -0.006767
H  -3.957685   0.794138  -0.812925
H  -3.981484   1.007592   0.953102
C  -1.398152   0.189102  -0.014836
H  -2.774946  -1.275280  -0.831612
H  -2.699552  -1.277025   0.932182
C  -0.163766  -0.697975   0.052384
H  -1.438508   0.865021   0.826603
H  -1.379825   0.862653  -0.915878
H  -0.164053  -1.353504   0.937617
H   0.705547  -0.141925   0.034707
H  -0.139536  -1.341726  -0.789133
