14
butane_opt
C  -3.962739   0.271349   0.044994
C  -2.693644  -0.632113   0.009748
H  -4.853330  -0.316530  -0.033529
H  -3.935901   0.790928  -0.794643
H  -3.997610   1.083308   1.011523
C  -1.403592   0.178170  -0.024101
H  -2.772470  -1.268887  -0.827791
H  -2.676642  -1.256334   0.908440
C  -0.147949  -0.688683   0.060963
H  -1.431242   0.836702   0.794312
H  -1.362877   0.810977  -0.936441
H  -0.160216  -1.350269   0.996998
H   0.791881  -0.073651   0.005199
H  -0.135755  -1.268552  -0.766695
