14
butane_opt
C  -3.948412   0.250784   0.048861
C  -2.713983  -0.599664  -0.010086
H  -4.877942  -0.331918   0.173156
H  -4.027930   0.876463  -0.862533
H  -3.902518   0.888023   0.894621
C  -1.403934   0.202851  -0.003744
H  -2.727483  -1.329395  -0.904741
H  -2.761804  -1.161133   0.853929
C  -0.144322  -0.719081   0.061817
H  -1.407861   0.844989   0.826069
H  -1.362276   0.889280  -0.938692
H  -0.086973  -1.365360   0.989407
H   0.786580  -0.100935  -0.009345
H  -0.121518  -1.301154  -0.732790
