butane_opt
 OpenBabel08242015403D

 14 13  0  0  0  0  0  0  0  0999 V2000
   -3.9506    0.2586   -0.0009 C   0  0  0  0  0  0  0  0  0  0  0  0
   -2.7009   -0.6176    0.0563 C   0  0  0  0  0  0  0  0  0  0  0  0
   -4.8477   -0.3221    0.1186 H   0  0  0  0  0  0  0  0  0  0  0  0
   -4.0366    1.0060   -0.9795 H   0  0  0  0  0  0  0  0  0  0  0  0
   -3.9591    0.7820    0.7649 H   0  0  0  0  0  0  0  0  0  0  0  0
   -1.3974    0.1979    0.0354 C   0  0  0  0  0  0  0  0  0  0  0  0
   -2.7245   -1.2777   -0.7885 H   0  0  0  0  0  0  0  0  0  0  0  0
   -2.7257   -1.2355    0.9572 H   0  0  0  0  0  0  0  0  0  0  0  0
   -0.1504   -0.6938    0.0169 C   0  0  0  0  0  0  0  0  0  0  0  0
   -1.3703    0.9140    0.8961 H   0  0  0  0  0  0  0  0  0  0  0  0
   -1.4338    0.7749   -0.8267 H   0  0  0  0  0  0  0  0  0  0  0  0
   -0.1052   -1.2631    0.8646 H   0  0  0  0  0  0  0  0  0  0  0  0
    0.7106   -0.1104    0.0479 H   0  0  0  0  0  0  0  0  0  0  0  0
   -0.1342   -1.4864   -0.9313 H   0  0  0  0  0  0  0  0  0  0  0  0
  1  2  1  0  0  0  0
  1  3  1  0  0  0  0
  1  5  1  0  0  0  0
  2  8  1  0  0  0  0
  4  1  1  0  0  0  0
  6  2  1  0  0  0  0
  6 10  1  0  0  0  0
  7  2  1  0  0  0  0
  9  6  1  0  0  0  0
  9 13  1  0  0  0  0
  9 12  1  0  0  0  0
 11  6  1  0  0  0  0
 14  9  1  0  0  0  0
M  END
$$$$
