butane_opt
 OpenBabel08242015403D

 14 13  0  0  0  0  0  0  0  0999 V2000
   -3.9420    0.2739    0.0407 C   0  0  0  0  0  0  0  0  0  0  0  0
   -2.6944   -0.6176    0.0030 C   0  0  0  0  0  0  0  0  0  0  0  0
   -4.8640   -0.3330    0.0198 H   0  0  0  0  0  0  0  0  0  0  0  0
   -3.9782    0.8330   -0.8060 H   0  0  0  0  0  0  0  0  0  0  0  0
   -3.9668    0.9706    0.9272 H   0  0  0  0  0  0  0  0  0  0  0  0
   -1.3972    0.1696    0.0024 C   0  0  0  0  0  0  0  0  0  0  0  0
   -2.6910   -1.3556   -0.8656 H   0  0  0  0  0  0  0  0  0  0  0  0
   -2.6672   -1.1983    0.8555 H   0  0  0  0  0  0  0  0  0  0  0  0
   -0.1765   -0.6934    0.0548 C   0  0  0  0  0  0  0  0  0  0  0  0
   -1.3504    0.8593    0.8645 H   0  0  0  0  0  0  0  0  0  0  0  0
   -1.4003    0.8481   -0.9333 H   0  0  0  0  0  0  0  0  0  0  0  0
   -0.1573   -1.4272    1.0234 H   0  0  0  0  0  0  0  0  0  0  0  0
    0.7470   -0.0470   -0.1353 H   0  0  0  0  0  0  0  0  0  0  0  0
   -0.1754   -1.2102   -0.7037 H   0  0  0  0  0  0  0  0  0  0  0  0
  1  5  1  0  0  0  0
  2  1  1  0  0  0  0
  2  8  1  0  0  0  0
  3  1  1  0  0  0  0
  4  1  1  0  0  0  0
  6  2  1  0  0  0  0
  6  9  1  0  0  0  0
  6 10  1  0  0  0  0
  7  2  1  0  0  0  0
  9 12  1  0  0  0  0
 11  6  1  0  0  0  0
 13  9  1  0  0  0  0
 14  9  1  0  0  0  0
M  END
$$$$
