14
butane_opt
C  -3.944942   0.269210   0.016533
C  -2.699420  -0.626573   0.050329
H  -4.834132  -0.307933   0.090540
H  -4.008513   0.910513  -0.869909
H  -4.013037   0.943430   0.861398
C  -1.394313   0.180820  -0.002171
H  -2.739856  -1.291556  -0.801270
H  -2.741156  -1.247735   0.939545
C  -0.159310  -0.689382   0.040668
H  -1.414929   0.822423   0.815931
H  -1.338991   0.833243  -0.952442
H  -0.178110  -1.155844   0.820451
H   0.738911  -0.122352   0.154577
H  -0.113882  -1.467075  -0.893878
