butane_opt
 OpenBabel08242015403D

 14 13  0  0  0  0  0  0  0  0999 V2000
   -3.9393    0.2669   -0.0066 C   0  0  0  0  0  0  0  0  0  0  0  0
   -2.7015   -0.6232    0.0711 C   0  0  0  0  0  0  0  0  0  0  0  0
   -4.8012   -0.2689    0.0247 H   0  0  0  0  0  0  0  0  0  0  0  0
   -3.9610    0.8919   -0.9046 H   0  0  0  0  0  0  0  0  0  0  0  0
   -3.9701    0.9169    0.8347 H   0  0  0  0  0  0  0  0  0  0  0  0
   -1.3971    0.1826    0.0273 C   0  0  0  0  0  0  0  0  0  0  0  0
   -2.7081   -1.2722   -0.7666 H   0  0  0  0  0  0  0  0  0  0  0  0
   -2.7403   -1.2732    0.9647 H   0  0  0  0  0  0  0  0  0  0  0  0
   -0.1691   -0.6881    0.0145 C   0  0  0  0  0  0  0  0  0  0  0  0
   -1.4381    0.8467    0.8800 H   0  0  0  0  0  0  0  0  0  0  0  0
   -1.3903    0.7991   -0.8688 H   0  0  0  0  0  0  0  0  0  0  0  0
   -0.1178   -1.2398    0.8456 H   0  0  0  0  0  0  0  0  0  0  0  0
    0.7441   -0.0756    0.0526 H   0  0  0  0  0  0  0  0  0  0  0  0
   -0.1697   -1.4461   -0.9080 H   0  0  0  0  0  0  0  0  0  0  0  0
  1  3  1  0  0  0  0
  1  2  1  0  0  0  0
  1  5  1  0  0  0  0
  2  8  1  0  0  0  0
  4  1  1  0  0  0  0
  6  2  1  0  0  0  0
  6 10  1  0  0  0  0
  7  2  1  0  0  0  0
  9  6  1  0  0  0  0
  9 13  1  0  0  0  0
  9 12  1  0  0  0  0
 11  6  1  0  0  0  0
 14  9  1  0  0  0  0
M  END
$$$$
