butane_opt
 OpenBabel08242015403D

 14 13  0  0  0  0  0  0  0  0999 V2000
   -3.9482    0.2623    0.0016 C   0  0  0  0  0  0  0  0  0  0  0  0
   -2.7179   -0.6097    0.0628 C   0  0  0  0  0  0  0  0  0  0  0  0
   -4.8882   -0.3808    0.0512 H   0  0  0  0  0  0  0  0  0  0  0  0
   -3.9376    0.9683   -0.9426 H   0  0  0  0  0  0  0  0  0  0  0  0
   -3.9443    0.8301    0.8016 H   0  0  0  0  0  0  0  0  0  0  0  0
   -1.4014    0.1999    0.0284 C   0  0  0  0  0  0  0  0  0  0  0  0
   -2.6859   -1.2639   -0.7401 H   0  0  0  0  0  0  0  0  0  0  0  0
   -2.7382   -1.2630    0.9923 H   0  0  0  0  0  0  0  0  0  0  0  0
   -0.1496   -0.7079    0.0126 C   0  0  0  0  0  0  0  0  0  0  0  0
   -1.3932    0.8605    0.8518 H   0  0  0  0  0  0  0  0  0  0  0  0
   -1.3706    0.8365   -0.8571 H   0  0  0  0  0  0  0  0  0  0  0  0
   -0.1221   -1.1544    0.7765 H   0  0  0  0  0  0  0  0  0  0  0  0
    0.7469   -0.1438    0.1334 H   0  0  0  0  0  0  0  0  0  0  0  0
   -0.0799   -1.5025   -0.9196 H   0  0  0  0  0  0  0  0  0  0  0  0
  1  3  1  0  0  0  0
  1  2  1  0  0  0  0
  1  5  1  0  0  0  0
  2  8  1  0  0  0  0
  4  1  1  0  0  0  0
  6  2  1  0  0  0  0
  6 10  1  0  0  0  0
  7  2  1  0  0  0  0
  9  6  1  0  0  0  0
  9 13  1  0  0  0  0
  9 12  1  0  0  0  0
 11  6  1  0  0  0  0
 14  9  1  0  0  0  0
M  END
$$$$
