14
butane_opt
C  -3.934753   0.257957   0.036232
C  -2.694635  -0.598161   0.018050
H  -4.898132  -0.350894  -0.046043
H  -3.935377   0.679082  -0.743350
H  -3.979347   1.080900   0.988400
C  -1.407900   0.178512  -0.018786
H  -2.719803  -1.270858  -0.812278
H  -2.669728  -1.251683   0.925588
C  -0.165425  -0.695941   0.053335
H  -1.411316   0.829278   0.816655
H  -1.410036   0.885271  -0.982761
H  -0.182030  -1.376751   0.999814
H   0.736930  -0.109511   0.024872
H  -0.116586  -1.307432  -0.771400
