14
butane_opt
C  -3.959120   0.273095   0.033159
C  -2.691772  -0.635309   0.007520
H  -4.827616  -0.306240   0.099522
H  -4.052603   0.870540  -0.852520
H  -3.983212   0.985856   0.926542
C  -1.396902   0.182341   0.005015
H  -2.711356  -1.339136  -0.863966
H  -2.665657  -1.203086   0.861704
C  -0.169539  -0.685476   0.051215
H  -1.351431   0.781407   0.834284
H  -1.346648   0.849963  -0.919527
H  -0.113468  -1.355232   1.008499
H   0.768981  -0.078965  -0.043827
H  -0.136062  -1.282811  -0.763323
