butane_opt
 OpenBabel08242015403D

 14 13  0  0  0  0  0  0  0  0999 V2000
   -3.9442    0.2590   -0.0012 C   0  0  0  0  0  0  0  0  0  0  0  0
   -2.7017   -0.6018    0.0548 C   0  0  0  0  0  0  0  0  0  0  0  0
   -4.8538   -0.3588    0.0529 H   0  0  0  0  0  0  0  0  0  0  0  0
   -3.9482    0.9137   -0.9486 H   0  0  0  0  0  0  0  0  0  0  0  0
   -3.9671    0.8804    0.8179 H   0  0  0  0  0  0  0  0  0  0  0  0
   -1.4076    0.1836    0.0449 C   0  0  0  0  0  0  0  0  0  0  0  0
   -2.6735   -1.2568   -0.7817 H   0  0  0  0  0  0  0  0  0  0  0  0
   -2.6938   -1.2624    0.9382 H   0  0  0  0  0  0  0  0  0  0  0  0
   -0.1589   -0.6914    0.0085 C   0  0  0  0  0  0  0  0  0  0  0  0
   -1.4214    0.8635    0.9027 H   0  0  0  0  0  0  0  0  0  0  0  0
   -1.3668    0.7951   -0.8375 H   0  0  0  0  0  0  0  0  0  0  0  0
   -0.0881   -1.3396    0.9096 H   0  0  0  0  0  0  0  0  0  0  0  0
    0.7475   -0.0955   -0.0219 H   0  0  0  0  0  0  0  0  0  0  0  0
   -0.2082   -1.4012   -0.8809 H   0  0  0  0  0  0  0  0  0  0  0  0
  1  3  1  0  0  0  0
  1  2  1  0  0  0  0
  1  5  1  0  0  0  0
  2  8  1  0  0  0  0
  4  1  1  0  0  0  0
  6  2  1  0  0  0  0
  6 10  1  0  0  0  0
  7  2  1  0  0  0  0
  9  6  1  0  0  0  0
  9 12  1  0  0  0  0
 11  6  1  0  0  0  0
 13  9  1  0  0  0  0
 14  9  1  0  0  0  0
M  END
$$$$
