14
butane_opt
C  -3.939544   0.257625  -0.010584
C  -2.699459  -0.616496   0.062952
H  -4.866904  -0.354489   0.117509
H  -4.021929   0.946278  -0.948546
H  -3.948922   0.832029   0.809094
C  -1.412587   0.210631   0.027873
H  -2.712244  -1.244761  -0.734353
H  -2.781388  -1.265915   0.998199
C  -0.147612  -0.706498   0.009993
H  -1.392470   0.892157   0.910632
H  -1.433072   0.792873  -0.837556
H  -0.119289  -1.206748   0.834937
H   0.763485  -0.114379   0.127369
H  -0.115734  -1.494158  -0.938434
