14
butane_opt
C  -3.955692   0.262238  -0.014451
C  -2.698659  -0.616062   0.070736
H  -4.856813  -0.338680   0.075973
H  -4.012096   0.942092  -0.928557
H  -4.014050   0.924135   0.842308
C  -1.395105   0.178613   0.031664
H  -2.690564  -1.284510  -0.758426
H  -2.739906  -1.263156   1.009325
C  -0.149788  -0.689760   0.013043
H  -1.355040   0.843383   0.884299
H  -1.445804   0.840656  -0.886556
H  -0.145037  -1.177149   0.820226
H   0.766632  -0.098711   0.099841
H  -0.133452  -1.483141  -0.941688
