butane_opt
 OpenBabel08242015403D

 14 13  0  0  0  0  0  0  0  0999 V2000
   -3.9415    0.2715    0.0409 C   0  0  0  0  0  0  0  0  0  0  0  0
   -2.6779   -0.6305    0.0134 C   0  0  0  0  0  0  0  0  0  0  0  0
   -4.8316   -0.3038    0.1591 H   0  0  0  0  0  0  0  0  0  0  0  0
   -4.0444    1.0033   -0.9225 H   0  0  0  0  0  0  0  0  0  0  0  0
   -3.9160    0.8698    0.8487 H   0  0  0  0  0  0  0  0  0  0  0  0
   -1.4061    0.1679   -0.0060 C   0  0  0  0  0  0  0  0  0  0  0  0
   -2.7265   -1.3699   -0.8712 H   0  0  0  0  0  0  0  0  0  0  0  0
   -2.7037   -1.1671    0.8542 H   0  0  0  0  0  0  0  0  0  0  0  0
   -0.1795   -0.6821    0.0503 C   0  0  0  0  0  0  0  0  0  0  0  0
   -1.4000    0.8486    0.8370 H   0  0  0  0  0  0  0  0  0  0  0  0
   -1.3872    0.8052   -0.8763 H   0  0  0  0  0  0  0  0  0  0  0  0
   -0.1775   -1.2788    0.9655 H   0  0  0  0  0  0  0  0  0  0  0  0
    0.7469   -0.0607    0.0495 H   0  0  0  0  0  0  0  0  0  0  0  0
   -0.1284   -1.3344   -0.7989 H   0  0  0  0  0  0  0  0  0  0  0  0
  1  3  1  0  0  0  0
  1  5  1  0  0  0  0
  2  1  1  0  0  0  0
  2  8  1  0  0  0  0
  4  1  1  0  0  0  0
  6  2  1  0  0  0  0
  6  9  1  0  0  0  0
  6 10  1  0  0  0  0
  7  2  1  0  0  0  0
  9 12  1  0  0  0  0
 11  6  1  0  0  0  0
 13  9  1  0  0  0  0
 14  9  1  0  0  0  0
M  END
$$$$
