butane_opt
 OpenBabel08242015403D

 14 13  0  0  0  0  0  0  0  0999 V2000
   -3.9582    0.2613    0.0007 C   0  0  0  0  0  0  0  0  0  0  0  0
   -2.7045   -0.6207    0.0506 C   0  0  0  0  0  0  0  0  0  0  0  0
   -4.8688   -0.3038    0.1661 H   0  0  0  0  0  0  0  0  0  0  0  0
   -4.0176    1.0336   -0.9971 H   0  0  0  0  0  0  0  0  0  0  0  0
   -3.9460    0.8336    0.7881 H   0  0  0  0  0  0  0  0  0  0  0  0
   -1.4008    0.1887    0.0250 C   0  0  0  0  0  0  0  0  0  0  0  0
   -2.7094   -1.2765   -0.7941 H   0  0  0  0  0  0  0  0  0  0  0  0
   -2.7362   -1.2644    0.9850 H   0  0  0  0  0  0  0  0  0  0  0  0
   -0.1420   -0.6998    0.0157 C   0  0  0  0  0  0  0  0  0  0  0  0
   -1.3587    0.9537    0.9400 H   0  0  0  0  0  0  0  0  0  0  0  0
   -1.3793    0.7393   -0.8117 H   0  0  0  0  0  0  0  0  0  0  0  0
   -0.1588   -1.2372    0.8686 H   0  0  0  0  0  0  0  0  0  0  0  0
    0.7910   -0.0953    0.0769 H   0  0  0  0  0  0  0  0  0  0  0  0
   -0.1645   -1.4090   -0.9037 H   0  0  0  0  0  0  0  0  0  0  0  0
  1  2  1  0  0  0  0
  1  3  1  0  0  0  0
  1  5  1  0  0  0  0
  2  8  1  0  0  0  0
  4  1  1  0  0  0  0
  6  2  1  0  0  0  0
  6 10  1  0  0  0  0
  7  2  1  0  0  0  0
  9  6  1  0  0  0  0
  9 13  1  0  0  0  0
  9 12  1  0  0  0  0
 11  6  1  0  0  0  0
 14  9  1  0  0  0  0
M  END
$$$$
