14
butane_opt
C  -3.929490   0.255392   0.048825
C  -2.702502  -0.602982   0.010554
H  -4.880584  -0.368670   0.078029
H  -3.971557   0.877791  -0.858488
H  -3.903135   0.957536   0.942445
C  -1.418344   0.188437  -0.026180
H  -2.726939  -1.310219  -0.841488
H  -2.685442  -1.240232   0.903479
C  -0.156129  -0.699364   0.066833
H  -1.403219   0.809166   0.778645
H  -1.413060   0.893860  -0.968540
H  -0.234376  -1.249882   0.915156
H   0.740633  -0.108987   0.143597
H  -0.061062  -1.437391  -0.858408
