butane_opt
 OpenBabel08242015403D

 14 13  0  0  0  0  0  0  0  0999 V2000
   -3.9438    0.2749    0.0337 C   0  0  0  0  0  0  0  0  0  0  0  0
   -2.6892   -0.6297    0.0276 C   0  0  0  0  0  0  0  0  0  0  0  0
   -4.8525   -0.2932   -0.0486 H   0  0  0  0  0  0  0  0  0  0  0  0
   -3.9491    0.7592   -0.7902 H   0  0  0  0  0  0  0  0  0  0  0  0
   -3.9806    1.0835    0.9831 H   0  0  0  0  0  0  0  0  0  0  0  0
   -1.3989    0.1706   -0.0224 C   0  0  0  0  0  0  0  0  0  0  0  0
   -2.7436   -1.2890   -0.8393 H   0  0  0  0  0  0  0  0  0  0  0  0
   -2.7146   -1.2321    0.9154 H   0  0  0  0  0  0  0  0  0  0  0  0
   -0.1671   -0.6887    0.0508 C   0  0  0  0  0  0  0  0  0  0  0  0
   -1.3606    0.8588    0.8513 H   0  0  0  0  0  0  0  0  0  0  0  0
   -1.4066    0.8270   -0.9249 H   0  0  0  0  0  0  0  0  0  0  0  0
   -0.2266   -1.3833    1.0124 H   0  0  0  0  0  0  0  0  0  0  0  0
    0.7758   -0.0451   -0.0124 H   0  0  0  0  0  0  0  0  0  0  0  0
   -0.1792   -1.2848   -0.7593 H   0  0  0  0  0  0  0  0  0  0  0  0
  1  5  1  0  0  0  0
  2  1  1  0  0  0  0
  2  8  1  0  0  0  0
  3  1  1  0  0  0  0
  4  1  1  0  0  0  0
  6  2  1  0  0  0  0
  6  9  1  0  0  0  0
  6 10  1  0  0  0  0
  7  2  1  0  0  0  0
  9 12  1  0  0  0  0
 11  6  1  0  0  0  0
 13  9  1  0  0  0  0
 14  9  1  0  0  0  0
M  END
$$$$
