butane_opt
 OpenBabel08242015403D

 14 13  0  0  0  0  0  0  0  0999 V2000
   -3.9535    0.2663    0.0403 C   0  0  0  0  0  0  0  0  0  0  0  0
   -2.6972   -0.6250    0.0040 C   0  0  0  0  0  0  0  0  0  0  0  0
   -4.8332   -0.3210    0.1511 H   0  0  0  0  0  0  0  0  0  0  0  0
   -4.0669    0.9224   -0.8773 H   0  0  0  0  0  0  0  0  0  0  0  0
   -3.9303    0.9450    0.9180 H   0  0  0  0  0  0  0  0  0  0  0  0
   -1.4018    0.1796   -0.0118 C   0  0  0  0  0  0  0  0  0  0  0  0
   -2.7124   -1.3176   -0.8699 H   0  0  0  0  0  0  0  0  0  0  0  0
   -2.6763   -1.1972    0.8718 H   0  0  0  0  0  0  0  0  0  0  0  0
   -0.1503   -0.6922    0.0585 C   0  0  0  0  0  0  0  0  0  0  0  0
   -1.3900    0.8034    0.8119 H   0  0  0  0  0  0  0  0  0  0  0  0
   -1.3863    0.8460   -0.9075 H   0  0  0  0  0  0  0  0  0  0  0  0
   -0.1848   -1.2860    0.9652 H   0  0  0  0  0  0  0  0  0  0  0  0
    0.7815   -0.0817    0.0764 H   0  0  0  0  0  0  0  0  0  0  0  0
   -0.1808   -1.3261   -0.7882 H   0  0  0  0  0  0  0  0  0  0  0  0
  1  3  1  0  0  0  0
  1  5  1  0  0  0  0
  2  1  1  0  0  0  0
  2  8  1  0  0  0  0
  4  1  1  0  0  0  0
  6  2  1  0  0  0  0
  6  9  1  0  0  0  0
  6 10  1  0  0  0  0
  7  2  1  0  0  0  0
  9 13  1  0  0  0  0
  9 12  1  0  0  0  0
 11  6  1  0  0  0  0
 14  9  1  0  0  0  0
M  END
$$$$
