14
butane_opt
C  -3.928090   0.263028  -0.006462
C  -2.697477  -0.618420   0.073791
H  -4.848586  -0.341070  -0.016860
H  -3.908384   0.907084  -0.936720
H  -4.000272   0.947305   0.858270
C  -1.407379   0.191887   0.032983
H  -2.670739  -1.271681  -0.754431
H  -2.759570  -1.284914   0.997550
C  -0.169262  -0.699305   0.001173
H  -1.348622   0.916439   0.923721
H  -1.426964   0.777514  -0.864463
H  -0.215496  -1.283111   0.874628
H   0.727945  -0.091894   0.022006
H  -0.139249  -1.396510  -0.883178
