butane_opt
 OpenBabel08242015403D

 14 13  0  0  0  0  0  0  0  0999 V2000
   -3.9554    0.2771    0.0289 C   0  0  0  0  0  0  0  0  0  0  0  0
   -2.7016   -0.6382    0.0200 C   0  0  0  0  0  0  0  0  0  0  0  0
   -4.8392   -0.3008    0.0244 H   0  0  0  0  0  0  0  0  0  0  0  0
   -3.9758    0.8599   -0.8107 H   0  0  0  0  0  0  0  0  0  0  0  0
   -4.0157    0.9835    0.9018 H   0  0  0  0  0  0  0  0  0  0  0  0
   -1.3962    0.1812    0.0067 C   0  0  0  0  0  0  0  0  0  0  0  0
   -2.7594   -1.3771   -0.8803 H   0  0  0  0  0  0  0  0  0  0  0  0
   -2.6636   -1.1948    0.8610 H   0  0  0  0  0  0  0  0  0  0  0  0
   -0.1576   -0.6842    0.0480 C   0  0  0  0  0  0  0  0  0  0  0  0
   -1.3965    0.8540    0.8533 H   0  0  0  0  0  0  0  0  0  0  0  0
   -1.4075    0.8043   -0.8983 H   0  0  0  0  0  0  0  0  0  0  0  0
   -0.0664   -1.4329    1.0379 H   0  0  0  0  0  0  0  0  0  0  0  0
    0.7753   -0.0525   -0.1380 H   0  0  0  0  0  0  0  0  0  0  0  0
   -0.1621   -1.2357   -0.7390 H   0  0  0  0  0  0  0  0  0  0  0  0
  1  5  1  0  0  0  0
  2  1  1  0  0  0  0
  2  8  1  0  0  0  0
  3  1  1  0  0  0  0
  4  1  1  0  0  0  0
  6  2  1  0  0  0  0
  6  9  1  0  0  0  0
  6 10  1  0  0  0  0
  7  2  1  0  0  0  0
  9 12  1  0  0  0  0
 11  6  1  0  0  0  0
 13  9  1  0  0  0  0
 14  9  1  0  0  0  0
M  END
$$$$
