butane_opt
 OpenBabel08242015403D

 14 13  0  0  0  0  0  0  0  0999 V2000
   -3.9465    0.2500    0.0455 C   0  0  0  0  0  0  0  0  0  0  0  0
   -2.7134   -0.6086   -0.0015 C   0  0  0  0  0  0  0  0  0  0  0  0
   -4.8063   -0.3086    0.0440 H   0  0  0  0  0  0  0  0  0  0  0  0
   -4.0041    0.8401   -0.8439 H   0  0  0  0  0  0  0  0  0  0  0  0
   -3.9401    0.9735    0.9504 H   0  0  0  0  0  0  0  0  0  0  0  0
   -1.3983    0.2027   -0.0043 C   0  0  0  0  0  0  0  0  0  0  0  0
   -2.7532   -1.3341   -0.8902 H   0  0  0  0  0  0  0  0  0  0  0  0
   -2.7037   -1.1820    0.8487 H   0  0  0  0  0  0  0  0  0  0  0  0
   -0.1521   -0.7068    0.0674 C   0  0  0  0  0  0  0  0  0  0  0  0
   -1.4133    0.8368    0.8266 H   0  0  0  0  0  0  0  0  0  0  0  0
   -1.3836    0.8585   -0.9382 H   0  0  0  0  0  0  0  0  0  0  0  0
   -0.0603   -1.3842    1.0282 H   0  0  0  0  0  0  0  0  0  0  0  0
    0.7342   -0.1476   -0.1389 H   0  0  0  0  0  0  0  0  0  0  0  0
   -0.1663   -1.2643   -0.7227 H   0  0  0  0  0  0  0  0  0  0  0  0
  1  5  1  0  0  0  0
  2  1  1  0  0  0  0
  2  8  1  0  0  0  0
  3  1  1  0  0  0  0
  4  1  1  0  0  0  0
  6  2  1  0  0  0  0
  6  9  1  0  0  0  0
  6 10  1  0  0  0  0
  7  2  1  0  0  0  0
  9 12  1  0  0  0  0
 11  6  1  0  0  0  0
 13  9  1  0  0  0  0
 14  9  1  0  0  0  0
M  END
$$$$
