14
butane_opt
C  -3.937817   0.258916   0.051607
C  -2.705050  -0.606019  -0.003795
H  -4.864482  -0.328605   0.181085
H  -4.094374   0.890480  -0.864796
H  -3.900837   0.890775   0.895136
C  -1.414295   0.194640  -0.023867
H  -2.727435  -1.364644  -0.923123
H  -2.728319  -1.224850   0.867475
C  -0.147573  -0.698966   0.066391
H  -1.405910   0.841940   0.825611
H  -1.366174   0.834641  -0.922441
H  -0.132453  -1.338415   0.979613
H   0.766559  -0.117502   0.086055
H  -0.107172  -1.332730  -0.762111
