butane_opt
 OpenBabel08242015403D

 14 13  0  0  0  0  0  0  0  0999 V2000
   -3.9397    0.2576    0.0452 C   0  0  0  0  0  0  0  0  0  0  0  0
   -2.7058   -0.6055    0.0040 C   0  0  0  0  0  0  0  0  0  0  0  0
   -4.8835   -0.3549    0.1558 H   0  0  0  0  0  0  0  0  0  0  0  0
   -3.9988    0.8996   -0.8687 H   0  0  0  0  0  0  0  0  0  0  0  0
   -3.8834    0.8612    0.8919 H   0  0  0  0  0  0  0  0  0  0  0  0
   -1.4084    0.1919   -0.0100 C   0  0  0  0  0  0  0  0  0  0  0  0
   -2.7494   -1.3247   -0.8605 H   0  0  0  0  0  0  0  0  0  0  0  0
   -2.6835   -1.1641    0.8310 H   0  0  0  0  0  0  0  0  0  0  0  0
   -0.1461   -0.7028    0.0537 C   0  0  0  0  0  0  0  0  0  0  0  0
   -1.4547    0.8321    0.8178 H   0  0  0  0  0  0  0  0  0  0  0  0
   -1.4190    0.8802   -0.9342 H   0  0  0  0  0  0  0  0  0  0  0  0
   -0.1794   -1.3305    0.9741 H   0  0  0  0  0  0  0  0  0  0  0  0
    0.7468   -0.1246    0.1106 H   0  0  0  0  0  0  0  0  0  0  0  0
   -0.1155   -1.3461   -0.7929 H   0  0  0  0  0  0  0  0  0  0  0  0
  1  3  1  0  0  0  0
  1  5  1  0  0  0  0
  2  1  1  0  0  0  0
  2  8  1  0  0  0  0
  4  1  1  0  0  0  0
  6  2  1  0  0  0  0
  6  9  1  0  0  0  0
  6 10  1  0  0  0  0
  7  2  1  0  0  0  0
  9 13  1  0  0  0  0
  9 12  1  0  0  0  0
 11  6  1  0  0  0  0
 14  9  1  0  0  0  0
M  END
$$$$
