butane_opt
 OpenBabel08242015403D

 14 13  0  0  0  0  0  0  0  0999 V2000
   -3.9305    0.2500    0.0262 C   0  0  0  0  0  0  0  0  0  0  0  0
   -2.7003   -0.6106    0.0202 C   0  0  0  0  0  0  0  0  0  0  0  0
   -4.8409   -0.3539    0.0638 H   0  0  0  0  0  0  0  0  0  0  0  0
   -3.9847    0.8256   -0.8494 H   0  0  0  0  0  0  0  0  0  0  0  0
   -3.9227    0.9907    0.9482 H   0  0  0  0  0  0  0  0  0  0  0  0
   -1.4151    0.2005    0.0040 C   0  0  0  0  0  0  0  0  0  0  0  0
   -2.7111   -1.3192   -0.8573 H   0  0  0  0  0  0  0  0  0  0  0  0
   -2.7403   -1.1986    0.8741 H   0  0  0  0  0  0  0  0  0  0  0  0
   -0.1547   -0.7023    0.0481 C   0  0  0  0  0  0  0  0  0  0  0  0
   -1.4558    0.8871    0.8511 H   0  0  0  0  0  0  0  0  0  0  0  0
   -1.4106    0.8945   -0.9104 H   0  0  0  0  0  0  0  0  0  0  0  0
   -0.1010   -1.4380    0.9962 H   0  0  0  0  0  0  0  0  0  0  0  0
    0.7334   -0.1189   -0.0624 H   0  0  0  0  0  0  0  0  0  0  0  0
   -0.1760   -1.2977   -0.7773 H   0  0  0  0  0  0  0  0  0  0  0  0
  1  3  1  0  0  0  0
  1  5  1  0  0  0  0
  2  1  1  0  0  0  0
  2  8  1  0  0  0  0
  4  1  1  0  0  0  0
  6  2  1  0  0  0  0
  6  9  1  0  0  0  0
  6 10  1  0  0  0  0
  7  2  1  0  0  0  0
  9 12  1  0  0  0  0
 11  6  1  0  0  0  0
 13  9  1  0  0  0  0
 14  9  1  0  0  0  0
M  END
$$$$
