14
butane_opt
C  -3.962832   0.271480  -0.023905
C  -2.697689  -0.626739   0.067914
H  -4.844627  -0.287230   0.016514
H  -3.983223   0.858710  -0.905908
H  -4.043738   0.968154   0.837899
C  -1.388065   0.169259   0.054468
H  -2.687411  -1.240526  -0.749223
H  -2.735809  -1.282902   1.007355
C  -0.153679  -0.685985  -0.005798
H  -1.373652   0.882350   0.947235
H  -1.432514   0.777528  -0.799664
H  -0.075165  -1.318166   0.898134
H   0.764336  -0.050115  -0.087240
H  -0.189037  -1.312690  -0.831269
