butane_opt
 OpenBabel08242015403D

 14 13  0  0  0  0  0  0  0  0999 V2000
   -3.9491    0.2510   -0.0052 C   0  0  0  0  0  0  0  0  0  0  0  0
   -2.7071   -0.5955    0.0632 C   0  0  0  0  0  0  0  0  0  0  0  0
   -4.8688   -0.3533   -0.0331 H   0  0  0  0  0  0  0  0  0  0  0  0
   -3.9772    0.8334   -0.8877 H   0  0  0  0  0  0  0  0  0  0  0  0
   -3.9582    0.9456    0.8640 H   0  0  0  0  0  0  0  0  0  0  0  0
   -1.4101    0.1954    0.0262 C   0  0  0  0  0  0  0  0  0  0  0  0
   -2.7182   -1.2449   -0.7655 H   0  0  0  0  0  0  0  0  0  0  0  0
   -2.7931   -1.3001    1.0432 H   0  0  0  0  0  0  0  0  0  0  0  0
   -0.1352   -0.7015    0.0143 C   0  0  0  0  0  0  0  0  0  0  0  0
   -1.3764    0.8809    0.8850 H   0  0  0  0  0  0  0  0  0  0  0  0
   -1.4629    0.8154   -0.8576 H   0  0  0  0  0  0  0  0  0  0  0  0
   -0.1051   -1.2682    0.8729 H   0  0  0  0  0  0  0  0  0  0  0  0
    0.7702   -0.1491    0.0249 H   0  0  0  0  0  0  0  0  0  0  0  0
   -0.1111   -1.4277   -0.8910 H   0  0  0  0  0  0  0  0  0  0  0  0
  1  2  1  0  0  0  0
  1  5  1  0  0  0  0
  2  8  1  0  0  0  0
  3  1  1  0  0  0  0
  4  1  1  0  0  0  0
  6  2  1  0  0  0  0
  6 10  1  0  0  0  0
  7  2  1  0  0  0  0
  9 13  1  0  0  0  0
  9  6  1  0  0  0  0
  9 12  1  0  0  0  0
 11  6  1  0  0  0  0
 14  9  1  0  0  0  0
M  END
$$$$
