butane_opt
 OpenBabel08242015403D

 14 13  0  0  0  0  0  0  0  0999 V2000
   -3.9292    0.2524    0.0541 C   0  0  0  0  0  0  0  0  0  0  0  0
   -2.7034   -0.6032   -0.0128 C   0  0  0  0  0  0  0  0  0  0  0  0
   -4.8767   -0.3583    0.2040 H   0  0  0  0  0  0  0  0  0  0  0  0
   -4.0256    0.9457   -0.8927 H   0  0  0  0  0  0  0  0  0  0  0  0
   -3.8402    0.8768    0.9142 H   0  0  0  0  0  0  0  0  0  0  0  0
   -1.4144    0.1967   -0.0262 C   0  0  0  0  0  0  0  0  0  0  0  0
   -2.7636   -1.3139   -0.8899 H   0  0  0  0  0  0  0  0  0  0  0  0
   -2.6928   -1.1755    0.8446 H   0  0  0  0  0  0  0  0  0  0  0  0
   -0.1624   -0.7026    0.0731 C   0  0  0  0  0  0  0  0  0  0  0  0
   -1.3702    0.8894    0.8398 H   0  0  0  0  0  0  0  0  0  0  0  0
   -1.3707    0.7824   -0.9157 H   0  0  0  0  0  0  0  0  0  0  0  0
   -0.1749   -1.3519    1.0025 H   0  0  0  0  0  0  0  0  0  0  0  0
    0.6927   -0.1519    0.0374 H   0  0  0  0  0  0  0  0  0  0  0  0
   -0.0804   -1.3398   -0.7662 H   0  0  0  0  0  0  0  0  0  0  0  0
  1  3  1  0  0  0  0
  1  5  1  0  0  0  0
  2  1  1  0  0  0  0
  2  8  1  0  0  0  0
  4  1  1  0  0  0  0
  6  2  1  0  0  0  0
  6  9  1  0  0  0  0
  6 10  1  0  0  0  0
  7  2  1  0  0  0  0
  9 12  1  0  0  0  0
 11  6  1  0  0  0  0
 13  9  1  0  0  0  0
 14  9  1  0  0  0  0
M  END
$$$$
