14
butane_opt
C  -3.946931   0.263329   0.039203
C  -2.708696  -0.606446   0.026268
H  -4.884759  -0.342794  -0.078194
H  -3.944615   0.700899  -0.732091
H  -3.997683   1.047591   0.978112
C  -1.411488   0.185756  -0.027702
H  -2.686501  -1.288252  -0.835926
H  -2.721353  -1.230201   0.918648
C  -0.147950  -0.697107   0.058549
H  -1.379654   0.850261   0.775457
H  -1.369100   0.826095  -0.937077
H  -0.110620  -1.380357   0.998667
H   0.762666  -0.110875   0.005977
H  -0.108948  -1.300865  -0.781070
