14
butane_opt
C  -3.935647   0.258234   0.032295
C  -2.697181  -0.595354   0.030169
H  -4.881740  -0.396700   0.026157
H  -3.934205   0.860465  -0.861091
H  -3.933533   0.922693   0.912447
C  -1.408392   0.183735  -0.004754
H  -2.753147  -1.254694  -0.793681
H  -2.697969  -1.229525   0.911109
C  -0.172255  -0.703402   0.047608
H  -1.421921   0.826115   0.799374
H  -1.347326   0.896056  -0.967331
H  -0.154874  -1.238112   0.892211
H   0.749739  -0.093988   0.107014
H  -0.085704  -1.489705  -0.864287
