butane_opt
 OpenBabel08242015403D

 14 13  0  0  0  0  0  0  0  0999 V2000
   -3.9549    0.2503    0.0089 C   0  0  0  0  0  0  0  0  0  0  0  0
   -2.7046   -0.6094    0.0365 C   0  0  0  0  0  0  0  0  0  0  0  0
   -4.8422   -0.3478    0.1640 H   0  0  0  0  0  0  0  0  0  0  0  0
   -4.0575    1.0104   -0.9842 H   0  0  0  0  0  0  0  0  0  0  0  0
   -3.8810    0.8106    0.8173 H   0  0  0  0  0  0  0  0  0  0  0  0
   -1.4015    0.2105    0.0331 C   0  0  0  0  0  0  0  0  0  0  0  0
   -2.6613   -1.3152   -0.8114 H   0  0  0  0  0  0  0  0  0  0  0  0
   -2.7597   -1.2195    0.9332 H   0  0  0  0  0  0  0  0  0  0  0  0
   -0.1531   -0.7022    0.0252 C   0  0  0  0  0  0  0  0  0  0  0  0
   -1.3920    0.8567    0.8697 H   0  0  0  0  0  0  0  0  0  0  0  0
   -1.4036    0.8010   -0.8474 H   0  0  0  0  0  0  0  0  0  0  0  0
   -0.0830   -1.2702    0.8986 H   0  0  0  0  0  0  0  0  0  0  0  0
    0.7334   -0.1499    0.0308 H   0  0  0  0  0  0  0  0  0  0  0  0
   -0.1023   -1.4331   -0.8918 H   0  0  0  0  0  0  0  0  0  0  0  0
  1  2  1  0  0  0  0
  1  3  1  0  0  0  0
  1  5  1  0  0  0  0
  2  8  1  0  0  0  0
  4  1  1  0  0  0  0
  6  2  1  0  0  0  0
  6 10  1  0  0  0  0
  7  2  1  0  0  0  0
  9 13  1  0  0  0  0
  9  6  1  0  0  0  0
  9 12  1  0  0  0  0
 11  6  1  0  0  0  0
 14  9  1  0  0  0  0
M  END
$$$$
