butane_opt
 OpenBabel08242015403D

 14 13  0  0  0  0  0  0  0  0999 V2000
   -3.9589    0.2801    0.0522 C   0  0  0  0  0  0  0  0  0  0  0  0
   -2.6977   -0.6362    0.0080 C   0  0  0  0  0  0  0  0  0  0  0  0
   -4.8701   -0.2784    0.0439 H   0  0  0  0  0  0  0  0  0  0  0  0
   -4.0403    0.8494   -0.8255 H   0  0  0  0  0  0  0  0  0  0  0  0
   -3.9421    0.9844    0.9343 H   0  0  0  0  0  0  0  0  0  0  0  0
   -1.3887    0.1773   -0.0310 C   0  0  0  0  0  0  0  0  0  0  0  0
   -2.7711   -1.3665   -0.8626 H   0  0  0  0  0  0  0  0  0  0  0  0
   -2.6564   -1.2746    0.8978 H   0  0  0  0  0  0  0  0  0  0  0  0
   -0.1621   -0.6838    0.0598 C   0  0  0  0  0  0  0  0  0  0  0  0
   -1.3907    0.8358    0.8030 H   0  0  0  0  0  0  0  0  0  0  0  0
   -1.3857    0.8376   -0.9369 H   0  0  0  0  0  0  0  0  0  0  0  0
   -0.2138   -1.3005    0.9687 H   0  0  0  0  0  0  0  0  0  0  0  0
    0.7541   -0.0833    0.1189 H   0  0  0  0  0  0  0  0  0  0  0  0
   -0.0287   -1.3169   -0.7701 H   0  0  0  0  0  0  0  0  0  0  0  0
  1  5  1  0  0  0  0
  2  1  1  0  0  0  0
  2  8  1  0  0  0  0
  3  1  1  0  0  0  0
  4  1  1  0  0  0  0
  6  2  1  0  0  0  0
  6  9  1  0  0  0  0
  6 10  1  0  0  0  0
  7  2  1  0  0  0  0
  9 13  1  0  0  0  0
  9 12  1  0  0  0  0
 11  6  1  0  0  0  0
 14  9  1  0  0  0  0
M  END
$$$$
