butane_opt
 OpenBabel08242015403D

 14 13  0  0  0  0  0  0  0  0999 V2000
   -3.9303    0.2571   -0.0106 C   0  0  0  0  0  0  0  0  0  0  0  0
   -2.7071   -0.6094    0.0660 C   0  0  0  0  0  0  0  0  0  0  0  0
   -4.8648   -0.3736    0.1014 H   0  0  0  0  0  0  0  0  0  0  0  0
   -3.9765    0.8997   -0.9448 H   0  0  0  0  0  0  0  0  0  0  0  0
   -3.8941    0.8775    0.8389 H   0  0  0  0  0  0  0  0  0  0  0  0
   -1.4150    0.2056    0.0260 C   0  0  0  0  0  0  0  0  0  0  0  0
   -2.6940   -1.2641   -0.7349 H   0  0  0  0  0  0  0  0  0  0  0  0
   -2.6939   -1.2788    0.9800 H   0  0  0  0  0  0  0  0  0  0  0  0
   -0.1582   -0.7054    0.0156 C   0  0  0  0  0  0  0  0  0  0  0  0
   -1.3870    0.8783    0.8810 H   0  0  0  0  0  0  0  0  0  0  0  0
   -1.4306    0.8222   -0.8581 H   0  0  0  0  0  0  0  0  0  0  0  0
   -0.1820   -1.1821    0.8080 H   0  0  0  0  0  0  0  0  0  0  0  0
    0.7043   -0.1634    0.1078 H   0  0  0  0  0  0  0  0  0  0  0  0
   -0.0686   -1.4674   -0.9244 H   0  0  0  0  0  0  0  0  0  0  0  0
  1  2  1  0  0  0  0
  1  3  1  0  0  0  0
  1  5  1  0  0  0  0
  2  8  1  0  0  0  0
  4  1  1  0  0  0  0
  6  2  1  0  0  0  0
  6 10  1  0  0  0  0
  7  2  1  0  0  0  0
  9  6  1  0  0  0  0
  9 13  1  0  0  0  0
  9 12  1  0  0  0  0
 11  6  1  0  0  0  0
 14  9  1  0  0  0  0
M  END
$$$$
