butane_opt
 OpenBabel08242015403D

 14 13  0  0  0  0  0  0  0  0999 V2000
   -3.9302    0.2654    0.0273 C   0  0  0  0  0  0  0  0  0  0  0  0
   -2.6973   -0.6160    0.0277 C   0  0  0  0  0  0  0  0  0  0  0  0
   -4.8501   -0.3501    0.0325 H   0  0  0  0  0  0  0  0  0  0  0  0
   -3.9366    0.8822   -0.8726 H   0  0  0  0  0  0  0  0  0  0  0  0
   -3.9497    0.9234    0.8851 H   0  0  0  0  0  0  0  0  0  0  0  0
   -1.4129    0.1964    0.0101 C   0  0  0  0  0  0  0  0  0  0  0  0
   -2.7392   -1.3386   -0.8783 H   0  0  0  0  0  0  0  0  0  0  0  0
   -2.7487   -1.1974    0.8711 H   0  0  0  0  0  0  0  0  0  0  0  0
   -0.1675   -0.7005    0.0398 C   0  0  0  0  0  0  0  0  0  0  0  0
   -1.4052    0.8477    0.8560 H   0  0  0  0  0  0  0  0  0  0  0  0
   -1.4120    0.7840   -0.8555 H   0  0  0  0  0  0  0  0  0  0  0  0
   -0.0391   -1.4010    0.9892 H   0  0  0  0  0  0  0  0  0  0  0  0
    0.7472   -0.0789   -0.0924 H   0  0  0  0  0  0  0  0  0  0  0  0
   -0.2017   -1.2768   -0.7399 H   0  0  0  0  0  0  0  0  0  0  0  0
  1  2  1  0  0  0  0
  1  3  1  0  0  0  0
  1  5  1  0  0  0  0
  2  8  1  0  0  0  0
  4  1  1  0  0  0  0
  6  2  1  0  0  0  0
  6  9  1  0  0  0  0
  6 10  1  0  0  0  0
  7  2  1  0  0  0  0
  9 12  1  0  0  0  0
 11  6  1  0  0  0  0
 13  9  1  0  0  0  0
 14  9  1  0  0  0  0
M  END
$$$$
