14
butane_opt
C  -3.938587   0.273668   0.053521
C  -2.685622  -0.628412   0.012875
H  -4.838798  -0.324162  -0.008991
H  -4.011655   0.840161  -0.788191
H  -3.978329   1.002102   0.944266
C  -1.399817   0.167662  -0.034454
H  -2.710863  -1.309730  -0.831123
H  -2.674931  -1.224994   0.889429
C  -0.176806  -0.681488   0.069465
H  -1.454281   0.813740   0.762777
H  -1.356051   0.857562  -0.961331
H  -0.210161  -1.257722   0.918998
H   0.751919  -0.092577   0.092438
H  -0.127937  -1.356473  -0.796544
