14
butane_opt
C  -3.938209   0.271270  -0.006399
C  -2.694965  -0.630624   0.056855
H  -4.844116  -0.298595   0.146198
H  -4.037248   1.015657  -1.000752
H  -3.914803   0.832124   0.780615
C  -1.395748   0.183880   0.040608
H  -2.703855  -1.302928  -0.793237
H  -2.755668  -1.258726   0.950606
C  -0.174827  -0.693749   0.007920
H  -1.354974   0.951466   0.957050
H  -1.444374   0.750072  -0.831866
H  -0.150795  -1.266154   0.884923
H   0.763514  -0.063406   0.006891
H  -0.143208  -1.391502  -0.863629
