butane_opt
 OpenBabel08242015403D

 14 13  0  0  0  0  0  0  0  0999 V2000
   -3.9465    0.2783    0.0415 C   0  0  0  0  0  0  0  0  0  0  0  0
   -2.7005   -0.6237    0.0137 C   0  0  0  0  0  0  0  0  0  0  0  0
   -4.8723   -0.3346    0.0355 H   0  0  0  0  0  0  0  0  0  0  0  0
   -3.9764    0.8287   -0.8066 H   0  0  0  0  0  0  0  0  0  0  0  0
   -3.9375    1.0014    0.9611 H   0  0  0  0  0  0  0  0  0  0  0  0
   -1.4004    0.1699   -0.0299 C   0  0  0  0  0  0  0  0  0  0  0  0
   -2.7418   -1.3093   -0.8399 H   0  0  0  0  0  0  0  0  0  0  0  0
   -2.6165   -1.2407    0.9229 H   0  0  0  0  0  0  0  0  0  0  0  0
   -0.1715   -0.6896    0.0670 C   0  0  0  0  0  0  0  0  0  0  0  0
   -1.4113    0.8153    0.7924 H   0  0  0  0  0  0  0  0  0  0  0  0
   -1.3349    0.8179   -0.9375 H   0  0  0  0  0  0  0  0  0  0  0  0
   -0.1934   -1.2469    0.9278 H   0  0  0  0  0  0  0  0  0  0  0  0
    0.7821   -0.0723    0.0520 H   0  0  0  0  0  0  0  0  0  0  0  0
   -0.0973   -1.3465   -0.7822 H   0  0  0  0  0  0  0  0  0  0  0  0
  1  5  1  0  0  0  0
  2  1  1  0  0  0  0
  2  8  1  0  0  0  0
  3  1  1  0  0  0  0
  4  1  1  0  0  0  0
  6  2  1  0  0  0  0
  6  9  1  0  0  0  0
  6 10  1  0  0  0  0
  7  2  1  0  0  0  0
  9 12  1  0  0  0  0
 11  6  1  0  0  0  0
 13  9  1  0  0  0  0
 14  9  1  0  0  0  0
M  END
$$$$
