butane_opt
 OpenBabel08242015403D

 14 13  0  0  0  0  0  0  0  0999 V2000
   -3.9451    0.2684   -0.0250 C   0  0  0  0  0  0  0  0  0  0  0  0
   -2.6898   -0.6145    0.0594 C   0  0  0  0  0  0  0  0  0  0  0  0
   -4.8290   -0.3100    0.0443 H   0  0  0  0  0  0  0  0  0  0  0  0
   -3.9415    0.9249   -0.9308 H   0  0  0  0  0  0  0  0  0  0  0  0
   -3.9612    0.9477    0.8443 H   0  0  0  0  0  0  0  0  0  0  0  0
   -1.4129    0.1658    0.0673 C   0  0  0  0  0  0  0  0  0  0  0  0
   -2.6605   -1.2938   -0.7677 H   0  0  0  0  0  0  0  0  0  0  0  0
   -2.7638   -1.2965    1.0162 H   0  0  0  0  0  0  0  0  0  0  0  0
   -0.1653   -0.6824   -0.0073 C   0  0  0  0  0  0  0  0  0  0  0  0
   -1.3553    0.8681    0.9490 H   0  0  0  0  0  0  0  0  0  0  0  0
   -1.4156    0.7515   -0.7948 H   0  0  0  0  0  0  0  0  0  0  0  0
   -0.0812   -1.3586    0.9308 H   0  0  0  0  0  0  0  0  0  0  0  0
    0.7736   -0.0497   -0.1300 H   0  0  0  0  0  0  0  0  0  0  0  0
   -0.2419   -1.2886   -0.8477 H   0  0  0  0  0  0  0  0  0  0  0  0
  1  3  1  0  0  0  0
  1  2  1  0  0  0  0
  1  5  1  0  0  0  0
  2  6  1  0  0  0  0
  2  8  1  0  0  0  0
  4  1  1  0  0  0  0
  6 10  1  0  0  0  0
  7  2  1  0  0  0  0
  9  6  1  0  0  0  0
  9 12  1  0  0  0  0
 11  6  1  0  0  0  0
 13  9  1  0  0  0  0
 14  9  1  0  0  0  0
M  END
$$$$
