14
butane_opt
C  -3.957058   0.278578  -0.001668
C  -2.711835  -0.634077   0.069236
H  -4.838231  -0.294807   0.055448
H  -3.965943   0.953874  -0.961459
H  -3.976481   0.905813   0.822333
C  -1.393606   0.169372   0.029253
H  -2.684024  -1.269554  -0.768939
H  -2.722824  -1.280079   0.979893
C  -0.150220  -0.685938   0.010533
H  -1.405261   0.852393   0.886802
H  -1.344245   0.840927  -0.889463
H  -0.152803  -1.188001   0.815909
H   0.779013  -0.042633   0.131086
H  -0.168383  -1.482970  -0.936989
