butane_opt
 OpenBabel08242015403D

 14 13  0  0  0  0  0  0  0  0999 V2000
   -3.9310    0.2481    0.0160 C   0  0  0  0  0  0  0  0  0  0  0  0
   -2.6966   -0.5997    0.0527 C   0  0  0  0  0  0  0  0  0  0  0  0
   -4.8590   -0.3785    0.0906 H   0  0  0  0  0  0  0  0  0  0  0  0
   -3.9276    0.9336   -0.9491 H   0  0  0  0  0  0  0  0  0  0  0  0
   -3.9690    0.8776    0.8736 H   0  0  0  0  0  0  0  0  0  0  0  0
   -1.4152    0.1989    0.0097 C   0  0  0  0  0  0  0  0  0  0  0  0
   -2.6810   -1.2800   -0.8180 H   0  0  0  0  0  0  0  0  0  0  0  0
   -2.7113   -1.2199    0.9268 H   0  0  0  0  0  0  0  0  0  0  0  0
   -0.1701   -0.7037    0.0238 C   0  0  0  0  0  0  0  0  0  0  0  0
   -1.3893    0.8399    0.8440 H   0  0  0  0  0  0  0  0  0  0  0  0
   -1.4268    0.8464   -0.8963 H   0  0  0  0  0  0  0  0  0  0  0  0
   -0.1652   -1.2208    0.8651 H   0  0  0  0  0  0  0  0  0  0  0  0
    0.7238   -0.1258    0.1440 H   0  0  0  0  0  0  0  0  0  0  0  0
   -0.0543   -1.4710   -0.8755 H   0  0  0  0  0  0  0  0  0  0  0  0
  1  2  1  0  0  0  0
  1  3  1  0  0  0  0
  1  5  1  0  0  0  0
  2  8  1  0  0  0  0
  4  1  1  0  0  0  0
  6  9  1  0  0  0  0
  6  2  1  0  0  0  0
  6 10  1  0  0  0  0
  7  2  1  0  0  0  0
  9 13  1  0  0  0  0
  9 12  1  0  0  0  0
 11  6  1  0  0  0  0
 14  9  1  0  0  0  0
M  END
$$$$
