14
butane_opt
C  -3.944304   0.255673   0.035124
C  -2.713262  -0.608474   0.024714
H  -4.836444  -0.297232   0.090749
H  -3.998109   0.854235  -0.856060
H  -3.917872   0.952195   0.899551
C  -1.408858   0.193387  -0.014253
H  -2.761369  -1.321282  -0.852433
H  -2.749728  -1.218854   0.904073
C  -0.143986  -0.701326   0.050405
H  -1.420233   0.826002   0.799561
H  -1.340021   0.859525  -0.916032
H  -0.124511  -1.290547   0.918228
H   0.740748  -0.126109   0.112979
H  -0.091753  -1.380723  -0.810295
