14
butane_opt
C  -3.933387   0.275847   0.047754
C  -2.702439  -0.621427  -0.008440
H  -4.808472  -0.302020   0.235282
H  -4.049417   0.934870  -0.852866
H  -3.887990   0.893720   0.874735
C  -1.401483   0.166663  -0.013636
H  -2.694993  -1.380194  -0.914662
H  -2.698214  -1.208029   0.847663
C  -0.181948  -0.682754   0.069757
H  -1.397649   0.844018   0.798148
H  -1.359535   0.821740  -0.928602
H  -0.156179  -1.329239   0.977010
H   0.768225  -0.063839   0.038484
H  -0.120759  -1.329629  -0.773809
