butane_opt
 OpenBabel08242015403D

 14 13  0  0  0  0  0  0  0  0999 V2000
   -3.9437    0.2772    0.0514 C   0  0  0  0  0  0  0  0  0  0  0  0
   -2.7079   -0.6398    0.0205 C   0  0  0  0  0  0  0  0  0  0  0  0
   -4.8347   -0.2832    0.0452 H   0  0  0  0  0  0  0  0  0  0  0  0
   -4.0624    0.8864   -0.8412 H   0  0  0  0  0  0  0  0  0  0  0  0
   -3.9816    0.9774    0.9386 H   0  0  0  0  0  0  0  0  0  0  0  0
   -1.3947    0.1781   -0.0378 C   0  0  0  0  0  0  0  0  0  0  0  0
   -2.7214   -1.3477   -0.8730 H   0  0  0  0  0  0  0  0  0  0  0  0
   -2.7212   -1.2112    0.8766 H   0  0  0  0  0  0  0  0  0  0  0  0
   -0.1535   -0.6866    0.0638 C   0  0  0  0  0  0  0  0  0  0  0  0
   -1.3805    0.8143    0.7967 H   0  0  0  0  0  0  0  0  0  0  0  0
   -1.3727    0.8313   -0.9452 H   0  0  0  0  0  0  0  0  0  0  0  0
   -0.2231   -1.2568    0.9325 H   0  0  0  0  0  0  0  0  0  0  0  0
    0.7401   -0.0877    0.1404 H   0  0  0  0  0  0  0  0  0  0  0  0
   -0.0673   -1.3428   -0.8042 H   0  0  0  0  0  0  0  0  0  0  0  0
  1  5  1  0  0  0  0
  2  1  1  0  0  0  0
  2  8  1  0  0  0  0
  3  1  1  0  0  0  0
  4  1  1  0  0  0  0
  6  2  1  0  0  0  0
  6  9  1  0  0  0  0
  6 10  1  0  0  0  0
  7  2  1  0  0  0  0
  9 13  1  0  0  0  0
  9 12  1  0  0  0  0
 11  6  1  0  0  0  0
 14  9  1  0  0  0  0
M  END
$$$$
