14
butane_opt
C  -3.924819   0.258300   0.040289
C  -2.701772  -0.607360  -0.009382
H  -4.872247  -0.377392   0.200678
H  -4.045704   0.899452  -0.841210
H  -3.843343   0.835546   0.871606
C  -1.418500   0.205114  -0.007588
H  -2.752180  -1.272375  -0.866336
H  -2.659691  -1.240560   0.870166
C  -0.162122  -0.703266   0.057562
H  -1.461078   0.872007   0.851342
H  -1.385078   0.804744  -0.893882
H  -0.104840  -1.365465   0.978917
H   0.706968  -0.122100   0.067760
H  -0.117685  -1.341511  -0.773138
