butane_opt
 OpenBabel08242015403D

 14 13  0  0  0  0  0  0  0  0999 V2000
   -3.9426    0.2733    0.0403 C   0  0  0  0  0  0  0  0  0  0  0  0
   -2.6861   -0.6211   -0.0021 C   0  0  0  0  0  0  0  0  0  0  0  0
   -4.8543   -0.3382    0.0331 H   0  0  0  0  0  0  0  0  0  0  0  0
   -4.0476    0.8335   -0.8075 H   0  0  0  0  0  0  0  0  0  0  0  0
   -3.9302    0.9934    0.9541 H   0  0  0  0  0  0  0  0  0  0  0  0
   -1.4040    0.1765   -0.0080 C   0  0  0  0  0  0  0  0  0  0  0  0
   -2.7749   -1.3104   -0.8796 H   0  0  0  0  0  0  0  0  0  0  0  0
   -2.6680   -1.2483    0.8600 H   0  0  0  0  0  0  0  0  0  0  0  0
   -0.1630   -0.6911    0.0638 C   0  0  0  0  0  0  0  0  0  0  0  0
   -1.4394    0.8520    0.8258 H   0  0  0  0  0  0  0  0  0  0  0  0
   -1.3685    0.7931   -0.8733 H   0  0  0  0  0  0  0  0  0  0  0  0
   -0.1151   -1.4164    1.0321 H   0  0  0  0  0  0  0  0  0  0  0  0
    0.7733   -0.0459   -0.1270 H   0  0  0  0  0  0  0  0  0  0  0  0
   -0.2468   -1.2270   -0.6968 H   0  0  0  0  0  0  0  0  0  0  0  0
  1  5  1  0  0  0  0
  2  1  1  0  0  0  0
  2  8  1  0  0  0  0
  3  1  1  0  0  0  0
  4  1  1  0  0  0  0
  6  2  1  0  0  0  0
  6  9  1  0  0  0  0
  6 10  1  0  0  0  0
  7  2  1  0  0  0  0
  9 12  1  0  0  0  0
 11  6  1  0  0  0  0
 13  9  1  0  0  0  0
 14  9  1  0  0  0  0
M  END
$$$$
