14
butane_opt
C  -3.959834   0.274693   0.001222
C  -2.702082  -0.634299   0.072734
H  -4.837430  -0.279833   0.075601
H  -3.962281   0.946980  -0.935493
H  -3.992205   0.895330   0.838052
C  -1.391960   0.176728   0.012511
H  -2.708778  -1.301477  -0.774879
H  -2.719548  -1.263900   0.959626
C  -0.155314  -0.686310   0.011030
H  -1.379120   0.875544   0.845989
H  -1.382412   0.792095  -0.864840
H  -0.196675  -1.164744   0.837336
H   0.736736  -0.104761   0.196604
H  -0.076123  -1.437960  -0.920351
