14
butane_opt
C  -3.965999   0.275097   0.036419
C  -2.693884  -0.625340   0.023072
H  -4.877595  -0.330464  -0.038643
H  -4.029452   0.811569  -0.784157
H  -4.005612   1.024567   0.934016
C  -1.386095   0.171146  -0.008553
H  -2.710256  -1.303336  -0.831393
H  -2.681138  -1.253648   0.909470
C  -0.153422  -0.682875   0.048488
H  -1.383120   0.773595   0.789410
H  -1.390234   0.848299  -0.956440
H  -0.144137  -1.282600   0.965421
H   0.727136  -0.092384   0.051176
H  -0.133209  -1.328399  -0.782404
