14
butane_opt
C  -3.947346   0.268823   0.021434
C  -2.695060  -0.632213   0.032157
H  -4.840443  -0.301129   0.138384
H  -4.004705   0.989163  -0.934308
H  -4.030472   0.859344   0.825545
C  -1.405186   0.176810   0.015383
H  -2.745421  -1.330213  -0.837136
H  -2.711632  -1.192483   0.900815
C  -0.152449  -0.684112   0.032776
H  -1.398505   0.893975   0.894021
H  -1.379737   0.802283  -0.880871
H  -0.120438  -1.311646   0.922286
H   0.744285  -0.064548   0.021041
H  -0.138673  -1.368392  -0.838026
