butane_opt
 OpenBabel08242015403D

 14 13  0  0  0  0  0  0  0  0999 V2000
   -3.9588    0.2746    0.0011 C   0  0  0  0  0  0  0  0  0  0  0  0
   -2.7007   -0.6317    0.0425 C   0  0  0  0  0  0  0  0  0  0  0  0
   -4.7928   -0.2776    0.2044 H   0  0  0  0  0  0  0  0  0  0  0  0
   -4.0286    0.9869   -0.9593 H   0  0  0  0  0  0  0  0  0  0  0  0
   -3.9349    0.8214    0.7713 H   0  0  0  0  0  0  0  0  0  0  0  0
   -1.4007    0.1774    0.0396 C   0  0  0  0  0  0  0  0  0  0  0  0
   -2.6357   -1.2978   -0.8230 H   0  0  0  0  0  0  0  0  0  0  0  0
   -2.7244   -1.2535    0.9174 H   0  0  0  0  0  0  0  0  0  0  0  0
   -0.1552   -0.6862    0.0208 C   0  0  0  0  0  0  0  0  0  0  0  0
   -1.3947    0.8647    0.8976 H   0  0  0  0  0  0  0  0  0  0  0  0
   -1.3871    0.7770   -0.8337 H   0  0  0  0  0  0  0  0  0  0  0  0
   -0.1326   -1.2537    0.8796 H   0  0  0  0  0  0  0  0  0  0  0  0
    0.7916   -0.0467    0.0070 H   0  0  0  0  0  0  0  0  0  0  0  0
   -0.2088   -1.3871   -0.8753 H   0  0  0  0  0  0  0  0  0  0  0  0
  1  2  1  0  0  0  0
  1  3  1  0  0  0  0
  1  5  1  0  0  0  0
  2  8  1  0  0  0  0
  4  1  1  0  0  0  0
  6  2  1  0  0  0  0
  6 10  1  0  0  0  0
  7  2  1  0  0  0  0
  9  6  1  0  0  0  0
  9 12  1  0  0  0  0
 11  6  1  0  0  0  0
 13  9  1  0  0  0  0
 14  9  1  0  0  0  0
M  END
$$$$
