14
butane_opt
C  -3.938102   0.266725   0.026045
C  -2.706582  -0.608833   0.032299
H  -4.843499  -0.340430  -0.038604
H  -3.924055   0.746057  -0.757454
H  -3.961849   1.054653   0.958090
C  -1.406795   0.173975  -0.013208
H  -2.667688  -1.272706  -0.805746
H  -2.690694  -1.269390   0.955828
C  -0.164572  -0.690588   0.041545
H  -1.401693   0.840954   0.827492
H  -1.360876   0.827366  -0.941843
H  -0.195019  -1.326832   0.987060
H   0.724843  -0.090107   0.027053
H  -0.111798  -1.344251  -0.798433
