butane_opt
 OpenBabel08242015403D

 14 13  0  0  0  0  0  0  0  0999 V2000
   -3.9398    0.2731    0.0490 C   0  0  0  0  0  0  0  0  0  0  0  0
   -2.6836   -0.6291   -0.0027 C   0  0  0  0  0  0  0  0  0  0  0  0
   -4.8656   -0.3043    0.1396 H   0  0  0  0  0  0  0  0  0  0  0  0
   -4.0567    0.9025   -0.8670 H   0  0  0  0  0  0  0  0  0  0  0  0
   -3.9271    0.8889    0.8666 H   0  0  0  0  0  0  0  0  0  0  0  0
   -1.4031    0.1773   -0.0138 C   0  0  0  0  0  0  0  0  0  0  0  0
   -2.7362   -1.3113   -0.8509 H   0  0  0  0  0  0  0  0  0  0  0  0
   -2.6702   -1.2083    0.8470 H   0  0  0  0  0  0  0  0  0  0  0  0
   -0.1763   -0.6890    0.0536 C   0  0  0  0  0  0  0  0  0  0  0  0
   -1.3780    0.8683    0.8653 H   0  0  0  0  0  0  0  0  0  0  0  0
   -1.3891    0.8105   -0.8996 H   0  0  0  0  0  0  0  0  0  0  0  0
   -0.1827   -1.3433    0.9922 H   0  0  0  0  0  0  0  0  0  0  0  0
    0.7451   -0.0850    0.0696 H   0  0  0  0  0  0  0  0  0  0  0  0
   -0.1309   -1.2781   -0.7525 H   0  0  0  0  0  0  0  0  0  0  0  0
  1  3  1  0  0  0  0
  1  5  1  0  0  0  0
  2  1  1  0  0  0  0
  2  8  1  0  0  0  0
  4  1  1  0  0  0  0
  6  2  1  0  0  0  0
  6  9  1  0  0  0  0
  6 10  1  0  0  0  0
  7  2  1  0  0  0  0
  9 13  1  0  0  0  0
  9 12  1  0  0  0  0
 11  6  1  0  0  0  0
 14  9  1  0  0  0  0
M  END
$$$$
