14
butane_opt
C  -3.950395   0.255391   0.050712
C  -2.708835  -0.604941   0.008703
H  -4.857335  -0.346740   0.098987
H  -4.005369   0.872945  -0.846223
H  -3.977626   0.901592   0.913452
C  -1.399680   0.189275  -0.028302
H  -2.813273  -1.323101  -0.863717
H  -2.654391  -1.195399   0.884691
C  -0.139429  -0.700754   0.063893
H  -1.444470   0.857609   0.801621
H  -1.388692   0.918370  -0.966890
H  -0.187505  -1.278404   0.936974
H   0.755597  -0.130746   0.146521
H  -0.061711  -1.424960  -0.815931
