butane_opt
 OpenBabel08242015403D

 14 13  0  0  0  0  0  0  0  0999 V2000
   -3.9425    0.2786    0.0003 C   0  0  0  0  0  0  0  0  0  0  0  0
   -2.6865   -0.6306    0.0620 C   0  0  0  0  0  0  0  0  0  0  0  0
   -4.8439   -0.3195    0.0540 H   0  0  0  0  0  0  0  0  0  0  0  0
   -3.9446    0.9026   -0.8951 H   0  0  0  0  0  0  0  0  0  0  0  0
   -3.9767    0.9319    0.8404 H   0  0  0  0  0  0  0  0  0  0  0  0
   -1.4106    0.1657    0.0163 C   0  0  0  0  0  0  0  0  0  0  0  0
   -2.7222   -1.2439   -0.7496 H   0  0  0  0  0  0  0  0  0  0  0  0
   -2.7065   -1.2805    0.9717 H   0  0  0  0  0  0  0  0  0  0  0  0
   -0.1712   -0.6842    0.0251 C   0  0  0  0  0  0  0  0  0  0  0  0
   -1.3880    0.8376    0.8616 H   0  0  0  0  0  0  0  0  0  0  0  0
   -1.4265    0.8038   -0.9189 H   0  0  0  0  0  0  0  0  0  0  0  0
   -0.1643   -1.1510    0.8111 H   0  0  0  0  0  0  0  0  0  0  0  0
    0.8151   -0.0432    0.1349 H   0  0  0  0  0  0  0  0  0  0  0  0
   -0.1519   -1.4562   -0.9238 H   0  0  0  0  0  0  0  0  0  0  0  0
  1  3  1  0  0  0  0
  1  2  1  0  0  0  0
  1  5  1  0  0  0  0
  2  8  1  0  0  0  0
  4  1  1  0  0  0  0
  6  9  1  0  0  0  0
  6  2  1  0  0  0  0
  6 10  1  0  0  0  0
  7  2  1  0  0  0  0
  9 13  1  0  0  0  0
  9 12  1  0  0  0  0
 11  6  1  0  0  0  0
 14  9  1  0  0  0  0
M  END
$$$$
