14
butane_opt
C  -3.961529   0.279496  -0.001840
C  -2.704546  -0.634367   0.051088
H  -4.873707  -0.321558   0.077238
H  -3.988565   0.981179  -0.944230
H  -3.957307   0.873826   0.791125
C  -1.389286   0.174560   0.039062
H  -2.690915  -1.264596  -0.785600
H  -2.727329  -1.314424   1.001150
C  -0.150835  -0.682859   0.008868
H  -1.404232   0.906974   0.942114
H  -1.361775   0.773769  -0.815640
H  -0.123095  -1.262230   0.858679
H   0.744709  -0.112794   0.006905
H  -0.168949  -1.373785  -0.875213
