butane_opt
 OpenBabel08242015403D

 14 13  0  0  0  0  0  0  0  0999 V2000
   -3.9480    0.2487   -0.0185 C   0  0  0  0  0  0  0  0  0  0  0  0
   -2.7106   -0.6003    0.0591 C   0  0  0  0  0  0  0  0  0  0  0  0
   -4.8359   -0.3205    0.1311 H   0  0  0  0  0  0  0  0  0  0  0  0
   -4.0036    0.9643   -0.9854 H   0  0  0  0  0  0  0  0  0  0  0  0
   -3.8978    0.8432    0.7957 H   0  0  0  0  0  0  0  0  0  0  0  0
   -1.4083    0.1981    0.0526 C   0  0  0  0  0  0  0  0  0  0  0  0
   -2.7305   -1.2681   -0.7760 H   0  0  0  0  0  0  0  0  0  0  0  0
   -2.7564   -1.2468    0.9822 H   0  0  0  0  0  0  0  0  0  0  0  0
   -0.1508   -0.7038    0.0021 C   0  0  0  0  0  0  0  0  0  0  0  0
   -1.3284    0.9449    0.9532 H   0  0  0  0  0  0  0  0  0  0  0  0
   -1.3938    0.7905   -0.8002 H   0  0  0  0  0  0  0  0  0  0  0  0
   -0.0616   -1.3544    0.8827 H   0  0  0  0  0  0  0  0  0  0  0  0
    0.7657   -0.1277   -0.0145 H   0  0  0  0  0  0  0  0  0  0  0  0
   -0.1668   -1.4069   -0.8818 H   0  0  0  0  0  0  0  0  0  0  0  0
  1  2  1  0  0  0  0
  1  3  1  0  0  0  0
  1  5  1  0  0  0  0
  2  8  1  0  0  0  0
  4  1  1  0  0  0  0
  6  2  1  0  0  0  0
  6 10  1  0  0  0  0
  7  2  1  0  0  0  0
  9  6  1  0  0  0  0
  9 12  1  0  0  0  0
 11  6  1  0  0  0  0
 13  9  1  0  0  0  0
 14  9  1  0  0  0  0
M  END
$$$$
