14
butane_opt
C  -3.957047   0.264622   0.048380
C  -2.709261  -0.605319  -0.005731
H  -4.890033  -0.336218   0.205215
H  -4.046573   0.900227  -0.862377
H  -3.907184   0.881333   0.895745
C  -1.386401   0.189768  -0.017482
H  -2.767820  -1.396176  -0.907235
H  -2.683330  -1.170330   0.830935
C  -0.153408  -0.700442   0.063399
H  -1.400295   0.836605   0.815870
H  -1.375293   0.818767  -0.904117
H  -0.154293  -1.371050   1.026764
H   0.734529  -0.105571   0.026009
H  -0.059622  -1.308686  -0.748044
