14
butane_opt
C  -3.956509   0.276060   0.046403
C  -2.698032  -0.636488  -0.002281
H  -4.845825  -0.278380   0.140987
H  -4.048807   0.934085  -0.844541
H  -3.916067   0.907924   0.895981
C  -1.385144   0.176780  -0.009640
H  -2.699019  -1.346320  -0.854313
H  -2.715900  -1.207631   0.843046
C  -0.167704  -0.681819   0.061681
H  -1.400084   0.798620   0.819471
H  -1.357911   0.857572  -0.924002
H  -0.174421  -1.307416   0.957926
H   0.710474  -0.098424   0.030058
H  -0.095372  -1.342384  -0.783261
