butane_opt
 OpenBabel08242015403D

 14 13  0  0  0  0  0  0  0  0999 V2000
   -3.9532    0.2722    0.0087 C   0  0  0  0  0  0  0  0  0  0  0  0
   -2.6987   -0.6342    0.0321 C   0  0  0  0  0  0  0  0  0  0  0  0
   -4.8405   -0.3000    0.1470 H   0  0  0  0  0  0  0  0  0  0  0  0
   -4.0790    1.0084   -0.9629 H   0  0  0  0  0  0  0  0  0  0  0  0
   -3.9223    0.8639    0.8097 H   0  0  0  0  0  0  0  0  0  0  0  0
   -1.4008    0.1766    0.0324 C   0  0  0  0  0  0  0  0  0  0  0  0
   -2.7072   -1.2577   -0.7879 H   0  0  0  0  0  0  0  0  0  0  0  0
   -2.6559   -1.3192    0.9329 H   0  0  0  0  0  0  0  0  0  0  0  0
   -0.1612   -0.6802    0.0233 C   0  0  0  0  0  0  0  0  0  0  0  0
   -1.3597    0.8979    0.9149 H   0  0  0  0  0  0  0  0  0  0  0  0
   -1.3376    0.7893   -0.8572 H   0  0  0  0  0  0  0  0  0  0  0  0
   -0.1412   -1.2588    0.9249 H   0  0  0  0  0  0  0  0  0  0  0  0
    0.7324   -0.0950    0.0431 H   0  0  0  0  0  0  0  0  0  0  0  0
   -0.1471   -1.4140   -0.9058 H   0  0  0  0  0  0  0  0  0  0  0  0
  1  2  1  0  0  0  0
  1  3  1  0  0  0  0
  1  5  1  0  0  0  0
  2  6  1  0  0  0  0
  2  8  1  0  0  0  0
  4  1  1  0  0  0  0
  6 10  1  0  0  0  0
  7  2  1  0  0  0  0
  9  6  1  0  0  0  0
  9 13  1  0  0  0  0
  9 12  1  0  0  0  0
 11  6  1  0  0  0  0
 14  9  1  0  0  0  0
M  END
$$$$
