butane_opt
 OpenBabel08242015403D

 14 13  0  0  0  0  0  0  0  0999 V2000
   -3.9295    0.2544    0.0373 C   0  0  0  0  0  0  0  0  0  0  0  0
   -2.6952   -0.6110    0.0196 C   0  0  0  0  0  0  0  0  0  0  0  0
   -4.8376   -0.3671    0.0968 H   0  0  0  0  0  0  0  0  0  0  0  0
   -3.9997    0.9740   -0.9509 H   0  0  0  0  0  0  0  0  0  0  0  0
   -3.9196    0.8675    0.8524 H   0  0  0  0  0  0  0  0  0  0  0  0
   -1.4186    0.1944    0.0064 C   0  0  0  0  0  0  0  0  0  0  0  0
   -2.7896   -1.2925   -0.8523 H   0  0  0  0  0  0  0  0  0  0  0  0
   -2.6930   -1.2066    0.8810 H   0  0  0  0  0  0  0  0  0  0  0  0
   -0.1563   -0.6965    0.0437 C   0  0  0  0  0  0  0  0  0  0  0  0
   -1.4070    0.8732    0.8459 H   0  0  0  0  0  0  0  0  0  0  0  0
   -1.4230    0.8017   -0.8922 H   0  0  0  0  0  0  0  0  0  0  0  0
   -0.1513   -1.2969    0.9535 H   0  0  0  0  0  0  0  0  0  0  0  0
    0.7253   -0.1480    0.0416 H   0  0  0  0  0  0  0  0  0  0  0  0
   -0.1261   -1.3723   -0.8310 H   0  0  0  0  0  0  0  0  0  0  0  0
  1  3  1  0  0  0  0
  1  5  1  0  0  0  0
  2  1  1  0  0  0  0
  2  8  1  0  0  0  0
  4  1  1  0  0  0  0
  6  2  1  0  0  0  0
  6  9  1  0  0  0  0
  6 10  1  0  0  0  0
  7  2  1  0  0  0  0
  9 12  1  0  0  0  0
 11  6  1  0  0  0  0
 13  9  1  0  0  0  0
 14  9  1  0  0  0  0
M  END
$$$$
