14
butane_opt
C  -3.951269   0.258895   0.029475
C  -2.685534  -0.615580   0.020369
H  -4.872909  -0.349953   0.051099
H  -3.960638   0.796403  -0.817108
H  -3.923362   0.999492   0.936084
C  -1.407766   0.193842  -0.012486
H  -2.737611  -1.274994  -0.845789
H  -2.699088  -1.200598   0.900013
C  -0.166084  -0.695157   0.051560
H  -1.385033   0.869508   0.852704
H  -1.407782   0.812766  -0.883783
H  -0.151112  -1.406306   1.001193
H   0.747877  -0.125906  -0.027002
H  -0.105534  -1.300771  -0.779068
