butane_opt
 OpenBabel08242015403D

 14 13  0  0  0  0  0  0  0  0999 V2000
   -3.9255    0.2585    0.0426 C   0  0  0  0  0  0  0  0  0  0  0  0
   -2.6985   -0.6117   -0.0019 C   0  0  0  0  0  0  0  0  0  0  0  0
   -4.8512   -0.3616   -0.0004 H   0  0  0  0  0  0  0  0  0  0  0  0
   -3.9595    0.8124   -0.7942 H   0  0  0  0  0  0  0  0  0  0  0  0
   -3.9260    0.9802    0.9614 H   0  0  0  0  0  0  0  0  0  0  0  0
   -1.4083    0.2018   -0.0067 C   0  0  0  0  0  0  0  0  0  0  0  0
   -2.7600   -1.2657   -0.8605 H   0  0  0  0  0  0  0  0  0  0  0  0
   -2.7328   -1.2254    0.8869 H   0  0  0  0  0  0  0  0  0  0  0  0
   -0.1636   -0.7080    0.0595 C   0  0  0  0  0  0  0  0  0  0  0  0
   -1.4395    0.8743    0.8460 H   0  0  0  0  0  0  0  0  0  0  0  0
   -1.3779    0.8213   -0.8873 H   0  0  0  0  0  0  0  0  0  0  0  0
   -0.1318   -1.4241    1.0358 H   0  0  0  0  0  0  0  0  0  0  0  0
    0.7113   -0.1434   -0.1368 H   0  0  0  0  0  0  0  0  0  0  0  0
   -0.1940   -1.2338   -0.7218 H   0  0  0  0  0  0  0  0  0  0  0  0
  1  5  1  0  0  0  0
  2  1  1  0  0  0  0
  2  8  1  0  0  0  0
  3  1  1  0  0  0  0
  4  1  1  0  0  0  0
  6  2  1  0  0  0  0
  6  9  1  0  0  0  0
  6 10  1  0  0  0  0
  7  2  1  0  0  0  0
  9 12  1  0  0  0  0
 11  6  1  0  0  0  0
 13  9  1  0  0  0  0
 14  9  1  0  0  0  0
M  END
$$$$
