butane_opt
 OpenBabel08242015403D

 14 13  0  0  0  0  0  0  0  0999 V2000
   -3.9318    0.2506   -0.0012 C   0  0  0  0  0  0  0  0  0  0  0  0
   -2.6937   -0.6000    0.0356 C   0  0  0  0  0  0  0  0  0  0  0  0
   -4.8630   -0.3558    0.1812 H   0  0  0  0  0  0  0  0  0  0  0  0
   -4.0093    0.9604   -0.9769 H   0  0  0  0  0  0  0  0  0  0  0  0
   -3.8524    0.8270    0.8057 H   0  0  0  0  0  0  0  0  0  0  0  0
   -1.4106    0.1963    0.0439 C   0  0  0  0  0  0  0  0  0  0  0  0
   -2.7170   -1.2581   -0.8055 H   0  0  0  0  0  0  0  0  0  0  0  0
   -2.7471   -1.2473    0.9803 H   0  0  0  0  0  0  0  0  0  0  0  0
   -0.1735   -0.7054    0.0130 C   0  0  0  0  0  0  0  0  0  0  0  0
   -1.3851    0.9132    0.9250 H   0  0  0  0  0  0  0  0  0  0  0  0
   -1.4067    0.8101   -0.8421 H   0  0  0  0  0  0  0  0  0  0  0  0
   -0.1002   -1.2894    0.8720 H   0  0  0  0  0  0  0  0  0  0  0  0
    0.7126   -0.1612    0.0296 H   0  0  0  0  0  0  0  0  0  0  0  0
   -0.1310   -1.3699   -0.8367 H   0  0  0  0  0  0  0  0  0  0  0  0
  1  2  1  0  0  0  0
  1  3  1  0  0  0  0
  1  5  1  0  0  0  0
  2  6  1  0  0  0  0
  2  8  1  0  0  0  0
  4  1  1  0  0  0  0
  6 10  1  0  0  0  0
  7  2  1  0  0  0  0
  9 13  1  0  0  0  0
  9  6  1  0  0  0  0
  9 12  1  0  0  0  0
 11  6  1  0  0  0  0
 14  9  1  0  0  0  0
M  END
$$$$
