14
butane_opt
C  -3.925656   0.253166  -0.005650
C  -2.713331  -0.607289   0.045452
H  -4.832695  -0.344673   0.141005
H  -3.961494   0.993731  -0.966794
H  -3.937911   0.826668   0.794951
C  -1.416016   0.195329   0.043952
H  -2.718544  -1.216873  -0.754790
H  -2.750524  -1.250552   0.976002
C  -0.154536  -0.699814   0.012671
H  -1.356778   0.903033   0.925395
H  -1.416364   0.786693  -0.827892
H  -0.105311  -1.275085   0.864353
H   0.744712  -0.140944   0.022596
H  -0.169497  -1.453512  -0.906132
