butane_opt
 OpenBabel08242015403D

 14 13  0  0  0  0  0  0  0  0999 V2000
   -3.9598    0.2750    0.0293 C   0  0  0  0  0  0  0  0  0  0  0  0
   -2.6933   -0.6400    0.0158 C   0  0  0  0  0  0  0  0  0  0  0  0
   -4.8354   -0.2783    0.1339 H   0  0  0  0  0  0  0  0  0  0  0  0
   -4.0682    0.9778   -0.9185 H   0  0  0  0  0  0  0  0  0  0  0  0
   -3.8994    0.8978    0.8764 H   0  0  0  0  0  0  0  0  0  0  0  0
   -1.4061    0.1809    0.0012 C   0  0  0  0  0  0  0  0  0  0  0  0
   -2.6840   -1.3063   -0.8328 H   0  0  0  0  0  0  0  0  0  0  0  0
   -2.7079   -1.3190    0.9321 H   0  0  0  0  0  0  0  0  0  0  0  0
   -0.1575   -0.6772    0.0434 C   0  0  0  0  0  0  0  0  0  0  0  0
   -1.3718    0.8742    0.8612 H   0  0  0  0  0  0  0  0  0  0  0  0
   -1.3350    0.7972   -0.8631 H   0  0  0  0  0  0  0  0  0  0  0  0
   -0.1628   -1.2777    0.9251 H   0  0  0  0  0  0  0  0  0  0  0  0
    0.7555   -0.0745    0.0676 H   0  0  0  0  0  0  0  0  0  0  0  0
   -0.1224   -1.4164   -0.8324 H   0  0  0  0  0  0  0  0  0  0  0  0
  1  3  1  0  0  0  0
  1  5  1  0  0  0  0
  2  1  1  0  0  0  0
  2  8  1  0  0  0  0
  4  1  1  0  0  0  0
  6  2  1  0  0  0  0
  6  9  1  0  0  0  0
  6 10  1  0  0  0  0
  7  2  1  0  0  0  0
  9 13  1  0  0  0  0
  9 12  1  0  0  0  0
 11  6  1  0  0  0  0
 14  9  1  0  0  0  0
M  END
$$$$
