14
butane_opt
C  -3.943950   0.254958  -0.005357
C  -2.703743  -0.598968   0.047084
H  -4.900737  -0.361837   0.055049
H  -3.954179   0.847300  -0.891872
H  -3.984311   0.904088   0.816505
C  -1.412871   0.193392   0.054038
H  -2.722484  -1.284020  -0.836354
H  -2.778287  -1.232371   0.963270
C  -0.138275  -0.703067   0.012340
H  -1.369574   0.883129   0.904340
H  -1.449150   0.837894  -0.857070
H  -0.022358  -1.385366   0.937983
H   0.747703  -0.124237  -0.128129
H  -0.197312  -1.319594  -0.806121
