14
butane_opt
C  -3.947489   0.276554   0.015753
C  -2.711964  -0.624859   0.036388
H  -4.902315  -0.314045   0.125839
H  -4.033768   0.937912  -0.910805
H  -3.957059   0.899662   0.856242
C  -1.392524   0.178320   0.016063
H  -2.726362  -1.372972  -0.877860
H  -2.736024  -1.227196   0.898098
C  -0.147344  -0.690847   0.027155
H  -1.404135   0.878519   0.877120
H  -1.376383   0.807394  -0.856348
H  -0.113341  -1.352041   0.974347
H   0.787224  -0.072834   0.004744
H  -0.170495  -1.322607  -0.792754
