14
butane_opt
C  -3.947130   0.263127   0.057540
C  -2.706078  -0.615358   0.003539
H  -4.878485  -0.357746   0.103098
H  -4.031525   0.887254  -0.863258
H  -3.902150   0.894394   0.919439
C  -1.407618   0.193566  -0.032896
H  -2.715669  -1.380771  -0.890090
H  -2.676180  -1.172721   0.849461
C  -0.154134  -0.700843   0.070611
H  -1.394373   0.886669   0.810789
H  -1.372595   0.878243  -0.954866
H  -0.153205  -1.333807   0.969577
H   0.745121  -0.112437   0.085314
H  -0.060989  -1.351361  -0.775392
