butane_opt
 OpenBabel08242015403D

 14 13  0  0  0  0  0  0  0  0999 V2000
   -3.9454    0.2775    0.0395 C   0  0  0  0  0  0  0  0  0  0  0  0
   -2.6918   -0.6237    0.0094 C   0  0  0  0  0  0  0  0  0  0  0  0
   -4.8799   -0.3665   -0.0051 H   0  0  0  0  0  0  0  0  0  0  0  0
   -3.9953    0.8228   -0.8281 H   0  0  0  0  0  0  0  0  0  0  0  0
   -3.9506    1.0136    0.9442 H   0  0  0  0  0  0  0  0  0  0  0  0
   -1.4017    0.1725    0.0024 C   0  0  0  0  0  0  0  0  0  0  0  0
   -2.6826   -1.3423   -0.8540 H   0  0  0  0  0  0  0  0  0  0  0  0
   -2.6908   -1.2560    0.8791 H   0  0  0  0  0  0  0  0  0  0  0  0
   -0.1662   -0.6841    0.0563 C   0  0  0  0  0  0  0  0  0  0  0  0
   -1.3897    0.8007    0.8218 H   0  0  0  0  0  0  0  0  0  0  0  0
   -1.4165    0.8794   -0.9379 H   0  0  0  0  0  0  0  0  0  0  0  0
   -0.1429   -1.3600    1.0008 H   0  0  0  0  0  0  0  0  0  0  0  0
    0.7555   -0.0929   -0.0795 H   0  0  0  0  0  0  0  0  0  0  0  0
   -0.1710   -1.2732   -0.7773 H   0  0  0  0  0  0  0  0  0  0  0  0
  1  5  1  0  0  0  0
  2  1  1  0  0  0  0
  2  8  1  0  0  0  0
  3  1  1  0  0  0  0
  4  1  1  0  0  0  0
  6  2  1  0  0  0  0
  6  9  1  0  0  0  0
  6 10  1  0  0  0  0
  7  2  1  0  0  0  0
  9 12  1  0  0  0  0
 11  6  1  0  0  0  0
 13  9  1  0  0  0  0
 14  9  1  0  0  0  0
M  END
$$$$
