14
butane_opt
C  -3.959741   0.265952  -0.015959
C  -2.702395  -0.619945   0.094837
H  -4.844948  -0.283539  -0.113468
H  -3.868769   0.856679  -0.908122
H  -4.063471   0.973206   0.852728
C  -1.389888   0.178324   0.034142
H  -2.723973  -1.281924  -0.761160
H  -2.759846  -1.252225   1.012597
C  -0.154181  -0.692541  -0.004567
H  -1.376287   0.886794   0.923428
H  -1.388859   0.814665  -0.848413
H  -0.074324  -1.279173   0.857875
H   0.760765  -0.086856  -0.004330
H  -0.213446  -1.401240  -0.872029
