butane_opt
 OpenBabel08242015403D

 14 13  0  0  0  0  0  0  0  0999 V2000
   -3.9368    0.2420   -0.0011 C   0  0  0  0  0  0  0  0  0  0  0  0
   -2.7004   -0.5982    0.0516 C   0  0  0  0  0  0  0  0  0  0  0  0
   -4.8186   -0.3237    0.0304 H   0  0  0  0  0  0  0  0  0  0  0  0
   -3.9049    0.9010   -0.9198 H   0  0  0  0  0  0  0  0  0  0  0  0
   -3.9832    0.8938    0.8538 H   0  0  0  0  0  0  0  0  0  0  0  0
   -1.4193    0.1994    0.0388 C   0  0  0  0  0  0  0  0  0  0  0  0
   -2.7133   -1.2500   -0.7739 H   0  0  0  0  0  0  0  0  0  0  0  0
   -2.7395   -1.2391    0.9529 H   0  0  0  0  0  0  0  0  0  0  0  0
   -0.1568   -0.7090    0.0079 C   0  0  0  0  0  0  0  0  0  0  0  0
   -1.4057    0.9407    0.9451 H   0  0  0  0  0  0  0  0  0  0  0  0
   -1.3811    0.8018   -0.8578 H   0  0  0  0  0  0  0  0  0  0  0  0
   -0.0704   -1.3573    0.9300 H   0  0  0  0  0  0  0  0  0  0  0  0
    0.7286   -0.1124   -0.0568 H   0  0  0  0  0  0  0  0  0  0  0  0
   -0.1730   -1.3391   -0.8292 H   0  0  0  0  0  0  0  0  0  0  0  0
  1  3  1  0  0  0  0
  1  2  1  0  0  0  0
  1  5  1  0  0  0  0
  2  8  1  0  0  0  0
  4  1  1  0  0  0  0
  6  2  1  0  0  0  0
  6 10  1  0  0  0  0
  7  2  1  0  0  0  0
  9  6  1  0  0  0  0
  9 12  1  0  0  0  0
 11  6  1  0  0  0  0
 13  9  1  0  0  0  0
 14  9  1  0  0  0  0
M  END
$$$$
