14
butane_opt
C  -3.938826   0.278964   0.030565
C  -2.700886  -0.632256   0.025023
H  -4.846329  -0.303136  -0.027709
H  -3.980464   0.867669  -0.853272
H  -3.945353   1.007371   0.893723
C  -1.400354   0.160784   0.015033
H  -2.740693  -1.345241  -0.862350
H  -2.681635  -1.197205   0.898590
C  -0.163984  -0.680869   0.035008
H  -1.370423   0.847212   0.867878
H  -1.408325   0.848770  -0.919573
H  -0.182051  -1.418275   1.017069
H   0.777784  -0.053282  -0.071196
H  -0.204080  -1.244485  -0.759437
