butane_opt
 OpenBabel08242015403D

 14 13  0  0  0  0  0  0  0  0999 V2000
   -3.9364    0.2717    0.0468 C   0  0  0  0  0  0  0  0  0  0  0  0
   -2.6963   -0.6172    0.0185 C   0  0  0  0  0  0  0  0  0  0  0  0
   -4.8261   -0.3082   -0.0481 H   0  0  0  0  0  0  0  0  0  0  0  0
   -3.9556    0.8136   -0.8175 H   0  0  0  0  0  0  0  0  0  0  0  0
   -4.0297    1.0550    0.9946 H   0  0  0  0  0  0  0  0  0  0  0  0
   -1.3973    0.1676   -0.0253 C   0  0  0  0  0  0  0  0  0  0  0  0
   -2.7486   -1.3606   -0.8897 H   0  0  0  0  0  0  0  0  0  0  0  0
   -2.6456   -1.2369    0.8967 H   0  0  0  0  0  0  0  0  0  0  0  0
   -0.1720   -0.6820    0.0666 C   0  0  0  0  0  0  0  0  0  0  0  0
   -1.3859    0.7849    0.8060 H   0  0  0  0  0  0  0  0  0  0  0  0
   -1.3871    0.8340   -0.9551 H   0  0  0  0  0  0  0  0  0  0  0  0
   -0.2012   -1.3532    0.9976 H   0  0  0  0  0  0  0  0  0  0  0  0
    0.7666   -0.0645   -0.0255 H   0  0  0  0  0  0  0  0  0  0  0  0
   -0.1832   -1.3086   -0.7865 H   0  0  0  0  0  0  0  0  0  0  0  0
  1  5  1  0  0  0  0
  2  1  1  0  0  0  0
  2  8  1  0  0  0  0
  3  1  1  0  0  0  0
  4  1  1  0  0  0  0
  6  2  1  0  0  0  0
  6  9  1  0  0  0  0
  6 10  1  0  0  0  0
  7  2  1  0  0  0  0
  9 12  1  0  0  0  0
 11  6  1  0  0  0  0
 13  9  1  0  0  0  0
 14  9  1  0  0  0  0
M  END
$$$$
