14
butane_opt
C  -3.960088   0.249813  -0.004384
C  -2.707016  -0.594715   0.060707
H  -4.872174  -0.337972   0.084238
H  -3.963141   0.930174  -0.941324
H  -3.934242   0.865414   0.823946
C  -1.402308   0.192624   0.026836
H  -2.666479  -1.229465  -0.735734
H  -2.783323  -1.294645   1.025629
C  -0.146762  -0.703026   0.009205
H  -1.347785   0.900633   0.881256
H  -1.383266   0.817342  -0.851818
H  -0.127209  -1.242063   0.830854
H   0.746270  -0.101076   0.161035
H  -0.094723  -1.524079  -0.957357
