butane_opt
 OpenBabel08242015403D

 14 13  0  0  0  0  0  0  0  0999 V2000
   -3.9354    0.2713    0.0466 C   0  0  0  0  0  0  0  0  0  0  0  0
   -2.6949   -0.6318    0.0183 C   0  0  0  0  0  0  0  0  0  0  0  0
   -4.8288   -0.2931   -0.0539 H   0  0  0  0  0  0  0  0  0  0  0  0
   -3.9483    0.7977   -0.7733 H   0  0  0  0  0  0  0  0  0  0  0  0
   -3.9936    1.0607    0.9771 H   0  0  0  0  0  0  0  0  0  0  0  0
   -1.4081    0.1765   -0.0287 C   0  0  0  0  0  0  0  0  0  0  0  0
   -2.7166   -1.3118   -0.8541 H   0  0  0  0  0  0  0  0  0  0  0  0
   -2.6448   -1.2773    0.9070 H   0  0  0  0  0  0  0  0  0  0  0  0
   -0.1673   -0.6860    0.0508 C   0  0  0  0  0  0  0  0  0  0  0  0
   -1.4015    0.8495    0.8291 H   0  0  0  0  0  0  0  0  0  0  0  0
   -1.3940    0.8304   -0.9498 H   0  0  0  0  0  0  0  0  0  0  0  0
   -0.2296   -1.3344    1.0081 H   0  0  0  0  0  0  0  0  0  0  0  0
    0.7514   -0.0957    0.0667 H   0  0  0  0  0  0  0  0  0  0  0  0
   -0.1478   -1.2594   -0.7416 H   0  0  0  0  0  0  0  0  0  0  0  0
  1  5  1  0  0  0  0
  2  1  1  0  0  0  0
  2  8  1  0  0  0  0
  3  1  1  0  0  0  0
  4  1  1  0  0  0  0
  6  2  1  0  0  0  0
  6  9  1  0  0  0  0
  6 10  1  0  0  0  0
  7  2  1  0  0  0  0
  9 13  1  0  0  0  0
  9 12  1  0  0  0  0
 11  6  1  0  0  0  0
 14  9  1  0  0  0  0
M  END
$$$$
