14
butane_opt
C  -3.967064   0.274636  -0.010392
C  -2.707179  -0.627854   0.057728
H  -4.870272  -0.289955   0.061587
H  -4.016293   0.953907  -0.947103
H  -3.939831   0.854622   0.791304
C  -1.384435   0.180084   0.062430
H  -2.658104  -1.294656  -0.812152
H  -2.697549  -1.238510   0.935759
C  -0.159345  -0.692110   0.002694
H  -1.329812   0.847082   0.909437
H  -1.386104   0.810198  -0.829865
H  -0.087538  -1.323348   0.880058
H   0.773047  -0.068011  -0.067441
H  -0.197444  -1.334869  -0.837530
