14
butane_opt
C  -3.936443   0.250760   0.040556
C  -2.698386  -0.591700  -0.004960
H  -4.836479  -0.349661   0.170166
H  -3.992257   0.875832  -0.845270
H  -3.881413   0.873418   0.862109
C  -1.416537   0.190976  -0.003064
H  -2.707964  -1.281508  -0.833364
H  -2.705111  -1.216959   0.883348
C  -0.156267  -0.705291   0.054024
H  -1.441320   0.873706   0.838781
H  -1.386220   0.804743  -0.881053
H  -0.181406  -1.369608   0.980797
H   0.754575  -0.101337   0.020528
H  -0.149729  -1.317349  -0.790967
