butane_opt
 OpenBabel08242015403D

 14 13  0  0  0  0  0  0  0  0999 V2000
   -3.9573    0.2683    0.0080 C   0  0  0  0  0  0  0  0  0  0  0  0
   -2.7049   -0.6219    0.0440 C   0  0  0  0  0  0  0  0  0  0  0  0
   -4.8191   -0.2917    0.1083 H   0  0  0  0  0  0  0  0  0  0  0  0
   -4.0377    1.0081   -0.9440 H   0  0  0  0  0  0  0  0  0  0  0  0
   -3.9193    0.8573    0.8150 H   0  0  0  0  0  0  0  0  0  0  0  0
   -1.3920    0.1819    0.0293 C   0  0  0  0  0  0  0  0  0  0  0  0
   -2.7157   -1.2962   -0.8249 H   0  0  0  0  0  0  0  0  0  0  0  0
   -2.6833   -1.2774    0.9418 H   0  0  0  0  0  0  0  0  0  0  0  0
   -0.1567   -0.6907    0.0235 C   0  0  0  0  0  0  0  0  0  0  0  0
   -1.4039    0.8155    0.8661 H   0  0  0  0  0  0  0  0  0  0  0  0
   -1.3723    0.7989   -0.8626 H   0  0  0  0  0  0  0  0  0  0  0  0
   -0.1592   -1.2130    0.8653 H   0  0  0  0  0  0  0  0  0  0  0  0
    0.8019   -0.0681    0.0644 H   0  0  0  0  0  0  0  0  0  0  0  0
   -0.1878   -1.4418   -0.8722 H   0  0  0  0  0  0  0  0  0  0  0  0
  1  2  1  0  0  0  0
  1  3  1  0  0  0  0
  1  5  1  0  0  0  0
  2  8  1  0  0  0  0
  4  1  1  0  0  0  0
  6  2  1  0  0  0  0
  6 10  1  0  0  0  0
  7  2  1  0  0  0  0
  9  6  1  0  0  0  0
  9 13  1  0  0  0  0
  9 12  1  0  0  0  0
 11  6  1  0  0  0  0
 14  9  1  0  0  0  0
M  END
$$$$
