butane_opt
 OpenBabel08242015403D

 14 13  0  0  0  0  0  0  0  0999 V2000
   -3.9523    0.2592    0.0255 C   0  0  0  0  0  0  0  0  0  0  0  0
   -2.7058   -0.6094    0.0354 C   0  0  0  0  0  0  0  0  0  0  0  0
   -4.8718   -0.3433   -0.0505 H   0  0  0  0  0  0  0  0  0  0  0  0
   -3.9247    0.7437   -0.7927 H   0  0  0  0  0  0  0  0  0  0  0  0
   -3.9412    1.0703    1.0012 H   0  0  0  0  0  0  0  0  0  0  0  0
   -1.4052    0.1880   -0.0179 C   0  0  0  0  0  0  0  0  0  0  0  0
   -2.7032   -1.2417   -0.7984 H   0  0  0  0  0  0  0  0  0  0  0  0
   -2.7517   -1.2349    0.9335 H   0  0  0  0  0  0  0  0  0  0  0  0
   -0.1547   -0.6988    0.0483 C   0  0  0  0  0  0  0  0  0  0  0  0
   -1.3761    0.8532    0.8196 H   0  0  0  0  0  0  0  0  0  0  0  0
   -1.3581    0.8312   -0.9328 H   0  0  0  0  0  0  0  0  0  0  0  0
   -0.1403   -1.3376    0.9630 H   0  0  0  0  0  0  0  0  0  0  0  0
    0.7511   -0.1203   -0.0010 H   0  0  0  0  0  0  0  0  0  0  0  0
   -0.0922   -1.3659   -0.7827 H   0  0  0  0  0  0  0  0  0  0  0  0
  1  2  1  0  0  0  0
  1  5  1  0  0  0  0
  2  8  1  0  0  0  0
  3  1  1  0  0  0  0
  4  1  1  0  0  0  0
  6  2  1  0  0  0  0
  6  9  1  0  0  0  0
  6 10  1  0  0  0  0
  7  2  1  0  0  0  0
  9 12  1  0  0  0  0
 11  6  1  0  0  0  0
 13  9  1  0  0  0  0
 14  9  1  0  0  0  0
M  END
$$$$
