butane_opt
 OpenBabel08242015403D

 14 13  0  0  0  0  0  0  0  0999 V2000
   -3.9401    0.2708    0.0017 C   0  0  0  0  0  0  0  0  0  0  0  0
   -2.6931   -0.6270    0.0520 C   0  0  0  0  0  0  0  0  0  0  0  0
   -4.8438   -0.3193    0.1831 H   0  0  0  0  0  0  0  0  0  0  0  0
   -4.0096    1.0339   -0.9984 H   0  0  0  0  0  0  0  0  0  0  0  0
   -3.9599    0.8537    0.7966 H   0  0  0  0  0  0  0  0  0  0  0  0
   -1.4025    0.1835    0.0402 C   0  0  0  0  0  0  0  0  0  0  0  0
   -2.6994   -1.3429   -0.8327 H   0  0  0  0  0  0  0  0  0  0  0  0
   -2.7323   -1.2495    0.9089 H   0  0  0  0  0  0  0  0  0  0  0  0
   -0.1740   -0.6952    0.0108 C   0  0  0  0  0  0  0  0  0  0  0  0
   -1.3626    0.8685    0.9068 H   0  0  0  0  0  0  0  0  0  0  0  0
   -1.3656    0.8084   -0.8563 H   0  0  0  0  0  0  0  0  0  0  0  0
   -0.1693   -1.2577    0.8595 H   0  0  0  0  0  0  0  0  0  0  0  0
    0.7863   -0.0561    0.0606 H   0  0  0  0  0  0  0  0  0  0  0  0
   -0.1515   -1.3828   -0.8552 H   0  0  0  0  0  0  0  0  0  0  0  0
  1  2  1  0  0  0  0
  1  3  1  0  0  0  0
  1  5  1  0  0  0  0
  2  8  1  0  0  0  0
  4  1  1  0  0  0  0
  6  2  1  0  0  0  0
  6 10  1  0  0  0  0
  7  2  1  0  0  0  0
  9  6  1  0  0  0  0
  9 13  1  0  0  0  0
  9 12  1  0  0  0  0
 11  6  1  0  0  0  0
 14  9  1  0  0  0  0
M  END
$$$$
