butane_opt
 OpenBabel08242015403D

 14 13  0  0  0  0  0  0  0  0999 V2000
   -3.9377    0.2526    0.0164 C   0  0  0  0  0  0  0  0  0  0  0  0
   -2.7017   -0.5917    0.0466 C   0  0  0  0  0  0  0  0  0  0  0  0
   -4.8590   -0.3527    0.0253 H   0  0  0  0  0  0  0  0  0  0  0  0
   -3.9701    0.8925   -0.8989 H   0  0  0  0  0  0  0  0  0  0  0  0
   -3.9663    0.8839    0.8544 H   0  0  0  0  0  0  0  0  0  0  0  0
   -1.4140    0.1886    0.0071 C   0  0  0  0  0  0  0  0  0  0  0  0
   -2.7529   -1.2588   -0.7935 H   0  0  0  0  0  0  0  0  0  0  0  0
   -2.7028   -1.2855    0.9672 H   0  0  0  0  0  0  0  0  0  0  0  0
   -0.1538   -0.7054    0.0216 C   0  0  0  0  0  0  0  0  0  0  0  0
   -1.4206    0.9033    0.8812 H   0  0  0  0  0  0  0  0  0  0  0  0
   -1.3764    0.7899   -0.8557 H   0  0  0  0  0  0  0  0  0  0  0  0
   -0.1717   -1.2631    0.9194 H   0  0  0  0  0  0  0  0  0  0  0  0
    0.7760   -0.0931    0.0795 H   0  0  0  0  0  0  0  0  0  0  0  0
   -0.0885   -1.4181   -0.8583 H   0  0  0  0  0  0  0  0  0  0  0  0
  1  3  1  0  0  0  0
  1  2  1  0  0  0  0
  1  5  1  0  0  0  0
  2  8  1  0  0  0  0
  4  1  1  0  0  0  0
  6  9  1  0  0  0  0
  6  2  1  0  0  0  0
  6 10  1  0  0  0  0
  7  2  1  0  0  0  0
  9 13  1  0  0  0  0
  9 12  1  0  0  0  0
 11  6  1  0  0  0  0
 14  9  1  0  0  0  0
M  END
$$$$
