14
butane_opt
C  -3.939208   0.268870   0.046572
C  -2.683763  -0.623806   0.002298
H  -4.817495  -0.290233  -0.000309
H  -4.016306   0.862945  -0.834593
H  -3.955778   1.007934   0.939773
C  -1.401802   0.169202  -0.001895
H  -2.755813  -1.362444  -0.895798
H  -2.660478  -1.247957   0.881226
C  -0.179382  -0.680122   0.061604
H  -1.437803   0.825867   0.796864
H  -1.386998   0.838508  -0.927962
H  -0.099674  -1.399502   1.018381
H   0.746348  -0.037697  -0.087705
H  -0.198304  -1.267512  -0.743842
