butane_opt
 OpenBabel08242015403D

 14 13  0  0  0  0  0  0  0  0999 V2000
   -3.9459    0.2635    0.0141 C   0  0  0  0  0  0  0  0  0  0  0  0
   -2.7063   -0.6041    0.0262 C   0  0  0  0  0  0  0  0  0  0  0  0
   -4.9025   -0.3828    0.0384 H   0  0  0  0  0  0  0  0  0  0  0  0
   -3.9918    0.8773   -0.8770 H   0  0  0  0  0  0  0  0  0  0  0  0
   -3.9562    0.9124    0.8729 H   0  0  0  0  0  0  0  0  0  0  0  0
   -1.4016    0.1913    0.0331 C   0  0  0  0  0  0  0  0  0  0  0  0
   -2.7273   -1.3279   -0.8497 H   0  0  0  0  0  0  0  0  0  0  0  0
   -2.7737   -1.2121    0.9338 H   0  0  0  0  0  0  0  0  0  0  0  0
   -0.1505   -0.7020    0.0299 C   0  0  0  0  0  0  0  0  0  0  0  0
   -1.3443    0.8529    0.8664 H   0  0  0  0  0  0  0  0  0  0  0  0
   -1.3955    0.8355   -0.8532 H   0  0  0  0  0  0  0  0  0  0  0  0
   -0.0101   -1.4037    0.9854 H   0  0  0  0  0  0  0  0  0  0  0  0
    0.7249   -0.1445   -0.1091 H   0  0  0  0  0  0  0  0  0  0  0  0
   -0.1859   -1.2686   -0.7945 H   0  0  0  0  0  0  0  0  0  0  0  0
  1  2  1  0  0  0  0
  1  3  1  0  0  0  0
  1  5  1  0  0  0  0
  2  6  1  0  0  0  0
  2  8  1  0  0  0  0
  4  1  1  0  0  0  0
  6 10  1  0  0  0  0
  7  2  1  0  0  0  0
  9  6  1  0  0  0  0
  9 12  1  0  0  0  0
 11  6  1  0  0  0  0
 13  9  1  0  0  0  0
 14  9  1  0  0  0  0
M  END
$$$$
