14
butane_opt
C  -3.935242   0.255169   0.014840
C  -2.703133  -0.602085   0.036804
H  -4.861121  -0.341214   0.135348
H  -3.998031   0.962071  -0.937690
H  -3.897544   0.886248   0.864595
C  -1.408642   0.184264   0.005836
H  -2.719305  -1.267754  -0.811898
H  -2.739201  -1.216397   0.942033
C  -0.157788  -0.698682   0.024600
H  -1.376365   0.884472   0.894922
H  -1.394039   0.755271  -0.835019
H  -0.193276  -1.303692   0.914165
H   0.760173  -0.105480   0.102474
H  -0.138502  -1.388493  -0.820621
