14
butane_opt
C  -3.942114   0.268045  -0.006517
C  -2.706435  -0.613660   0.053586
H  -4.898656  -0.372628   0.015400
H  -3.968876   0.882221  -0.895417
H  -3.897809   0.917129   0.848881
C  -1.399725   0.182141   0.038402
H  -2.654416  -1.248968  -0.766746
H  -2.778336  -1.230121   0.936427
C  -0.161980  -0.698927   0.015019
H  -1.383449   0.916422   0.932730
H  -1.418625   0.790660  -0.815406
H  -0.050337  -1.380437   0.923259
H   0.739944  -0.083784  -0.112820
H  -0.193354  -1.318867  -0.827543
