butane_opt
 OpenBabel08242015403D

 14 13  0  0  0  0  0  0  0  0999 V2000
   -3.9438    0.2778    0.0042 C   0  0  0  0  0  0  0  0  0  0  0  0
   -2.6887   -0.6216    0.0578 C   0  0  0  0  0  0  0  0  0  0  0  0
   -4.8909   -0.3394    0.0473 H   0  0  0  0  0  0  0  0  0  0  0  0
   -3.9414    0.8938   -0.8897 H   0  0  0  0  0  0  0  0  0  0  0  0
   -3.9347    0.9368    0.8620 H   0  0  0  0  0  0  0  0  0  0  0  0
   -1.4025    0.1694    0.0150 C   0  0  0  0  0  0  0  0  0  0  0  0
   -2.7283   -1.2692   -0.7922 H   0  0  0  0  0  0  0  0  0  0  0  0
   -2.6904   -1.2652    0.9743 H   0  0  0  0  0  0  0  0  0  0  0  0
   -0.1715   -0.6844    0.0289 C   0  0  0  0  0  0  0  0  0  0  0  0
   -1.3750    0.8135    0.8255 H   0  0  0  0  0  0  0  0  0  0  0  0
   -1.3743    0.7962   -0.9018 H   0  0  0  0  0  0  0  0  0  0  0  0
   -0.2051   -1.1970    0.8686 H   0  0  0  0  0  0  0  0  0  0  0  0
    0.7470   -0.0832    0.0956 H   0  0  0  0  0  0  0  0  0  0  0  0
   -0.1542   -1.4571   -0.9328 H   0  0  0  0  0  0  0  0  0  0  0  0
  1  3  1  0  0  0  0
  1  2  1  0  0  0  0
  1  5  1  0  0  0  0
  2  8  1  0  0  0  0
  4  1  1  0  0  0  0
  6  9  1  0  0  0  0
  6  2  1  0  0  0  0
  6 10  1  0  0  0  0
  7  2  1  0  0  0  0
  9 13  1  0  0  0  0
  9 12  1  0  0  0  0
 11  6  1  0  0  0  0
 14  9  1  0  0  0  0
M  END
$$$$
