14
butane_opt
C  -3.937498   0.256706   0.000945
C  -2.709601  -0.610544   0.044892
H  -4.889554  -0.347063   0.148562
H  -4.028489   0.963363  -0.972538
H  -3.876142   0.836265   0.804959
C  -1.402889   0.202085   0.029060
H  -2.747997  -1.255237  -0.789347
H  -2.715294  -1.265125   0.975812
C  -0.152844  -0.695807   0.022370
H  -1.418759   0.898444   0.884072
H  -1.386662   0.773259  -0.828141
H  -0.099094  -1.268269   0.880182
H   0.699665  -0.168441   0.055372
H  -0.120570  -1.475482  -0.910825
