butane_opt
 OpenBabel08242015403D

 14 13  0  0  0  0  0  0  0  0999 V2000
   -3.9280    0.2641   -0.0182 C   0  0  0  0  0  0  0  0  0  0  0  0
   -2.7039   -0.6130    0.0783 C   0  0  0  0  0  0  0  0  0  0  0  0
   -4.8292   -0.3187   -0.0883 H   0  0  0  0  0  0  0  0  0  0  0  0
   -3.8667    0.8332   -0.8797 H   0  0  0  0  0  0  0  0  0  0  0  0
   -4.0367    1.0117    0.8624 H   0  0  0  0  0  0  0  0  0  0  0  0
   -1.4029    0.1767    0.0424 C   0  0  0  0  0  0  0  0  0  0  0  0
   -2.7003   -1.2226   -0.7132 H   0  0  0  0  0  0  0  0  0  0  0  0
   -2.7463   -1.3428    1.0593 H   0  0  0  0  0  0  0  0  0  0  0  0
   -0.1753   -0.6944   -0.0017 C   0  0  0  0  0  0  0  0  0  0  0  0
   -1.4092    0.8964    0.9281 H   0  0  0  0  0  0  0  0  0  0  0  0
   -1.4114    0.7951   -0.8574 H   0  0  0  0  0  0  0  0  0  0  0  0
   -0.0959   -1.2610    0.8347 H   0  0  0  0  0  0  0  0  0  0  0  0
    0.7503   -0.0924   -0.0228 H   0  0  0  0  0  0  0  0  0  0  0  0
   -0.1623   -1.3687   -0.8913 H   0  0  0  0  0  0  0  0  0  0  0  0
  1  2  1  0  0  0  0
  1  5  1  0  0  0  0
  2  8  1  0  0  0  0
  3  1  1  0  0  0  0
  4  1  1  0  0  0  0
  6  2  1  0  0  0  0
  6 10  1  0  0  0  0
  7  2  1  0  0  0  0
  9  6  1  0  0  0  0
  9 12  1  0  0  0  0
 11  6  1  0  0  0  0
 13  9  1  0  0  0  0
 14  9  1  0  0  0  0
M  END
$$$$
