butane_opt
 OpenBabel08242015403D

 14 13  0  0  0  0  0  0  0  0999 V2000
   -3.9582    0.2557   -0.0104 C   0  0  0  0  0  0  0  0  0  0  0  0
   -2.7040   -0.6010    0.0671 C   0  0  0  0  0  0  0  0  0  0  0  0
   -4.8851   -0.3703    0.0201 H   0  0  0  0  0  0  0  0  0  0  0  0
   -3.9174    0.8356   -0.8865 H   0  0  0  0  0  0  0  0  0  0  0  0
   -3.9924    0.9267    0.8394 H   0  0  0  0  0  0  0  0  0  0  0  0
   -1.4064    0.2024    0.0305 C   0  0  0  0  0  0  0  0  0  0  0  0
   -2.6913   -1.2700   -0.7607 H   0  0  0  0  0  0  0  0  0  0  0  0
   -2.7344   -1.2664    1.0016 H   0  0  0  0  0  0  0  0  0  0  0  0
   -0.1463   -0.7108    0.0123 C   0  0  0  0  0  0  0  0  0  0  0  0
   -1.3839    0.8995    0.8697 H   0  0  0  0  0  0  0  0  0  0  0  0
   -1.3736    0.7898   -0.8166 H   0  0  0  0  0  0  0  0  0  0  0  0
   -0.0597   -1.2815    0.8614 H   0  0  0  0  0  0  0  0  0  0  0  0
    0.7396   -0.1179   -0.0159 H   0  0  0  0  0  0  0  0  0  0  0  0
   -0.1375   -1.3790   -0.8665 H   0  0  0  0  0  0  0  0  0  0  0  0
  1  3  1  0  0  0  0
  1  2  1  0  0  0  0
  1  5  1  0  0  0  0
  2  8  1  0  0  0  0
  4  1  1  0  0  0  0
  6  2  1  0  0  0  0
  6 10  1  0  0  0  0
  7  2  1  0  0  0  0
  9  6  1  0  0  0  0
  9 12  1  0  0  0  0
 11  6  1  0  0  0  0
 13  9  1  0  0  0  0
 14  9  1  0  0  0  0
M  END
$$$$
