14
butane_opt
C  -3.953601   0.261548   0.010572
C  -2.716210  -0.614365   0.064092
H  -4.845296  -0.314404   0.046008
H  -3.954302   0.894037  -0.912046
H  -3.937283   0.873881   0.822607
C  -1.402682   0.200196   0.007553
H  -2.736831  -1.282129  -0.779277
H  -2.714332  -1.258964   0.937450
C  -0.141741  -0.704792   0.026788
H  -1.437398   0.859499   0.831369
H  -1.367688   0.830800  -0.886257
H  -0.149691  -1.179354   0.850933
H   0.760373  -0.108952   0.132074
H  -0.076611  -1.498519  -0.934161
