14
butane_opt
C  -3.938841   0.251237   0.039694
C  -2.693439  -0.604668   0.031501
H  -4.860416  -0.326947   0.015986
H  -3.879843   0.810500  -0.820695
H  -3.973661   0.960147   0.916984
C  -1.415674   0.207519  -0.020019
H  -2.743695  -1.315756  -0.842850
H  -2.672120  -1.235029   0.906439
C  -0.168140  -0.706551   0.046231
H  -1.426213   0.822061   0.774405
H  -1.346058   0.854326  -0.922397
H  -0.181098  -1.283945   0.927345
H   0.722321  -0.126283   0.111725
H  -0.065115  -1.405102  -0.795004
