butane_opt
 OpenBabel08242015403D

 14 13  0  0  0  0  0  0  0  0999 V2000
   -3.9657    0.2732   -0.0078 C   0  0  0  0  0  0  0  0  0  0  0  0
   -2.6867   -0.6345    0.0596 C   0  0  0  0  0  0  0  0  0  0  0  0
   -4.8616   -0.3285    0.1460 H   0  0  0  0  0  0  0  0  0  0  0  0
   -4.0274    1.0146   -1.0023 H   0  0  0  0  0  0  0  0  0  0  0  0
   -3.9642    0.8299    0.7663 H   0  0  0  0  0  0  0  0  0  0  0  0
   -1.3958    0.1842    0.0450 C   0  0  0  0  0  0  0  0  0  0  0  0
   -2.6916   -1.3082   -0.7880 H   0  0  0  0  0  0  0  0  0  0  0  0
   -2.7329   -1.2594    0.9450 H   0  0  0  0  0  0  0  0  0  0  0  0
   -0.1547   -0.6819    0.0018 C   0  0  0  0  0  0  0  0  0  0  0  0
   -1.3080    0.9010    0.9597 H   0  0  0  0  0  0  0  0  0  0  0  0
   -1.4297    0.8062   -0.8290 H   0  0  0  0  0  0  0  0  0  0  0  0
   -0.1371   -1.2876    0.8874 H   0  0  0  0  0  0  0  0  0  0  0  0
    0.7376   -0.1041    0.0672 H   0  0  0  0  0  0  0  0  0  0  0  0
   -0.1725   -1.4264   -0.9058 H   0  0  0  0  0  0  0  0  0  0  0  0
  1  2  1  0  0  0  0
  1  3  1  0  0  0  0
  1  5  1  0  0  0  0
  2  8  1  0  0  0  0
  4  1  1  0  0  0  0
  6  2  1  0  0  0  0
  6 10  1  0  0  0  0
  7  2  1  0  0  0  0
  9  6  1  0  0  0  0
  9 13  1  0  0  0  0
  9 12  1  0  0  0  0
 11  6  1  0  0  0  0
 14  9  1  0  0  0  0
M  END
$$$$
