14
butane_opt
C  -3.934030   0.253923  -0.017216
C  -2.693163  -0.607692   0.088439
H  -4.839344  -0.339553  -0.076076
H  -3.879433   0.807364  -0.901295
H  -3.997704   0.937690   0.854539
C  -1.415115   0.209726   0.036717
H  -2.711365  -1.273844  -0.752302
H  -2.771069  -1.261404   1.002713
C  -0.160091  -0.706290   0.004441
H  -1.388214   0.832997   0.889858
H  -1.485664   0.847704  -0.853464
H  -0.116786  -1.239282   0.850786
H   0.738771  -0.126018  -0.022227
H  -0.144144  -1.452267  -0.906184
