butane_opt
 OpenBabel08242015403D

 14 13  0  0  0  0  0  0  0  0999 V2000
   -3.9517    0.2710    0.0191 C   0  0  0  0  0  0  0  0  0  0  0  0
   -2.7004   -0.6253    0.0580 C   0  0  0  0  0  0  0  0  0  0  0  0
   -4.8518   -0.2895   -0.0630 H   0  0  0  0  0  0  0  0  0  0  0  0
   -3.9489    0.7961   -0.8271 H   0  0  0  0  0  0  0  0  0  0  0  0
   -4.0272    1.0386    0.9220 H   0  0  0  0  0  0  0  0  0  0  0  0
   -1.3906    0.1785   -0.0036 C   0  0  0  0  0  0  0  0  0  0  0  0
   -2.7295   -1.3273   -0.8199 H   0  0  0  0  0  0  0  0  0  0  0  0
   -2.7166   -1.2420    0.9054 H   0  0  0  0  0  0  0  0  0  0  0  0
   -0.1658   -0.6860    0.0338 C   0  0  0  0  0  0  0  0  0  0  0  0
   -1.3832    0.8359    0.8291 H   0  0  0  0  0  0  0  0  0  0  0  0
   -1.3719    0.8355   -0.9227 H   0  0  0  0  0  0  0  0  0  0  0  0
   -0.1503   -1.3277    0.9422 H   0  0  0  0  0  0  0  0  0  0  0  0
    0.7448   -0.0781    0.0175 H   0  0  0  0  0  0  0  0  0  0  0  0
   -0.0957   -1.3700   -0.8212 H   0  0  0  0  0  0  0  0  0  0  0  0
  1  2  1  0  0  0  0
  1  5  1  0  0  0  0
  2  8  1  0  0  0  0
  3  1  1  0  0  0  0
  4  1  1  0  0  0  0
  6  9  1  0  0  0  0
  6  2  1  0  0  0  0
  6 10  1  0  0  0  0
  7  2  1  0  0  0  0
  9 12  1  0  0  0  0
 11  6  1  0  0  0  0
 13  9  1  0  0  0  0
 14  9  1  0  0  0  0
M  END
$$$$
