14
butane_opt
C  -3.935391   0.268887   0.011767
C  -2.704169  -0.623682   0.040915
H  -4.821850  -0.281849   0.138802
H  -4.028694   0.998558  -0.957015
H  -3.902028   0.820092   0.780288
C  -1.401248   0.177973   0.021247
H  -2.763162  -1.284858  -0.821410
H  -2.680062  -1.243996   0.912425
C  -0.170408  -0.687742   0.023750
H  -1.410608   0.912012   0.897079
H  -1.401967   0.745630  -0.799019
H  -0.135343  -1.293695   0.922252
H   0.770229  -0.072198   0.035697
H  -0.127983  -1.388999  -0.863838
