butane_opt
 OpenBabel08242015403D

 14 13  0  0  0  0  0  0  0  0999 V2000
   -3.9503    0.2621    0.0546 C   0  0  0  0  0  0  0  0  0  0  0  0
   -2.7035   -0.6157    0.0097 C   0  0  0  0  0  0  0  0  0  0  0  0
   -4.8538   -0.3231    0.0840 H   0  0  0  0  0  0  0  0  0  0  0  0
   -3.9856    0.8792   -0.8167 H   0  0  0  0  0  0  0  0  0  0  0  0
   -3.9055    0.9525    0.9250 H   0  0  0  0  0  0  0  0  0  0  0  0
   -1.4003    0.1852   -0.0352 C   0  0  0  0  0  0  0  0  0  0  0  0
   -2.7889   -1.3045   -0.8925 H   0  0  0  0  0  0  0  0  0  0  0  0
   -2.7032   -1.1956    0.8730 H   0  0  0  0  0  0  0  0  0  0  0  0
   -0.1541   -0.6951    0.0647 C   0  0  0  0  0  0  0  0  0  0  0  0
   -1.3830    0.7996    0.7710 H   0  0  0  0  0  0  0  0  0  0  0  0
   -1.3803    0.8590   -0.9525 H   0  0  0  0  0  0  0  0  0  0  0  0
   -0.2054   -1.2814    0.9349 H   0  0  0  0  0  0  0  0  0  0  0  0
    0.7158   -0.1381    0.1848 H   0  0  0  0  0  0  0  0  0  0  0  0
   -0.0358   -1.3635   -0.7943 H   0  0  0  0  0  0  0  0  0  0  0  0
  1  3  1  0  0  0  0
  1  5  1  0  0  0  0
  2  1  1  0  0  0  0
  2  8  1  0  0  0  0
  4  1  1  0  0  0  0
  6  2  1  0  0  0  0
  6  9  1  0  0  0  0
  6 10  1  0  0  0  0
  7  2  1  0  0  0  0
  9 13  1  0  0  0  0
  9 12  1  0  0  0  0
 11  6  1  0  0  0  0
 14  9  1  0  0  0  0
M  END
$$$$
