14
butane_opt
C  -3.944393   0.254986   0.018932
C  -2.716981  -0.615531   0.054354
H  -4.865125  -0.359714   0.030088
H  -3.899711   0.879771  -0.894122
H  -3.985478   0.931290   0.876141
C  -1.409290   0.209933  -0.008873
H  -2.730115  -1.280663  -0.766901
H  -2.709045  -1.233855   0.945296
C  -0.149510  -0.709674   0.034016
H  -1.384263   0.917632   0.851970
H  -1.376193   0.835365  -0.894167
H  -0.133593  -1.254632   0.871609
H   0.732152  -0.125275   0.123137
H  -0.028973  -1.468755  -0.892531
