butane_opt
 OpenBabel08242015403D

 14 13  0  0  0  0  0  0  0  0999 V2000
   -3.9417    0.2533   -0.0044 C   0  0  0  0  0  0  0  0  0  0  0  0
   -2.7081   -0.6081    0.0376 C   0  0  0  0  0  0  0  0  0  0  0  0
   -4.8303   -0.3091    0.0870 H   0  0  0  0  0  0  0  0  0  0  0  0
   -3.9759    0.8737   -0.8894 H   0  0  0  0  0  0  0  0  0  0  0  0
   -3.9466    0.9498    0.8867 H   0  0  0  0  0  0  0  0  0  0  0  0
   -1.4068    0.1954    0.0354 C   0  0  0  0  0  0  0  0  0  0  0  0
   -2.7347   -1.2693   -0.7945 H   0  0  0  0  0  0  0  0  0  0  0  0
   -2.7251   -1.2520    0.9179 H   0  0  0  0  0  0  0  0  0  0  0  0
   -0.1535   -0.7048    0.0234 C   0  0  0  0  0  0  0  0  0  0  0  0
   -1.3574    0.9036    0.9113 H   0  0  0  0  0  0  0  0  0  0  0  0
   -1.3954    0.7764   -0.8192 H   0  0  0  0  0  0  0  0  0  0  0  0
   -0.0541   -1.3800    0.9493 H   0  0  0  0  0  0  0  0  0  0  0  0
    0.7236   -0.1150   -0.1344 H   0  0  0  0  0  0  0  0  0  0  0  0
   -0.2021   -1.2748   -0.7687 H   0  0  0  0  0  0  0  0  0  0  0  0
  1  2  1  0  0  0  0
  1  3  1  0  0  0  0
  1  5  1  0  0  0  0
  2  8  1  0  0  0  0
  4  1  1  0  0  0  0
  6  2  1  0  0  0  0
  6 10  1  0  0  0  0
  7  2  1  0  0  0  0
  9  6  1  0  0  0  0
  9 12  1  0  0  0  0
 11  6  1  0  0  0  0
 13  9  1  0  0  0  0
 14  9  1  0  0  0  0
M  END
$$$$
