14
butane_opt
C  -3.956786   0.273356  -0.009199
C  -2.687388  -0.630123   0.069777
H  -4.843189  -0.289496  -0.064408
H  -3.951318   0.820635  -0.857438
H  -4.083166   1.009668   0.867093
C  -1.401018   0.179710   0.022477
H  -2.674988  -1.264332  -0.745817
H  -2.712380  -1.349431   1.030212
C  -0.165452  -0.682972   0.015776
H  -1.312089   0.869758   0.910280
H  -1.387991   0.763855  -0.841723
H  -0.088871  -1.258716   0.876275
H   0.742251  -0.091014  -0.018662
H  -0.184598  -1.360902  -0.893962
