14
butane_opt
C  -3.930487   0.256636   0.023510
C  -2.691688  -0.614561   0.028602
H  -4.890940  -0.362760   0.011535
H  -3.935034   0.848949  -0.869866
H  -4.008224   0.979842   0.893005
C  -1.408597   0.194113   0.014407
H  -2.687863  -1.292127  -0.830751
H  -2.686857  -1.215346   0.902201
C  -0.170609  -0.699867   0.031947
H  -1.370063   0.883943   0.872146
H  -1.455637   0.825127  -0.845669
H  -0.126892  -1.408796   1.003426
H   0.739797  -0.116808  -0.082874
H  -0.171499  -1.260998  -0.775100
