butane_opt
 OpenBabel08242015403D

 14 13  0  0  0  0  0  0  0  0999 V2000
   -3.9452    0.2692    0.0308 C   0  0  0  0  0  0  0  0  0  0  0  0
   -2.6918   -0.6150    0.0262 C   0  0  0  0  0  0  0  0  0  0  0  0
   -4.8873   -0.3490   -0.0480 H   0  0  0  0  0  0  0  0  0  0  0  0
   -3.9080    0.7951   -0.8140 H   0  0  0  0  0  0  0  0  0  0  0  0
   -4.0114    1.0461    0.9653 H   0  0  0  0  0  0  0  0  0  0  0  0
   -1.4049    0.1769   -0.0076 C   0  0  0  0  0  0  0  0  0  0  0  0
   -2.7075   -1.2924   -0.8089 H   0  0  0  0  0  0  0  0  0  0  0  0
   -2.7117   -1.2758    0.9482 H   0  0  0  0  0  0  0  0  0  0  0  0
   -0.1613   -0.6951    0.0471 C   0  0  0  0  0  0  0  0  0  0  0  0
   -1.3955    0.8477    0.8273 H   0  0  0  0  0  0  0  0  0  0  0  0
   -1.3454    0.8454   -0.9133 H   0  0  0  0  0  0  0  0  0  0  0  0
   -0.1564   -1.3286    0.9728 H   0  0  0  0  0  0  0  0  0  0  0  0
    0.7564   -0.0895   -0.0181 H   0  0  0  0  0  0  0  0  0  0  0  0
   -0.2083   -1.3099   -0.8138 H   0  0  0  0  0  0  0  0  0  0  0  0
  1  5  1  0  0  0  0
  2  1  1  0  0  0  0
  2  8  1  0  0  0  0
  3  1  1  0  0  0  0
  4  1  1  0  0  0  0
  6  2  1  0  0  0  0
  6  9  1  0  0  0  0
  6 10  1  0  0  0  0
  7  2  1  0  0  0  0
  9 12  1  0  0  0  0
 11  6  1  0  0  0  0
 13  9  1  0  0  0  0
 14  9  1  0  0  0  0
M  END
$$$$
