14
butane_opt
C  -3.952707   0.272925   0.035875
C  -2.705060  -0.625334   0.007364
H  -4.861459  -0.296581   0.161876
H  -4.013556   0.931785  -0.880941
H  -3.888672   0.890968   0.882514
C  -1.391884   0.182926  -0.002791
H  -2.750945  -1.331579  -0.889189
H  -2.695569  -1.273169   0.900737
C  -0.161065  -0.689917   0.048239
H  -1.401600   0.892129   0.851488
H  -1.381814   0.798326  -0.872158
H  -0.190350  -1.336821   0.971340
H   0.748413  -0.116424   0.033621
H  -0.066181  -1.311356  -0.787621
