14
butane_opt
C  -3.937677   0.273999   0.002503
C  -2.693217  -0.636405   0.048385
H  -4.814325  -0.276442   0.043200
H  -3.966675   0.889324  -0.900129
H  -3.953679   0.918319   0.858856
C  -1.404467   0.177723   0.032513
H  -2.649987  -1.281856  -0.790199
H  -2.760963  -1.246471   0.950095
C  -0.170640  -0.684172   0.017016
H  -1.409071   0.866141   0.899605
H  -1.424217   0.823244  -0.867704
H  -0.120664  -1.321185   0.893402
H   0.761418  -0.077392  -0.004403
H  -0.222735  -1.332286  -0.839365
