butane_opt
 OpenBabel08242015403D

 14 13  0  0  0  0  0  0  0  0999 V2000
   -3.9436    0.2667    0.0132 C   0  0  0  0  0  0  0  0  0  0  0  0
   -2.7020   -0.6255    0.0437 C   0  0  0  0  0  0  0  0  0  0  0  0
   -4.8236   -0.2919    0.1256 H   0  0  0  0  0  0  0  0  0  0  0  0
   -4.0265    0.9803   -0.9542 H   0  0  0  0  0  0  0  0  0  0  0  0
   -3.9718    0.8311    0.7888 H   0  0  0  0  0  0  0  0  0  0  0  0
   -1.3915    0.1826    0.0238 C   0  0  0  0  0  0  0  0  0  0  0  0
   -2.7050   -1.2763   -0.7856 H   0  0  0  0  0  0  0  0  0  0  0  0
   -2.7689   -1.2138    0.9345 H   0  0  0  0  0  0  0  0  0  0  0  0
   -0.1639   -0.6960    0.0174 C   0  0  0  0  0  0  0  0  0  0  0  0
   -1.3843    0.8878    0.8921 H   0  0  0  0  0  0  0  0  0  0  0  0
   -1.4072    0.8039   -0.8548 H   0  0  0  0  0  0  0  0  0  0  0  0
   -0.1506   -1.2448    0.8631 H   0  0  0  0  0  0  0  0  0  0  0  0
    0.7348   -0.0738    0.0966 H   0  0  0  0  0  0  0  0  0  0  0  0
   -0.1087   -1.4093   -0.8563 H   0  0  0  0  0  0  0  0  0  0  0  0
  1  2  1  0  0  0  0
  1  3  1  0  0  0  0
  1  5  1  0  0  0  0
  2  8  1  0  0  0  0
  4  1  1  0  0  0  0
  6  2  1  0  0  0  0
  6 10  1  0  0  0  0
  7  2  1  0  0  0  0
  9  6  1  0  0  0  0
  9 13  1  0  0  0  0
  9 12  1  0  0  0  0
 11  6  1  0  0  0  0
 14  9  1  0  0  0  0
M  END
$$$$
