14
butane_opt
C  -3.941132   0.267812   0.032051
C  -2.686109  -0.620834   0.016411
H  -4.853517  -0.291508   0.016095
H  -3.943038   0.837538  -0.829576
H  -3.949756   0.955976   0.920193
C  -1.409150   0.178026   0.002691
H  -2.765552  -1.372770  -0.874756
H  -2.647002  -1.191145   0.880916
C  -0.175673  -0.682224   0.050894
H  -1.401460   0.837386   0.861848
H  -1.372371   0.824180  -0.924050
H  -0.059017  -1.419031   1.014919
H   0.714739  -0.113290  -0.088674
H  -0.211453  -1.246424  -0.749135
