butane_opt
 OpenBabel08242015403D

 14 13  0  0  0  0  0  0  0  0999 V2000
   -3.9289    0.2484    0.0335 C   0  0  0  0  0  0  0  0  0  0  0  0
   -2.6979   -0.6056    0.0138 C   0  0  0  0  0  0  0  0  0  0  0  0
   -4.8404   -0.3463    0.2081 H   0  0  0  0  0  0  0  0  0  0  0  0
   -4.0215    0.9515   -0.9186 H   0  0  0  0  0  0  0  0  0  0  0  0
   -3.9137    0.9002    0.8864 H   0  0  0  0  0  0  0  0  0  0  0  0
   -1.4073    0.1949   -0.0031 C   0  0  0  0  0  0  0  0  0  0  0  0
   -2.7540   -1.3683   -0.8980 H   0  0  0  0  0  0  0  0  0  0  0  0
   -2.7112   -1.1580    0.8729 H   0  0  0  0  0  0  0  0  0  0  0  0
   -0.1592   -0.7007    0.0513 C   0  0  0  0  0  0  0  0  0  0  0  0
   -1.4566    0.8794    0.8384 H   0  0  0  0  0  0  0  0  0  0  0  0
   -1.4085    0.8409   -0.9070 H   0  0  0  0  0  0  0  0  0  0  0  0
   -0.1745   -1.3548    0.9671 H   0  0  0  0  0  0  0  0  0  0  0  0
    0.7106   -0.1153    0.0440 H   0  0  0  0  0  0  0  0  0  0  0  0
   -0.1231   -1.3489   -0.8001 H   0  0  0  0  0  0  0  0  0  0  0  0
  1  3  1  0  0  0  0
  1  5  1  0  0  0  0
  2  1  1  0  0  0  0
  2  8  1  0  0  0  0
  4  1  1  0  0  0  0
  6  2  1  0  0  0  0
  6  9  1  0  0  0  0
  6 10  1  0  0  0  0
  7  2  1  0  0  0  0
  9 12  1  0  0  0  0
 11  6  1  0  0  0  0
 13  9  1  0  0  0  0
 14  9  1  0  0  0  0
M  END
$$$$
