14
butane_opt
C  -3.940479   0.264432  -0.015149
C  -2.701318  -0.609604   0.072650
H  -4.878560  -0.381157  -0.007425
H  -3.917859   0.907879  -0.929850
H  -3.966996   0.898278   0.838661
C  -1.411580   0.186587   0.055023
H  -2.672700  -1.317315  -0.798629
H  -2.717919  -1.166791   0.912373
C  -0.162311  -0.698304  -0.000034
H  -1.334433   0.886269   0.942312
H  -1.391561   0.784387  -0.828458
H  -0.098621  -1.395195   0.961524
H   0.755070  -0.110440  -0.163636
H  -0.207409  -1.297201  -0.835321
