14
butane_opt
C  -3.938263   0.250309   0.049274
C  -2.711319  -0.586891  -0.005606
H  -4.871362  -0.350310   0.073666
H  -3.915355   0.841927  -0.835135
H  -3.905345   0.954751   0.901219
C  -1.405290   0.190507  -0.010202
H  -2.734542  -1.324304  -0.882742
H  -2.675091  -1.229106   0.883346
C  -0.163659  -0.706137   0.058266
H  -1.378514   0.876290   0.854020
H  -1.404765   0.796426  -0.885783
H  -0.112210  -1.430187   1.032952
H   0.730817  -0.129713  -0.070843
H  -0.133116  -1.248551  -0.714173
