14
butane_opt
C  -3.937721   0.278278  -0.010751
C  -2.690356  -0.624698   0.050964
H  -4.838075  -0.320292   0.046587
H  -3.987943   0.880089  -0.894925
H  -3.983769   0.887939   0.843593
C  -1.404173   0.171779   0.045254
H  -2.656144  -1.302631  -0.799899
H  -2.719019  -1.269828   0.958847
C  -0.176676  -0.677553   0.012911
H  -1.347236   0.899427   0.944119
H  -1.448342   0.739137  -0.814466
H  -0.080208  -1.365310   0.955500
H   0.729350  -0.091799  -0.156669
H  -0.193529  -1.292713  -0.817926
