butane_opt
 OpenBabel08242015403D

 14 13  0  0  0  0  0  0  0  0999 V2000
   -3.9409    0.2834    0.0400 C   0  0  0  0  0  0  0  0  0  0  0  0
   -2.6934   -0.6326    0.0246 C   0  0  0  0  0  0  0  0  0  0  0  0
   -4.8550   -0.3138   -0.0647 H   0  0  0  0  0  0  0  0  0  0  0  0
   -3.9085    0.7549   -0.7745 H   0  0  0  0  0  0  0  0  0  0  0  0
   -4.0316    1.0591    0.9527 H   0  0  0  0  0  0  0  0  0  0  0  0
   -1.3974    0.1776   -0.0164 C   0  0  0  0  0  0  0  0  0  0  0  0
   -2.7048   -1.3443   -0.8363 H   0  0  0  0  0  0  0  0  0  0  0  0
   -2.7306   -1.2464    0.9205 H   0  0  0  0  0  0  0  0  0  0  0  0
   -0.1697   -0.6843    0.0450 C   0  0  0  0  0  0  0  0  0  0  0  0
   -1.3780    0.8028    0.8174 H   0  0  0  0  0  0  0  0  0  0  0  0
   -1.4013    0.7945   -0.9169 H   0  0  0  0  0  0  0  0  0  0  0  0
   -0.1913   -1.3799    1.0027 H   0  0  0  0  0  0  0  0  0  0  0  0
    0.7256   -0.0711   -0.0121 H   0  0  0  0  0  0  0  0  0  0  0  0
   -0.1386   -1.2521   -0.7408 H   0  0  0  0  0  0  0  0  0  0  0  0
  1  5  1  0  0  0  0
  2  1  1  0  0  0  0
  2  8  1  0  0  0  0
  3  1  1  0  0  0  0
  4  1  1  0  0  0  0
  6  2  1  0  0  0  0
  6  9  1  0  0  0  0
  6 10  1  0  0  0  0
  7  2  1  0  0  0  0
  9 12  1  0  0  0  0
 11  6  1  0  0  0  0
 13  9  1  0  0  0  0
 14  9  1  0  0  0  0
M  END
$$$$
