14
butane_opt
C  -3.925287   0.257479   0.001540
C  -2.706823  -0.607441   0.060914
H  -4.875530  -0.367235   0.023982
H  -3.920373   0.854692  -0.897951
H  -3.988651   0.944593   0.876488
C  -1.408094   0.206015   0.019217
H  -2.744811  -1.290230  -0.783864
H  -2.722619  -1.276171   0.991642
C  -0.161596  -0.706702   0.025534
H  -1.408445   0.839898   0.846654
H  -1.429294   0.858708  -0.918412
H  -0.121913  -1.248583   0.856099
H   0.734060  -0.106085   0.084432
H  -0.120504  -1.478332  -0.929918
