butane_opt
 OpenBabel08242015403D

 14 13  0  0  0  0  0  0  0  0999 V2000
   -3.9567    0.2774    0.0196 C   0  0  0  0  0  0  0  0  0  0  0  0
   -2.7023   -0.6427    0.0202 C   0  0  0  0  0  0  0  0  0  0  0  0
   -4.8103   -0.2949    0.0310 H   0  0  0  0  0  0  0  0  0  0  0  0
   -4.0360    0.8846   -0.8641 H   0  0  0  0  0  0  0  0  0  0  0  0
   -3.9436    0.9744    0.8990 H   0  0  0  0  0  0  0  0  0  0  0  0
   -1.3924    0.1829    0.0229 C   0  0  0  0  0  0  0  0  0  0  0  0
   -2.7329   -1.3114   -0.8361 H   0  0  0  0  0  0  0  0  0  0  0  0
   -2.7266   -1.2193    0.9023 H   0  0  0  0  0  0  0  0  0  0  0  0
   -0.1545   -0.6894    0.0349 C   0  0  0  0  0  0  0  0  0  0  0  0
   -1.3614    0.8577    0.8791 H   0  0  0  0  0  0  0  0  0  0  0  0
   -1.4048    0.8106   -0.8590 H   0  0  0  0  0  0  0  0  0  0  0  0
   -0.1088   -1.3989    0.9836 H   0  0  0  0  0  0  0  0  0  0  0  0
    0.7601   -0.0893   -0.1121 H   0  0  0  0  0  0  0  0  0  0  0  0
   -0.1926   -1.2136   -0.7433 H   0  0  0  0  0  0  0  0  0  0  0  0
  1  2  1  0  0  0  0
  1  3  1  0  0  0  0
  1  5  1  0  0  0  0
  2  6  1  0  0  0  0
  2  8  1  0  0  0  0
  4  1  1  0  0  0  0
  6  9  1  0  0  0  0
  6 10  1  0  0  0  0
  7  2  1  0  0  0  0
  9 12  1  0  0  0  0
 11  6  1  0  0  0  0
 13  9  1  0  0  0  0
 14  9  1  0  0  0  0
M  END
$$$$
