butane_opt
 OpenBabel08242015403D

 14 13  0  0  0  0  0  0  0  0999 V2000
   -3.9539    0.2782    0.0392 C   0  0  0  0  0  0  0  0  0  0  0  0
   -2.6978   -0.6388    0.0048 C   0  0  0  0  0  0  0  0  0  0  0  0
   -4.8312   -0.2697    0.0662 H   0  0  0  0  0  0  0  0  0  0  0  0
   -4.0097    0.8331   -0.8145 H   0  0  0  0  0  0  0  0  0  0  0  0
   -3.9759    0.9790    0.9366 H   0  0  0  0  0  0  0  0  0  0  0  0
   -1.4056    0.1833    0.0003 C   0  0  0  0  0  0  0  0  0  0  0  0
   -2.6824   -1.3505   -0.8933 H   0  0  0  0  0  0  0  0  0  0  0  0
   -2.7229   -1.2431    0.8771 H   0  0  0  0  0  0  0  0  0  0  0  0
   -0.1538   -0.6830    0.0531 C   0  0  0  0  0  0  0  0  0  0  0  0
   -1.3711    0.7968    0.8127 H   0  0  0  0  0  0  0  0  0  0  0  0
   -1.3597    0.8438   -0.9147 H   0  0  0  0  0  0  0  0  0  0  0  0
   -0.1399   -1.3713    1.0189 H   0  0  0  0  0  0  0  0  0  0  0  0
    0.7750   -0.0932   -0.0594 H   0  0  0  0  0  0  0  0  0  0  0  0
   -0.1785   -1.2622   -0.7380 H   0  0  0  0  0  0  0  0  0  0  0  0
  1  3  1  0  0  0  0
  1  5  1  0  0  0  0
  2  1  1  0  0  0  0
  2  8  1  0  0  0  0
  4  1  1  0  0  0  0
  6  2  1  0  0  0  0
  6  9  1  0  0  0  0
  6 10  1  0  0  0  0
  7  2  1  0  0  0  0
  9 12  1  0  0  0  0
 11  6  1  0  0  0  0
 13  9  1  0  0  0  0
 14  9  1  0  0  0  0
M  END
$$$$
