butane_opt
 OpenBabel08242015403D

 14 13  0  0  0  0  0  0  0  0999 V2000
   -3.9326    0.2610    0.0158 C   0  0  0  0  0  0  0  0  0  0  0  0
   -2.7019   -0.6032    0.0328 C   0  0  0  0  0  0  0  0  0  0  0  0
   -4.8413   -0.3517    0.1046 H   0  0  0  0  0  0  0  0  0  0  0  0
   -3.9750    0.9708   -0.9401 H   0  0  0  0  0  0  0  0  0  0  0  0
   -3.8935    0.7908    0.7896 H   0  0  0  0  0  0  0  0  0  0  0  0
   -1.4064    0.1905    0.0290 C   0  0  0  0  0  0  0  0  0  0  0  0
   -2.7804   -1.2647   -0.8109 H   0  0  0  0  0  0  0  0  0  0  0  0
   -2.6886   -1.2281    0.9189 H   0  0  0  0  0  0  0  0  0  0  0  0
   -0.1594   -0.7029    0.0228 C   0  0  0  0  0  0  0  0  0  0  0  0
   -1.4054    0.9139    0.9123 H   0  0  0  0  0  0  0  0  0  0  0  0
   -1.4298    0.7572   -0.8540 H   0  0  0  0  0  0  0  0  0  0  0  0
   -0.1729   -1.3295    0.9210 H   0  0  0  0  0  0  0  0  0  0  0  0
    0.7476   -0.0972    0.0163 H   0  0  0  0  0  0  0  0  0  0  0  0
   -0.1787   -1.3745   -0.8400 H   0  0  0  0  0  0  0  0  0  0  0  0
  1  2  1  0  0  0  0
  1  3  1  0  0  0  0
  1  5  1  0  0  0  0
  2  8  1  0  0  0  0
  4  1  1  0  0  0  0
  6  2  1  0  0  0  0
  6 10  1  0  0  0  0
  7  2  1  0  0  0  0
  9  6  1  0  0  0  0
  9 12  1  0  0  0  0
 11  6  1  0  0  0  0
 13  9  1  0  0  0  0
 14  9  1  0  0  0  0
M  END
$$$$
