butane_opt
 OpenBabel08242015403D

 14 13  0  0  0  0  0  0  0  0999 V2000
   -3.9625    0.2674    0.0403 C   0  0  0  0  0  0  0  0  0  0  0  0
   -2.6980   -0.6171    0.0266 C   0  0  0  0  0  0  0  0  0  0  0  0
   -4.8323   -0.2951    0.0025 H   0  0  0  0  0  0  0  0  0  0  0  0
   -4.0018    0.8732   -0.8500 H   0  0  0  0  0  0  0  0  0  0  0  0
   -3.9554    0.9782    0.8961 H   0  0  0  0  0  0  0  0  0  0  0  0
   -1.3938    0.1703   -0.0175 C   0  0  0  0  0  0  0  0  0  0  0  0
   -2.6889   -1.3055   -0.8191 H   0  0  0  0  0  0  0  0  0  0  0  0
   -2.6635   -1.2758    0.9359 H   0  0  0  0  0  0  0  0  0  0  0  0
   -0.1604   -0.6846    0.0466 C   0  0  0  0  0  0  0  0  0  0  0  0
   -1.3434    0.8134    0.7954 H   0  0  0  0  0  0  0  0  0  0  0  0
   -1.4057    0.8141   -0.9023 H   0  0  0  0  0  0  0  0  0  0  0  0
   -0.2266   -1.2444    0.9221 H   0  0  0  0  0  0  0  0  0  0  0  0
    0.7448   -0.0805    0.1341 H   0  0  0  0  0  0  0  0  0  0  0  0
   -0.0754   -1.3792   -0.8286 H   0  0  0  0  0  0  0  0  0  0  0  0
  1  5  1  0  0  0  0
  2  1  1  0  0  0  0
  2  8  1  0  0  0  0
  3  1  1  0  0  0  0
  4  1  1  0  0  0  0
  6  2  1  0  0  0  0
  6  9  1  0  0  0  0
  6 10  1  0  0  0  0
  7  2  1  0  0  0  0
  9 13  1  0  0  0  0
  9 12  1  0  0  0  0
 11  6  1  0  0  0  0
 14  9  1  0  0  0  0
M  END
$$$$
