butane_opt
 OpenBabel08242015403D

 14 13  0  0  0  0  0  0  0  0999 V2000
   -3.9452    0.2743   -0.0101 C   0  0  0  0  0  0  0  0  0  0  0  0
   -2.6944   -0.6227    0.0689 C   0  0  0  0  0  0  0  0  0  0  0  0
   -4.8193   -0.2978    0.0137 H   0  0  0  0  0  0  0  0  0  0  0  0
   -3.9693    0.8839   -0.8900 H   0  0  0  0  0  0  0  0  0  0  0  0
   -3.9775    0.9233    0.8269 H   0  0  0  0  0  0  0  0  0  0  0  0
   -1.3996    0.1772    0.0336 C   0  0  0  0  0  0  0  0  0  0  0  0
   -2.6611   -1.2819   -0.7819 H   0  0  0  0  0  0  0  0  0  0  0  0
   -2.7755   -1.2935    0.9851 H   0  0  0  0  0  0  0  0  0  0  0  0
   -0.1756   -0.6919    0.0039 C   0  0  0  0  0  0  0  0  0  0  0  0
   -1.3312    0.8954    0.9354 H   0  0  0  0  0  0  0  0  0  0  0  0
   -1.3981    0.7836   -0.8492 H   0  0  0  0  0  0  0  0  0  0  0  0
   -0.1237   -1.2886    0.8924 H   0  0  0  0  0  0  0  0  0  0  0  0
    0.7907   -0.0517    0.0042 H   0  0  0  0  0  0  0  0  0  0  0  0
   -0.1905   -1.3768   -0.8469 H   0  0  0  0  0  0  0  0  0  0  0  0
  1  3  1  0  0  0  0
  1  2  1  0  0  0  0
  1  5  1  0  0  0  0
  2  8  1  0  0  0  0
  4  1  1  0  0  0  0
  6  2  1  0  0  0  0
  6 10  1  0  0  0  0
  7  2  1  0  0  0  0
  9 13  1  0  0  0  0
  9  6  1  0  0  0  0
  9 12  1  0  0  0  0
 11  6  1  0  0  0  0
 14  9  1  0  0  0  0
M  END
$$$$
