butane_opt
 OpenBabel08242015403D

 14 13  0  0  0  0  0  0  0  0999 V2000
   -3.9419    0.2582   -0.0121 C   0  0  0  0  0  0  0  0  0  0  0  0
   -2.7089   -0.6155    0.0658 C   0  0  0  0  0  0  0  0  0  0  0  0
   -4.8517   -0.3418    0.0528 H   0  0  0  0  0  0  0  0  0  0  0  0
   -3.9669    0.9371   -0.9577 H   0  0  0  0  0  0  0  0  0  0  0  0
   -3.9616    0.8935    0.8444 H   0  0  0  0  0  0  0  0  0  0  0  0
   -1.4058    0.2003    0.0356 C   0  0  0  0  0  0  0  0  0  0  0  0
   -2.7010   -1.2302   -0.7365 H   0  0  0  0  0  0  0  0  0  0  0  0
   -2.7656   -1.2995    1.0041 H   0  0  0  0  0  0  0  0  0  0  0  0
   -0.1517   -0.7079    0.0124 C   0  0  0  0  0  0  0  0  0  0  0  0
   -1.3894    0.9582    0.9099 H   0  0  0  0  0  0  0  0  0  0  0  0
   -1.3631    0.7849   -0.8290 H   0  0  0  0  0  0  0  0  0  0  0  0
   -0.1226   -1.2328    0.8449 H   0  0  0  0  0  0  0  0  0  0  0  0
    0.7643   -0.1218   -0.0085 H   0  0  0  0  0  0  0  0  0  0  0  0
   -0.1568   -1.4441   -0.9219 H   0  0  0  0  0  0  0  0  0  0  0  0
  1  3  1  0  0  0  0
  1  2  1  0  0  0  0
  1  5  1  0  0  0  0
  2  8  1  0  0  0  0
  4  1  1  0  0  0  0
  6  2  1  0  0  0  0
  6 10  1  0  0  0  0
  7  2  1  0  0  0  0
  9  6  1  0  0  0  0
  9 12  1  0  0  0  0
 11  6  1  0  0  0  0
 13  9  1  0  0  0  0
 14  9  1  0  0  0  0
M  END
$$$$
