14
butane_opt
C  -3.936553   0.252531  -0.003387
C  -2.706012  -0.589176   0.069099
H  -4.881341  -0.374599  -0.088229
H  -3.871973   0.831206  -0.874906
H  -4.011951   0.934943   0.870521
C  -1.404457   0.186253   0.032398
H  -2.699231  -1.267092  -0.759355
H  -2.711304  -1.248380   0.980404
C  -0.167759  -0.710011   0.016154
H  -1.347200   0.883042   0.879299
H  -1.436020   0.859036  -0.890004
H  -0.081759  -1.264896   0.885800
H   0.736206  -0.115865  -0.053436
H  -0.135684  -1.396101  -0.883810
