butane_opt
 OpenBabel08242015403D

 14 13  0  0  0  0  0  0  0  0999 V2000
   -3.9508    0.2753    0.0398 C   0  0  0  0  0  0  0  0  0  0  0  0
   -2.7022   -0.6408    0.0195 C   0  0  0  0  0  0  0  0  0  0  0  0
   -4.8484   -0.2996    0.1160 H   0  0  0  0  0  0  0  0  0  0  0  0
   -4.0204    0.9455   -0.8793 H   0  0  0  0  0  0  0  0  0  0  0  0
   -3.9359    0.9584    0.8793 H   0  0  0  0  0  0  0  0  0  0  0  0
   -1.3973    0.1841   -0.0115 C   0  0  0  0  0  0  0  0  0  0  0  0
   -2.7694   -1.3534   -0.8818 H   0  0  0  0  0  0  0  0  0  0  0  0
   -2.7291   -1.2254    0.8919 H   0  0  0  0  0  0  0  0  0  0  0  0
   -0.1568   -0.6892    0.0522 C   0  0  0  0  0  0  0  0  0  0  0  0
   -1.4309    0.8315    0.8241 H   0  0  0  0  0  0  0  0  0  0  0  0
   -1.3220    0.8547   -0.9326 H   0  0  0  0  0  0  0  0  0  0  0  0
   -0.1322   -1.2875    0.9350 H   0  0  0  0  0  0  0  0  0  0  0  0
    0.7699   -0.0710    0.1040 H   0  0  0  0  0  0  0  0  0  0  0  0
   -0.1284   -1.3738   -0.8188 H   0  0  0  0  0  0  0  0  0  0  0  0
  1  3  1  0  0  0  0
  1  5  1  0  0  0  0
  2  1  1  0  0  0  0
  2  8  1  0  0  0  0
  4  1  1  0  0  0  0
  6  2  1  0  0  0  0
  6  9  1  0  0  0  0
  6 10  1  0  0  0  0
  7  2  1  0  0  0  0
  9 13  1  0  0  0  0
  9 12  1  0  0  0  0
 11  6  1  0  0  0  0
 14  9  1  0  0  0  0
M  END
$$$$
