14
butane_opt
C  -3.919830   0.259762  -0.006915
C  -2.710449  -0.608510   0.072750
H  -4.850994  -0.366086  -0.062535
H  -3.926195   0.855691  -0.908296
H  -3.987821   0.899222   0.832668
C  -1.411963   0.199197   0.043204
H  -2.706759  -1.313303  -0.781165
H  -2.780458  -1.200530   0.954020
C  -0.158046  -0.708756   0.001928
H  -1.369880   0.930903   0.915717
H  -1.464995   0.835224  -0.838409
H  -0.088812  -1.371724   0.905823
H   0.741011  -0.130620  -0.084633
H  -0.178041  -1.316912  -0.818719
