butane_opt
 OpenBabel08242015403D

 14 13  0  0  0  0  0  0  0  0999 V2000
   -3.9323    0.2696    0.0397 C   0  0  0  0  0  0  0  0  0  0  0  0
   -2.6928   -0.6220    0.0063 C   0  0  0  0  0  0  0  0  0  0  0  0
   -4.8394   -0.3231    0.0610 H   0  0  0  0  0  0  0  0  0  0  0  0
   -4.0152    0.8580   -0.8297 H   0  0  0  0  0  0  0  0  0  0  0  0
   -3.9336    0.9309    0.9159 H   0  0  0  0  0  0  0  0  0  0  0  0
   -1.4198    0.1839   -0.0133 C   0  0  0  0  0  0  0  0  0  0  0  0
   -2.7689   -1.2814   -0.8185 H   0  0  0  0  0  0  0  0  0  0  0  0
   -2.6817   -1.2962    0.9404 H   0  0  0  0  0  0  0  0  0  0  0  0
   -0.1642   -0.6912    0.0548 C   0  0  0  0  0  0  0  0  0  0  0  0
   -1.4254    0.8589    0.8300 H   0  0  0  0  0  0  0  0  0  0  0  0
   -1.3659    0.8462   -0.9335 H   0  0  0  0  0  0  0  0  0  0  0  0
   -0.1450   -1.2959    0.9587 H   0  0  0  0  0  0  0  0  0  0  0  0
    0.7745   -0.0688    0.1003 H   0  0  0  0  0  0  0  0  0  0  0  0
   -0.1210   -1.3826   -0.8399 H   0  0  0  0  0  0  0  0  0  0  0  0
  1  3  1  0  0  0  0
  1  5  1  0  0  0  0
  2  1  1  0  0  0  0
  2  8  1  0  0  0  0
  4  1  1  0  0  0  0
  6  2  1  0  0  0  0
  6  9  1  0  0  0  0
  6 10  1  0  0  0  0
  7  2  1  0  0  0  0
  9 13  1  0  0  0  0
  9 12  1  0  0  0  0
 11  6  1  0  0  0  0
 14  9  1  0  0  0  0
M  END
$$$$
