butane_opt
 OpenBabel08242015403D

 14 13  0  0  0  0  0  0  0  0999 V2000
   -3.9392    0.2667    0.0530 C   0  0  0  0  0  0  0  0  0  0  0  0
   -2.7051   -0.6086   -0.0078 C   0  0  0  0  0  0  0  0  0  0  0  0
   -4.8153   -0.3165    0.1626 H   0  0  0  0  0  0  0  0  0  0  0  0
   -4.0444    0.9525   -0.8847 H   0  0  0  0  0  0  0  0  0  0  0  0
   -3.8415    0.8729    0.8817 H   0  0  0  0  0  0  0  0  0  0  0  0
   -1.4073    0.1712   -0.0135 C   0  0  0  0  0  0  0  0  0  0  0  0
   -2.7214   -1.3514   -0.8885 H   0  0  0  0  0  0  0  0  0  0  0  0
   -2.6813   -1.1736    0.8365 H   0  0  0  0  0  0  0  0  0  0  0  0
   -0.1660   -0.6891    0.0715 C   0  0  0  0  0  0  0  0  0  0  0  0
   -1.4337    0.8191    0.8101 H   0  0  0  0  0  0  0  0  0  0  0  0
   -1.3342    0.7990   -0.9195 H   0  0  0  0  0  0  0  0  0  0  0  0
   -0.1602   -1.3442    0.9804 H   0  0  0  0  0  0  0  0  0  0  0  0
    0.7794   -0.0625    0.0087 H   0  0  0  0  0  0  0  0  0  0  0  0
   -0.1687   -1.3367   -0.7948 H   0  0  0  0  0  0  0  0  0  0  0  0
  1  3  1  0  0  0  0
  1  5  1  0  0  0  0
  2  1  1  0  0  0  0
  2  8  1  0  0  0  0
  4  1  1  0  0  0  0
  6  2  1  0  0  0  0
  6  9  1  0  0  0  0
  6 10  1  0  0  0  0
  7  2  1  0  0  0  0
  9 12  1  0  0  0  0
 11  6  1  0  0  0  0
 13  9  1  0  0  0  0
 14  9  1  0  0  0  0
M  END
$$$$
