butane_opt
 OpenBabel08242015403D

 14 13  0  0  0  0  0  0  0  0999 V2000
   -3.9333    0.2561    0.0437 C   0  0  0  0  0  0  0  0  0  0  0  0
   -2.7080   -0.6006    0.0015 C   0  0  0  0  0  0  0  0  0  0  0  0
   -4.9081   -0.3997    0.0295 H   0  0  0  0  0  0  0  0  0  0  0  0
   -3.9309    0.7976   -0.7918 H   0  0  0  0  0  0  0  0  0  0  0  0
   -3.9609    0.9845    0.9509 H   0  0  0  0  0  0  0  0  0  0  0  0
   -1.4055    0.1990   -0.0219 C   0  0  0  0  0  0  0  0  0  0  0  0
   -2.7369   -1.2819   -0.8450 H   0  0  0  0  0  0  0  0  0  0  0  0
   -2.6407   -1.1910    0.8619 H   0  0  0  0  0  0  0  0  0  0  0  0
   -0.1616   -0.7107    0.0635 C   0  0  0  0  0  0  0  0  0  0  0  0
   -1.3799    0.8949    0.8709 H   0  0  0  0  0  0  0  0  0  0  0  0
   -1.4007    0.8067   -0.8976 H   0  0  0  0  0  0  0  0  0  0  0  0
   -0.1105   -1.4528    1.0323 H   0  0  0  0  0  0  0  0  0  0  0  0
    0.7283   -0.1057   -0.0814 H   0  0  0  0  0  0  0  0  0  0  0  0
   -0.1703   -1.2594   -0.7115 H   0  0  0  0  0  0  0  0  0  0  0  0
  1  5  1  0  0  0  0
  2  1  1  0  0  0  0
  2  8  1  0  0  0  0
  3  1  1  0  0  0  0
  4  1  1  0  0  0  0
  6  2  1  0  0  0  0
  6  9  1  0  0  0  0
  6 10  1  0  0  0  0
  7  2  1  0  0  0  0
  9 12  1  0  0  0  0
 11  6  1  0  0  0  0
 13  9  1  0  0  0  0
 14  9  1  0  0  0  0
M  END
$$$$
