butane_opt
 OpenBabel08242015403D

 14 13  0  0  0  0  0  0  0  0999 V2000
   -3.9453    0.2549   -0.0097 C   0  0  0  0  0  0  0  0  0  0  0  0
   -2.7148   -0.6056    0.0861 C   0  0  0  0  0  0  0  0  0  0  0  0
   -4.8681   -0.3446   -0.0910 H   0  0  0  0  0  0  0  0  0  0  0  0
   -3.9088    0.8422   -0.9122 H   0  0  0  0  0  0  0  0  0  0  0  0
   -4.0603    0.9456    0.8471 H   0  0  0  0  0  0  0  0  0  0  0  0
   -1.3937    0.2074    0.0320 C   0  0  0  0  0  0  0  0  0  0  0  0
   -2.7178   -1.2504   -0.7281 H   0  0  0  0  0  0  0  0  0  0  0  0
   -2.7249   -1.2920    0.9952 H   0  0  0  0  0  0  0  0  0  0  0  0
   -0.1570   -0.7071   -0.0051 C   0  0  0  0  0  0  0  0  0  0  0  0
   -1.3727    0.9046    0.8838 H   0  0  0  0  0  0  0  0  0  0  0  0
   -1.3773    0.7742   -0.8306 H   0  0  0  0  0  0  0  0  0  0  0  0
   -0.0650   -1.2937    0.8893 H   0  0  0  0  0  0  0  0  0  0  0  0
    0.7121   -0.1373    0.0423 H   0  0  0  0  0  0  0  0  0  0  0  0
   -0.1044   -1.4232   -0.8985 H   0  0  0  0  0  0  0  0  0  0  0  0
  1  2  1  0  0  0  0
  1  5  1  0  0  0  0
  2  8  1  0  0  0  0
  3  1  1  0  0  0  0
  4  1  1  0  0  0  0
  6  2  1  0  0  0  0
  6 10  1  0  0  0  0
  7  2  1  0  0  0  0
  9  6  1  0  0  0  0
  9 13  1  0  0  0  0
  9 12  1  0  0  0  0
 11  6  1  0  0  0  0
 14  9  1  0  0  0  0
M  END
$$$$
