14
butane_opt
C  -3.960803   0.274398   0.039157
C  -2.700964  -0.627343   0.019542
H  -4.841494  -0.307348  -0.079721
H  -4.013872   0.772940  -0.787597
H  -4.031982   1.046067   0.967807
C  -1.394604   0.177877  -0.019320
H  -2.704823  -1.289361  -0.810520
H  -2.677770  -1.319423   0.947357
C  -0.147365  -0.687039   0.056910
H  -1.384173   0.843357   0.823318
H  -1.383594   0.858211  -0.927510
H  -0.165420  -1.333793   0.947344
H   0.789363  -0.062111   0.017146
H  -0.162456  -1.332464  -0.801611
