14
butane_opt
C  -3.943494   0.262841  -0.005114
C  -2.685470  -0.623195   0.042360
H  -4.856206  -0.315024   0.132239
H  -3.991926   1.031407  -0.974844
H  -3.900473   0.849236   0.801873
C  -1.410042   0.183723   0.050595
H  -2.660140  -1.292854  -0.775392
H  -2.710154  -1.283836   0.980443
C  -0.176877  -0.691274   0.009180
H  -1.387938   0.916978   0.926291
H  -1.342332   0.788370  -0.807693
H  -0.138103  -1.281921   0.879526
H   0.743809  -0.083443  -0.041905
H  -0.186976  -1.383807  -0.868300
