butane_opt
 OpenBabel08242015403D

 14 13  0  0  0  0  0  0  0  0999 V2000
   -3.9629    0.2685   -0.0037 C   0  0  0  0  0  0  0  0  0  0  0  0
   -2.6990   -0.6230    0.0739 C   0  0  0  0  0  0  0  0  0  0  0  0
   -4.8692   -0.3159   -0.0279 H   0  0  0  0  0  0  0  0  0  0  0  0
   -3.9657    0.9177   -0.9222 H   0  0  0  0  0  0  0  0  0  0  0  0
   -4.0055    0.9313    0.8548 H   0  0  0  0  0  0  0  0  0  0  0  0
   -1.3940    0.1718    0.0341 C   0  0  0  0  0  0  0  0  0  0  0  0
   -2.6575   -1.2376   -0.7482 H   0  0  0  0  0  0  0  0  0  0  0  0
   -2.6932   -1.2690    0.9718 H   0  0  0  0  0  0  0  0  0  0  0  0
   -0.1627   -0.6870    0.0097 C   0  0  0  0  0  0  0  0  0  0  0  0
   -1.3925    0.8310    0.8578 H   0  0  0  0  0  0  0  0  0  0  0  0
   -1.3380    0.8333   -0.8968 H   0  0  0  0  0  0  0  0  0  0  0  0
   -0.1305   -1.2118    0.8189 H   0  0  0  0  0  0  0  0  0  0  0  0
    0.7612   -0.0495    0.0785 H   0  0  0  0  0  0  0  0  0  0  0  0
   -0.1141   -1.4669   -0.9330 H   0  0  0  0  0  0  0  0  0  0  0  0
  1  2  1  0  0  0  0
  1  5  1  0  0  0  0
  2  8  1  0  0  0  0
  3  1  1  0  0  0  0
  4  1  1  0  0  0  0
  6  2  1  0  0  0  0
  6 10  1  0  0  0  0
  7  2  1  0  0  0  0
  9  6  1  0  0  0  0
  9 13  1  0  0  0  0
  9 12  1  0  0  0  0
 11  6  1  0  0  0  0
 14  9  1  0  0  0  0
M  END
$$$$
