14
butane_opt
C  -3.950432   0.267482   0.041397
C  -2.705768  -0.626117   0.018040
H  -4.814770  -0.300873   0.062458
H  -4.011763   0.879243  -0.855611
H  -3.963209   0.960676   0.929807
C  -1.389327   0.192901  -0.020857
H  -2.776282  -1.316152  -0.870078
H  -2.699502  -1.258431   0.909429
C  -0.157754  -0.692159   0.055465
H  -1.445916   0.869578   0.815784
H  -1.348961   0.802040  -0.910314
H  -0.149839  -1.351272   0.950250
H   0.745748  -0.088483   0.084354
H  -0.122229  -1.365466  -0.802888
