14
butane_opt
C  -3.943616   0.260604   0.036232
C  -2.706202  -0.607822   0.020051
H  -4.879668  -0.351334  -0.057917
H  -3.941457   0.699048  -0.734368
H  -3.962079   1.072924   1.008683
C  -1.409714   0.193347  -0.022558
H  -2.754898  -1.267813  -0.863139
H  -2.703967  -1.281451   0.942930
C  -0.142175  -0.699951   0.055769
H  -1.432352   0.833184   0.792500
H  -1.416318   0.871831  -0.949608
H  -0.169475  -1.379264   0.995804
H   0.770184  -0.130839   0.028250
H  -0.108284  -1.299384  -0.772992
