14
butane_opt
C  -3.956273   0.255734  -0.022389
C  -2.700862  -0.608269   0.081575
H  -4.867053  -0.361275  -0.074124
H  -3.926890   0.803585  -0.893481
H  -4.040610   0.994617   0.886987
C  -1.405475   0.187979   0.046325
H  -2.686139  -1.187808  -0.706349
H  -2.809873  -1.254268   1.009620
C  -0.137119  -0.697811  -0.006607
H  -1.383938   0.892802   0.918250
H  -1.412185   0.816200  -0.830665
H  -0.083860  -1.342608   0.897141
H   0.759914  -0.130187  -0.034327
H  -0.168871  -1.366336  -0.908305
