14
butane_opt
C  -3.942636   0.269557   0.046267
C  -2.696313  -0.608553   0.006528
H  -4.881669  -0.389228   0.003659
H  -3.943770   0.791509  -0.806680
H  -3.960487   0.986543   0.924290
C  -1.417093   0.185175  -0.015904
H  -2.725883  -1.359005  -0.885700
H  -2.658034  -1.236247   0.874751
C  -0.157350  -0.696197   0.060053
H  -1.406313   0.895217   0.860880
H  -1.344340   0.794505  -0.883380
H  -0.114077  -1.433180   1.042162
H   0.745874  -0.114330  -0.138467
H  -0.169298  -1.205708  -0.699396
