butane_opt
 OpenBabel08242015403D

 14 13  0  0  0  0  0  0  0  0999 V2000
   -3.9511    0.2604   -0.0065 C   0  0  0  0  0  0  0  0  0  0  0  0
   -2.7070   -0.5966    0.0415 C   0  0  0  0  0  0  0  0  0  0  0  0
   -4.9110   -0.3781    0.1470 H   0  0  0  0  0  0  0  0  0  0  0  0
   -3.9957    0.9241   -0.9584 H   0  0  0  0  0  0  0  0  0  0  0  0
   -3.9408    0.8194    0.8021 H   0  0  0  0  0  0  0  0  0  0  0  0
   -1.3964    0.1960    0.0496 C   0  0  0  0  0  0  0  0  0  0  0  0
   -2.7488   -1.2559   -0.7925 H   0  0  0  0  0  0  0  0  0  0  0  0
   -2.7421   -1.2809    0.9746 H   0  0  0  0  0  0  0  0  0  0  0  0
   -0.1487   -0.7084    0.0137 C   0  0  0  0  0  0  0  0  0  0  0  0
   -1.3680    0.8947    0.9159 H   0  0  0  0  0  0  0  0  0  0  0  0
   -1.3847    0.8148   -0.8111 H   0  0  0  0  0  0  0  0  0  0  0  0
   -0.0729   -1.3030    0.8655 H   0  0  0  0  0  0  0  0  0  0  0  0
    0.7377   -0.1482   -0.0248 H   0  0  0  0  0  0  0  0  0  0  0  0
   -0.1466   -1.3799   -0.8689 H   0  0  0  0  0  0  0  0  0  0  0  0
  1  2  1  0  0  0  0
  1  3  1  0  0  0  0
  1  5  1  0  0  0  0
  2  6  1  0  0  0  0
  2  8  1  0  0  0  0
  4  1  1  0  0  0  0
  6 10  1  0  0  0  0
  7  2  1  0  0  0  0
  9  6  1  0  0  0  0
  9 12  1  0  0  0  0
 11  6  1  0  0  0  0
 13  9  1  0  0  0  0
 14  9  1  0  0  0  0
M  END
$$$$
