butane_opt
 OpenBabel08242015403D

 14 13  0  0  0  0  0  0  0  0999 V2000
   -3.9426    0.2729   -0.0242 C   0  0  0  0  0  0  0  0  0  0  0  0
   -2.6934   -0.6269    0.0760 C   0  0  0  0  0  0  0  0  0  0  0  0
   -4.8637   -0.3299    0.0100 H   0  0  0  0  0  0  0  0  0  0  0  0
   -3.9000    0.8884   -0.9384 H   0  0  0  0  0  0  0  0  0  0  0  0
   -3.9857    0.9640    0.8543 H   0  0  0  0  0  0  0  0  0  0  0  0
   -1.3996    0.1807    0.0533 C   0  0  0  0  0  0  0  0  0  0  0  0
   -2.6885   -1.2853   -0.7724 H   0  0  0  0  0  0  0  0  0  0  0  0
   -2.7088   -1.2722    0.9678 H   0  0  0  0  0  0  0  0  0  0  0  0
   -0.1748   -0.6896   -0.0061 C   0  0  0  0  0  0  0  0  0  0  0  0
   -1.3254    0.9038    0.9272 H   0  0  0  0  0  0  0  0  0  0  0  0
   -1.4396    0.7542   -0.7728 H   0  0  0  0  0  0  0  0  0  0  0  0
   -0.1070   -1.3453    0.9357 H   0  0  0  0  0  0  0  0  0  0  0  0
    0.7274   -0.0962   -0.1092 H   0  0  0  0  0  0  0  0  0  0  0  0
   -0.2063   -1.2965   -0.8407 H   0  0  0  0  0  0  0  0  0  0  0  0
  1  3  1  0  0  0  0
  1  2  1  0  0  0  0
  1  5  1  0  0  0  0
  2  8  1  0  0  0  0
  4  1  1  0  0  0  0
  6  2  1  0  0  0  0
  6 10  1  0  0  0  0
  7  2  1  0  0  0  0
  9  6  1  0  0  0  0
  9 12  1  0  0  0  0
 11  6  1  0  0  0  0
 13  9  1  0  0  0  0
 14  9  1  0  0  0  0
M  END
$$$$
