14
butane_opt
C  -3.933550   0.259381  -0.007640
C  -2.700222  -0.615522   0.084879
H  -4.834797  -0.320038  -0.062755
H  -3.870726   0.806952  -0.876084
H  -4.038225   0.981003   0.873937
C  -1.410815   0.195372   0.025273
H  -2.699284  -1.283845  -0.764782
H  -2.745329  -1.219678   0.961406
C  -0.167395  -0.709628   0.006845
H  -1.340923   0.887345   0.863282
H  -1.416771   0.853620  -0.893111
H  -0.152104  -1.270925   0.870194
H   0.759361  -0.074632   0.025919
H  -0.137851  -1.394257  -0.860715
