14
butane_opt
C  -3.932707   0.268450  -0.019602
C  -2.706051  -0.605220   0.079110
H  -4.867846  -0.373541  -0.037899
H  -3.877465   0.805494  -0.865102
H  -4.003628   0.927799   0.845857
C  -1.412193   0.192276   0.042723
H  -2.681291  -1.296750  -0.755266
H  -2.750924  -1.228358   0.987363
C  -0.163823  -0.703468   0.005537
H  -1.326889   0.840146   0.894952
H  -1.420544   0.819624  -0.855449
H  -0.087674  -1.296859   0.892495
H   0.761643  -0.114586  -0.066988
H  -0.191637  -1.380934  -0.886702
