14
butane_opt
C  -3.940253   0.267920  -0.009141
C  -2.692603  -0.611557   0.082023
H  -4.826231  -0.332070  -0.131126
H  -3.871290   0.845707  -0.880210
H  -4.053975   0.998796   0.890272
C  -1.406356   0.169105   0.026976
H  -2.673502  -1.234061  -0.733434
H  -2.756151  -1.293857   1.023269
C  -0.175175  -0.693193   0.002790
H  -1.349125   0.877979   0.929844
H  -1.394403   0.776671  -0.847242
H  -0.170363  -1.271734   0.868694
H   0.796710  -0.044672  -0.031705
H  -0.157232  -1.376399  -0.881654
