butane_opt
 OpenBabel08242015403D

 14 13  0  0  0  0  0  0  0  0999 V2000
   -3.9460    0.2793    0.0316 C   0  0  0  0  0  0  0  0  0  0  0  0
   -2.6990   -0.6355    0.0044 C   0  0  0  0  0  0  0  0  0  0  0  0
   -4.8413   -0.2784    0.0536 H   0  0  0  0  0  0  0  0  0  0  0  0
   -4.0031    0.8093   -0.7820 H   0  0  0  0  0  0  0  0  0  0  0  0
   -3.9920    1.0071    0.9106 H   0  0  0  0  0  0  0  0  0  0  0  0
   -1.3985    0.1790    0.0110 C   0  0  0  0  0  0  0  0  0  0  0  0
   -2.7437   -1.3380   -0.8613 H   0  0  0  0  0  0  0  0  0  0  0  0
   -2.7071   -1.2336    0.8546 H   0  0  0  0  0  0  0  0  0  0  0  0
   -0.1560   -0.6856    0.0479 C   0  0  0  0  0  0  0  0  0  0  0  0
   -1.4071    0.8042    0.8437 H   0  0  0  0  0  0  0  0  0  0  0  0
   -1.3645    0.8323   -0.8916 H   0  0  0  0  0  0  0  0  0  0  0  0
   -0.1192   -1.4360    1.0373 H   0  0  0  0  0  0  0  0  0  0  0  0
    0.7666   -0.0697   -0.1339 H   0  0  0  0  0  0  0  0  0  0  0  0
   -0.2248   -1.2067   -0.7072 H   0  0  0  0  0  0  0  0  0  0  0  0
  1  3  1  0  0  0  0
  1  5  1  0  0  0  0
  2  6  1  0  0  0  0
  2  1  1  0  0  0  0
  2  8  1  0  0  0  0
  4  1  1  0  0  0  0
  6  9  1  0  0  0  0
  6 10  1  0  0  0  0
  7  2  1  0  0  0  0
  9 12  1  0  0  0  0
 11  6  1  0  0  0  0
 13  9  1  0  0  0  0
 14  9  1  0  0  0  0
M  END
$$$$
