butane_opt
 OpenBabel08242015403D

 14 13  0  0  0  0  0  0  0  0999 V2000
   -3.9557    0.2779    0.0472 C   0  0  0  0  0  0  0  0  0  0  0  0
   -2.6898   -0.6235    0.0248 C   0  0  0  0  0  0  0  0  0  0  0  0
   -4.8712   -0.3122    0.0059 H   0  0  0  0  0  0  0  0  0  0  0  0
   -3.9753    0.8388   -0.8219 H   0  0  0  0  0  0  0  0  0  0  0  0
   -3.9751    0.9782    0.9388 H   0  0  0  0  0  0  0  0  0  0  0  0
   -1.3994    0.1640   -0.0335 C   0  0  0  0  0  0  0  0  0  0  0  0
   -2.7155   -1.3442   -0.8657 H   0  0  0  0  0  0  0  0  0  0  0  0
   -2.6471   -1.2222    0.8869 H   0  0  0  0  0  0  0  0  0  0  0  0
   -0.1649   -0.6712    0.0610 C   0  0  0  0  0  0  0  0  0  0  0  0
   -1.3743    0.7755    0.8015 H   0  0  0  0  0  0  0  0  0  0  0  0
   -1.4024    0.8172   -0.9527 H   0  0  0  0  0  0  0  0  0  0  0  0
   -0.2020   -1.3037    0.9579 H   0  0  0  0  0  0  0  0  0  0  0  0
    0.7629   -0.0863    0.1321 H   0  0  0  0  0  0  0  0  0  0  0  0
   -0.1151   -1.3732   -0.8296 H   0  0  0  0  0  0  0  0  0  0  0  0
  1  5  1  0  0  0  0
  2  1  1  0  0  0  0
  2  8  1  0  0  0  0
  3  1  1  0  0  0  0
  4  1  1  0  0  0  0
  6  2  1  0  0  0  0
  6  9  1  0  0  0  0
  6 10  1  0  0  0  0
  7  2  1  0  0  0  0
  9 13  1  0  0  0  0
  9 12  1  0  0  0  0
 11  6  1  0  0  0  0
 14  9  1  0  0  0  0
M  END
$$$$
