butane_opt
 OpenBabel08242015403D

 14 13  0  0  0  0  0  0  0  0999 V2000
   -3.9343    0.2502    0.0339 C   0  0  0  0  0  0  0  0  0  0  0  0
   -2.7013   -0.6005    0.0236 C   0  0  0  0  0  0  0  0  0  0  0  0
   -4.8647   -0.3659   -0.0660 H   0  0  0  0  0  0  0  0  0  0  0  0
   -3.9630    0.7591   -0.7958 H   0  0  0  0  0  0  0  0  0  0  0  0
   -3.9521    1.0670    0.9958 H   0  0  0  0  0  0  0  0  0  0  0  0
   -1.4119    0.1959   -0.0195 C   0  0  0  0  0  0  0  0  0  0  0  0
   -2.7296   -1.2908   -0.8104 H   0  0  0  0  0  0  0  0  0  0  0  0
   -2.7140   -1.2501    0.9293 H   0  0  0  0  0  0  0  0  0  0  0  0
   -0.1505   -0.7054    0.0554 C   0  0  0  0  0  0  0  0  0  0  0  0
   -1.4091    0.8613    0.8150 H   0  0  0  0  0  0  0  0  0  0  0  0
   -1.4424    0.8651   -0.9288 H   0  0  0  0  0  0  0  0  0  0  0  0
   -0.1425   -1.3804    0.9819 H   0  0  0  0  0  0  0  0  0  0  0  0
    0.7462   -0.1034    0.0056 H   0  0  0  0  0  0  0  0  0  0  0  0
   -0.1651   -1.3224   -0.7874 H   0  0  0  0  0  0  0  0  0  0  0  0
  1  5  1  0  0  0  0
  2  1  1  0  0  0  0
  2  8  1  0  0  0  0
  3  1  1  0  0  0  0
  4  1  1  0  0  0  0
  6  2  1  0  0  0  0
  6  9  1  0  0  0  0
  6 10  1  0  0  0  0
  7  2  1  0  0  0  0
  9 12  1  0  0  0  0
 11  6  1  0  0  0  0
 13  9  1  0  0  0  0
 14  9  1  0  0  0  0
M  END
$$$$
