butane_opt
 OpenBabel08242015403D

 14 13  0  0  0  0  0  0  0  0999 V2000
   -3.9625    0.2690    0.0518 C   0  0  0  0  0  0  0  0  0  0  0  0
   -2.6965   -0.6212    0.0112 C   0  0  0  0  0  0  0  0  0  0  0  0
   -4.8889   -0.3282    0.0146 H   0  0  0  0  0  0  0  0  0  0  0  0
   -3.9667    0.8225   -0.8137 H   0  0  0  0  0  0  0  0  0  0  0  0
   -3.9791    0.9834    0.9665 H   0  0  0  0  0  0  0  0  0  0  0  0
   -1.4021    0.1765   -0.0269 C   0  0  0  0  0  0  0  0  0  0  0  0
   -2.7801   -1.2993   -0.8587 H   0  0  0  0  0  0  0  0  0  0  0  0
   -2.6794   -1.2295    0.8679 H   0  0  0  0  0  0  0  0  0  0  0  0
   -0.1485   -0.6894    0.0625 C   0  0  0  0  0  0  0  0  0  0  0  0
   -1.4252    0.8113    0.7846 H   0  0  0  0  0  0  0  0  0  0  0  0
   -1.3413    0.9108   -0.9837 H   0  0  0  0  0  0  0  0  0  0  0  0
   -0.1197   -1.2988    0.9738 H   0  0  0  0  0  0  0  0  0  0  0  0
    0.7560   -0.0885    0.1119 H   0  0  0  0  0  0  0  0  0  0  0  0
   -0.0909   -1.3794   -0.8005 H   0  0  0  0  0  0  0  0  0  0  0  0
  1  5  1  0  0  0  0
  2  1  1  0  0  0  0
  2  8  1  0  0  0  0
  3  1  1  0  0  0  0
  4  1  1  0  0  0  0
  6  2  1  0  0  0  0
  6  9  1  0  0  0  0
  6 10  1  0  0  0  0
  7  2  1  0  0  0  0
  9 13  1  0  0  0  0
  9 12  1  0  0  0  0
 11  6  1  0  0  0  0
 14  9  1  0  0  0  0
M  END
$$$$
