14
butane_opt
C  -3.963143   0.275919   0.037341
C  -2.694557  -0.629926   0.015252
H  -4.908149  -0.320236   0.111623
H  -4.040641   0.994088  -0.918169
H  -3.931584   0.879769   0.852103
C  -1.387846   0.176870   0.008017
H  -2.717049  -1.332617  -0.860763
H  -2.704472  -1.220058   0.875905
C  -0.156063  -0.687319   0.044787
H  -1.378221   0.859704   0.827659
H  -1.333472   0.784301  -0.877860
H  -0.175425  -1.318527   0.954889
H   0.759723  -0.093871   0.018745
H  -0.168306  -1.332996  -0.817354
