14
butane_opt
C  -3.931900   0.261894   0.025630
C  -2.695897  -0.616813   0.019965
H  -4.895470  -0.365442   0.023771
H  -3.976087   0.898633  -0.892832
H  -3.949098   0.901270   0.862383
C  -1.408095   0.199526   0.018803
H  -2.717113  -1.293071  -0.832941
H  -2.682017  -1.242979   0.940895
C  -0.169313  -0.695011   0.034894
H  -1.400253   0.897662   0.878570
H  -1.429671   0.775277  -0.834131
H  -0.071428  -1.421263   0.976555
H   0.732521  -0.122332  -0.075065
H  -0.167107  -1.297566  -0.795366
