14
butane_opt
C  -3.930407   0.255949   0.027565
C  -2.720653  -0.608826   0.036394
H  -4.849386  -0.338453  -0.093709
H  -3.941954   0.729331  -0.788622
H  -3.991763   1.067647   0.972630
C  -1.409611   0.204479  -0.011881
H  -2.730501  -1.267914  -0.807951
H  -2.727841  -1.240482   0.952606
C  -0.150258  -0.703110   0.044919
H  -1.429627   0.833680   0.795875
H  -1.354535   0.823519  -0.909686
H  -0.075485  -1.391760   0.959998
H   0.758117  -0.122700  -0.003339
H  -0.145041  -1.348882  -0.783316
