butane_opt
 OpenBabel08242015403D

 14 13  0  0  0  0  0  0  0  0999 V2000
   -3.9584    0.2713    0.0118 C   0  0  0  0  0  0  0  0  0  0  0  0
   -2.7038   -0.6307    0.0338 C   0  0  0  0  0  0  0  0  0  0  0  0
   -4.8320   -0.2965    0.0500 H   0  0  0  0  0  0  0  0  0  0  0  0
   -4.0264    0.8563   -0.8748 H   0  0  0  0  0  0  0  0  0  0  0  0
   -4.0028    0.9579    0.8693 H   0  0  0  0  0  0  0  0  0  0  0  0
   -1.3963    0.1840    0.0254 C   0  0  0  0  0  0  0  0  0  0  0  0
   -2.6911   -1.3234   -0.8127 H   0  0  0  0  0  0  0  0  0  0  0  0
   -2.6927   -1.2275    0.8822 H   0  0  0  0  0  0  0  0  0  0  0  0
   -0.1545   -0.6939    0.0318 C   0  0  0  0  0  0  0  0  0  0  0  0
   -1.3789    0.8633    0.8917 H   0  0  0  0  0  0  0  0  0  0  0  0
   -1.3934    0.8242   -0.8593 H   0  0  0  0  0  0  0  0  0  0  0  0
   -0.0784   -1.3525    0.9701 H   0  0  0  0  0  0  0  0  0  0  0  0
    0.8033   -0.0786   -0.1239 H   0  0  0  0  0  0  0  0  0  0  0  0
   -0.1803   -1.2544   -0.7765 H   0  0  0  0  0  0  0  0  0  0  0  0
  1  2  1  0  0  0  0
  1  3  1  0  0  0  0
  1  5  1  0  0  0  0
  2  8  1  0  0  0  0
  4  1  1  0  0  0  0
  6  9  1  0  0  0  0
  6  2  1  0  0  0  0
  6 10  1  0  0  0  0
  7  2  1  0  0  0  0
  9 12  1  0  0  0  0
 11  6  1  0  0  0  0
 13  9  1  0  0  0  0
 14  9  1  0  0  0  0
M  END
$$$$
