butane_opt
 OpenBabel08242015403D

 14 13  0  0  0  0  0  0  0  0999 V2000
   -3.9272    0.2541   -0.0061 C   0  0  0  0  0  0  0  0  0  0  0  0
   -2.6929   -0.6152    0.0697 C   0  0  0  0  0  0  0  0  0  0  0  0
   -4.8696   -0.3442   -0.0753 H   0  0  0  0  0  0  0  0  0  0  0  0
   -3.8695    0.8297   -0.8823 H   0  0  0  0  0  0  0  0  0  0  0  0
   -4.0219    0.9860    0.8839 H   0  0  0  0  0  0  0  0  0  0  0  0
   -1.4211    0.2053    0.0299 C   0  0  0  0  0  0  0  0  0  0  0  0
   -2.7145   -1.2327   -0.7460 H   0  0  0  0  0  0  0  0  0  0  0  0
   -2.7638   -1.2723    0.9825 H   0  0  0  0  0  0  0  0  0  0  0  0
   -0.1640   -0.7049    0.0030 C   0  0  0  0  0  0  0  0  0  0  0  0
   -1.3511    0.8741    0.9108 H   0  0  0  0  0  0  0  0  0  0  0  0
   -1.4965    0.7984   -0.8374 H   0  0  0  0  0  0  0  0  0  0  0  0
   -0.1096   -1.3213    0.9123 H   0  0  0  0  0  0  0  0  0  0  0  0
    0.7555   -0.0946   -0.0192 H   0  0  0  0  0  0  0  0  0  0  0  0
   -0.1216   -1.3677   -0.8362 H   0  0  0  0  0  0  0  0  0  0  0  0
  1  2  1  0  0  0  0
  1  5  1  0  0  0  0
  2  8  1  0  0  0  0
  3  1  1  0  0  0  0
  4  1  1  0  0  0  0
  6  2  1  0  0  0  0
  6 10  1  0  0  0  0
  7  2  1  0  0  0  0
  9  6  1  0  0  0  0
  9 12  1  0  0  0  0
 11  6  1  0  0  0  0
 13  9  1  0  0  0  0
 14  9  1  0  0  0  0
M  END
$$$$
