14
butane_opt
C  -3.957630   0.255841   0.031612
C  -2.697681  -0.608984   0.018647
H  -4.871676  -0.356468   0.066975
H  -3.957696   0.816174  -0.849250
H  -3.966500   0.947382   0.907777
C  -1.406416   0.199028   0.005625
H  -2.741376  -1.336774  -0.883709
H  -2.730379  -1.164819   0.831254
C  -0.142656  -0.698267   0.049690
H  -1.346425   0.864344   0.837359
H  -1.430782   0.855410  -0.890712
H  -0.072527  -1.440973   1.017507
H   0.701291  -0.165347  -0.104795
H  -0.147463  -1.267902  -0.733016
