butane_opt
 OpenBabel08242015403D

 14 13  0  0  0  0  0  0  0  0999 V2000
   -3.9464    0.2731   -0.0085 C   0  0  0  0  0  0  0  0  0  0  0  0
   -2.7039   -0.6352    0.0648 C   0  0  0  0  0  0  0  0  0  0  0  0
   -4.8619   -0.3137    0.1686 H   0  0  0  0  0  0  0  0  0  0  0  0
   -4.0183    1.0461   -1.0200 H   0  0  0  0  0  0  0  0  0  0  0  0
   -3.9372    0.8353    0.7534 H   0  0  0  0  0  0  0  0  0  0  0  0
   -1.3979    0.1850    0.0446 C   0  0  0  0  0  0  0  0  0  0  0  0
   -2.7195   -1.3542   -0.8223 H   0  0  0  0  0  0  0  0  0  0  0  0
   -2.7130   -1.2265    0.9226 H   0  0  0  0  0  0  0  0  0  0  0  0
   -0.1528   -0.6880    0.0037 C   0  0  0  0  0  0  0  0  0  0  0  0
   -1.3437    0.8861    0.9547 H   0  0  0  0  0  0  0  0  0  0  0  0
   -1.4332    0.7872   -0.8283 H   0  0  0  0  0  0  0  0  0  0  0  0
   -0.1324   -1.2636    0.8712 H   0  0  0  0  0  0  0  0  0  0  0  0
    0.7301   -0.1040    0.0529 H   0  0  0  0  0  0  0  0  0  0  0  0
   -0.1816   -1.3799   -0.8799 H   0  0  0  0  0  0  0  0  0  0  0  0
  1  2  1  0  0  0  0
  1  3  1  0  0  0  0
  1  5  1  0  0  0  0
  2  8  1  0  0  0  0
  4  1  1  0  0  0  0
  6  2  1  0  0  0  0
  6 10  1  0  0  0  0
  7  2  1  0  0  0  0
  9  6  1  0  0  0  0
  9 13  1  0  0  0  0
  9 12  1  0  0  0  0
 11  6  1  0  0  0  0
 14  9  1  0  0  0  0
M  END
$$$$
