14
butane_opt
C  -3.942071   0.273113  -0.012785
C  -2.701189  -0.621864   0.045276
H  -4.864724  -0.326123   0.174718
H  -4.034974   1.004628  -0.969103
H  -3.884241   0.818722   0.779065
C  -1.409723   0.175913   0.055866
H  -2.671926  -1.261231  -0.768417
H  -2.683858  -1.291434   0.966920
C  -0.157427  -0.686396   0.004542
H  -1.378656   0.882248   0.933394
H  -1.406479   0.750269  -0.821878
H  -0.166270  -1.264198   0.914994
H   0.777005  -0.060468   0.000842
H  -0.189444  -1.408297  -0.907049
