14
butane_opt
C  -3.943145   0.250113   0.007371
C  -2.708762  -0.602856   0.059512
H  -4.832875  -0.336687  -0.028368
H  -3.892610   0.855558  -0.912449
H  -4.070043   0.939218   0.870135
C  -1.406782   0.208083   0.028138
H  -2.747951  -1.295101  -0.817775
H  -2.746087  -1.248858   0.969669
C  -0.153235  -0.710354   0.017154
H  -1.346632   0.867879   0.855621
H  -1.402193   0.842981  -0.872397
H  -0.061007  -1.324781   0.894813
H   0.749387  -0.104962  -0.018182
H  -0.124170  -1.405916  -0.840489
