butane_opt
 OpenBabel08242015403D

 14 13  0  0  0  0  0  0  0  0999 V2000
   -3.9447    0.2476    0.0014 C   0  0  0  0  0  0  0  0  0  0  0  0
   -2.7012   -0.5945    0.0442 C   0  0  0  0  0  0  0  0  0  0  0  0
   -4.8678   -0.3574    0.0044 H   0  0  0  0  0  0  0  0  0  0  0  0
   -3.9480    0.9027   -0.9431 H   0  0  0  0  0  0  0  0  0  0  0  0
   -3.9178    0.9290    0.8597 H   0  0  0  0  0  0  0  0  0  0  0  0
   -1.4074    0.1883    0.0439 C   0  0  0  0  0  0  0  0  0  0  0  0
   -2.7012   -1.2392   -0.7907 H   0  0  0  0  0  0  0  0  0  0  0  0
   -2.6869   -1.2743    0.9807 H   0  0  0  0  0  0  0  0  0  0  0  0
   -0.1646   -0.7019    0.0135 C   0  0  0  0  0  0  0  0  0  0  0  0
   -1.3884    0.9201    0.9242 H   0  0  0  0  0  0  0  0  0  0  0  0
   -1.3879    0.7946   -0.8456 H   0  0  0  0  0  0  0  0  0  0  0  0
   -0.0671   -1.3568    0.9307 H   0  0  0  0  0  0  0  0  0  0  0  0
    0.7502   -0.1334   -0.0939 H   0  0  0  0  0  0  0  0  0  0  0  0
   -0.1882   -1.3311   -0.8267 H   0  0  0  0  0  0  0  0  0  0  0  0
  1  3  1  0  0  0  0
  1  2  1  0  0  0  0
  1  5  1  0  0  0  0
  2  8  1  0  0  0  0
  4  1  1  0  0  0  0
  6  2  1  0  0  0  0
  6 10  1  0  0  0  0
  7  2  1  0  0  0  0
  9  6  1  0  0  0  0
  9 12  1  0  0  0  0
 11  6  1  0  0  0  0
 13  9  1  0  0  0  0
 14  9  1  0  0  0  0
M  END
$$$$
