14
butane_opt
C  -3.928358   0.257115   0.031067
C  -2.709169  -0.606787   0.019653
H  -4.847837  -0.348653   0.010132
H  -3.961539   0.822543  -0.831645
H  -3.957410   0.950804   0.910207
C  -1.406057   0.203440   0.001762
H  -2.723081  -1.307761  -0.861354
H  -2.684999  -1.224108   0.888383
C  -0.166323  -0.709962   0.054522
H  -1.396035   0.855745   0.815789
H  -1.399887   0.835975  -0.877838
H  -0.074594  -1.354560   0.994144
H   0.738930  -0.118269  -0.112323
H  -0.189143  -1.312950  -0.771852
