14
butane_opt
C  -3.953538   0.276221  -0.012539
C  -2.704824  -0.629876   0.078732
H  -4.890621  -0.329270  -0.055725
H  -3.890371   0.871854  -0.897474
H  -4.048905   0.976887   0.851593
C  -1.397613   0.177941   0.031704
H  -2.663464  -1.251566  -0.745066
H  -2.732863  -1.258501   0.977039
C  -0.162119  -0.692192   0.002492
H  -1.318163   0.903753   0.934053
H  -1.391209   0.740250  -0.816149
H  -0.082512  -1.292909   0.910467
H   0.786229  -0.075524  -0.066359
H  -0.178998  -1.343475  -0.850555
