14
butane_opt
C  -3.949734   0.247174   0.028794
C  -2.702279  -0.608213   0.023517
H  -4.853366  -0.347498   0.137113
H  -4.005188   0.997664  -0.930424
H  -3.886018   0.835495   0.846291
C  -1.417293   0.201436   0.005685
H  -2.726998  -1.306413  -0.848022
H  -2.721950  -1.213983   0.898126
C  -0.150258  -0.701307   0.046533
H  -1.395816   0.914930   0.851560
H  -1.348573   0.839138  -0.883842
H  -0.078635  -1.289781   0.916259
H   0.716424  -0.143283   0.036461
H  -0.085384  -1.433813  -0.856461
