14
butane_opt
C  -3.936004   0.264956   0.040282
C  -2.690294  -0.613359   0.015907
H  -4.835426  -0.347930  -0.055817
H  -3.905844   0.737663  -0.745355
H  -3.982549   1.024779   0.976549
C  -1.416409   0.183393  -0.025127
H  -2.741807  -1.268142  -0.838329
H  -2.699020  -1.275702   0.943729
C  -0.163212  -0.687772   0.057794
H  -1.402009   0.846485   0.826240
H  -1.400373   0.868038  -0.939219
H  -0.153243  -1.365165   0.995138
H   0.707895  -0.132351   0.023117
H  -0.140511  -1.334893  -0.794493
