14
butane_opt
C  -3.942543   0.256007   0.018283
C  -2.700429  -0.610365   0.029374
H  -4.836228  -0.305276   0.064120
H  -3.970327   0.854977  -0.878228
H  -3.945310   0.950013   0.905805
C  -1.403848   0.198010   0.009036
H  -2.791505  -1.310838  -0.829694
H  -2.716884  -1.229406   0.890945
C  -0.158229  -0.704316   0.036820
H  -1.375351   0.912230   0.873194
H  -1.405229   0.761107  -0.853644
H  -0.108237  -1.391040   0.980682
H   0.718153  -0.124495  -0.068514
H  -0.131546  -1.255233  -0.756380
