butane_opt
 OpenBabel08242015403D

 14 13  0  0  0  0  0  0  0  0999 V2000
   -3.9451    0.2779   -0.0076 C   0  0  0  0  0  0  0  0  0  0  0  0
   -2.6913   -0.6244    0.0749 C   0  0  0  0  0  0  0  0  0  0  0  0
   -4.8698   -0.3413   -0.1240 H   0  0  0  0  0  0  0  0  0  0  0  0
   -3.9102    0.8465   -0.8792 H   0  0  0  0  0  0  0  0  0  0  0  0
   -4.0001    1.0412    0.8831 H   0  0  0  0  0  0  0  0  0  0  0  0
   -1.3965    0.1598    0.0335 C   0  0  0  0  0  0  0  0  0  0  0  0
   -2.6646   -1.2305   -0.7325 H   0  0  0  0  0  0  0  0  0  0  0  0
   -2.7154   -1.3522    1.0096 H   0  0  0  0  0  0  0  0  0  0  0  0
   -0.1723   -0.6755    0.0027 C   0  0  0  0  0  0  0  0  0  0  0  0
   -1.4036    0.8719    0.9044 H   0  0  0  0  0  0  0  0  0  0  0  0
   -1.3768    0.7897   -0.8552 H   0  0  0  0  0  0  0  0  0  0  0  0
   -0.1554   -1.2878    0.8901 H   0  0  0  0  0  0  0  0  0  0  0  0
    0.7543   -0.0904   -0.0168 H   0  0  0  0  0  0  0  0  0  0  0  0
   -0.2213   -1.3735   -0.8822 H   0  0  0  0  0  0  0  0  0  0  0  0
  1  2  1  0  0  0  0
  1  5  1  0  0  0  0
  2  8  1  0  0  0  0
  3  1  1  0  0  0  0
  4  1  1  0  0  0  0
  6  2  1  0  0  0  0
  6 10  1  0  0  0  0
  7  2  1  0  0  0  0
  9  6  1  0  0  0  0
  9 12  1  0  0  0  0
 11  6  1  0  0  0  0
 13  9  1  0  0  0  0
 14  9  1  0  0  0  0
M  END
$$$$
