butane_opt
 OpenBabel08242015403D

 14 13  0  0  0  0  0  0  0  0999 V2000
   -3.9517    0.2773    0.0038 C   0  0  0  0  0  0  0  0  0  0  0  0
   -2.6926   -0.6316    0.0479 C   0  0  0  0  0  0  0  0  0  0  0  0
   -4.8134   -0.2836    0.1286 H   0  0  0  0  0  0  0  0  0  0  0  0
   -4.0337    0.9721   -0.9634 H   0  0  0  0  0  0  0  0  0  0  0  0
   -3.9790    0.8445    0.7898 H   0  0  0  0  0  0  0  0  0  0  0  0
   -1.3904    0.1793    0.0293 C   0  0  0  0  0  0  0  0  0  0  0  0
   -2.7434   -1.2962   -0.8034 H   0  0  0  0  0  0  0  0  0  0  0  0
   -2.7509   -1.2614    0.9406 H   0  0  0  0  0  0  0  0  0  0  0  0
   -0.1709   -0.6870    0.0194 C   0  0  0  0  0  0  0  0  0  0  0  0
   -1.3539    0.9149    0.8975 H   0  0  0  0  0  0  0  0  0  0  0  0
   -1.3907    0.7191   -0.7977 H   0  0  0  0  0  0  0  0  0  0  0  0
   -0.1361   -1.2721    0.8913 H   0  0  0  0  0  0  0  0  0  0  0  0
    0.7635   -0.0664   -0.0243 H   0  0  0  0  0  0  0  0  0  0  0  0
   -0.1267   -1.3841   -0.8389 H   0  0  0  0  0  0  0  0  0  0  0  0
  1  2  1  0  0  0  0
  1  3  1  0  0  0  0
  1  5  1  0  0  0  0
  2  8  1  0  0  0  0
  4  1  1  0  0  0  0
  6  2  1  0  0  0  0
  6 10  1  0  0  0  0
  7  2  1  0  0  0  0
  9  6  1  0  0  0  0
  9 12  1  0  0  0  0
 11  6  1  0  0  0  0
 13  9  1  0  0  0  0
 14  9  1  0  0  0  0
M  END
$$$$
