14
butane_opt
C  -3.941532   0.250143   0.053597
C  -2.706216  -0.595051   0.006435
H  -4.856271  -0.352267  -0.022672
H  -3.942225   0.828052  -0.815184
H  -3.922465   1.004640   0.955959
C  -1.416016   0.189376  -0.014607
H  -2.707326  -1.333713  -0.889698
H  -2.722413  -1.238838   0.872941
C  -0.149112  -0.696722   0.063425
H  -1.459469   0.807115   0.786927
H  -1.380011   0.874295  -0.950101
H  -0.106596  -1.381315   1.006428
H   0.770826  -0.121555  -0.035439
H  -0.144661  -1.325370  -0.763259
