butane_opt
 OpenBabel08242015403D

 14 13  0  0  0  0  0  0  0  0999 V2000
   -3.9595    0.2660   -0.0178 C   0  0  0  0  0  0  0  0  0  0  0  0
   -2.6909   -0.6322    0.0701 C   0  0  0  0  0  0  0  0  0  0  0  0
   -4.8381   -0.2915   -0.0141 H   0  0  0  0  0  0  0  0  0  0  0  0
   -3.9744    0.9278   -0.9295 H   0  0  0  0  0  0  0  0  0  0  0  0
   -4.0333    0.9496    0.8234 H   0  0  0  0  0  0  0  0  0  0  0  0
   -1.3954    0.1810    0.0628 C   0  0  0  0  0  0  0  0  0  0  0  0
   -2.6581   -1.2943   -0.7699 H   0  0  0  0  0  0  0  0  0  0  0  0
   -2.7629   -1.2348    0.9765 H   0  0  0  0  0  0  0  0  0  0  0  0
   -0.1581   -0.6837   -0.0022 C   0  0  0  0  0  0  0  0  0  0  0  0
   -1.3284    0.8516    0.9130 H   0  0  0  0  0  0  0  0  0  0  0  0
   -1.3996    0.8001   -0.8287 H   0  0  0  0  0  0  0  0  0  0  0  0
   -0.0592   -1.3258    0.8792 H   0  0  0  0  0  0  0  0  0  0  0  0
    0.7190   -0.1260   -0.1012 H   0  0  0  0  0  0  0  0  0  0  0  0
   -0.2365   -1.3032   -0.8557 H   0  0  0  0  0  0  0  0  0  0  0  0
  1  3  1  0  0  0  0
  1  2  1  0  0  0  0
  1  5  1  0  0  0  0
  2  8  1  0  0  0  0
  4  1  1  0  0  0  0
  6  2  1  0  0  0  0
  6 10  1  0  0  0  0
  7  2  1  0  0  0  0
  9  6  1  0  0  0  0
  9 12  1  0  0  0  0
 11  6  1  0  0  0  0
 13  9  1  0  0  0  0
 14  9  1  0  0  0  0
M  END
$$$$
