butane_opt
 OpenBabel08242015403D

 14 13  0  0  0  0  0  0  0  0999 V2000
   -3.9455    0.2640    0.0548 C   0  0  0  0  0  0  0  0  0  0  0  0
   -2.6840   -0.6125    0.0132 C   0  0  0  0  0  0  0  0  0  0  0  0
   -4.8396   -0.3054    0.0628 H   0  0  0  0  0  0  0  0  0  0  0  0
   -3.9667    0.8702   -0.8134 H   0  0  0  0  0  0  0  0  0  0  0  0
   -3.9323    0.9354    0.9384 H   0  0  0  0  0  0  0  0  0  0  0  0
   -1.4103    0.1670   -0.0394 C   0  0  0  0  0  0  0  0  0  0  0  0
   -2.7324   -1.3016   -0.8551 H   0  0  0  0  0  0  0  0  0  0  0  0
   -2.7085   -1.2013    0.8583 H   0  0  0  0  0  0  0  0  0  0  0  0
   -0.1666   -0.6917    0.0707 C   0  0  0  0  0  0  0  0  0  0  0  0
   -1.4485    0.8079    0.7817 H   0  0  0  0  0  0  0  0  0  0  0  0
   -1.3684    0.8716   -0.9919 H   0  0  0  0  0  0  0  0  0  0  0  0
   -0.2023   -1.2103    0.9294 H   0  0  0  0  0  0  0  0  0  0  0  0
    0.7680   -0.0655    0.1655 H   0  0  0  0  0  0  0  0  0  0  0  0
   -0.1232   -1.3956   -0.8295 H   0  0  0  0  0  0  0  0  0  0  0  0
  1  3  1  0  0  0  0
  1  5  1  0  0  0  0
  2  1  1  0  0  0  0
  2  8  1  0  0  0  0
  4  1  1  0  0  0  0
  6  2  1  0  0  0  0
  6  9  1  0  0  0  0
  6 10  1  0  0  0  0
  7  2  1  0  0  0  0
  9 13  1  0  0  0  0
  9 12  1  0  0  0  0
 11  6  1  0  0  0  0
 14  9  1  0  0  0  0
M  END
$$$$
