butane_opt
 OpenBabel08242015403D

 14 13  0  0  0  0  0  0  0  0999 V2000
   -3.9526    0.2697   -0.0027 C   0  0  0  0  0  0  0  0  0  0  0  0
   -2.6903   -0.6290    0.0406 C   0  0  0  0  0  0  0  0  0  0  0  0
   -4.8583   -0.3174    0.0276 H   0  0  0  0  0  0  0  0  0  0  0  0
   -3.9488    0.8961   -0.8991 H   0  0  0  0  0  0  0  0  0  0  0  0
   -4.0257    0.9326    0.8660 H   0  0  0  0  0  0  0  0  0  0  0  0
   -1.3972    0.1844    0.0536 C   0  0  0  0  0  0  0  0  0  0  0  0
   -2.7080   -1.3070   -0.8020 H   0  0  0  0  0  0  0  0  0  0  0  0
   -2.6820   -1.2509    0.9223 H   0  0  0  0  0  0  0  0  0  0  0  0
   -0.1599   -0.6873    0.0168 C   0  0  0  0  0  0  0  0  0  0  0  0
   -1.3933    0.8532    0.8896 H   0  0  0  0  0  0  0  0  0  0  0  0
   -1.4007    0.8192   -0.8395 H   0  0  0  0  0  0  0  0  0  0  0  0
   -0.0570   -1.3549    0.9436 H   0  0  0  0  0  0  0  0  0  0  0  0
    0.7351   -0.1418   -0.1647 H   0  0  0  0  0  0  0  0  0  0  0  0
   -0.2779   -1.2532   -0.7968 H   0  0  0  0  0  0  0  0  0  0  0  0
  1  3  1  0  0  0  0
  1  2  1  0  0  0  0
  1  5  1  0  0  0  0
  2  6  1  0  0  0  0
  2  8  1  0  0  0  0
  4  1  1  0  0  0  0
  6 10  1  0  0  0  0
  7  2  1  0  0  0  0
  9  6  1  0  0  0  0
  9 12  1  0  0  0  0
 11  6  1  0  0  0  0
 13  9  1  0  0  0  0
 14  9  1  0  0  0  0
M  END
$$$$
