14
butane_opt
C  -3.965722   0.285284  -0.007842
C  -2.689407  -0.633117   0.069801
H  -4.880806  -0.332696   0.131386
H  -4.023003   0.979648  -0.983068
H  -3.961432   0.828554   0.755337
C  -1.396666   0.169866   0.040226
H  -2.680039  -1.362870  -0.806831
H  -2.736235  -1.237067   0.952017
C  -0.156157  -0.682393   0.006402
H  -1.357834   0.880762   0.928784
H  -1.391846   0.784750  -0.845999
H  -0.165386  -1.206899   0.860449
H   0.771725  -0.080369   0.025163
H  -0.110790  -1.394608  -0.899996
