14
butane_opt
C  -3.930128   0.270242   0.038966
C  -2.699974  -0.612036   0.006572
H  -4.892953  -0.359808   0.147766
H  -4.035544   0.924219  -0.883924
H  -3.894439   0.908827   0.889591
C  -1.402312   0.168294  -0.008906
H  -2.737885  -1.324857  -0.901069
H  -2.685290  -1.208426   0.874610
C  -0.169515  -0.688451   0.057066
H  -1.370752   0.887788   0.870254
H  -1.407716   0.802453  -0.903986
H  -0.178378  -1.342054   0.997892
H   0.730143  -0.096235  -0.017219
H  -0.122894  -1.325044  -0.759095
