14
butane_opt
C  -3.922941   0.255481  -0.006998
C  -2.706604  -0.602470   0.064001
H  -4.860790  -0.378498   0.015028
H  -3.911450   0.899436  -0.927981
H  -3.958458   0.904814   0.813833
C  -1.409435   0.195432   0.045465
H  -2.699081  -1.295109  -0.804431
H  -2.735358  -1.213646   0.919020
C  -0.169882  -0.695812   0.007742
H  -1.342001   0.887176   0.920111
H  -1.467213   0.801765  -0.817993
H  -0.046286  -1.392168   0.950088
H   0.712986  -0.165392  -0.096403
H  -0.206068  -1.355273  -0.844102
