butane_opt
 OpenBabel08242015403D

 14 13  0  0  0  0  0  0  0  0999 V2000
   -3.9385    0.2657    0.0430 C   0  0  0  0  0  0  0  0  0  0  0  0
   -2.6920   -0.6215    0.0184 C   0  0  0  0  0  0  0  0  0  0  0  0
   -4.8552   -0.3356    0.0807 H   0  0  0  0  0  0  0  0  0  0  0  0
   -3.9938    0.8604   -0.8520 H   0  0  0  0  0  0  0  0  0  0  0  0
   -3.9202    0.9830    0.9395 H   0  0  0  0  0  0  0  0  0  0  0  0
   -1.4066    0.1758   -0.0319 C   0  0  0  0  0  0  0  0  0  0  0  0
   -2.7402   -1.3121   -0.8573 H   0  0  0  0  0  0  0  0  0  0  0  0
   -2.6651   -1.2296    0.8863 H   0  0  0  0  0  0  0  0  0  0  0  0
   -0.1771   -0.6819    0.0573 C   0  0  0  0  0  0  0  0  0  0  0  0
   -1.3843    0.8723    0.8403 H   0  0  0  0  0  0  0  0  0  0  0  0
   -1.4132    0.8465   -0.9308 H   0  0  0  0  0  0  0  0  0  0  0  0
   -0.1727   -1.3412    0.9544 H   0  0  0  0  0  0  0  0  0  0  0  0
    0.7303   -0.1000    0.1386 H   0  0  0  0  0  0  0  0  0  0  0  0
   -0.0466   -1.3730   -0.7929 H   0  0  0  0  0  0  0  0  0  0  0  0
  1  3  1  0  0  0  0
  1  5  1  0  0  0  0
  2  1  1  0  0  0  0
  2  8  1  0  0  0  0
  4  1  1  0  0  0  0
  6  2  1  0  0  0  0
  6  9  1  0  0  0  0
  6 10  1  0  0  0  0
  7  2  1  0  0  0  0
  9 13  1  0  0  0  0
  9 12  1  0  0  0  0
 11  6  1  0  0  0  0
 14  9  1  0  0  0  0
M  END
$$$$
