14
butane_opt
C  -3.953939   0.274189   0.047930
C  -2.691420  -0.630771  -0.018813
H  -4.857732  -0.342226   0.221451
H  -4.064185   0.934245  -0.855036
H  -3.896657   0.938197   0.926179
C  -1.394349   0.184144  -0.012636
H  -2.766718  -1.341226  -0.898648
H  -2.687008  -1.226142   0.881977
C  -0.165957  -0.692479   0.067467
H  -1.393946   0.819515   0.810885
H  -1.346098   0.862607  -0.935102
H  -0.185248  -1.327372   0.987445
H   0.760016  -0.084744   0.064322
H  -0.115985  -1.321634  -0.769479
