14
butane_opt
C  -3.935228   0.253530   0.039888
C  -2.699537  -0.586575   0.020818
H  -4.890121  -0.397052   0.088638
H  -3.948256   0.832909  -0.812571
H  -3.903242   0.957019   0.932064
C  -1.405583   0.186347  -0.031188
H  -2.724070  -1.265204  -0.836894
H  -2.752562  -1.253754   0.913824
C  -0.169132  -0.707354   0.060608
H  -1.404515   0.855601   0.802838
H  -1.381908   0.852041  -0.949214
H  -0.192439  -1.249743   0.893870
H   0.740703  -0.142453   0.153317
H  -0.046305  -1.419611  -0.822640
