14
butane_opt
C  -3.933793   0.248542   0.002220
C  -2.704301  -0.600659   0.063467
H  -4.816151  -0.329702   0.085811
H  -3.890765   0.965777  -1.012100
H  -3.994224   0.844976   0.806667
C  -1.403969   0.197461   0.032337
H  -2.739484  -1.286751  -0.770958
H  -2.772890  -1.247568   0.984626
C  -0.161402  -0.705482   0.008072
H  -1.417099   0.915743   0.909936
H  -1.429137   0.822520  -0.853672
H  -0.132472  -1.225351   0.840294
H   0.726656  -0.139847   0.076983
H  -0.114306  -1.467706  -0.916235
