butane_opt
 OpenBabel08242015403D

 14 13  0  0  0  0  0  0  0  0999 V2000
   -3.9333    0.2595   -0.0055 C   0  0  0  0  0  0  0  0  0  0  0  0
   -2.6941   -0.6128    0.0641 C   0  0  0  0  0  0  0  0  0  0  0  0
   -4.8382   -0.3397    0.1097 H   0  0  0  0  0  0  0  0  0  0  0  0
   -3.9392    0.9927   -0.9683 H   0  0  0  0  0  0  0  0  0  0  0  0
   -3.9043    0.8468    0.7919 H   0  0  0  0  0  0  0  0  0  0  0  0
   -1.4103    0.1956    0.0336 C   0  0  0  0  0  0  0  0  0  0  0  0
   -2.7390   -1.2538   -0.7571 H   0  0  0  0  0  0  0  0  0  0  0  0
   -2.7565   -1.2853    0.9686 H   0  0  0  0  0  0  0  0  0  0  0  0
   -0.1667   -0.7017    0.0002 C   0  0  0  0  0  0  0  0  0  0  0  0
   -1.4122    0.9016    0.8978 H   0  0  0  0  0  0  0  0  0  0  0  0
   -1.4178    0.7532   -0.8006 H   0  0  0  0  0  0  0  0  0  0  0  0
   -0.2100   -1.2210    0.8729 H   0  0  0  0  0  0  0  0  0  0  0  0
    0.7367   -0.0948    0.0986 H   0  0  0  0  0  0  0  0  0  0  0  0
   -0.0942   -1.4564   -0.9082 H   0  0  0  0  0  0  0  0  0  0  0  0
  1  2  1  0  0  0  0
  1  3  1  0  0  0  0
  1  5  1  0  0  0  0
  2  8  1  0  0  0  0
  4  1  1  0  0  0  0
  6  2  1  0  0  0  0
  6 10  1  0  0  0  0
  7  2  1  0  0  0  0
  9  6  1  0  0  0  0
  9 13  1  0  0  0  0
  9 12  1  0  0  0  0
 11  6  1  0  0  0  0
 14  9  1  0  0  0  0
M  END
$$$$
