14
butane_opt
C  -3.959935   0.257175  -0.014943
C  -2.709516  -0.607209   0.062605
H  -4.904999  -0.338704   0.100695
H  -3.954914   0.902272  -0.925141
H  -3.913713   0.870786   0.832378
C  -1.393449   0.202536   0.036922
H  -2.712108  -1.216261  -0.719524
H  -2.738371  -1.270067   0.994092
C  -0.147739  -0.705098   0.004788
H  -1.370286   0.857985   0.891441
H  -1.418512   0.816909  -0.845465
H  -0.154129  -1.247177   0.859669
H   0.753995  -0.118594   0.109972
H  -0.083679  -1.504352  -0.946574
