butane_opt
 OpenBabel08242015403D

 14 13  0  0  0  0  0  0  0  0999 V2000
   -3.9436    0.2614    0.0314 C   0  0  0  0  0  0  0  0  0  0  0  0
   -2.6967   -0.6037    0.0261 C   0  0  0  0  0  0  0  0  0  0  0  0
   -4.8773   -0.3634   -0.0441 H   0  0  0  0  0  0  0  0  0  0  0  0
   -3.9318    0.7307   -0.7906 H   0  0  0  0  0  0  0  0  0  0  0  0
   -3.9359    1.0383    0.9771 H   0  0  0  0  0  0  0  0  0  0  0  0
   -1.4120    0.1896   -0.0089 C   0  0  0  0  0  0  0  0  0  0  0  0
   -2.7620   -1.3318   -0.8452 H   0  0  0  0  0  0  0  0  0  0  0  0
   -2.7230   -1.2171    0.9160 H   0  0  0  0  0  0  0  0  0  0  0  0
   -0.1548   -0.7051    0.0541 C   0  0  0  0  0  0  0  0  0  0  0  0
   -1.4257    0.8002    0.8108 H   0  0  0  0  0  0  0  0  0  0  0  0
   -1.4105    0.9105   -0.9755 H   0  0  0  0  0  0  0  0  0  0  0  0
   -0.1207   -1.3237    0.9628 H   0  0  0  0  0  0  0  0  0  0  0  0
    0.7680   -0.1021   -0.0343 H   0  0  0  0  0  0  0  0  0  0  0  0
   -0.1216   -1.3163   -0.7573 H   0  0  0  0  0  0  0  0  0  0  0  0
  1  5  1  0  0  0  0
  2  1  1  0  0  0  0
  2  8  1  0  0  0  0
  3  1  1  0  0  0  0
  4  1  1  0  0  0  0
  6  2  1  0  0  0  0
  6  9  1  0  0  0  0
  6 10  1  0  0  0  0
  7  2  1  0  0  0  0
  9 12  1  0  0  0  0
 11  6  1  0  0  0  0
 13  9  1  0  0  0  0
 14  9  1  0  0  0  0
M  END
$$$$
