14
butane_opt
C  -3.953966   0.260281   0.036916
C  -2.702389  -0.607844   0.002852
H  -4.863396  -0.334710   0.029709
H  -4.010996   0.767706  -0.800500
H  -3.940340   0.996275   0.960771
C  -1.410891   0.191504  -0.007981
H  -2.749580  -1.296958  -0.856101
H  -2.673859  -1.223476   0.902933
C  -0.151929  -0.698966   0.061254
H  -1.406739   0.848146   0.832626
H  -1.338293   0.807102  -0.917749
H  -0.041430  -1.430465   1.011933
H   0.766264  -0.096695  -0.080075
H  -0.138014  -1.243081  -0.742714
