butane_opt
 OpenBabel08242015403D

 14 13  0  0  0  0  0  0  0  0999 V2000
   -3.9204    0.2519   -0.0142 C   0  0  0  0  0  0  0  0  0  0  0  0
   -2.7055   -0.6091    0.0597 C   0  0  0  0  0  0  0  0  0  0  0  0
   -4.8612   -0.3406    0.0006 H   0  0  0  0  0  0  0  0  0  0  0  0
   -3.9607    0.8527   -0.9100 H   0  0  0  0  0  0  0  0  0  0  0  0
   -3.9540    0.9588    0.8759 H   0  0  0  0  0  0  0  0  0  0  0  0
   -1.4124    0.2023    0.0498 C   0  0  0  0  0  0  0  0  0  0  0  0
   -2.7168   -1.2994   -0.7968 H   0  0  0  0  0  0  0  0  0  0  0  0
   -2.7274   -1.2117    0.9629 H   0  0  0  0  0  0  0  0  0  0  0  0
   -0.1663   -0.7094    0.0120 C   0  0  0  0  0  0  0  0  0  0  0  0
   -1.3722    0.9047    0.9257 H   0  0  0  0  0  0  0  0  0  0  0  0
   -1.4393    0.8507   -0.8590 H   0  0  0  0  0  0  0  0  0  0  0  0
   -0.0697   -1.3985    0.9442 H   0  0  0  0  0  0  0  0  0  0  0  0
    0.7544   -0.0979   -0.1521 H   0  0  0  0  0  0  0  0  0  0  0  0
   -0.2141   -1.3236   -0.8329 H   0  0  0  0  0  0  0  0  0  0  0  0
  1  3  1  0  0  0  0
  1  2  1  0  0  0  0
  1  5  1  0  0  0  0
  2  8  1  0  0  0  0
  4  1  1  0  0  0  0
  6  2  1  0  0  0  0
  6 10  1  0  0  0  0
  7  2  1  0  0  0  0
  9  6  1  0  0  0  0
  9 12  1  0  0  0  0
 11  6  1  0  0  0  0
 13  9  1  0  0  0  0
 14  9  1  0  0  0  0
M  END
$$$$
