14
butane_opt
C  -3.947188   0.252329   0.041344
C  -2.711505  -0.598373   0.025153
H  -4.905694  -0.352280  -0.023793
H  -3.924782   0.802427  -0.836424
H  -3.981261   0.989286   0.945602
C  -1.405186   0.193650  -0.023485
H  -2.735883  -1.258665  -0.812700
H  -2.671632  -1.258328   0.927287
C  -0.146059  -0.698983   0.045561
H  -1.431094   0.855205   0.815630
H  -1.363345   0.812866  -0.880201
H  -0.142003  -1.354123   0.964437
H   0.726150  -0.142763   0.096550
H  -0.066481  -1.359816  -0.813392
