butane_opt
 OpenBabel08242015403D

 14 13  0  0  0  0  0  0  0  0999 V2000
   -3.9396    0.2695    0.0482 C   0  0  0  0  0  0  0  0  0  0  0  0
   -2.6921   -0.6103   -0.0099 C   0  0  0  0  0  0  0  0  0  0  0  0
   -4.8543   -0.3194    0.1930 H   0  0  0  0  0  0  0  0  0  0  0  0
   -4.0776    0.9049   -0.8335 H   0  0  0  0  0  0  0  0  0  0  0  0
   -3.8529    0.9321    0.9000 H   0  0  0  0  0  0  0  0  0  0  0  0
   -1.4004    0.1634   -0.0213 C   0  0  0  0  0  0  0  0  0  0  0  0
   -2.7569   -1.3234   -0.8933 H   0  0  0  0  0  0  0  0  0  0  0  0
   -2.6994   -1.2183    0.8661 H   0  0  0  0  0  0  0  0  0  0  0  0
   -0.1649   -0.6874    0.0682 C   0  0  0  0  0  0  0  0  0  0  0  0
   -1.4040    0.8508    0.8270 H   0  0  0  0  0  0  0  0  0  0  0  0
   -1.3644    0.7964   -0.9474 H   0  0  0  0  0  0  0  0  0  0  0  0
   -0.2102   -1.3322    0.9848 H   0  0  0  0  0  0  0  0  0  0  0  0
    0.7433   -0.0903    0.0861 H   0  0  0  0  0  0  0  0  0  0  0  0
   -0.1799   -1.2928   -0.7574 H   0  0  0  0  0  0  0  0  0  0  0  0
  1  3  1  0  0  0  0
  1  5  1  0  0  0  0
  2  1  1  0  0  0  0
  2  8  1  0  0  0  0
  4  1  1  0  0  0  0
  6  2  1  0  0  0  0
  6  9  1  0  0  0  0
  6 10  1  0  0  0  0
  7  2  1  0  0  0  0
  9 13  1  0  0  0  0
  9 12  1  0  0  0  0
 11  6  1  0  0  0  0
 14  9  1  0  0  0  0
M  END
$$$$
