butane_opt
 OpenBabel08242015403D

 14 13  0  0  0  0  0  0  0  0999 V2000
   -3.9428    0.2516    0.0386 C   0  0  0  0  0  0  0  0  0  0  0  0
   -2.7010   -0.6008    0.0086 C   0  0  0  0  0  0  0  0  0  0  0  0
   -4.8685   -0.3672    0.0309 H   0  0  0  0  0  0  0  0  0  0  0  0
   -3.9859    0.7920   -0.8201 H   0  0  0  0  0  0  0  0  0  0  0  0
   -4.0005    0.9892    0.9551 H   0  0  0  0  0  0  0  0  0  0  0  0
   -1.4086    0.2089   -0.0065 C   0  0  0  0  0  0  0  0  0  0  0  0
   -2.7247   -1.3480   -0.8819 H   0  0  0  0  0  0  0  0  0  0  0  0
   -2.7116   -1.2202    0.8670 H   0  0  0  0  0  0  0  0  0  0  0  0
   -0.1541   -0.7049    0.0542 C   0  0  0  0  0  0  0  0  0  0  0  0
   -1.3494    0.8944    0.8376 H   0  0  0  0  0  0  0  0  0  0  0  0
   -1.4098    0.7890   -0.8828 H   0  0  0  0  0  0  0  0  0  0  0  0
   -0.0811   -1.4933    1.0559 H   0  0  0  0  0  0  0  0  0  0  0  0
    0.7221   -0.1458   -0.1180 H   0  0  0  0  0  0  0  0  0  0  0  0
   -0.1233   -1.2182   -0.7109 H   0  0  0  0  0  0  0  0  0  0  0  0
  1  5  1  0  0  0  0
  2  1  1  0  0  0  0
  2  8  1  0  0  0  0
  3  1  1  0  0  0  0
  4  1  1  0  0  0  0
  6  2  1  0  0  0  0
  6  9  1  0  0  0  0
  6 10  1  0  0  0  0
  7  2  1  0  0  0  0
  9 12  1  0  0  0  0
 11  6  1  0  0  0  0
 13  9  1  0  0  0  0
 14  9  1  0  0  0  0
M  END
$$$$
