butane_opt
 OpenBabel08242015403D

 14 13  0  0  0  0  0  0  0  0999 V2000
   -3.9558    0.2722   -0.0056 C   0  0  0  0  0  0  0  0  0  0  0  0
   -2.7076   -0.6253    0.0567 C   0  0  0  0  0  0  0  0  0  0  0  0
   -4.8609   -0.3029    0.1897 H   0  0  0  0  0  0  0  0  0  0  0  0
   -4.0288    1.0028   -0.9742 H   0  0  0  0  0  0  0  0  0  0  0  0
   -3.9838    0.8402    0.8031 H   0  0  0  0  0  0  0  0  0  0  0  0
   -1.3891    0.1814    0.0324 C   0  0  0  0  0  0  0  0  0  0  0  0
   -2.6931   -1.3043   -0.7946 H   0  0  0  0  0  0  0  0  0  0  0  0
   -2.7153   -1.2611    0.9240 H   0  0  0  0  0  0  0  0  0  0  0  0
   -0.1524   -0.6956    0.0167 C   0  0  0  0  0  0  0  0  0  0  0  0
   -1.3965    0.8740    0.8982 H   0  0  0  0  0  0  0  0  0  0  0  0
   -1.3465    0.7905   -0.8449 H   0  0  0  0  0  0  0  0  0  0  0  0
   -0.1444   -1.1773    0.8277 H   0  0  0  0  0  0  0  0  0  0  0  0
    0.7899   -0.0946    0.0623 H   0  0  0  0  0  0  0  0  0  0  0  0
   -0.1790   -1.4239   -0.8726 H   0  0  0  0  0  0  0  0  0  0  0  0
  1  2  1  0  0  0  0
  1  3  1  0  0  0  0
  1  5  1  0  0  0  0
  2  8  1  0  0  0  0
  4  1  1  0  0  0  0
  6  2  1  0  0  0  0
  6 10  1  0  0  0  0
  7  2  1  0  0  0  0
  9  6  1  0  0  0  0
  9 13  1  0  0  0  0
  9 12  1  0  0  0  0
 11  6  1  0  0  0  0
 14  9  1  0  0  0  0
M  END
$$$$
