14
butane_opt
C  -3.928865   0.263933   0.042600
C  -2.696535  -0.622732   0.012938
H  -4.842966  -0.298989  -0.000988
H  -3.976543   0.866349  -0.841266
H  -3.989079   1.033013   0.966752
C  -1.414722   0.174022  -0.007981
H  -2.714917  -1.373450  -0.879589
H  -2.688994  -1.216954   0.859980
C  -0.163336  -0.683311   0.061930
H  -1.411012   0.861719   0.822628
H  -1.361452   0.820051  -0.935892
H  -0.134344  -1.402034   1.015064
H   0.749065  -0.096623  -0.115762
H  -0.208592  -1.243974  -0.748558
