14
butane_opt
C  -3.937017   0.250407   0.002007
C  -2.699370  -0.606091   0.058551
H  -4.856976  -0.347626   0.066611
H  -3.911779   0.924469  -0.938584
H  -3.976535   0.876780   0.795863
C  -1.410379   0.199581   0.030038
H  -2.670931  -1.255024  -0.761137
H  -2.696234  -1.288061   0.972618
C  -0.163960  -0.703586   0.016834
H  -1.370710   0.878985   0.905624
H  -1.415692   0.876678  -0.883082
H  -0.143000  -1.204130   0.825452
H   0.712946  -0.152273   0.085646
H  -0.154484  -1.477159  -0.929877
