14
butane_opt
C  -3.941201   0.250094   0.045574
C  -2.713372  -0.605151   0.011609
H  -4.828032  -0.332496   0.138666
H  -4.015206   0.815489  -0.812880
H  -3.916613   0.948137   0.943928
C  -1.411149   0.204582  -0.032656
H  -2.763639  -1.325145  -0.867483
H  -2.681471  -1.216600   0.846702
C  -0.150425  -0.706393   0.071064
H  -1.435509   0.844774   0.777532
H  -1.380009   0.917744  -0.998406
H  -0.151947  -1.288116   0.929033
H   0.745583  -0.131386   0.148827
H  -0.005485  -1.421692  -0.809235
