butane_opt
 OpenBabel08242015403D

 14 13  0  0  0  0  0  0  0  0999 V2000
   -3.9443    0.2515    0.0397 C   0  0  0  0  0  0  0  0  0  0  0  0
   -2.7103   -0.5974    0.0184 C   0  0  0  0  0  0  0  0  0  0  0  0
   -4.8790   -0.3943    0.0780 H   0  0  0  0  0  0  0  0  0  0  0  0
   -3.9870    0.8368   -0.8121 H   0  0  0  0  0  0  0  0  0  0  0  0
   -3.9251    0.9810    0.9507 H   0  0  0  0  0  0  0  0  0  0  0  0
   -1.4049    0.1999   -0.0345 C   0  0  0  0  0  0  0  0  0  0  0  0
   -2.7553   -1.3162   -0.8397 H   0  0  0  0  0  0  0  0  0  0  0  0
   -2.6724   -1.2218    0.8906 H   0  0  0  0  0  0  0  0  0  0  0  0
   -0.1506   -0.7045    0.0566 C   0  0  0  0  0  0  0  0  0  0  0  0
   -1.3802    0.8717    0.8276 H   0  0  0  0  0  0  0  0  0  0  0  0
   -1.3817    0.8536   -0.9302 H   0  0  0  0  0  0  0  0  0  0  0  0
   -0.1838   -1.3451    0.9778 H   0  0  0  0  0  0  0  0  0  0  0  0
    0.7239   -0.1563    0.1376 H   0  0  0  0  0  0  0  0  0  0  0  0
   -0.0508   -1.3847   -0.7969 H   0  0  0  0  0  0  0  0  0  0  0  0
  1  3  1  0  0  0  0
  1  5  1  0  0  0  0
  2  1  1  0  0  0  0
  2  8  1  0  0  0  0
  4  1  1  0  0  0  0
  6  2  1  0  0  0  0
  6  9  1  0  0  0  0
  6 10  1  0  0  0  0
  7  2  1  0  0  0  0
  9 13  1  0  0  0  0
  9 12  1  0  0  0  0
 11  6  1  0  0  0  0
 14  9  1  0  0  0  0
M  END
$$$$
