butane_opt
 OpenBabel08242015403D

 14 13  0  0  0  0  0  0  0  0999 V2000
   -3.9505    0.2800   -0.0197 C   0  0  0  0  0  0  0  0  0  0  0  0
   -2.7012   -0.6236    0.0893 C   0  0  0  0  0  0  0  0  0  0  0  0
   -4.8497   -0.3206   -0.1008 H   0  0  0  0  0  0  0  0  0  0  0  0
   -3.9195    0.8268   -0.8940 H   0  0  0  0  0  0  0  0  0  0  0  0
   -4.0443    0.9923    0.8663 H   0  0  0  0  0  0  0  0  0  0  0  0
   -1.3902    0.1655    0.0362 C   0  0  0  0  0  0  0  0  0  0  0  0
   -2.6392   -1.2578   -0.7232 H   0  0  0  0  0  0  0  0  0  0  0  0
   -2.7192   -1.3162    1.0197 H   0  0  0  0  0  0  0  0  0  0  0  0
   -0.1657   -0.6858   -0.0091 C   0  0  0  0  0  0  0  0  0  0  0  0
   -1.3029    0.9066    0.9181 H   0  0  0  0  0  0  0  0  0  0  0  0
   -1.4293    0.7844   -0.8307 H   0  0  0  0  0  0  0  0  0  0  0  0
   -0.1638   -1.2856    0.8777 H   0  0  0  0  0  0  0  0  0  0  0  0
    0.7659   -0.0602    0.0218 H   0  0  0  0  0  0  0  0  0  0  0  0
   -0.2260   -1.3766   -0.8656 H   0  0  0  0  0  0  0  0  0  0  0  0
  1  2  1  0  0  0  0
  1  5  1  0  0  0  0
  2  8  1  0  0  0  0
  3  1  1  0  0  0  0
  4  1  1  0  0  0  0
  6  2  1  0  0  0  0
  6 10  1  0  0  0  0
  7  2  1  0  0  0  0
  9 13  1  0  0  0  0
  9  6  1  0  0  0  0
  9 12  1  0  0  0  0
 11  6  1  0  0  0  0
 14  9  1  0  0  0  0
M  END
$$$$
