14
butane_opt
C  -3.930879   0.266758  -0.003458
C  -2.696937  -0.622433   0.055655
H  -4.820522  -0.284416   0.098010
H  -4.007360   0.946619  -0.930819
H  -3.891409   0.874803   0.817041
C  -1.407319   0.189481   0.023243
H  -2.673342  -1.267740  -0.772331
H  -2.753156  -1.301751   0.985660
C  -0.171243  -0.694986   0.015889
H  -1.350642   0.864502   0.884513
H  -1.426711   0.773951  -0.805105
H  -0.193805  -1.208660   0.845020
H   0.745292  -0.084392   0.081960
H  -0.174239  -1.444915  -0.874645
