14
butane_opt
C  -3.943892   0.269649   0.033648
C  -2.706466  -0.627442   0.013335
H  -4.831529  -0.301606  -0.018625
H  -4.029830   0.825667  -0.814801
H  -3.992749   1.007778   0.934751
C  -1.393517   0.192120   0.003228
H  -2.734548  -1.342165  -0.863133
H  -2.708411  -1.239185   0.884188
C  -0.156236  -0.699017   0.057971
H  -1.379271   0.829107   0.815842
H  -1.391323   0.840052  -0.883317
H  -0.080671  -1.401813   0.980008
H   0.747592  -0.072044  -0.133869
H  -0.215976  -1.236875  -0.742890
