14
butane_opt
C  -3.932767   0.259263   0.028846
C  -2.700682  -0.596421   0.017616
H  -4.882117  -0.383235   0.102514
H  -4.018581   0.878667  -0.856115
H  -3.854406   0.892954   0.863268
C  -1.407623   0.191106   0.005370
H  -2.760068  -1.331459  -0.855577
H  -2.710379  -1.182036   0.880459
C  -0.166998  -0.700521   0.048726
H  -1.401542   0.833187   0.830104
H  -1.388005   0.811937  -0.887815
H  -0.121838  -1.363483   0.951002
H   0.724564  -0.153192  -0.011466
H  -0.111143  -1.315801  -0.785455
