14
butane_opt
C  -3.961315   0.273085  -0.004944
C  -2.694010  -0.622982   0.065550
H  -4.835348  -0.303313  -0.057591
H  -3.933533   0.823236  -0.873732
H  -4.087973   0.973432   0.879902
C  -1.398312   0.178649   0.034489
H  -2.741392  -1.251652  -0.749680
H  -2.736231  -1.308272   0.994068
C  -0.141714  -0.685008   0.013431
H  -1.376936   0.817119   0.851934
H  -1.412282   0.785920  -0.879812
H  -0.124241  -1.251716   0.865033
H   0.757122  -0.097152  -0.001261
H  -0.189411  -1.378049  -0.886821
