14
butane_opt
C  -3.933919   0.266315   0.041177
C  -2.701152  -0.624719   0.022243
H  -4.846223  -0.290582  -0.077089
H  -3.933968   0.805281  -0.824720
H  -3.995251   1.048567   0.977191
C  -1.402519   0.182163  -0.011256
H  -2.747762  -1.341205  -0.850213
H  -2.634641  -1.231841   0.899016
C  -0.169464  -0.692117   0.050041
H  -1.389044   0.851092   0.822375
H  -1.370259   0.865776  -0.930838
H  -0.196398  -1.402868   1.006798
H   0.752265  -0.083482  -0.034228
H  -0.172956  -1.274906  -0.763059
