14
butane_opt
C  -3.947371   0.253839  -0.006579
C  -2.711427  -0.603436   0.077592
H  -4.861335  -0.329403  -0.082515
H  -3.856626   0.831858  -0.909163
H  -4.060036   0.973988   0.888343
C  -1.416278   0.187943   0.037297
H  -2.735613  -1.267689  -0.778970
H  -2.737229  -1.241263   0.962255
C  -0.139037  -0.699930   0.001900
H  -1.380657   0.875537   0.898132
H  -1.387450   0.838733  -0.864549
H  -0.079753  -1.331176   0.904850
H   0.788252  -0.109480  -0.052977
H  -0.144179  -1.373941  -0.843089
