butane_opt
 OpenBabel08242015403D

 14 13  0  0  0  0  0  0  0  0999 V2000
   -3.9387    0.2737    0.0046 C   0  0  0  0  0  0  0  0  0  0  0  0
   -2.7056   -0.6190    0.0350 C   0  0  0  0  0  0  0  0  0  0  0  0
   -4.8495   -0.3029    0.0311 H   0  0  0  0  0  0  0  0  0  0  0  0
   -3.9711    0.8849   -0.8718 H   0  0  0  0  0  0  0  0  0  0  0  0
   -3.9510    0.9107    0.8394 H   0  0  0  0  0  0  0  0  0  0  0  0
   -1.4026    0.1738    0.0354 C   0  0  0  0  0  0  0  0  0  0  0  0
   -2.6903   -1.3136   -0.8189 H   0  0  0  0  0  0  0  0  0  0  0  0
   -2.6885   -1.2474    0.9523 H   0  0  0  0  0  0  0  0  0  0  0  0
   -0.1704   -0.6932    0.0283 C   0  0  0  0  0  0  0  0  0  0  0  0
   -1.3626    0.8821    0.9205 H   0  0  0  0  0  0  0  0  0  0  0  0
   -1.4165    0.7834   -0.8452 H   0  0  0  0  0  0  0  0  0  0  0  0
   -0.0707   -1.3577    0.9595 H   0  0  0  0  0  0  0  0  0  0  0  0
    0.7971   -0.0515   -0.1591 H   0  0  0  0  0  0  0  0  0  0  0  0
   -0.2230   -1.2739   -0.8062 H   0  0  0  0  0  0  0  0  0  0  0  0
  1  3  1  0  0  0  0
  1  2  1  0  0  0  0
  1  5  1  0  0  0  0
  2  6  1  0  0  0  0
  2  8  1  0  0  0  0
  4  1  1  0  0  0  0
  6 10  1  0  0  0  0
  7  2  1  0  0  0  0
  9  6  1  0  0  0  0
  9 12  1  0  0  0  0
 11  6  1  0  0  0  0
 13  9  1  0  0  0  0
 14  9  1  0  0  0  0
M  END
$$$$
