butane_opt
 OpenBabel08242015403D

 14 13  0  0  0  0  0  0  0  0999 V2000
   -3.9325    0.2589   -0.0089 C   0  0  0  0  0  0  0  0  0  0  0  0
   -2.7110   -0.6079    0.0714 C   0  0  0  0  0  0  0  0  0  0  0  0
   -4.8495   -0.3601    0.0675 H   0  0  0  0  0  0  0  0  0  0  0  0
   -3.9554    0.9091   -0.9278 H   0  0  0  0  0  0  0  0  0  0  0  0
   -3.9786    0.8581    0.8139 H   0  0  0  0  0  0  0  0  0  0  0  0
   -1.4095    0.2102    0.0379 C   0  0  0  0  0  0  0  0  0  0  0  0
   -2.7065   -1.2828   -0.7588 H   0  0  0  0  0  0  0  0  0  0  0  0
   -2.7788   -1.2689    0.9735 H   0  0  0  0  0  0  0  0  0  0  0  0
   -0.1513   -0.7121    0.0005 C   0  0  0  0  0  0  0  0  0  0  0  0
   -1.3812    0.8608    0.8605 H   0  0  0  0  0  0  0  0  0  0  0  0
   -1.3854    0.8364   -0.8578 H   0  0  0  0  0  0  0  0  0  0  0  0
   -0.1559   -1.2110    0.8224 H   0  0  0  0  0  0  0  0  0  0  0  0
    0.7339   -0.1362    0.1067 H   0  0  0  0  0  0  0  0  0  0  0  0
   -0.1038   -1.4687   -0.8841 H   0  0  0  0  0  0  0  0  0  0  0  0
  1  3  1  0  0  0  0
  1  2  1  0  0  0  0
  1  5  1  0  0  0  0
  2  8  1  0  0  0  0
  4  1  1  0  0  0  0
  6  2  1  0  0  0  0
  6 10  1  0  0  0  0
  7  2  1  0  0  0  0
  9  6  1  0  0  0  0
  9 13  1  0  0  0  0
  9 12  1  0  0  0  0
 11  6  1  0  0  0  0
 14  9  1  0  0  0  0
M  END
$$$$
