14
butane_opt
C  -3.921519   0.269220   0.048752
C  -2.697355  -0.624301   0.025455
H  -4.839890  -0.325912  -0.112849
H  -3.936183   0.802480  -0.808612
H  -4.046403   1.071497   0.976299
C  -1.412980   0.177763  -0.019581
H  -2.730597  -1.324428  -0.870499
H  -2.709309  -1.225390   0.901292
C  -0.172185  -0.688584   0.052519
H  -1.373483   0.828763   0.803334
H  -1.362135   0.840504  -0.955441
H  -0.152726  -1.380591   0.990258
H   0.761845  -0.077684  -0.009557
H  -0.180636  -1.290677  -0.737600
