butane_opt
 OpenBabel08242015403D

 14 13  0  0  0  0  0  0  0  0999 V2000
   -3.9494    0.2660   -0.0143 C   0  0  0  0  0  0  0  0  0  0  0  0
   -2.7069   -0.6251    0.0839 C   0  0  0  0  0  0  0  0  0  0  0  0
   -4.8109   -0.2680   -0.0718 H   0  0  0  0  0  0  0  0  0  0  0  0
   -3.9673    0.8870   -0.8943 H   0  0  0  0  0  0  0  0  0  0  0  0
   -4.0177    0.9860    0.8730 H   0  0  0  0  0  0  0  0  0  0  0  0
   -1.3941    0.1838    0.0253 C   0  0  0  0  0  0  0  0  0  0  0  0
   -2.7103   -1.2898   -0.7537 H   0  0  0  0  0  0  0  0  0  0  0  0
   -2.7431   -1.3114    1.0511 H   0  0  0  0  0  0  0  0  0  0  0  0
   -0.1615   -0.6896    0.0009 C   0  0  0  0  0  0  0  0  0  0  0  0
   -1.3591    0.8928    0.8988 H   0  0  0  0  0  0  0  0  0  0  0  0
   -1.3799    0.7668   -0.8343 H   0  0  0  0  0  0  0  0  0  0  0  0
   -0.1441   -1.2590    0.8606 H   0  0  0  0  0  0  0  0  0  0  0  0
    0.7612   -0.0836    0.0465 H   0  0  0  0  0  0  0  0  0  0  0  0
   -0.1131   -1.4090   -0.8954 H   0  0  0  0  0  0  0  0  0  0  0  0
  1  2  1  0  0  0  0
  1  5  1  0  0  0  0
  2  8  1  0  0  0  0
  3  1  1  0  0  0  0
  4  1  1  0  0  0  0
  6  2  1  0  0  0  0
  6 10  1  0  0  0  0
  7  2  1  0  0  0  0
  9  6  1  0  0  0  0
  9 13  1  0  0  0  0
  9 12  1  0  0  0  0
 11  6  1  0  0  0  0
 14  9  1  0  0  0  0
M  END
$$$$
