butane_opt
 OpenBabel08242015403D

 14 13  0  0  0  0  0  0  0  0999 V2000
   -3.9389    0.2706    0.0483 C   0  0  0  0  0  0  0  0  0  0  0  0
   -2.6872   -0.6160   -0.0062 C   0  0  0  0  0  0  0  0  0  0  0  0
   -4.8635   -0.3371    0.1993 H   0  0  0  0  0  0  0  0  0  0  0  0
   -4.0718    0.9548   -0.8652 H   0  0  0  0  0  0  0  0  0  0  0  0
   -3.8827    0.8730    0.8840 H   0  0  0  0  0  0  0  0  0  0  0  0
   -1.4101    0.1768   -0.0153 C   0  0  0  0  0  0  0  0  0  0  0  0
   -2.7567   -1.3943   -0.9266 H   0  0  0  0  0  0  0  0  0  0  0  0
   -2.6590   -1.1964    0.8416 H   0  0  0  0  0  0  0  0  0  0  0  0
   -0.1637   -0.6864    0.0655 C   0  0  0  0  0  0  0  0  0  0  0  0
   -1.4019    0.8069    0.8346 H   0  0  0  0  0  0  0  0  0  0  0  0
   -1.4104    0.8252   -0.9111 H   0  0  0  0  0  0  0  0  0  0  0  0
   -0.2386   -1.3388    0.9837 H   0  0  0  0  0  0  0  0  0  0  0  0
    0.7819   -0.0661    0.0360 H   0  0  0  0  0  0  0  0  0  0  0  0
   -0.1222   -1.3263   -0.7503 H   0  0  0  0  0  0  0  0  0  0  0  0
  1  3  1  0  0  0  0
  1  5  1  0  0  0  0
  2  1  1  0  0  0  0
  2  8  1  0  0  0  0
  4  1  1  0  0  0  0
  6  2  1  0  0  0  0
  6  9  1  0  0  0  0
  6 10  1  0  0  0  0
  7  2  1  0  0  0  0
  9 12  1  0  0  0  0
 11  6  1  0  0  0  0
 13  9  1  0  0  0  0
 14  9  1  0  0  0  0
M  END
$$$$
