14
butane_opt
C  -3.941251   0.267740   0.043307
C  -2.685892  -0.623986   0.017388
H  -4.819622  -0.280376   0.022949
H  -4.010305   0.799194  -0.752434
H  -3.891815   1.008761   0.954151
C  -1.412628   0.171981  -0.035838
H  -2.723517  -1.299923  -0.840285
H  -2.712319  -1.224154   0.896509
C  -0.169785  -0.682817   0.064077
H  -1.456093   0.797685   0.768662
H  -1.361248   0.861875  -0.940684
H  -0.211026  -1.291740   0.950584
H   0.759908  -0.070680   0.119820
H  -0.094719  -1.367241  -0.804575
