butane_opt
 OpenBabel08242015403D

 14 13  0  0  0  0  0  0  0  0999 V2000
   -3.9638    0.2672   -0.0157 C   0  0  0  0  0  0  0  0  0  0  0  0
   -2.7061   -0.6226    0.0762 C   0  0  0  0  0  0  0  0  0  0  0  0
   -4.8646   -0.3025   -0.1045 H   0  0  0  0  0  0  0  0  0  0  0  0
   -3.9223    0.7923   -0.8379 H   0  0  0  0  0  0  0  0  0  0  0  0
   -3.9929    1.0343    0.9183 H   0  0  0  0  0  0  0  0  0  0  0  0
   -1.3918    0.1836    0.0258 C   0  0  0  0  0  0  0  0  0  0  0  0
   -2.6794   -1.2162   -0.7137 H   0  0  0  0  0  0  0  0  0  0  0  0
   -2.7161   -1.2783    0.9968 H   0  0  0  0  0  0  0  0  0  0  0  0
   -0.1581   -0.6969    0.0063 C   0  0  0  0  0  0  0  0  0  0  0  0
   -1.3185    0.8506    0.9064 H   0  0  0  0  0  0  0  0  0  0  0  0
   -1.3914    0.8128   -0.8612 H   0  0  0  0  0  0  0  0  0  0  0  0
   -0.1066   -1.2888    0.8924 H   0  0  0  0  0  0  0  0  0  0  0  0
    0.7747   -0.1007    0.0054 H   0  0  0  0  0  0  0  0  0  0  0  0
   -0.1712   -1.3546   -0.8656 H   0  0  0  0  0  0  0  0  0  0  0  0
  1  2  1  0  0  0  0
  1  5  1  0  0  0  0
  2  8  1  0  0  0  0
  3  1  1  0  0  0  0
  4  1  1  0  0  0  0
  6  2  1  0  0  0  0
  6 10  1  0  0  0  0
  7  2  1  0  0  0  0
  9  6  1  0  0  0  0
  9 12  1  0  0  0  0
 11  6  1  0  0  0  0
 13  9  1  0  0  0  0
 14  9  1  0  0  0  0
M  END
$$$$
