butane_opt
 OpenBabel08242015403D

 14 13  0  0  0  0  0  0  0  0999 V2000
   -3.9366    0.2627    0.0121 C   0  0  0  0  0  0  0  0  0  0  0  0
   -2.6975   -0.6107    0.0348 C   0  0  0  0  0  0  0  0  0  0  0  0
   -4.8836   -0.3786    0.1165 H   0  0  0  0  0  0  0  0  0  0  0  0
   -4.0312    0.9453   -0.9201 H   0  0  0  0  0  0  0  0  0  0  0  0
   -3.9048    0.8286    0.8018 H   0  0  0  0  0  0  0  0  0  0  0  0
   -1.4028    0.1988    0.0245 C   0  0  0  0  0  0  0  0  0  0  0  0
   -2.7180   -1.3216   -0.8235 H   0  0  0  0  0  0  0  0  0  0  0  0
   -2.6961   -1.2570    0.9503 H   0  0  0  0  0  0  0  0  0  0  0  0
   -0.1655   -0.6993    0.0327 C   0  0  0  0  0  0  0  0  0  0  0  0
   -1.4077    0.8825    0.8584 H   0  0  0  0  0  0  0  0  0  0  0  0
   -1.4148    0.8413   -0.8605 H   0  0  0  0  0  0  0  0  0  0  0  0
   -0.0966   -1.2571    0.8862 H   0  0  0  0  0  0  0  0  0  0  0  0
    0.7220   -0.1469    0.0199 H   0  0  0  0  0  0  0  0  0  0  0  0
   -0.1548   -1.4317   -0.8585 H   0  0  0  0  0  0  0  0  0  0  0  0
  1  2  1  0  0  0  0
  1  3  1  0  0  0  0
  1  5  1  0  0  0  0
  2  8  1  0  0  0  0
  4  1  1  0  0  0  0
  6  9  1  0  0  0  0
  6  2  1  0  0  0  0
  6 10  1  0  0  0  0
  7  2  1  0  0  0  0
  9 12  1  0  0  0  0
 11  6  1  0  0  0  0
 13  9  1  0  0  0  0
 14  9  1  0  0  0  0
M  END
$$$$
