14
butane_opt
C  -3.933542   0.256162  -0.012577
C  -2.706482  -0.599031   0.056550
H  -4.859953  -0.343749   0.023069
H  -3.949750   0.866935  -0.909267
H  -3.926239   0.885556   0.819657
C  -1.413743   0.195537   0.049507
H  -2.682327  -1.231533  -0.745633
H  -2.752534  -1.284966   1.003957
C  -0.161373  -0.707386   0.006281
H  -1.344244   0.898321   0.915335
H  -1.438992   0.806408  -0.818521
H  -0.105943  -1.328762   0.865698
H   0.779360  -0.085296  -0.054518
H  -0.160716  -1.396444  -0.860642
