14
butane_opt
C  -3.960607   0.275285   0.028304
C  -2.696904  -0.635727   0.014776
H  -4.852295  -0.279653   0.152527
H  -4.063869   0.938974  -0.892301
H  -3.872847   0.866754   0.834867
C  -1.404145   0.185549   0.004508
H  -2.710321  -1.350167  -0.852102
H  -2.695212  -1.256123   0.914323
C  -0.158208  -0.684206   0.046380
H  -1.367713   0.902691   0.872272
H  -1.327191   0.807461  -0.870897
H  -0.135751  -1.336110   0.941615
H   0.745247  -0.093363   0.013406
H  -0.114302  -1.357909  -0.812586
