butane_opt
 OpenBabel08242015403D

 14 13  0  0  0  0  0  0  0  0999 V2000
   -3.9259    0.2572    0.0381 C   0  0  0  0  0  0  0  0  0  0  0  0
   -2.7025   -0.6069    0.0013 C   0  0  0  0  0  0  0  0  0  0  0  0
   -4.8366   -0.3581    0.0255 H   0  0  0  0  0  0  0  0  0  0  0  0
   -3.9564    0.7993   -0.8300 H   0  0  0  0  0  0  0  0  0  0  0  0
   -3.9149    0.9490    0.9236 H   0  0  0  0  0  0  0  0  0  0  0  0
   -1.4171    0.2046   -0.0001 C   0  0  0  0  0  0  0  0  0  0  0  0
   -2.7494   -1.2801   -0.8392 H   0  0  0  0  0  0  0  0  0  0  0  0
   -2.7006   -1.2643    0.9096 H   0  0  0  0  0  0  0  0  0  0  0  0
   -0.1638   -0.7056    0.0550 C   0  0  0  0  0  0  0  0  0  0  0  0
   -1.4528    0.8583    0.8336 H   0  0  0  0  0  0  0  0  0  0  0  0
   -1.4244    0.8331   -0.8602 H   0  0  0  0  0  0  0  0  0  0  0  0
   -0.0741   -1.3842    0.9939 H   0  0  0  0  0  0  0  0  0  0  0  0
    0.7361   -0.1257   -0.1038 H   0  0  0  0  0  0  0  0  0  0  0  0
   -0.1403   -1.2857   -0.7381 H   0  0  0  0  0  0  0  0  0  0  0  0
  1  5  1  0  0  0  0
  2  1  1  0  0  0  0
  2  8  1  0  0  0  0
  3  1  1  0  0  0  0
  4  1  1  0  0  0  0
  6  2  1  0  0  0  0
  6  9  1  0  0  0  0
  6 10  1  0  0  0  0
  7  2  1  0  0  0  0
  9 12  1  0  0  0  0
 11  6  1  0  0  0  0
 13  9  1  0  0  0  0
 14  9  1  0  0  0  0
M  END
$$$$
