butane_opt
 OpenBabel08242015403D

 14 13  0  0  0  0  0  0  0  0999 V2000
   -3.9443    0.2480    0.0495 C   0  0  0  0  0  0  0  0  0  0  0  0
   -2.7007   -0.6025    0.0141 C   0  0  0  0  0  0  0  0  0  0  0  0
   -4.8288   -0.3171    0.0771 H   0  0  0  0  0  0  0  0  0  0  0  0
   -3.9714    0.8552   -0.8247 H   0  0  0  0  0  0  0  0  0  0  0  0
   -3.9362    0.9169    0.8992 H   0  0  0  0  0  0  0  0  0  0  0  0
   -1.4127    0.1970   -0.0383 C   0  0  0  0  0  0  0  0  0  0  0  0
   -2.7930   -1.2924   -0.8444 H   0  0  0  0  0  0  0  0  0  0  0  0
   -2.7419   -1.2288    0.9250 H   0  0  0  0  0  0  0  0  0  0  0  0
   -0.1488   -0.7037    0.0645 C   0  0  0  0  0  0  0  0  0  0  0  0
   -1.4329    0.9111    0.8082 H   0  0  0  0  0  0  0  0  0  0  0  0
   -1.3892    0.8548   -0.9380 H   0  0  0  0  0  0  0  0  0  0  0  0
   -0.1415   -1.2845    0.9223 H   0  0  0  0  0  0  0  0  0  0  0  0
    0.7411   -0.1324    0.1629 H   0  0  0  0  0  0  0  0  0  0  0  0
   -0.0527   -1.4275   -0.8270 H   0  0  0  0  0  0  0  0  0  0  0  0
  1  3  1  0  0  0  0
  1  5  1  0  0  0  0
  2  1  1  0  0  0  0
  2  8  1  0  0  0  0
  4  1  1  0  0  0  0
  6  2  1  0  0  0  0
  6  9  1  0  0  0  0
  6 10  1  0  0  0  0
  7  2  1  0  0  0  0
  9 13  1  0  0  0  0
  9 12  1  0  0  0  0
 11  6  1  0  0  0  0
 14  9  1  0  0  0  0
M  END
$$$$
