14
butane_opt
C  -3.963829   0.274822   0.031368
C  -2.698294  -0.627757   0.029595
H  -4.840653  -0.267543   0.049938
H  -4.026514   0.905971  -0.871926
H  -3.985201   0.900080   0.840817
C  -1.387923   0.169109  -0.004187
H  -2.765432  -1.283440  -0.817515
H  -2.659581  -1.271531   0.924403
C  -0.151925  -0.680870   0.037756
H  -1.402550   0.851461   0.874166
H  -1.389142   0.794634  -0.889783
H  -0.200572  -1.267939   0.934017
H   0.772270  -0.083187   0.108119
H  -0.110812  -1.370787  -0.859498
