14
butane_opt
C  -3.950599   0.269137   0.035048
C  -2.706107  -0.623213   0.003000
H  -4.826030  -0.324102   0.023536
H  -3.987303   0.855144  -0.827976
H  -3.951039   1.012265   0.954556
C  -1.395614   0.185135  -0.005429
H  -2.729399  -1.325163  -0.837146
H  -2.671383  -1.245503   0.889654
C  -0.167734  -0.686673   0.059442
H  -1.351367   0.859435   0.849404
H  -1.367711   0.766452  -0.855455
H  -0.070877  -1.430338   1.036297
H   0.729484  -0.112985  -0.148200
H  -0.162449  -1.248679  -0.737138
