14
butane_opt
C  -3.926698   0.258203   0.007004
C  -2.696218  -0.614369   0.034000
H  -4.857971  -0.324957   0.034278
H  -3.963381   0.901444  -0.915362
H  -3.927103   0.904854   0.865371
C  -1.406036   0.200170   0.041489
H  -2.717960  -1.264209  -0.817592
H  -2.734988  -1.268141   0.956378
C  -0.168530  -0.700714   0.021920
H  -1.447445   0.907350   0.896471
H  -1.390758   0.778257  -0.840883
H  -0.099110  -1.399342   0.957135
H   0.734159  -0.111194  -0.126013
H  -0.242922  -1.315053  -0.823985
