butane_opt
 OpenBabel08242015403D

 14 13  0  0  0  0  0  0  0  0999 V2000
   -3.9319    0.2602    0.0129 C   0  0  0  0  0  0  0  0  0  0  0  0
   -2.6973   -0.6039    0.0328 C   0  0  0  0  0  0  0  0  0  0  0  0
   -4.8563   -0.3626    0.0832 H   0  0  0  0  0  0  0  0  0  0  0  0
   -3.9669    0.8885   -0.9122 H   0  0  0  0  0  0  0  0  0  0  0  0
   -3.9479    0.9317    0.8710 H   0  0  0  0  0  0  0  0  0  0  0  0
   -1.4077    0.1777    0.0316 C   0  0  0  0  0  0  0  0  0  0  0  0
   -2.6690   -1.2948   -0.8360 H   0  0  0  0  0  0  0  0  0  0  0  0
   -2.7678   -1.2577    0.9184 H   0  0  0  0  0  0  0  0  0  0  0  0
   -0.1625   -0.6940    0.0271 C   0  0  0  0  0  0  0  0  0  0  0  0
   -1.4186    0.8715    0.8902 H   0  0  0  0  0  0  0  0  0  0  0  0
   -1.4354    0.8360   -0.8841 H   0  0  0  0  0  0  0  0  0  0  0  0
   -0.1082   -1.3335    0.9497 H   0  0  0  0  0  0  0  0  0  0  0  0
    0.7375   -0.1247   -0.0666 H   0  0  0  0  0  0  0  0  0  0  0  0
   -0.1934   -1.3062   -0.8145 H   0  0  0  0  0  0  0  0  0  0  0  0
  1  2  1  0  0  0  0
  1  3  1  0  0  0  0
  1  5  1  0  0  0  0
  2  8  1  0  0  0  0
  4  1  1  0  0  0  0
  6  2  1  0  0  0  0
  6 10  1  0  0  0  0
  7  2  1  0  0  0  0
  9  6  1  0  0  0  0
  9 12  1  0  0  0  0
 11  6  1  0  0  0  0
 13  9  1  0  0  0  0
 14  9  1  0  0  0  0
M  END
$$$$
