butane_opt
 OpenBabel08242015403D

 14 13  0  0  0  0  0  0  0  0999 V2000
   -3.9681    0.2742   -0.0084 C   0  0  0  0  0  0  0  0  0  0  0  0
   -2.6980   -0.6279    0.0722 C   0  0  0  0  0  0  0  0  0  0  0  0
   -4.8604   -0.2832    0.0571 H   0  0  0  0  0  0  0  0  0  0  0  0
   -3.9848    0.9440   -0.9379 H   0  0  0  0  0  0  0  0  0  0  0  0
   -4.0172    0.8654    0.8150 H   0  0  0  0  0  0  0  0  0  0  0  0
   -1.3896    0.1808    0.0210 C   0  0  0  0  0  0  0  0  0  0  0  0
   -2.7063   -1.2826   -0.7341 H   0  0  0  0  0  0  0  0  0  0  0  0
   -2.6518   -1.3112    1.0050 H   0  0  0  0  0  0  0  0  0  0  0  0
   -0.1604   -0.6876    0.0105 C   0  0  0  0  0  0  0  0  0  0  0  0
   -1.3504    0.8677    0.8904 H   0  0  0  0  0  0  0  0  0  0  0  0
   -1.3904    0.7587   -0.8273 H   0  0  0  0  0  0  0  0  0  0  0  0
   -0.1761   -1.1537    0.8086 H   0  0  0  0  0  0  0  0  0  0  0  0
    0.7697   -0.0632    0.1230 H   0  0  0  0  0  0  0  0  0  0  0  0
   -0.0686   -1.4812   -0.9317 H   0  0  0  0  0  0  0  0  0  0  0  0
  1  3  1  0  0  0  0
  1  2  1  0  0  0  0
  1  5  1  0  0  0  0
  2  8  1  0  0  0  0
  4  1  1  0  0  0  0
  6  2  1  0  0  0  0
  6 10  1  0  0  0  0
  7  2  1  0  0  0  0
  9  6  1  0  0  0  0
  9 13  1  0  0  0  0
  9 12  1  0  0  0  0
 11  6  1  0  0  0  0
 14  9  1  0  0  0  0
M  END
$$$$
