14
butane_opt
C  -3.954331   0.275953  -0.007692
C  -2.698353  -0.630719   0.084595
H  -4.851627  -0.294476  -0.101197
H  -3.900760   0.860215  -0.916204
H  -4.096879   0.964586   0.863814
C  -1.399607   0.182400   0.030362
H  -2.722436  -1.320763  -0.739073
H  -2.750112  -1.281232   0.991504
C  -0.151217  -0.684088   0.007540
H  -1.353671   0.864123   0.890781
H  -1.382957   0.799440  -0.857526
H  -0.128021  -1.268173   0.874244
H   0.764214  -0.090530  -0.031498
H  -0.164835  -1.422542  -0.918589
