butane_opt
 OpenBabel08242015403D

 14 13  0  0  0  0  0  0  0  0999 V2000
   -3.9329    0.2514   -0.0227 C   0  0  0  0  0  0  0  0  0  0  0  0
   -2.7027   -0.5980    0.0723 C   0  0  0  0  0  0  0  0  0  0  0  0
   -4.8382   -0.3393    0.0176 H   0  0  0  0  0  0  0  0  0  0  0  0
   -3.9106    0.8914   -0.9640 H   0  0  0  0  0  0  0  0  0  0  0  0
   -3.9246    0.9046    0.8204 H   0  0  0  0  0  0  0  0  0  0  0  0
   -1.4146    0.1922    0.0628 C   0  0  0  0  0  0  0  0  0  0  0  0
   -2.7146   -1.2849   -0.7769 H   0  0  0  0  0  0  0  0  0  0  0  0
   -2.7349   -1.2375    0.9809 H   0  0  0  0  0  0  0  0  0  0  0  0
   -0.1618   -0.7113    0.0016 C   0  0  0  0  0  0  0  0  0  0  0  0
   -1.3749    0.9081    0.9280 H   0  0  0  0  0  0  0  0  0  0  0  0
   -1.4202    0.8430   -0.8234 H   0  0  0  0  0  0  0  0  0  0  0  0
   -0.0676   -1.3057    0.8661 H   0  0  0  0  0  0  0  0  0  0  0  0
    0.7705   -0.1155   -0.1264 H   0  0  0  0  0  0  0  0  0  0  0  0
   -0.2583   -1.3467   -0.8553 H   0  0  0  0  0  0  0  0  0  0  0  0
  1  3  1  0  0  0  0
  1  2  1  0  0  0  0
  1  5  1  0  0  0  0
  2  8  1  0  0  0  0
  4  1  1  0  0  0  0
  6  2  1  0  0  0  0
  6 10  1  0  0  0  0
  7  2  1  0  0  0  0
  9  6  1  0  0  0  0
  9 12  1  0  0  0  0
 11  6  1  0  0  0  0
 13  9  1  0  0  0  0
 14  9  1  0  0  0  0
M  END
$$$$
