butane_opt
 OpenBabel08242015403D

 14 13  0  0  0  0  0  0  0  0999 V2000
   -3.9375    0.2519    0.0541 C   0  0  0  0  0  0  0  0  0  0  0  0
   -2.7079   -0.5973    0.0091 C   0  0  0  0  0  0  0  0  0  0  0  0
   -4.8526   -0.3150    0.1176 H   0  0  0  0  0  0  0  0  0  0  0  0
   -3.9576    0.8660   -0.8353 H   0  0  0  0  0  0  0  0  0  0  0  0
   -3.9340    0.9265    0.9340 H   0  0  0  0  0  0  0  0  0  0  0  0
   -1.4027    0.1853   -0.0466 C   0  0  0  0  0  0  0  0  0  0  0  0
   -2.7470   -1.2798   -0.8624 H   0  0  0  0  0  0  0  0  0  0  0  0
   -2.6758   -1.2060    0.8761 H   0  0  0  0  0  0  0  0  0  0  0  0
   -0.1646   -0.7046    0.0708 C   0  0  0  0  0  0  0  0  0  0  0  0
   -1.4283    0.8679    0.7972 H   0  0  0  0  0  0  0  0  0  0  0  0
   -1.3757    0.8236   -0.9309 H   0  0  0  0  0  0  0  0  0  0  0  0
   -0.2158   -1.2753    0.9510 H   0  0  0  0  0  0  0  0  0  0  0  0
    0.7756   -0.0797    0.1520 H   0  0  0  0  0  0  0  0  0  0  0  0
   -0.0594   -1.4267   -0.8117 H   0  0  0  0  0  0  0  0  0  0  0  0
  1  3  1  0  0  0  0
  1  5  1  0  0  0  0
  2  1  1  0  0  0  0
  2  8  1  0  0  0  0
  4  1  1  0  0  0  0
  6  2  1  0  0  0  0
  6  9  1  0  0  0  0
  6 10  1  0  0  0  0
  7  2  1  0  0  0  0
  9 13  1  0  0  0  0
  9 12  1  0  0  0  0
 11  6  1  0  0  0  0
 14  9  1  0  0  0  0
M  END
$$$$
