butane_opt
 OpenBabel08242015403D

 14 13  0  0  0  0  0  0  0  0999 V2000
   -3.9548    0.2659   -0.0155 C   0  0  0  0  0  0  0  0  0  0  0  0
   -2.7024   -0.6180    0.0735 C   0  0  0  0  0  0  0  0  0  0  0  0
   -4.8447   -0.2851    0.0469 H   0  0  0  0  0  0  0  0  0  0  0  0
   -3.9704    0.9317   -0.9628 H   0  0  0  0  0  0  0  0  0  0  0  0
   -4.0434    0.9000    0.8105 H   0  0  0  0  0  0  0  0  0  0  0  0
   -1.3990    0.1703    0.0541 C   0  0  0  0  0  0  0  0  0  0  0  0
   -2.6691   -1.3290   -0.7807 H   0  0  0  0  0  0  0  0  0  0  0  0
   -2.7190   -1.2346    0.9335 H   0  0  0  0  0  0  0  0  0  0  0  0
   -0.1579   -0.6892   -0.0050 C   0  0  0  0  0  0  0  0  0  0  0  0
   -1.3586    0.8913    0.9564 H   0  0  0  0  0  0  0  0  0  0  0  0
   -1.4138    0.8130   -0.8339 H   0  0  0  0  0  0  0  0  0  0  0  0
   -0.0965   -1.3073    0.8971 H   0  0  0  0  0  0  0  0  0  0  0  0
    0.8091   -0.0586   -0.0728 H   0  0  0  0  0  0  0  0  0  0  0  0
   -0.1553   -1.3298   -0.8412 H   0  0  0  0  0  0  0  0  0  0  0  0
  1  3  1  0  0  0  0
  1  2  1  0  0  0  0
  1  5  1  0  0  0  0
  2  8  1  0  0  0  0
  4  1  1  0  0  0  0
  6  2  1  0  0  0  0
  6 10  1  0  0  0  0
  7  2  1  0  0  0  0
  9  6  1  0  0  0  0
  9 12  1  0  0  0  0
 11  6  1  0  0  0  0
 13  9  1  0  0  0  0
 14  9  1  0  0  0  0
M  END
$$$$
