14
butane_opt
C  -3.945242   0.253343  -0.008052
C  -2.702830  -0.599723   0.052244
H  -4.865391  -0.351463  -0.010901
H  -3.916296   0.858399  -0.903520
H  -4.001080   0.889479   0.817689
C  -1.403851   0.199728   0.052197
H  -2.683165  -1.258025  -0.770774
H  -2.746192  -1.306793   0.984953
C  -0.151556  -0.699777   0.005444
H  -1.380160   0.930570   0.956888
H  -1.430783   0.799707  -0.798405
H  -0.037660  -1.385877   0.947170
H   0.685975  -0.149577  -0.168360
H  -0.200352  -1.347190  -0.835421
