butane_opt
 OpenBabel08242015403D

 14 13  0  0  0  0  0  0  0  0999 V2000
   -3.9346    0.2544    0.0384 C   0  0  0  0  0  0  0  0  0  0  0  0
   -2.6985   -0.6064    0.0241 C   0  0  0  0  0  0  0  0  0  0  0  0
   -4.8356   -0.3623    0.0507 H   0  0  0  0  0  0  0  0  0  0  0  0
   -3.9499    0.8332   -0.8292 H   0  0  0  0  0  0  0  0  0  0  0  0
   -3.9591    0.9858    0.9431 H   0  0  0  0  0  0  0  0  0  0  0  0
   -1.4080    0.1933   -0.0275 C   0  0  0  0  0  0  0  0  0  0  0  0
   -2.7099   -1.2828   -0.8048 H   0  0  0  0  0  0  0  0  0  0  0  0
   -2.6999   -1.2380    0.9082 H   0  0  0  0  0  0  0  0  0  0  0  0
   -0.1670   -0.6984    0.0608 C   0  0  0  0  0  0  0  0  0  0  0  0
   -1.4187    0.8541    0.8000 H   0  0  0  0  0  0  0  0  0  0  0  0
   -1.3564    0.8763   -0.9761 H   0  0  0  0  0  0  0  0  0  0  0  0
   -0.1762   -1.2541    0.9399 H   0  0  0  0  0  0  0  0  0  0  0  0
    0.7229   -0.1298    0.1145 H   0  0  0  0  0  0  0  0  0  0  0  0
   -0.1355   -1.4782   -0.8559 H   0  0  0  0  0  0  0  0  0  0  0  0
  1  3  1  0  0  0  0
  1  5  1  0  0  0  0
  2  1  1  0  0  0  0
  2  8  1  0  0  0  0
  4  1  1  0  0  0  0
  6  2  1  0  0  0  0
  6  9  1  0  0  0  0
  6 10  1  0  0  0  0
  7  2  1  0  0  0  0
  9 13  1  0  0  0  0
  9 12  1  0  0  0  0
 11  6  1  0  0  0  0
 14  9  1  0  0  0  0
M  END
$$$$
