butane_opt
 OpenBabel08242015403D

 14 13  0  0  0  0  0  0  0  0999 V2000
   -3.9303    0.2476    0.0496 C   0  0  0  0  0  0  0  0  0  0  0  0
   -2.7031   -0.6029   -0.0024 C   0  0  0  0  0  0  0  0  0  0  0  0
   -4.8573   -0.3359    0.1301 H   0  0  0  0  0  0  0  0  0  0  0  0
   -4.0281    0.8908   -0.8530 H   0  0  0  0  0  0  0  0  0  0  0  0
   -3.8461    0.9095    0.9158 H   0  0  0  0  0  0  0  0  0  0  0  0
   -1.4130    0.2039   -0.0235 C   0  0  0  0  0  0  0  0  0  0  0  0
   -2.7686   -1.2950   -0.8640 H   0  0  0  0  0  0  0  0  0  0  0  0
   -2.6852   -1.2178    0.8784 H   0  0  0  0  0  0  0  0  0  0  0  0
   -0.1620   -0.7098    0.0567 C   0  0  0  0  0  0  0  0  0  0  0  0
   -1.4022    0.8840    0.8393 H   0  0  0  0  0  0  0  0  0  0  0  0
   -1.3817    0.8784   -0.9200 H   0  0  0  0  0  0  0  0  0  0  0  0
   -0.2105   -1.3647    0.9921 H   0  0  0  0  0  0  0  0  0  0  0  0
    0.7381   -0.1111    0.1238 H   0  0  0  0  0  0  0  0  0  0  0  0
   -0.0722   -1.3831   -0.7709 H   0  0  0  0  0  0  0  0  0  0  0  0
  1  3  1  0  0  0  0
  1  5  1  0  0  0  0
  2  1  1  0  0  0  0
  2  8  1  0  0  0  0
  4  1  1  0  0  0  0
  6  2  1  0  0  0  0
  6  9  1  0  0  0  0
  6 10  1  0  0  0  0
  7  2  1  0  0  0  0
  9 13  1  0  0  0  0
  9 12  1  0  0  0  0
 11  6  1  0  0  0  0
 14  9  1  0  0  0  0
M  END
$$$$
