butane_opt
 OpenBabel08242015403D

 14 13  0  0  0  0  0  0  0  0999 V2000
   -3.9627    0.2730    0.0259 C   0  0  0  0  0  0  0  0  0  0  0  0
   -2.6937   -0.6320    0.0500 C   0  0  0  0  0  0  0  0  0  0  0  0
   -4.8640   -0.3067   -0.0304 H   0  0  0  0  0  0  0  0  0  0  0  0
   -3.9750    0.8763   -0.8851 H   0  0  0  0  0  0  0  0  0  0  0  0
   -4.0001    0.9620    0.8893 H   0  0  0  0  0  0  0  0  0  0  0  0
   -1.3901    0.1895   -0.0074 C   0  0  0  0  0  0  0  0  0  0  0  0
   -2.7804   -1.3344   -0.8277 H   0  0  0  0  0  0  0  0  0  0  0  0
   -2.6576   -1.2404    0.9134 H   0  0  0  0  0  0  0  0  0  0  0  0
   -0.1571   -0.6861    0.0406 C   0  0  0  0  0  0  0  0  0  0  0  0
   -1.3701    0.8285    0.8185 H   0  0  0  0  0  0  0  0  0  0  0  0
   -1.3630    0.8192   -0.8758 H   0  0  0  0  0  0  0  0  0  0  0  0
   -0.1742   -1.2902    0.9033 H   0  0  0  0  0  0  0  0  0  0  0  0
    0.7400   -0.1140    0.0617 H   0  0  0  0  0  0  0  0  0  0  0  0
   -0.1328   -1.4050   -0.8465 H   0  0  0  0  0  0  0  0  0  0  0  0
  1  2  1  0  0  0  0
  1  5  1  0  0  0  0
  2  8  1  0  0  0  0
  3  1  1  0  0  0  0
  4  1  1  0  0  0  0
  6  9  1  0  0  0  0
  6  2  1  0  0  0  0
  6 10  1  0  0  0  0
  7  2  1  0  0  0  0
  9 13  1  0  0  0  0
  9 12  1  0  0  0  0
 11  6  1  0  0  0  0
 14  9  1  0  0  0  0
M  END
$$$$
