14
butane_opt
C  -3.929969   0.272604  -0.012786
C  -2.697363  -0.629580   0.080541
H  -4.823475  -0.299562  -0.060589
H  -3.967480   0.925490  -0.943781
H  -4.040922   0.941352   0.820345
C  -1.410084   0.167540   0.048398
H  -2.634691  -1.300423  -0.772253
H  -2.727040  -1.265337   0.963542
C  -0.170888  -0.679840   0.003877
H  -1.382687   0.873893   0.941327
H  -1.394946   0.789735  -0.843519
H  -0.065688  -1.296717   0.885442
H   0.759010  -0.030926  -0.104587
H  -0.252112  -1.373013  -0.890764
