butane_opt
 OpenBabel08242015403D

 14 13  0  0  0  0  0  0  0  0999 V2000
   -3.9403    0.2799    0.0145 C   0  0  0  0  0  0  0  0  0  0  0  0
   -2.7017   -0.6270    0.0381 C   0  0  0  0  0  0  0  0  0  0  0  0
   -4.8364   -0.3011    0.1657 H   0  0  0  0  0  0  0  0  0  0  0  0
   -4.0218    1.0249   -0.9798 H   0  0  0  0  0  0  0  0  0  0  0  0
   -3.8950    0.8137    0.7720 H   0  0  0  0  0  0  0  0  0  0  0  0
   -1.3996    0.1676    0.0362 C   0  0  0  0  0  0  0  0  0  0  0  0
   -2.6684   -1.3383   -0.8539 H   0  0  0  0  0  0  0  0  0  0  0  0
   -2.7321   -1.2281    0.9258 H   0  0  0  0  0  0  0  0  0  0  0  0
   -0.1691   -0.6907    0.0214 C   0  0  0  0  0  0  0  0  0  0  0  0
   -1.3967    0.8478    0.8655 H   0  0  0  0  0  0  0  0  0  0  0  0
   -1.3917    0.7795   -0.8611 H   0  0  0  0  0  0  0  0  0  0  0  0
   -0.1762   -1.2190    0.8885 H   0  0  0  0  0  0  0  0  0  0  0  0
    0.7880   -0.0355    0.0361 H   0  0  0  0  0  0  0  0  0  0  0  0
   -0.1717   -1.3616   -0.8569 H   0  0  0  0  0  0  0  0  0  0  0  0
  1  2  1  0  0  0  0
  1  3  1  0  0  0  0
  1  5  1  0  0  0  0
  2  8  1  0  0  0  0
  4  1  1  0  0  0  0
  6  2  1  0  0  0  0
  6 10  1  0  0  0  0
  7  2  1  0  0  0  0
  9 13  1  0  0  0  0
  9  6  1  0  0  0  0
  9 12  1  0  0  0  0
 11  6  1  0  0  0  0
 14  9  1  0  0  0  0
M  END
$$$$
