butane_opt
 OpenBabel08242015403D

 14 13  0  0  0  0  0  0  0  0999 V2000
   -3.9352    0.2659    0.0501 C   0  0  0  0  0  0  0  0  0  0  0  0
   -2.6879   -0.6116    0.0106 C   0  0  0  0  0  0  0  0  0  0  0  0
   -4.8659   -0.3324    0.0534 H   0  0  0  0  0  0  0  0  0  0  0  0
   -4.0024    0.8427   -0.7916 H   0  0  0  0  0  0  0  0  0  0  0  0
   -3.9413    0.9675    0.9417 H   0  0  0  0  0  0  0  0  0  0  0  0
   -1.4124    0.1669   -0.0446 C   0  0  0  0  0  0  0  0  0  0  0  0
   -2.7324   -1.2560   -0.8353 H   0  0  0  0  0  0  0  0  0  0  0  0
   -2.7093   -1.2430    0.9316 H   0  0  0  0  0  0  0  0  0  0  0  0
   -0.1667   -0.6907    0.0681 C   0  0  0  0  0  0  0  0  0  0  0  0
   -1.4523    0.8590    0.8010 H   0  0  0  0  0  0  0  0  0  0  0  0
   -1.3580    0.8002   -0.9534 H   0  0  0  0  0  0  0  0  0  0  0  0
   -0.1871   -1.2230    0.9214 H   0  0  0  0  0  0  0  0  0  0  0  0
    0.7709   -0.0839    0.1599 H   0  0  0  0  0  0  0  0  0  0  0  0
   -0.1185   -1.3741   -0.7989 H   0  0  0  0  0  0  0  0  0  0  0  0
  1  3  1  0  0  0  0
  1  5  1  0  0  0  0
  2  1  1  0  0  0  0
  2  8  1  0  0  0  0
  4  1  1  0  0  0  0
  6  2  1  0  0  0  0
  6  9  1  0  0  0  0
  6 10  1  0  0  0  0
  7  2  1  0  0  0  0
  9 13  1  0  0  0  0
  9 12  1  0  0  0  0
 11  6  1  0  0  0  0
 14  9  1  0  0  0  0
M  END
$$$$
