14
butane_opt
C  -3.950382   0.250664   0.011582
C  -2.711748  -0.600668   0.028255
H  -4.842666  -0.320888   0.174777
H  -4.013518   0.958102  -0.939885
H  -3.883312   0.812030   0.821490
C  -1.406516   0.203911   0.022260
H  -2.769038  -1.223918  -0.804093
H  -2.712587  -1.253146   0.922758
C  -0.145915  -0.707552   0.026274
H  -1.390202   0.880508   0.901137
H  -1.370987   0.781824  -0.850912
H  -0.100907  -1.297748   0.916287
H   0.776982  -0.120735   0.082581
H  -0.143657  -1.437940  -0.859687
