14
butane_opt
C  -3.946979   0.264786  -0.009279
C  -2.714810  -0.612574   0.046647
H  -4.891648  -0.369520   0.012446
H  -3.945867   0.897151  -0.930980
H  -3.980157   0.903872   0.827582
C  -1.402416   0.199484   0.059344
H  -2.681769  -1.278989  -0.762861
H  -2.725640  -1.280608   0.979476
C  -0.149859  -0.702531   0.008338
H  -1.347839   0.887736   0.916386
H  -1.407518   0.791374  -0.787497
H  -0.008785  -1.373399   0.927567
H   0.736744  -0.098163  -0.183149
H  -0.198608  -1.340695  -0.821468
