butane_opt
 OpenBabel08242015403D

 14 13  0  0  0  0  0  0  0  0999 V2000
   -3.9290    0.2631   -0.0011 C   0  0  0  0  0  0  0  0  0  0  0  0
   -2.7002   -0.6121    0.0798 C   0  0  0  0  0  0  0  0  0  0  0  0
   -4.8199   -0.3211    0.0379 H   0  0  0  0  0  0  0  0  0  0  0  0
   -3.9408    0.9254   -0.9532 H   0  0  0  0  0  0  0  0  0  0  0  0
   -3.9907    0.8978    0.8108 H   0  0  0  0  0  0  0  0  0  0  0  0
   -1.4112    0.1789    0.0178 C   0  0  0  0  0  0  0  0  0  0  0  0
   -2.7034   -1.3165   -0.7559 H   0  0  0  0  0  0  0  0  0  0  0  0
   -2.7015   -1.2595    0.9733 H   0  0  0  0  0  0  0  0  0  0  0  0
   -0.1706   -0.6948    0.0090 C   0  0  0  0  0  0  0  0  0  0  0  0
   -1.4210    0.8646    0.8765 H   0  0  0  0  0  0  0  0  0  0  0  0
   -1.3999    0.8193   -0.8882 H   0  0  0  0  0  0  0  0  0  0  0  0
   -0.1571   -1.1592    0.7898 H   0  0  0  0  0  0  0  0  0  0  0  0
    0.7493   -0.0698    0.1724 H   0  0  0  0  0  0  0  0  0  0  0  0
   -0.1107   -1.4681   -0.9073 H   0  0  0  0  0  0  0  0  0  0  0  0
  1  3  1  0  0  0  0
  1  2  1  0  0  0  0
  1  5  1  0  0  0  0
  2  8  1  0  0  0  0
  4  1  1  0  0  0  0
  6  2  1  0  0  0  0
  6 10  1  0  0  0  0
  7  2  1  0  0  0  0
  9  6  1  0  0  0  0
  9 13  1  0  0  0  0
  9 12  1  0  0  0  0
 11  6  1  0  0  0  0
 14  9  1  0  0  0  0
M  END
$$$$
