butane_opt
 OpenBabel08242015403D

 14 13  0  0  0  0  0  0  0  0999 V2000
   -3.9442    0.2681   -0.0122 C   0  0  0  0  0  0  0  0  0  0  0  0
   -2.7009   -0.6084    0.0620 C   0  0  0  0  0  0  0  0  0  0  0  0
   -4.9010   -0.3571    0.1593 H   0  0  0  0  0  0  0  0  0  0  0  0
   -4.0027    0.9801   -0.9827 H   0  0  0  0  0  0  0  0  0  0  0  0
   -3.9338    0.7984    0.7592 H   0  0  0  0  0  0  0  0  0  0  0  0
   -1.3994    0.1898    0.0434 C   0  0  0  0  0  0  0  0  0  0  0  0
   -2.7095   -1.3117   -0.7925 H   0  0  0  0  0  0  0  0  0  0  0  0
   -2.7536   -1.2716    0.9694 H   0  0  0  0  0  0  0  0  0  0  0  0
   -0.1591   -0.6984   -0.0040 C   0  0  0  0  0  0  0  0  0  0  0  0
   -1.3565    0.9344    0.9640 H   0  0  0  0  0  0  0  0  0  0  0  0
   -1.3791    0.7591   -0.7845 H   0  0  0  0  0  0  0  0  0  0  0  0
   -0.1322   -1.2941    0.8880 H   0  0  0  0  0  0  0  0  0  0  0  0
    0.7361   -0.1287    0.0403 H   0  0  0  0  0  0  0  0  0  0  0  0
   -0.1418   -1.3944   -0.8657 H   0  0  0  0  0  0  0  0  0  0  0  0
  1  2  1  0  0  0  0
  1  3  1  0  0  0  0
  1  5  1  0  0  0  0
  2  8  1  0  0  0  0
  4  1  1  0  0  0  0
  6  2  1  0  0  0  0
  6 10  1  0  0  0  0
  7  2  1  0  0  0  0
  9 13  1  0  0  0  0
  9  6  1  0  0  0  0
  9 12  1  0  0  0  0
 11  6  1  0  0  0  0
 14  9  1  0  0  0  0
M  END
$$$$
