butane_opt
 OpenBabel08242015403D

 14 13  0  0  0  0  0  0  0  0999 V2000
   -3.9412    0.2699   -0.0014 C   0  0  0  0  0  0  0  0  0  0  0  0
   -2.6981   -0.6190    0.0561 C   0  0  0  0  0  0  0  0  0  0  0  0
   -4.8460   -0.3273    0.1475 H   0  0  0  0  0  0  0  0  0  0  0  0
   -3.9965    0.9903   -0.9653 H   0  0  0  0  0  0  0  0  0  0  0  0
   -3.9901    0.8171    0.7468 H   0  0  0  0  0  0  0  0  0  0  0  0
   -1.4012    0.1718    0.0404 C   0  0  0  0  0  0  0  0  0  0  0  0
   -2.7211   -1.2815   -0.7699 H   0  0  0  0  0  0  0  0  0  0  0  0
   -2.6698   -1.2326    0.9169 H   0  0  0  0  0  0  0  0  0  0  0  0
   -0.1632   -0.6900    0.0123 C   0  0  0  0  0  0  0  0  0  0  0  0
   -1.4087    0.8859    0.9046 H   0  0  0  0  0  0  0  0  0  0  0  0
   -1.4028    0.7960   -0.8552 H   0  0  0  0  0  0  0  0  0  0  0  0
   -0.1592   -1.2063    0.8372 H   0  0  0  0  0  0  0  0  0  0  0  0
    0.7773   -0.0763    0.0483 H   0  0  0  0  0  0  0  0  0  0  0  0
   -0.1634   -1.4259   -0.8823 H   0  0  0  0  0  0  0  0  0  0  0  0
  1  2  1  0  0  0  0
  1  3  1  0  0  0  0
  1  5  1  0  0  0  0
  2  8  1  0  0  0  0
  4  1  1  0  0  0  0
  6  2  1  0  0  0  0
  6 10  1  0  0  0  0
  7  2  1  0  0  0  0
  9  6  1  0  0  0  0
  9 13  1  0  0  0  0
  9 12  1  0  0  0  0
 11  6  1  0  0  0  0
 14  9  1  0  0  0  0
M  END
$$$$
