14
butane_opt
C  -3.945445   0.272579  -0.024929
C  -2.684770  -0.618310   0.080194
H  -4.817088  -0.314742  -0.036042
H  -3.955046   0.827120  -0.861894
H  -4.019302   0.961622   0.849112
C  -1.408875   0.167201   0.044606
H  -2.633081  -1.245208  -0.738043
H  -2.741146  -1.271462   1.012729
C  -0.170997  -0.684541  -0.002425
H  -1.374717   0.855965   0.916209
H  -1.393138   0.765809  -0.810987
H  -0.145535  -1.294419   0.876680
H   0.789362  -0.042415  -0.066093
H  -0.215781  -1.351847  -0.869152
