14
butane_opt
C  -3.934189   0.256477  -0.005391
C  -2.694630  -0.613971   0.063521
H  -4.869160  -0.351853   0.072812
H  -3.923921   0.947401  -0.974973
H  -3.919340   0.869352   0.823327
C  -1.423763   0.193950   0.029884
H  -2.695740  -1.212979  -0.731614
H  -2.707511  -1.295582   1.017775
C  -0.166400  -0.697786   0.012550
H  -1.377601   0.890496   0.900893
H  -1.377616   0.824642  -0.868257
H  -0.150523  -1.158464   0.821538
H   0.721103  -0.116400   0.104142
H  -0.094091  -1.542321  -0.962153
