butane_opt
 OpenBabel08242015403D

 14 13  0  0  0  0  0  0  0  0999 V2000
   -3.9433    0.2687    0.0465 C   0  0  0  0  0  0  0  0  0  0  0  0
   -2.6817   -0.6208   -0.0092 C   0  0  0  0  0  0  0  0  0  0  0  0
   -4.8294   -0.3074    0.1780 H   0  0  0  0  0  0  0  0  0  0  0  0
   -4.0758    0.8763   -0.8318 H   0  0  0  0  0  0  0  0  0  0  0  0
   -3.8741    0.9169    0.8714 H   0  0  0  0  0  0  0  0  0  0  0  0
   -1.4057    0.1760   -0.0200 C   0  0  0  0  0  0  0  0  0  0  0  0
   -2.7661   -1.3021   -0.8784 H   0  0  0  0  0  0  0  0  0  0  0  0
   -2.6502   -1.2452    0.8934 H   0  0  0  0  0  0  0  0  0  0  0  0
   -0.1742   -0.6803    0.0705 C   0  0  0  0  0  0  0  0  0  0  0  0
   -1.4213    0.8721    0.8343 H   0  0  0  0  0  0  0  0  0  0  0  0
   -1.3325    0.8016   -0.9161 H   0  0  0  0  0  0  0  0  0  0  0  0
   -0.1974   -1.3295    0.9872 H   0  0  0  0  0  0  0  0  0  0  0  0
    0.7237   -0.1205    0.0241 H   0  0  0  0  0  0  0  0  0  0  0  0
   -0.1413   -1.3576   -0.7831 H   0  0  0  0  0  0  0  0  0  0  0  0
  1  3  1  0  0  0  0
  1  5  1  0  0  0  0
  2  1  1  0  0  0  0
  2  8  1  0  0  0  0
  4  1  1  0  0  0  0
  6  2  1  0  0  0  0
  6  9  1  0  0  0  0
  6 10  1  0  0  0  0
  7  2  1  0  0  0  0
  9 12  1  0  0  0  0
 11  6  1  0  0  0  0
 13  9  1  0  0  0  0
 14  9  1  0  0  0  0
M  END
$$$$
