butane_opt
 OpenBabel08242015403D

 14 13  0  0  0  0  0  0  0  0999 V2000
   -3.9262    0.2588    0.0503 C   0  0  0  0  0  0  0  0  0  0  0  0
   -2.7020   -0.6053    0.0130 C   0  0  0  0  0  0  0  0  0  0  0  0
   -4.8845   -0.3660    0.0785 H   0  0  0  0  0  0  0  0  0  0  0  0
   -3.9933    0.8476   -0.8389 H   0  0  0  0  0  0  0  0  0  0  0  0
   -3.9323    0.9477    0.9267 H   0  0  0  0  0  0  0  0  0  0  0  0
   -1.4050    0.1988   -0.0324 C   0  0  0  0  0  0  0  0  0  0  0  0
   -2.7765   -1.3382   -0.8537 H   0  0  0  0  0  0  0  0  0  0  0  0
   -2.7121   -1.2104    0.8820 H   0  0  0  0  0  0  0  0  0  0  0  0
   -0.1609   -0.7073    0.0684 C   0  0  0  0  0  0  0  0  0  0  0  0
   -1.4814    0.8301    0.7827 H   0  0  0  0  0  0  0  0  0  0  0  0
   -1.3611    0.8788   -0.9649 H   0  0  0  0  0  0  0  0  0  0  0  0
   -0.1880   -1.2750    0.9561 H   0  0  0  0  0  0  0  0  0  0  0  0
    0.7443   -0.0967    0.1044 H   0  0  0  0  0  0  0  0  0  0  0  0
   -0.1018   -1.4354   -0.8320 H   0  0  0  0  0  0  0  0  0  0  0  0
  1  3  1  0  0  0  0
  1  5  1  0  0  0  0
  2  1  1  0  0  0  0
  2  8  1  0  0  0  0
  4  1  1  0  0  0  0
  6  2  1  0  0  0  0
  6  9  1  0  0  0  0
  6 10  1  0  0  0  0
  7  2  1  0  0  0  0
  9 13  1  0  0  0  0
  9 12  1  0  0  0  0
 11  6  1  0  0  0  0
 14  9  1  0  0  0  0
M  END
$$$$
