14
butane_opt
C  -3.934939   0.260415   0.026662
C  -2.707536  -0.607373   0.020855
H  -4.840491  -0.351507   0.031644
H  -3.968985   0.803007  -0.806841
H  -3.961763   0.961282   0.888261
C  -1.401040   0.194518   0.001984
H  -2.708778  -1.280328  -0.843604
H  -2.728329  -1.231606   0.896367
C  -0.165008  -0.698876   0.048488
H  -1.415233   0.877813   0.862217
H  -1.394812   0.789138  -0.875906
H  -0.048551  -1.402714   0.999406
H   0.713492  -0.129566  -0.107544
H  -0.168199  -1.292764  -0.763337
