14
butane_opt
C  -3.945372   0.279162   0.034633
C  -2.687425  -0.644013   0.027769
H  -4.863968  -0.303658  -0.038707
H  -3.954083   0.868519  -0.842303
H  -3.985553   0.961419   0.927251
C  -1.403864   0.176387   0.002483
H  -2.680151  -1.337401  -0.838570
H  -2.688229  -1.192348   0.868447
C  -0.167515  -0.677207   0.040637
H  -1.377807   0.843334   0.833386
H  -1.410638   0.823037  -0.913079
H  -0.159648  -1.379157   1.009010
H   0.714744  -0.084588  -0.044232
H  -0.172450  -1.286924  -0.776652
