14
butane_opt
C  -3.959391   0.276069   0.043552
C  -2.695666  -0.636469   0.022500
H  -4.865791  -0.293387   0.062927
H  -4.007471   0.868449  -0.854837
H  -4.013187   0.999134   0.920216
C  -1.381268   0.181264  -0.034022
H  -2.737632  -1.313915  -0.849065
H  -2.694841  -1.272979   0.926505
C  -0.170996  -0.683361   0.059717
H  -1.394881   0.857414   0.835489
H  -1.347744   0.796935  -0.915507
H  -0.174953  -1.275167   0.939038
H   0.755367  -0.086023   0.102048
H  -0.059523  -1.399134  -0.828138
