butane_opt
 OpenBabel08242015403D

 14 13  0  0  0  0  0  0  0  0999 V2000
   -3.9337    0.2702    0.0370 C   0  0  0  0  0  0  0  0  0  0  0  0
   -2.6927   -0.6257    0.0167 C   0  0  0  0  0  0  0  0  0  0  0  0
   -4.8565   -0.3240    0.1113 H   0  0  0  0  0  0  0  0  0  0  0  0
   -4.0168    0.9064   -0.8859 H   0  0  0  0  0  0  0  0  0  0  0  0
   -3.9521    0.9272    0.8877 H   0  0  0  0  0  0  0  0  0  0  0  0
   -1.4116    0.1746   -0.0125 C   0  0  0  0  0  0  0  0  0  0  0  0
   -2.6924   -1.2711   -0.8102 H   0  0  0  0  0  0  0  0  0  0  0  0
   -2.6434   -1.3033    0.9041 H   0  0  0  0  0  0  0  0  0  0  0  0
   -0.1753   -0.6832    0.0499 C   0  0  0  0  0  0  0  0  0  0  0  0
   -1.3677    0.8709    0.8507 H   0  0  0  0  0  0  0  0  0  0  0  0
   -1.3813    0.8305   -0.9247 H   0  0  0  0  0  0  0  0  0  0  0  0
   -0.1853   -1.2497    0.9250 H   0  0  0  0  0  0  0  0  0  0  0  0
    0.7207   -0.0788    0.1384 H   0  0  0  0  0  0  0  0  0  0  0  0
   -0.0905   -1.4150   -0.8532 H   0  0  0  0  0  0  0  0  0  0  0  0
  1  3  1  0  0  0  0
  1  5  1  0  0  0  0
  2  1  1  0  0  0  0
  2  8  1  0  0  0  0
  4  1  1  0  0  0  0
  6  2  1  0  0  0  0
  6  9  1  0  0  0  0
  6 10  1  0  0  0  0
  7  2  1  0  0  0  0
  9 13  1  0  0  0  0
  9 12  1  0  0  0  0
 11  6  1  0  0  0  0
 14  9  1  0  0  0  0
M  END
$$$$
