14
butane_opt
C  -3.945866   0.254106   0.042197
C  -2.686841  -0.605802   0.009230
H  -4.859484  -0.327950   0.010489
H  -3.995546   0.807207  -0.797854
H  -3.880589   1.021532   0.956603
C  -1.411215   0.178527  -0.016769
H  -2.739457  -1.272481  -0.841876
H  -2.717031  -1.202413   0.850735
C  -0.161833  -0.694770   0.059735
H  -1.458660   0.864576   0.823072
H  -1.376938   0.813885  -0.920008
H  -0.134339  -1.403053   1.025212
H   0.762455  -0.086315  -0.050720
H  -0.159029  -1.271345  -0.735877
