butane_opt
 OpenBabel08242015403D

 14 13  0  0  0  0  0  0  0  0999 V2000
   -3.9512    0.2799    0.0327 C   0  0  0  0  0  0  0  0  0  0  0  0
   -2.7026   -0.6296    0.0259 C   0  0  0  0  0  0  0  0  0  0  0  0
   -4.8443   -0.2968   -0.0349 H   0  0  0  0  0  0  0  0  0  0  0  0
   -3.9783    0.7672   -0.7701 H   0  0  0  0  0  0  0  0  0  0  0  0
   -4.0297    1.0255    0.9416 H   0  0  0  0  0  0  0  0  0  0  0  0
   -1.3973    0.1748   -0.0160 C   0  0  0  0  0  0  0  0  0  0  0  0
   -2.7340   -1.3142   -0.8371 H   0  0  0  0  0  0  0  0  0  0  0  0
   -2.6868   -1.2647    0.9224 H   0  0  0  0  0  0  0  0  0  0  0  0
   -0.1633   -0.6807    0.0440 C   0  0  0  0  0  0  0  0  0  0  0  0
   -1.3171    0.8408    0.8352 H   0  0  0  0  0  0  0  0  0  0  0  0
   -1.3418    0.8304   -0.8935 H   0  0  0  0  0  0  0  0  0  0  0  0
   -0.1558   -1.3812    1.0099 H   0  0  0  0  0  0  0  0  0  0  0  0
    0.7472   -0.1170    0.0159 H   0  0  0  0  0  0  0  0  0  0  0  0
   -0.1125   -1.2971   -0.7696 H   0  0  0  0  0  0  0  0  0  0  0  0
  1  5  1  0  0  0  0
  2  1  1  0  0  0  0
  2  8  1  0  0  0  0
  3  1  1  0  0  0  0
  4  1  1  0  0  0  0
  6  2  1  0  0  0  0
  6  9  1  0  0  0  0
  6 10  1  0  0  0  0
  7  2  1  0  0  0  0
  9 12  1  0  0  0  0
 11  6  1  0  0  0  0
 13  9  1  0  0  0  0
 14  9  1  0  0  0  0
M  END
$$$$
