14
butane_opt
C  -3.949431   0.251374   0.052814
C  -2.702998  -0.606402   0.003127
H  -4.855163  -0.348170   0.139909
H  -3.977756   0.873333  -0.848668
H  -3.931620   0.893511   0.938722
C  -1.400437   0.203632  -0.041801
H  -2.760535  -1.273994  -0.857421
H  -2.693347  -1.225756   0.881417
C  -0.156336  -0.702975   0.069483
H  -1.450796   0.900460   0.803272
H  -1.374757   0.806767  -0.909920
H  -0.143345  -1.281138   0.939296
H   0.697736  -0.179702   0.136232
H  -0.017437  -1.389883  -0.789116
