14
butane_opt
C  -3.957447   0.269075   0.053285
C  -2.703955  -0.618582  -0.015865
H  -4.883766  -0.316881   0.172463
H  -4.082832   0.891217  -0.838842
H  -3.923968   0.871486   0.889407
C  -1.400887   0.183458  -0.018560
H  -2.748245  -1.303404  -0.894706
H  -2.622803  -1.230353   0.852928
C  -0.150825  -0.687721   0.068544
H  -1.424616   0.847365   0.834163
H  -1.314356   0.800123  -0.898418
H  -0.144017  -1.351700   1.017220
H   0.748774  -0.098765  -0.002351
H  -0.070641  -1.335386  -0.752029
