butane_opt
 OpenBabel08242015403D

 14 13  0  0  0  0  0  0  0  0999 V2000
   -3.9358    0.2641    0.0310 C   0  0  0  0  0  0  0  0  0  0  0  0
   -2.6941   -0.6186    0.0314 C   0  0  0  0  0  0  0  0  0  0  0  0
   -4.8012   -0.3004   -0.0507 H   0  0  0  0  0  0  0  0  0  0  0  0
   -3.9487    0.7978   -0.7969 H   0  0  0  0  0  0  0  0  0  0  0  0
   -4.0229    1.0547    0.9660 H   0  0  0  0  0  0  0  0  0  0  0  0
   -1.4055    0.1779   -0.0113 C   0  0  0  0  0  0  0  0  0  0  0  0
   -2.7388   -1.3058   -0.8621 H   0  0  0  0  0  0  0  0  0  0  0  0
   -2.6438   -1.2715    0.9387 H   0  0  0  0  0  0  0  0  0  0  0  0
   -0.1773   -0.6908    0.0502 C   0  0  0  0  0  0  0  0  0  0  0  0
   -1.4218    0.7992    0.8006 H   0  0  0  0  0  0  0  0  0  0  0  0
   -1.3719    0.8672   -0.9401 H   0  0  0  0  0  0  0  0  0  0  0  0
   -0.1394   -1.3061    0.9628 H   0  0  0  0  0  0  0  0  0  0  0  0
    0.7777   -0.0387    0.0161 H   0  0  0  0  0  0  0  0  0  0  0  0
   -0.1632   -1.3540   -0.8014 H   0  0  0  0  0  0  0  0  0  0  0  0
  1  2  1  0  0  0  0
  1  5  1  0  0  0  0
  2  8  1  0  0  0  0
  3  1  1  0  0  0  0
  4  1  1  0  0  0  0
  6  2  1  0  0  0  0
  6  9  1  0  0  0  0
  6 10  1  0  0  0  0
  7  2  1  0  0  0  0
  9 12  1  0  0  0  0
 11  6  1  0  0  0  0
 13  9  1  0  0  0  0
 14  9  1  0  0  0  0
M  END
$$$$
