14
butane_opt
C  -3.933887   0.257093  -0.009926
C  -2.701255  -0.598968   0.069418
H  -4.900121  -0.392342   0.010287
H  -3.876608   0.945673  -0.937854
H  -3.933437   0.844200   0.784781
C  -1.410854   0.191605   0.055571
H  -2.685012  -1.274272  -0.790139
H  -2.768924  -1.183010   0.928004
C  -0.169545  -0.707422  -0.002519
H  -1.353898   0.893655   0.942669
H  -1.439545   0.787897  -0.818705
H  -0.061224  -1.356568   0.909040
H   0.745697  -0.108117  -0.092850
H  -0.166355  -1.340839  -0.847306
