butane_opt
 OpenBabel08242015403D

 14 13  0  0  0  0  0  0  0  0999 V2000
   -3.9378    0.2843    0.0362 C   0  0  0  0  0  0  0  0  0  0  0  0
   -2.6937   -0.6382    0.0318 C   0  0  0  0  0  0  0  0  0  0  0  0
   -4.8529   -0.3145   -0.0982 H   0  0  0  0  0  0  0  0  0  0  0  0
   -3.9204    0.7944   -0.7901 H   0  0  0  0  0  0  0  0  0  0  0  0
   -3.9887    1.0374    0.9493 H   0  0  0  0  0  0  0  0  0  0  0  0
   -1.3963    0.1728   -0.0095 C   0  0  0  0  0  0  0  0  0  0  0  0
   -2.6880   -1.2983   -0.8211 H   0  0  0  0  0  0  0  0  0  0  0  0
   -2.7137   -1.2651    0.9111 H   0  0  0  0  0  0  0  0  0  0  0  0
   -0.1865   -0.6815    0.0474 C   0  0  0  0  0  0  0  0  0  0  0  0
   -1.3994    0.7961    0.7964 H   0  0  0  0  0  0  0  0  0  0  0  0
   -1.3691    0.8675   -0.9330 H   0  0  0  0  0  0  0  0  0  0  0  0
   -0.1246   -1.3258    0.9688 H   0  0  0  0  0  0  0  0  0  0  0  0
    0.7447   -0.0423    0.0013 H   0  0  0  0  0  0  0  0  0  0  0  0
   -0.1559   -1.3689   -0.8044 H   0  0  0  0  0  0  0  0  0  0  0  0
  1  5  1  0  0  0  0
  2  1  1  0  0  0  0
  2  8  1  0  0  0  0
  3  1  1  0  0  0  0
  4  1  1  0  0  0  0
  6  2  1  0  0  0  0
  6  9  1  0  0  0  0
  6 10  1  0  0  0  0
  7  2  1  0  0  0  0
  9 12  1  0  0  0  0
 11  6  1  0  0  0  0
 13  9  1  0  0  0  0
 14  9  1  0  0  0  0
M  END
$$$$
