butane_opt
 OpenBabel08242015403D

 14 13  0  0  0  0  0  0  0  0999 V2000
   -3.9372    0.2546    0.0352 C   0  0  0  0  0  0  0  0  0  0  0  0
   -2.7040   -0.5972    0.0037 C   0  0  0  0  0  0  0  0  0  0  0  0
   -4.8782   -0.3552    0.1468 H   0  0  0  0  0  0  0  0  0  0  0  0
   -4.0032    0.9412   -0.9124 H   0  0  0  0  0  0  0  0  0  0  0  0
   -3.8682    0.8575    0.8768 H   0  0  0  0  0  0  0  0  0  0  0  0
   -1.4137    0.1850    0.0051 C   0  0  0  0  0  0  0  0  0  0  0  0
   -2.7226   -1.2827   -0.8406 H   0  0  0  0  0  0  0  0  0  0  0  0
   -2.7398   -1.2196    0.8891 H   0  0  0  0  0  0  0  0  0  0  0  0
   -0.1530   -0.7042    0.0498 C   0  0  0  0  0  0  0  0  0  0  0  0
   -1.3979    0.8937    0.8897 H   0  0  0  0  0  0  0  0  0  0  0  0
   -1.3588    0.8353   -0.8906 H   0  0  0  0  0  0  0  0  0  0  0  0
   -0.1169   -1.3549    0.9646 H   0  0  0  0  0  0  0  0  0  0  0  0
    0.7423   -0.1097    0.0084 H   0  0  0  0  0  0  0  0  0  0  0  0
   -0.1804   -1.3403   -0.8184 H   0  0  0  0  0  0  0  0  0  0  0  0
  1  3  1  0  0  0  0
  1  5  1  0  0  0  0
  2  6  1  0  0  0  0
  2  1  1  0  0  0  0
  2  8  1  0  0  0  0
  4  1  1  0  0  0  0
  6  9  1  0  0  0  0
  6 10  1  0  0  0  0
  7  2  1  0  0  0  0
  9 12  1  0  0  0  0
 11  6  1  0  0  0  0
 13  9  1  0  0  0  0
 14  9  1  0  0  0  0
M  END
$$$$
