butane_opt
 OpenBabel08242015403D

 14 13  0  0  0  0  0  0  0  0999 V2000
   -3.9596    0.2726    0.0107 C   0  0  0  0  0  0  0  0  0  0  0  0
   -2.6948   -0.6353    0.0400 C   0  0  0  0  0  0  0  0  0  0  0  0
   -4.8598   -0.2930    0.1444 H   0  0  0  0  0  0  0  0  0  0  0  0
   -4.0547    0.9619   -0.9334 H   0  0  0  0  0  0  0  0  0  0  0  0
   -3.9617    0.9099    0.8670 H   0  0  0  0  0  0  0  0  0  0  0  0
   -1.4012    0.1786    0.0214 C   0  0  0  0  0  0  0  0  0  0  0  0
   -2.7045   -1.2924   -0.8222 H   0  0  0  0  0  0  0  0  0  0  0  0
   -2.6851   -1.2533    0.9231 H   0  0  0  0  0  0  0  0  0  0  0  0
   -0.1473   -0.6874    0.0289 C   0  0  0  0  0  0  0  0  0  0  0  0
   -1.3678    0.7875    0.8270 H   0  0  0  0  0  0  0  0  0  0  0  0
   -1.3792    0.8384   -0.8994 H   0  0  0  0  0  0  0  0  0  0  0  0
   -0.1925   -1.2065    0.8647 H   0  0  0  0  0  0  0  0  0  0  0  0
    0.7764   -0.0641    0.1410 H   0  0  0  0  0  0  0  0  0  0  0  0
   -0.1539   -1.3998   -0.8912 H   0  0  0  0  0  0  0  0  0  0  0  0
  1  2  1  0  0  0  0
  1  3  1  0  0  0  0
  1  5  1  0  0  0  0
  2  8  1  0  0  0  0
  4  1  1  0  0  0  0
  6  9  1  0  0  0  0
  6  2  1  0  0  0  0
  6 10  1  0  0  0  0
  7  2  1  0  0  0  0
  9 13  1  0  0  0  0
  9 12  1  0  0  0  0
 11  6  1  0  0  0  0
 14  9  1  0  0  0  0
M  END
$$$$
