butane_opt
 OpenBabel08242015403D

 14 13  0  0  0  0  0  0  0  0999 V2000
   -3.9418    0.2652    0.0314 C   0  0  0  0  0  0  0  0  0  0  0  0
   -2.7089   -0.6098    0.0077 C   0  0  0  0  0  0  0  0  0  0  0  0
   -4.8871   -0.3376    0.1663 H   0  0  0  0  0  0  0  0  0  0  0  0
   -4.0055    0.9279   -0.8949 H   0  0  0  0  0  0  0  0  0  0  0  0
   -3.8948    0.8899    0.8818 H   0  0  0  0  0  0  0  0  0  0  0  0
   -1.4086    0.1877    0.0139 C   0  0  0  0  0  0  0  0  0  0  0  0
   -2.7245   -1.3360   -0.8955 H   0  0  0  0  0  0  0  0  0  0  0  0
   -2.7304   -1.2285    0.8726 H   0  0  0  0  0  0  0  0  0  0  0  0
   -0.1539   -0.7018    0.0514 C   0  0  0  0  0  0  0  0  0  0  0  0
   -1.3659    0.8346    0.8240 H   0  0  0  0  0  0  0  0  0  0  0  0
   -1.3749    0.8537   -0.8977 H   0  0  0  0  0  0  0  0  0  0  0  0
   -0.1226   -1.3518    0.9661 H   0  0  0  0  0  0  0  0  0  0  0  0
    0.7869   -0.0743   -0.0251 H   0  0  0  0  0  0  0  0  0  0  0  0
   -0.1463   -1.3411   -0.8046 H   0  0  0  0  0  0  0  0  0  0  0  0
  1  3  1  0  0  0  0
  1  5  1  0  0  0  0
  2  6  1  0  0  0  0
  2  1  1  0  0  0  0
  2  8  1  0  0  0  0
  4  1  1  0  0  0  0
  6  9  1  0  0  0  0
  6 10  1  0  0  0  0
  7  2  1  0  0  0  0
  9 12  1  0  0  0  0
 11  6  1  0  0  0  0
 13  9  1  0  0  0  0
 14  9  1  0  0  0  0
M  END
$$$$
