butane_opt
 OpenBabel08242015403D

 14 13  0  0  0  0  0  0  0  0999 V2000
   -3.9441    0.2783    0.0016 C   0  0  0  0  0  0  0  0  0  0  0  0
   -2.7050   -0.6291    0.0676 C   0  0  0  0  0  0  0  0  0  0  0  0
   -4.8378   -0.3081    0.0887 H   0  0  0  0  0  0  0  0  0  0  0  0
   -3.9542    0.9414   -0.9309 H   0  0  0  0  0  0  0  0  0  0  0  0
   -3.9894    0.9188    0.8157 H   0  0  0  0  0  0  0  0  0  0  0  0
   -1.4001    0.1631    0.0148 C   0  0  0  0  0  0  0  0  0  0  0  0
   -2.6860   -1.2712   -0.7718 H   0  0  0  0  0  0  0  0  0  0  0  0
   -2.7115   -1.2868    0.9998 H   0  0  0  0  0  0  0  0  0  0  0  0
   -0.1665   -0.6878    0.0082 C   0  0  0  0  0  0  0  0  0  0  0  0
   -1.3741    0.9073    0.8987 H   0  0  0  0  0  0  0  0  0  0  0  0
   -1.3929    0.7857   -0.8901 H   0  0  0  0  0  0  0  0  0  0  0  0
   -0.2446   -1.1708    0.8330 H   0  0  0  0  0  0  0  0  0  0  0  0
    0.8024   -0.0304    0.1771 H   0  0  0  0  0  0  0  0  0  0  0  0
   -0.0569   -1.4491   -0.9004 H   0  0  0  0  0  0  0  0  0  0  0  0
  1  2  1  0  0  0  0
  1  3  1  0  0  0  0
  1  5  1  0  0  0  0
  2  8  1  0  0  0  0
  4  1  1  0  0  0  0
  6  2  1  0  0  0  0
  6 10  1  0  0  0  0
  7  2  1  0  0  0  0
  9  6  1  0  0  0  0
  9 13  1  0  0  0  0
  9 12  1  0  0  0  0
 11  6  1  0  0  0  0
 14  9  1  0  0  0  0
M  END
$$$$
