14
butane_opt
C  -3.964419   0.274420   0.033758
C  -2.697330  -0.623666   0.014518
H  -4.854592  -0.312066   0.021861
H  -4.042087   0.844871  -0.811648
H  -3.940529   1.001887   0.925935
C  -1.402857   0.169493   0.000463
H  -2.711628  -1.378476  -0.880455
H  -2.692577  -1.206596   0.855465
C  -0.155876  -0.681079   0.052969
H  -1.369126   0.805502   0.841476
H  -1.334070   0.849821  -0.909504
H  -0.075975  -1.421500   1.043144
H   0.786282  -0.045664  -0.105975
H  -0.156922  -1.269137  -0.749951
