14
butane_opt
C  -3.945463   0.260552  -0.008370
C  -2.705634  -0.617025   0.076556
H  -4.865393  -0.348814  -0.109517
H  -3.929842   0.837693  -0.891242
H  -4.041394   0.963336   0.864425
C  -1.411248   0.197030   0.037739
H  -2.721266  -1.240742  -0.751881
H  -2.728393  -1.293533   0.992493
C  -0.151042  -0.695382   0.003224
H  -1.365230   0.900082   0.920279
H  -1.364433   0.813119  -0.866639
H  -0.041015  -1.334037   0.907145
H   0.728601  -0.136692  -0.032604
H  -0.133865  -1.382360  -0.903014
