14
butane_opt
C  -3.936138   0.280695  -0.007254
C  -2.692852  -0.628425   0.067438
H  -4.840826  -0.327289  -0.067063
H  -3.964373   0.796843  -0.845158
H  -3.998443   0.998130   0.888932
C  -1.402453   0.173725   0.019741
H  -2.685291  -1.253481  -0.737379
H  -2.735255  -1.290614   1.007877
C  -0.178124  -0.680035   0.016858
H  -1.307701   0.844782   0.875774
H  -1.411233   0.790972  -0.865102
H  -0.149175  -1.271054   0.892192
H   0.726626  -0.083934  -0.009882
H  -0.147728  -1.428146  -0.861102
