14
butane_opt
C  -3.956140   0.271982  -0.003703
C  -2.702387  -0.635486   0.067649
H  -4.872820  -0.314149   0.035642
H  -3.951107   0.973068  -0.938460
H  -4.005841   0.909318   0.812521
C  -1.389450   0.187597   0.026639
H  -2.674286  -1.248625  -0.720162
H  -2.733674  -1.327986   0.999083
C  -0.155325  -0.685851   0.008351
H  -1.380476   0.840764   0.874158
H  -1.390711   0.819153  -0.834409
H  -0.135326  -1.157295   0.813655
H   0.722771  -0.122562   0.150592
H  -0.160180  -1.508832  -0.957776
