14
butane_opt
C  -3.934728   0.254736  -0.010355
C  -2.705063  -0.599737   0.065734
H  -4.910322  -0.375229   0.007351
H  -3.871064   0.860136  -0.935379
H  -3.961290   0.925238   0.844592
C  -1.414267   0.191177   0.050077
H  -2.647896  -1.300880  -0.785626
H  -2.721288  -1.206751   0.956532
C  -0.165884  -0.706605  -0.002761
H  -1.369584   0.924071   0.935636
H  -1.429591   0.818914  -0.831513
H  -0.061602  -1.398903   0.932224
H   0.756369  -0.098460  -0.096520
H  -0.165253  -1.300146  -0.806646
