14
butane_opt
C  -3.958616   0.257291  -0.006888
C  -2.699588  -0.604632   0.068980
H  -4.844473  -0.313508   0.056840
H  -3.981540   0.863966  -0.914696
H  -3.943479   0.896064   0.864379
C  -1.402231   0.184581   0.017244
H  -2.726040  -1.233279  -0.761610
H  -2.778681  -1.272037   1.009065
C  -0.145453  -0.697764   0.012073
H  -1.406549   0.895333   0.881213
H  -1.400603   0.824407  -0.891359
H  -0.131673  -1.201938   0.849488
H   0.768672  -0.106951   0.147984
H  -0.111445  -1.498699  -0.908975
