butane_opt
 OpenBabel08242015403D

 14 13  0  0  0  0  0  0  0  0999 V2000
   -3.9631    0.2681   -0.0206 C   0  0  0  0  0  0  0  0  0  0  0  0
   -2.6940   -0.6342    0.0833 C   0  0  0  0  0  0  0  0  0  0  0  0
   -4.8078   -0.2612   -0.0822 H   0  0  0  0  0  0  0  0  0  0  0  0
   -3.9255    0.8424   -0.9066 H   0  0  0  0  0  0  0  0  0  0  0  0
   -4.0925    1.0100    0.9088 H   0  0  0  0  0  0  0  0  0  0  0  0
   -1.4026    0.1775    0.0398 C   0  0  0  0  0  0  0  0  0  0  0  0
   -2.6946   -1.2551   -0.7433 H   0  0  0  0  0  0  0  0  0  0  0  0
   -2.7208   -1.2945    1.0124 H   0  0  0  0  0  0  0  0  0  0  0  0
   -0.1563   -0.6818   -0.0064 C   0  0  0  0  0  0  0  0  0  0  0  0
   -1.2951    0.8907    0.9411 H   0  0  0  0  0  0  0  0  0  0  0  0
   -1.4184    0.7979   -0.8370 H   0  0  0  0  0  0  0  0  0  0  0  0
   -0.1248   -1.3302    0.9014 H   0  0  0  0  0  0  0  0  0  0  0  0
    0.7815   -0.0676   -0.0263 H   0  0  0  0  0  0  0  0  0  0  0  0
   -0.1404   -1.3513   -0.8723 H   0  0  0  0  0  0  0  0  0  0  0  0
  1  2  1  0  0  0  0
  1  5  1  0  0  0  0
  2  8  1  0  0  0  0
  3  1  1  0  0  0  0
  4  1  1  0  0  0  0
  6  2  1  0  0  0  0
  6 10  1  0  0  0  0
  7  2  1  0  0  0  0
  9  6  1  0  0  0  0
  9 12  1  0  0  0  0
 11  6  1  0  0  0  0
 13  9  1  0  0  0  0
 14  9  1  0  0  0  0
M  END
$$$$
