14
butane_opt
C  -3.936174   0.247926  -0.023075
C  -2.698758  -0.597697   0.094149
H  -4.833225  -0.308017  -0.058377
H  -3.869987   0.793260  -0.895618
H  -4.018340   0.936678   0.855985
C  -1.420072   0.195152   0.032693
H  -2.712364  -1.212593  -0.740619
H  -2.726615  -1.264514   1.014380
C  -0.155989  -0.704012  -0.006614
H  -1.341607   0.898529   0.917179
H  -1.466128   0.785221  -0.827210
H  -0.136727  -1.271234   0.870428
H   0.737731  -0.108624   0.033783
H  -0.122212  -1.423551  -0.893133
