14
butane_opt
C  -3.952449   0.271022  -0.017796
C  -2.696243  -0.630499   0.077949
H  -4.831452  -0.308563  -0.113301
H  -3.922354   0.817791  -0.865666
H  -4.070237   1.015215   0.900847
C  -1.398652   0.178667   0.038268
H  -2.678103  -1.221989  -0.696434
H  -2.696421  -1.326687   1.016497
C  -0.161122  -0.680879  -0.000371
H  -1.369432   0.848477   0.910653
H  -1.395021   0.796358  -0.849369
H  -0.109537  -1.265434   0.848285
H   0.708145  -0.117560  -0.023477
H  -0.157703  -1.368745  -0.865207
