14
butane_opt
C  -3.952398   0.253264   0.040296
C  -2.708435  -0.608151  -0.000038
H  -4.855616  -0.307019   0.152527
H  -4.048495   0.865223  -0.863428
H  -3.872924   0.916856   0.900182
C  -1.398638   0.203097  -0.015452
H  -2.787010  -1.272782  -0.874193
H  -2.675003  -1.247258   0.909822
C  -0.152749  -0.702439   0.065365
H  -1.403790   0.858362   0.833461
H  -1.325286   0.820753  -0.895448
H  -0.136354  -1.318299   0.960203
H   0.710245  -0.165461   0.025858
H  -0.075563  -1.375560  -0.801510
