butane_opt
 OpenBabel08242015403D

 14 13  0  0  0  0  0  0  0  0999 V2000
   -3.9534    0.2529   -0.0015 C   0  0  0  0  0  0  0  0  0  0  0  0
   -2.7090   -0.6000    0.0746 C   0  0  0  0  0  0  0  0  0  0  0  0
   -4.9026   -0.3541    0.0438 H   0  0  0  0  0  0  0  0  0  0  0  0
   -3.9242    0.9284   -0.9412 H   0  0  0  0  0  0  0  0  0  0  0  0
   -3.9950    0.8301    0.7988 H   0  0  0  0  0  0  0  0  0  0  0  0
   -1.4006    0.2046    0.0205 C   0  0  0  0  0  0  0  0  0  0  0  0
   -2.6845   -1.2898   -0.7841 H   0  0  0  0  0  0  0  0  0  0  0  0
   -2.7238   -1.2659    0.9993 H   0  0  0  0  0  0  0  0  0  0  0  0
   -0.1481   -0.7122    0.0092 C   0  0  0  0  0  0  0  0  0  0  0  0
   -1.3897    0.9196    0.8781 H   0  0  0  0  0  0  0  0  0  0  0  0
   -1.4098    0.8096   -0.8526 H   0  0  0  0  0  0  0  0  0  0  0  0
   -0.0946   -1.1901    0.8340 H   0  0  0  0  0  0  0  0  0  0  0  0
    0.7576   -0.1234    0.1301 H   0  0  0  0  0  0  0  0  0  0  0  0
   -0.1137   -1.4905   -0.9152 H   0  0  0  0  0  0  0  0  0  0  0  0
  1  3  1  0  0  0  0
  1  2  1  0  0  0  0
  1  5  1  0  0  0  0
  2  8  1  0  0  0  0
  4  1  1  0  0  0  0
  6  2  1  0  0  0  0
  6 10  1  0  0  0  0
  7  2  1  0  0  0  0
  9  6  1  0  0  0  0
  9 13  1  0  0  0  0
  9 12  1  0  0  0  0
 11  6  1  0  0  0  0
 14  9  1  0  0  0  0
M  END
$$$$
