14
butane_opt
C  -3.944918   0.253831  -0.022190
C  -2.702305  -0.606812   0.084184
H  -4.869657  -0.345450  -0.013077
H  -3.965546   0.844278  -0.873521
H  -4.033432   0.941949   0.864729
C  -1.402743   0.195007   0.036566
H  -2.711419  -1.233099  -0.750774
H  -2.750681  -1.252133   0.999378
C  -0.149084  -0.698639   0.004055
H  -1.381457   0.846691   0.859447
H  -1.466624   0.841380  -0.859087
H  -0.109042  -1.254458   0.862818
H   0.781612  -0.111658   0.051909
H  -0.123061  -1.478753  -0.935437
