butane_opt
 OpenBabel08242015403D

 14 13  0  0  0  0  0  0  0  0999 V2000
   -3.9449    0.2773    0.0047 C   0  0  0  0  0  0  0  0  0  0  0  0
   -2.6852   -0.6291    0.0495 C   0  0  0  0  0  0  0  0  0  0  0  0
   -4.8492   -0.3254    0.0883 H   0  0  0  0  0  0  0  0  0  0  0  0
   -3.9958    1.0052   -0.9420 H   0  0  0  0  0  0  0  0  0  0  0  0
   -3.9186    0.8479    0.7936 H   0  0  0  0  0  0  0  0  0  0  0  0
   -1.3998    0.1757    0.0402 C   0  0  0  0  0  0  0  0  0  0  0  0
   -2.7232   -1.3445   -0.8166 H   0  0  0  0  0  0  0  0  0  0  0  0
   -2.6898   -1.2431    0.9158 H   0  0  0  0  0  0  0  0  0  0  0  0
   -0.1839   -0.6868    0.0101 C   0  0  0  0  0  0  0  0  0  0  0  0
   -1.3292    0.8832    0.8996 H   0  0  0  0  0  0  0  0  0  0  0  0
   -1.3902    0.8027   -0.8625 H   0  0  0  0  0  0  0  0  0  0  0  0
   -0.1732   -1.3108    0.9284 H   0  0  0  0  0  0  0  0  0  0  0  0
    0.7571   -0.0573    0.0285 H   0  0  0  0  0  0  0  0  0  0  0  0
   -0.1540   -1.3700   -0.8609 H   0  0  0  0  0  0  0  0  0  0  0  0
  1  2  1  0  0  0  0
  1  3  1  0  0  0  0
  1  5  1  0  0  0  0
  2  8  1  0  0  0  0
  4  1  1  0  0  0  0
  6  2  1  0  0  0  0
  6 10  1  0  0  0  0
  7  2  1  0  0  0  0
  9 13  1  0  0  0  0
  9  6  1  0  0  0  0
  9 12  1  0  0  0  0
 11  6  1  0  0  0  0
 14  9  1  0  0  0  0
M  END
$$$$
