14
butane_opt
C  -3.932347   0.249387   0.032615
C  -2.698665  -0.604340   0.028869
H  -4.835908  -0.368007  -0.051318
H  -3.945654   0.813420  -0.833212
H  -3.975496   0.987221   0.935435
C  -1.409975   0.197298   0.006898
H  -2.697252  -1.291498  -0.847704
H  -2.750549  -1.173097   0.865440
C  -0.160871  -0.701821   0.043180
H  -1.431401   0.846512   0.812750
H  -1.421357   0.879002  -0.900986
H  -0.098521  -1.419973   1.008622
H   0.733675  -0.129378  -0.094775
H  -0.170184  -1.310154  -0.776059
