14
butane_opt
C  -3.944052   0.257386   0.014600
C  -2.715211  -0.613224   0.039654
H  -4.842545  -0.320538   0.063515
H  -3.954230   0.925691  -0.911612
H  -3.981267   0.854392   0.839662
C  -1.407433   0.197464   0.024031
H  -2.789976  -1.286675  -0.810449
H  -2.700075  -1.198384   0.900040
C  -0.151692  -0.703894   0.028513
H  -1.368246   0.869645   0.878845
H  -1.364490   0.858486  -0.865532
H  -0.080609  -1.298103   0.898278
H   0.756897  -0.151484  -0.016834
H  -0.079882  -1.378648  -0.832705
