butane_opt
 OpenBabel08242015403D

 14 13  0  0  0  0  0  0  0  0999 V2000
   -3.9227    0.2515    0.0106 C   0  0  0  0  0  0  0  0  0  0  0  0
   -2.7088   -0.5965    0.0570 C   0  0  0  0  0  0  0  0  0  0  0  0
   -4.8306   -0.3374    0.0361 H   0  0  0  0  0  0  0  0  0  0  0  0
   -3.8978    0.8498   -0.8524 H   0  0  0  0  0  0  0  0  0  0  0  0
   -3.9703    0.9279    0.8471 H   0  0  0  0  0  0  0  0  0  0  0  0
   -1.4088    0.1947    0.0076 C   0  0  0  0  0  0  0  0  0  0  0  0
   -2.7630   -1.2950   -0.8132 H   0  0  0  0  0  0  0  0  0  0  0  0
   -2.7280   -1.2335    0.9587 H   0  0  0  0  0  0  0  0  0  0  0  0
   -0.1686   -0.7059    0.0209 C   0  0  0  0  0  0  0  0  0  0  0  0
   -1.4066    0.8265    0.8609 H   0  0  0  0  0  0  0  0  0  0  0  0
   -1.4523    0.8790   -0.9065 H   0  0  0  0  0  0  0  0  0  0  0  0
   -0.1615   -1.2586    0.8853 H   0  0  0  0  0  0  0  0  0  0  0  0
    0.7450   -0.1136    0.1341 H   0  0  0  0  0  0  0  0  0  0  0  0
   -0.0567   -1.4446   -0.8660 H   0  0  0  0  0  0  0  0  0  0  0  0
  1  3  1  0  0  0  0
  1  2  1  0  0  0  0
  1  5  1  0  0  0  0
  2  8  1  0  0  0  0
  4  1  1  0  0  0  0
  6  9  1  0  0  0  0
  6  2  1  0  0  0  0
  6 10  1  0  0  0  0
  7  2  1  0  0  0  0
  9 13  1  0  0  0  0
  9 12  1  0  0  0  0
 11  6  1  0  0  0  0
 14  9  1  0  0  0  0
M  END
$$$$
