14
butane_opt
C  -3.937816   0.259712   0.017123
C  -2.701556  -0.598916   0.025476
H  -4.868706  -0.360205   0.149484
H  -3.966960   0.957858  -0.933560
H  -3.870738   0.859400   0.847472
C  -1.412652   0.179535   0.020413
H  -2.705774  -1.277679  -0.825485
H  -2.717602  -1.242340   0.889134
C  -0.166225  -0.698630   0.031088
H  -1.323730   0.903976   0.907715
H  -1.405928   0.784903  -0.856431
H  -0.131410  -1.367151   0.947123
H   0.740346  -0.081085   0.019746
H  -0.156257  -1.347744  -0.830309
