butane_opt
 OpenBabel08242015403D

 14 13  0  0  0  0  0  0  0  0999 V2000
   -3.9490    0.2451    0.0379 C   0  0  0  0  0  0  0  0  0  0  0  0
   -2.7066   -0.5979    0.0323 C   0  0  0  0  0  0  0  0  0  0  0  0
   -4.8642   -0.3451   -0.0932 H   0  0  0  0  0  0  0  0  0  0  0  0
   -3.9022    0.7847   -0.8004 H   0  0  0  0  0  0  0  0  0  0  0  0
   -3.9837    1.0458    0.9675 H   0  0  0  0  0  0  0  0  0  0  0  0
   -1.4059    0.2014   -0.0078 C   0  0  0  0  0  0  0  0  0  0  0  0
   -2.7612   -1.3032   -0.8724 H   0  0  0  0  0  0  0  0  0  0  0  0
   -2.7138   -1.2097    0.8962 H   0  0  0  0  0  0  0  0  0  0  0  0
   -0.1433   -0.7042    0.0448 C   0  0  0  0  0  0  0  0  0  0  0  0
   -1.4543    0.8106    0.7965 H   0  0  0  0  0  0  0  0  0  0  0  0
   -1.4258    0.8463   -0.9271 H   0  0  0  0  0  0  0  0  0  0  0  0
   -0.1235   -1.4192    1.0031 H   0  0  0  0  0  0  0  0  0  0  0  0
    0.7612   -0.1145   -0.0239 H   0  0  0  0  0  0  0  0  0  0  0  0
   -0.0974   -1.3000   -0.7745 H   0  0  0  0  0  0  0  0  0  0  0  0
  1  5  1  0  0  0  0
  2  1  1  0  0  0  0
  2  8  1  0  0  0  0
  3  1  1  0  0  0  0
  4  1  1  0  0  0  0
  6  2  1  0  0  0  0
  6  9  1  0  0  0  0
  6 10  1  0  0  0  0
  7  2  1  0  0  0  0
  9 12  1  0  0  0  0
 11  6  1  0  0  0  0
 13  9  1  0  0  0  0
 14  9  1  0  0  0  0
M  END
$$$$
