14
butane_opt
C  -3.931549   0.259323  -0.006575
C  -2.706211  -0.605897   0.066519
H  -4.862801  -0.366264   0.100660
H  -3.933758   0.942397  -0.929534
H  -3.980777   0.827468   0.783161
C  -1.404332   0.194279   0.027304
H  -2.723480  -1.255612  -0.752837
H  -2.665758  -1.255076   0.971331
C  -0.169350  -0.705709   0.012575
H  -1.356668   0.912657   0.899992
H  -1.403106   0.805916  -0.863733
H  -0.149347  -1.192418   0.835523
H   0.707917  -0.122676   0.110083
H  -0.110051  -1.485594  -0.933386
