butane_opt
 OpenBabel08242015403D

 14 13  0  0  0  0  0  0  0  0999 V2000
   -3.9402    0.2619    0.0014 C   0  0  0  0  0  0  0  0  0  0  0  0
   -2.7079   -0.6036    0.0675 C   0  0  0  0  0  0  0  0  0  0  0  0
   -4.8925   -0.3424    0.0193 H   0  0  0  0  0  0  0  0  0  0  0  0
   -3.9220    0.9139   -0.9365 H   0  0  0  0  0  0  0  0  0  0  0  0
   -3.9484    0.8672    0.8274 H   0  0  0  0  0  0  0  0  0  0  0  0
   -1.4007    0.1925    0.0180 C   0  0  0  0  0  0  0  0  0  0  0  0
   -2.6902   -1.2521   -0.7909 H   0  0  0  0  0  0  0  0  0  0  0  0
   -2.6986   -1.3188    1.0210 H   0  0  0  0  0  0  0  0  0  0  0  0
   -0.1603   -0.7024    0.0074 C   0  0  0  0  0  0  0  0  0  0  0  0
   -1.3975    0.9096    0.9046 H   0  0  0  0  0  0  0  0  0  0  0  0
   -1.3740    0.7645   -0.8314 H   0  0  0  0  0  0  0  0  0  0  0  0
   -0.1790   -1.2262    0.8608 H   0  0  0  0  0  0  0  0  0  0  0  0
    0.7379   -0.1221    0.1135 H   0  0  0  0  0  0  0  0  0  0  0  0
   -0.1403   -1.4536   -0.8979 H   0  0  0  0  0  0  0  0  0  0  0  0
  1  3  1  0  0  0  0
  1  2  1  0  0  0  0
  1  5  1  0  0  0  0
  2  8  1  0  0  0  0
  4  1  1  0  0  0  0
  6  2  1  0  0  0  0
  6 10  1  0  0  0  0
  7  2  1  0  0  0  0
  9  6  1  0  0  0  0
  9 13  1  0  0  0  0
  9 12  1  0  0  0  0
 11  6  1  0  0  0  0
 14  9  1  0  0  0  0
M  END
$$$$
