butane_opt
 OpenBabel08242015403D

 14 13  0  0  0  0  0  0  0  0999 V2000
   -3.9362    0.2563    0.0370 C   0  0  0  0  0  0  0  0  0  0  0  0
   -2.6979   -0.6026    0.0174 C   0  0  0  0  0  0  0  0  0  0  0  0
   -4.8828   -0.3760    0.1158 H   0  0  0  0  0  0  0  0  0  0  0  0
   -3.9432    0.8881   -0.8649 H   0  0  0  0  0  0  0  0  0  0  0  0
   -3.9006    0.8863    0.8883 H   0  0  0  0  0  0  0  0  0  0  0  0
   -1.4105    0.2020   -0.0098 C   0  0  0  0  0  0  0  0  0  0  0  0
   -2.8009   -1.3385   -0.8831 H   0  0  0  0  0  0  0  0  0  0  0  0
   -2.6660   -1.1880    0.8466 H   0  0  0  0  0  0  0  0  0  0  0  0
   -0.1637   -0.7035    0.0568 C   0  0  0  0  0  0  0  0  0  0  0  0
   -1.4048    0.8742    0.8363 H   0  0  0  0  0  0  0  0  0  0  0  0
   -1.3808    0.8510   -0.9173 H   0  0  0  0  0  0  0  0  0  0  0  0
   -0.1324   -1.3734    0.9913 H   0  0  0  0  0  0  0  0  0  0  0  0
    0.7374   -0.1547    0.0300 H   0  0  0  0  0  0  0  0  0  0  0  0
   -0.1460   -1.3713   -0.8189 H   0  0  0  0  0  0  0  0  0  0  0  0
  1  3  1  0  0  0  0
  1  5  1  0  0  0  0
  2  1  1  0  0  0  0
  2  8  1  0  0  0  0
  4  1  1  0  0  0  0
  6  2  1  0  0  0  0
  6  9  1  0  0  0  0
  6 10  1  0  0  0  0
  7  2  1  0  0  0  0
  9 12  1  0  0  0  0
 11  6  1  0  0  0  0
 13  9  1  0  0  0  0
 14  9  1  0  0  0  0
M  END
$$$$
