butane_opt
 OpenBabel08242015403D

 14 13  0  0  0  0  0  0  0  0999 V2000
   -3.9440    0.2768    0.0215 C   0  0  0  0  0  0  0  0  0  0  0  0
   -2.6881   -0.6244    0.0472 C   0  0  0  0  0  0  0  0  0  0  0  0
   -4.8827   -0.3582    0.0489 H   0  0  0  0  0  0  0  0  0  0  0  0
   -3.9967    0.9468   -0.9007 H   0  0  0  0  0  0  0  0  0  0  0  0
   -3.9473    0.9277    0.8468 H   0  0  0  0  0  0  0  0  0  0  0  0
   -1.4009    0.1618    0.0045 C   0  0  0  0  0  0  0  0  0  0  0  0
   -2.6976   -1.3085   -0.8104 H   0  0  0  0  0  0  0  0  0  0  0  0
   -2.6789   -1.2656    0.9302 H   0  0  0  0  0  0  0  0  0  0  0  0
   -0.1725   -0.6797    0.0289 C   0  0  0  0  0  0  0  0  0  0  0  0
   -1.3696    0.8128    0.8484 H   0  0  0  0  0  0  0  0  0  0  0  0
   -1.4234    0.8589   -0.9143 H   0  0  0  0  0  0  0  0  0  0  0  0
   -0.2247   -1.1986    0.8775 H   0  0  0  0  0  0  0  0  0  0  0  0
    0.7398   -0.0643    0.1637 H   0  0  0  0  0  0  0  0  0  0  0  0
   -0.0794   -1.4416   -0.8891 H   0  0  0  0  0  0  0  0  0  0  0  0
  1  2  1  0  0  0  0
  1  3  1  0  0  0  0
  1  5  1  0  0  0  0
  2  8  1  0  0  0  0
  4  1  1  0  0  0  0
  6  9  1  0  0  0  0
  6  2  1  0  0  0  0
  6 10  1  0  0  0  0
  7  2  1  0  0  0  0
  9 13  1  0  0  0  0
  9 12  1  0  0  0  0
 11  6  1  0  0  0  0
 14  9  1  0  0  0  0
M  END
$$$$
