butane_opt
 OpenBabel08242015403D

 14 13  0  0  0  0  0  0  0  0999 V2000
   -3.9562    0.2789    0.0480 C   0  0  0  0  0  0  0  0  0  0  0  0
   -2.6957   -0.6353    0.0073 C   0  0  0  0  0  0  0  0  0  0  0  0
   -4.8429   -0.3178    0.1479 H   0  0  0  0  0  0  0  0  0  0  0  0
   -4.0371    0.9693   -0.8860 H   0  0  0  0  0  0  0  0  0  0  0  0
   -3.9612    0.8914    0.8614 H   0  0  0  0  0  0  0  0  0  0  0  0
   -1.3923    0.1770   -0.0103 C   0  0  0  0  0  0  0  0  0  0  0  0
   -2.7563   -1.3477   -0.8642 H   0  0  0  0  0  0  0  0  0  0  0  0
   -2.7110   -1.1705    0.8493 H   0  0  0  0  0  0  0  0  0  0  0  0
   -0.1615   -0.6902    0.0563 C   0  0  0  0  0  0  0  0  0  0  0  0
   -1.3740    0.8165    0.8263 H   0  0  0  0  0  0  0  0  0  0  0  0
   -1.3701    0.8241   -0.9347 H   0  0  0  0  0  0  0  0  0  0  0  0
   -0.2235   -1.3005    0.9506 H   0  0  0  0  0  0  0  0  0  0  0  0
    0.7997   -0.0389    0.0856 H   0  0  0  0  0  0  0  0  0  0  0  0
   -0.0870   -1.3552   -0.8180 H   0  0  0  0  0  0  0  0  0  0  0  0
  1  3  1  0  0  0  0
  1  5  1  0  0  0  0
  2  1  1  0  0  0  0
  2  8  1  0  0  0  0
  4  1  1  0  0  0  0
  6  2  1  0  0  0  0
  6  9  1  0  0  0  0
  6 10  1  0  0  0  0
  7  2  1  0  0  0  0
  9 13  1  0  0  0  0
  9 12  1  0  0  0  0
 11  6  1  0  0  0  0
 14  9  1  0  0  0  0
M  END
$$$$
