14
butane_opt
C  -3.942460   0.268171  -0.002323
C  -2.690468  -0.612837   0.053797
H  -4.843095  -0.311102   0.033898
H  -3.980863   0.916764  -0.906091
H  -3.933469   0.878150   0.827761
C  -1.416661   0.169943   0.039192
H  -2.682317  -1.341741  -0.805879
H  -2.726383  -1.222053   0.952291
C  -0.162607  -0.682930   0.017049
H  -1.359638   0.853238   0.898735
H  -1.407779   0.816851  -0.860581
H  -0.117232  -1.315023   0.924890
H   0.782414  -0.090148  -0.059754
H  -0.215537  -1.358113  -0.864079
