14
butane_opt
C  -3.928750   0.250623   0.041279
C  -2.694785  -0.605901   0.012097
H  -4.888308  -0.368137  -0.009706
H  -3.920270   0.833472  -0.847554
H  -3.944109   0.989221   0.950178
C  -1.421890   0.204351   0.000415
H  -2.718005  -1.315506  -0.860550
H  -2.732460  -1.230125   0.886223
C  -0.168888  -0.708231   0.057454
H  -1.425875   0.847530   0.828006
H  -1.357788   0.889458  -0.930430
H  -0.067864  -1.380760   0.975430
H   0.736989  -0.123495  -0.103391
H  -0.130028  -1.306707  -0.773926
