14
butane_opt
C  -3.939422   0.271256   0.033326
C  -2.700766  -0.625195   0.011810
H  -4.844478  -0.313099   0.049919
H  -4.004496   0.869938  -0.839573
H  -3.946713   0.980581   0.928229
C  -1.401643   0.184382   0.005212
H  -2.731956  -1.374501  -0.895695
H  -2.731808  -1.242523   0.869998
C  -0.165737  -0.687825   0.054912
H  -1.399329   0.836440   0.831499
H  -1.412740   0.833696  -0.908397
H  -0.048167  -1.411207   1.012398
H   0.773989  -0.095421  -0.090489
H  -0.197186  -1.252807  -0.759898
