butane_opt
 OpenBabel08242015403D

 14 13  0  0  0  0  0  0  0  0999 V2000
   -3.9515    0.2771    0.0151 C   0  0  0  0  0  0  0  0  0  0  0  0
   -2.6815   -0.6317    0.0286 C   0  0  0  0  0  0  0  0  0  0  0  0
   -4.8641   -0.3158    0.0491 H   0  0  0  0  0  0  0  0  0  0  0  0
   -3.9645    0.8802   -0.8669 H   0  0  0  0  0  0  0  0  0  0  0  0
   -3.9627    0.9472    0.8925 H   0  0  0  0  0  0  0  0  0  0  0  0
   -1.4032    0.1662    0.0157 C   0  0  0  0  0  0  0  0  0  0  0  0
   -2.7003   -1.3012   -0.8093 H   0  0  0  0  0  0  0  0  0  0  0  0
   -2.6795   -1.2115    0.8856 H   0  0  0  0  0  0  0  0  0  0  0  0
   -0.1687   -0.6774    0.0308 C   0  0  0  0  0  0  0  0  0  0  0  0
   -1.3457    0.8873    0.9035 H   0  0  0  0  0  0  0  0  0  0  0  0
   -1.4298    0.7830   -0.8279 H   0  0  0  0  0  0  0  0  0  0  0  0
   -0.1613   -1.4175    0.9887 H   0  0  0  0  0  0  0  0  0  0  0  0
    0.7613   -0.0734   -0.0898 H   0  0  0  0  0  0  0  0  0  0  0  0
   -0.2198   -1.2572   -0.7551 H   0  0  0  0  0  0  0  0  0  0  0  0
  1  2  1  0  0  0  0
  1  3  1  0  0  0  0
  1  5  1  0  0  0  0
  2  8  1  0  0  0  0
  4  1  1  0  0  0  0
  6  2  1  0  0  0  0
  6  9  1  0  0  0  0
  6 10  1  0  0  0  0
  7  2  1  0  0  0  0
  9 12  1  0  0  0  0
 11  6  1  0  0  0  0
 13  9  1  0  0  0  0
 14  9  1  0  0  0  0
M  END
$$$$
