butane_opt
 OpenBabel08242015403D

 14 13  0  0  0  0  0  0  0  0999 V2000
   -3.9611    0.2776   -0.0186 C   0  0  0  0  0  0  0  0  0  0  0  0
   -2.6887   -0.6225    0.0726 C   0  0  0  0  0  0  0  0  0  0  0  0
   -4.8661   -0.2949    0.0126 H   0  0  0  0  0  0  0  0  0  0  0  0
   -3.9424    0.9262   -0.9491 H   0  0  0  0  0  0  0  0  0  0  0  0
   -3.9976    0.9035    0.8050 H   0  0  0  0  0  0  0  0  0  0  0  0
   -1.3882    0.1702    0.0535 C   0  0  0  0  0  0  0  0  0  0  0  0
   -2.7146   -1.3064   -0.7842 H   0  0  0  0  0  0  0  0  0  0  0  0
   -2.7234   -1.3014    0.9708 H   0  0  0  0  0  0  0  0  0  0  0  0
   -0.1691   -0.6809    0.0008 C   0  0  0  0  0  0  0  0  0  0  0  0
   -1.3630    0.9113    0.9570 H   0  0  0  0  0  0  0  0  0  0  0  0
   -1.3711    0.7120   -0.7782 H   0  0  0  0  0  0  0  0  0  0  0  0
   -0.0919   -1.3315    0.8936 H   0  0  0  0  0  0  0  0  0  0  0  0
    0.7464   -0.0890   -0.1544 H   0  0  0  0  0  0  0  0  0  0  0  0
   -0.2211   -1.3204   -0.8414 H   0  0  0  0  0  0  0  0  0  0  0  0
  1  3  1  0  0  0  0
  1  2  1  0  0  0  0
  1  5  1  0  0  0  0
  2  8  1  0  0  0  0
  4  1  1  0  0  0  0
  6  2  1  0  0  0  0
  6 10  1  0  0  0  0
  7  2  1  0  0  0  0
  9  6  1  0  0  0  0
  9 12  1  0  0  0  0
 11  6  1  0  0  0  0
 13  9  1  0  0  0  0
 14  9  1  0  0  0  0
M  END
$$$$
