butane_opt
 OpenBabel08242015403D

 14 13  0  0  0  0  0  0  0  0999 V2000
   -3.9514    0.2731   -0.0010 C   0  0  0  0  0  0  0  0  0  0  0  0
   -2.6922   -0.6215    0.0683 C   0  0  0  0  0  0  0  0  0  0  0  0
   -4.8138   -0.2896   -0.0983 H   0  0  0  0  0  0  0  0  0  0  0  0
   -3.8773    0.8089   -0.8451 H   0  0  0  0  0  0  0  0  0  0  0  0
   -4.0312    1.0034    0.8834 H   0  0  0  0  0  0  0  0  0  0  0  0
   -1.4020    0.1647    0.0188 C   0  0  0  0  0  0  0  0  0  0  0  0
   -2.7189   -1.2665   -0.7728 H   0  0  0  0  0  0  0  0  0  0  0  0
   -2.7038   -1.3131    1.0108 H   0  0  0  0  0  0  0  0  0  0  0  0
   -0.1657   -0.6803    0.0148 C   0  0  0  0  0  0  0  0  0  0  0  0
   -1.3568    0.9014    0.8914 H   0  0  0  0  0  0  0  0  0  0  0  0
   -1.4476    0.7764   -0.8718 H   0  0  0  0  0  0  0  0  0  0  0  0
   -0.1279   -1.3120    0.9088 H   0  0  0  0  0  0  0  0  0  0  0  0
    0.7560   -0.0651    0.0011 H   0  0  0  0  0  0  0  0  0  0  0  0
   -0.1798   -1.3439   -0.8654 H   0  0  0  0  0  0  0  0  0  0  0  0
  1  2  1  0  0  0  0
  1  5  1  0  0  0  0
  2  8  1  0  0  0  0
  3  1  1  0  0  0  0
  4  1  1  0  0  0  0
  6  2  1  0  0  0  0
  6 10  1  0  0  0  0
  7  2  1  0  0  0  0
  9  6  1  0  0  0  0
  9 12  1  0  0  0  0
 11  6  1  0  0  0  0
 13  9  1  0  0  0  0
 14  9  1  0  0  0  0
M  END
$$$$
