14
butane_opt
C  -3.955101   0.276443   0.034442
C  -2.689379  -0.640351   0.020495
H  -4.881148  -0.335078   0.096273
H  -4.046134   0.925742  -0.898078
H  -3.929838   0.937245   0.904769
C  -1.404212   0.184737  -0.003851
H  -2.714120  -1.336772  -0.861211
H  -2.723627  -1.252877   0.913985
C  -0.154271  -0.681288   0.051587
H  -1.360349   0.826241   0.819981
H  -1.385191   0.870791  -0.937221
H  -0.157866  -1.266271   0.919609
H   0.725927  -0.124233   0.097580
H  -0.112999  -1.394380  -0.849060
