butane_opt
 OpenBabel08242015403D

 14 13  0  0  0  0  0  0  0  0999 V2000
   -3.9388    0.2574    0.0368 C   0  0  0  0  0  0  0  0  0  0  0  0
   -2.7111   -0.6043    0.0228 C   0  0  0  0  0  0  0  0  0  0  0  0
   -4.8800   -0.3516    0.0140 H   0  0  0  0  0  0  0  0  0  0  0  0
   -3.9337    0.7848   -0.8152 H   0  0  0  0  0  0  0  0  0  0  0  0
   -4.0164    0.9787    0.9110 H   0  0  0  0  0  0  0  0  0  0  0  0
   -1.4020    0.2023   -0.0079 C   0  0  0  0  0  0  0  0  0  0  0  0
   -2.7948   -1.3605   -0.8929 H   0  0  0  0  0  0  0  0  0  0  0  0
   -2.7180   -1.1700    0.8568 H   0  0  0  0  0  0  0  0  0  0  0  0
   -0.1467   -0.7126    0.0526 C   0  0  0  0  0  0  0  0  0  0  0  0
   -1.4226    0.8884    0.8509 H   0  0  0  0  0  0  0  0  0  0  0  0
   -1.3704    0.8650   -0.8970 H   0  0  0  0  0  0  0  0  0  0  0  0
   -0.0909   -1.4509    1.0154 H   0  0  0  0  0  0  0  0  0  0  0  0
    0.7646   -0.1160   -0.1119 H   0  0  0  0  0  0  0  0  0  0  0  0
   -0.1686   -1.2582   -0.7226 H   0  0  0  0  0  0  0  0  0  0  0  0
  1  5  1  0  0  0  0
  2  1  1  0  0  0  0
  2  8  1  0  0  0  0
  3  1  1  0  0  0  0
  4  1  1  0  0  0  0
  6  2  1  0  0  0  0
  6  9  1  0  0  0  0
  6 10  1  0  0  0  0
  7  2  1  0  0  0  0
  9 12  1  0  0  0  0
 11  6  1  0  0  0  0
 13  9  1  0  0  0  0
 14  9  1  0  0  0  0
M  END
$$$$
