butane_opt
 OpenBabel08242015403D

 14 13  0  0  0  0  0  0  0  0999 V2000
   -3.9601    0.2595    0.0283 C   0  0  0  0  0  0  0  0  0  0  0  0
   -2.6974   -0.6187    0.0191 C   0  0  0  0  0  0  0  0  0  0  0  0
   -4.8295   -0.3297    0.1519 H   0  0  0  0  0  0  0  0  0  0  0  0
   -4.0140    0.9277   -0.8879 H   0  0  0  0  0  0  0  0  0  0  0  0
   -3.9107    0.8783    0.8561 H   0  0  0  0  0  0  0  0  0  0  0  0
   -1.4057    0.1991    0.0074 C   0  0  0  0  0  0  0  0  0  0  0  0
   -2.7792   -1.3519   -0.8723 H   0  0  0  0  0  0  0  0  0  0  0  0
   -2.6947   -1.1610    0.8603 H   0  0  0  0  0  0  0  0  0  0  0  0
   -0.1499   -0.6926    0.0464 C   0  0  0  0  0  0  0  0  0  0  0  0
   -1.3770    0.8416    0.8378 H   0  0  0  0  0  0  0  0  0  0  0  0
   -1.3989    0.8206   -0.8849 H   0  0  0  0  0  0  0  0  0  0  0  0
   -0.1422   -1.3784    0.9803 H   0  0  0  0  0  0  0  0  0  0  0  0
    0.7429   -0.1220   -0.0054 H   0  0  0  0  0  0  0  0  0  0  0  0
   -0.0706   -1.3578   -0.8135 H   0  0  0  0  0  0  0  0  0  0  0  0
  1  3  1  0  0  0  0
  1  5  1  0  0  0  0
  2  1  1  0  0  0  0
  2  8  1  0  0  0  0
  4  1  1  0  0  0  0
  6  2  1  0  0  0  0
  6  9  1  0  0  0  0
  6 10  1  0  0  0  0
  7  2  1  0  0  0  0
  9 12  1  0  0  0  0
 11  6  1  0  0  0  0
 13  9  1  0  0  0  0
 14  9  1  0  0  0  0
M  END
$$$$
