14
butane_opt
C  -3.929621   0.259692  -0.008907
C  -2.691570  -0.612943   0.064385
H  -4.889454  -0.369314  -0.013838
H  -3.928787   0.904399  -0.960372
H  -3.941134   0.877899   0.814664
C  -1.419235   0.196231   0.044032
H  -2.757707  -1.272835  -0.776194
H  -2.696587  -1.259038   0.974400
C  -0.164177  -0.696153   0.002630
H  -1.371202   0.982938   0.967158
H  -1.421520   0.775929  -0.791009
H  -0.076251  -1.383373   0.933651
H   0.717160  -0.154285  -0.103440
H  -0.196255  -1.344154  -0.840433
