14
butane_opt
C  -3.950164   0.259602  -0.007830
C  -2.697349  -0.616227   0.082428
H  -4.889188  -0.341645   0.025884
H  -3.904974   0.931157  -0.937665
H  -3.970882   0.868596   0.794115
C  -1.408910   0.203718   0.026329
H  -2.742910  -1.304738  -0.772823
H  -2.726779  -1.274573   1.007298
C  -0.151025  -0.698550   0.011071
H  -1.406645   0.887527   0.887437
H  -1.402012   0.804306  -0.871312
H  -0.139174  -1.184835   0.791527
H   0.713312  -0.141363   0.087091
H  -0.065979  -1.503121  -0.941656
