butane_opt
 OpenBabel08242015403D

 14 13  0  0  0  0  0  0  0  0999 V2000
   -3.9631    0.2764    0.0424 C   0  0  0  0  0  0  0  0  0  0  0  0
   -2.6960   -0.6264    0.0170 C   0  0  0  0  0  0  0  0  0  0  0  0
   -4.8568   -0.3210   -0.0234 H   0  0  0  0  0  0  0  0  0  0  0  0
   -3.9630    0.8809   -0.8686 H   0  0  0  0  0  0  0  0  0  0  0  0
   -3.9842    0.9722    0.9255 H   0  0  0  0  0  0  0  0  0  0  0  0
   -1.3893    0.1830    0.0048 C   0  0  0  0  0  0  0  0  0  0  0  0
   -2.7499   -1.3940   -0.8849 H   0  0  0  0  0  0  0  0  0  0  0  0
   -2.6982   -1.2163    0.8761 H   0  0  0  0  0  0  0  0  0  0  0  0
   -0.1634   -0.6925    0.0430 C   0  0  0  0  0  0  0  0  0  0  0  0
   -1.3962    0.8438    0.8413 H   0  0  0  0  0  0  0  0  0  0  0  0
   -1.3221    0.8168   -0.9156 H   0  0  0  0  0  0  0  0  0  0  0  0
   -0.1126   -1.4077    1.0321 H   0  0  0  0  0  0  0  0  0  0  0  0
    0.7761   -0.0801   -0.0884 H   0  0  0  0  0  0  0  0  0  0  0  0
   -0.1800   -1.2377   -0.7332 H   0  0  0  0  0  0  0  0  0  0  0  0
  1  5  1  0  0  0  0
  2  1  1  0  0  0  0
  2  8  1  0  0  0  0
  3  1  1  0  0  0  0
  4  1  1  0  0  0  0
  6  2  1  0  0  0  0
  6  9  1  0  0  0  0
  6 10  1  0  0  0  0
  7  2  1  0  0  0  0
  9 12  1  0  0  0  0
 11  6  1  0  0  0  0
 13  9  1  0  0  0  0
 14  9  1  0  0  0  0
M  END
$$$$
