14
butane_opt
C  -3.933953   0.266970   0.043301
C  -2.691001  -0.629860   0.003566
H  -4.821986  -0.320137   0.162596
H  -4.102354   0.987739  -0.891873
H  -3.918901   0.883049   0.860865
C  -1.406801   0.175127  -0.015257
H  -2.744794  -1.296067  -0.865054
H  -2.610896  -1.208545   0.864001
C  -0.176396  -0.682251   0.057946
H  -1.415831   0.889210   0.868522
H  -1.357556   0.776956  -0.880043
H  -0.190309  -1.322511   0.954501
H   0.760118  -0.084330   0.065993
H  -0.119837  -1.335065  -0.789832
