butane_opt
 OpenBabel08242015403D

 14 13  0  0  0  0  0  0  0  0999 V2000
   -3.9368    0.2658    0.0425 C   0  0  0  0  0  0  0  0  0  0  0  0
   -2.7046   -0.6166    0.0108 C   0  0  0  0  0  0  0  0  0  0  0  0
   -4.8074   -0.2876    0.0908 H   0  0  0  0  0  0  0  0  0  0  0  0
   -4.0430    0.8208   -0.8066 H   0  0  0  0  0  0  0  0  0  0  0  0
   -3.9425    0.9576    0.9639 H   0  0  0  0  0  0  0  0  0  0  0  0
   -1.4010    0.1815   -0.0378 C   0  0  0  0  0  0  0  0  0  0  0  0
   -2.7531   -1.2693   -0.8315 H   0  0  0  0  0  0  0  0  0  0  0  0
   -2.6412   -1.2578    0.9009 H   0  0  0  0  0  0  0  0  0  0  0  0
   -0.1645   -0.6907    0.0673 C   0  0  0  0  0  0  0  0  0  0  0  0
   -1.4174    0.8300    0.7810 H   0  0  0  0  0  0  0  0  0  0  0  0
   -1.3483    0.8292   -0.9392 H   0  0  0  0  0  0  0  0  0  0  0  0
   -0.2102   -1.2689    0.9455 H   0  0  0  0  0  0  0  0  0  0  0  0
    0.7494   -0.0921    0.1695 H   0  0  0  0  0  0  0  0  0  0  0  0
   -0.1249   -1.4146   -0.8296 H   0  0  0  0  0  0  0  0  0  0  0  0
  1  3  1  0  0  0  0
  1  5  1  0  0  0  0
  2  1  1  0  0  0  0
  2  8  1  0  0  0  0
  4  1  1  0  0  0  0
  6  2  1  0  0  0  0
  6  9  1  0  0  0  0
  6 10  1  0  0  0  0
  7  2  1  0  0  0  0
  9 13  1  0  0  0  0
  9 12  1  0  0  0  0
 11  6  1  0  0  0  0
 14  9  1  0  0  0  0
M  END
$$$$
