butane_opt
 OpenBabel08242015403D

 14 13  0  0  0  0  0  0  0  0999 V2000
   -3.9662    0.2801   -0.0047 C   0  0  0  0  0  0  0  0  0  0  0  0
   -2.6927   -0.6326    0.0454 C   0  0  0  0  0  0  0  0  0  0  0  0
   -4.8666   -0.3058    0.1530 H   0  0  0  0  0  0  0  0  0  0  0  0
   -4.0478    0.9850   -0.9490 H   0  0  0  0  0  0  0  0  0  0  0  0
   -3.9046    0.8724    0.8001 H   0  0  0  0  0  0  0  0  0  0  0  0
   -1.3853    0.1773    0.0403 C   0  0  0  0  0  0  0  0  0  0  0  0
   -2.7185   -1.2728   -0.8047 H   0  0  0  0  0  0  0  0  0  0  0  0
   -2.7124   -1.3209    0.9641 H   0  0  0  0  0  0  0  0  0  0  0  0
   -0.1652   -0.6840    0.0136 C   0  0  0  0  0  0  0  0  0  0  0  0
   -1.3451    0.8715    0.8994 H   0  0  0  0  0  0  0  0  0  0  0  0
   -1.3763    0.7661   -0.8108 H   0  0  0  0  0  0  0  0  0  0  0  0
   -0.1802   -1.2563    0.8867 H   0  0  0  0  0  0  0  0  0  0  0  0
    0.7767   -0.0843    0.0221 H   0  0  0  0  0  0  0  0  0  0  0  0
   -0.1414   -1.4071   -0.8747 H   0  0  0  0  0  0  0  0  0  0  0  0
  1  2  1  0  0  0  0
  1  3  1  0  0  0  0
  1  5  1  0  0  0  0
  2  8  1  0  0  0  0
  4  1  1  0  0  0  0
  6  2  1  0  0  0  0
  6 10  1  0  0  0  0
  7  2  1  0  0  0  0
  9 13  1  0  0  0  0
  9  6  1  0  0  0  0
  9 12  1  0  0  0  0
 11  6  1  0  0  0  0
 14  9  1  0  0  0  0
M  END
$$$$
