butane_opt
 OpenBabel08242015403D

 14 13  0  0  0  0  0  0  0  0999 V2000
   -3.9581    0.2579   -0.0159 C   0  0  0  0  0  0  0  0  0  0  0  0
   -2.7133   -0.6086    0.0645 C   0  0  0  0  0  0  0  0  0  0  0  0
   -4.8824   -0.3480    0.0182 H   0  0  0  0  0  0  0  0  0  0  0  0
   -3.8895    0.8645   -0.9466 H   0  0  0  0  0  0  0  0  0  0  0  0
   -3.9855    0.8982    0.8107 H   0  0  0  0  0  0  0  0  0  0  0  0
   -1.4055    0.1989    0.0633 C   0  0  0  0  0  0  0  0  0  0  0  0
   -2.6886   -1.2606   -0.7694 H   0  0  0  0  0  0  0  0  0  0  0  0
   -2.6903   -1.2494    0.9518 H   0  0  0  0  0  0  0  0  0  0  0  0
   -0.1457   -0.7029    0.0011 C   0  0  0  0  0  0  0  0  0  0  0  0
   -1.3816    0.8644    0.9426 H   0  0  0  0  0  0  0  0  0  0  0  0
   -1.4076    0.8337   -0.8357 H   0  0  0  0  0  0  0  0  0  0  0  0
    0.0085   -1.3373    0.8847 H   0  0  0  0  0  0  0  0  0  0  0  0
    0.7607   -0.1392   -0.1201 H   0  0  0  0  0  0  0  0  0  0  0  0
   -0.1997   -1.3381   -0.8503 H   0  0  0  0  0  0  0  0  0  0  0  0
  1  3  1  0  0  0  0
  1  2  1  0  0  0  0
  1  5  1  0  0  0  0
  2  8  1  0  0  0  0
  4  1  1  0  0  0  0
  6  2  1  0  0  0  0
  6 10  1  0  0  0  0
  7  2  1  0  0  0  0
  9  6  1  0  0  0  0
  9 12  1  0  0  0  0
 11  6  1  0  0  0  0
 13  9  1  0  0  0  0
 14  9  1  0  0  0  0
M  END
$$$$
