butane_opt
 OpenBabel08242015403D

 14 13  0  0  0  0  0  0  0  0999 V2000
   -3.9511    0.2760   -0.0093 C   0  0  0  0  0  0  0  0  0  0  0  0
   -2.6992   -0.6370    0.0790 C   0  0  0  0  0  0  0  0  0  0  0  0
   -4.8622   -0.2997    0.0451 H   0  0  0  0  0  0  0  0  0  0  0  0
   -3.9655    0.9535   -0.9553 H   0  0  0  0  0  0  0  0  0  0  0  0
   -3.9528    0.8904    0.8171 H   0  0  0  0  0  0  0  0  0  0  0  0
   -1.3951    0.1802    0.0192 C   0  0  0  0  0  0  0  0  0  0  0  0
   -2.6793   -1.2617   -0.7310 H   0  0  0  0  0  0  0  0  0  0  0  0
   -2.7077   -1.3102    0.9954 H   0  0  0  0  0  0  0  0  0  0  0  0
   -0.1649   -0.6853    0.0046 C   0  0  0  0  0  0  0  0  0  0  0  0
   -1.3366    0.9089    0.8924 H   0  0  0  0  0  0  0  0  0  0  0  0
   -1.4547    0.7634   -0.8214 H   0  0  0  0  0  0  0  0  0  0  0  0
   -0.1859   -1.1483    0.8002 H   0  0  0  0  0  0  0  0  0  0  0  0
    0.7261   -0.1034    0.1590 H   0  0  0  0  0  0  0  0  0  0  0  0
   -0.0858   -1.4719   -0.9017 H   0  0  0  0  0  0  0  0  0  0  0  0
  1  3  1  0  0  0  0
  1  2  1  0  0  0  0
  1  5  1  0  0  0  0
  2  8  1  0  0  0  0
  4  1  1  0  0  0  0
  6  2  1  0  0  0  0
  6 10  1  0  0  0  0
  7  2  1  0  0  0  0
  9  6  1  0  0  0  0
  9 13  1  0  0  0  0
  9 12  1  0  0  0  0
 11  6  1  0  0  0  0
 14  9  1  0  0  0  0
M  END
$$$$
