14
butane_opt
C  -3.931872   0.247638  -0.005838
C  -2.701532  -0.599189   0.051763
H  -4.805425  -0.320589   0.053894
H  -3.940579   0.876043  -0.893836
H  -3.955899   0.927396   0.845514
C  -1.411446   0.199754   0.044122
H  -2.672030  -1.325801  -0.814643
H  -2.742789  -1.217194   0.923757
C  -0.164764  -0.704628   0.019550
H  -1.369266   0.835590   0.873432
H  -1.449246   0.817681  -0.824903
H  -0.064151  -1.363686   0.926228
H   0.715976  -0.117384  -0.118776
H  -0.219938  -1.302163  -0.832665
