butane_opt
 OpenBabel08242015403D

 14 13  0  0  0  0  0  0  0  0999 V2000
   -3.9321    0.2708    0.0403 C   0  0  0  0  0  0  0  0  0  0  0  0
   -2.6970   -0.6249   -0.0027 C   0  0  0  0  0  0  0  0  0  0  0  0
   -4.8191   -0.3065    0.0268 H   0  0  0  0  0  0  0  0  0  0  0  0
   -4.0395    0.8774   -0.8310 H   0  0  0  0  0  0  0  0  0  0  0  0
   -3.9198    1.0036    0.9455 H   0  0  0  0  0  0  0  0  0  0  0  0
   -1.3976    0.1753   -0.0013 C   0  0  0  0  0  0  0  0  0  0  0  0
   -2.7501   -1.3163   -0.8930 H   0  0  0  0  0  0  0  0  0  0  0  0
   -2.6995   -1.2701    0.9037 H   0  0  0  0  0  0  0  0  0  0  0  0
   -0.1720   -0.6807    0.0584 C   0  0  0  0  0  0  0  0  0  0  0  0
   -1.4155    0.8549    0.8445 H   0  0  0  0  0  0  0  0  0  0  0  0
   -1.3882    0.7950   -0.8831 H   0  0  0  0  0  0  0  0  0  0  0  0
   -0.1184   -1.4222    1.0572 H   0  0  0  0  0  0  0  0  0  0  0  0
    0.7513   -0.1044   -0.1248 H   0  0  0  0  0  0  0  0  0  0  0  0
   -0.2399   -1.2603   -0.7324 H   0  0  0  0  0  0  0  0  0  0  0  0
  1  5  1  0  0  0  0
  2  6  1  0  0  0  0
  2  1  1  0  0  0  0
  2  8  1  0  0  0  0
  3  1  1  0  0  0  0
  4  1  1  0  0  0  0
  6  9  1  0  0  0  0
  6 10  1  0  0  0  0
  7  2  1  0  0  0  0
  9 12  1  0  0  0  0
 11  6  1  0  0  0  0
 13  9  1  0  0  0  0
 14  9  1  0  0  0  0
M  END
$$$$
