14
butane_opt
C  -3.948211   0.276535  -0.002906
C  -2.700077  -0.620145   0.077597
H  -4.845122  -0.330160  -0.009630
H  -3.921808   0.916844  -0.932334
H  -3.961622   0.876100   0.815762
C  -1.397434   0.166145   0.014371
H  -2.708794  -1.227300  -0.711339
H  -2.694626  -1.288425   0.980878
C  -0.165469  -0.683302   0.007772
H  -1.359509   0.907029   0.904548
H  -1.434117   0.754531  -0.847735
H  -0.187065  -1.172107   0.831013
H   0.735537  -0.086725   0.140692
H  -0.121861  -1.492559  -0.914672
