14
butane_opt
C  -3.966034   0.275796  -0.006719
C  -2.697082  -0.623580   0.073419
H  -4.853238  -0.294018  -0.100519
H  -3.939714   0.821584  -0.865900
H  -4.019009   1.035207   0.922904
C  -1.381980   0.164307   0.016474
H  -2.671310  -1.259918  -0.725165
H  -2.779479  -1.317697   0.998671
C  -0.160358  -0.682968   0.013664
H  -1.341734   0.866324   0.904161
H  -1.410130   0.797652  -0.858563
H  -0.128032  -1.268596   0.864127
H   0.760281  -0.098163   0.015939
H  -0.181269  -1.351159  -0.867282
