butane_opt
 OpenBabel08242015403D

 14 13  0  0  0  0  0  0  0  0999 V2000
   -3.9215    0.2542    0.0117 C   0  0  0  0  0  0  0  0  0  0  0  0
   -2.6988   -0.6033    0.0418 C   0  0  0  0  0  0  0  0  0  0  0  0
   -4.8460   -0.3550    0.1416 H   0  0  0  0  0  0  0  0  0  0  0  0
   -3.9950    0.9371   -0.9333 H   0  0  0  0  0  0  0  0  0  0  0  0
   -3.9228    0.8302    0.8119 H   0  0  0  0  0  0  0  0  0  0  0  0
   -1.4220    0.1979    0.0211 C   0  0  0  0  0  0  0  0  0  0  0  0
   -2.7559   -1.3263   -0.8374 H   0  0  0  0  0  0  0  0  0  0  0  0
   -2.7450   -1.1960    0.9363 H   0  0  0  0  0  0  0  0  0  0  0  0
   -0.1604   -0.7016    0.0313 C   0  0  0  0  0  0  0  0  0  0  0  0
   -1.4435    0.8859    0.8748 H   0  0  0  0  0  0  0  0  0  0  0  0
   -1.3771    0.8331   -0.8793 H   0  0  0  0  0  0  0  0  0  0  0  0
   -0.1264   -1.3034    0.9016 H   0  0  0  0  0  0  0  0  0  0  0  0
    0.7344   -0.1025    0.0182 H   0  0  0  0  0  0  0  0  0  0  0  0
   -0.1130   -1.4445   -0.8843 H   0  0  0  0  0  0  0  0  0  0  0  0
  1  2  1  0  0  0  0
  1  3  1  0  0  0  0
  1  5  1  0  0  0  0
  2  8  1  0  0  0  0
  4  1  1  0  0  0  0
  6  9  1  0  0  0  0
  6  2  1  0  0  0  0
  6 10  1  0  0  0  0
  7  2  1  0  0  0  0
  9 12  1  0  0  0  0
 11  6  1  0  0  0  0
 13  9  1  0  0  0  0
 14  9  1  0  0  0  0
M  END
$$$$
