14
butane_opt
C  -3.936146   0.274796   0.001772
C  -2.692765  -0.617755   0.059681
H  -4.849471  -0.351711   0.012152
H  -3.949859   0.869146  -0.884471
H  -3.977912   0.927096   0.832252
C  -1.401341   0.178048   0.023347
H  -2.683799  -1.301029  -0.809122
H  -2.773018  -1.245946   0.943820
C  -0.174870  -0.689284   0.016080
H  -1.337702   0.887907   0.899083
H  -1.416065   0.750996  -0.807568
H  -0.133386  -1.321179   0.931058
H   0.715446  -0.118356  -0.069580
H  -0.155650  -1.318135  -0.812166
