14
butane_opt
C  -3.948413   0.262153  -0.005662
C  -2.710670  -0.618113   0.051933
H  -4.867237  -0.328370   0.173995
H  -3.989871   1.021891  -0.995197
H  -3.923917   0.755313   0.735251
C  -1.402935   0.202464   0.035992
H  -2.725663  -1.263827  -0.767465
H  -2.708633  -1.259730   0.949924
C  -0.150508  -0.701055   0.012386
H  -1.325944   0.961904   0.973728
H  -1.397279   0.737582  -0.766413
H  -0.122490  -1.246183   0.878292
H   0.717812  -0.172696  -0.007415
H  -0.124613  -1.427934  -0.899429
