butane_opt
 OpenBabel08242015403D

 14 13  0  0  0  0  0  0  0  0999 V2000
   -3.9416    0.2702   -0.0118 C   0  0  0  0  0  0  0  0  0  0  0  0
   -2.7036   -0.6122    0.0898 C   0  0  0  0  0  0  0  0  0  0  0  0
   -4.8354   -0.3120   -0.0831 H   0  0  0  0  0  0  0  0  0  0  0  0
   -3.8674    0.8437   -0.8918 H   0  0  0  0  0  0  0  0  0  0  0  0
   -4.0069    0.9722    0.8713 H   0  0  0  0  0  0  0  0  0  0  0  0
   -1.4009    0.1733    0.0326 C   0  0  0  0  0  0  0  0  0  0  0  0
   -2.6662   -1.3182   -0.7687 H   0  0  0  0  0  0  0  0  0  0  0  0
   -2.7019   -1.2491    0.9731 H   0  0  0  0  0  0  0  0  0  0  0  0
   -0.1734   -0.6880    0.0037 C   0  0  0  0  0  0  0  0  0  0  0  0
   -1.3609    0.8271    0.8550 H   0  0  0  0  0  0  0  0  0  0  0  0
   -1.4023    0.7759   -0.8611 H   0  0  0  0  0  0  0  0  0  0  0  0
   -0.1625   -1.2634    0.8842 H   0  0  0  0  0  0  0  0  0  0  0  0
    0.7388   -0.0858   -0.0081 H   0  0  0  0  0  0  0  0  0  0  0  0
   -0.1325   -1.3770   -0.9028 H   0  0  0  0  0  0  0  0  0  0  0  0
  1  2  1  0  0  0  0
  1  5  1  0  0  0  0
  2  8  1  0  0  0  0
  3  1  1  0  0  0  0
  4  1  1  0  0  0  0
  6  2  1  0  0  0  0
  6 10  1  0  0  0  0
  7  2  1  0  0  0  0
  9  6  1  0  0  0  0
  9 12  1  0  0  0  0
 11  6  1  0  0  0  0
 13  9  1  0  0  0  0
 14  9  1  0  0  0  0
M  END
$$$$
