butane_opt
 OpenBabel08242015403D

 14 13  0  0  0  0  0  0  0  0999 V2000
   -3.9338    0.2805    0.0149 C   0  0  0  0  0  0  0  0  0  0  0  0
   -2.6995   -0.6345    0.0528 C   0  0  0  0  0  0  0  0  0  0  0  0
   -4.8217   -0.3073   -0.1211 H   0  0  0  0  0  0  0  0  0  0  0  0
   -3.9482    0.7759   -0.7959 H   0  0  0  0  0  0  0  0  0  0  0  0
   -4.0304    1.0313    0.9387 H   0  0  0  0  0  0  0  0  0  0  0  0
   -1.3988    0.1680    0.0084 C   0  0  0  0  0  0  0  0  0  0  0  0
   -2.7146   -1.2897   -0.7912 H   0  0  0  0  0  0  0  0  0  0  0  0
   -2.7100   -1.2204    0.9372 H   0  0  0  0  0  0  0  0  0  0  0  0
   -0.1725   -0.6820    0.0347 C   0  0  0  0  0  0  0  0  0  0  0  0
   -1.4272    0.8111    0.8157 H   0  0  0  0  0  0  0  0  0  0  0  0
   -1.3810    0.8520   -0.9361 H   0  0  0  0  0  0  0  0  0  0  0  0
   -0.1095   -1.3026    0.9273 H   0  0  0  0  0  0  0  0  0  0  0  0
    0.7586   -0.0812   -0.0343 H   0  0  0  0  0  0  0  0  0  0  0  0
   -0.1912   -1.3257   -0.8208 H   0  0  0  0  0  0  0  0  0  0  0  0
  1  2  1  0  0  0  0
  1  5  1  0  0  0  0
  2  8  1  0  0  0  0
  3  1  1  0  0  0  0
  4  1  1  0  0  0  0
  6  9  1  0  0  0  0
  6  2  1  0  0  0  0
  6 10  1  0  0  0  0
  7  2  1  0  0  0  0
  9 12  1  0  0  0  0
 11  6  1  0  0  0  0
 13  9  1  0  0  0  0
 14  9  1  0  0  0  0
M  END
$$$$
