butane_opt
 OpenBabel08242015403D

 14 13  0  0  0  0  0  0  0  0999 V2000
   -3.9218    0.2563    0.0008 C   0  0  0  0  0  0  0  0  0  0  0  0
   -2.6993   -0.6045    0.0726 C   0  0  0  0  0  0  0  0  0  0  0  0
   -4.8632   -0.3639   -0.0841 H   0  0  0  0  0  0  0  0  0  0  0  0
   -3.8956    0.7683   -0.8288 H   0  0  0  0  0  0  0  0  0  0  0  0
   -3.9891    0.9962    0.9058 H   0  0  0  0  0  0  0  0  0  0  0  0
   -1.4259    0.2008    0.0074 C   0  0  0  0  0  0  0  0  0  0  0  0
   -2.7125   -1.2710   -0.7877 H   0  0  0  0  0  0  0  0  0  0  0  0
   -2.7415   -1.2594    0.9724 H   0  0  0  0  0  0  0  0  0  0  0  0
   -0.1580   -0.7052    0.0117 C   0  0  0  0  0  0  0  0  0  0  0  0
   -1.3995    0.8923    0.8596 H   0  0  0  0  0  0  0  0  0  0  0  0
   -1.4378    0.7956   -0.8414 H   0  0  0  0  0  0  0  0  0  0  0  0
   -0.1556   -1.3286    0.9338 H   0  0  0  0  0  0  0  0  0  0  0  0
    0.7708   -0.1278    0.0268 H   0  0  0  0  0  0  0  0  0  0  0  0
   -0.1316   -1.3472   -0.8147 H   0  0  0  0  0  0  0  0  0  0  0  0
  1  2  1  0  0  0  0
  1  5  1  0  0  0  0
  2  8  1  0  0  0  0
  3  1  1  0  0  0  0
  4  1  1  0  0  0  0
  6  9  1  0  0  0  0
  6  2  1  0  0  0  0
  6 10  1  0  0  0  0
  7  2  1  0  0  0  0
  9 13  1  0  0  0  0
  9 12  1  0  0  0  0
 11  6  1  0  0  0  0
 14  9  1  0  0  0  0
M  END
$$$$
