14
butane_opt
C  -3.958611   0.277965   0.043469
C  -2.708211  -0.628815   0.010807
H  -4.879691  -0.310230   0.118199
H  -4.014740   0.930934  -0.911816
H  -3.942635   0.900992   0.870953
C  -1.393923   0.179776  -0.008511
H  -2.728327  -1.366459  -0.893898
H  -2.659440  -1.195664   0.853070
C  -0.156550  -0.689703   0.056841
H  -1.351823   0.836552   0.832522
H  -1.366435   0.790885  -0.865368
H  -0.091799  -1.359724   0.992068
H   0.777855  -0.049854   0.005195
H  -0.165108  -1.312348  -0.787041
