14
butane_opt
C  -3.954010   0.278576   0.008430
C  -2.684037  -0.630961   0.052918
H  -4.899965  -0.322370   0.040660
H  -3.976145   0.898006  -0.897210
H  -3.971429   0.940330   0.865034
C  -1.396431   0.173158   0.023003
H  -2.702835  -1.302908  -0.799984
H  -2.713567  -1.258132   0.945794
C  -0.173740  -0.685581   0.022034
H  -1.367770   0.818895   0.850520
H  -1.382675   0.842544  -0.937791
H  -0.149540  -1.245971   0.885373
H   0.768997  -0.051669   0.097128
H  -0.137921  -1.412203  -0.887616
