butane_opt
 OpenBabel08242015403D

 14 13  0  0  0  0  0  0  0  0999 V2000
   -3.9419    0.2744   -0.0085 C   0  0  0  0  0  0  0  0  0  0  0  0
   -2.6961   -0.6208    0.0632 C   0  0  0  0  0  0  0  0  0  0  0  0
   -4.8849   -0.3486    0.1779 H   0  0  0  0  0  0  0  0  0  0  0  0
   -3.9974    0.9851   -0.9827 H   0  0  0  0  0  0  0  0  0  0  0  0
   -3.9575    0.8034    0.7694 H   0  0  0  0  0  0  0  0  0  0  0  0
   -1.4056    0.1806    0.0344 C   0  0  0  0  0  0  0  0  0  0  0  0
   -2.6611   -1.3194   -0.7748 H   0  0  0  0  0  0  0  0  0  0  0  0
   -2.6861   -1.2288    0.9500 H   0  0  0  0  0  0  0  0  0  0  0  0
   -0.1670   -0.6865    0.0059 C   0  0  0  0  0  0  0  0  0  0  0  0
   -1.3829    0.8859    0.9270 H   0  0  0  0  0  0  0  0  0  0  0  0
   -1.3906    0.7483   -0.8272 H   0  0  0  0  0  0  0  0  0  0  0  0
   -0.1751   -1.2321    0.8680 H   0  0  0  0  0  0  0  0  0  0  0  0
    0.7661   -0.0898    0.0736 H   0  0  0  0  0  0  0  0  0  0  0  0
   -0.1283   -1.4432   -0.9019 H   0  0  0  0  0  0  0  0  0  0  0  0
  1  2  1  0  0  0  0
  1  3  1  0  0  0  0
  1  5  1  0  0  0  0
  2  8  1  0  0  0  0
  4  1  1  0  0  0  0
  6  2  1  0  0  0  0
  6 10  1  0  0  0  0
  7  2  1  0  0  0  0
  9  6  1  0  0  0  0
  9 13  1  0  0  0  0
  9 12  1  0  0  0  0
 11  6  1  0  0  0  0
 14  9  1  0  0  0  0
M  END
$$$$
