14
butane_opt
C  -3.944122   0.273158   0.055704
C  -2.714674  -0.627711   0.006455
H  -4.877539  -0.312042  -0.007770
H  -4.004211   0.836310  -0.787751
H  -3.961089   0.958395   0.946845
C  -1.396726   0.181625  -0.037364
H  -2.764918  -1.249626  -0.831718
H  -2.662965  -1.245163   0.890907
C  -0.147816  -0.693596   0.064999
H  -1.400759   0.848101   0.807060
H  -1.402852   0.832660  -0.952640
H  -0.216088  -1.290206   0.963710
H   0.773727  -0.091498   0.120487
H  -0.068232  -1.368028  -0.789234
