butane_opt
 OpenBabel08242015403D

 14 13  0  0  0  0  0  0  0  0999 V2000
   -3.9144    0.2530   -0.0033 C   0  0  0  0  0  0  0  0  0  0  0  0
   -2.7107   -0.6082    0.0452 C   0  0  0  0  0  0  0  0  0  0  0  0
   -4.8551   -0.3668    0.1620 H   0  0  0  0  0  0  0  0  0  0  0  0
   -4.0337    1.0000   -0.9865 H   0  0  0  0  0  0  0  0  0  0  0  0
   -3.8761    0.7941    0.7848 H   0  0  0  0  0  0  0  0  0  0  0  0
   -1.4208    0.2030    0.0381 C   0  0  0  0  0  0  0  0  0  0  0  0
   -2.7185   -1.2594   -0.7838 H   0  0  0  0  0  0  0  0  0  0  0  0
   -2.7043   -1.2452    0.9666 H   0  0  0  0  0  0  0  0  0  0  0  0
   -0.1608   -0.7068    0.0138 C   0  0  0  0  0  0  0  0  0  0  0  0
   -1.4364    0.9509    0.9444 H   0  0  0  0  0  0  0  0  0  0  0  0
   -1.4026    0.7905   -0.8251 H   0  0  0  0  0  0  0  0  0  0  0  0
   -0.1094   -1.2742    0.8728 H   0  0  0  0  0  0  0  0  0  0  0  0
    0.7473   -0.1163    0.0164 H   0  0  0  0  0  0  0  0  0  0  0  0
   -0.1480   -1.4403   -0.8652 H   0  0  0  0  0  0  0  0  0  0  0  0
  1  2  1  0  0  0  0
  1  3  1  0  0  0  0
  1  5  1  0  0  0  0
  2  8  1  0  0  0  0
  4  1  1  0  0  0  0
  6  2  1  0  0  0  0
  6 10  1  0  0  0  0
  7  2  1  0  0  0  0
  9 13  1  0  0  0  0
  9  6  1  0  0  0  0
  9 12  1  0  0  0  0
 11  6  1  0  0  0  0
 14  9  1  0  0  0  0
M  END
$$$$
