14
butane_opt
C  -3.961734   0.258034  -0.004407
C  -2.694846  -0.603172   0.070118
H  -4.869411  -0.342573  -0.029325
H  -3.932699   0.783827  -0.826980
H  -3.964585   0.980024   0.890649
C  -1.404518   0.186858   0.013902
H  -2.695828  -1.266229  -0.790332
H  -2.768734  -1.267767   0.998227
C  -0.148047  -0.696555   0.014118
H  -1.394420   0.868459   0.862862
H  -1.382259   0.840434  -0.892027
H  -0.102650  -1.284952   0.911483
H   0.723675  -0.119637   0.066052
H  -0.126653  -1.415518  -0.868267
