14
butane_opt
C  -3.938919   0.253567   0.044337
C  -2.706778  -0.603541   0.000174
H  -4.861515  -0.345936  -0.006327
H  -3.919809   0.787542  -0.804678
H  -3.902206   0.983667   0.957030
C  -1.413367   0.199218  -0.005910
H  -2.738353  -1.274152  -0.857727
H  -2.715723  -1.229003   0.897329
C  -0.150309  -0.709391   0.056107
H  -1.488728   0.877916   0.813382
H  -1.374696   0.820953  -0.886065
H  -0.094198  -1.404730   1.043700
H   0.745258  -0.123754  -0.126186
H  -0.159775  -1.245307  -0.716801
