butane_opt
 OpenBabel08242015403D

 14 13  0  0  0  0  0  0  0  0999 V2000
   -3.9548    0.2644    0.0198 C   0  0  0  0  0  0  0  0  0  0  0  0
   -2.7089   -0.6116    0.0448 C   0  0  0  0  0  0  0  0  0  0  0  0
   -4.8632   -0.3355   -0.0269 H   0  0  0  0  0  0  0  0  0  0  0  0
   -3.9403    0.8353   -0.8739 H   0  0  0  0  0  0  0  0  0  0  0  0
   -3.9856    0.9180    0.8476 H   0  0  0  0  0  0  0  0  0  0  0  0
   -1.4108    0.1940    0.0180 C   0  0  0  0  0  0  0  0  0  0  0  0
   -2.7432   -1.3572   -0.8690 H   0  0  0  0  0  0  0  0  0  0  0  0
   -2.6960   -1.2050    0.9070 H   0  0  0  0  0  0  0  0  0  0  0  0
   -0.1453   -0.7014    0.0292 C   0  0  0  0  0  0  0  0  0  0  0  0
   -1.4081    0.8965    0.8844 H   0  0  0  0  0  0  0  0  0  0  0  0
   -1.3664    0.8131   -0.8543 H   0  0  0  0  0  0  0  0  0  0  0  0
   -0.0352   -1.4048    0.9775 H   0  0  0  0  0  0  0  0  0  0  0  0
    0.8043   -0.1062   -0.1193 H   0  0  0  0  0  0  0  0  0  0  0  0
   -0.1587   -1.2641   -0.7690 H   0  0  0  0  0  0  0  0  0  0  0  0
  1  2  1  0  0  0  0
  1  5  1  0  0  0  0
  2  8  1  0  0  0  0
  3  1  1  0  0  0  0
  4  1  1  0  0  0  0
  6  9  1  0  0  0  0
  6  2  1  0  0  0  0
  6 10  1  0  0  0  0
  7  2  1  0  0  0  0
  9 12  1  0  0  0  0
 11  6  1  0  0  0  0
 13  9  1  0  0  0  0
 14  9  1  0  0  0  0
M  END
$$$$
