14
butane_opt
C  -3.944341   0.256727  -0.013631
C  -2.703104  -0.619170   0.079160
H  -4.848033  -0.349295  -0.073747
H  -3.857934   0.855195  -0.913777
H  -4.005745   0.946404   0.841427
C  -1.414939   0.202528   0.040085
H  -2.721786  -1.223655  -0.714826
H  -2.769411  -1.237229   0.999079
C  -0.147862  -0.703766   0.000788
H  -1.369242   0.882727   0.902369
H  -1.452015   0.831262  -0.846539
H  -0.033004  -1.276036   0.869911
H   0.736740  -0.109401  -0.004416
H  -0.184166  -1.435186  -0.895120
