14
butane_opt
C  -3.927418   0.263950  -0.018252
C  -2.696327  -0.619187   0.088527
H  -4.848935  -0.364295  -0.056766
H  -3.908943   0.845596  -0.903965
H  -4.014240   0.944195   0.826704
C  -1.418504   0.195206   0.040726
H  -2.720469  -1.237926  -0.727400
H  -2.763414  -1.271642   0.967376
C  -0.160590  -0.699263  -0.002135
H  -1.431318   0.904044   0.904942
H  -1.404374   0.814364  -0.840849
H  -0.055663  -1.279916   0.860808
H   0.762300  -0.104505  -0.000638
H  -0.206603  -1.413353  -0.897040
