butane_opt
 OpenBabel08242015403D

 14 13  0  0  0  0  0  0  0  0999 V2000
   -3.9432    0.2772    0.0366 C   0  0  0  0  0  0  0  0  0  0  0  0
   -2.6924   -0.6269    0.0393 C   0  0  0  0  0  0  0  0  0  0  0  0
   -4.8529   -0.3131   -0.0656 H   0  0  0  0  0  0  0  0  0  0  0  0
   -3.9386    0.7706   -0.7821 H   0  0  0  0  0  0  0  0  0  0  0  0
   -4.0043    1.0167    0.9495 H   0  0  0  0  0  0  0  0  0  0  0  0
   -1.4040    0.1672   -0.0211 C   0  0  0  0  0  0  0  0  0  0  0  0
   -2.6818   -1.3416   -0.8448 H   0  0  0  0  0  0  0  0  0  0  0  0
   -2.6872   -1.1981    0.8859 H   0  0  0  0  0  0  0  0  0  0  0  0
   -0.1678   -0.6797    0.0557 C   0  0  0  0  0  0  0  0  0  0  0  0
   -1.3683    0.8110    0.7666 H   0  0  0  0  0  0  0  0  0  0  0  0
   -1.4115    0.8494   -0.9482 H   0  0  0  0  0  0  0  0  0  0  0  0
   -0.2030   -1.2974    0.9728 H   0  0  0  0  0  0  0  0  0  0  0  0
    0.7234   -0.0965    0.0167 H   0  0  0  0  0  0  0  0  0  0  0  0
   -0.1128   -1.3354   -0.8219 H   0  0  0  0  0  0  0  0  0  0  0  0
  1  2  1  0  0  0  0
  1  5  1  0  0  0  0
  2  8  1  0  0  0  0
  3  1  1  0  0  0  0
  4  1  1  0  0  0  0
  6  2  1  0  0  0  0
  6  9  1  0  0  0  0
  6 10  1  0  0  0  0
  7  2  1  0  0  0  0
  9 12  1  0  0  0  0
 11  6  1  0  0  0  0
 13  9  1  0  0  0  0
 14  9  1  0  0  0  0
M  END
$$$$
