butane_opt
 OpenBabel08242015403D

 14 13  0  0  0  0  0  0  0  0999 V2000
   -3.9305    0.2707    0.0082 C   0  0  0  0  0  0  0  0  0  0  0  0
   -2.7047   -0.6203    0.0513 C   0  0  0  0  0  0  0  0  0  0  0  0
   -4.7937   -0.2901    0.0665 H   0  0  0  0  0  0  0  0  0  0  0  0
   -4.0112    0.9522   -0.9129 H   0  0  0  0  0  0  0  0  0  0  0  0
   -3.9343    0.8658    0.8078 H   0  0  0  0  0  0  0  0  0  0  0  0
   -1.4068    0.1715    0.0262 C   0  0  0  0  0  0  0  0  0  0  0  0
   -2.6757   -1.2981   -0.8122 H   0  0  0  0  0  0  0  0  0  0  0  0
   -2.7136   -1.2834    0.9509 H   0  0  0  0  0  0  0  0  0  0  0  0
   -0.1682   -0.6840    0.0140 C   0  0  0  0  0  0  0  0  0  0  0  0
   -1.3792    0.8836    0.9082 H   0  0  0  0  0  0  0  0  0  0  0  0
   -1.3791    0.7923   -0.8639 H   0  0  0  0  0  0  0  0  0  0  0  0
   -0.2111   -1.2823    0.9102 H   0  0  0  0  0  0  0  0  0  0  0  0
    0.7289   -0.0853    0.0672 H   0  0  0  0  0  0  0  0  0  0  0  0
   -0.1373   -1.3803   -0.8910 H   0  0  0  0  0  0  0  0  0  0  0  0
  1  2  1  0  0  0  0
  1  3  1  0  0  0  0
  1  5  1  0  0  0  0
  2  8  1  0  0  0  0
  4  1  1  0  0  0  0
  6  2  1  0  0  0  0
  6 10  1  0  0  0  0
  7  2  1  0  0  0  0
  9  6  1  0  0  0  0
  9 13  1  0  0  0  0
  9 12  1  0  0  0  0
 11  6  1  0  0  0  0
 14  9  1  0  0  0  0
M  END
$$$$
