butane_opt
 OpenBabel08242015403D

 14 13  0  0  0  0  0  0  0  0999 V2000
   -3.9461    0.2771    0.0360 C   0  0  0  0  0  0  0  0  0  0  0  0
   -2.6941   -0.6300    0.0016 C   0  0  0  0  0  0  0  0  0  0  0  0
   -4.8499   -0.3316    0.2025 H   0  0  0  0  0  0  0  0  0  0  0  0
   -4.0363    0.9300   -0.8938 H   0  0  0  0  0  0  0  0  0  0  0  0
   -3.8964    0.9095    0.8828 H   0  0  0  0  0  0  0  0  0  0  0  0
   -1.4046    0.1738    0.0022 C   0  0  0  0  0  0  0  0  0  0  0  0
   -2.6963   -1.3542   -0.8804 H   0  0  0  0  0  0  0  0  0  0  0  0
   -2.6966   -1.1789    0.8531 H   0  0  0  0  0  0  0  0  0  0  0  0
   -0.1665   -0.6817    0.0605 C   0  0  0  0  0  0  0  0  0  0  0  0
   -1.3452    0.8277    0.8420 H   0  0  0  0  0  0  0  0  0  0  0  0
   -1.3547    0.8389   -0.9320 H   0  0  0  0  0  0  0  0  0  0  0  0
   -0.1574   -1.3590    0.9751 H   0  0  0  0  0  0  0  0  0  0  0  0
    0.7316   -0.0785   -0.0064 H   0  0  0  0  0  0  0  0  0  0  0  0
   -0.1884   -1.3448   -0.7988 H   0  0  0  0  0  0  0  0  0  0  0  0
  1  3  1  0  0  0  0
  1  5  1  0  0  0  0
  2  6  1  0  0  0  0
  2  1  1  0  0  0  0
  2  8  1  0  0  0  0
  4  1  1  0  0  0  0
  6  9  1  0  0  0  0
  6 10  1  0  0  0  0
  7  2  1  0  0  0  0
  9 12  1  0  0  0  0
 11  6  1  0  0  0  0
 13  9  1  0  0  0  0
 14  9  1  0  0  0  0
M  END
$$$$
