14
butane_opt
C  -3.950602   0.251377  -0.002124
C  -2.703369  -0.605378   0.056490
H  -4.909406  -0.367338   0.106467
H  -3.948304   0.997391  -0.994166
H  -3.962124   0.839543   0.785695
C  -1.409968   0.195553   0.049330
H  -2.746892  -1.281924  -0.814174
H  -2.735114  -1.228031   0.951582
C  -0.139100  -0.699004   0.005659
H  -1.375865   0.898559   0.910812
H  -1.417235   0.812808  -0.853267
H  -0.057452  -1.301539   0.874487
H   0.719739  -0.139425   0.024005
H  -0.146532  -1.420605  -0.872983
