14
butane_opt
C  -3.931603   0.258721   0.001067
C  -2.705251  -0.604723   0.049881
H  -4.845257  -0.348745   0.138127
H  -3.959981   0.991070  -0.972615
H  -3.944492   0.783189   0.751180
C  -1.404774   0.191723   0.047738
H  -2.647763  -1.330618  -0.816221
H  -2.731038  -1.219683   0.950164
C  -0.174064  -0.698617   0.007992
H  -1.356754   0.922188   0.918364
H  -1.396662   0.817805  -0.831453
H  -0.094494  -1.326589   0.883538
H   0.725203  -0.140016   0.007992
H  -0.177378  -1.388645  -0.875227
