14
butane_opt
C  -3.960586   0.269296   0.043894
C  -2.696976  -0.630885   0.002074
H  -4.826714  -0.312141   0.194392
H  -4.067652   0.956190  -0.886963
H  -3.885694   0.874093   0.867288
C  -1.406873   0.180251  -0.008774
H  -2.699515  -1.356685  -0.895007
H  -2.709532  -1.183117   0.859200
C  -0.154745  -0.682469   0.058051
H  -1.387828   0.865426   0.840128
H  -1.324386   0.844460  -0.937022
H  -0.117792  -1.316402   0.980814
H   0.726741  -0.114319   0.057148
H  -0.107085  -1.361845  -0.786150
