14
butane_opt
C  -3.949065   0.263233  -0.000221
C  -2.705956  -0.610449   0.053099
H  -4.852497  -0.331342   0.146876
H  -3.992556   1.018086  -0.984195
H  -3.941698   0.820270   0.774126
C  -1.403542   0.185616   0.028481
H  -2.728155  -1.284701  -0.782493
H  -2.761185  -1.251512   0.972250
C  -0.147823  -0.692764   0.013514
H  -1.369873   0.909183   0.933521
H  -1.388277   0.706904  -0.799541
H  -0.156669  -1.240010   0.875323
H   0.763527  -0.120135   0.021556
H  -0.120106  -1.437920  -0.880809
