butane_opt
 OpenBabel08242015403D

 14 13  0  0  0  0  0  0  0  0999 V2000
   -3.9412    0.2601   -0.0008 C   0  0  0  0  0  0  0  0  0  0  0  0
   -2.6919   -0.6123    0.0500 C   0  0  0  0  0  0  0  0  0  0  0  0
   -4.8643   -0.3489    0.0181 H   0  0  0  0  0  0  0  0  0  0  0  0
   -3.9903    0.8944   -0.9031 H   0  0  0  0  0  0  0  0  0  0  0  0
   -3.9915    0.9488    0.8708 H   0  0  0  0  0  0  0  0  0  0  0  0
   -1.4065    0.1829    0.0353 C   0  0  0  0  0  0  0  0  0  0  0  0
   -2.6734   -1.2662   -0.7875 H   0  0  0  0  0  0  0  0  0  0  0  0
   -2.6881   -1.2874    0.9786 H   0  0  0  0  0  0  0  0  0  0  0  0
   -0.1698   -0.6934    0.0105 C   0  0  0  0  0  0  0  0  0  0  0  0
   -1.3910    0.8884    0.9066 H   0  0  0  0  0  0  0  0  0  0  0  0
   -1.3655    0.7908   -0.8677 H   0  0  0  0  0  0  0  0  0  0  0  0
   -0.0790   -1.3082    0.9391 H   0  0  0  0  0  0  0  0  0  0  0  0
    0.7316   -0.1036   -0.0141 H   0  0  0  0  0  0  0  0  0  0  0  0
   -0.1906   -1.3315   -0.8393 H   0  0  0  0  0  0  0  0  0  0  0  0
  1  3  1  0  0  0  0
  1  2  1  0  0  0  0
  1  5  1  0  0  0  0
  2  8  1  0  0  0  0
  4  1  1  0  0  0  0
  6  2  1  0  0  0  0
  6 10  1  0  0  0  0
  7  2  1  0  0  0  0
  9  6  1  0  0  0  0
  9 12  1  0  0  0  0
 11  6  1  0  0  0  0
 13  9  1  0  0  0  0
 14  9  1  0  0  0  0
M  END
$$$$
