14
butane_opt
C  -3.948105   0.275572   0.001932
C  -2.700883  -0.620968   0.068340
H  -4.842602  -0.325794   0.062624
H  -3.982974   0.919901  -0.937070
H  -3.995250   0.882955   0.807016
C  -1.392739   0.174803   0.008390
H  -2.696831  -1.277262  -0.727950
H  -2.698867  -1.303132   0.989869
C  -0.164171  -0.693197   0.012197
H  -1.393349   0.933472   0.919363
H  -1.379779   0.780043  -0.868940
H  -0.213327  -1.188921   0.821992
H   0.777362  -0.050269   0.176683
H  -0.129080  -1.474374  -0.912094
