butane_opt
 OpenBabel08242015403D

 14 13  0  0  0  0  0  0  0  0999 V2000
   -3.9431    0.2616    0.0019 C   0  0  0  0  0  0  0  0  0  0  0  0
   -2.7083   -0.6084    0.0711 C   0  0  0  0  0  0  0  0  0  0  0  0
   -4.8488   -0.3478   -0.1271 H   0  0  0  0  0  0  0  0  0  0  0  0
   -3.9252    0.7938   -0.8521 H   0  0  0  0  0  0  0  0  0  0  0  0
   -4.0365    0.9738    0.8775 H   0  0  0  0  0  0  0  0  0  0  0  0
   -1.4174    0.1848    0.0163 C   0  0  0  0  0  0  0  0  0  0  0  0
   -2.7419   -1.2495   -0.7471 H   0  0  0  0  0  0  0  0  0  0  0  0
   -2.7051   -1.2392    0.9442 H   0  0  0  0  0  0  0  0  0  0  0  0
   -0.1425   -0.7024    0.0162 C   0  0  0  0  0  0  0  0  0  0  0  0
   -1.3745    0.8842    0.8969 H   0  0  0  0  0  0  0  0  0  0  0  0
   -1.3966    0.8116   -0.8503 H   0  0  0  0  0  0  0  0  0  0  0  0
   -0.0902   -1.2941    0.9119 H   0  0  0  0  0  0  0  0  0  0  0  0
    0.7824   -0.1026   -0.0501 H   0  0  0  0  0  0  0  0  0  0  0  0
   -0.1507   -1.3334   -0.8308 H   0  0  0  0  0  0  0  0  0  0  0  0
  1  2  1  0  0  0  0
  1  5  1  0  0  0  0
  2  8  1  0  0  0  0
  3  1  1  0  0  0  0
  4  1  1  0  0  0  0
  6  2  1  0  0  0  0
  6 10  1  0  0  0  0
  7  2  1  0  0  0  0
  9  6  1  0  0  0  0
  9 12  1  0  0  0  0
 11  6  1  0  0  0  0
 13  9  1  0  0  0  0
 14  9  1  0  0  0  0
M  END
$$$$
