14
butane_opt
C  -3.929894   0.254599  -0.005703
C  -2.699973  -0.619828   0.068430
H  -4.834495  -0.324583   0.001746
H  -3.910371   0.956783  -0.964629
H  -3.977337   0.868730   0.819654
C  -1.416615   0.197806   0.040660
H  -2.674777  -1.263254  -0.771125
H  -2.715313  -1.207087   0.949741
C  -0.165436  -0.701166   0.006912
H  -1.391305   0.907545   0.931358
H  -1.426976   0.799253  -0.812440
H  -0.094608  -1.305210   0.891545
H   0.759119  -0.100488  -0.050425
H  -0.211384  -1.384133  -0.889171
