14
butane_opt
C  -3.947592   0.259862   0.037770
C  -2.712559  -0.607186   0.030387
H  -4.894642  -0.357143   0.019584
H  -3.967929   0.888466  -0.866858
H  -3.956086   0.909436   0.914076
C  -1.405554   0.197440  -0.016775
H  -2.735635  -1.318179  -0.823827
H  -2.732940  -1.254543   0.958227
C  -0.141706  -0.701924   0.048156
H  -1.454541   0.834672   0.785341
H  -1.397208   0.863113  -0.926395
H  -0.150562  -1.238629   0.877872
H   0.796769  -0.103253   0.152831
H  -0.042582  -1.472425  -0.859178
