butane_opt
 OpenBabel08242015403D

 14 13  0  0  0  0  0  0  0  0999 V2000
   -3.9458    0.2626   -0.0031 C   0  0  0  0  0  0  0  0  0  0  0  0
   -2.7087   -0.6185    0.0502 C   0  0  0  0  0  0  0  0  0  0  0  0
   -4.8678   -0.3595    0.1070 H   0  0  0  0  0  0  0  0  0  0  0  0
   -3.9986    0.9975   -0.9676 H   0  0  0  0  0  0  0  0  0  0  0  0
   -3.9457    0.8094    0.8007 H   0  0  0  0  0  0  0  0  0  0  0  0
   -1.3922    0.2070    0.0365 C   0  0  0  0  0  0  0  0  0  0  0  0
   -2.7402   -1.2559   -0.8003 H   0  0  0  0  0  0  0  0  0  0  0  0
   -2.7233   -1.2670    0.9586 H   0  0  0  0  0  0  0  0  0  0  0  0
   -0.1538   -0.7011    0.0117 C   0  0  0  0  0  0  0  0  0  0  0  0
   -1.3668    0.9363    0.9279 H   0  0  0  0  0  0  0  0  0  0  0  0
   -1.4298    0.7368   -0.7717 H   0  0  0  0  0  0  0  0  0  0  0  0
   -0.1004   -1.3204    0.9199 H   0  0  0  0  0  0  0  0  0  0  0  0
    0.7222   -0.1510   -0.0132 H   0  0  0  0  0  0  0  0  0  0  0  0
   -0.1580   -1.4017   -0.8814 H   0  0  0  0  0  0  0  0  0  0  0  0
  1  2  1  0  0  0  0
  1  3  1  0  0  0  0
  1  5  1  0  0  0  0
  2  8  1  0  0  0  0
  4  1  1  0  0  0  0
  6  2  1  0  0  0  0
  6 10  1  0  0  0  0
  7  2  1  0  0  0  0
  9  6  1  0  0  0  0
  9 12  1  0  0  0  0
 11  6  1  0  0  0  0
 13  9  1  0  0  0  0
 14  9  1  0  0  0  0
M  END
$$$$
