butane_opt
 OpenBabel08242015403D

 14 13  0  0  0  0  0  0  0  0999 V2000
   -3.9454    0.2492   -0.0113 C   0  0  0  0  0  0  0  0  0  0  0  0
   -2.7092   -0.6061    0.0693 C   0  0  0  0  0  0  0  0  0  0  0  0
   -4.8137   -0.3169    0.0438 H   0  0  0  0  0  0  0  0  0  0  0  0
   -3.9627    0.9144   -0.9379 H   0  0  0  0  0  0  0  0  0  0  0  0
   -3.9572    0.9119    0.8565 H   0  0  0  0  0  0  0  0  0  0  0  0
   -1.4050    0.2024    0.0314 C   0  0  0  0  0  0  0  0  0  0  0  0
   -2.7151   -1.2210   -0.7158 H   0  0  0  0  0  0  0  0  0  0  0  0
   -2.7800   -1.2818    1.0007 H   0  0  0  0  0  0  0  0  0  0  0  0
   -0.1503   -0.7083    0.0062 C   0  0  0  0  0  0  0  0  0  0  0  0
   -1.3361    0.8602    0.8677 H   0  0  0  0  0  0  0  0  0  0  0  0
   -1.4278    0.8177   -0.8618 H   0  0  0  0  0  0  0  0  0  0  0  0
   -0.1381   -1.1895    0.8001 H   0  0  0  0  0  0  0  0  0  0  0  0
    0.7402   -0.1310    0.1383 H   0  0  0  0  0  0  0  0  0  0  0  0
   -0.1094   -1.4815   -0.9067 H   0  0  0  0  0  0  0  0  0  0  0  0
  1  3  1  0  0  0  0
  1  2  1  0  0  0  0
  1  5  1  0  0  0  0
  2  8  1  0  0  0  0
  4  1  1  0  0  0  0
  6  2  1  0  0  0  0
  6 10  1  0  0  0  0
  7  2  1  0  0  0  0
  9  6  1  0  0  0  0
  9 13  1  0  0  0  0
  9 12  1  0  0  0  0
 11  6  1  0  0  0  0
 14  9  1  0  0  0  0
M  END
$$$$
