butane_opt
 OpenBabel08242015403D

 14 13  0  0  0  0  0  0  0  0999 V2000
   -3.9437    0.2647   -0.0176 C   0  0  0  0  0  0  0  0  0  0  0  0
   -2.7018   -0.6129    0.0715 C   0  0  0  0  0  0  0  0  0  0  0  0
   -4.8636   -0.3364   -0.0098 H   0  0  0  0  0  0  0  0  0  0  0  0
   -3.9329    0.8935   -0.9330 H   0  0  0  0  0  0  0  0  0  0  0  0
   -4.0176    0.8591    0.7917 H   0  0  0  0  0  0  0  0  0  0  0  0
   -1.4066    0.1909    0.0593 C   0  0  0  0  0  0  0  0  0  0  0  0
   -2.6709   -1.3193   -0.7671 H   0  0  0  0  0  0  0  0  0  0  0  0
   -2.7701   -1.2472    0.9699 H   0  0  0  0  0  0  0  0  0  0  0  0
   -0.1590   -0.6894   -0.0048 C   0  0  0  0  0  0  0  0  0  0  0  0
   -1.3750    0.9212    0.9534 H   0  0  0  0  0  0  0  0  0  0  0  0
   -1.4152    0.7802   -0.8014 H   0  0  0  0  0  0  0  0  0  0  0  0
    0.0337   -1.3722    0.9289 H   0  0  0  0  0  0  0  0  0  0  0  0
    0.7347   -0.1511   -0.1353 H   0  0  0  0  0  0  0  0  0  0  0  0
   -0.2193   -1.3349   -0.8535 H   0  0  0  0  0  0  0  0  0  0  0  0
  1  3  1  0  0  0  0
  1  2  1  0  0  0  0
  1  5  1  0  0  0  0
  2  8  1  0  0  0  0
  4  1  1  0  0  0  0
  6  2  1  0  0  0  0
  6 10  1  0  0  0  0
  7  2  1  0  0  0  0
  9  6  1  0  0  0  0
  9 12  1  0  0  0  0
 11  6  1  0  0  0  0
 13  9  1  0  0  0  0
 14  9  1  0  0  0  0
M  END
$$$$
