14
butane_opt
C  -3.951473   0.286020   0.034057
C  -2.691198  -0.631983   0.017693
H  -4.873453  -0.340902  -0.016028
H  -3.934989   0.838936  -0.824260
H  -3.993489   0.966541   0.925328
C  -1.400196   0.167464   0.001641
H  -2.719400  -1.312587  -0.830909
H  -2.651363  -1.242115   0.893694
C  -0.171359  -0.678068   0.038217
H  -1.413158   0.873293   0.844975
H  -1.365659   0.765259  -0.868918
H  -0.111196  -1.445394   1.020245
H   0.780024  -0.031368  -0.050838
H  -0.183640  -1.255220  -0.737651
