14
butane_opt
C  -3.933369   0.261549   0.036549
C  -2.694886  -0.606784   0.019017
H  -4.868650  -0.366442  -0.027323
H  -3.924623   0.751714  -0.793358
H  -3.971025   1.062634   0.976415
C  -1.410886   0.181990  -0.006956
H  -2.742762  -1.291893  -0.848387
H  -2.672684  -1.234476   0.903349
C  -0.169866  -0.693664   0.051800
H  -1.441119   0.779268   0.770799
H  -1.418783   0.855292  -0.949515
H  -0.110170  -1.354422   1.000700
H   0.748492  -0.094288   0.000584
H  -0.117851  -1.296048  -0.776465
