butane_opt
 OpenBabel08242015403D

 14 13  0  0  0  0  0  0  0  0999 V2000
   -3.9244    0.2590    0.0201 C   0  0  0  0  0  0  0  0  0  0  0  0
   -2.7017   -0.6022    0.0273 C   0  0  0  0  0  0  0  0  0  0  0  0
   -4.8427   -0.3720    0.0225 H   0  0  0  0  0  0  0  0  0  0  0  0
   -3.9637    0.8247   -0.8361 H   0  0  0  0  0  0  0  0  0  0  0  0
   -3.9553    0.9243    0.8829 H   0  0  0  0  0  0  0  0  0  0  0  0
   -1.4128    0.1962    0.0104 C   0  0  0  0  0  0  0  0  0  0  0  0
   -2.7197   -1.2999   -0.8343 H   0  0  0  0  0  0  0  0  0  0  0  0
   -2.6936   -1.2030    0.9168 H   0  0  0  0  0  0  0  0  0  0  0  0
   -0.1734   -0.7048    0.0316 C   0  0  0  0  0  0  0  0  0  0  0  0
   -1.3671    0.9212    0.9084 H   0  0  0  0  0  0  0  0  0  0  0  0
   -1.3652    0.7763   -0.8558 H   0  0  0  0  0  0  0  0  0  0  0  0
   -0.0956   -1.4553    1.0037 H   0  0  0  0  0  0  0  0  0  0  0  0
    0.7145   -0.1226   -0.0879 H   0  0  0  0  0  0  0  0  0  0  0  0
   -0.1790   -1.2488   -0.7396 H   0  0  0  0  0  0  0  0  0  0  0  0
  1  3  1  0  0  0  0
  1  2  1  0  0  0  0
  1  5  1  0  0  0  0
  2  8  1  0  0  0  0
  4  1  1  0  0  0  0
  6  2  1  0  0  0  0
  6  9  1  0  0  0  0
  6 10  1  0  0  0  0
  7  2  1  0  0  0  0
  9 12  1  0  0  0  0
 11  6  1  0  0  0  0
 13  9  1  0  0  0  0
 14  9  1  0  0  0  0
M  END
$$$$
