butane_opt
 OpenBabel08242015403D

 14 13  0  0  0  0  0  0  0  0999 V2000
   -3.9300    0.2751    0.0476 C   0  0  0  0  0  0  0  0  0  0  0  0
   -2.6978   -0.6293    0.0197 C   0  0  0  0  0  0  0  0  0  0  0  0
   -4.8109   -0.3181    0.0086 H   0  0  0  0  0  0  0  0  0  0  0  0
   -4.0200    0.8823   -0.8364 H   0  0  0  0  0  0  0  0  0  0  0  0
   -3.9642    1.0017    0.9463 H   0  0  0  0  0  0  0  0  0  0  0  0
   -1.4091    0.1734   -0.0238 C   0  0  0  0  0  0  0  0  0  0  0  0
   -2.7706   -1.3556   -0.8619 H   0  0  0  0  0  0  0  0  0  0  0  0
   -2.6702   -1.2262    0.8727 H   0  0  0  0  0  0  0  0  0  0  0  0
   -0.1721   -0.6857    0.0576 C   0  0  0  0  0  0  0  0  0  0  0  0
   -1.3728    0.7884    0.7944 H   0  0  0  0  0  0  0  0  0  0  0  0
   -1.3606    0.8681   -0.9522 H   0  0  0  0  0  0  0  0  0  0  0  0
   -0.2278   -1.3054    0.9524 H   0  0  0  0  0  0  0  0  0  0  0  0
    0.7689   -0.0613    0.1136 H   0  0  0  0  0  0  0  0  0  0  0  0
   -0.0921   -1.3395   -0.8104 H   0  0  0  0  0  0  0  0  0  0  0  0
  1  5  1  0  0  0  0
  2  1  1  0  0  0  0
  2  8  1  0  0  0  0
  3  1  1  0  0  0  0
  4  1  1  0  0  0  0
  6  2  1  0  0  0  0
  6  9  1  0  0  0  0
  6 10  1  0  0  0  0
  7  2  1  0  0  0  0
  9 13  1  0  0  0  0
  9 12  1  0  0  0  0
 11  6  1  0  0  0  0
 14  9  1  0  0  0  0
M  END
$$$$
