14
butane_opt
C  -3.934537   0.273083   0.014392
C  -2.701275  -0.634085   0.040346
H  -4.832916  -0.300235   0.124704
H  -4.027802   0.989275  -0.943071
H  -3.904704   0.875466   0.803347
C  -1.403600   0.178617   0.023615
H  -2.671597  -1.291810  -0.820255
H  -2.699993  -1.253297   0.940285
C  -0.176547  -0.689555   0.017081
H  -1.394013   0.887514   0.881467
H  -1.388325   0.767084  -0.852179
H  -0.182731  -1.255443   0.892937
H   0.766192  -0.065851   0.083493
H  -0.102090  -1.355716  -0.828556
