butane_opt
 OpenBabel08242015403D

 14 13  0  0  0  0  0  0  0  0999 V2000
   -3.9501    0.2594    0.0107 C   0  0  0  0  0  0  0  0  0  0  0  0
   -2.7050   -0.6086    0.0471 C   0  0  0  0  0  0  0  0  0  0  0  0
   -4.8558   -0.3301    0.0580 H   0  0  0  0  0  0  0  0  0  0  0  0
   -3.9834    0.8821   -0.8876 H   0  0  0  0  0  0  0  0  0  0  0  0
   -3.9289    0.9172    0.8683 H   0  0  0  0  0  0  0  0  0  0  0  0
   -1.4045    0.1936    0.0072 C   0  0  0  0  0  0  0  0  0  0  0  0
   -2.7325   -1.2184   -0.7524 H   0  0  0  0  0  0  0  0  0  0  0  0
   -2.7290   -1.2826    0.9652 H   0  0  0  0  0  0  0  0  0  0  0  0
   -0.1481   -0.7044    0.0270 C   0  0  0  0  0  0  0  0  0  0  0  0
   -1.3807    0.8326    0.8343 H   0  0  0  0  0  0  0  0  0  0  0  0
   -1.3673    0.8425   -0.8689 H   0  0  0  0  0  0  0  0  0  0  0  0
   -0.2197   -1.2145    0.8697 H   0  0  0  0  0  0  0  0  0  0  0  0
    0.7716   -0.0745    0.1408 H   0  0  0  0  0  0  0  0  0  0  0  0
   -0.1007   -1.5116   -0.9115 H   0  0  0  0  0  0  0  0  0  0  0  0
  1  2  1  0  0  0  0
  1  3  1  0  0  0  0
  1  5  1  0  0  0  0
  2  8  1  0  0  0  0
  4  1  1  0  0  0  0
  6  9  1  0  0  0  0
  6  2  1  0  0  0  0
  6 10  1  0  0  0  0
  7  2  1  0  0  0  0
  9 13  1  0  0  0  0
  9 12  1  0  0  0  0
 11  6  1  0  0  0  0
 14  9  1  0  0  0  0
M  END
$$$$
