14
butane_opt
C  -3.942206   0.273016   0.030619
C  -2.696241  -0.617746   0.024442
H  -4.843710  -0.332746  -0.027429
H  -3.911314   0.794048  -0.784598
H  -3.992573   1.028167   0.951278
C  -1.406820   0.171012  -0.007544
H  -2.754173  -1.315441  -0.844443
H  -2.662598  -1.280201   0.942783
C  -0.157176  -0.684281   0.049143
H  -1.441859   0.798071   0.803894
H  -1.393279   0.878617  -0.922153
H  -0.174119  -1.321989   0.947936
H   0.772603  -0.089509   0.020558
H  -0.194966  -1.332415  -0.798283
