14
butane_opt
C  -3.958859   0.266720   0.042718
C  -2.693692  -0.627950   0.018915
H  -4.839477  -0.313394  -0.054257
H  -3.954447   0.823644  -0.800405
H  -4.017377   1.028771   0.945996
C  -1.396576   0.187161  -0.011035
H  -2.735580  -1.315662  -0.859282
H  -2.742668  -1.254416   0.909370
C  -0.153063  -0.691115   0.052564
H  -1.398696   0.836489   0.823412
H  -1.347219   0.854672  -0.946543
H  -0.089308  -1.335131   0.986167
H   0.699974  -0.130782  -0.023689
H  -0.169691  -1.288008  -0.762664
