14
butane_opt
C  -3.954137   0.251859   0.017309
C  -2.708398  -0.597215   0.041505
H  -4.884752  -0.376651  -0.044657
H  -3.919312   0.783365  -0.830539
H  -3.994340   1.019619   0.959120
C  -1.413095   0.191397   0.002510
H  -2.709130  -1.278527  -0.803917
H  -2.719270  -1.253967   0.960806
C  -0.136528  -0.700913   0.033671
H  -1.347263   0.839366   0.834525
H  -1.397492   0.881652  -0.908822
H  -0.110964  -1.327150   0.926621
H   0.720851  -0.149536   0.023553
H  -0.103032  -1.362665  -0.802583
