butane_opt
 OpenBabel08242015403D

 14 13  0  0  0  0  0  0  0  0999 V2000
   -3.9541    0.2768   -0.0121 C   0  0  0  0  0  0  0  0  0  0  0  0
   -2.6904   -0.6264    0.0693 C   0  0  0  0  0  0  0  0  0  0  0  0
   -4.8497   -0.3183   -0.0136 H   0  0  0  0  0  0  0  0  0  0  0  0
   -3.9280    0.9137   -0.9345 H   0  0  0  0  0  0  0  0  0  0  0  0
   -4.0247    0.9114    0.8116 H   0  0  0  0  0  0  0  0  0  0  0  0
   -1.4073    0.1637    0.0552 C   0  0  0  0  0  0  0  0  0  0  0  0
   -2.6256   -1.2761   -0.7551 H   0  0  0  0  0  0  0  0  0  0  0  0
   -2.7434   -1.2442    0.9538 H   0  0  0  0  0  0  0  0  0  0  0  0
   -0.1675   -0.6799   -0.0109 C   0  0  0  0  0  0  0  0  0  0  0  0
   -1.3137    0.8997    0.9602 H   0  0  0  0  0  0  0  0  0  0  0  0
   -1.4158    0.7219   -0.8170 H   0  0  0  0  0  0  0  0  0  0  0  0
   -0.0822   -1.3471    0.9145 H   0  0  0  0  0  0  0  0  0  0  0  0
    0.7628   -0.0569   -0.0896 H   0  0  0  0  0  0  0  0  0  0  0  0
   -0.1835   -1.2757   -0.7973 H   0  0  0  0  0  0  0  0  0  0  0  0
  1  2  1  0  0  0  0
  1  5  1  0  0  0  0
  2  8  1  0  0  0  0
  3  1  1  0  0  0  0
  4  1  1  0  0  0  0
  6  2  1  0  0  0  0
  6 10  1  0  0  0  0
  7  2  1  0  0  0  0
  9  6  1  0  0  0  0
  9 12  1  0  0  0  0
 11  6  1  0  0  0  0
 13  9  1  0  0  0  0
 14  9  1  0  0  0  0
M  END
$$$$
