14
butane_opt
C  -3.945524   0.281316  -0.013745
C  -2.696134  -0.631327   0.066617
H  -4.906805  -0.336279  -0.036324
H  -3.949514   0.837806  -0.885689
H  -4.018682   0.989827   0.876502
C  -1.400065   0.168274   0.040059
H  -2.663018  -1.255493  -0.737277
H  -2.693954  -1.312427   1.023913
C  -0.165820  -0.680794   0.002611
H  -1.354664   0.876952   0.915886
H  -1.408094   0.812675  -0.866436
H  -0.124933  -1.315505   0.896187
H   0.767587  -0.059622   0.007200
H  -0.183455  -1.365386  -0.894224
