butane_opt
 OpenBabel08242015403D

 14 13  0  0  0  0  0  0  0  0999 V2000
   -3.9513    0.2644    0.0468 C   0  0  0  0  0  0  0  0  0  0  0  0
   -2.7052   -0.6203   -0.0074 C   0  0  0  0  0  0  0  0  0  0  0  0
   -4.8799   -0.3476    0.1998 H   0  0  0  0  0  0  0  0  0  0  0  0
   -4.0560    0.9146   -0.8589 H   0  0  0  0  0  0  0  0  0  0  0  0
   -3.8520    0.9143    0.9069 H   0  0  0  0  0  0  0  0  0  0  0  0
   -1.4007    0.1945   -0.0097 C   0  0  0  0  0  0  0  0  0  0  0  0
   -2.7758   -1.3468   -0.8971 H   0  0  0  0  0  0  0  0  0  0  0  0
   -2.7090   -1.1876    0.8313 H   0  0  0  0  0  0  0  0  0  0  0  0
   -0.1513   -0.6969    0.0701 C   0  0  0  0  0  0  0  0  0  0  0  0
   -1.3902    0.8416    0.8096 H   0  0  0  0  0  0  0  0  0  0  0  0
   -1.3335    0.8922   -0.9798 H   0  0  0  0  0  0  0  0  0  0  0  0
   -0.1529   -1.3522    0.9823 H   0  0  0  0  0  0  0  0  0  0  0  0
    0.7119   -0.1328    0.0375 H   0  0  0  0  0  0  0  0  0  0  0  0
   -0.0823   -1.3725   -0.7910 H   0  0  0  0  0  0  0  0  0  0  0  0
  1  3  1  0  0  0  0
  1  5  1  0  0  0  0
  2  1  1  0  0  0  0
  2  8  1  0  0  0  0
  4  1  1  0  0  0  0
  6  2  1  0  0  0  0
  6  9  1  0  0  0  0
  6 10  1  0  0  0  0
  7  2  1  0  0  0  0
  9 12  1  0  0  0  0
 11  6  1  0  0  0  0
 13  9  1  0  0  0  0
 14  9  1  0  0  0  0
M  END
$$$$
