butane_opt
 OpenBabel08242015403D

 14 13  0  0  0  0  0  0  0  0999 V2000
   -3.9453    0.2577    0.0017 C   0  0  0  0  0  0  0  0  0  0  0  0
   -2.7092   -0.6100    0.0510 C   0  0  0  0  0  0  0  0  0  0  0  0
   -4.8182   -0.3015   -0.0188 H   0  0  0  0  0  0  0  0  0  0  0  0
   -3.9458    0.8787   -0.9025 H   0  0  0  0  0  0  0  0  0  0  0  0
   -4.0339    0.9019    0.8340 H   0  0  0  0  0  0  0  0  0  0  0  0
   -1.3939    0.1930    0.0394 C   0  0  0  0  0  0  0  0  0  0  0  0
   -2.7187   -1.2628   -0.7912 H   0  0  0  0  0  0  0  0  0  0  0  0
   -2.7616   -1.2755    0.9614 H   0  0  0  0  0  0  0  0  0  0  0  0
   -0.1478   -0.6972    0.0046 C   0  0  0  0  0  0  0  0  0  0  0  0
   -1.3960    0.9329    0.9576 H   0  0  0  0  0  0  0  0  0  0  0  0
   -1.4270    0.7635   -0.8188 H   0  0  0  0  0  0  0  0  0  0  0  0
   -0.0628   -1.4090    0.9624 H   0  0  0  0  0  0  0  0  0  0  0  0
    0.7195   -0.1188   -0.0916 H   0  0  0  0  0  0  0  0  0  0  0  0
   -0.2215   -1.3002   -0.8028 H   0  0  0  0  0  0  0  0  0  0  0  0
  1  2  1  0  0  0  0
  1  5  1  0  0  0  0
  2  8  1  0  0  0  0
  3  1  1  0  0  0  0
  4  1  1  0  0  0  0
  6  2  1  0  0  0  0
  6 10  1  0  0  0  0
  7  2  1  0  0  0  0
  9  6  1  0  0  0  0
  9 12  1  0  0  0  0
 11  6  1  0  0  0  0
 13  9  1  0  0  0  0
 14  9  1  0  0  0  0
M  END
$$$$
