14
butane_opt
C  -3.950323   0.248809  -0.001510
C  -2.709466  -0.602276   0.045050
H  -4.843514  -0.352738   0.147221
H  -4.007323   0.945517  -0.952273
H  -3.938326   0.840742   0.814352
C  -1.407022   0.204660   0.033238
H  -2.751217  -1.227918  -0.790779
H  -2.723006  -1.261159   0.950439
C  -0.137435  -0.702327   0.022238
H  -1.421049   0.894251   0.893230
H  -1.422802   0.779428  -0.836637
H  -0.065976  -1.292232   0.897424
H   0.758885  -0.140511   0.038417
H  -0.154886  -1.443109  -0.920285
