butane_opt
 OpenBabel08242015403D

 14 13  0  0  0  0  0  0  0  0999 V2000
   -3.9392    0.2600    0.0354 C   0  0  0  0  0  0  0  0  0  0  0  0
   -2.7045   -0.6128    0.0281 C   0  0  0  0  0  0  0  0  0  0  0  0
   -4.8695   -0.3332   -0.0182 H   0  0  0  0  0  0  0  0  0  0  0  0
   -3.9508    0.7716   -0.7737 H   0  0  0  0  0  0  0  0  0  0  0  0
   -3.9357    0.9819    0.9458 H   0  0  0  0  0  0  0  0  0  0  0  0
   -1.4136    0.2020   -0.0177 C   0  0  0  0  0  0  0  0  0  0  0  0
   -2.7614   -1.3248   -0.8702 H   0  0  0  0  0  0  0  0  0  0  0  0
   -2.7562   -1.2131    0.9225 H   0  0  0  0  0  0  0  0  0  0  0  0
   -0.1522   -0.7048    0.0512 C   0  0  0  0  0  0  0  0  0  0  0  0
   -1.4298    0.8510    0.7949 H   0  0  0  0  0  0  0  0  0  0  0  0
   -1.3922    0.8796   -0.9596 H   0  0  0  0  0  0  0  0  0  0  0  0
   -0.0959   -1.3523    0.9834 H   0  0  0  0  0  0  0  0  0  0  0  0
    0.7663   -0.1124    0.0544 H   0  0  0  0  0  0  0  0  0  0  0  0
   -0.0914   -1.3565   -0.7890 H   0  0  0  0  0  0  0  0  0  0  0  0
  1  5  1  0  0  0  0
  2  1  1  0  0  0  0
  2  8  1  0  0  0  0
  3  1  1  0  0  0  0
  4  1  1  0  0  0  0
  6  2  1  0  0  0  0
  6  9  1  0  0  0  0
  6 10  1  0  0  0  0
  7  2  1  0  0  0  0
  9 13  1  0  0  0  0
  9 12  1  0  0  0  0
 11  6  1  0  0  0  0
 14  9  1  0  0  0  0
M  END
$$$$
