butane_opt
 OpenBabel08242015403D

 14 13  0  0  0  0  0  0  0  0999 V2000
   -3.9650    0.2698    0.0410 C   0  0  0  0  0  0  0  0  0  0  0  0
   -2.6953   -0.6247    0.0260 C   0  0  0  0  0  0  0  0  0  0  0  0
   -4.8660   -0.2949   -0.1451 H   0  0  0  0  0  0  0  0  0  0  0  0
   -3.9594    0.7498   -0.7646 H   0  0  0  0  0  0  0  0  0  0  0  0
   -4.0125    1.0709    1.0133 H   0  0  0  0  0  0  0  0  0  0  0  0
   -1.3931    0.1808   -0.0214 C   0  0  0  0  0  0  0  0  0  0  0  0
   -2.7273   -1.3140   -0.8246 H   0  0  0  0  0  0  0  0  0  0  0  0
   -2.7089   -1.2689    0.9307 H   0  0  0  0  0  0  0  0  0  0  0  0
   -0.1516   -0.6886    0.0497 C   0  0  0  0  0  0  0  0  0  0  0  0
   -1.3798    0.8380    0.8173 H   0  0  0  0  0  0  0  0  0  0  0  0
   -1.4336    0.8476   -0.9673 H   0  0  0  0  0  0  0  0  0  0  0  0
   -0.1664   -1.3870    1.0229 H   0  0  0  0  0  0  0  0  0  0  0  0
    0.7845   -0.0499    0.0101 H   0  0  0  0  0  0  0  0  0  0  0  0
   -0.1054   -1.3074   -0.7776 H   0  0  0  0  0  0  0  0  0  0  0  0
  1  5  1  0  0  0  0
  2  1  1  0  0  0  0
  2  8  1  0  0  0  0
  3  1  1  0  0  0  0
  4  1  1  0  0  0  0
  6  2  1  0  0  0  0
  6  9  1  0  0  0  0
  6 10  1  0  0  0  0
  7  2  1  0  0  0  0
  9 12  1  0  0  0  0
 11  6  1  0  0  0  0
 13  9  1  0  0  0  0
 14  9  1  0  0  0  0
M  END
$$$$
