butane_opt
 OpenBabel08242015403D

 14 13  0  0  0  0  0  0  0  0999 V2000
   -3.9361    0.2551   -0.0113 C   0  0  0  0  0  0  0  0  0  0  0  0
   -2.6979   -0.5970    0.0791 C   0  0  0  0  0  0  0  0  0  0  0  0
   -4.8664   -0.3638   -0.0712 H   0  0  0  0  0  0  0  0  0  0  0  0
   -3.9190    0.8349   -0.8883 H   0  0  0  0  0  0  0  0  0  0  0  0
   -3.9714    0.8939    0.8330 H   0  0  0  0  0  0  0  0  0  0  0  0
   -1.4098    0.1962    0.0332 C   0  0  0  0  0  0  0  0  0  0  0  0
   -2.7341   -1.2267   -0.7621 H   0  0  0  0  0  0  0  0  0  0  0  0
   -2.7389   -1.2888    1.0262 H   0  0  0  0  0  0  0  0  0  0  0  0
   -0.1663   -0.7017   -0.0054 C   0  0  0  0  0  0  0  0  0  0  0  0
   -1.3404    0.9095    0.9243 H   0  0  0  0  0  0  0  0  0  0  0  0
   -1.4635    0.8029   -0.8385 H   0  0  0  0  0  0  0  0  0  0  0  0
   -0.1240   -1.3033    0.8720 H   0  0  0  0  0  0  0  0  0  0  0  0
    0.7304   -0.1314    0.0513 H   0  0  0  0  0  0  0  0  0  0  0  0
   -0.0738   -1.4370   -0.8608 H   0  0  0  0  0  0  0  0  0  0  0  0
  1  2  1  0  0  0  0
  1  5  1  0  0  0  0
  2  8  1  0  0  0  0
  3  1  1  0  0  0  0
  4  1  1  0  0  0  0
  6  2  1  0  0  0  0
  6 10  1  0  0  0  0
  7  2  1  0  0  0  0
  9  6  1  0  0  0  0
  9 13  1  0  0  0  0
  9 12  1  0  0  0  0
 11  6  1  0  0  0  0
 14  9  1  0  0  0  0
M  END
$$$$
