14
butane_opt
C  -3.938283   0.258148  -0.005908
C  -2.696376  -0.606242   0.072705
H  -4.861488  -0.361629   0.088957
H  -3.934334   0.931700  -0.978651
H  -3.991146   0.853285   0.793499
C  -1.414850   0.189064   0.034028
H  -2.705182  -1.271884  -0.763318
H  -2.715954  -1.252084   0.986633
C  -0.163659  -0.700545   0.003538
H  -1.318253   0.879739   0.893532
H  -1.427969   0.862117  -0.879182
H  -0.172770  -1.191306   0.808768
H   0.745686  -0.104671   0.153401
H  -0.077780  -1.509360  -0.929513
