14
butane_opt
C  -3.952540   0.276742   0.020196
C  -2.703318  -0.636441   0.025964
H  -4.854821  -0.310468   0.098760
H  -4.046067   0.949019  -0.895594
H  -3.977954   0.891840   0.848787
C  -1.391811   0.184552   0.021235
H  -2.687617  -1.322334  -0.810277
H  -2.673422  -1.238805   0.883793
C  -0.163502  -0.687865   0.034181
H  -1.408156   0.843825   0.883622
H  -1.307577   0.831954  -0.882273
H  -0.121591  -1.327371   0.914485
H   0.769793  -0.082852  -0.014060
H  -0.181768  -1.344129  -0.815974
