butane_opt
 OpenBabel08242015403D

 14 13  0  0  0  0  0  0  0  0999 V2000
   -3.9533    0.2540    0.0072 C   0  0  0  0  0  0  0  0  0  0  0  0
   -2.7010   -0.6003    0.0600 C   0  0  0  0  0  0  0  0  0  0  0  0
   -4.8900   -0.3683    0.0586 H   0  0  0  0  0  0  0  0  0  0  0  0
   -3.9754    0.9509   -0.9606 H   0  0  0  0  0  0  0  0  0  0  0  0
   -3.9581    0.8520    0.8348 H   0  0  0  0  0  0  0  0  0  0  0  0
   -1.4080    0.1935    0.0072 C   0  0  0  0  0  0  0  0  0  0  0  0
   -2.7187   -1.2502   -0.7741 H   0  0  0  0  0  0  0  0  0  0  0  0
   -2.7277   -1.2712    0.9928 H   0  0  0  0  0  0  0  0  0  0  0  0
   -0.1421   -0.6992    0.0231 C   0  0  0  0  0  0  0  0  0  0  0  0
   -1.3809    0.9018    0.9077 H   0  0  0  0  0  0  0  0  0  0  0  0
   -1.3987    0.7589   -0.8409 H   0  0  0  0  0  0  0  0  0  0  0  0
   -0.1547   -1.2174    0.8484 H   0  0  0  0  0  0  0  0  0  0  0  0
    0.7320   -0.1312    0.1174 H   0  0  0  0  0  0  0  0  0  0  0  0
   -0.0886   -1.4812   -0.9385 H   0  0  0  0  0  0  0  0  0  0  0  0
  1  3  1  0  0  0  0
  1  2  1  0  0  0  0
  1  5  1  0  0  0  0
  2  8  1  0  0  0  0
  4  1  1  0  0  0  0
  6  9  1  0  0  0  0
  6  2  1  0  0  0  0
  6 10  1  0  0  0  0
  7  2  1  0  0  0  0
  9 13  1  0  0  0  0
  9 12  1  0  0  0  0
 11  6  1  0  0  0  0
 14  9  1  0  0  0  0
M  END
$$$$
