butane_opt
 OpenBabel08242015403D

 14 13  0  0  0  0  0  0  0  0999 V2000
   -3.9257    0.2535    0.0272 C   0  0  0  0  0  0  0  0  0  0  0  0
   -2.6906   -0.6078    0.0411 C   0  0  0  0  0  0  0  0  0  0  0  0
   -4.8421   -0.3391   -0.0556 H   0  0  0  0  0  0  0  0  0  0  0  0
   -3.8943    0.8070   -0.8403 H   0  0  0  0  0  0  0  0  0  0  0  0
   -4.0363    1.0386    0.9572 H   0  0  0  0  0  0  0  0  0  0  0  0
   -1.4109    0.1887   -0.0159 C   0  0  0  0  0  0  0  0  0  0  0  0
   -2.7539   -1.2746   -0.8062 H   0  0  0  0  0  0  0  0  0  0  0  0
   -2.7524   -1.2240    0.9308 H   0  0  0  0  0  0  0  0  0  0  0  0
   -0.1745   -0.7011    0.0415 C   0  0  0  0  0  0  0  0  0  0  0  0
   -1.4019    0.8946    0.8533 H   0  0  0  0  0  0  0  0  0  0  0  0
   -1.4084    0.8061   -0.8760 H   0  0  0  0  0  0  0  0  0  0  0  0
   -0.1255   -1.3499    0.9520 H   0  0  0  0  0  0  0  0  0  0  0  0
    0.7578   -0.0996   -0.0166 H   0  0  0  0  0  0  0  0  0  0  0  0
   -0.1405   -1.3315   -0.7704 H   0  0  0  0  0  0  0  0  0  0  0  0
  1  2  1  0  0  0  0
  1  5  1  0  0  0  0
  2  8  1  0  0  0  0
  3  1  1  0  0  0  0
  4  1  1  0  0  0  0
  6  2  1  0  0  0  0
  6  9  1  0  0  0  0
  6 10  1  0  0  0  0
  7  2  1  0  0  0  0
  9 12  1  0  0  0  0
 11  6  1  0  0  0  0
 13  9  1  0  0  0  0
 14  9  1  0  0  0  0
M  END
$$$$
