14
butane_opt
C  -3.942284   0.272056  -0.003570
C  -2.700137  -0.618467   0.046099
H  -4.865758  -0.332354   0.068006
H  -3.962397   0.903238  -0.915009
H  -3.975351   0.926794   0.839762
C  -1.404725   0.170486   0.044809
H  -2.659051  -1.312305  -0.797521
H  -2.732528  -1.238990   0.949734
C  -0.165849  -0.684555   0.016028
H  -1.310297   0.850248   0.923935
H  -1.392078   0.834802  -0.873923
H  -0.079754  -1.320606   0.931744
H   0.745682  -0.121610  -0.080891
H  -0.234880  -1.335379  -0.837809
