butane_opt
 OpenBabel08242015403D

 14 13  0  0  0  0  0  0  0  0999 V2000
   -3.9434    0.2685    0.0112 C   0  0  0  0  0  0  0  0  0  0  0  0
   -2.7025   -0.6302    0.0479 C   0  0  0  0  0  0  0  0  0  0  0  0
   -4.8297   -0.2825    0.0729 H   0  0  0  0  0  0  0  0  0  0  0  0
   -4.0221    0.9072   -0.9162 H   0  0  0  0  0  0  0  0  0  0  0  0
   -3.9870    0.9063    0.8596 H   0  0  0  0  0  0  0  0  0  0  0  0
   -1.4027    0.1813    0.0120 C   0  0  0  0  0  0  0  0  0  0  0  0
   -2.7068   -1.2896   -0.7867 H   0  0  0  0  0  0  0  0  0  0  0  0
   -2.7184   -1.2361    0.9439 H   0  0  0  0  0  0  0  0  0  0  0  0
   -0.1557   -0.6840    0.0346 C   0  0  0  0  0  0  0  0  0  0  0  0
   -1.3781    0.8411    0.8513 H   0  0  0  0  0  0  0  0  0  0  0  0
   -1.3880    0.8463   -0.9044 H   0  0  0  0  0  0  0  0  0  0  0  0
   -0.1321   -1.2302    0.8538 H   0  0  0  0  0  0  0  0  0  0  0  0
    0.7511   -0.1196    0.0942 H   0  0  0  0  0  0  0  0  0  0  0  0
   -0.1601   -1.4436   -0.9030 H   0  0  0  0  0  0  0  0  0  0  0  0
  1  2  1  0  0  0  0
  1  3  1  0  0  0  0
  1  5  1  0  0  0  0
  2  8  1  0  0  0  0
  4  1  1  0  0  0  0
  6  9  1  0  0  0  0
  6  2  1  0  0  0  0
  6 10  1  0  0  0  0
  7  2  1  0  0  0  0
  9 13  1  0  0  0  0
  9 12  1  0  0  0  0
 11  6  1  0  0  0  0
 14  9  1  0  0  0  0
M  END
$$$$
