14
butane_opt
C  -3.943809   0.252894   0.009547
C  -2.711905  -0.603177   0.061039
H  -4.835908  -0.341728   0.054475
H  -3.947990   0.911886  -0.906339
H  -3.960048   0.852004   0.806557
C  -1.400314   0.204654   0.015264
H  -2.705883  -1.296464  -0.797828
H  -2.721869  -1.231600   0.936654
C  -0.155373  -0.701815   0.018902
H  -1.336177   0.850615   0.864338
H  -1.440517   0.852780  -0.880796
H  -0.158668  -1.264773   0.858587
H   0.710670  -0.170511   0.154392
H  -0.084622  -1.471022  -0.912658
