butane_opt
 OpenBabel08242015403D

 14 13  0  0  0  0  0  0  0  0999 V2000
   -3.9348    0.2569   -0.0072 C   0  0  0  0  0  0  0  0  0  0  0  0
   -2.7075   -0.6031    0.0723 C   0  0  0  0  0  0  0  0  0  0  0  0
   -4.8683   -0.3589    0.0501 H   0  0  0  0  0  0  0  0  0  0  0  0
   -3.9193    0.9575   -0.9449 H   0  0  0  0  0  0  0  0  0  0  0  0
   -3.9648    0.8469    0.8177 H   0  0  0  0  0  0  0  0  0  0  0  0
   -1.4103    0.1884    0.0278 C   0  0  0  0  0  0  0  0  0  0  0  0
   -2.7037   -1.2420   -0.7695 H   0  0  0  0  0  0  0  0  0  0  0  0
   -2.7510   -1.2988    1.0203 H   0  0  0  0  0  0  0  0  0  0  0  0
   -0.1470   -0.7006    0.0032 C   0  0  0  0  0  0  0  0  0  0  0  0
   -1.3987    0.9147    0.9255 H   0  0  0  0  0  0  0  0  0  0  0  0
   -1.4651    0.8015   -0.8407 H   0  0  0  0  0  0  0  0  0  0  0  0
   -0.2290   -1.1798    0.8263 H   0  0  0  0  0  0  0  0  0  0  0  0
    0.7616   -0.1445    0.1046 H   0  0  0  0  0  0  0  0  0  0  0  0
   -0.0825   -1.4736   -0.9260 H   0  0  0  0  0  0  0  0  0  0  0  0
  1  3  1  0  0  0  0
  1  2  1  0  0  0  0
  1  5  1  0  0  0  0
  2  8  1  0  0  0  0
  4  1  1  0  0  0  0
  6  2  1  0  0  0  0
  6 10  1  0  0  0  0
  7  2  1  0  0  0  0
  9  6  1  0  0  0  0
  9 13  1  0  0  0  0
  9 12  1  0  0  0  0
 11  6  1  0  0  0  0
 14  9  1  0  0  0  0
M  END
$$$$
