butane_opt
 OpenBabel08242015403D

 14 13  0  0  0  0  0  0  0  0999 V2000
   -3.9507    0.2737    0.0548 C   0  0  0  0  0  0  0  0  0  0  0  0
   -2.6983   -0.6226   -0.0020 C   0  0  0  0  0  0  0  0  0  0  0  0
   -4.8685   -0.3243    0.1296 H   0  0  0  0  0  0  0  0  0  0  0  0
   -4.0539    0.9716   -0.8971 H   0  0  0  0  0  0  0  0  0  0  0  0
   -3.9169    0.9044    0.8959 H   0  0  0  0  0  0  0  0  0  0  0  0
   -1.3943    0.1688   -0.0163 C   0  0  0  0  0  0  0  0  0  0  0  0
   -2.8051   -1.3730   -0.9338 H   0  0  0  0  0  0  0  0  0  0  0  0
   -2.6617   -1.1893    0.8262 H   0  0  0  0  0  0  0  0  0  0  0  0
   -0.1562   -0.6835    0.0681 C   0  0  0  0  0  0  0  0  0  0  0  0
   -1.3844    0.8324    0.8407 H   0  0  0  0  0  0  0  0  0  0  0  0
   -1.3552    0.8172   -0.9345 H   0  0  0  0  0  0  0  0  0  0  0  0
   -0.1636   -1.3384    1.0237 H   0  0  0  0  0  0  0  0  0  0  0  0
    0.7335   -0.0986    0.0083 H   0  0  0  0  0  0  0  0  0  0  0  0
   -0.1541   -1.3088   -0.7811 H   0  0  0  0  0  0  0  0  0  0  0  0
  1  3  1  0  0  0  0
  1  5  1  0  0  0  0
  2  1  1  0  0  0  0
  2  8  1  0  0  0  0
  4  1  1  0  0  0  0
  6  2  1  0  0  0  0
  6  9  1  0  0  0  0
  6 10  1  0  0  0  0
  7  2  1  0  0  0  0
  9 12  1  0  0  0  0
 11  6  1  0  0  0  0
 13  9  1  0  0  0  0
 14  9  1  0  0  0  0
M  END
$$$$
