14
butane_opt
C  -3.933950   0.256899   0.008849
C  -2.700973  -0.604588   0.060070
H  -4.865327  -0.348605  -0.009517
H  -3.931266   0.890759  -0.914612
H  -3.926909   0.894981   0.877748
C  -1.405071   0.193058   0.018663
H  -2.720844  -1.251187  -0.795544
H  -2.752014  -1.258835   0.965023
C  -0.163072  -0.705700   0.021251
H  -1.381159   0.850185   0.853571
H  -1.472873   0.889167  -0.917186
H  -0.181568  -1.245362   0.862404
H   0.769641  -0.081824   0.124471
H  -0.124122  -1.492233  -0.920628
