14
butane_opt
C  -3.952101   0.265438   0.036028
C  -2.695222  -0.623800  -0.003636
H  -4.838613  -0.305481   0.057963
H  -4.037941   0.834156  -0.818732
H  -3.984633   1.015645   0.982150
C  -1.400256   0.180569   0.001214
H  -2.760925  -1.298725  -0.855555
H  -2.711983  -1.252204   0.857451
C  -0.156080  -0.690157   0.052973
H  -1.390320   0.875143   0.869892
H  -1.377367   0.837576  -0.912248
H  -0.089391  -1.461119   1.059202
H   0.773701  -0.072836  -0.103433
H  -0.166185  -1.219945  -0.712758
