14
butane_opt
C  -3.934106   0.274922  -0.004502
C  -2.703550  -0.616327   0.052739
H  -4.880894  -0.341069   0.114462
H  -3.980736   1.011788  -0.955417
H  -3.931843   0.754928   0.741916
C  -1.400217   0.178207   0.046946
H  -2.720824  -1.260753  -0.808541
H  -2.677573  -1.269828   0.966193
C  -0.169441  -0.692607   0.005646
H  -1.369178   0.904333   0.939441
H  -1.416169   0.753468  -0.797108
H  -0.140595  -1.259791   0.882159
H   0.756655  -0.097792   0.012242
H  -0.174791  -1.399769  -0.891071
