14
butane_opt
C  -3.960218   0.258235   0.050947
C  -2.698522  -0.613193   0.013465
H  -4.838488  -0.323731   0.030671
H  -3.946976   0.780981  -0.800180
H  -3.949211   0.957376   0.946996
C  -1.403220   0.205975  -0.036756
H  -2.775398  -1.313759  -0.850076
H  -2.698569  -1.234407   0.889379
C  -0.150485  -0.702496   0.063593
H  -1.383183   0.827923   0.799146
H  -1.400311   0.904757  -0.960218
H  -0.182188  -1.304351   0.959396
H   0.726185  -0.132945   0.127683
H  -0.029542  -1.417028  -0.793511
