butane_opt
 OpenBabel08242015403D

 14 13  0  0  0  0  0  0  0  0999 V2000
   -3.9617    0.2782   -0.0048 C   0  0  0  0  0  0  0  0  0  0  0  0
   -2.6981   -0.6320    0.0571 C   0  0  0  0  0  0  0  0  0  0  0  0
   -4.8813   -0.3176    0.1189 H   0  0  0  0  0  0  0  0  0  0  0  0
   -4.0349    1.0221   -0.9922 H   0  0  0  0  0  0  0  0  0  0  0  0
   -3.9451    0.8267    0.7925 H   0  0  0  0  0  0  0  0  0  0  0  0
   -1.4015    0.1773    0.0412 C   0  0  0  0  0  0  0  0  0  0  0  0
   -2.6844   -1.3358   -0.8135 H   0  0  0  0  0  0  0  0  0  0  0  0
   -2.7278   -1.2508    0.9284 H   0  0  0  0  0  0  0  0  0  0  0  0
   -0.1520   -0.6863    0.0108 C   0  0  0  0  0  0  0  0  0  0  0  0
   -1.3152    0.8720    0.9124 H   0  0  0  0  0  0  0  0  0  0  0  0
   -1.4226    0.7688   -0.7938 H   0  0  0  0  0  0  0  0  0  0  0  0
   -0.0859   -1.2534    0.8755 H   0  0  0  0  0  0  0  0  0  0  0  0
    0.7884   -0.0610   -0.0049 H   0  0  0  0  0  0  0  0  0  0  0  0
   -0.1594   -1.3770   -0.8483 H   0  0  0  0  0  0  0  0  0  0  0  0
  1  2  1  0  0  0  0
  1  3  1  0  0  0  0
  1  5  1  0  0  0  0
  2  8  1  0  0  0  0
  4  1  1  0  0  0  0
  6  2  1  0  0  0  0
  6 10  1  0  0  0  0
  7  2  1  0  0  0  0
  9  6  1  0  0  0  0
  9 12  1  0  0  0  0
 11  6  1  0  0  0  0
 13  9  1  0  0  0  0
 14  9  1  0  0  0  0
M  END
$$$$
