14
butane_opt
C  -3.937878   0.266725   0.021676
C  -2.697272  -0.618719   0.049939
H  -4.858254  -0.323286  -0.058444
H  -3.903124   0.790672  -0.833432
H  -4.028988   1.036797   0.914430
C  -1.406224   0.179741   0.007444
H  -2.685284  -1.356026  -0.846446
H  -2.702955  -1.225154   0.944349
C  -0.162175  -0.682376   0.026300
H  -1.403550   0.810264   0.820868
H  -1.401193   0.845905  -0.917879
H  -0.161221  -1.366369   0.953011
H   0.710996  -0.118745   0.010658
H  -0.144093  -1.313888  -0.791332
