14
butane_opt
C  -3.946857   0.256361  -0.014360
C  -2.709122  -0.601571   0.067583
H  -4.902509  -0.388185   0.011576
H  -3.964324   0.920979  -0.945011
H  -3.970896   0.852671   0.794793
C  -1.403539   0.205983   0.058337
H  -2.696216  -1.267878  -0.791728
H  -2.745980  -1.221512   0.942894
C  -0.147067  -0.716969   0.003552
H  -1.370906   0.893361   0.939762
H  -1.362390   0.780644  -0.807384
H  -0.018662  -1.315918   0.896646
H   0.732746  -0.134759  -0.149005
H  -0.228557  -1.324690  -0.842649
