butane_opt
 OpenBabel08242015403D

 14 13  0  0  0  0  0  0  0  0999 V2000
   -3.9317    0.2593   -0.0088 C   0  0  0  0  0  0  0  0  0  0  0  0
   -2.6918   -0.6116    0.0666 C   0  0  0  0  0  0  0  0  0  0  0  0
   -4.8672   -0.3582    0.0162 H   0  0  0  0  0  0  0  0  0  0  0  0
   -3.9632    0.9110   -0.9253 H   0  0  0  0  0  0  0  0  0  0  0  0
   -3.9157    0.9063    0.8396 H   0  0  0  0  0  0  0  0  0  0  0  0
   -1.4209    0.1971    0.0432 C   0  0  0  0  0  0  0  0  0  0  0  0
   -2.6653   -1.3083   -0.7966 H   0  0  0  0  0  0  0  0  0  0  0  0
   -2.7348   -1.2591    0.9778 H   0  0  0  0  0  0  0  0  0  0  0  0
   -0.1741   -0.6966    0.0074 C   0  0  0  0  0  0  0  0  0  0  0  0
   -1.3932    0.8715    0.8955 H   0  0  0  0  0  0  0  0  0  0  0  0
   -1.3811    0.7974   -0.8618 H   0  0  0  0  0  0  0  0  0  0  0  0
   -0.0817   -1.3201    0.8663 H   0  0  0  0  0  0  0  0  0  0  0  0
    0.7498   -0.0992   -0.0195 H   0  0  0  0  0  0  0  0  0  0  0  0
   -0.1509   -1.3849   -0.8585 H   0  0  0  0  0  0  0  0  0  0  0  0
  1  3  1  0  0  0  0
  1  2  1  0  0  0  0
  1  5  1  0  0  0  0
  2  8  1  0  0  0  0
  4  1  1  0  0  0  0
  6  2  1  0  0  0  0
  6 10  1  0  0  0  0
  7  2  1  0  0  0  0
  9  6  1  0  0  0  0
  9 12  1  0  0  0  0
 11  6  1  0  0  0  0
 13  9  1  0  0  0  0
 14  9  1  0  0  0  0
M  END
$$$$
