butane_opt
 OpenBabel08242015403D

 14 13  0  0  0  0  0  0  0  0999 V2000
   -3.9530    0.2651   -0.0139 C   0  0  0  0  0  0  0  0  0  0  0  0
   -2.7027   -0.6258    0.0852 C   0  0  0  0  0  0  0  0  0  0  0  0
   -4.8200   -0.2998   -0.0342 H   0  0  0  0  0  0  0  0  0  0  0  0
   -3.9409    0.8607   -0.8941 H   0  0  0  0  0  0  0  0  0  0  0  0
   -4.0543    0.9647    0.8682 H   0  0  0  0  0  0  0  0  0  0  0  0
   -1.4001    0.1913    0.0308 C   0  0  0  0  0  0  0  0  0  0  0  0
   -2.6648   -1.3001   -0.7633 H   0  0  0  0  0  0  0  0  0  0  0  0
   -2.7354   -1.2798    0.9855 H   0  0  0  0  0  0  0  0  0  0  0  0
   -0.1559   -0.6973    0.0066 C   0  0  0  0  0  0  0  0  0  0  0  0
   -1.3983    0.8558    0.8905 H   0  0  0  0  0  0  0  0  0  0  0  0
   -1.3869    0.8525   -0.8935 H   0  0  0  0  0  0  0  0  0  0  0  0
   -0.1120   -1.2123    0.8288 H   0  0  0  0  0  0  0  0  0  0  0  0
    0.7811   -0.0676    0.0255 H   0  0  0  0  0  0  0  0  0  0  0  0
   -0.1543   -1.4390   -0.8821 H   0  0  0  0  0  0  0  0  0  0  0  0
  1  2  1  0  0  0  0
  1  5  1  0  0  0  0
  2  8  1  0  0  0  0
  3  1  1  0  0  0  0
  4  1  1  0  0  0  0
  6  2  1  0  0  0  0
  6 10  1  0  0  0  0
  7  2  1  0  0  0  0
  9 13  1  0  0  0  0
  9  6  1  0  0  0  0
  9 12  1  0  0  0  0
 11  6  1  0  0  0  0
 14  9  1  0  0  0  0
M  END
$$$$
