butane_opt
 OpenBabel08242015403D

 14 13  0  0  0  0  0  0  0  0999 V2000
   -3.9368    0.2677   -0.0124 C   0  0  0  0  0  0  0  0  0  0  0  0
   -2.6869   -0.6264    0.0927 C   0  0  0  0  0  0  0  0  0  0  0  0
   -4.8462   -0.2859   -0.1313 H   0  0  0  0  0  0  0  0  0  0  0  0
   -3.8625    0.8687   -0.9314 H   0  0  0  0  0  0  0  0  0  0  0  0
   -4.0889    0.9927    0.8617 H   0  0  0  0  0  0  0  0  0  0  0  0
   -1.4118    0.1802    0.0425 C   0  0  0  0  0  0  0  0  0  0  0  0
   -2.7064   -1.2739   -0.7717 H   0  0  0  0  0  0  0  0  0  0  0  0
   -2.7269   -1.3117    1.0243 H   0  0  0  0  0  0  0  0  0  0  0  0
   -0.1734   -0.6895   -0.0066 C   0  0  0  0  0  0  0  0  0  0  0  0
   -1.3790    0.8667    0.8944 H   0  0  0  0  0  0  0  0  0  0  0  0
   -1.3936    0.7915   -0.8402 H   0  0  0  0  0  0  0  0  0  0  0  0
   -0.1377   -1.2657    0.8576 H   0  0  0  0  0  0  0  0  0  0  0  0
    0.7907   -0.0430   -0.0252 H   0  0  0  0  0  0  0  0  0  0  0  0
   -0.1708   -1.3903   -0.8956 H   0  0  0  0  0  0  0  0  0  0  0  0
  1  2  1  0  0  0  0
  1  5  1  0  0  0  0
  2  8  1  0  0  0  0
  3  1  1  0  0  0  0
  4  1  1  0  0  0  0
  6  2  1  0  0  0  0
  6 10  1  0  0  0  0
  7  2  1  0  0  0  0
  9  6  1  0  0  0  0
  9 12  1  0  0  0  0
 11  6  1  0  0  0  0
 13  9  1  0  0  0  0
 14  9  1  0  0  0  0
M  END
$$$$
