butane_opt
 OpenBabel08242015403D

 14 13  0  0  0  0  0  0  0  0999 V2000
   -3.9488    0.2701    0.0391 C   0  0  0  0  0  0  0  0  0  0  0  0
   -2.6871   -0.6257    0.0220 C   0  0  0  0  0  0  0  0  0  0  0  0
   -4.8469   -0.2892    0.0335 H   0  0  0  0  0  0  0  0  0  0  0  0
   -3.9783    0.8391   -0.8335 H   0  0  0  0  0  0  0  0  0  0  0  0
   -3.9434    1.0028    0.9189 H   0  0  0  0  0  0  0  0  0  0  0  0
   -1.4012    0.1738   -0.0127 C   0  0  0  0  0  0  0  0  0  0  0  0
   -2.6817   -1.3847   -0.9082 H   0  0  0  0  0  0  0  0  0  0  0  0
   -2.6457   -1.2003    0.8849 H   0  0  0  0  0  0  0  0  0  0  0  0
   -0.1776   -0.6809    0.0514 C   0  0  0  0  0  0  0  0  0  0  0  0
   -1.3914    0.8386    0.8343 H   0  0  0  0  0  0  0  0  0  0  0  0
   -1.3631    0.8267   -0.9080 H   0  0  0  0  0  0  0  0  0  0  0  0
   -0.1807   -1.4076    1.0242 H   0  0  0  0  0  0  0  0  0  0  0  0
    0.7517   -0.0704   -0.0223 H   0  0  0  0  0  0  0  0  0  0  0  0
   -0.1703   -1.2725   -0.7654 H   0  0  0  0  0  0  0  0  0  0  0  0
  1  5  1  0  0  0  0
  2  1  1  0  0  0  0
  2  8  1  0  0  0  0
  3  1  1  0  0  0  0
  4  1  1  0  0  0  0
  6  2  1  0  0  0  0
  6  9  1  0  0  0  0
  6 10  1  0  0  0  0
  7  2  1  0  0  0  0
  9 12  1  0  0  0  0
 11  6  1  0  0  0  0
 13  9  1  0  0  0  0
 14  9  1  0  0  0  0
M  END
$$$$
