butane_opt
 OpenBabel08242015403D

 14 13  0  0  0  0  0  0  0  0999 V2000
   -3.9493    0.2521    0.0047 C   0  0  0  0  0  0  0  0  0  0  0  0
   -2.7059   -0.6132    0.0619 C   0  0  0  0  0  0  0  0  0  0  0  0
   -4.8421   -0.3615   -0.0005 H   0  0  0  0  0  0  0  0  0  0  0  0
   -3.9343    0.8825   -0.9077 H   0  0  0  0  0  0  0  0  0  0  0  0
   -4.0298    0.9608    0.8781 H   0  0  0  0  0  0  0  0  0  0  0  0
   -1.3992    0.2015    0.0181 C   0  0  0  0  0  0  0  0  0  0  0  0
   -2.7119   -1.2684   -0.7787 H   0  0  0  0  0  0  0  0  0  0  0  0
   -2.7359   -1.2410    0.9717 H   0  0  0  0  0  0  0  0  0  0  0  0
   -0.1506   -0.6979    0.0180 C   0  0  0  0  0  0  0  0  0  0  0  0
   -1.3412    0.8479    0.8610 H   0  0  0  0  0  0  0  0  0  0  0  0
   -1.4666    0.8591   -0.8763 H   0  0  0  0  0  0  0  0  0  0  0  0
   -0.1330   -1.2747    0.8703 H   0  0  0  0  0  0  0  0  0  0  0  0
    0.7090   -0.1586    0.0834 H   0  0  0  0  0  0  0  0  0  0  0  0
   -0.0684   -1.4366   -0.8922 H   0  0  0  0  0  0  0  0  0  0  0  0
  1  2  1  0  0  0  0
  1  5  1  0  0  0  0
  2  8  1  0  0  0  0
  3  1  1  0  0  0  0
  4  1  1  0  0  0  0
  6  2  1  0  0  0  0
  6 10  1  0  0  0  0
  7  2  1  0  0  0  0
  9  6  1  0  0  0  0
  9 13  1  0  0  0  0
  9 12  1  0  0  0  0
 11  6  1  0  0  0  0
 14  9  1  0  0  0  0
M  END
$$$$
