14
butane_opt
C  -3.955868   0.278279  -0.005227
C  -2.709787  -0.626572   0.070736
H  -4.866200  -0.313576   0.076670
H  -4.034823   0.999449  -0.982502
H  -3.981624   0.834604   0.765586
C  -1.389856   0.166326   0.037132
H  -2.667866  -1.295473  -0.801147
H  -2.712325  -1.256115   0.957185
C  -0.154510  -0.683095   0.006677
H  -1.321969   0.910679   0.936792
H  -1.384577   0.763801  -0.836718
H  -0.136104  -1.240842   0.852429
H   0.749086  -0.064422   0.036443
H  -0.147048  -1.430511  -0.894882
