butane_opt
 OpenBabel08242015403D

 14 13  0  0  0  0  0  0  0  0999 V2000
   -3.9400    0.2679    0.0361 C   0  0  0  0  0  0  0  0  0  0  0  0
   -2.6813   -0.6238    0.0262 C   0  0  0  0  0  0  0  0  0  0  0  0
   -4.8284   -0.2863   -0.0546 H   0  0  0  0  0  0  0  0  0  0  0  0
   -3.9653    0.7724   -0.7595 H   0  0  0  0  0  0  0  0  0  0  0  0
   -3.9818    1.0888    1.0130 H   0  0  0  0  0  0  0  0  0  0  0  0
   -1.4059    0.1727   -0.0314 C   0  0  0  0  0  0  0  0  0  0  0  0
   -2.7579   -1.3045   -0.8328 H   0  0  0  0  0  0  0  0  0  0  0  0
   -2.6749   -1.2578    0.9156 H   0  0  0  0  0  0  0  0  0  0  0  0
   -0.1750   -0.6809    0.0567 C   0  0  0  0  0  0  0  0  0  0  0  0
   -1.3741    0.8249    0.7804 H   0  0  0  0  0  0  0  0  0  0  0  0
   -1.4077    0.8014   -0.9235 H   0  0  0  0  0  0  0  0  0  0  0  0
   -0.2488   -1.3490    0.9868 H   0  0  0  0  0  0  0  0  0  0  0  0
    0.7471   -0.0648    0.0376 H   0  0  0  0  0  0  0  0  0  0  0  0
   -0.1089   -1.3242   -0.7595 H   0  0  0  0  0  0  0  0  0  0  0  0
  1  5  1  0  0  0  0
  2  1  1  0  0  0  0
  2  8  1  0  0  0  0
  3  1  1  0  0  0  0
  4  1  1  0  0  0  0
  6  2  1  0  0  0  0
  6  9  1  0  0  0  0
  6 10  1  0  0  0  0
  7  2  1  0  0  0  0
  9 12  1  0  0  0  0
 11  6  1  0  0  0  0
 13  9  1  0  0  0  0
 14  9  1  0  0  0  0
M  END
$$$$
