14
butane_opt
C  -3.941073   0.259341  -0.003822
C  -2.713464  -0.606863   0.077474
H  -4.863978  -0.333143  -0.127754
H  -3.902452   0.811338  -0.864722
H  -4.034295   1.007838   0.898375
C  -1.403583   0.186152   0.023023
H  -2.700835  -1.272165  -0.775012
H  -2.783155  -1.275464   1.010892
C  -0.142359  -0.691130   0.000760
H  -1.375364   0.870236   0.899590
H  -1.440133   0.819767  -0.846681
H  -0.120321  -1.365090   0.929041
H   0.751382  -0.113841   0.008309
H  -0.147143  -1.395777  -0.850914
