butane_opt
 OpenBabel08242015403D

 14 13  0  0  0  0  0  0  0  0999 V2000
   -3.9569    0.2697   -0.0046 C   0  0  0  0  0  0  0  0  0  0  0  0
   -2.6977   -0.6274    0.0567 C   0  0  0  0  0  0  0  0  0  0  0  0
   -4.8678   -0.3088    0.1064 H   0  0  0  0  0  0  0  0  0  0  0  0
   -4.0247    1.0027   -0.9902 H   0  0  0  0  0  0  0  0  0  0  0  0
   -4.0054    0.8273    0.7902 H   0  0  0  0  0  0  0  0  0  0  0  0
   -1.3870    0.1827    0.0420 C   0  0  0  0  0  0  0  0  0  0  0  0
   -2.7260   -1.2529   -0.7736 H   0  0  0  0  0  0  0  0  0  0  0  0
   -2.6768   -1.3054    0.9574 H   0  0  0  0  0  0  0  0  0  0  0  0
   -0.1586   -0.6851    0.0043 C   0  0  0  0  0  0  0  0  0  0  0  0
   -1.3678    0.9119    0.9422 H   0  0  0  0  0  0  0  0  0  0  0  0
   -1.3921    0.7543   -0.8178 H   0  0  0  0  0  0  0  0  0  0  0  0
   -0.1233   -1.2460    0.8547 H   0  0  0  0  0  0  0  0  0  0  0  0
    0.7146   -0.1379    0.0566 H   0  0  0  0  0  0  0  0  0  0  0  0
   -0.1448   -1.3960   -0.8857 H   0  0  0  0  0  0  0  0  0  0  0  0
  1  2  1  0  0  0  0
  1  3  1  0  0  0  0
  1  5  1  0  0  0  0
  2  8  1  0  0  0  0
  4  1  1  0  0  0  0
  6  2  1  0  0  0  0
  6 10  1  0  0  0  0
  7  2  1  0  0  0  0
  9  6  1  0  0  0  0
  9 13  1  0  0  0  0
  9 12  1  0  0  0  0
 11  6  1  0  0  0  0
 14  9  1  0  0  0  0
M  END
$$$$
