butane_opt
 OpenBabel08242015403D

 14 13  0  0  0  0  0  0  0  0999 V2000
   -3.9373    0.2507    0.0396 C   0  0  0  0  0  0  0  0  0  0  0  0
   -2.6992   -0.6069    0.0009 C   0  0  0  0  0  0  0  0  0  0  0  0
   -4.8520   -0.3613    0.1750 H   0  0  0  0  0  0  0  0  0  0  0  0
   -4.0295    0.9284   -0.8939 H   0  0  0  0  0  0  0  0  0  0  0  0
   -3.8542    0.8872    0.8579 H   0  0  0  0  0  0  0  0  0  0  0  0
   -1.4101    0.2034   -0.0070 C   0  0  0  0  0  0  0  0  0  0  0  0
   -2.7496   -1.3153   -0.8827 H   0  0  0  0  0  0  0  0  0  0  0  0
   -2.6428   -1.2370    0.9109 H   0  0  0  0  0  0  0  0  0  0  0  0
   -0.1661   -0.7100    0.0523 C   0  0  0  0  0  0  0  0  0  0  0  0
   -1.4363    0.9237    0.8684 H   0  0  0  0  0  0  0  0  0  0  0  0
   -1.3969    0.8170   -0.8882 H   0  0  0  0  0  0  0  0  0  0  0  0
   -0.1212   -1.3387    0.9596 H   0  0  0  0  0  0  0  0  0  0  0  0
    0.7304   -0.1118    0.0572 H   0  0  0  0  0  0  0  0  0  0  0  0
   -0.1115   -1.3129   -0.7590 H   0  0  0  0  0  0  0  0  0  0  0  0
  1  3  1  0  0  0  0
  1  5  1  0  0  0  0
  2  1  1  0  0  0  0
  2  8  1  0  0  0  0
  4  1  1  0  0  0  0
  6  2  1  0  0  0  0
  6  9  1  0  0  0  0
  6 10  1  0  0  0  0
  7  2  1  0  0  0  0
  9 13  1  0  0  0  0
  9 12  1  0  0  0  0
 11  6  1  0  0  0  0
 14  9  1  0  0  0  0
M  END
$$$$
