14
butane_opt
C  -3.935839   0.253645   0.014683
C  -2.702266  -0.589199   0.047941
H  -4.846133  -0.353522   0.082817
H  -3.932642   0.845878  -0.871114
H  -3.914012   0.885962   0.855999
C  -1.411777   0.189274   0.008919
H  -2.676772  -1.270887  -0.801600
H  -2.739578  -1.231759   0.950410
C  -0.165653  -0.704110   0.032195
H  -1.370663   0.824730   0.793650
H  -1.378873   0.865085  -0.925567
H  -0.187253  -1.223320   0.867937
H   0.732363  -0.136672   0.152333
H  -0.116298  -1.481808  -0.911316
