14
butane_opt
C  -3.949779   0.271821   0.001831
C  -2.695792  -0.616433   0.067800
H  -4.847349  -0.309114   0.073789
H  -3.948127   0.976166  -0.968532
H  -3.970091   0.856232   0.806992
C  -1.397655   0.160600   0.023270
H  -2.684138  -1.299997  -0.779023
H  -2.668664  -1.256095   0.966305
C  -0.171347  -0.686034   0.015142
H  -1.376900   0.880954   0.894355
H  -1.353047   0.816574  -0.861754
H  -0.228290  -1.174606   0.828522
H   0.750097  -0.074587   0.102728
H  -0.122093  -1.450515  -0.947375
