14
butane_opt
C  -3.954377   0.268275   0.048455
C  -2.706603  -0.631462   0.015361
H  -4.852335  -0.294188   0.042070
H  -3.984338   0.857896  -0.808812
H  -3.925941   1.010336   0.950457
C  -1.396098   0.180967  -0.030754
H  -2.701732  -1.292972  -0.843129
H  -2.692089  -1.227937   0.864612
C  -0.163617  -0.686526   0.065329
H  -1.351371   0.805725   0.772149
H  -1.363574   0.883118  -0.965158
H  -0.179152  -1.289611   0.944703
H   0.736519  -0.108669   0.140847
H  -0.067273  -1.396909  -0.829225
