14
butane_opt
C  -3.944040   0.281169  -0.008427
C  -2.689083  -0.639655   0.078897
H  -4.845884  -0.308729  -0.052770
H  -3.871750   0.859241  -0.908302
H  -4.013490   1.001340   0.868335
C  -1.402064   0.170438   0.029095
H  -2.664327  -1.264815  -0.757085
H  -2.746987  -1.259077   0.952722
C  -0.180127  -0.678109   0.003700
H  -1.323494   0.892661   0.934871
H  -1.409671   0.757979  -0.842724
H  -0.147770  -1.323011   0.924494
H   0.755807  -0.090065  -0.043304
H  -0.184748  -1.339596  -0.862669
