14
butane_opt
C  -3.954302   0.251776   0.042121
C  -2.700860  -0.609130   0.026565
H  -4.850131  -0.305200  -0.107230
H  -3.888507   0.728277  -0.797413
H  -4.029108   1.005396   0.958024
C  -1.399310   0.205997  -0.022611
H  -2.771119  -1.268268  -0.807984
H  -2.684925  -1.251053   0.943244
C  -0.152758  -0.702381   0.049913
H  -1.401220   0.873284   0.802695
H  -1.432533   0.834879  -0.902907
H  -0.094045  -1.381443   0.972281
H   0.703268  -0.144187   0.041477
H  -0.087232  -1.326538  -0.795599
