butane_opt
 OpenBabel08242015403D

 14 13  0  0  0  0  0  0  0  0999 V2000
   -3.9204    0.2612   -0.0051 C   0  0  0  0  0  0  0  0  0  0  0  0
   -2.7041   -0.6137    0.0634 C   0  0  0  0  0  0  0  0  0  0  0  0
   -4.8459   -0.3318   -0.0019 H   0  0  0  0  0  0  0  0  0  0  0  0
   -3.9037    0.8898   -0.9169 H   0  0  0  0  0  0  0  0  0  0  0  0
   -4.0386    0.9135    0.7978 H   0  0  0  0  0  0  0  0  0  0  0  0
   -1.4065    0.1977    0.0521 C   0  0  0  0  0  0  0  0  0  0  0  0
   -2.6614   -1.2922   -0.8080 H   0  0  0  0  0  0  0  0  0  0  0  0
   -2.7455   -1.2572    0.9631 H   0  0  0  0  0  0  0  0  0  0  0  0
   -0.1715   -0.7043    0.0028 C   0  0  0  0  0  0  0  0  0  0  0  0
   -1.3852    0.8878    0.9023 H   0  0  0  0  0  0  0  0  0  0  0  0
   -1.4252    0.7728   -0.8104 H   0  0  0  0  0  0  0  0  0  0  0  0
   -0.0949   -1.3360    0.9099 H   0  0  0  0  0  0  0  0  0  0  0  0
    0.7407   -0.1078   -0.1245 H   0  0  0  0  0  0  0  0  0  0  0  0
   -0.2243   -1.3034   -0.8217 H   0  0  0  0  0  0  0  0  0  0  0  0
  1  3  1  0  0  0  0
  1  2  1  0  0  0  0
  1  5  1  0  0  0  0
  2  8  1  0  0  0  0
  4  1  1  0  0  0  0
  6  2  1  0  0  0  0
  6 10  1  0  0  0  0
  7  2  1  0  0  0  0
  9  6  1  0  0  0  0
  9 12  1  0  0  0  0
 11  6  1  0  0  0  0
 13  9  1  0  0  0  0
 14  9  1  0  0  0  0
M  END
$$$$
