14
butane_opt
C  -3.937278   0.250020   0.032713
C  -2.711506  -0.602744   0.004373
H  -4.828617  -0.328185   0.056652
H  -4.014957   0.840896  -0.815696
H  -3.947467   0.932120   0.914401
C  -1.405352   0.203085   0.006492
H  -2.708950  -1.271123  -0.848461
H  -2.722629  -1.246182   0.889087
C  -0.159842  -0.705733   0.045963
H  -1.437217   0.899329   0.855166
H  -1.350489   0.820118  -0.863346
H  -0.043728  -1.453821   1.009187
H   0.762338  -0.127199  -0.084220
H  -0.160022  -1.270319  -0.733754
