butane_opt
 OpenBabel08242015403D

 14 13  0  0  0  0  0  0  0  0999 V2000
   -3.9419    0.2741    0.0390 C   0  0  0  0  0  0  0  0  0  0  0  0
   -2.6865   -0.6202    0.0073 C   0  0  0  0  0  0  0  0  0  0  0  0
   -4.8436   -0.3051    0.0324 H   0  0  0  0  0  0  0  0  0  0  0  0
   -3.9710    0.8404   -0.8178 H   0  0  0  0  0  0  0  0  0  0  0  0
   -3.9711    0.9782    0.9328 H   0  0  0  0  0  0  0  0  0  0  0  0
   -1.4104    0.1586   -0.0091 C   0  0  0  0  0  0  0  0  0  0  0  0
   -2.7521   -1.3448   -0.8651 H   0  0  0  0  0  0  0  0  0  0  0  0
   -2.6458   -1.2014    0.8532 H   0  0  0  0  0  0  0  0  0  0  0  0
   -0.1658   -0.6761    0.0571 C   0  0  0  0  0  0  0  0  0  0  0  0
   -1.4157    0.8806    0.8890 H   0  0  0  0  0  0  0  0  0  0  0  0
   -1.3531    0.7794   -0.8929 H   0  0  0  0  0  0  0  0  0  0  0  0
   -0.1654   -1.4397    1.0349 H   0  0  0  0  0  0  0  0  0  0  0  0
    0.7584   -0.0800   -0.1446 H   0  0  0  0  0  0  0  0  0  0  0  0
   -0.2134   -1.2084   -0.7049 H   0  0  0  0  0  0  0  0  0  0  0  0
  1  5  1  0  0  0  0
  2  1  1  0  0  0  0
  2  8  1  0  0  0  0
  3  1  1  0  0  0  0
  4  1  1  0  0  0  0
  6  2  1  0  0  0  0
  6  9  1  0  0  0  0
  6 10  1  0  0  0  0
  7  2  1  0  0  0  0
  9 12  1  0  0  0  0
 11  6  1  0  0  0  0
 13  9  1  0  0  0  0
 14  9  1  0  0  0  0
M  END
$$$$
