14
butane_opt
C  -3.957983   0.264073   0.045083
C  -2.694280  -0.623538   0.010820
H  -4.848913  -0.298792  -0.004734
H  -3.971200   0.823612  -0.820746
H  -4.029436   1.014818   0.933168
C  -1.392849   0.183973  -0.004153
H  -2.700586  -1.327568  -0.864447
H  -2.712262  -1.254524   0.871996
C  -0.158487  -0.688305   0.057224
H  -1.419102   0.828932   0.817453
H  -1.353459   0.871048  -0.946414
H  -0.082267  -1.359581   1.002007
H   0.718486  -0.119889  -0.063298
H  -0.179707  -1.285895  -0.773948
