14
butane_opt
C  -3.969022   0.274951   0.007136
C  -2.693104  -0.624930   0.047180
H  -4.882919  -0.317904   0.056231
H  -3.949813   0.923626  -0.946914
H  -3.997905   0.865255   0.810548
C  -1.389670   0.185660   0.034182
H  -2.696864  -1.282394  -0.812547
H  -2.731564  -1.274567   0.960220
C  -0.155504  -0.689969   0.011375
H  -1.349479   0.907097   0.916576
H  -1.410298   0.724890  -0.811192
H  -0.104726  -1.329885   0.920631
H   0.767431  -0.104211  -0.032960
H  -0.181321  -1.323934  -0.815909
