14
butane_opt
C  -3.949428   0.259202  -0.025942
C  -2.704795  -0.607935   0.094934
H  -4.904235  -0.378214  -0.105778
H  -3.870303   0.790917  -0.885386
H  -4.023117   1.000366   0.880847
C  -1.401803   0.200163   0.050107
H  -2.668090  -1.266105  -0.757040
H  -2.765244  -1.287954   1.033164
C  -0.147375  -0.696342  -0.009191
H  -1.400293   0.840677   0.877683
H  -1.433600   0.854412  -0.849844
H  -0.094417  -1.305731   0.865420
H   0.729176  -0.150697  -0.040644
H  -0.145076  -1.439069  -0.893205
