butane_opt
 OpenBabel08242015403D

 14 13  0  0  0  0  0  0  0  0999 V2000
   -3.9544    0.2568   -0.0126 C   0  0  0  0  0  0  0  0  0  0  0  0
   -2.7026   -0.6077    0.0905 C   0  0  0  0  0  0  0  0  0  0  0  0
   -4.8957   -0.3620   -0.0869 H   0  0  0  0  0  0  0  0  0  0  0  0
   -3.8510    0.8265   -0.8777 H   0  0  0  0  0  0  0  0  0  0  0  0
   -3.9927    0.9725    0.8591 H   0  0  0  0  0  0  0  0  0  0  0  0
   -1.4002    0.1959    0.0281 C   0  0  0  0  0  0  0  0  0  0  0  0
   -2.7200   -1.2723   -0.7546 H   0  0  0  0  0  0  0  0  0  0  0  0
   -2.7444   -1.1840    0.9552 H   0  0  0  0  0  0  0  0  0  0  0  0
   -0.1552   -0.7082    0.0032 C   0  0  0  0  0  0  0  0  0  0  0  0
   -1.3565    0.8702    0.8814 H   0  0  0  0  0  0  0  0  0  0  0  0
   -1.4003    0.8495   -0.8386 H   0  0  0  0  0  0  0  0  0  0  0  0
   -0.1346   -1.2970    0.8886 H   0  0  0  0  0  0  0  0  0  0  0  0
    0.7445   -0.1183   -0.0306 H   0  0  0  0  0  0  0  0  0  0  0  0
   -0.1202   -1.4142   -0.8692 H   0  0  0  0  0  0  0  0  0  0  0  0
  1  2  1  0  0  0  0
  1  5  1  0  0  0  0
  2  8  1  0  0  0  0
  3  1  1  0  0  0  0
  4  1  1  0  0  0  0
  6  2  1  0  0  0  0
  6 10  1  0  0  0  0
  7  2  1  0  0  0  0
  9  6  1  0  0  0  0
  9 12  1  0  0  0  0
 11  6  1  0  0  0  0
 13  9  1  0  0  0  0
 14  9  1  0  0  0  0
M  END
$$$$
