14
butane_opt
C  -3.963969   0.278614   0.054086
C  -2.697747  -0.622026  -0.008846
H  -4.870975  -0.323714   0.206532
H  -4.054438   0.949263  -0.901303
H  -3.915542   0.865590   0.871382
C  -1.385526   0.178369  -0.008703
H  -2.744666  -1.384705  -0.917798
H  -2.711775  -1.230281   0.845758
C  -0.154643  -0.687609   0.061852
H  -1.383159   0.842979   0.815167
H  -1.348613   0.816739  -0.925697
H  -0.212792  -1.330219   0.995843
H   0.752575  -0.105651   0.042956
H  -0.111268  -1.330506  -0.774708
