14
butane_opt
C  -3.966324   0.275680   0.052924
C  -2.707448  -0.628875   0.002392
H  -4.832022  -0.310098   0.156064
H  -4.025807   0.923951  -0.854867
H  -3.924617   0.914888   0.886728
C  -1.386067   0.178518  -0.021445
H  -2.698012  -1.383715  -0.909186
H  -2.672644  -1.147974   0.810772
C  -0.157659  -0.693067   0.064541
H  -1.380116   0.831234   0.821712
H  -1.358735   0.815840  -0.935990
H  -0.176588  -1.353771   0.992960
H   0.787293  -0.062934   0.052215
H  -0.138277  -1.275977  -0.750089
