butane_opt
 OpenBabel08242015403D

 14 13  0  0  0  0  0  0  0  0999 V2000
   -3.9536    0.2747    0.0164 C   0  0  0  0  0  0  0  0  0  0  0  0
   -2.7081   -0.6360    0.0235 C   0  0  0  0  0  0  0  0  0  0  0  0
   -4.7946   -0.2520    0.0677 H   0  0  0  0  0  0  0  0  0  0  0  0
   -4.0199    0.8493   -0.8499 H   0  0  0  0  0  0  0  0  0  0  0  0
   -3.9751    0.9863    0.9434 H   0  0  0  0  0  0  0  0  0  0  0  0
   -1.3998    0.1730    0.0090 C   0  0  0  0  0  0  0  0  0  0  0  0
   -2.6825   -1.3006   -0.8298 H   0  0  0  0  0  0  0  0  0  0  0  0
   -2.7400   -1.2496    0.8991 H   0  0  0  0  0  0  0  0  0  0  0  0
   -0.1537   -0.6832    0.0400 C   0  0  0  0  0  0  0  0  0  0  0  0
   -1.3604    0.8820    0.8771 H   0  0  0  0  0  0  0  0  0  0  0  0
   -1.3555    0.7829   -0.8615 H   0  0  0  0  0  0  0  0  0  0  0  0
   -0.0915   -1.3681    0.9949 H   0  0  0  0  0  0  0  0  0  0  0  0
    0.7511   -0.0895   -0.0992 H   0  0  0  0  0  0  0  0  0  0  0  0
   -0.1809   -1.2446   -0.7505 H   0  0  0  0  0  0  0  0  0  0  0  0
  1  2  1  0  0  0  0
  1  3  1  0  0  0  0
  1  5  1  0  0  0  0
  2  8  1  0  0  0  0
  4  1  1  0  0  0  0
  6  2  1  0  0  0  0
  6  9  1  0  0  0  0
  6 10  1  0  0  0  0
  7  2  1  0  0  0  0
  9 12  1  0  0  0  0
 11  6  1  0  0  0  0
 13  9  1  0  0  0  0
 14  9  1  0  0  0  0
M  END
$$$$
