14
butane_opt
C  -3.936441   0.271604  -0.009571
C  -2.692213  -0.624265   0.064388
H  -4.819028  -0.333505   0.062982
H  -3.969983   0.939160  -0.932609
H  -3.995575   0.921417   0.826617
C  -1.403299   0.181783   0.027021
H  -2.683788  -1.235513  -0.741674
H  -2.766589  -1.305184   1.017525
C  -0.169919  -0.686418   0.015079
H  -1.367972   0.866741   0.902053
H  -1.380857   0.730725  -0.805229
H  -0.163846  -1.227493   0.838283
H   0.741431  -0.087556   0.035241
H  -0.191860  -1.449549  -0.937663
