butane_opt
 OpenBabel08242015403D

 14 13  0  0  0  0  0  0  0  0999 V2000
   -3.9508    0.2573    0.0451 C   0  0  0  0  0  0  0  0  0  0  0  0
   -2.7057   -0.6093    0.0139 C   0  0  0  0  0  0  0  0  0  0  0  0
   -4.8330   -0.3319    0.0078 H   0  0  0  0  0  0  0  0  0  0  0  0
   -3.9445    0.7998   -0.8303 H   0  0  0  0  0  0  0  0  0  0  0  0
   -3.9678    0.9391    0.9092 H   0  0  0  0  0  0  0  0  0  0  0  0
   -1.4041    0.2078   -0.0082 C   0  0  0  0  0  0  0  0  0  0  0  0
   -2.7804   -1.3608   -0.8992 H   0  0  0  0  0  0  0  0  0  0  0  0
   -2.7173   -1.1538    0.8315 H   0  0  0  0  0  0  0  0  0  0  0  0
   -0.1500   -0.7041    0.0596 C   0  0  0  0  0  0  0  0  0  0  0  0
   -1.4230    0.8622    0.8494 H   0  0  0  0  0  0  0  0  0  0  0  0
   -1.3483    0.8291   -0.9045 H   0  0  0  0  0  0  0  0  0  0  0  0
   -0.0595   -1.4651    1.0380 H   0  0  0  0  0  0  0  0  0  0  0  0
    0.7220   -0.1382   -0.1544 H   0  0  0  0  0  0  0  0  0  0  0  0
   -0.1477   -1.2673   -0.7194 H   0  0  0  0  0  0  0  0  0  0  0  0
  1  5  1  0  0  0  0
  2  1  1  0  0  0  0
  2  8  1  0  0  0  0
  3  1  1  0  0  0  0
  4  1  1  0  0  0  0
  6  2  1  0  0  0  0
  6  9  1  0  0  0  0
  6 10  1  0  0  0  0
  7  2  1  0  0  0  0
  9 12  1  0  0  0  0
 11  6  1  0  0  0  0
 13  9  1  0  0  0  0
 14  9  1  0  0  0  0
M  END
$$$$
