butane_opt
 OpenBabel08242015403D

 14 13  0  0  0  0  0  0  0  0999 V2000
   -3.9521    0.2592    0.0287 C   0  0  0  0  0  0  0  0  0  0  0  0
   -2.7082   -0.6022    0.0366 C   0  0  0  0  0  0  0  0  0  0  0  0
   -4.8653   -0.3492   -0.0255 H   0  0  0  0  0  0  0  0  0  0  0  0
   -3.9098    0.7855   -0.8096 H   0  0  0  0  0  0  0  0  0  0  0  0
   -3.9247    0.9685    0.9210 H   0  0  0  0  0  0  0  0  0  0  0  0
   -1.4052    0.1935   -0.0067 C   0  0  0  0  0  0  0  0  0  0  0  0
   -2.7383   -1.2802   -0.8346 H   0  0  0  0  0  0  0  0  0  0  0  0
   -2.7305   -1.2060    0.9286 H   0  0  0  0  0  0  0  0  0  0  0  0
   -0.1521   -0.7005    0.0501 C   0  0  0  0  0  0  0  0  0  0  0  0
   -1.3663    0.8107    0.7875 H   0  0  0  0  0  0  0  0  0  0  0  0
   -1.4055    0.8531   -0.9440 H   0  0  0  0  0  0  0  0  0  0  0  0
   -0.1445   -1.3127    0.9228 H   0  0  0  0  0  0  0  0  0  0  0  0
    0.7537   -0.1396    0.0332 H   0  0  0  0  0  0  0  0  0  0  0  0
   -0.0842   -1.4051   -0.8373 H   0  0  0  0  0  0  0  0  0  0  0  0
  1  2  1  0  0  0  0
  1  5  1  0  0  0  0
  2  8  1  0  0  0  0
  3  1  1  0  0  0  0
  4  1  1  0  0  0  0
  6  2  1  0  0  0  0
  6  9  1  0  0  0  0
  6 10  1  0  0  0  0
  7  2  1  0  0  0  0
  9 12  1  0  0  0  0
 11  6  1  0  0  0  0
 13  9  1  0  0  0  0
 14  9  1  0  0  0  0
M  END
$$$$
