butane_opt
 OpenBabel08242015403D

 14 13  0  0  0  0  0  0  0  0999 V2000
   -3.9453    0.2726   -0.0113 C   0  0  0  0  0  0  0  0  0  0  0  0
   -2.7008   -0.6358    0.0724 C   0  0  0  0  0  0  0  0  0  0  0  0
   -4.8555   -0.2879   -0.0659 H   0  0  0  0  0  0  0  0  0  0  0  0
   -3.9705    0.8246   -0.8852 H   0  0  0  0  0  0  0  0  0  0  0  0
   -4.0781    1.0448    0.9014 H   0  0  0  0  0  0  0  0  0  0  0  0
   -1.3855    0.1801    0.0310 C   0  0  0  0  0  0  0  0  0  0  0  0
   -2.6738   -1.2309   -0.7460 H   0  0  0  0  0  0  0  0  0  0  0  0
   -2.7750   -1.2959    0.9934 H   0  0  0  0  0  0  0  0  0  0  0  0
   -0.1643   -0.6854    0.0085 C   0  0  0  0  0  0  0  0  0  0  0  0
   -1.3331    0.8580    0.8894 H   0  0  0  0  0  0  0  0  0  0  0  0
   -1.4400    0.7896   -0.8362 H   0  0  0  0  0  0  0  0  0  0  0  0
   -0.1051   -1.3045    0.8976 H   0  0  0  0  0  0  0  0  0  0  0  0
    0.7482   -0.0913   -0.0321 H   0  0  0  0  0  0  0  0  0  0  0  0
   -0.1863   -1.3591   -0.8661 H   0  0  0  0  0  0  0  0  0  0  0  0
  1  2  1  0  0  0  0
  1  5  1  0  0  0  0
  2  8  1  0  0  0  0
  3  1  1  0  0  0  0
  4  1  1  0  0  0  0
  6  2  1  0  0  0  0
  6 10  1  0  0  0  0
  7  2  1  0  0  0  0
  9  6  1  0  0  0  0
  9 12  1  0  0  0  0
 11  6  1  0  0  0  0
 13  9  1  0  0  0  0
 14  9  1  0  0  0  0
M  END
$$$$
