butane_opt
 OpenBabel08242015403D

 14 13  0  0  0  0  0  0  0  0999 V2000
   -3.9383    0.2737    0.0027 C   0  0  0  0  0  0  0  0  0  0  0  0
   -2.6899   -0.6187    0.0372 C   0  0  0  0  0  0  0  0  0  0  0  0
   -4.8337   -0.2900    0.1950 H   0  0  0  0  0  0  0  0  0  0  0  0
   -4.0623    0.9845   -0.9643 H   0  0  0  0  0  0  0  0  0  0  0  0
   -3.9318    0.7982    0.7714 H   0  0  0  0  0  0  0  0  0  0  0  0
   -1.4096    0.1699    0.0401 C   0  0  0  0  0  0  0  0  0  0  0  0
   -2.7187   -1.2895   -0.8131 H   0  0  0  0  0  0  0  0  0  0  0  0
   -2.6906   -1.2527    0.9289 H   0  0  0  0  0  0  0  0  0  0  0  0
   -0.1690   -0.6839    0.0203 C   0  0  0  0  0  0  0  0  0  0  0  0
   -1.3846    0.8171    0.9006 H   0  0  0  0  0  0  0  0  0  0  0  0
   -1.3795    0.7771   -0.8421 H   0  0  0  0  0  0  0  0  0  0  0  0
   -0.1387   -1.2386    0.8629 H   0  0  0  0  0  0  0  0  0  0  0  0
    0.7933   -0.0602    0.0492 H   0  0  0  0  0  0  0  0  0  0  0  0
   -0.2005   -1.3943   -0.8700 H   0  0  0  0  0  0  0  0  0  0  0  0
  1  2  1  0  0  0  0
  1  3  1  0  0  0  0
  1  5  1  0  0  0  0
  2  6  1  0  0  0  0
  2  8  1  0  0  0  0
  4  1  1  0  0  0  0
  6 10  1  0  0  0  0
  7  2  1  0  0  0  0
  9  6  1  0  0  0  0
  9 13  1  0  0  0  0
  9 12  1  0  0  0  0
 11  6  1  0  0  0  0
 14  9  1  0  0  0  0
M  END
$$$$
