14
butane_opt
C  -3.961618   0.282066  -0.012519
C  -2.694210  -0.632153   0.066279
H  -4.873590  -0.338255  -0.049290
H  -3.931694   0.898535  -0.919647
H  -4.029259   0.966047   0.870234
C  -1.388343   0.177126   0.052075
H  -2.732196  -1.292084  -0.764362
H  -2.724836  -1.310486   0.962906
C  -0.156747  -0.684487   0.008806
H  -1.344713   0.857438   0.900833
H  -1.378716   0.801582  -0.842574
H  -0.094936  -1.317491   0.894001
H   0.744407  -0.092930  -0.118253
H  -0.247097  -1.349233  -0.870867
