14
butane_opt
C  -3.946031   0.270542   0.033703
C  -2.697871  -0.628893   0.010713
H  -4.866533  -0.301704   0.046085
H  -3.991136   0.840915  -0.832403
H  -3.998435   1.009663   0.948113
C  -1.393161   0.185192   0.007029
H  -2.699937  -1.351158  -0.869803
H  -2.751934  -1.213469   0.876400
C  -0.158957  -0.688444   0.050499
H  -1.392914   0.803878   0.795252
H  -1.394623   0.854464  -0.900415
H  -0.114847  -1.399670   1.025235
H   0.746808  -0.092534  -0.095619
H  -0.204112  -1.281955  -0.753403
