butane_opt
 OpenBabel08242015403D

 14 13  0  0  0  0  0  0  0  0999 V2000
   -3.9503    0.2582    0.0204 C   0  0  0  0  0  0  0  0  0  0  0  0
   -2.7045   -0.6171    0.0290 C   0  0  0  0  0  0  0  0  0  0  0  0
   -4.8498   -0.3220    0.0553 H   0  0  0  0  0  0  0  0  0  0  0  0
   -3.9403    0.8472   -0.8613 H   0  0  0  0  0  0  0  0  0  0  0  0
   -3.9565    0.9590    0.8994 H   0  0  0  0  0  0  0  0  0  0  0  0
   -1.4090    0.1988    0.0173 C   0  0  0  0  0  0  0  0  0  0  0  0
   -2.7486   -1.3821   -0.8660 H   0  0  0  0  0  0  0  0  0  0  0  0
   -2.7554   -1.1736    0.8741 H   0  0  0  0  0  0  0  0  0  0  0  0
   -0.1427   -0.7019    0.0381 C   0  0  0  0  0  0  0  0  0  0  0  0
   -1.4188    0.8993    0.8766 H   0  0  0  0  0  0  0  0  0  0  0  0
   -1.4171    0.8414   -0.8957 H   0  0  0  0  0  0  0  0  0  0  0  0
   -0.0702   -1.4300    0.9998 H   0  0  0  0  0  0  0  0  0  0  0  0
    0.7645   -0.1464   -0.1320 H   0  0  0  0  0  0  0  0  0  0  0  0
   -0.1579   -1.2143   -0.7468 H   0  0  0  0  0  0  0  0  0  0  0  0
  1  2  1  0  0  0  0
  1  3  1  0  0  0  0
  1  5  1  0  0  0  0
  2  8  1  0  0  0  0
  4  1  1  0  0  0  0
  6  2  1  0  0  0  0
  6  9  1  0  0  0  0
  6 10  1  0  0  0  0
  7  2  1  0  0  0  0
  9 12  1  0  0  0  0
 11  6  1  0  0  0  0
 13  9  1  0  0  0  0
 14  9  1  0  0  0  0
M  END
$$$$
