butane_opt
 OpenBabel08242015403D

 14 13  0  0  0  0  0  0  0  0999 V2000
   -3.9470    0.2758    0.0495 C   0  0  0  0  0  0  0  0  0  0  0  0
   -2.6842   -0.6259    0.0029 C   0  0  0  0  0  0  0  0  0  0  0  0
   -4.8629   -0.3385    0.1543 H   0  0  0  0  0  0  0  0  0  0  0  0
   -4.0297    0.9666   -0.8806 H   0  0  0  0  0  0  0  0  0  0  0  0
   -3.9111    0.9169    0.9033 H   0  0  0  0  0  0  0  0  0  0  0  0
   -1.3994    0.1683   -0.0288 C   0  0  0  0  0  0  0  0  0  0  0  0
   -2.7444   -1.3200   -0.8719 H   0  0  0  0  0  0  0  0  0  0  0  0
   -2.6928   -1.2344    0.8690 H   0  0  0  0  0  0  0  0  0  0  0  0
   -0.1762   -0.6921    0.0642 C   0  0  0  0  0  0  0  0  0  0  0  0
   -1.4039    0.8914    0.8439 H   0  0  0  0  0  0  0  0  0  0  0  0
   -1.3530    0.7842   -0.8943 H   0  0  0  0  0  0  0  0  0  0  0  0
   -0.2342   -1.2673    0.9610 H   0  0  0  0  0  0  0  0  0  0  0  0
    0.7877   -0.0237    0.0612 H   0  0  0  0  0  0  0  0  0  0  0  0
   -0.1019   -1.3534   -0.7699 H   0  0  0  0  0  0  0  0  0  0  0  0
  1  3  1  0  0  0  0
  1  5  1  0  0  0  0
  2  1  1  0  0  0  0
  2  8  1  0  0  0  0
  4  1  1  0  0  0  0
  6  2  1  0  0  0  0
  6  9  1  0  0  0  0
  6 10  1  0  0  0  0
  7  2  1  0  0  0  0
  9 12  1  0  0  0  0
 11  6  1  0  0  0  0
 13  9  1  0  0  0  0
 14  9  1  0  0  0  0
M  END
$$$$
