14
butane_opt
C  -3.957090   0.266596   0.006165
C  -2.694598  -0.630572   0.037745
H  -4.817189  -0.264144   0.146511
H  -4.029641   0.945483  -0.903857
H  -3.993395   0.856931   0.805831
C  -1.398610   0.183134   0.030706
H  -2.687174  -1.334837  -0.833011
H  -2.745298  -1.178847   0.918598
C  -0.153070  -0.685779   0.027593
H  -1.359652   0.865595   0.885192
H  -1.399999   0.797580  -0.847599
H  -0.112500  -1.318112   0.932088
H   0.743563  -0.100122  -0.053595
H  -0.182292  -1.341032  -0.837016
