butane_opt
 OpenBabel08242015403D

 14 13  0  0  0  0  0  0  0  0999 V2000
   -3.9321    0.2574    0.0375 C   0  0  0  0  0  0  0  0  0  0  0  0
   -2.6964   -0.6002    0.0323 C   0  0  0  0  0  0  0  0  0  0  0  0
   -4.8724   -0.3669    0.0293 H   0  0  0  0  0  0  0  0  0  0  0  0
   -3.9605    0.8315   -0.8512 H   0  0  0  0  0  0  0  0  0  0  0  0
   -3.9130    0.9073    0.8709 H   0  0  0  0  0  0  0  0  0  0  0  0
   -1.4159    0.1938   -0.0263 C   0  0  0  0  0  0  0  0  0  0  0  0
   -2.7961   -1.2653   -0.8096 H   0  0  0  0  0  0  0  0  0  0  0  0
   -2.6724   -1.2561    0.9345 H   0  0  0  0  0  0  0  0  0  0  0  0
   -0.1615   -0.6946    0.0478 C   0  0  0  0  0  0  0  0  0  0  0  0
   -1.4181    0.8877    0.8575 H   0  0  0  0  0  0  0  0  0  0  0  0
   -1.3807    0.8113   -0.9243 H   0  0  0  0  0  0  0  0  0  0  0  0
   -0.1977   -1.2891    0.9145 H   0  0  0  0  0  0  0  0  0  0  0  0
    0.7088   -0.1565    0.1566 H   0  0  0  0  0  0  0  0  0  0  0  0
   -0.0496   -1.4603   -0.8483 H   0  0  0  0  0  0  0  0  0  0  0  0
  1  5  1  0  0  0  0
  2  1  1  0  0  0  0
  2  8  1  0  0  0  0
  3  1  1  0  0  0  0
  4  1  1  0  0  0  0
  6  2  1  0  0  0  0
  6  9  1  0  0  0  0
  6 10  1  0  0  0  0
  7  2  1  0  0  0  0
  9 13  1  0  0  0  0
  9 12  1  0  0  0  0
 11  6  1  0  0  0  0
 14  9  1  0  0  0  0
M  END
$$$$
