butane_opt
 OpenBabel08242015403D

 14 13  0  0  0  0  0  0  0  0999 V2000
   -3.9572    0.2720    0.0342 C   0  0  0  0  0  0  0  0  0  0  0  0
   -2.6979   -0.6227    0.0133 C   0  0  0  0  0  0  0  0  0  0  0  0
   -4.8609   -0.3179    0.0306 H   0  0  0  0  0  0  0  0  0  0  0  0
   -4.0159    0.8311   -0.8042 H   0  0  0  0  0  0  0  0  0  0  0  0
   -3.9778    0.9857    0.9354 H   0  0  0  0  0  0  0  0  0  0  0  0
   -1.3903    0.1772   -0.0049 C   0  0  0  0  0  0  0  0  0  0  0  0
   -2.7476   -1.3274   -0.8822 H   0  0  0  0  0  0  0  0  0  0  0  0
   -2.6844   -1.2094    0.8582 H   0  0  0  0  0  0  0  0  0  0  0  0
   -0.1630   -0.6899    0.0483 C   0  0  0  0  0  0  0  0  0  0  0  0
   -1.3719    0.8850    0.8533 H   0  0  0  0  0  0  0  0  0  0  0  0
   -1.3620    0.8066   -0.8797 H   0  0  0  0  0  0  0  0  0  0  0  0
   -0.0940   -1.4724    1.0535 H   0  0  0  0  0  0  0  0  0  0  0  0
    0.7584   -0.0648   -0.0761 H   0  0  0  0  0  0  0  0  0  0  0  0
   -0.1683   -1.2265   -0.7194 H   0  0  0  0  0  0  0  0  0  0  0  0
  1  5  1  0  0  0  0
  2  1  1  0  0  0  0
  2  8  1  0  0  0  0
  3  1  1  0  0  0  0
  4  1  1  0  0  0  0
  6  2  1  0  0  0  0
  6  9  1  0  0  0  0
  6 10  1  0  0  0  0
  7  2  1  0  0  0  0
  9 12  1  0  0  0  0
 11  6  1  0  0  0  0
 13  9  1  0  0  0  0
 14  9  1  0  0  0  0
M  END
$$$$
