14
butane_opt
C  -3.947759   0.257714  -0.007930
C  -2.714522  -0.602337   0.053683
H  -4.862292  -0.359458   0.046817
H  -3.963729   0.874092  -0.936746
H  -3.952578   0.882143   0.823018
C  -1.397198   0.205886   0.050510
H  -2.705888  -1.258921  -0.792241
H  -2.786479  -1.283359   0.979083
C  -0.145212  -0.713432   0.000376
H  -1.414849   0.910762   0.947014
H  -1.434191   0.791524  -0.810745
H  -0.041180  -1.372060   0.916383
H   0.770952  -0.111589  -0.058687
H  -0.176183  -1.311843  -0.826874
