14
butane_opt
C  -3.935243   0.281190   0.014160
C  -2.688542  -0.642370   0.057499
H  -4.877292  -0.303467  -0.100977
H  -3.891529   0.869510  -0.891004
H  -4.010924   0.972697   0.881208
C  -1.403420   0.173837   0.016726
H  -2.706802  -1.255391  -0.766511
H  -2.712751  -1.262784   0.964117
C  -0.183492  -0.682574   0.016029
H  -1.374501   0.896177   0.892910
H  -1.385322   0.776313  -0.871844
H  -0.143051  -1.307746   0.927841
H   0.748345  -0.065573  -0.020206
H  -0.151859  -1.355214  -0.830821
