14
butane_opt
C  -3.950898   0.277662   0.046221
C  -2.696690  -0.627679   0.009882
H  -4.853698  -0.310266   0.008840
H  -3.982993   0.862721  -0.828689
H  -3.989118   1.011127   0.945578
C  -1.399354   0.168086  -0.012531
H  -2.764471  -1.344034  -0.883979
H  -2.702687  -1.239776   0.896721
C  -0.158806  -0.681766   0.050453
H  -1.419756   0.854174   0.826105
H  -1.343955   0.769843  -0.905467
H  -0.142508  -1.423428   1.015716
H   0.772052  -0.041619  -0.015938
H  -0.136762  -1.235362  -0.731957
