butane_opt
 OpenBabel08242015403D

 14 13  0  0  0  0  0  0  0  0999 V2000
   -3.9317    0.2751   -0.0074 C   0  0  0  0  0  0  0  0  0  0  0  0
   -2.6983   -0.6294    0.0643 C   0  0  0  0  0  0  0  0  0  0  0  0
   -4.8197   -0.2725    0.0145 H   0  0  0  0  0  0  0  0  0  0  0  0
   -3.9520    0.8865   -0.8976 H   0  0  0  0  0  0  0  0  0  0  0  0
   -4.0219    0.9559    0.8421 H   0  0  0  0  0  0  0  0  0  0  0  0
   -1.3959    0.1760    0.0453 C   0  0  0  0  0  0  0  0  0  0  0  0
   -2.6549   -1.3299   -0.7710 H   0  0  0  0  0  0  0  0  0  0  0  0
   -2.7469   -1.2728    0.9683 H   0  0  0  0  0  0  0  0  0  0  0  0
   -0.1735   -0.6861    0.0076 C   0  0  0  0  0  0  0  0  0  0  0  0
   -1.3924    0.8168    0.8571 H   0  0  0  0  0  0  0  0  0  0  0  0
   -1.3981    0.8190   -0.8591 H   0  0  0  0  0  0  0  0  0  0  0  0
   -0.1753   -1.2766    0.8628 H   0  0  0  0  0  0  0  0  0  0  0  0
    0.7400   -0.0703   -0.0234 H   0  0  0  0  0  0  0  0  0  0  0  0
   -0.2089   -1.3489   -0.8678 H   0  0  0  0  0  0  0  0  0  0  0  0
  1  3  1  0  0  0  0
  1  2  1  0  0  0  0
  1  5  1  0  0  0  0
  2  8  1  0  0  0  0
  4  1  1  0  0  0  0
  6  2  1  0  0  0  0
  6 10  1  0  0  0  0
  7  2  1  0  0  0  0
  9  6  1  0  0  0  0
  9 12  1  0  0  0  0
 11  6  1  0  0  0  0
 13  9  1  0  0  0  0
 14  9  1  0  0  0  0
M  END
$$$$
