14
butane_opt
C  -3.954578   0.264038  -0.001207
C  -2.715628  -0.622939   0.045640
H  -4.816520  -0.291510   0.204263
H  -4.055553   1.010982  -0.956567
H  -3.882690   0.810380   0.782693
C  -1.394283   0.193212   0.036600
H  -2.678957  -1.311237  -0.799326
H  -2.744483  -1.220638   0.893945
C  -0.149189  -0.702964   0.015646
H  -1.399563   0.883250   0.898858
H  -1.371479   0.811396  -0.835664
H  -0.116103  -1.261046   0.883900
H   0.765113  -0.081475   0.060275
H  -0.163449  -1.391275  -0.866872
