14
butane_opt
C  -3.931925   0.274215  -0.006905
C  -2.695151  -0.617962   0.054306
H  -4.845897  -0.325177   0.031712
H  -3.952198   0.909564  -0.888890
H  -4.015438   0.915330   0.811350
C  -1.406048   0.163883   0.045066
H  -2.709051  -1.296930  -0.759580
H  -2.766740  -1.249692   0.959944
C  -0.166022  -0.688207  -0.000760
H  -1.371735   0.921125   0.952812
H  -1.405756   0.770860  -0.819408
H  -0.130749  -1.361132   0.943545
H   0.763197  -0.063265  -0.072537
H  -0.204052  -1.274269  -0.814264
