14
butane_opt
C  -3.952678   0.273753   0.040577
C  -2.701270  -0.639259   0.008047
H  -4.818583  -0.272811   0.026027
H  -3.992614   0.847733  -0.809774
H  -3.992452   1.028452   0.965655
C  -1.396197   0.175723  -0.006405
H  -2.725393  -1.369569  -0.879248
H  -2.695155  -1.172775   0.832287
C  -0.155394  -0.678928   0.058567
H  -1.371093   0.812364   0.820136
H  -1.428771   0.816986  -0.938887
H  -0.112194  -1.431840   1.053058
H   0.747741  -0.063845  -0.095275
H  -0.180285  -1.231253  -0.716352
