butane_opt
 OpenBabel08242015403D

 14 13  0  0  0  0  0  0  0  0999 V2000
   -3.9428    0.2481    0.0088 C   0  0  0  0  0  0  0  0  0  0  0  0
   -2.7030   -0.5913    0.0399 C   0  0  0  0  0  0  0  0  0  0  0  0
   -4.8733   -0.3437    0.0555 H   0  0  0  0  0  0  0  0  0  0  0  0
   -3.9508    0.8791   -0.9219 H   0  0  0  0  0  0  0  0  0  0  0  0
   -3.9488    0.8859    0.8467 H   0  0  0  0  0  0  0  0  0  0  0  0
   -1.4074    0.1976    0.0219 C   0  0  0  0  0  0  0  0  0  0  0  0
   -2.7099   -1.3051   -0.8235 H   0  0  0  0  0  0  0  0  0  0  0  0
   -2.6655   -1.2485    0.9639 H   0  0  0  0  0  0  0  0  0  0  0  0
   -0.1578   -0.7011    0.0216 C   0  0  0  0  0  0  0  0  0  0  0  0
   -1.3875    0.9368    0.9394 H   0  0  0  0  0  0  0  0  0  0  0  0
   -1.4027    0.7518   -0.8321 H   0  0  0  0  0  0  0  0  0  0  0  0
   -0.0760   -1.3949    0.9691 H   0  0  0  0  0  0  0  0  0  0  0  0
    0.7314   -0.1507   -0.0602 H   0  0  0  0  0  0  0  0  0  0  0  0
   -0.1980   -1.3207   -0.8020 H   0  0  0  0  0  0  0  0  0  0  0  0
  1  2  1  0  0  0  0
  1  3  1  0  0  0  0
  1  5  1  0  0  0  0
  2  8  1  0  0  0  0
  4  1  1  0  0  0  0
  6  2  1  0  0  0  0
  6 10  1  0  0  0  0
  7  2  1  0  0  0  0
  9  6  1  0  0  0  0
  9 12  1  0  0  0  0
 11  6  1  0  0  0  0
 13  9  1  0  0  0  0
 14  9  1  0  0  0  0
M  END
$$$$
