14
butane_opt
C  -3.953706   0.274628   0.021591
C  -2.693635  -0.627016   0.037568
H  -4.855859  -0.283854   0.035431
H  -4.007174   0.941541  -0.885586
H  -3.951239   0.921974   0.879715
C  -1.397646   0.163884  -0.004064
H  -2.730917  -1.275652  -0.781662
H  -2.687151  -1.332553   0.985929
C  -0.162029  -0.672667   0.035815
H  -1.375907   0.868038   0.846461
H  -1.409674   0.784012  -0.891137
H  -0.195908  -1.215244   0.883877
H   0.751701  -0.064512   0.148067
H  -0.088627  -1.477171  -0.891022
