14
butane_opt
C  -3.945807   0.277404   0.042355
C  -2.679660  -0.628076   0.010764
H  -4.877958  -0.319554   0.018481
H  -4.020328   0.857764  -0.847632
H  -3.964235   0.936423   0.896655
C  -1.401411   0.177345   0.004487
H  -2.747745  -1.367783  -0.926155
H  -2.648552  -1.232597   0.881149
C  -0.173388  -0.686493   0.053387
H  -1.399480   0.828916   0.832982
H  -1.370589   0.843749  -0.918962
H  -0.131625  -1.382823   1.004327
H   0.735943  -0.066704  -0.080125
H  -0.193016  -1.250256  -0.747273
