butane_opt
 OpenBabel08242015403D

 14 13  0  0  0  0  0  0  0  0999 V2000
   -3.9463    0.2646    0.0432 C   0  0  0  0  0  0  0  0  0  0  0  0
   -2.6992   -0.6233    0.0092 C   0  0  0  0  0  0  0  0  0  0  0  0
   -4.8324   -0.3081    0.1137 H   0  0  0  0  0  0  0  0  0  0  0  0
   -4.0090    0.8709   -0.8466 H   0  0  0  0  0  0  0  0  0  0  0  0
   -3.9494    0.9559    0.9230 H   0  0  0  0  0  0  0  0  0  0  0  0
   -1.3966    0.1843   -0.0284 C   0  0  0  0  0  0  0  0  0  0  0  0
   -2.7570   -1.2664   -0.8137 H   0  0  0  0  0  0  0  0  0  0  0  0
   -2.7287   -1.2188    0.9018 H   0  0  0  0  0  0  0  0  0  0  0  0
   -0.1607   -0.6932    0.0644 C   0  0  0  0  0  0  0  0  0  0  0  0
   -1.4067    0.8627    0.8099 H   0  0  0  0  0  0  0  0  0  0  0  0
   -1.3596    0.8491   -0.9283 H   0  0  0  0  0  0  0  0  0  0  0  0
   -0.1984   -1.2631    0.9476 H   0  0  0  0  0  0  0  0  0  0  0  0
    0.7658   -0.1172    0.1047 H   0  0  0  0  0  0  0  0  0  0  0  0
   -0.1124   -1.4311   -0.8353 H   0  0  0  0  0  0  0  0  0  0  0  0
  1  3  1  0  0  0  0
  1  5  1  0  0  0  0
  2  1  1  0  0  0  0
  2  8  1  0  0  0  0
  4  1  1  0  0  0  0
  6  2  1  0  0  0  0
  6  9  1  0  0  0  0
  6 10  1  0  0  0  0
  7  2  1  0  0  0  0
  9 13  1  0  0  0  0
  9 12  1  0  0  0  0
 11  6  1  0  0  0  0
 14  9  1  0  0  0  0
M  END
$$$$
