14
butane_opt
C  -3.930318   0.256616   0.025107
C  -2.699920  -0.610953   0.011581
H  -4.818378  -0.324103   0.015381
H  -3.969729   0.835159  -0.844038
H  -3.972784   0.969439   0.908117
C  -1.415907   0.187672   0.021636
H  -2.714658  -1.277060  -0.849159
H  -2.699557  -1.256127   0.930112
C  -0.160648  -0.689481   0.044273
H  -1.396347   0.891689   0.871417
H  -1.426014   0.808390  -0.881182
H  -0.089107  -1.458469   1.009913
H   0.750233  -0.101671  -0.169043
H  -0.204795  -1.282079  -0.767214
