14
butane_opt
C  -3.961681   0.278780   0.000181
C  -2.708781  -0.624683   0.071314
H  -4.841129  -0.308247   0.046811
H  -3.974614   0.947036  -0.947846
H  -4.014430   0.901882   0.805674
C  -1.387980   0.168632   0.017041
H  -2.727258  -1.295982  -0.768993
H  -2.656600  -1.317316   1.007232
C  -0.154088  -0.679728   0.014480
H  -1.334385   0.855763   0.884172
H  -1.362782   0.777335  -0.875790
H  -0.206147  -1.145713   0.824599
H   0.734337  -0.097194   0.145643
H  -0.092053  -1.503408  -0.944145
