butane_opt
 OpenBabel08242015403D

 14 13  0  0  0  0  0  0  0  0999 V2000
   -3.9525    0.2499    0.0008 C   0  0  0  0  0  0  0  0  0  0  0  0
   -2.7103   -0.6075    0.0644 C   0  0  0  0  0  0  0  0  0  0  0  0
   -4.8837   -0.3374   -0.0304 H   0  0  0  0  0  0  0  0  0  0  0  0
   -3.9545    0.8676   -0.8994 H   0  0  0  0  0  0  0  0  0  0  0  0
   -3.9604    0.9175    0.8769 H   0  0  0  0  0  0  0  0  0  0  0  0
   -1.4013    0.2111    0.0176 C   0  0  0  0  0  0  0  0  0  0  0  0
   -2.6873   -1.2599   -0.7602 H   0  0  0  0  0  0  0  0  0  0  0  0
   -2.7247   -1.2858    1.0268 H   0  0  0  0  0  0  0  0  0  0  0  0
   -0.1456   -0.7075    0.0128 C   0  0  0  0  0  0  0  0  0  0  0  0
   -1.3998    0.8973    0.8783 H   0  0  0  0  0  0  0  0  0  0  0  0
   -1.3705    0.8380   -0.8661 H   0  0  0  0  0  0  0  0  0  0  0  0
   -0.1320   -1.2469    0.8543 H   0  0  0  0  0  0  0  0  0  0  0  0
    0.7151   -0.1737    0.0836 H   0  0  0  0  0  0  0  0  0  0  0  0
   -0.0946   -1.4532   -0.8867 H   0  0  0  0  0  0  0  0  0  0  0  0
  1  2  1  0  0  0  0
  1  5  1  0  0  0  0
  2  8  1  0  0  0  0
  3  1  1  0  0  0  0
  4  1  1  0  0  0  0
  6  2  1  0  0  0  0
  6 10  1  0  0  0  0
  7  2  1  0  0  0  0
  9  6  1  0  0  0  0
  9 13  1  0  0  0  0
  9 12  1  0  0  0  0
 11  6  1  0  0  0  0
 14  9  1  0  0  0  0
M  END
$$$$
