butane_opt
 OpenBabel08242015403D

 14 13  0  0  0  0  0  0  0  0999 V2000
   -3.9474    0.2678    0.0008 C   0  0  0  0  0  0  0  0  0  0  0  0
   -2.7001   -0.6303    0.0406 C   0  0  0  0  0  0  0  0  0  0  0  0
   -4.8173   -0.3141    0.1077 H   0  0  0  0  0  0  0  0  0  0  0  0
   -4.0557    0.9773   -0.9565 H   0  0  0  0  0  0  0  0  0  0  0  0
   -3.9327    0.8849    0.8214 H   0  0  0  0  0  0  0  0  0  0  0  0
   -1.4063    0.1803    0.0378 C   0  0  0  0  0  0  0  0  0  0  0  0
   -2.7253   -1.2875   -0.7851 H   0  0  0  0  0  0  0  0  0  0  0  0
   -2.7563   -1.2449    0.9481 H   0  0  0  0  0  0  0  0  0  0  0  0
   -0.1527   -0.6838    0.0173 C   0  0  0  0  0  0  0  0  0  0  0  0
   -1.4014    0.9227    0.9509 H   0  0  0  0  0  0  0  0  0  0  0  0
   -1.3608    0.7854   -0.8479 H   0  0  0  0  0  0  0  0  0  0  0  0
   -0.0759   -1.3274    0.9371 H   0  0  0  0  0  0  0  0  0  0  0  0
    0.7434   -0.0975   -0.0606 H   0  0  0  0  0  0  0  0  0  0  0  0
   -0.1719   -1.3728   -0.8490 H   0  0  0  0  0  0  0  0  0  0  0  0
  1  2  1  0  0  0  0
  1  3  1  0  0  0  0
  1  5  1  0  0  0  0
  2  8  1  0  0  0  0
  4  1  1  0  0  0  0
  6  2  1  0  0  0  0
  6 10  1  0  0  0  0
  7  2  1  0  0  0  0
  9  6  1  0  0  0  0
  9 12  1  0  0  0  0
 11  6  1  0  0  0  0
 13  9  1  0  0  0  0
 14  9  1  0  0  0  0
M  END
$$$$
