14
butane_opt
C  -3.952519   0.278034  -0.025202
C  -2.706048  -0.632774   0.077025
H  -4.841785  -0.306556   0.006889
H  -3.933873   0.921019  -0.934438
H  -3.978044   0.927075   0.850389
C  -1.394561   0.184249   0.052313
H  -2.649816  -1.298946  -0.769453
H  -2.717061  -1.280569   0.973879
C  -0.166641  -0.683797  -0.008520
H  -1.325050   0.905558   0.951598
H  -1.404365   0.694362  -0.768208
H  -0.090495  -1.373829   0.940177
H   0.753159  -0.094607  -0.105054
H  -0.207466  -1.300631  -0.847662
