14
butane_opt
C  -3.929677   0.252386  -0.013192
C  -2.700129  -0.589417   0.058102
H  -4.896200  -0.394135  -0.022937
H  -3.952826   0.871120  -0.915097
H  -3.933478   0.925306   0.850239
C  -1.418178   0.188708   0.051108
H  -2.658917  -1.258838  -0.772841
H  -2.746673  -1.296613   1.013319
C  -0.162585  -0.698664   0.000515
H  -1.360321   0.887108   0.924485
H  -1.456795   0.799026  -0.787617
H  -0.051395  -1.373859   0.920566
H   0.749089  -0.110694  -0.098009
H  -0.181972  -1.357549  -0.828361
