butane_opt
 OpenBabel08242015403D

 14 13  0  0  0  0  0  0  0  0999 V2000
   -3.9504    0.2736    0.0409 C   0  0  0  0  0  0  0  0  0  0  0  0
   -2.7081   -0.6274    0.0172 C   0  0  0  0  0  0  0  0  0  0  0  0
   -4.8569   -0.3021   -0.0949 H   0  0  0  0  0  0  0  0  0  0  0  0
   -3.9644    0.7382   -0.7525 H   0  0  0  0  0  0  0  0  0  0  0  0
   -4.0284    1.0882    1.0043 H   0  0  0  0  0  0  0  0  0  0  0  0
   -1.4005    0.1837   -0.0208 C   0  0  0  0  0  0  0  0  0  0  0  0
   -2.7126   -1.2962   -0.8174 H   0  0  0  0  0  0  0  0  0  0  0  0
   -2.6745   -1.2890    0.9251 H   0  0  0  0  0  0  0  0  0  0  0  0
   -0.1515   -0.6887    0.0570 C   0  0  0  0  0  0  0  0  0  0  0  0
   -1.3962    0.7909    0.7763 H   0  0  0  0  0  0  0  0  0  0  0  0
   -1.3877    0.8233   -0.9480 H   0  0  0  0  0  0  0  0  0  0  0  0
   -0.1335   -1.3303    0.9868 H   0  0  0  0  0  0  0  0  0  0  0  0
    0.7953   -0.0830   -0.0054 H   0  0  0  0  0  0  0  0  0  0  0  0
   -0.1429   -1.2999   -0.7458 H   0  0  0  0  0  0  0  0  0  0  0  0
  1  5  1  0  0  0  0
  2  1  1  0  0  0  0
  2  8  1  0  0  0  0
  3  1  1  0  0  0  0
  4  1  1  0  0  0  0
  6  2  1  0  0  0  0
  6  9  1  0  0  0  0
  6 10  1  0  0  0  0
  7  2  1  0  0  0  0
  9 12  1  0  0  0  0
 11  6  1  0  0  0  0
 13  9  1  0  0  0  0
 14  9  1  0  0  0  0
M  END
$$$$
