butane_opt
 OpenBabel08242015403D

 14 13  0  0  0  0  0  0  0  0999 V2000
   -3.9476    0.2778    0.0082 C   0  0  0  0  0  0  0  0  0  0  0  0
   -2.6894   -0.6170    0.0382 C   0  0  0  0  0  0  0  0  0  0  0  0
   -4.8572   -0.3142    0.1213 H   0  0  0  0  0  0  0  0  0  0  0  0
   -3.9797    0.9090   -0.9045 H   0  0  0  0  0  0  0  0  0  0  0  0
   -3.9584    0.8940    0.8194 H   0  0  0  0  0  0  0  0  0  0  0  0
   -1.3926    0.1602    0.0309 C   0  0  0  0  0  0  0  0  0  0  0  0
   -2.6819   -1.3213   -0.8349 H   0  0  0  0  0  0  0  0  0  0  0  0
   -2.6861   -1.2402    0.9117 H   0  0  0  0  0  0  0  0  0  0  0  0
   -0.1836   -0.6805    0.0186 C   0  0  0  0  0  0  0  0  0  0  0  0
   -1.3781    0.8941    0.9219 H   0  0  0  0  0  0  0  0  0  0  0  0
   -1.3882    0.7471   -0.8598 H   0  0  0  0  0  0  0  0  0  0  0  0
   -0.1454   -1.3697    0.9494 H   0  0  0  0  0  0  0  0  0  0  0  0
    0.7731   -0.0585   -0.0465 H   0  0  0  0  0  0  0  0  0  0  0  0
   -0.1722   -1.2842   -0.7830 H   0  0  0  0  0  0  0  0  0  0  0  0
  1  2  1  0  0  0  0
  1  3  1  0  0  0  0
  1  5  1  0  0  0  0
  2  8  1  0  0  0  0
  4  1  1  0  0  0  0
  6  2  1  0  0  0  0
  6 10  1  0  0  0  0
  7  2  1  0  0  0  0
  9  6  1  0  0  0  0
  9 12  1  0  0  0  0
 11  6  1  0  0  0  0
 13  9  1  0  0  0  0
 14  9  1  0  0  0  0
M  END
$$$$
