butane_opt
 OpenBabel08242015403D

 14 13  0  0  0  0  0  0  0  0999 V2000
   -3.9584    0.2747   -0.0202 C   0  0  0  0  0  0  0  0  0  0  0  0
   -2.7033   -0.6372    0.0946 C   0  0  0  0  0  0  0  0  0  0  0  0
   -4.8410   -0.2750   -0.0942 H   0  0  0  0  0  0  0  0  0  0  0  0
   -3.8846    0.8287   -0.8704 H   0  0  0  0  0  0  0  0  0  0  0  0
   -4.0721    1.0085    0.8729 H   0  0  0  0  0  0  0  0  0  0  0  0
   -1.3978    0.1772    0.0346 C   0  0  0  0  0  0  0  0  0  0  0  0
   -2.6861   -1.2995   -0.7484 H   0  0  0  0  0  0  0  0  0  0  0  0
   -2.6973   -1.2425    0.9673 H   0  0  0  0  0  0  0  0  0  0  0  0
   -0.1538   -0.6857   -0.0012 C   0  0  0  0  0  0  0  0  0  0  0  0
   -1.3387    0.8335    0.8995 H   0  0  0  0  0  0  0  0  0  0  0  0
   -1.4514    0.8241   -0.8600 H   0  0  0  0  0  0  0  0  0  0  0  0
   -0.1219   -1.2690    0.8682 H   0  0  0  0  0  0  0  0  0  0  0  0
    0.7888   -0.0758   -0.0020 H   0  0  0  0  0  0  0  0  0  0  0  0
   -0.1710   -1.3496   -0.8770 H   0  0  0  0  0  0  0  0  0  0  0  0
  1  2  1  0  0  0  0
  1  5  1  0  0  0  0
  2  8  1  0  0  0  0
  3  1  1  0  0  0  0
  4  1  1  0  0  0  0
  6  2  1  0  0  0  0
  6 10  1  0  0  0  0
  7  2  1  0  0  0  0
  9  6  1  0  0  0  0
  9 12  1  0  0  0  0
 11  6  1  0  0  0  0
 13  9  1  0  0  0  0
 14  9  1  0  0  0  0
M  END
$$$$
