butane_opt
 OpenBabel08242015403D

 14 13  0  0  0  0  0  0  0  0999 V2000
   -3.9580    0.2658    0.0491 C   0  0  0  0  0  0  0  0  0  0  0  0
   -2.7014   -0.6302   -0.0080 C   0  0  0  0  0  0  0  0  0  0  0  0
   -4.8599   -0.3173    0.2192 H   0  0  0  0  0  0  0  0  0  0  0  0
   -4.0673    0.9521   -0.8775 H   0  0  0  0  0  0  0  0  0  0  0  0
   -3.9326    0.8969    0.8909 H   0  0  0  0  0  0  0  0  0  0  0  0
   -1.3980    0.1917   -0.0252 C   0  0  0  0  0  0  0  0  0  0  0  0
   -2.7540   -1.3266   -0.8900 H   0  0  0  0  0  0  0  0  0  0  0  0
   -2.6109   -1.2210    0.8305 H   0  0  0  0  0  0  0  0  0  0  0  0
   -0.1515   -0.6927    0.0662 C   0  0  0  0  0  0  0  0  0  0  0  0
   -1.4039    0.9064    0.8458 H   0  0  0  0  0  0  0  0  0  0  0  0
   -1.3465    0.7875   -0.8752 H   0  0  0  0  0  0  0  0  0  0  0  0
   -0.1743   -1.3286    0.9989 H   0  0  0  0  0  0  0  0  0  0  0  0
    0.7618   -0.1287    0.0460 H   0  0  0  0  0  0  0  0  0  0  0  0
   -0.1199   -1.3070   -0.7384 H   0  0  0  0  0  0  0  0  0  0  0  0
  1  3  1  0  0  0  0
  1  5  1  0  0  0  0
  2  1  1  0  0  0  0
  2  8  1  0  0  0  0
  4  1  1  0  0  0  0
  6  2  1  0  0  0  0
  6  9  1  0  0  0  0
  6 10  1  0  0  0  0
  7  2  1  0  0  0  0
  9 12  1  0  0  0  0
 11  6  1  0  0  0  0
 13  9  1  0  0  0  0
 14  9  1  0  0  0  0
M  END
$$$$
