14
butane_opt
C  -3.934977   0.260590   0.024950
C  -2.699891  -0.611324   0.024006
H  -4.856169  -0.343688   0.166985
H  -4.003805   0.920517  -0.875269
H  -3.894183   0.870409   0.857159
C  -1.406052   0.186776   0.001814
H  -2.739768  -1.307818  -0.842698
H  -2.687481  -1.183051   0.869692
C  -0.158226  -0.700676   0.046154
H  -1.436425   0.854259   0.817507
H  -1.413991   0.857614  -0.906330
H  -0.191414  -1.259846   0.920246
H   0.758391  -0.116779   0.082194
H  -0.161610  -1.393703  -0.819822
