14
butane_opt
C  -3.932438   0.254418   0.003547
C  -2.704315  -0.591374   0.037542
H  -4.892828  -0.396750   0.168561
H  -4.013384   1.000321  -0.953753
H  -3.818929   0.799319   0.795228
C  -1.414280   0.192774   0.025296
H  -2.749647  -1.249637  -0.813622
H  -2.694438  -1.244750   0.951362
C  -0.167391  -0.705529   0.024025
H  -1.376381   0.901292   0.914137
H  -1.378224   0.752140  -0.801665
H  -0.106260  -1.289509   0.885983
H   0.750770  -0.115733   0.040002
H  -0.119482  -1.431967  -0.858103
