butane_opt
 OpenBabel08242015403D

 14 13  0  0  0  0  0  0  0  0999 V2000
   -3.9502    0.2674    0.0446 C   0  0  0  0  0  0  0  0  0  0  0  0
   -2.6988   -0.6266    0.0040 C   0  0  0  0  0  0  0  0  0  0  0  0
   -4.8174   -0.2935    0.0574 H   0  0  0  0  0  0  0  0  0  0  0  0
   -4.0490    0.8809   -0.8362 H   0  0  0  0  0  0  0  0  0  0  0  0
   -3.9472    0.9882    0.9096 H   0  0  0  0  0  0  0  0  0  0  0  0
   -1.3991    0.1885   -0.0042 C   0  0  0  0  0  0  0  0  0  0  0  0
   -2.7535   -1.3542   -0.8868 H   0  0  0  0  0  0  0  0  0  0  0  0
   -2.6855   -1.2241    0.8431 H   0  0  0  0  0  0  0  0  0  0  0  0
   -0.1579   -0.6901    0.0621 C   0  0  0  0  0  0  0  0  0  0  0  0
   -1.4134    0.8127    0.8059 H   0  0  0  0  0  0  0  0  0  0  0  0
   -1.2908    0.8152   -0.9002 H   0  0  0  0  0  0  0  0  0  0  0  0
   -0.1262   -1.3940    1.0265 H   0  0  0  0  0  0  0  0  0  0  0  0
    0.7352   -0.0921   -0.0876 H   0  0  0  0  0  0  0  0  0  0  0  0
   -0.2009   -1.2756   -0.7657 H   0  0  0  0  0  0  0  0  0  0  0  0
  1  3  1  0  0  0  0
  1  5  1  0  0  0  0
  2  1  1  0  0  0  0
  2  8  1  0  0  0  0
  4  1  1  0  0  0  0
  6  2  1  0  0  0  0
  6  9  1  0  0  0  0
  6 10  1  0  0  0  0
  7  2  1  0  0  0  0
  9 12  1  0  0  0  0
 11  6  1  0  0  0  0
 13  9  1  0  0  0  0
 14  9  1  0  0  0  0
M  END
$$$$
