butane_opt
 OpenBabel08242015403D

 14 13  0  0  0  0  0  0  0  0999 V2000
   -3.9414    0.2589   -0.0138 C   0  0  0  0  0  0  0  0  0  0  0  0
   -2.6889   -0.6077    0.0677 C   0  0  0  0  0  0  0  0  0  0  0  0
   -4.8702   -0.3561   -0.0319 H   0  0  0  0  0  0  0  0  0  0  0  0
   -3.9228    0.7907   -0.8439 H   0  0  0  0  0  0  0  0  0  0  0  0
   -3.9733    0.9551    0.8789 H   0  0  0  0  0  0  0  0  0  0  0  0
   -1.4125    0.2028    0.0342 C   0  0  0  0  0  0  0  0  0  0  0  0
   -2.6673   -1.2879   -0.7729 H   0  0  0  0  0  0  0  0  0  0  0  0
   -2.7906   -1.2831    1.0021 H   0  0  0  0  0  0  0  0  0  0  0  0
   -0.1653   -0.7043    0.0087 C   0  0  0  0  0  0  0  0  0  0  0  0
   -1.3780    0.9068    0.9105 H   0  0  0  0  0  0  0  0  0  0  0  0
   -1.4254    0.8081   -0.8679 H   0  0  0  0  0  0  0  0  0  0  0  0
   -0.0468   -1.3473    0.9117 H   0  0  0  0  0  0  0  0  0  0  0  0
    0.7218   -0.1100   -0.0564 H   0  0  0  0  0  0  0  0  0  0  0  0
   -0.1753   -1.3463   -0.8366 H   0  0  0  0  0  0  0  0  0  0  0  0
  1  2  1  0  0  0  0
  1  5  1  0  0  0  0
  2  8  1  0  0  0  0
  3  1  1  0  0  0  0
  4  1  1  0  0  0  0
  6  2  1  0  0  0  0
  6 10  1  0  0  0  0
  7  2  1  0  0  0  0
  9  6  1  0  0  0  0
  9 12  1  0  0  0  0
 11  6  1  0  0  0  0
 13  9  1  0  0  0  0
 14  9  1  0  0  0  0
M  END
$$$$
