butane_opt
 OpenBabel08242015403D

 14 13  0  0  0  0  0  0  0  0999 V2000
   -3.9479    0.2774    0.0343 C   0  0  0  0  0  0  0  0  0  0  0  0
   -2.6915   -0.6233    0.0132 C   0  0  0  0  0  0  0  0  0  0  0  0
   -4.8766   -0.3354    0.1033 H   0  0  0  0  0  0  0  0  0  0  0  0
   -4.0341    0.9781   -0.8939 H   0  0  0  0  0  0  0  0  0  0  0  0
   -3.9259    0.8518    0.8486 H   0  0  0  0  0  0  0  0  0  0  0  0
   -1.3995    0.1638    0.0110 C   0  0  0  0  0  0  0  0  0  0  0  0
   -2.7013   -1.3119   -0.8439 H   0  0  0  0  0  0  0  0  0  0  0  0
   -2.7069   -1.2156    0.8843 H   0  0  0  0  0  0  0  0  0  0  0  0
   -0.1640   -0.6835    0.0431 C   0  0  0  0  0  0  0  0  0  0  0  0
   -1.4129    0.8359    0.8614 H   0  0  0  0  0  0  0  0  0  0  0  0
   -1.3659    0.7882   -0.8977 H   0  0  0  0  0  0  0  0  0  0  0  0
   -0.1444   -1.2726    0.9431 H   0  0  0  0  0  0  0  0  0  0  0  0
    0.7469   -0.0914    0.0075 H   0  0  0  0  0  0  0  0  0  0  0  0
   -0.1699   -1.3101   -0.8035 H   0  0  0  0  0  0  0  0  0  0  0  0
  1  3  1  0  0  0  0
  1  5  1  0  0  0  0
  2  1  1  0  0  0  0
  2  8  1  0  0  0  0
  4  1  1  0  0  0  0
  6  2  1  0  0  0  0
  6  9  1  0  0  0  0
  6 10  1  0  0  0  0
  7  2  1  0  0  0  0
  9 12  1  0  0  0  0
 11  6  1  0  0  0  0
 13  9  1  0  0  0  0
 14  9  1  0  0  0  0
M  END
$$$$
