14
butane_opt
C  -3.955532   0.272567  -0.009222
C  -2.692747  -0.622342   0.057207
H  -4.890321  -0.342700   0.122250
H  -4.019923   0.984230  -0.981781
H  -3.971671   0.830542   0.771245
C  -1.403037   0.173978   0.057981
H  -2.656023  -1.291348  -0.798750
H  -2.775772  -1.228153   0.945277
C  -0.149678  -0.686212   0.005364
H  -1.362574   0.850525   0.930117
H  -1.395709   0.789421  -0.822118
H  -0.104380  -1.261549   0.860518
H   0.727037  -0.094514  -0.063823
H  -0.159034  -1.365497  -0.871126
