14
butane_opt
C  -3.933051   0.253665   0.010723
C  -2.696608  -0.596488   0.061165
H  -4.868508  -0.363081  -0.067999
H  -3.881313   0.788080  -0.857245
H  -3.989572   0.979835   0.903295
C  -1.413044   0.192031   0.002457
H  -2.769460  -1.230296  -0.763981
H  -2.685385  -1.252780   0.936906
C  -0.168996  -0.710403   0.026326
H  -1.393125   0.906775   0.872267
H  -1.412519   0.799878  -0.880412
H  -0.151727  -1.308455   0.916569
H   0.767848  -0.075750   0.011630
H  -0.099703  -1.385877  -0.839310
