14
butane_opt
C  -3.942396   0.255045  -0.013991
C  -2.703829  -0.596388   0.076145
H  -4.864755  -0.363729  -0.020923
H  -3.864628   0.866950  -0.939750
H  -3.953572   0.851457   0.819147
C  -1.415746   0.194144   0.050095
H  -2.669215  -1.293115  -0.790010
H  -2.683196  -1.195048   0.948146
C  -0.161148  -0.703827  -0.001031
H  -1.396522   0.889970   0.923493
H  -1.412026   0.804347  -0.794913
H  -0.045063  -1.359395   0.912832
H   0.749117  -0.119629  -0.102852
H  -0.205559  -1.342382  -0.853013
