butane_opt
 OpenBabel08242015403D

 14 13  0  0  0  0  0  0  0  0999 V2000
   -3.9401    0.2564    0.0161 C   0  0  0  0  0  0  0  0  0  0  0  0
   -2.7035   -0.6042    0.0361 C   0  0  0  0  0  0  0  0  0  0  0  0
   -4.8804   -0.3867    0.1260 H   0  0  0  0  0  0  0  0  0  0  0  0
   -4.0004    0.9112   -0.9045 H   0  0  0  0  0  0  0  0  0  0  0  0
   -3.9478    0.8899    0.8265 H   0  0  0  0  0  0  0  0  0  0  0  0
   -1.4061    0.2030    0.0163 C   0  0  0  0  0  0  0  0  0  0  0  0
   -2.7647   -1.2837   -0.8363 H   0  0  0  0  0  0  0  0  0  0  0  0
   -2.7482   -1.1981    0.9222 H   0  0  0  0  0  0  0  0  0  0  0  0
   -0.1474   -0.7102    0.0358 C   0  0  0  0  0  0  0  0  0  0  0  0
   -1.4394    0.8692    0.8366 H   0  0  0  0  0  0  0  0  0  0  0  0
   -1.3713    0.8049   -0.8672 H   0  0  0  0  0  0  0  0  0  0  0  0
   -0.1174   -1.3090    0.9086 H   0  0  0  0  0  0  0  0  0  0  0  0
    0.7865   -0.1057    0.0115 H   0  0  0  0  0  0  0  0  0  0  0  0
   -0.1633   -1.4070   -0.8413 H   0  0  0  0  0  0  0  0  0  0  0  0
  1  2  1  0  0  0  0
  1  3  1  0  0  0  0
  1  5  1  0  0  0  0
  2  8  1  0  0  0  0
  4  1  1  0  0  0  0
  6  9  1  0  0  0  0
  6  2  1  0  0  0  0
  6 10  1  0  0  0  0
  7  2  1  0  0  0  0
  9 12  1  0  0  0  0
 11  6  1  0  0  0  0
 13  9  1  0  0  0  0
 14  9  1  0  0  0  0
M  END
$$$$
