14
butane_opt
C  -3.934997   0.260911   0.042567
C  -2.696152  -0.610782  -0.000628
H  -4.837267  -0.356111   0.000475
H  -3.954977   0.810407  -0.799356
H  -3.869527   0.986765   0.955972
C  -1.413090   0.193661  -0.004194
H  -2.753848  -1.279864  -0.849525
H  -2.723528  -1.247928   0.865151
C  -0.165382  -0.700045   0.058629
H  -1.407578   0.856002   0.824557
H  -1.403910   0.822853  -0.900554
H  -0.103547  -1.417205   1.010678
H   0.700533  -0.143466  -0.090890
H  -0.156731  -1.225087  -0.716239
