14
butane_opt
C  -3.956156   0.255904   0.040581
C  -2.709446  -0.606446   0.029353
H  -4.885566  -0.361524  -0.061988
H  -3.939830   0.751221  -0.797066
H  -3.999659   1.018086   0.950904
C  -1.402653   0.204797  -0.016921
H  -2.745882  -1.307734  -0.817746
H  -2.650523  -1.202809   0.884962
C  -0.147426  -0.709457   0.050704
H  -1.380011   0.814212   0.776317
H  -1.397695   0.885810  -0.944585
H  -0.181585  -1.355591   0.986380
H   0.777990  -0.099229   0.038236
H  -0.028666  -1.359453  -0.812055
