butane_opt
 OpenBabel08242015403D

 14 13  0  0  0  0  0  0  0  0999 V2000
   -3.9538    0.2726   -0.0096 C   0  0  0  0  0  0  0  0  0  0  0  0
   -2.7056   -0.6216    0.0758 C   0  0  0  0  0  0  0  0  0  0  0  0
   -4.8581   -0.2948    0.0522 H   0  0  0  0  0  0  0  0  0  0  0  0
   -3.9913    0.8954   -0.8964 H   0  0  0  0  0  0  0  0  0  0  0  0
   -4.0071    0.9590    0.8486 H   0  0  0  0  0  0  0  0  0  0  0  0
   -1.3889    0.1669    0.0211 C   0  0  0  0  0  0  0  0  0  0  0  0
   -2.7053   -1.2947   -0.7571 H   0  0  0  0  0  0  0  0  0  0  0  0
   -2.7746   -1.2666    0.9732 H   0  0  0  0  0  0  0  0  0  0  0  0
   -0.1523   -0.6883    0.0108 C   0  0  0  0  0  0  0  0  0  0  0  0
   -1.4026    0.8160    0.8596 H   0  0  0  0  0  0  0  0  0  0  0  0
   -1.3990    0.8402   -0.8725 H   0  0  0  0  0  0  0  0  0  0  0  0
   -0.1452   -1.1686    0.8105 H   0  0  0  0  0  0  0  0  0  0  0  0
    0.7719   -0.0652    0.1300 H   0  0  0  0  0  0  0  0  0  0  0  0
   -0.1116   -1.4454   -0.8928 H   0  0  0  0  0  0  0  0  0  0  0  0
  1  3  1  0  0  0  0
  1  2  1  0  0  0  0
  1  5  1  0  0  0  0
  2  8  1  0  0  0  0
  4  1  1  0  0  0  0
  6  2  1  0  0  0  0
  6 10  1  0  0  0  0
  7  2  1  0  0  0  0
  9  6  1  0  0  0  0
  9 13  1  0  0  0  0
  9 12  1  0  0  0  0
 11  6  1  0  0  0  0
 14  9  1  0  0  0  0
M  END
$$$$
