14
butane_opt
C  -3.924206   0.257252  -0.010251
C  -2.710424  -0.606083   0.078675
H  -4.859420  -0.334519   0.091206
H  -3.909832   0.886646  -0.937639
H  -3.942876   0.864429   0.805512
C  -1.410699   0.202442   0.021022
H  -2.716563  -1.265710  -0.736356
H  -2.730537  -1.241444   0.982157
C  -0.168484  -0.708768   0.008078
H  -1.361493   0.873059   0.869125
H  -1.452769   0.818627  -0.861390
H  -0.177875  -1.178134   0.805979
H   0.745182  -0.113275   0.170832
H  -0.053907  -1.523242  -0.933676
