14
butane_opt
C  -3.947893   0.258128  -0.003930
C  -2.702607  -0.616049   0.076436
H  -4.853400  -0.324214  -0.040580
H  -3.915056   0.844924  -0.880636
H  -4.061221   0.999761   0.864005
C  -1.396457   0.198324   0.017302
H  -2.730183  -1.261218  -0.778485
H  -2.802794  -1.280218   1.019377
C  -0.147596  -0.699553   0.008644
H  -1.355744   0.915079   0.876092
H  -1.422241   0.771831  -0.844369
H  -0.153163  -1.296907   0.894915
H   0.740639  -0.129710   0.036453
H  -0.126208  -1.410029  -0.879175
