14
butane_opt
C  -3.941554   0.282409   0.032474
C  -2.693295  -0.633170   0.010636
H  -4.841485  -0.328744   0.003064
H  -3.991932   0.831793  -0.813136
H  -3.991811   0.987767   0.926245
C  -1.401800   0.178159   0.009256
H  -2.716485  -1.355049  -0.848229
H  -2.672065  -1.215145   0.875018
C  -0.172491  -0.689997   0.048257
H  -1.361417   0.815528   0.827203
H  -1.333099   0.826925  -0.892827
H  -0.086435  -1.405355   0.991934
H   0.745057  -0.075769  -0.105513
H  -0.260456  -1.196412  -0.711341
