14
butane_opt
C  -3.958570   0.276740   0.024101
C  -2.695276  -0.630112   0.026094
H  -4.863195  -0.334355   0.012495
H  -4.020477   0.867897  -0.846453
H  -3.989961   1.036483   0.932226
C  -1.383467   0.170780   0.016111
H  -2.713924  -1.366569  -0.869689
H  -2.736403  -1.210344   0.871546
C  -0.168913  -0.684447   0.043683
H  -1.374848   0.830965   0.832148
H  -1.350254   0.839123  -0.908962
H  -0.080291  -1.399191   1.008330
H   0.747197  -0.079557  -0.141783
H  -0.169050  -1.246946  -0.753568
