butane_opt
 OpenBabel08242015403D

 14 13  0  0  0  0  0  0  0  0999 V2000
   -3.9299    0.2536   -0.0152 C   0  0  0  0  0  0  0  0  0  0  0  0
   -2.7046   -0.5996    0.0884 C   0  0  0  0  0  0  0  0  0  0  0  0
   -4.8490   -0.3572   -0.0983 H   0  0  0  0  0  0  0  0  0  0  0  0
   -3.8321    0.8236   -0.9328 H   0  0  0  0  0  0  0  0  0  0  0  0
   -4.0140    0.9200    0.8304 H   0  0  0  0  0  0  0  0  0  0  0  0
   -1.4081    0.2074    0.0426 C   0  0  0  0  0  0  0  0  0  0  0  0
   -2.6952   -1.2942   -0.7435 H   0  0  0  0  0  0  0  0  0  0  0  0
   -2.7064   -1.2550    0.9974 H   0  0  0  0  0  0  0  0  0  0  0  0
   -0.1759   -0.7125    0.0011 C   0  0  0  0  0  0  0  0  0  0  0  0
   -1.3469    0.9247    0.9261 H   0  0  0  0  0  0  0  0  0  0  0  0
   -1.4390    0.8245   -0.8373 H   0  0  0  0  0  0  0  0  0  0  0  0
   -0.0888   -1.3140    0.8776 H   0  0  0  0  0  0  0  0  0  0  0  0
    0.7369   -0.1150   -0.0931 H   0  0  0  0  0  0  0  0  0  0  0  0
   -0.1639   -1.4189   -0.8924 H   0  0  0  0  0  0  0  0  0  0  0  0
  1  2  1  0  0  0  0
  1  5  1  0  0  0  0
  2  8  1  0  0  0  0
  3  1  1  0  0  0  0
  4  1  1  0  0  0  0
  6  2  1  0  0  0  0
  6 10  1  0  0  0  0
  7  2  1  0  0  0  0
  9  6  1  0  0  0  0
  9 12  1  0  0  0  0
 11  6  1  0  0  0  0
 13  9  1  0  0  0  0
 14  9  1  0  0  0  0
M  END
$$$$
