14
butane_opt
C  -3.938331   0.247883   0.017000
C  -2.694314  -0.597485   0.030486
H  -4.845054  -0.332587   0.127027
H  -3.955576   0.944066  -0.938228
H  -3.910427   0.814763   0.814683
C  -1.420701   0.192212   0.026957
H  -2.696068  -1.289997  -0.826476
H  -2.715812  -1.188423   0.914490
C  -0.160159  -0.705454   0.031271
H  -1.413451   0.906928   0.891647
H  -1.375724   0.827989  -0.874471
H  -0.091772  -1.323090   0.888371
H   0.756549  -0.110082  -0.012688
H  -0.207865  -1.367864  -0.819110
