butane_opt
 OpenBabel08242015403D

 14 13  0  0  0  0  0  0  0  0999 V2000
   -3.9537    0.2746    0.0433 C   0  0  0  0  0  0  0  0  0  0  0  0
   -2.6926   -0.6208    0.0246 C   0  0  0  0  0  0  0  0  0  0  0  0
   -4.8593   -0.3298    0.0726 H   0  0  0  0  0  0  0  0  0  0  0  0
   -3.9499    0.8917   -0.8775 H   0  0  0  0  0  0  0  0  0  0  0  0
   -3.9217    0.9226    0.9104 H   0  0  0  0  0  0  0  0  0  0  0  0
   -1.3883    0.1740   -0.0218 C   0  0  0  0  0  0  0  0  0  0  0  0
   -2.7089   -1.3250   -0.8369 H   0  0  0  0  0  0  0  0  0  0  0  0
   -2.6858   -1.2143    0.9009 H   0  0  0  0  0  0  0  0  0  0  0  0
   -0.1727   -0.6915    0.0514 C   0  0  0  0  0  0  0  0  0  0  0  0
   -1.3803    0.8070    0.7952 H   0  0  0  0  0  0  0  0  0  0  0  0
   -1.4279    0.8472   -0.9488 H   0  0  0  0  0  0  0  0  0  0  0  0
   -0.2449   -1.2299    0.8895 H   0  0  0  0  0  0  0  0  0  0  0  0
    0.7429   -0.0877    0.2022 H   0  0  0  0  0  0  0  0  0  0  0  0
   -0.1011   -1.3860   -0.8351 H   0  0  0  0  0  0  0  0  0  0  0  0
  1  3  1  0  0  0  0
  1  5  1  0  0  0  0
  2  1  1  0  0  0  0
  2  8  1  0  0  0  0
  4  1  1  0  0  0  0
  6  2  1  0  0  0  0
  6  9  1  0  0  0  0
  6 10  1  0  0  0  0
  7  2  1  0  0  0  0
  9 13  1  0  0  0  0
  9 12  1  0  0  0  0
 11  6  1  0  0  0  0
 14  9  1  0  0  0  0
M  END
$$$$
