14
butane_opt
C  -3.946201   0.254861   0.031318
C  -2.708503  -0.616810   0.027916
H  -4.823445  -0.295591  -0.003521
H  -3.996699   0.808518  -0.832248
H  -3.976807   0.980454   0.913024
C  -1.400974   0.197099  -0.007946
H  -2.738076  -1.247929  -0.789620
H  -2.710097  -1.245985   0.918343
C  -0.149932  -0.700070   0.040719
H  -1.418978   0.881909   0.848013
H  -1.358784   0.849029  -0.899449
H  -0.184641  -1.328656   0.936220
H   0.735405  -0.137993   0.030801
H  -0.077704  -1.362897  -0.787926
