butane_opt
 OpenBabel08242015403D

 14 13  0  0  0  0  0  0  0  0999 V2000
   -3.9666    0.2772    0.0536 C   0  0  0  0  0  0  0  0  0  0  0  0
   -2.6922   -0.6386   -0.0001 C   0  0  0  0  0  0  0  0  0  0  0  0
   -4.8431   -0.2944    0.1002 H   0  0  0  0  0  0  0  0  0  0  0  0
   -4.0057    0.9106   -0.8223 H   0  0  0  0  0  0  0  0  0  0  0  0
   -3.9419    0.9111    0.8996 H   0  0  0  0  0  0  0  0  0  0  0  0
   -1.3962    0.1832   -0.0182 C   0  0  0  0  0  0  0  0  0  0  0  0
   -2.7807   -1.3857   -0.8931 H   0  0  0  0  0  0  0  0  0  0  0  0
   -2.6369   -1.2282    0.8424 H   0  0  0  0  0  0  0  0  0  0  0  0
   -0.1606   -0.6798    0.0663 C   0  0  0  0  0  0  0  0  0  0  0  0
   -1.4125    0.8423    0.7977 H   0  0  0  0  0  0  0  0  0  0  0  0
   -1.3499    0.8684   -0.9634 H   0  0  0  0  0  0  0  0  0  0  0  0
   -0.1756   -1.3264    0.9887 H   0  0  0  0  0  0  0  0  0  0  0  0
    0.7626   -0.1089    0.0417 H   0  0  0  0  0  0  0  0  0  0  0  0
   -0.0669   -1.3559   -0.7789 H   0  0  0  0  0  0  0  0  0  0  0  0
  1  3  1  0  0  0  0
  1  5  1  0  0  0  0
  2  1  1  0  0  0  0
  2  8  1  0  0  0  0
  4  1  1  0  0  0  0
  6  2  1  0  0  0  0
  6  9  1  0  0  0  0
  6 10  1  0  0  0  0
  7  2  1  0  0  0  0
  9 12  1  0  0  0  0
 11  6  1  0  0  0  0
 13  9  1  0  0  0  0
 14  9  1  0  0  0  0
M  END
$$$$
