14
butane_opt
C  -3.928873   0.252893  -0.000880
C  -2.702188  -0.597627   0.067557
H  -4.861348  -0.373228  -0.100969
H  -3.864259   0.842952  -0.889047
H  -4.015456   0.968202   0.853952
C  -1.411013   0.198929   0.030531
H  -2.722058  -1.229655  -0.754091
H  -2.729924  -1.281873   1.013702
C  -0.167077  -0.710782   0.007799
H  -1.366315   0.897242   0.899828
H  -1.462370   0.763565  -0.834221
H  -0.138104  -1.320722   0.899755
H   0.785768  -0.078589  -0.053057
H  -0.136620  -1.380326  -0.856178
