14
butane_opt
C  -3.947971   0.247825  -0.004048
C  -2.721547  -0.598584   0.050326
H  -4.852414  -0.332452   0.105881
H  -3.954206   1.009514  -0.973686
H  -3.943599   0.818776   0.787116
C  -1.401733   0.193211   0.041394
H  -2.723826  -1.221079  -0.750319
H  -2.767145  -1.255474   0.957886
C  -0.139457  -0.706501   0.004882
H  -1.384290   0.953693   0.957978
H  -1.415968   0.767527  -0.783710
H  -0.065688  -1.322968   0.885826
H   0.765180  -0.117326   0.011863
H  -0.153060  -1.404677  -0.882383
