butane_opt
 OpenBabel08242015403D

 14 13  0  0  0  0  0  0  0  0999 V2000
   -3.9459    0.2809    0.0373 C   0  0  0  0  0  0  0  0  0  0  0  0
   -2.6939   -0.6246    0.0036 C   0  0  0  0  0  0  0  0  0  0  0  0
   -4.8756   -0.3434    0.1811 H   0  0  0  0  0  0  0  0  0  0  0  0
   -4.0226    0.9577   -0.8729 H   0  0  0  0  0  0  0  0  0  0  0  0
   -3.8601    0.8728    0.8667 H   0  0  0  0  0  0  0  0  0  0  0  0
   -1.3942    0.1706   -0.0058 C   0  0  0  0  0  0  0  0  0  0  0  0
   -2.7190   -1.3226   -0.8573 H   0  0  0  0  0  0  0  0  0  0  0  0
   -2.6803   -1.2398    0.8961 H   0  0  0  0  0  0  0  0  0  0  0  0
   -0.1773   -0.6886    0.0472 C   0  0  0  0  0  0  0  0  0  0  0  0
   -1.4159    0.8435    0.8376 H   0  0  0  0  0  0  0  0  0  0  0  0
   -1.3799    0.7844   -0.8536 H   0  0  0  0  0  0  0  0  0  0  0  0
   -0.2267   -1.2971    0.9584 H   0  0  0  0  0  0  0  0  0  0  0  0
    0.7552   -0.0565    0.0753 H   0  0  0  0  0  0  0  0  0  0  0  0
   -0.0709   -1.3239   -0.7907 H   0  0  0  0  0  0  0  0  0  0  0  0
  1  3  1  0  0  0  0
  1  5  1  0  0  0  0
  2  1  1  0  0  0  0
  2  8  1  0  0  0  0
  4  1  1  0  0  0  0
  6  2  1  0  0  0  0
  6  9  1  0  0  0  0
  6 10  1  0  0  0  0
  7  2  1  0  0  0  0
  9 13  1  0  0  0  0
  9 12  1  0  0  0  0
 11  6  1  0  0  0  0
 14  9  1  0  0  0  0
M  END
$$$$
