14
butane_opt
C  -3.930870   0.267727   0.002524
C  -2.703841  -0.624059   0.045160
H  -4.827792  -0.292703   0.013964
H  -3.998941   0.928432  -0.908189
H  -3.937641   0.957881   0.866659
C  -1.404823   0.172615   0.042750
H  -2.690343  -1.325965  -0.826259
H  -2.700941  -1.232728   0.922866
C  -0.176535  -0.686567   0.015615
H  -1.356653   0.838077   0.919001
H  -1.397289   0.839519  -0.882537
H  -0.094835  -1.364133   0.969258
H   0.776673  -0.068236  -0.090364
H  -0.211338  -1.299976  -0.815290
