14
butane_opt
C  -3.950840   0.260017   0.006013
C  -2.711987  -0.605588   0.055556
H  -4.900322  -0.341312  -0.061615
H  -3.925375   0.812530  -0.856484
H  -3.997294   0.956892   0.896222
C  -1.400263   0.193529   0.018491
H  -2.737240  -1.209261  -0.759013
H  -2.745861  -1.293780   0.977276
C  -0.150791  -0.701060   0.023747
H  -1.353327   0.849701   0.847571
H  -1.388663   0.842420  -0.872484
H  -0.077905  -1.299893   0.895265
H   0.751998  -0.112116   0.022951
H  -0.085010  -1.448980  -0.897035
