butane_opt
 OpenBabel08242015403D

 14 13  0  0  0  0  0  0  0  0999 V2000
   -3.9354    0.2562    0.0503 C   0  0  0  0  0  0  0  0  0  0  0  0
   -2.6931   -0.5996    0.0139 C   0  0  0  0  0  0  0  0  0  0  0  0
   -4.8972   -0.3684    0.0245 H   0  0  0  0  0  0  0  0  0  0  0  0
   -3.9953    0.7986   -0.8029 H   0  0  0  0  0  0  0  0  0  0  0  0
   -3.9239    0.9579    0.9467 H   0  0  0  0  0  0  0  0  0  0  0  0
   -1.4047    0.1833   -0.0271 C   0  0  0  0  0  0  0  0  0  0  0  0
   -2.7251   -1.2618   -0.8474 H   0  0  0  0  0  0  0  0  0  0  0  0
   -2.6698   -1.1915    0.8652 H   0  0  0  0  0  0  0  0  0  0  0  0
   -0.1672   -0.6968    0.0610 C   0  0  0  0  0  0  0  0  0  0  0  0
   -1.4661    0.8004    0.7929 H   0  0  0  0  0  0  0  0  0  0  0  0
   -1.3883    0.8788   -0.9819 H   0  0  0  0  0  0  0  0  0  0  0  0
   -0.2159   -1.3119    0.9534 H   0  0  0  0  0  0  0  0  0  0  0  0
    0.7421   -0.1236    0.1179 H   0  0  0  0  0  0  0  0  0  0  0  0
   -0.0705   -1.3781   -0.8044 H   0  0  0  0  0  0  0  0  0  0  0  0
  1  5  1  0  0  0  0
  2  1  1  0  0  0  0
  2  8  1  0  0  0  0
  3  1  1  0  0  0  0
  4  1  1  0  0  0  0
  6  2  1  0  0  0  0
  6  9  1  0  0  0  0
  6 10  1  0  0  0  0
  7  2  1  0  0  0  0
  9 13  1  0  0  0  0
  9 12  1  0  0  0  0
 11  6  1  0  0  0  0
 14  9  1  0  0  0  0
M  END
$$$$
