butane_opt
 OpenBabel08242015403D

 14 13  0  0  0  0  0  0  0  0999 V2000
   -3.9406    0.2667    0.0258 C   0  0  0  0  0  0  0  0  0  0  0  0
   -2.6961   -0.6186    0.0323 C   0  0  0  0  0  0  0  0  0  0  0  0
   -4.8507   -0.3024   -0.0390 H   0  0  0  0  0  0  0  0  0  0  0  0
   -3.9419    0.7671   -0.7952 H   0  0  0  0  0  0  0  0  0  0  0  0
   -3.9859    1.0337    0.9610 H   0  0  0  0  0  0  0  0  0  0  0  0
   -1.3978    0.1767   -0.0118 C   0  0  0  0  0  0  0  0  0  0  0  0
   -2.6784   -1.2465   -0.8067 H   0  0  0  0  0  0  0  0  0  0  0  0
   -2.6654   -1.2549    0.9165 H   0  0  0  0  0  0  0  0  0  0  0  0
   -0.1840   -0.6917    0.0464 C   0  0  0  0  0  0  0  0  0  0  0  0
   -1.3508    0.8508    0.8552 H   0  0  0  0  0  0  0  0  0  0  0  0
   -1.3931    0.8126   -0.9211 H   0  0  0  0  0  0  0  0  0  0  0  0
   -0.1431   -1.3359    0.9584 H   0  0  0  0  0  0  0  0  0  0  0  0
    0.7451   -0.0898   -0.0010 H   0  0  0  0  0  0  0  0  0  0  0  0
   -0.1391   -1.3052   -0.7813 H   0  0  0  0  0  0  0  0  0  0  0  0
  1  2  1  0  0  0  0
  1  5  1  0  0  0  0
  2  8  1  0  0  0  0
  3  1  1  0  0  0  0
  4  1  1  0  0  0  0
  6  2  1  0  0  0  0
  6  9  1  0  0  0  0
  6 10  1  0  0  0  0
  7  2  1  0  0  0  0
  9 12  1  0  0  0  0
 11  6  1  0  0  0  0
 13  9  1  0  0  0  0
 14  9  1  0  0  0  0
M  END
$$$$
