14
butane_opt
C  -3.949650   0.273080   0.045756
C  -2.703269  -0.620434   0.022116
H  -4.852339  -0.290679   0.014918
H  -3.962933   0.823435  -0.828386
H  -4.043416   0.961990   0.918475
C  -1.394607   0.178115  -0.022566
H  -2.703863  -1.325063  -0.831241
H  -2.685262  -1.270994   0.912682
C  -0.163455  -0.688506   0.055543
H  -1.388632   0.835009   0.801545
H  -1.333215   0.839555  -0.956854
H  -0.183499  -1.267724   0.943657
H   0.755990  -0.080995   0.085690
H  -0.096621  -1.402371  -0.828051
