butane_opt
 OpenBabel08242015403D

 14 13  0  0  0  0  0  0  0  0999 V2000
   -3.9536    0.2584    0.0386 C   0  0  0  0  0  0  0  0  0  0  0  0
   -2.7004   -0.6211    0.0040 C   0  0  0  0  0  0  0  0  0  0  0  0
   -4.8783   -0.3719    0.0400 H   0  0  0  0  0  0  0  0  0  0  0  0
   -3.9795    0.8285   -0.8233 H   0  0  0  0  0  0  0  0  0  0  0  0
   -4.0017    1.0168    0.9291 H   0  0  0  0  0  0  0  0  0  0  0  0
   -1.3964    0.2090   -0.0044 C   0  0  0  0  0  0  0  0  0  0  0  0
   -2.7720   -1.3089   -0.8637 H   0  0  0  0  0  0  0  0  0  0  0  0
   -2.6547   -1.2302    0.8767 H   0  0  0  0  0  0  0  0  0  0  0  0
   -0.1522   -0.6995    0.0540 C   0  0  0  0  0  0  0  0  0  0  0  0
   -1.4055    0.8983    0.8583 H   0  0  0  0  0  0  0  0  0  0  0  0
   -1.3888    0.7879   -0.8848 H   0  0  0  0  0  0  0  0  0  0  0  0
   -0.0756   -1.4664    1.0559 H   0  0  0  0  0  0  0  0  0  0  0  0
    0.7304   -0.1477   -0.1214 H   0  0  0  0  0  0  0  0  0  0  0  0
   -0.1563   -1.2427   -0.7145 H   0  0  0  0  0  0  0  0  0  0  0  0
  1  3  1  0  0  0  0
  1  5  1  0  0  0  0
  2  1  1  0  0  0  0
  2  8  1  0  0  0  0
  4  1  1  0  0  0  0
  6  2  1  0  0  0  0
  6  9  1  0  0  0  0
  6 10  1  0  0  0  0
  7  2  1  0  0  0  0
  9 12  1  0  0  0  0
 11  6  1  0  0  0  0
 13  9  1  0  0  0  0
 14  9  1  0  0  0  0
M  END
$$$$
