14
butane_opt
C  -3.936378   0.273609   0.008847
C  -2.700074  -0.622177   0.041563
H  -4.852885  -0.358005   0.133408
H  -4.042169   1.003035  -0.967481
H  -3.942632   0.892605   0.810150
C  -1.400405   0.165375   0.029648
H  -2.708442  -1.300860  -0.816644
H  -2.728969  -1.248339   0.956959
C  -0.163526  -0.684391   0.013895
H  -1.402281   0.898945   0.924766
H  -1.387961   0.777068  -0.846305
H  -0.191979  -1.292460   0.910496
H   0.766879  -0.069231   0.039077
H  -0.127017  -1.360980  -0.845952
