14
butane_opt
C  -3.936128   0.257454   0.044481
C  -2.691711  -0.604929  -0.001372
H  -4.842158  -0.345819   0.154031
H  -4.033440   0.963242  -0.897223
H  -3.875927   0.866667   0.861543
C  -1.415733   0.174184  -0.001586
H  -2.770209  -1.293190  -0.850016
H  -2.676990  -1.192474   0.846930
C  -0.160012  -0.691199   0.055078
H  -1.449620   0.833088   0.850839
H  -1.360292   0.857679  -0.915317
H  -0.165160  -1.315332   0.969376
H   0.769311  -0.098080   0.052835
H  -0.175589  -1.372117  -0.806619
