14
butane_opt
C  -3.949051   0.259811   0.051995
C  -2.702799  -0.618892  -0.013331
H  -4.831533  -0.324971   0.190574
H  -4.076974   0.926869  -0.856793
H  -3.908708   0.897621   0.888301
C  -1.403960   0.187158  -0.019036
H  -2.785196  -1.334284  -0.899832
H  -2.713435  -1.195725   0.842642
C  -0.143671  -0.692471   0.077876
H  -1.420752   0.857240   0.830637
H  -1.364619   0.899613  -0.934359
H  -0.127712  -1.311229   0.985615
H   0.729263  -0.141155  -0.005088
H  -0.125968  -1.377546  -0.780018
