butane_opt
 OpenBabel08242015403D

 14 13  0  0  0  0  0  0  0  0999 V2000
   -3.9339    0.2572    0.0369 C   0  0  0  0  0  0  0  0  0  0  0  0
   -2.6862   -0.6092    0.0361 C   0  0  0  0  0  0  0  0  0  0  0  0
   -4.8563   -0.3480   -0.0309 H   0  0  0  0  0  0  0  0  0  0  0  0
   -3.9557    0.7608   -0.7930 H   0  0  0  0  0  0  0  0  0  0  0  0
   -3.9768    1.0318    0.9564 H   0  0  0  0  0  0  0  0  0  0  0  0
   -1.4100    0.1910   -0.0260 C   0  0  0  0  0  0  0  0  0  0  0  0
   -2.7642   -1.3196   -0.8521 H   0  0  0  0  0  0  0  0  0  0  0  0
   -2.6801   -1.1880    0.8768 H   0  0  0  0  0  0  0  0  0  0  0  0
   -0.1739   -0.6968    0.0568 C   0  0  0  0  0  0  0  0  0  0  0  0
   -1.4143    0.7986    0.7987 H   0  0  0  0  0  0  0  0  0  0  0  0
   -1.4182    0.8771   -0.9612 H   0  0  0  0  0  0  0  0  0  0  0  0
   -0.1905   -1.3349    0.9724 H   0  0  0  0  0  0  0  0  0  0  0  0
    0.7348   -0.0768    0.0444 H   0  0  0  0  0  0  0  0  0  0  0  0
   -0.0568   -1.3842   -0.8086 H   0  0  0  0  0  0  0  0  0  0  0  0
  1  5  1  0  0  0  0
  2  1  1  0  0  0  0
  2  8  1  0  0  0  0
  3  1  1  0  0  0  0
  4  1  1  0  0  0  0
  6  2  1  0  0  0  0
  6  9  1  0  0  0  0
  6 10  1  0  0  0  0
  7  2  1  0  0  0  0
  9 12  1  0  0  0  0
 11  6  1  0  0  0  0
 13  9  1  0  0  0  0
 14  9  1  0  0  0  0
M  END
$$$$
