butane_opt
 OpenBabel08242015403D

 14 13  0  0  0  0  0  0  0  0999 V2000
   -3.9446    0.2519    0.0519 C   0  0  0  0  0  0  0  0  0  0  0  0
   -2.7064   -0.6080    0.0024 C   0  0  0  0  0  0  0  0  0  0  0  0
   -4.8193   -0.3260    0.1216 H   0  0  0  0  0  0  0  0  0  0  0  0
   -4.0125    0.8914   -0.8368 H   0  0  0  0  0  0  0  0  0  0  0  0
   -3.9180    0.8912    0.8891 H   0  0  0  0  0  0  0  0  0  0  0  0
   -1.4134    0.2058   -0.0212 C   0  0  0  0  0  0  0  0  0  0  0  0
   -2.8109   -1.3526   -0.9165 H   0  0  0  0  0  0  0  0  0  0  0  0
   -2.7104   -1.1704    0.8287 H   0  0  0  0  0  0  0  0  0  0  0  0
   -0.1465   -0.7022    0.0667 C   0  0  0  0  0  0  0  0  0  0  0  0
   -1.4522    0.8460    0.8066 H   0  0  0  0  0  0  0  0  0  0  0  0
   -1.3661    0.8223   -0.9156 H   0  0  0  0  0  0  0  0  0  0  0  0
   -0.0677   -1.3794    0.9878 H   0  0  0  0  0  0  0  0  0  0  0  0
    0.7535   -0.1430    0.0291 H   0  0  0  0  0  0  0  0  0  0  0  0
   -0.0941   -1.3122   -0.7480 H   0  0  0  0  0  0  0  0  0  0  0  0
  1  3  1  0  0  0  0
  1  5  1  0  0  0  0
  2  1  1  0  0  0  0
  2  8  1  0  0  0  0
  4  1  1  0  0  0  0
  6  2  1  0  0  0  0
  6  9  1  0  0  0  0
  6 10  1  0  0  0  0
  7  2  1  0  0  0  0
  9 12  1  0  0  0  0
 11  6  1  0  0  0  0
 13  9  1  0  0  0  0
 14  9  1  0  0  0  0
M  END
$$$$
