14
butane_opt
C  -3.967497   0.272154  -0.015864
C  -2.697193  -0.629780   0.054328
H  -4.873316  -0.313288   0.042870
H  -3.962187   0.915988  -0.937740
H  -3.944718   0.913907   0.838841
C  -1.402968   0.186545   0.056287
H  -2.704794  -1.256371  -0.781336
H  -2.708755  -1.289916   0.980978
C  -0.149672  -0.689477   0.004073
H  -1.346737   0.881548   0.933577
H  -1.389488   0.747667  -0.784478
H  -0.038708  -1.354413   0.921210
H   0.758751  -0.095593  -0.105531
H  -0.211788  -1.288206  -0.852927
