14
butane_opt
C  -3.946077   0.259527   0.039454
C  -2.704403  -0.617480   0.004436
H  -4.884102  -0.360057  -0.014289
H  -3.997823   0.824287  -0.797591
H  -3.958414   0.978045   0.938401
C  -1.401985   0.207932   0.000297
H  -2.753960  -1.317429  -0.860614
H  -2.692937  -1.193943   0.852085
C  -0.154381  -0.705868   0.060777
H  -1.373292   0.858270   0.845610
H  -1.364150   0.841381  -0.920002
H  -0.045896  -1.444856   1.010807
H   0.726063  -0.148578  -0.158100
H  -0.186534  -1.241611  -0.701616
