butane_opt
 OpenBabel08242015403D

 14 13  0  0  0  0  0  0  0  0999 V2000
   -3.9511    0.2680   -0.0082 C   0  0  0  0  0  0  0  0  0  0  0  0
   -2.7064   -0.6181    0.0728 C   0  0  0  0  0  0  0  0  0  0  0  0
   -4.8726   -0.3149   -0.0803 H   0  0  0  0  0  0  0  0  0  0  0  0
   -3.8805    0.8220   -0.8752 H   0  0  0  0  0  0  0  0  0  0  0  0
   -4.0447    1.0032    0.8684 H   0  0  0  0  0  0  0  0  0  0  0  0
   -1.4051    0.1769    0.0369 C   0  0  0  0  0  0  0  0  0  0  0  0
   -2.6774   -1.2324   -0.7429 H   0  0  0  0  0  0  0  0  0  0  0  0
   -2.7400   -1.2868    0.9714 H   0  0  0  0  0  0  0  0  0  0  0  0
   -0.1504   -0.6894    0.0046 C   0  0  0  0  0  0  0  0  0  0  0  0
   -1.2822    0.8589    0.9081 H   0  0  0  0  0  0  0  0  0  0  0  0
   -1.4052    0.8014   -0.8623 H   0  0  0  0  0  0  0  0  0  0  0  0
   -0.1270   -1.3123    0.8864 H   0  0  0  0  0  0  0  0  0  0  0  0
    0.7271   -0.1082   -0.0411 H   0  0  0  0  0  0  0  0  0  0  0  0
   -0.1630   -1.3580   -0.8515 H   0  0  0  0  0  0  0  0  0  0  0  0
  1  2  1  0  0  0  0
  1  5  1  0  0  0  0
  2  8  1  0  0  0  0
  3  1  1  0  0  0  0
  4  1  1  0  0  0  0
  6  2  1  0  0  0  0
  6 10  1  0  0  0  0
  7  2  1  0  0  0  0
  9  6  1  0  0  0  0
  9 12  1  0  0  0  0
 11  6  1  0  0  0  0
 13  9  1  0  0  0  0
 14  9  1  0  0  0  0
M  END
$$$$
