14
butane_opt
C  -3.936595   0.256222   0.046178
C  -2.698011  -0.603847   0.008601
H  -4.872440  -0.393815   0.091604
H  -4.008134   0.841987  -0.807919
H  -3.825060   0.946610   0.943570
C  -1.416755   0.194736  -0.034804
H  -2.753211  -1.284371  -0.850347
H  -2.684205  -1.244432   0.873593
C  -0.156409  -0.699924   0.066270
H  -1.438486   0.876628   0.817520
H  -1.410017   0.872346  -0.962784
H  -0.207973  -1.319830   0.964443
H   0.730934  -0.133010   0.143987
H  -0.060954  -1.407097  -0.810486
