butane_opt
 OpenBabel08242015403D

 14 13  0  0  0  0  0  0  0  0999 V2000
   -3.9414    0.2523   -0.0017 C   0  0  0  0  0  0  0  0  0  0  0  0
   -2.7024   -0.5971    0.0540 C   0  0  0  0  0  0  0  0  0  0  0  0
   -4.8201   -0.3383    0.0355 H   0  0  0  0  0  0  0  0  0  0  0  0
   -3.8718    0.8672   -0.8957 H   0  0  0  0  0  0  0  0  0  0  0  0
   -3.9670    0.8672    0.8342 H   0  0  0  0  0  0  0  0  0  0  0  0
   -1.4108    0.2009    0.0455 C   0  0  0  0  0  0  0  0  0  0  0  0
   -2.6786   -1.3054   -0.8017 H   0  0  0  0  0  0  0  0  0  0  0  0
   -2.7549   -1.1914    0.9161 H   0  0  0  0  0  0  0  0  0  0  0  0
   -0.1662   -0.7076    0.0097 C   0  0  0  0  0  0  0  0  0  0  0  0
   -1.3302    0.8764    0.8824 H   0  0  0  0  0  0  0  0  0  0  0  0
   -1.4269    0.8115   -0.8389 H   0  0  0  0  0  0  0  0  0  0  0  0
   -0.0848   -1.3812    0.9448 H   0  0  0  0  0  0  0  0  0  0  0  0
    0.7270   -0.1344   -0.0935 H   0  0  0  0  0  0  0  0  0  0  0  0
   -0.1665   -1.3216   -0.8211 H   0  0  0  0  0  0  0  0  0  0  0  0
  1  3  1  0  0  0  0
  1  2  1  0  0  0  0
  1  5  1  0  0  0  0
  2  8  1  0  0  0  0
  4  1  1  0  0  0  0
  6  2  1  0  0  0  0
  6 10  1  0  0  0  0
  7  2  1  0  0  0  0
  9  6  1  0  0  0  0
  9 12  1  0  0  0  0
 11  6  1  0  0  0  0
 13  9  1  0  0  0  0
 14  9  1  0  0  0  0
M  END
$$$$
