butane_opt
 OpenBabel08242015403D

 14 13  0  0  0  0  0  0  0  0999 V2000
   -3.9281    0.2580    0.0057 C   0  0  0  0  0  0  0  0  0  0  0  0
   -2.7040   -0.5953    0.0464 C   0  0  0  0  0  0  0  0  0  0  0  0
   -4.8543   -0.3654    0.1431 H   0  0  0  0  0  0  0  0  0  0  0  0
   -3.9702    0.9082   -0.8850 H   0  0  0  0  0  0  0  0  0  0  0  0
   -3.9247    0.8261    0.7959 H   0  0  0  0  0  0  0  0  0  0  0  0
   -1.4156    0.1874    0.0176 C   0  0  0  0  0  0  0  0  0  0  0  0
   -2.7468   -1.2699   -0.7984 H   0  0  0  0  0  0  0  0  0  0  0  0
   -2.7412   -1.2036    0.9335 H   0  0  0  0  0  0  0  0  0  0  0  0
   -0.1565   -0.7058    0.0294 C   0  0  0  0  0  0  0  0  0  0  0  0
   -1.4085    0.8402    0.8511 H   0  0  0  0  0  0  0  0  0  0  0  0
   -1.4077    0.8487   -0.8606 H   0  0  0  0  0  0  0  0  0  0  0  0
   -0.1372   -1.2280    0.8538 H   0  0  0  0  0  0  0  0  0  0  0  0
    0.7682   -0.1060    0.0961 H   0  0  0  0  0  0  0  0  0  0  0  0
   -0.1464   -1.4598   -0.8919 H   0  0  0  0  0  0  0  0  0  0  0  0
  1  2  1  0  0  0  0
  1  3  1  0  0  0  0
  1  5  1  0  0  0  0
  2  8  1  0  0  0  0
  4  1  1  0  0  0  0
  6  9  1  0  0  0  0
  6  2  1  0  0  0  0
  6 10  1  0  0  0  0
  7  2  1  0  0  0  0
  9 13  1  0  0  0  0
  9 12  1  0  0  0  0
 11  6  1  0  0  0  0
 14  9  1  0  0  0  0
M  END
$$$$
