butane_opt
 OpenBabel08242015403D

 14 13  0  0  0  0  0  0  0  0999 V2000
   -3.9353    0.2619    0.0372 C   0  0  0  0  0  0  0  0  0  0  0  0
   -2.6988   -0.6120    0.0209 C   0  0  0  0  0  0  0  0  0  0  0  0
   -4.8424   -0.2931    0.0506 H   0  0  0  0  0  0  0  0  0  0  0  0
   -3.9898    0.8870   -0.8570 H   0  0  0  0  0  0  0  0  0  0  0  0
   -3.9098    0.9356    0.9314 H   0  0  0  0  0  0  0  0  0  0  0  0
   -1.4053    0.1779   -0.0257 C   0  0  0  0  0  0  0  0  0  0  0  0
   -2.7474   -1.2571   -0.8179 H   0  0  0  0  0  0  0  0  0  0  0  0
   -2.6854   -1.3245    0.9542 H   0  0  0  0  0  0  0  0  0  0  0  0
   -0.1684   -0.6891    0.0588 C   0  0  0  0  0  0  0  0  0  0  0  0
   -1.4183    0.8562    0.8131 H   0  0  0  0  0  0  0  0  0  0  0  0
   -1.3970    0.8343   -0.9163 H   0  0  0  0  0  0  0  0  0  0  0  0
   -0.1958   -1.2053    0.8892 H   0  0  0  0  0  0  0  0  0  0  0  0
    0.7412   -0.0964    0.1486 H   0  0  0  0  0  0  0  0  0  0  0  0
   -0.0894   -1.4718   -0.8663 H   0  0  0  0  0  0  0  0  0  0  0  0
  1  3  1  0  0  0  0
  1  5  1  0  0  0  0
  2  1  1  0  0  0  0
  2  8  1  0  0  0  0
  4  1  1  0  0  0  0
  6  2  1  0  0  0  0
  6  9  1  0  0  0  0
  6 10  1  0  0  0  0
  7  2  1  0  0  0  0
  9 13  1  0  0  0  0
  9 12  1  0  0  0  0
 11  6  1  0  0  0  0
 14  9  1  0  0  0  0
M  END
$$$$
