butane_opt
 OpenBabel08242015403D

 14 13  0  0  0  0  0  0  0  0999 V2000
   -3.9472    0.2621    0.0017 C   0  0  0  0  0  0  0  0  0  0  0  0
   -2.7119   -0.6219    0.0469 C   0  0  0  0  0  0  0  0  0  0  0  0
   -4.8372   -0.3325    0.0367 H   0  0  0  0  0  0  0  0  0  0  0  0
   -3.9869    0.8925   -0.9057 H   0  0  0  0  0  0  0  0  0  0  0  0
   -3.9642    0.9316    0.8557 H   0  0  0  0  0  0  0  0  0  0  0  0
   -1.4053    0.2003    0.0362 C   0  0  0  0  0  0  0  0  0  0  0  0
   -2.6739   -1.3063   -0.8143 H   0  0  0  0  0  0  0  0  0  0  0  0
   -2.7339   -1.2378    0.9303 H   0  0  0  0  0  0  0  0  0  0  0  0
   -0.1524   -0.7014    0.0240 C   0  0  0  0  0  0  0  0  0  0  0  0
   -1.3677    0.8378    0.8905 H   0  0  0  0  0  0  0  0  0  0  0  0
   -1.4349    0.8296   -0.8513 H   0  0  0  0  0  0  0  0  0  0  0  0
   -0.0505   -1.3062    0.9228 H   0  0  0  0  0  0  0  0  0  0  0  0
    0.7719   -0.1020   -0.1102 H   0  0  0  0  0  0  0  0  0  0  0  0
   -0.1480   -1.3391   -0.8202 H   0  0  0  0  0  0  0  0  0  0  0  0
  1  3  1  0  0  0  0
  1  2  1  0  0  0  0
  1  5  1  0  0  0  0
  2  8  1  0  0  0  0
  4  1  1  0  0  0  0
  6  2  1  0  0  0  0
  6 10  1  0  0  0  0
  7  2  1  0  0  0  0
  9  6  1  0  0  0  0
  9 12  1  0  0  0  0
 11  6  1  0  0  0  0
 13  9  1  0  0  0  0
 14  9  1  0  0  0  0
M  END
$$$$
