14
butane_opt
C  -3.958439   0.277138   0.036882
C  -2.698088  -0.638072   0.007830
H  -4.853434  -0.304520   0.134730
H  -4.091021   0.856256  -0.836755
H  -3.928420   0.931445   0.921339
C  -1.387540   0.185016  -0.013938
H  -2.703748  -1.315607  -0.852603
H  -2.665991  -1.216541   0.873625
C  -0.162045  -0.687131   0.059640
H  -1.406129   0.872907   0.826914
H  -1.350785   0.815914  -0.930621
H  -0.193720  -1.327369   0.964208
H   0.734530  -0.106367   0.027806
H  -0.089093  -1.322092  -0.773729
