14
butane_opt
C  -3.939723   0.272254  -0.007800
C  -2.690670  -0.619037   0.066455
H  -4.834369  -0.314798  -0.034574
H  -3.892471   0.937485  -0.958745
H  -4.046887   0.905399   0.811855
C  -1.407955   0.160691   0.058171
H  -2.670123  -1.322251  -0.796824
H  -2.740919  -1.245276   0.990106
C  -0.164564  -0.678232  -0.003610
H  -1.396210   0.873519   0.930911
H  -1.437259   0.773556  -0.814741
H  -0.057756  -1.330661   0.926566
H   0.762922  -0.070169  -0.115952
H  -0.281417  -1.299144  -0.852751
