butane_opt
 OpenBabel08242015403D

 14 13  0  0  0  0  0  0  0  0999 V2000
   -3.9412    0.2593   -0.0093 C   0  0  0  0  0  0  0  0  0  0  0  0
   -2.7116   -0.6079    0.0558 C   0  0  0  0  0  0  0  0  0  0  0  0
   -4.8237   -0.3223    0.1199 H   0  0  0  0  0  0  0  0  0  0  0  0
   -4.0217    0.9819   -0.9844 H   0  0  0  0  0  0  0  0  0  0  0  0
   -3.8838    0.8128    0.7843 H   0  0  0  0  0  0  0  0  0  0  0  0
   -1.4101    0.1911    0.0470 C   0  0  0  0  0  0  0  0  0  0  0  0
   -2.6805   -1.3012   -0.7830 H   0  0  0  0  0  0  0  0  0  0  0  0
   -2.7506   -1.2520    0.9706 H   0  0  0  0  0  0  0  0  0  0  0  0
   -0.1483   -0.6981    0.0100 C   0  0  0  0  0  0  0  0  0  0  0  0
   -1.3627    0.8612    0.8961 H   0  0  0  0  0  0  0  0  0  0  0  0
   -1.4524    0.8030   -0.8067 H   0  0  0  0  0  0  0  0  0  0  0  0
   -0.0935   -1.2383    0.8468 H   0  0  0  0  0  0  0  0  0  0  0  0
    0.7495   -0.1000    0.0123 H   0  0  0  0  0  0  0  0  0  0  0  0
   -0.1705   -1.4396   -0.8747 H   0  0  0  0  0  0  0  0  0  0  0  0
  1  2  1  0  0  0  0
  1  3  1  0  0  0  0
  1  5  1  0  0  0  0
  2  8  1  0  0  0  0
  4  1  1  0  0  0  0
  6  2  1  0  0  0  0
  6 10  1  0  0  0  0
  7  2  1  0  0  0  0
  9 13  1  0  0  0  0
  9  6  1  0  0  0  0
  9 12  1  0  0  0  0
 11  6  1  0  0  0  0
 14  9  1  0  0  0  0
M  END
$$$$
