14
butane_opt
C  -3.950910   0.281497   0.014935
C  -2.701534  -0.641834   0.023646
H  -4.856094  -0.307482   0.181894
H  -4.008919   1.017907  -0.933264
H  -3.960850   0.838904   0.801523
C  -1.392978   0.173607   0.023987
H  -2.705371  -1.319376  -0.803414
H  -2.684531  -1.268843   0.923083
C  -0.163540  -0.677976   0.026726
H  -1.323803   0.927135   0.920674
H  -1.413556   0.798736  -0.847375
H  -0.171941  -1.298276   0.922627
H   0.737494  -0.111649   0.033095
H  -0.132751  -1.372021  -0.839890
