butane_opt
 OpenBabel08242015403D

 14 13  0  0  0  0  0  0  0  0999 V2000
   -3.9382    0.2537    0.0425 C   0  0  0  0  0  0  0  0  0  0  0  0
   -2.7002   -0.6050    0.0187 C   0  0  0  0  0  0  0  0  0  0  0  0
   -4.8593   -0.3391   -0.0496 H   0  0  0  0  0  0  0  0  0  0  0  0
   -3.9682    0.7449   -0.7567 H   0  0  0  0  0  0  0  0  0  0  0  0
   -4.0153    1.0707    1.0011 H   0  0  0  0  0  0  0  0  0  0  0  0
   -1.4047    0.1980   -0.0239 C   0  0  0  0  0  0  0  0  0  0  0  0
   -2.7259   -1.2927   -0.8461 H   0  0  0  0  0  0  0  0  0  0  0  0
   -2.7731   -1.2734    0.9144 H   0  0  0  0  0  0  0  0  0  0  0  0
   -0.1535   -0.7045    0.0564 C   0  0  0  0  0  0  0  0  0  0  0  0
   -1.4096    0.8156    0.7798 H   0  0  0  0  0  0  0  0  0  0  0  0
   -1.3979    0.8841   -0.9566 H   0  0  0  0  0  0  0  0  0  0  0  0
   -0.1460   -1.3544    0.9929 H   0  0  0  0  0  0  0  0  0  0  0  0
    0.7418   -0.1142    0.0461 H   0  0  0  0  0  0  0  0  0  0  0  0
   -0.1024   -1.3267   -0.7839 H   0  0  0  0  0  0  0  0  0  0  0  0
  1  5  1  0  0  0  0
  2  1  1  0  0  0  0
  2  8  1  0  0  0  0
  3  1  1  0  0  0  0
  4  1  1  0  0  0  0
  6  2  1  0  0  0  0
  6  9  1  0  0  0  0
  6 10  1  0  0  0  0
  7  2  1  0  0  0  0
  9 12  1  0  0  0  0
 11  6  1  0  0  0  0
 13  9  1  0  0  0  0
 14  9  1  0  0  0  0
M  END
$$$$
