14
butane_opt
C  -3.934895   0.273766   0.002299
C  -2.694674  -0.623753   0.063105
H  -4.826090  -0.301420   0.057816
H  -3.963894   0.877679  -0.902186
H  -4.034166   0.895880   0.839878
C  -1.405161   0.176104   0.004379
H  -2.712017  -1.233671  -0.750262
H  -2.693051  -1.281905   0.988949
C  -0.171926  -0.689895   0.022757
H  -1.355352   0.872962   0.887347
H  -1.392471   0.775495  -0.849347
H  -0.208364  -1.186948   0.825760
H   0.763119  -0.059679   0.134070
H  -0.120869  -1.465933  -0.915130
