butane_opt
 OpenBabel08242015403D

 14 13  0  0  0  0  0  0  0  0999 V2000
   -3.9400    0.2688    0.0311 C   0  0  0  0  0  0  0  0  0  0  0  0
   -2.6963   -0.6232    0.0389 C   0  0  0  0  0  0  0  0  0  0  0  0
   -4.8346   -0.3323   -0.1145 H   0  0  0  0  0  0  0  0  0  0  0  0
   -3.9246    0.7924   -0.8295 H   0  0  0  0  0  0  0  0  0  0  0  0
   -4.0081    1.0633    0.9741 H   0  0  0  0  0  0  0  0  0  0  0  0
   -1.4009    0.1764   -0.0067 C   0  0  0  0  0  0  0  0  0  0  0  0
   -2.7505   -1.2681   -0.8373 H   0  0  0  0  0  0  0  0  0  0  0  0
   -2.6543   -1.2631    0.9302 H   0  0  0  0  0  0  0  0  0  0  0  0
   -0.1753   -0.6868    0.0387 C   0  0  0  0  0  0  0  0  0  0  0  0
   -1.3654    0.8491    0.8404 H   0  0  0  0  0  0  0  0  0  0  0  0
   -1.3608    0.8462   -0.9308 H   0  0  0  0  0  0  0  0  0  0  0  0
   -0.1632   -1.3602    0.9901 H   0  0  0  0  0  0  0  0  0  0  0  0
    0.7344   -0.1128    0.0065 H   0  0  0  0  0  0  0  0  0  0  0  0
   -0.1432   -1.3145   -0.8014 H   0  0  0  0  0  0  0  0  0  0  0  0
  1  2  1  0  0  0  0
  1  5  1  0  0  0  0
  2  8  1  0  0  0  0
  3  1  1  0  0  0  0
  4  1  1  0  0  0  0
  6  9  1  0  0  0  0
  6  2  1  0  0  0  0
  6 10  1  0  0  0  0
  7  2  1  0  0  0  0
  9 12  1  0  0  0  0
 11  6  1  0  0  0  0
 13  9  1  0  0  0  0
 14  9  1  0  0  0  0
M  END
$$$$
