14
butane_opt
C  -3.928343   0.258685   0.044388
C  -2.711844  -0.601351   0.004160
H  -4.862859  -0.343411   0.142326
H  -4.047748   0.947171  -0.876778
H  -3.891482   0.852434   0.852147
C  -1.408901   0.178505  -0.002140
H  -2.754312  -1.335440  -0.890372
H  -2.665188  -1.185212   0.836398
C  -0.159849  -0.700312   0.054203
H  -1.394794   0.867749   0.855860
H  -1.401288   0.854346  -0.918792
H  -0.168674  -1.347083   0.982232
H   0.763780  -0.101599   0.033157
H  -0.091867  -1.310178  -0.790144
