butane_opt
 OpenBabel08242015403D

 14 13  0  0  0  0  0  0  0  0999 V2000
   -3.9409    0.2514   -0.0139 C   0  0  0  0  0  0  0  0  0  0  0  0
   -2.7064   -0.5977    0.0921 C   0  0  0  0  0  0  0  0  0  0  0  0
   -4.8856   -0.3724   -0.0644 H   0  0  0  0  0  0  0  0  0  0  0  0
   -3.8967    0.8389   -0.8804 H   0  0  0  0  0  0  0  0  0  0  0  0
   -4.0604    0.9796    0.8493 H   0  0  0  0  0  0  0  0  0  0  0  0
   -1.4092    0.1990    0.0317 C   0  0  0  0  0  0  0  0  0  0  0  0
   -2.6893   -1.3099   -0.7924 H   0  0  0  0  0  0  0  0  0  0  0  0
   -2.7511   -1.2603    0.9817 H   0  0  0  0  0  0  0  0  0  0  0  0
   -0.1443   -0.7087    0.0041 C   0  0  0  0  0  0  0  0  0  0  0  0
   -1.3959    0.8756    0.8833 H   0  0  0  0  0  0  0  0  0  0  0  0
   -1.4369    0.8299   -0.8664 H   0  0  0  0  0  0  0  0  0  0  0  0
   -0.1144   -1.2881    0.8663 H   0  0  0  0  0  0  0  0  0  0  0  0
    0.7799   -0.0956   -0.0072 H   0  0  0  0  0  0  0  0  0  0  0  0
   -0.1512   -1.4029   -0.8914 H   0  0  0  0  0  0  0  0  0  0  0  0
  1  2  1  0  0  0  0
  1  5  1  0  0  0  0
  2  8  1  0  0  0  0
  3  1  1  0  0  0  0
  4  1  1  0  0  0  0
  6  2  1  0  0  0  0
  6 10  1  0  0  0  0
  7  2  1  0  0  0  0
  9  6  1  0  0  0  0
  9 12  1  0  0  0  0
 11  6  1  0  0  0  0
 13  9  1  0  0  0  0
 14  9  1  0  0  0  0
M  END
$$$$
