14
butane_opt
C  -3.934061   0.246877   0.037947
C  -2.697839  -0.593793   0.035978
H  -4.858917  -0.350020  -0.091768
H  -3.862856   0.763093  -0.817424
H  -3.983876   1.052482   0.993285
C  -1.411278   0.198239  -0.027603
H  -2.723379  -1.299271  -0.823111
H  -2.724548  -1.259248   0.928881
C  -0.162561  -0.706230   0.050751
H  -1.444701   0.870217   0.820208
H  -1.437499   0.830789  -0.913890
H  -0.153413  -1.371636   0.966979
H   0.776216  -0.109545   0.034414
H  -0.139287  -1.336680  -0.801606
