14
butane_opt
C  -3.925713   0.264971   0.043538
C  -2.703702  -0.609543   0.014687
H  -4.869637  -0.378840   0.108999
H  -3.976890   0.824078  -0.808326
H  -3.924131   0.951640   0.926182
C  -1.401936   0.187973  -0.031186
H  -2.730427  -1.267795  -0.827020
H  -2.702844  -1.234262   0.917421
C  -0.172732  -0.696651   0.055432
H  -1.438706   0.855870   0.795152
H  -1.370216   0.835554  -0.956477
H  -0.237864  -1.279683   0.909007
H   0.697693  -0.146732   0.193293
H  -0.014907  -1.403324  -0.805582
