14
butane_opt
C  -3.952465   0.256870   0.037824
C  -2.703544  -0.608435   0.016426
H  -4.876460  -0.343038   0.026646
H  -3.994945   0.862087  -0.848312
H  -3.936708   0.923360   0.898451
C  -1.403049   0.196230   0.001924
H  -2.748576  -1.371346  -0.914690
H  -2.704859  -1.169537   0.848765
C  -0.142834  -0.699814   0.051754
H  -1.390526   0.875721   0.862697
H  -1.452303   0.861150  -0.908582
H  -0.104560  -1.446990   1.056632
H   0.783536  -0.119546  -0.112468
H  -0.173568  -1.281663  -0.752339
