butane_opt
 OpenBabel08242015403D

 14 13  0  0  0  0  0  0  0  0999 V2000
   -3.9460    0.2647    0.0315 C   0  0  0  0  0  0  0  0  0  0  0  0
   -2.7125   -0.6152    0.0389 C   0  0  0  0  0  0  0  0  0  0  0  0
   -4.8791   -0.3305   -0.0902 H   0  0  0  0  0  0  0  0  0  0  0  0
   -3.8908    0.7602   -0.7781 H   0  0  0  0  0  0  0  0  0  0  0  0
   -4.0079    0.9920    0.9184 H   0  0  0  0  0  0  0  0  0  0  0  0
   -1.3999    0.2042   -0.0100 C   0  0  0  0  0  0  0  0  0  0  0  0
   -2.7993   -1.3256   -0.8540 H   0  0  0  0  0  0  0  0  0  0  0  0
   -2.6979   -1.2454    0.9194 H   0  0  0  0  0  0  0  0  0  0  0  0
   -0.1533   -0.7038    0.0470 C   0  0  0  0  0  0  0  0  0  0  0  0
   -1.3883    0.8642    0.8371 H   0  0  0  0  0  0  0  0  0  0  0  0
   -1.3828    0.8651   -0.9423 H   0  0  0  0  0  0  0  0  0  0  0  0
   -0.0952   -1.3642    0.9704 H   0  0  0  0  0  0  0  0  0  0  0  0
    0.7323   -0.1238   -0.0459 H   0  0  0  0  0  0  0  0  0  0  0  0
   -0.0806   -1.3662   -0.7778 H   0  0  0  0  0  0  0  0  0  0  0  0
  1  2  1  0  0  0  0
  1  5  1  0  0  0  0
  2  8  1  0  0  0  0
  3  1  1  0  0  0  0
  4  1  1  0  0  0  0
  6  2  1  0  0  0  0
  6  9  1  0  0  0  0
  6 10  1  0  0  0  0
  7  2  1  0  0  0  0
  9 12  1  0  0  0  0
 11  6  1  0  0  0  0
 13  9  1  0  0  0  0
 14  9  1  0  0  0  0
M  END
$$$$
