butane_opt
 OpenBabel08242015403D

 14 13  0  0  0  0  0  0  0  0999 V2000
   -3.9372    0.2706   -0.0142 C   0  0  0  0  0  0  0  0  0  0  0  0
   -2.6873   -0.6308    0.0657 C   0  0  0  0  0  0  0  0  0  0  0  0
   -4.8326   -0.2830    0.0349 H   0  0  0  0  0  0  0  0  0  0  0  0
   -3.9656    0.9539   -0.9470 H   0  0  0  0  0  0  0  0  0  0  0  0
   -4.0140    0.8802    0.7793 H   0  0  0  0  0  0  0  0  0  0  0  0
   -1.4113    0.1865    0.0612 C   0  0  0  0  0  0  0  0  0  0  0  0
   -2.7141   -1.3172   -0.7932 H   0  0  0  0  0  0  0  0  0  0  0  0
   -2.6943   -1.2672    0.9666 H   0  0  0  0  0  0  0  0  0  0  0  0
   -0.1733   -0.6923    0.0024 C   0  0  0  0  0  0  0  0  0  0  0  0
   -1.3644    0.8641    0.9125 H   0  0  0  0  0  0  0  0  0  0  0  0
   -1.4001    0.7681   -0.8124 H   0  0  0  0  0  0  0  0  0  0  0  0
   -0.1047   -1.2766    0.8832 H   0  0  0  0  0  0  0  0  0  0  0  0
    0.7879   -0.0606   -0.1135 H   0  0  0  0  0  0  0  0  0  0  0  0
   -0.2156   -1.3299   -0.8635 H   0  0  0  0  0  0  0  0  0  0  0  0
  1  3  1  0  0  0  0
  1  2  1  0  0  0  0
  1  5  1  0  0  0  0
  2  8  1  0  0  0  0
  4  1  1  0  0  0  0
  6  2  1  0  0  0  0
  6 10  1  0  0  0  0
  7  2  1  0  0  0  0
  9  6  1  0  0  0  0
  9 12  1  0  0  0  0
 11  6  1  0  0  0  0
 13  9  1  0  0  0  0
 14  9  1  0  0  0  0
M  END
$$$$
