14
butane_opt
C  -3.948907   0.253757  -0.011107
C  -2.707194  -0.601259   0.073345
H  -4.857758  -0.348785   0.102875
H  -3.947861   0.962740  -0.943082
H  -3.927567   0.833835   0.793848
C  -1.393585   0.201740   0.029311
H  -2.732893  -1.289790  -0.780810
H  -2.745811  -1.289157   0.988453
C  -0.157172  -0.705132   0.007901
H  -1.401132   0.903582   0.894008
H  -1.400261   0.822693  -0.846276
H  -0.108696  -1.203228   0.833404
H   0.694176  -0.155566   0.134986
H  -0.110120  -1.503830  -0.951516
