butane_opt
 OpenBabel08242015403D

 14 13  0  0  0  0  0  0  0  0999 V2000
   -3.9625    0.2754   -0.0134 C   0  0  0  0  0  0  0  0  0  0  0  0
   -2.6933   -0.6281    0.0752 C   0  0  0  0  0  0  0  0  0  0  0  0
   -4.8731   -0.3097   -0.0382 H   0  0  0  0  0  0  0  0  0  0  0  0
   -3.9541    0.9153   -0.9206 H   0  0  0  0  0  0  0  0  0  0  0  0
   -4.0886    0.9154    0.8233 H   0  0  0  0  0  0  0  0  0  0  0  0
   -1.3923    0.1758    0.0450 C   0  0  0  0  0  0  0  0  0  0  0  0
   -2.7108   -1.3260   -0.7833 H   0  0  0  0  0  0  0  0  0  0  0  0
   -2.7174   -1.2631    0.9652 H   0  0  0  0  0  0  0  0  0  0  0  0
   -0.1524   -0.6877    0.0016 C   0  0  0  0  0  0  0  0  0  0  0  0
   -1.3396    0.8798    0.9286 H   0  0  0  0  0  0  0  0  0  0  0  0
   -1.4528    0.7953   -0.8060 H   0  0  0  0  0  0  0  0  0  0  0  0
   -0.0525   -1.3234    0.9250 H   0  0  0  0  0  0  0  0  0  0  0  0
    0.8028   -0.0417   -0.0666 H   0  0  0  0  0  0  0  0  0  0  0  0
   -0.2361   -1.3344   -0.8844 H   0  0  0  0  0  0  0  0  0  0  0  0
  1  2  1  0  0  0  0
  1  5  1  0  0  0  0
  2  8  1  0  0  0  0
  3  1  1  0  0  0  0
  4  1  1  0  0  0  0
  6  2  1  0  0  0  0
  6 10  1  0  0  0  0
  7  2  1  0  0  0  0
  9  6  1  0  0  0  0
  9 12  1  0  0  0  0
 11  6  1  0  0  0  0
 13  9  1  0  0  0  0
 14  9  1  0  0  0  0
M  END
$$$$
