14
butane_opt
C  -3.940449   0.269093  -0.013553
C  -2.692831  -0.616868   0.079990
H  -4.865929  -0.332298  -0.113322
H  -3.875480   0.823079  -0.881234
H  -4.042028   0.996135   0.868370
C  -1.408126   0.173992   0.044139
H  -2.703596  -1.255570  -0.742528
H  -2.710183  -1.299099   1.009665
C  -0.157526  -0.686041   0.004201
H  -1.411940   0.844776   0.892376
H  -1.431982   0.827087  -0.895615
H  -0.138547  -1.277415   0.894023
H   0.764425  -0.050179  -0.059877
H  -0.225784  -1.432634  -0.912444
