butane_opt
 OpenBabel08242015403D

 14 13  0  0  0  0  0  0  0  0999 V2000
   -3.9429    0.2700    0.0318 C   0  0  0  0  0  0  0  0  0  0  0  0
   -2.6932   -0.6139    0.0252 C   0  0  0  0  0  0  0  0  0  0  0  0
   -4.8965   -0.3815   -0.0988 H   0  0  0  0  0  0  0  0  0  0  0  0
   -3.9613    0.7329   -0.7539 H   0  0  0  0  0  0  0  0  0  0  0  0
   -3.9652    1.0952    1.0258 H   0  0  0  0  0  0  0  0  0  0  0  0
   -1.4051    0.1734   -0.0200 C   0  0  0  0  0  0  0  0  0  0  0  0
   -2.7429   -1.2741   -0.8092 H   0  0  0  0  0  0  0  0  0  0  0  0
   -2.6832   -1.2433    0.9201 H   0  0  0  0  0  0  0  0  0  0  0  0
   -0.1621   -0.6892    0.0532 C   0  0  0  0  0  0  0  0  0  0  0  0
   -1.3898    0.8305    0.7901 H   0  0  0  0  0  0  0  0  0  0  0  0
   -1.4047    0.8326   -0.9243 H   0  0  0  0  0  0  0  0  0  0  0  0
   -0.1693   -1.3608    1.0094 H   0  0  0  0  0  0  0  0  0  0  0  0
    0.7438   -0.1110   -0.0279 H   0  0  0  0  0  0  0  0  0  0  0  0
   -0.1104   -1.2841   -0.7576 H   0  0  0  0  0  0  0  0  0  0  0  0
  1  5  1  0  0  0  0
  2  1  1  0  0  0  0
  2  8  1  0  0  0  0
  3  1  1  0  0  0  0
  4  1  1  0  0  0  0
  6  2  1  0  0  0  0
  6  9  1  0  0  0  0
  6 10  1  0  0  0  0
  7  2  1  0  0  0  0
  9 12  1  0  0  0  0
 11  6  1  0  0  0  0
 13  9  1  0  0  0  0
 14  9  1  0  0  0  0
M  END
$$$$
