14
butane_opt
C  -3.941339   0.272797  -0.014010
C  -2.677967  -0.623557   0.077105
H  -4.832200  -0.309148  -0.065858
H  -3.903116   0.835015  -0.908268
H  -4.064341   0.998120   0.855451
C  -1.405446   0.171250   0.039336
H  -2.677528  -1.252654  -0.720320
H  -2.749059  -1.331081   1.042021
C  -0.172686  -0.679311   0.000291
H  -1.400694   0.864618   0.921154
H  -1.382121   0.770594  -0.853801
H  -0.147351  -1.267318   0.862755
H   0.735273  -0.070465  -0.021216
H  -0.234505  -1.399305  -0.903739
