14
butane_opt
C  -3.953418   0.273160   0.032920
C  -2.704132  -0.629737   0.031365
H  -4.850687  -0.281895  -0.025137
H  -3.917716   0.789048  -0.786111
H  -4.024686   1.001550   0.931363
C  -1.401121   0.187863  -0.024131
H  -2.718558  -1.305275  -0.818116
H  -2.695982  -1.284649   0.948315
C  -0.156551  -0.688782   0.049727
H  -1.353871   0.877616   0.836869
H  -1.318576   0.827697  -0.896102
H  -0.169717  -1.320749   0.961313
H   0.733346  -0.123541   0.036011
H  -0.124374  -1.368912  -0.819329
