butane_opt
 OpenBabel08242015403D

 14 13  0  0  0  0  0  0  0  0999 V2000
   -3.9548    0.2657    0.0465 C   0  0  0  0  0  0  0  0  0  0  0  0
   -2.7046   -0.6142    0.0170 C   0  0  0  0  0  0  0  0  0  0  0  0
   -4.8819   -0.3528    0.0648 H   0  0  0  0  0  0  0  0  0  0  0  0
   -3.9596    0.8397   -0.8379 H   0  0  0  0  0  0  0  0  0  0  0  0
   -3.9353    0.9395    0.9450 H   0  0  0  0  0  0  0  0  0  0  0  0
   -1.4010    0.1902   -0.0345 C   0  0  0  0  0  0  0  0  0  0  0  0
   -2.7630   -1.2860   -0.8333 H   0  0  0  0  0  0  0  0  0  0  0  0
   -2.6782   -1.2536    0.9146 H   0  0  0  0  0  0  0  0  0  0  0  0
   -0.1496   -0.6970    0.0530 C   0  0  0  0  0  0  0  0  0  0  0  0
   -1.4473    0.8473    0.7954 H   0  0  0  0  0  0  0  0  0  0  0  0
   -1.3876    0.8346   -0.9162 H   0  0  0  0  0  0  0  0  0  0  0  0
   -0.1915   -1.2675    0.9289 H   0  0  0  0  0  0  0  0  0  0  0  0
    0.7455   -0.1228    0.1953 H   0  0  0  0  0  0  0  0  0  0  0  0
   -0.0065   -1.3875   -0.8044 H   0  0  0  0  0  0  0  0  0  0  0  0
  1  3  1  0  0  0  0
  1  5  1  0  0  0  0
  2  1  1  0  0  0  0
  2  8  1  0  0  0  0
  4  1  1  0  0  0  0
  6  2  1  0  0  0  0
  6  9  1  0  0  0  0
  6 10  1  0  0  0  0
  7  2  1  0  0  0  0
  9 13  1  0  0  0  0
  9 12  1  0  0  0  0
 11  6  1  0  0  0  0
 14  9  1  0  0  0  0
M  END
$$$$
