butane_opt
 OpenBabel08242015403D

 14 13  0  0  0  0  0  0  0  0999 V2000
   -3.9481    0.2791   -0.0103 C   0  0  0  0  0  0  0  0  0  0  0  0
   -2.6910   -0.6356    0.0542 C   0  0  0  0  0  0  0  0  0  0  0  0
   -4.8265   -0.2848    0.0050 H   0  0  0  0  0  0  0  0  0  0  0  0
   -3.9473    0.8826   -0.9210 H   0  0  0  0  0  0  0  0  0  0  0  0
   -3.9546    0.9237    0.8359 H   0  0  0  0  0  0  0  0  0  0  0  0
   -1.4088    0.1732    0.0540 C   0  0  0  0  0  0  0  0  0  0  0  0
   -2.6259   -1.2842   -0.7798 H   0  0  0  0  0  0  0  0  0  0  0  0
   -2.7371   -1.2776    0.9646 H   0  0  0  0  0  0  0  0  0  0  0  0
   -0.1747   -0.6799    0.0031 C   0  0  0  0  0  0  0  0  0  0  0  0
   -1.3059    0.8908    0.9533 H   0  0  0  0  0  0  0  0  0  0  0  0
   -1.4079    0.7709   -0.8051 H   0  0  0  0  0  0  0  0  0  0  0  0
   -0.0544   -1.3880    0.9189 H   0  0  0  0  0  0  0  0  0  0  0  0
    0.7488   -0.0841   -0.1228 H   0  0  0  0  0  0  0  0  0  0  0  0
   -0.2516   -1.2516   -0.8052 H   0  0  0  0  0  0  0  0  0  0  0  0
  1  3  1  0  0  0  0
  1  2  1  0  0  0  0
  1  5  1  0  0  0  0
  2  8  1  0  0  0  0
  4  1  1  0  0  0  0
  6  2  1  0  0  0  0
  6 10  1  0  0  0  0
  7  2  1  0  0  0  0
  9  6  1  0  0  0  0
  9 12  1  0  0  0  0
 11  6  1  0  0  0  0
 13  9  1  0  0  0  0
 14  9  1  0  0  0  0
M  END
$$$$
