butane_opt
 OpenBabel08242015403D

 14 13  0  0  0  0  0  0  0  0999 V2000
   -3.9359    0.2445   -0.0131 C   0  0  0  0  0  0  0  0  0  0  0  0
   -2.7006   -0.5957    0.0715 C   0  0  0  0  0  0  0  0  0  0  0  0
   -4.8391   -0.3319    0.0923 H   0  0  0  0  0  0  0  0  0  0  0  0
   -3.9574    0.9312   -0.9367 H   0  0  0  0  0  0  0  0  0  0  0  0
   -3.9626    0.8503    0.7734 H   0  0  0  0  0  0  0  0  0  0  0  0
   -1.4177    0.2045    0.0352 C   0  0  0  0  0  0  0  0  0  0  0  0
   -2.6843   -1.2726   -0.7645 H   0  0  0  0  0  0  0  0  0  0  0  0
   -2.7722   -1.2471    0.9711 H   0  0  0  0  0  0  0  0  0  0  0  0
   -0.1490   -0.7071    0.0006 C   0  0  0  0  0  0  0  0  0  0  0  0
   -1.3616    0.9119    0.9279 H   0  0  0  0  0  0  0  0  0  0  0  0
   -1.4309    0.7584   -0.7726 H   0  0  0  0  0  0  0  0  0  0  0  0
   -0.1688   -1.2716    0.8757 H   0  0  0  0  0  0  0  0  0  0  0  0
    0.7301   -0.1451    0.0101 H   0  0  0  0  0  0  0  0  0  0  0  0
   -0.1260   -1.4147   -0.8798 H   0  0  0  0  0  0  0  0  0  0  0  0
  1  2  1  0  0  0  0
  1  3  1  0  0  0  0
  1  5  1  0  0  0  0
  2  8  1  0  0  0  0
  4  1  1  0  0  0  0
  6  2  1  0  0  0  0
  6 10  1  0  0  0  0
  7  2  1  0  0  0  0
  9 13  1  0  0  0  0
  9  6  1  0  0  0  0
  9 12  1  0  0  0  0
 11  6  1  0  0  0  0
 14  9  1  0  0  0  0
M  END
$$$$
