butane_opt
 OpenBabel08242015403D

 14 13  0  0  0  0  0  0  0  0999 V2000
   -3.9391    0.2569    0.0410 C   0  0  0  0  0  0  0  0  0  0  0  0
   -2.7078   -0.6003    0.0110 C   0  0  0  0  0  0  0  0  0  0  0  0
   -4.8604   -0.3724   -0.0317 H   0  0  0  0  0  0  0  0  0  0  0  0
   -3.9733    0.7902   -0.7931 H   0  0  0  0  0  0  0  0  0  0  0  0
   -3.9511    0.9551    0.9423 H   0  0  0  0  0  0  0  0  0  0  0  0
   -1.4078    0.2007   -0.0153 C   0  0  0  0  0  0  0  0  0  0  0  0
   -2.8159   -1.2972   -0.8772 H   0  0  0  0  0  0  0  0  0  0  0  0
   -2.6871   -1.2098    0.9016 H   0  0  0  0  0  0  0  0  0  0  0  0
   -0.1474   -0.7132    0.0571 C   0  0  0  0  0  0  0  0  0  0  0  0
   -1.4103    0.9276    0.8595 H   0  0  0  0  0  0  0  0  0  0  0  0
   -1.4005    0.8071   -0.9076 H   0  0  0  0  0  0  0  0  0  0  0  0
   -0.1039   -1.4329    1.0472 H   0  0  0  0  0  0  0  0  0  0  0  0
    0.7725   -0.1179   -0.0933 H   0  0  0  0  0  0  0  0  0  0  0  0
   -0.1600   -1.2539   -0.7251 H   0  0  0  0  0  0  0  0  0  0  0  0
  1  5  1  0  0  0  0
  2  1  1  0  0  0  0
  2  8  1  0  0  0  0
  3  1  1  0  0  0  0
  4  1  1  0  0  0  0
  6  2  1  0  0  0  0
  6  9  1  0  0  0  0
  6 10  1  0  0  0  0
  7  2  1  0  0  0  0
  9 12  1  0  0  0  0
 11  6  1  0  0  0  0
 13  9  1  0  0  0  0
 14  9  1  0  0  0  0
M  END
$$$$
