14
butane_opt
C  -3.963053   0.277186   0.037227
C  -2.692173  -0.630348   0.031956
H  -4.860844  -0.338727  -0.036812
H  -3.963936   0.789777  -0.790515
H  -4.036495   0.993525   0.924584
C  -1.392667   0.184620  -0.017817
H  -2.712719  -1.358504  -0.860293
H  -2.678739  -1.195341   0.878046
C  -0.158476  -0.687042   0.051805
H  -1.406899   0.821222   0.804109
H  -1.365951   0.845789  -0.893086
H  -0.151488  -1.355088   0.990650
H   0.755179  -0.091114  -0.040176
H  -0.124698  -1.317726  -0.766299
