butane_opt
 OpenBabel08242015403D

 14 13  0  0  0  0  0  0  0  0999 V2000
   -3.9411    0.2709    0.0302 C   0  0  0  0  0  0  0  0  0  0  0  0
   -2.6903   -0.6238    0.0285 C   0  0  0  0  0  0  0  0  0  0  0  0
   -4.8274   -0.2689   -0.0309 H   0  0  0  0  0  0  0  0  0  0  0  0
   -3.9642    0.8127   -0.8157 H   0  0  0  0  0  0  0  0  0  0  0  0
   -3.9765    1.0351    0.9392 H   0  0  0  0  0  0  0  0  0  0  0  0
   -1.4030    0.1672    0.0023 C   0  0  0  0  0  0  0  0  0  0  0  0
   -2.7290   -1.2869   -0.8410 H   0  0  0  0  0  0  0  0  0  0  0  0
   -2.6893   -1.2349    0.8944 H   0  0  0  0  0  0  0  0  0  0  0  0
   -0.1747   -0.6854    0.0421 C   0  0  0  0  0  0  0  0  0  0  0  0
   -1.3785    0.7812    0.7906 H   0  0  0  0  0  0  0  0  0  0  0  0
   -1.3730    0.8426   -0.9200 H   0  0  0  0  0  0  0  0  0  0  0  0
   -0.1635   -1.3565    0.9707 H   0  0  0  0  0  0  0  0  0  0  0  0
    0.7899   -0.0279    0.0179 H   0  0  0  0  0  0  0  0  0  0  0  0
   -0.2092   -1.3105   -0.7846 H   0  0  0  0  0  0  0  0  0  0  0  0
  1  5  1  0  0  0  0
  2  1  1  0  0  0  0
  2  8  1  0  0  0  0
  3  1  1  0  0  0  0
  4  1  1  0  0  0  0
  6  2  1  0  0  0  0
  6  9  1  0  0  0  0
  6 10  1  0  0  0  0
  7  2  1  0  0  0  0
  9 12  1  0  0  0  0
 11  6  1  0  0  0  0
 13  9  1  0  0  0  0
 14  9  1  0  0  0  0
M  END
$$$$
