butane_opt
 OpenBabel08242015403D

 14 13  0  0  0  0  0  0  0  0999 V2000
   -3.9617    0.2753   -0.0105 C   0  0  0  0  0  0  0  0  0  0  0  0
   -2.7056   -0.6309    0.0762 C   0  0  0  0  0  0  0  0  0  0  0  0
   -4.8426   -0.2562    0.0524 H   0  0  0  0  0  0  0  0  0  0  0  0
   -3.9848    0.9160   -0.9185 H   0  0  0  0  0  0  0  0  0  0  0  0
   -3.9733    0.8792    0.8263 H   0  0  0  0  0  0  0  0  0  0  0  0
   -1.3985    0.1768    0.0193 C   0  0  0  0  0  0  0  0  0  0  0  0
   -2.6855   -1.2514   -0.7327 H   0  0  0  0  0  0  0  0  0  0  0  0
   -2.6953   -1.3134    1.0112 H   0  0  0  0  0  0  0  0  0  0  0  0
   -0.1487   -0.6844    0.0115 C   0  0  0  0  0  0  0  0  0  0  0  0
   -1.3948    0.8742    0.8854 H   0  0  0  0  0  0  0  0  0  0  0  0
   -1.3805    0.7472   -0.8630 H   0  0  0  0  0  0  0  0  0  0  0  0
   -0.2022   -1.1390    0.8038 H   0  0  0  0  0  0  0  0  0  0  0  0
    0.7881   -0.0649    0.1320 H   0  0  0  0  0  0  0  0  0  0  0  0
   -0.0904   -1.4979   -0.9423 H   0  0  0  0  0  0  0  0  0  0  0  0
  1  3  1  0  0  0  0
  1  2  1  0  0  0  0
  1  5  1  0  0  0  0
  2  8  1  0  0  0  0
  4  1  1  0  0  0  0
  6  2  1  0  0  0  0
  6 10  1  0  0  0  0
  7  2  1  0  0  0  0
  9  6  1  0  0  0  0
  9 13  1  0  0  0  0
  9 12  1  0  0  0  0
 11  6  1  0  0  0  0
 14  9  1  0  0  0  0
M  END
$$$$
