butane_opt
 OpenBabel08242015403D

 14 13  0  0  0  0  0  0  0  0999 V2000
   -3.9430    0.2798    0.0037 C   0  0  0  0  0  0  0  0  0  0  0  0
   -2.6876   -0.6360    0.0566 C   0  0  0  0  0  0  0  0  0  0  0  0
   -4.8662   -0.3130    0.1264 H   0  0  0  0  0  0  0  0  0  0  0  0
   -3.9594    1.0446   -0.9950 H   0  0  0  0  0  0  0  0  0  0  0  0
   -3.9593    0.8391    0.7990 H   0  0  0  0  0  0  0  0  0  0  0  0
   -1.3997    0.1718    0.0329 C   0  0  0  0  0  0  0  0  0  0  0  0
   -2.7273   -1.3484   -0.8174 H   0  0  0  0  0  0  0  0  0  0  0  0
   -2.6992   -1.2531    0.9404 H   0  0  0  0  0  0  0  0  0  0  0  0
   -0.1715   -0.6808    0.0103 C   0  0  0  0  0  0  0  0  0  0  0  0
   -1.3723    0.8736    0.8956 H   0  0  0  0  0  0  0  0  0  0  0  0
   -1.3734    0.8045   -0.8332 H   0  0  0  0  0  0  0  0  0  0  0  0
   -0.1920   -1.2449    0.8642 H   0  0  0  0  0  0  0  0  0  0  0  0
    0.7258   -0.0753    0.0915 H   0  0  0  0  0  0  0  0  0  0  0  0
   -0.1785   -1.4156   -0.8941 H   0  0  0  0  0  0  0  0  0  0  0  0
  1  2  1  0  0  0  0
  1  3  1  0  0  0  0
  1  5  1  0  0  0  0
  2  8  1  0  0  0  0
  4  1  1  0  0  0  0
  6  2  1  0  0  0  0
  6 10  1  0  0  0  0
  7  2  1  0  0  0  0
  9  6  1  0  0  0  0
  9 13  1  0  0  0  0
  9 12  1  0  0  0  0
 11  6  1  0  0  0  0
 14  9  1  0  0  0  0
M  END
$$$$
