14
butane_opt
C  -3.946576   0.274028   0.002638
C  -2.699799  -0.636855   0.044175
H  -4.808992  -0.282543   0.155597
H  -4.054681   1.016854  -0.963282
H  -3.876398   0.864404   0.793411
C  -1.406685   0.186476   0.032860
H  -2.682561  -1.312028  -0.800428
H  -2.762598  -1.270974   0.946364
C  -0.161952  -0.685029   0.017680
H  -1.366284   0.870347   0.897444
H  -1.370638   0.737361  -0.832749
H  -0.152077  -1.261382   0.889083
H   0.780153  -0.080142   0.036244
H  -0.160909  -1.398917  -0.865285
