14
butane_opt
C  -3.950033   0.268129   0.032330
C  -2.692791  -0.624988   0.043154
H  -4.838436  -0.319709  -0.135764
H  -3.946851   0.779795  -0.805387
H  -4.027147   1.049276   0.958915
C  -1.404177   0.191918  -0.008218
H  -2.749773  -1.342907  -0.825408
H  -2.707797  -1.249615   0.909046
C  -0.161330  -0.693082   0.043611
H  -1.358415   0.814753   0.796383
H  -1.428381   0.859193  -0.942786
H  -0.136105  -1.358674   0.949629
H   0.778456  -0.064820   0.007916
H  -0.115931  -1.333611  -0.786988
