14
butane_opt
C  -3.940002   0.271850   0.039834
C  -2.689223  -0.621654   0.016339
H  -4.870126  -0.331574  -0.057478
H  -3.948986   0.789725  -0.776243
H  -4.035013   1.048022   0.973771
C  -1.408770   0.168361  -0.008411
H  -2.720038  -1.319775  -0.848123
H  -2.627161  -1.232720   0.882375
C  -0.168644  -0.686990   0.055776
H  -1.412138   0.826441   0.808704
H  -1.352719   0.879696  -0.948216
H  -0.180171  -1.391422   0.992603
H   0.806015  -0.036293  -0.068004
H  -0.199660  -1.283978  -0.748046
