butane_opt
 OpenBabel08242015403D

 14 13  0  0  0  0  0  0  0  0999 V2000
   -3.9612    0.2695    0.0012 C   0  0  0  0  0  0  0  0  0  0  0  0
   -2.7006   -0.6248    0.0548 C   0  0  0  0  0  0  0  0  0  0  0  0
   -4.8383   -0.2888    0.1889 H   0  0  0  0  0  0  0  0  0  0  0  0
   -3.9786    1.0857   -1.0345 H   0  0  0  0  0  0  0  0  0  0  0  0
   -3.9847    0.8162    0.7506 H   0  0  0  0  0  0  0  0  0  0  0  0
   -1.3952    0.1715    0.0434 C   0  0  0  0  0  0  0  0  0  0  0  0
   -2.7221   -1.3071   -0.8040 H   0  0  0  0  0  0  0  0  0  0  0  0
   -2.7264   -1.2270    0.8994 H   0  0  0  0  0  0  0  0  0  0  0  0
   -0.1536   -0.6921    0.0094 C   0  0  0  0  0  0  0  0  0  0  0  0
   -1.3457    0.8770    0.9159 H   0  0  0  0  0  0  0  0  0  0  0  0
   -1.3634    0.7555   -0.8085 H   0  0  0  0  0  0  0  0  0  0  0  0
   -0.1462   -1.2185    0.8535 H   0  0  0  0  0  0  0  0  0  0  0  0
    0.7831   -0.0491    0.0384 H   0  0  0  0  0  0  0  0  0  0  0  0
   -0.1774   -1.3951   -0.8833 H   0  0  0  0  0  0  0  0  0  0  0  0
  1  2  1  0  0  0  0
  1  3  1  0  0  0  0
  1  5  1  0  0  0  0
  2  8  1  0  0  0  0
  4  1  1  0  0  0  0
  6  2  1  0  0  0  0
  6 10  1  0  0  0  0
  7  2  1  0  0  0  0
  9 13  1  0  0  0  0
  9  6  1  0  0  0  0
  9 12  1  0  0  0  0
 11  6  1  0  0  0  0
 14  9  1  0  0  0  0
M  END
$$$$
