14
butane_opt
C  -3.936538   0.261272   0.053184
C  -2.705211  -0.608552  -0.007697
H  -4.841127  -0.338502   0.151538
H  -3.992826   0.950660  -0.872694
H  -3.834284   0.883307   0.884762
C  -1.413013   0.182472  -0.015610
H  -2.762876  -1.300869  -0.892298
H  -2.665248  -1.208012   0.840576
C  -0.160595  -0.703973   0.058577
H  -1.440893   0.883087   0.831343
H  -1.335319   0.788703  -0.869657
H  -0.195964  -1.336795   0.997515
H   0.755965  -0.087780   0.021178
H  -0.125717  -1.277580  -0.723131
