14
butane_opt
C  -3.949183   0.256967   0.003490
C  -2.705868  -0.621161   0.067091
H  -4.825392  -0.302796   0.074948
H  -3.954998   0.924653  -0.944071
H  -3.966416   0.893909   0.811948
C  -1.408611   0.196678   0.015411
H  -2.701353  -1.294421  -0.759146
H  -2.700583  -1.236069   0.947416
C  -0.150998  -0.699046   0.019695
H  -1.364904   0.865893   0.864323
H  -1.437473   0.841357  -0.881409
H  -0.181007  -1.175510   0.838767
H   0.744053  -0.104165   0.130213
H  -0.062413  -1.488675  -0.928032
