14
butane_opt
C  -3.930733   0.267027   0.002284
C  -2.701089  -0.619049   0.067301
H  -4.810277  -0.301123  -0.051826
H  -3.931777   0.879863  -0.897414
H  -4.051799   0.944402   0.823692
C  -1.400633   0.173197   0.033239
H  -2.658337  -1.294967  -0.755478
H  -2.730502  -1.232734   0.950535
C  -0.173395  -0.691715   0.005384
H  -1.342928   0.877295   0.899613
H  -1.423752   0.810479  -0.857463
H  -0.179311  -1.287450   0.909947
H   0.741563  -0.078133  -0.029779
H  -0.164189  -1.346238  -0.849146
