butane_opt
 OpenBabel08242015403D

 14 13  0  0  0  0  0  0  0  0999 V2000
   -3.9359    0.2585    0.0492 C   0  0  0  0  0  0  0  0  0  0  0  0
   -2.7048   -0.6010   -0.0050 C   0  0  0  0  0  0  0  0  0  0  0  0
   -4.9091   -0.3927    0.1656 H   0  0  0  0  0  0  0  0  0  0  0  0
   -4.0088    0.9497   -0.8906 H   0  0  0  0  0  0  0  0  0  0  0  0
   -3.8448    0.8949    0.9013 H   0  0  0  0  0  0  0  0  0  0  0  0
   -1.4078    0.1864   -0.0174 C   0  0  0  0  0  0  0  0  0  0  0  0
   -2.7606   -1.3377   -0.8926 H   0  0  0  0  0  0  0  0  0  0  0  0
   -2.6799   -1.2041    0.8574 H   0  0  0  0  0  0  0  0  0  0  0  0
   -0.1568   -0.7001    0.0735 C   0  0  0  0  0  0  0  0  0  0  0  0
   -1.4184    0.8329    0.8280 H   0  0  0  0  0  0  0  0  0  0  0  0
   -1.3635    0.8720   -0.9272 H   0  0  0  0  0  0  0  0  0  0  0  0
   -0.1438   -1.2914    0.9794 H   0  0  0  0  0  0  0  0  0  0  0  0
    0.7146   -0.1396    0.0208 H   0  0  0  0  0  0  0  0  0  0  0  0
   -0.1369   -1.3907   -0.8204 H   0  0  0  0  0  0  0  0  0  0  0  0
  1  3  1  0  0  0  0
  1  5  1  0  0  0  0
  2  1  1  0  0  0  0
  2  8  1  0  0  0  0
  4  1  1  0  0  0  0
  6  2  1  0  0  0  0
  6  9  1  0  0  0  0
  6 10  1  0  0  0  0
  7  2  1  0  0  0  0
  9 12  1  0  0  0  0
 11  6  1  0  0  0  0
 13  9  1  0  0  0  0
 14  9  1  0  0  0  0
M  END
$$$$
