butane_opt
 OpenBabel08242015403D

 14 13  0  0  0  0  0  0  0  0999 V2000
   -3.9590    0.2712    0.0085 C   0  0  0  0  0  0  0  0  0  0  0  0
   -2.6964   -0.6330    0.0537 C   0  0  0  0  0  0  0  0  0  0  0  0
   -4.8561   -0.3250    0.0255 H   0  0  0  0  0  0  0  0  0  0  0  0
   -3.9538    0.9122   -0.9095 H   0  0  0  0  0  0  0  0  0  0  0  0
   -4.0227    0.9613    0.8630 H   0  0  0  0  0  0  0  0  0  0  0  0
   -1.3962    0.1797    0.0180 C   0  0  0  0  0  0  0  0  0  0  0  0
   -2.7354   -1.2892   -0.7729 H   0  0  0  0  0  0  0  0  0  0  0  0
   -2.6955   -1.2872    0.9757 H   0  0  0  0  0  0  0  0  0  0  0  0
   -0.1600   -0.6830    0.0260 C   0  0  0  0  0  0  0  0  0  0  0  0
   -1.3952    0.8522    0.8436 H   0  0  0  0  0  0  0  0  0  0  0  0
   -1.3820    0.8491   -0.8948 H   0  0  0  0  0  0  0  0  0  0  0  0
   -0.1060   -1.2146    0.8364 H   0  0  0  0  0  0  0  0  0  0  0  0
    0.7461   -0.1119    0.0792 H   0  0  0  0  0  0  0  0  0  0  0  0
   -0.0884   -1.4374   -0.8910 H   0  0  0  0  0  0  0  0  0  0  0  0
  1  3  1  0  0  0  0
  1  2  1  0  0  0  0
  1  5  1  0  0  0  0
  2  8  1  0  0  0  0
  4  1  1  0  0  0  0
  6  9  1  0  0  0  0
  6  2  1  0  0  0  0
  6 10  1  0  0  0  0
  7  2  1  0  0  0  0
  9 13  1  0  0  0  0
  9 12  1  0  0  0  0
 11  6  1  0  0  0  0
 14  9  1  0  0  0  0
M  END
$$$$
