butane_opt
 OpenBabel08242015403D

 14 13  0  0  0  0  0  0  0  0999 V2000
   -3.9404    0.2684    0.0456 C   0  0  0  0  0  0  0  0  0  0  0  0
   -2.6896   -0.6173   -0.0024 C   0  0  0  0  0  0  0  0  0  0  0  0
   -4.8519   -0.3354    0.0769 H   0  0  0  0  0  0  0  0  0  0  0  0
   -4.0009    0.8480   -0.8227 H   0  0  0  0  0  0  0  0  0  0  0  0
   -3.9378    0.9894    0.9216 H   0  0  0  0  0  0  0  0  0  0  0  0
   -1.3994    0.1821   -0.0151 C   0  0  0  0  0  0  0  0  0  0  0  0
   -2.7491   -1.3008   -0.8854 H   0  0  0  0  0  0  0  0  0  0  0  0
   -2.6915   -1.2668    0.8858 H   0  0  0  0  0  0  0  0  0  0  0  0
   -0.1734   -0.6869    0.0644 C   0  0  0  0  0  0  0  0  0  0  0  0
   -1.3837    0.8616    0.8443 H   0  0  0  0  0  0  0  0  0  0  0  0
   -1.3621    0.7850   -0.9033 H   0  0  0  0  0  0  0  0  0  0  0  0
   -0.1307   -1.4009    1.0209 H   0  0  0  0  0  0  0  0  0  0  0  0
    0.7253   -0.1247   -0.0428 H   0  0  0  0  0  0  0  0  0  0  0  0
   -0.2045   -1.2815   -0.7497 H   0  0  0  0  0  0  0  0  0  0  0  0
  1  3  1  0  0  0  0
  1  5  1  0  0  0  0
  2  1  1  0  0  0  0
  2  8  1  0  0  0  0
  4  1  1  0  0  0  0
  6  2  1  0  0  0  0
  6  9  1  0  0  0  0
  6 10  1  0  0  0  0
  7  2  1  0  0  0  0
  9 12  1  0  0  0  0
 11  6  1  0  0  0  0
 13  9  1  0  0  0  0
 14  9  1  0  0  0  0
M  END
$$$$
