14
butane_opt
C  -3.959179   0.276952  -0.002386
C  -2.696611  -0.633748   0.053974
H  -4.846810  -0.319326   0.122173
H  -4.063725   0.986479  -0.946584
H  -3.921287   0.846839   0.793625
C  -1.395436   0.176744   0.034750
H  -2.661621  -1.270090  -0.760879
H  -2.722315  -1.312718   0.946665
C  -0.163336  -0.685858   0.007451
H  -1.387934   0.916445   0.926141
H  -1.377503   0.787696  -0.845101
H  -0.155674  -1.231550   0.845522
H   0.766088  -0.082020   0.094691
H  -0.086703  -1.395072  -0.880499
