14
butane_opt
C  -3.939667   0.275175   0.003000
C  -2.687374  -0.626839   0.053167
H  -4.843032  -0.318712   0.090729
H  -4.021314   0.964391  -0.921009
H  -3.944774   0.883613   0.832976
C  -1.403761   0.166414   0.019979
H  -2.683936  -1.341140  -0.798134
H  -2.688695  -1.260762   0.964159
C  -0.172636  -0.672420   0.024234
H  -1.356514   0.828385   0.889489
H  -1.430636   0.819677  -0.900080
H  -0.173459  -1.202072   0.847516
H   0.709542  -0.112570   0.099534
H  -0.151414  -1.436447  -0.884862
