butane_opt
 OpenBabel08242015403D

 14 13  0  0  0  0  0  0  0  0999 V2000
   -3.9544    0.2724    0.0045 C   0  0  0  0  0  0  0  0  0  0  0  0
   -2.7112   -0.6188    0.0454 C   0  0  0  0  0  0  0  0  0  0  0  0
   -4.8640   -0.3160    0.0585 H   0  0  0  0  0  0  0  0  0  0  0  0
   -3.9265    0.9435   -0.9167 H   0  0  0  0  0  0  0  0  0  0  0  0
   -4.0152    0.9007    0.8110 H   0  0  0  0  0  0  0  0  0  0  0  0
   -1.3954    0.1672    0.0344 C   0  0  0  0  0  0  0  0  0  0  0  0
   -2.6714   -1.2886   -0.7869 H   0  0  0  0  0  0  0  0  0  0  0  0
   -2.7088   -1.2742    0.9456 H   0  0  0  0  0  0  0  0  0  0  0  0
   -0.1582   -0.6875    0.0144 C   0  0  0  0  0  0  0  0  0  0  0  0
   -1.3414    0.9448    0.9593 H   0  0  0  0  0  0  0  0  0  0  0  0
   -1.3838    0.7481   -0.8318 H   0  0  0  0  0  0  0  0  0  0  0  0
   -0.0932   -1.3472    0.9210 H   0  0  0  0  0  0  0  0  0  0  0  0
    0.7683   -0.0835   -0.0812 H   0  0  0  0  0  0  0  0  0  0  0  0
   -0.1644   -1.2946   -0.8194 H   0  0  0  0  0  0  0  0  0  0  0  0
  1  2  1  0  0  0  0
  1  3  1  0  0  0  0
  1  5  1  0  0  0  0
  2  8  1  0  0  0  0
  4  1  1  0  0  0  0
  6  2  1  0  0  0  0
  6 10  1  0  0  0  0
  7  2  1  0  0  0  0
  9  6  1  0  0  0  0
  9 12  1  0  0  0  0
 11  6  1  0  0  0  0
 13  9  1  0  0  0  0
 14  9  1  0  0  0  0
M  END
$$$$
