butane_opt
 OpenBabel08242015403D

 14 13  0  0  0  0  0  0  0  0999 V2000
   -3.9587    0.2504   -0.0176 C   0  0  0  0  0  0  0  0  0  0  0  0
   -2.6978   -0.5987    0.0705 C   0  0  0  0  0  0  0  0  0  0  0  0
   -4.8727   -0.3420    0.0062 H   0  0  0  0  0  0  0  0  0  0  0  0
   -3.9582    0.9386   -0.9409 H   0  0  0  0  0  0  0  0  0  0  0  0
   -3.9510    0.9112    0.8257 H   0  0  0  0  0  0  0  0  0  0  0  0
   -1.4082    0.1855    0.0511 C   0  0  0  0  0  0  0  0  0  0  0  0
   -2.7264   -1.2904   -0.7640 H   0  0  0  0  0  0  0  0  0  0  0  0
   -2.7000   -1.2550    0.9797 H   0  0  0  0  0  0  0  0  0  0  0  0
   -0.1511   -0.6997    0.0054 C   0  0  0  0  0  0  0  0  0  0  0  0
   -1.3525    0.8871    0.9216 H   0  0  0  0  0  0  0  0  0  0  0  0
   -1.3835    0.8142   -0.8447 H   0  0  0  0  0  0  0  0  0  0  0  0
   -0.0567   -1.2813    0.8744 H   0  0  0  0  0  0  0  0  0  0  0  0
    0.7538   -0.1080   -0.0648 H   0  0  0  0  0  0  0  0  0  0  0  0
   -0.1836   -1.3970   -0.8812 H   0  0  0  0  0  0  0  0  0  0  0  0
  1  3  1  0  0  0  0
  1  2  1  0  0  0  0
  1  5  1  0  0  0  0
  2  8  1  0  0  0  0
  4  1  1  0  0  0  0
  6  2  1  0  0  0  0
  6 10  1  0  0  0  0
  7  2  1  0  0  0  0
  9  6  1  0  0  0  0
  9 12  1  0  0  0  0
 11  6  1  0  0  0  0
 13  9  1  0  0  0  0
 14  9  1  0  0  0  0
M  END
$$$$
