14
butane_opt
C  -3.931158   0.254407   0.037509
C  -2.702830  -0.609802   0.026922
H  -4.817753  -0.328502  -0.037467
H  -3.869320   0.768594  -0.806399
H  -3.984039   1.035280   0.970084
C  -1.421763   0.197890  -0.018114
H  -2.747552  -1.335642  -0.863185
H  -2.686001  -1.223631   0.899552
C  -0.158956  -0.703379   0.055263
H  -1.408180   0.861627   0.830669
H  -1.412242   0.861059  -0.960708
H  -0.117742  -1.355756   0.979877
H   0.748605  -0.109698  -0.033077
H  -0.155148  -1.309659  -0.737649
