butane_opt
 OpenBabel08242015403D

 14 13  0  0  0  0  0  0  0  0999 V2000
   -3.9499    0.2578    0.0397 C   0  0  0  0  0  0  0  0  0  0  0  0
   -2.7226   -0.6064    0.0164 C   0  0  0  0  0  0  0  0  0  0  0  0
   -4.8681   -0.3195    0.0164 H   0  0  0  0  0  0  0  0  0  0  0  0
   -4.0124    0.8233   -0.8098 H   0  0  0  0  0  0  0  0  0  0  0  0
   -3.8917    0.9747    0.9284 H   0  0  0  0  0  0  0  0  0  0  0  0
   -1.4007    0.1901   -0.0220 C   0  0  0  0  0  0  0  0  0  0  0  0
   -2.7160   -1.2442   -0.7911 H   0  0  0  0  0  0  0  0  0  0  0  0
   -2.7168   -1.2619    0.9109 H   0  0  0  0  0  0  0  0  0  0  0  0
   -0.1385   -0.7024    0.0554 C   0  0  0  0  0  0  0  0  0  0  0  0
   -1.3730    0.8210    0.8183 H   0  0  0  0  0  0  0  0  0  0  0  0
   -1.3917    0.8629   -0.9300 H   0  0  0  0  0  0  0  0  0  0  0  0
   -0.1854   -1.2778    0.9169 H   0  0  0  0  0  0  0  0  0  0  0  0
    0.7460   -0.1251    0.1178 H   0  0  0  0  0  0  0  0  0  0  0  0
   -0.0727   -1.4008   -0.8125 H   0  0  0  0  0  0  0  0  0  0  0  0
  1  5  1  0  0  0  0
  2  1  1  0  0  0  0
  2  8  1  0  0  0  0
  3  1  1  0  0  0  0
  4  1  1  0  0  0  0
  6  2  1  0  0  0  0
  6  9  1  0  0  0  0
  6 10  1  0  0  0  0
  7  2  1  0  0  0  0
  9 13  1  0  0  0  0
  9 12  1  0  0  0  0
 11  6  1  0  0  0  0
 14  9  1  0  0  0  0
M  END
$$$$
