14
butane_opt
C  -3.942229   0.254851   0.045587
C  -2.711656  -0.613871   0.006712
H  -4.857649  -0.334298  -0.006724
H  -3.940572   0.815936  -0.839423
H  -3.962263   0.974624   0.938649
C  -1.413049   0.210801  -0.003931
H  -2.717021  -1.313520  -0.880903
H  -2.685965  -1.235316   0.873018
C  -0.150356  -0.698910   0.048572
H  -1.409197   0.889737   0.864741
H  -1.374513   0.800365  -0.895969
H  -0.067912  -1.504589   1.069660
H   0.750030  -0.143699  -0.094294
H  -0.151367  -1.250890  -0.729277
