butane_opt
 OpenBabel08242015403D

 14 13  0  0  0  0  0  0  0  0999 V2000
   -3.9322    0.2575   -0.0025 C   0  0  0  0  0  0  0  0  0  0  0  0
   -2.7136   -0.5967    0.0728 C   0  0  0  0  0  0  0  0  0  0  0  0
   -4.8670   -0.3776   -0.0816 H   0  0  0  0  0  0  0  0  0  0  0  0
   -3.8961    0.8053   -0.8406 H   0  0  0  0  0  0  0  0  0  0  0  0
   -4.0266    0.9738    0.8831 H   0  0  0  0  0  0  0  0  0  0  0  0
   -1.4021    0.1973    0.0163 C   0  0  0  0  0  0  0  0  0  0  0  0
   -2.7207   -1.2590   -0.7454 H   0  0  0  0  0  0  0  0  0  0  0  0
   -2.7525   -1.2743    0.9941 H   0  0  0  0  0  0  0  0  0  0  0  0
   -0.1538   -0.7058    0.0070 C   0  0  0  0  0  0  0  0  0  0  0  0
   -1.4141    0.8708    0.8764 H   0  0  0  0  0  0  0  0  0  0  0  0
   -1.4316    0.7822   -0.8313 H   0  0  0  0  0  0  0  0  0  0  0  0
   -0.1718   -1.3108    0.8901 H   0  0  0  0  0  0  0  0  0  0  0  0
    0.7585   -0.1290    0.0185 H   0  0  0  0  0  0  0  0  0  0  0  0
   -0.0771   -1.3842   -0.8472 H   0  0  0  0  0  0  0  0  0  0  0  0
  1  2  1  0  0  0  0
  1  5  1  0  0  0  0
  2  8  1  0  0  0  0
  3  1  1  0  0  0  0
  4  1  1  0  0  0  0
  6  2  1  0  0  0  0
  6 10  1  0  0  0  0
  7  2  1  0  0  0  0
  9  6  1  0  0  0  0
  9 13  1  0  0  0  0
  9 12  1  0  0  0  0
 11  6  1  0  0  0  0
 14  9  1  0  0  0  0
M  END
$$$$
