butane_opt
 OpenBabel08242015403D

 14 13  0  0  0  0  0  0  0  0999 V2000
   -3.9389    0.2702    0.0533 C   0  0  0  0  0  0  0  0  0  0  0  0
   -2.6980   -0.6094    0.0007 C   0  0  0  0  0  0  0  0  0  0  0  0
   -4.8357   -0.3110    0.0822 H   0  0  0  0  0  0  0  0  0  0  0  0
   -4.0014    0.8688   -0.8290 H   0  0  0  0  0  0  0  0  0  0  0  0
   -3.9457    0.9503    0.9649 H   0  0  0  0  0  0  0  0  0  0  0  0
   -1.3977    0.1677   -0.0319 C   0  0  0  0  0  0  0  0  0  0  0  0
   -2.7092   -1.3190   -0.8782 H   0  0  0  0  0  0  0  0  0  0  0  0
   -2.6824   -1.2565    0.9218 H   0  0  0  0  0  0  0  0  0  0  0  0
   -0.1741   -0.6931    0.0623 C   0  0  0  0  0  0  0  0  0  0  0  0
   -1.4073    0.8528    0.8106 H   0  0  0  0  0  0  0  0  0  0  0  0
   -1.3683    0.7965   -0.9464 H   0  0  0  0  0  0  0  0  0  0  0  0
   -0.2730   -1.2959    0.9735 H   0  0  0  0  0  0  0  0  0  0  0  0
    0.7848   -0.0407    0.0966 H   0  0  0  0  0  0  0  0  0  0  0  0
   -0.0798   -1.3323   -0.7675 H   0  0  0  0  0  0  0  0  0  0  0  0
  1  3  1  0  0  0  0
  1  5  1  0  0  0  0
  2  1  1  0  0  0  0
  2  8  1  0  0  0  0
  4  1  1  0  0  0  0
  6  2  1  0  0  0  0
  6  9  1  0  0  0  0
  6 10  1  0  0  0  0
  7  2  1  0  0  0  0
  9 13  1  0  0  0  0
  9 12  1  0  0  0  0
 11  6  1  0  0  0  0
 14  9  1  0  0  0  0
M  END
$$$$
