butane_opt
 OpenBabel08242015403D

 14 13  0  0  0  0  0  0  0  0999 V2000
   -3.9566    0.2704    0.0002 C   0  0  0  0  0  0  0  0  0  0  0  0
   -2.6966   -0.6257    0.0523 C   0  0  0  0  0  0  0  0  0  0  0  0
   -4.8510   -0.3013    0.1280 H   0  0  0  0  0  0  0  0  0  0  0  0
   -3.9875    1.0694   -1.0219 H   0  0  0  0  0  0  0  0  0  0  0  0
   -3.9911    0.8212    0.7678 H   0  0  0  0  0  0  0  0  0  0  0  0
   -1.4002    0.1645    0.0489 C   0  0  0  0  0  0  0  0  0  0  0  0
   -2.7129   -1.3129   -0.8045 H   0  0  0  0  0  0  0  0  0  0  0  0
   -2.7302   -1.2550    0.9589 H   0  0  0  0  0  0  0  0  0  0  0  0
   -0.1521   -0.6773    0.0053 C   0  0  0  0  0  0  0  0  0  0  0  0
   -1.3756    0.8829    0.9354 H   0  0  0  0  0  0  0  0  0  0  0  0
   -1.4327    0.7753   -0.8451 H   0  0  0  0  0  0  0  0  0  0  0  0
   -0.0892   -1.2312    0.8842 H   0  0  0  0  0  0  0  0  0  0  0  0
    0.7893   -0.0865    0.0342 H   0  0  0  0  0  0  0  0  0  0  0  0
   -0.1853   -1.4058   -0.8954 H   0  0  0  0  0  0  0  0  0  0  0  0
  1  2  1  0  0  0  0
  1  3  1  0  0  0  0
  1  5  1  0  0  0  0
  2  8  1  0  0  0  0
  4  1  1  0  0  0  0
  6  2  1  0  0  0  0
  6 10  1  0  0  0  0
  7  2  1  0  0  0  0
  9 13  1  0  0  0  0
  9  6  1  0  0  0  0
  9 12  1  0  0  0  0
 11  6  1  0  0  0  0
 14  9  1  0  0  0  0
M  END
$$$$
