14
butane_opt
C  -3.939722   0.254175  -0.003115
C  -2.709265  -0.606394   0.049953
H  -4.888944  -0.381185   0.185119
H  -4.028588   1.028793  -0.981536
H  -3.930979   0.804486   0.792147
C  -1.408551   0.201556   0.033837
H  -2.706454  -1.305137  -0.806214
H  -2.766043  -1.246794   0.924873
C  -0.141808  -0.705419   0.013026
H  -1.394836   0.942116   0.935951
H  -1.455639   0.768931  -0.804711
H  -0.085749  -1.298555   0.892428
H   0.753048  -0.113288   0.035663
H  -0.120959  -1.397643  -0.868674
