butane_opt
 OpenBabel08242015403D

 14 13  0  0  0  0  0  0  0  0999 V2000
   -3.9401    0.2679    0.0001 C   0  0  0  0  0  0  0  0  0  0  0  0
   -2.6885   -0.6247    0.0536 C   0  0  0  0  0  0  0  0  0  0  0  0
   -4.8186   -0.2967    0.0904 H   0  0  0  0  0  0  0  0  0  0  0  0
   -3.9704    0.9245   -0.9237 H   0  0  0  0  0  0  0  0  0  0  0  0
   -3.9844    0.9073    0.8413 H   0  0  0  0  0  0  0  0  0  0  0  0
   -1.4015    0.1773    0.0312 C   0  0  0  0  0  0  0  0  0  0  0  0
   -2.6827   -1.2851   -0.7774 H   0  0  0  0  0  0  0  0  0  0  0  0
   -2.7264   -1.2973    0.9775 H   0  0  0  0  0  0  0  0  0  0  0  0
   -0.1724   -0.6876    0.0192 C   0  0  0  0  0  0  0  0  0  0  0  0
   -1.3928    0.8452    0.8647 H   0  0  0  0  0  0  0  0  0  0  0  0
   -1.4551    0.8427   -0.9070 H   0  0  0  0  0  0  0  0  0  0  0  0
   -0.1721   -1.1901    0.8345 H   0  0  0  0  0  0  0  0  0  0  0  0
    0.7560   -0.0850    0.1003 H   0  0  0  0  0  0  0  0  0  0  0  0
   -0.1517   -1.4265   -0.9145 H   0  0  0  0  0  0  0  0  0  0  0  0
  1  2  1  0  0  0  0
  1  3  1  0  0  0  0
  1  5  1  0  0  0  0
  2  8  1  0  0  0  0
  4  1  1  0  0  0  0
  6  2  1  0  0  0  0
  6 10  1  0  0  0  0
  7  2  1  0  0  0  0
  9  6  1  0  0  0  0
  9 13  1  0  0  0  0
  9 12  1  0  0  0  0
 11  6  1  0  0  0  0
 14  9  1  0  0  0  0
M  END
$$$$
