butane_opt
 OpenBabel08242015403D

 14 13  0  0  0  0  0  0  0  0999 V2000
   -3.9503    0.2564    0.0530 C   0  0  0  0  0  0  0  0  0  0  0  0
   -2.7000   -0.6013    0.0003 C   0  0  0  0  0  0  0  0  0  0  0  0
   -4.8555   -0.3316    0.0523 H   0  0  0  0  0  0  0  0  0  0  0  0
   -4.0090    0.8026   -0.8029 H   0  0  0  0  0  0  0  0  0  0  0  0
   -3.9339    0.9712    0.9209 H   0  0  0  0  0  0  0  0  0  0  0  0
   -1.4030    0.1892   -0.0295 C   0  0  0  0  0  0  0  0  0  0  0  0
   -2.7813   -1.2656   -0.8360 H   0  0  0  0  0  0  0  0  0  0  0  0
   -2.7102   -1.2524    0.9126 H   0  0  0  0  0  0  0  0  0  0  0  0
   -0.1437   -0.6981    0.0717 C   0  0  0  0  0  0  0  0  0  0  0  0
   -1.4308    0.8086    0.7904 H   0  0  0  0  0  0  0  0  0  0  0  0
   -1.3821    0.8492   -0.9584 H   0  0  0  0  0  0  0  0  0  0  0  0
   -0.2048   -1.2753    0.9454 H   0  0  0  0  0  0  0  0  0  0  0  0
    0.7477   -0.1357    0.0741 H   0  0  0  0  0  0  0  0  0  0  0  0
   -0.0938   -1.4010   -0.8081 H   0  0  0  0  0  0  0  0  0  0  0  0
  1  5  1  0  0  0  0
  2  1  1  0  0  0  0
  2  8  1  0  0  0  0
  3  1  1  0  0  0  0
  4  1  1  0  0  0  0
  6  2  1  0  0  0  0
  6  9  1  0  0  0  0
  6 10  1  0  0  0  0
  7  2  1  0  0  0  0
  9 13  1  0  0  0  0
  9 12  1  0  0  0  0
 11  6  1  0  0  0  0
 14  9  1  0  0  0  0
M  END
$$$$
