14
butane_opt
C  -3.936078   0.267166   0.046646
C  -2.693638  -0.614810   0.007581
H  -4.869226  -0.341972   0.181409
H  -3.993531   0.888755  -0.862901
H  -3.884492   0.872181   0.873892
C  -1.404105   0.191502  -0.020765
H  -2.726035  -1.328459  -0.883634
H  -2.724869  -1.176298   0.852943
C  -0.169175  -0.697300   0.064389
H  -1.397194   0.854359   0.804173
H  -1.384890   0.820852  -0.937164
H  -0.226009  -1.300352   0.958395
H   0.741093  -0.133255   0.084499
H  -0.118441  -1.389057  -0.803970
