14
butane_opt
C  -3.957567   0.278795   0.035650
C  -2.696450  -0.636642   0.011495
H  -4.859063  -0.276300   0.000862
H  -4.020657   0.804227  -0.790234
H  -3.988982   1.029810   0.951384
C  -1.389274   0.175990   0.000326
H  -2.734465  -1.343270  -0.870973
H  -2.707422  -1.233061   0.882446
C  -0.158276  -0.678928   0.049382
H  -1.360078   0.824110   0.790905
H  -1.359924   0.806241  -0.899567
H  -0.112484  -1.427856   1.029829
H   0.720856  -0.130995  -0.058610
H  -0.181230  -1.195285  -0.730182
