butane_opt
 OpenBabel08242015403D

 14 13  0  0  0  0  0  0  0  0999 V2000
   -3.9323    0.2709    0.0435 C   0  0  0  0  0  0  0  0  0  0  0  0
   -2.6884   -0.6214   -0.0023 C   0  0  0  0  0  0  0  0  0  0  0  0
   -4.8268   -0.2794    0.0295 H   0  0  0  0  0  0  0  0  0  0  0  0
   -4.0042    0.8472   -0.7981 H   0  0  0  0  0  0  0  0  0  0  0  0
   -3.9693    1.0009    0.9479 H   0  0  0  0  0  0  0  0  0  0  0  0
   -1.4032    0.1690   -0.0000 C   0  0  0  0  0  0  0  0  0  0  0  0
   -2.7202   -1.3820   -0.8956 H   0  0  0  0  0  0  0  0  0  0  0  0
   -2.7466   -1.2189    0.8658 H   0  0  0  0  0  0  0  0  0  0  0  0
   -0.1713   -0.6826    0.0618 C   0  0  0  0  0  0  0  0  0  0  0  0
   -1.4066    0.8109    0.8289 H   0  0  0  0  0  0  0  0  0  0  0  0
   -1.3563    0.8578   -0.9206 H   0  0  0  0  0  0  0  0  0  0  0  0
   -0.1474   -1.4254    1.0333 H   0  0  0  0  0  0  0  0  0  0  0  0
    0.7300   -0.0791   -0.1538 H   0  0  0  0  0  0  0  0  0  0  0  0
   -0.2345   -1.2275   -0.7162 H   0  0  0  0  0  0  0  0  0  0  0  0
  1  5  1  0  0  0  0
  2  6  1  0  0  0  0
  2  1  1  0  0  0  0
  2  8  1  0  0  0  0
  3  1  1  0  0  0  0
  4  1  1  0  0  0  0
  6  9  1  0  0  0  0
  6 10  1  0  0  0  0
  7  2  1  0  0  0  0
  9 12  1  0  0  0  0
 11  6  1  0  0  0  0
 13  9  1  0  0  0  0
 14  9  1  0  0  0  0
M  END
$$$$
