14
butane_opt
C  -3.934556   0.269101   0.006752
C  -2.704949  -0.624763   0.054970
H  -4.819004  -0.290147  -0.081849
H  -3.924148   0.818855  -0.841465
H  -4.031591   1.006035   0.906097
C  -1.401250   0.177126   0.020010
H  -2.705286  -1.236338  -0.770987
H  -2.677422  -1.285834   0.967414
C  -0.169542  -0.687094   0.024835
H  -1.381352   0.820780   0.842722
H  -1.375125   0.837838  -0.890560
H  -0.140607  -1.265967   0.910661
H   0.749417  -0.099867  -0.020623
H  -0.194188  -1.393342  -0.861236
