butane_opt
 OpenBabel08242015403D

 14 13  0  0  0  0  0  0  0  0999 V2000
   -3.9535    0.2706    0.0445 C   0  0  0  0  0  0  0  0  0  0  0  0
   -2.7140   -0.6267    0.0058 C   0  0  0  0  0  0  0  0  0  0  0  0
   -4.8083   -0.2708    0.1668 H   0  0  0  0  0  0  0  0  0  0  0  0
   -4.0451    0.9633   -0.9233 H   0  0  0  0  0  0  0  0  0  0  0  0
   -3.9211    0.8724    0.8636 H   0  0  0  0  0  0  0  0  0  0  0  0
   -1.3946    0.1767    0.0005 C   0  0  0  0  0  0  0  0  0  0  0  0
   -2.7407   -1.3656   -0.8924 H   0  0  0  0  0  0  0  0  0  0  0  0
   -2.6921   -1.2063    0.8521 H   0  0  0  0  0  0  0  0  0  0  0  0
   -0.1518   -0.6881    0.0503 C   0  0  0  0  0  0  0  0  0  0  0  0
   -1.3526    0.8487    0.8478 H   0  0  0  0  0  0  0  0  0  0  0  0
   -1.3974    0.8440   -0.9523 H   0  0  0  0  0  0  0  0  0  0  0  0
   -0.1508   -1.3076    0.9661 H   0  0  0  0  0  0  0  0  0  0  0  0
    0.7588   -0.1017    0.0876 H   0  0  0  0  0  0  0  0  0  0  0  0
   -0.1170   -1.3265   -0.7861 H   0  0  0  0  0  0  0  0  0  0  0  0
  1  3  1  0  0  0  0
  1  5  1  0  0  0  0
  2  1  1  0  0  0  0
  2  8  1  0  0  0  0
  4  1  1  0  0  0  0
  6  2  1  0  0  0  0
  6  9  1  0  0  0  0
  6 10  1  0  0  0  0
  7  2  1  0  0  0  0
  9 13  1  0  0  0  0
  9 12  1  0  0  0  0
 11  6  1  0  0  0  0
 14  9  1  0  0  0  0
M  END
$$$$
