butane_opt
 OpenBabel08242015403D

 14 13  0  0  0  0  0  0  0  0999 V2000
   -3.9509    0.2660   -0.0126 C   0  0  0  0  0  0  0  0  0  0  0  0
   -2.7144   -0.6136    0.0615 C   0  0  0  0  0  0  0  0  0  0  0  0
   -4.8838   -0.3579    0.0363 H   0  0  0  0  0  0  0  0  0  0  0  0
   -3.9460    0.9276   -0.9335 H   0  0  0  0  0  0  0  0  0  0  0  0
   -3.9583    0.8543    0.7929 H   0  0  0  0  0  0  0  0  0  0  0  0
   -1.4028    0.1940    0.0506 C   0  0  0  0  0  0  0  0  0  0  0  0
   -2.6674   -1.2589   -0.7468 H   0  0  0  0  0  0  0  0  0  0  0  0
   -2.7620   -1.2785    0.9737 H   0  0  0  0  0  0  0  0  0  0  0  0
   -0.1510   -0.7066   -0.0028 C   0  0  0  0  0  0  0  0  0  0  0  0
   -1.3164    0.9292    0.9647 H   0  0  0  0  0  0  0  0  0  0  0  0
   -1.4160    0.7990   -0.7917 H   0  0  0  0  0  0  0  0  0  0  0  0
   -0.0769   -1.3083    0.8927 H   0  0  0  0  0  0  0  0  0  0  0  0
    0.7514   -0.1088   -0.0591 H   0  0  0  0  0  0  0  0  0  0  0  0
   -0.1196   -1.3514   -0.8570 H   0  0  0  0  0  0  0  0  0  0  0  0
  1  3  1  0  0  0  0
  1  2  1  0  0  0  0
  1  5  1  0  0  0  0
  2  8  1  0  0  0  0
  4  1  1  0  0  0  0
  6  2  1  0  0  0  0
  6 10  1  0  0  0  0
  7  2  1  0  0  0  0
  9  6  1  0  0  0  0
  9 12  1  0  0  0  0
 11  6  1  0  0  0  0
 13  9  1  0  0  0  0
 14  9  1  0  0  0  0
M  END
$$$$
