14
butane_opt
C  -3.932724   0.251152  -0.001905
C  -2.706305  -0.604822   0.071650
H  -4.857381  -0.376293  -0.081036
H  -3.866811   0.839365  -0.898434
H  -4.030864   0.981158   0.866666
C  -1.414963   0.193246   0.031723
H  -2.670537  -1.246315  -0.747010
H  -2.739037  -1.263700   1.002915
C  -0.163540  -0.700372   0.010107
H  -1.401949   0.892610   0.874923
H  -1.389017   0.868191  -0.888330
H  -0.032810  -1.291198   0.880295
H   0.718305  -0.120817   0.002043
H  -0.140241  -1.439265  -0.908046
