butane_opt
 OpenBabel08242015403D

 14 13  0  0  0  0  0  0  0  0999 V2000
   -3.9250    0.2554    0.0373 C   0  0  0  0  0  0  0  0  0  0  0  0
   -2.6958   -0.6093    0.0248 C   0  0  0  0  0  0  0  0  0  0  0  0
   -4.8482   -0.3587   -0.0229 H   0  0  0  0  0  0  0  0  0  0  0  0
   -3.8990    0.7844   -0.8012 H   0  0  0  0  0  0  0  0  0  0  0  0
   -3.9969    1.0379    0.9631 H   0  0  0  0  0  0  0  0  0  0  0  0
   -1.4200    0.1961   -0.0157 C   0  0  0  0  0  0  0  0  0  0  0  0
   -2.7379   -1.3260   -0.8583 H   0  0  0  0  0  0  0  0  0  0  0  0
   -2.7353   -1.2194    0.8990 H   0  0  0  0  0  0  0  0  0  0  0  0
   -0.1589   -0.6999    0.0588 C   0  0  0  0  0  0  0  0  0  0  0  0
   -1.4471    0.8241    0.8308 H   0  0  0  0  0  0  0  0  0  0  0  0
   -1.3758    0.8868   -0.9618 H   0  0  0  0  0  0  0  0  0  0  0  0
   -0.1197   -1.3437    0.9554 H   0  0  0  0  0  0  0  0  0  0  0  0
    0.7274   -0.1394   -0.0400 H   0  0  0  0  0  0  0  0  0  0  0  0
   -0.1873   -1.3282   -0.7697 H   0  0  0  0  0  0  0  0  0  0  0  0
  1  5  1  0  0  0  0
  2  1  1  0  0  0  0
  2  8  1  0  0  0  0
  3  1  1  0  0  0  0
  4  1  1  0  0  0  0
  6  2  1  0  0  0  0
  6  9  1  0  0  0  0
  6 10  1  0  0  0  0
  7  2  1  0  0  0  0
  9 12  1  0  0  0  0
 11  6  1  0  0  0  0
 13  9  1  0  0  0  0
 14  9  1  0  0  0  0
M  END
$$$$
