butane_opt
 OpenBabel08242015403D

 14 13  0  0  0  0  0  0  0  0999 V2000
   -3.9303    0.2547   -0.0083 C   0  0  0  0  0  0  0  0  0  0  0  0
   -2.7018   -0.6113    0.0807 C   0  0  0  0  0  0  0  0  0  0  0  0
   -4.8644   -0.3229   -0.0100 H   0  0  0  0  0  0  0  0  0  0  0  0
   -3.8603    0.9058   -0.9359 H   0  0  0  0  0  0  0  0  0  0  0  0
   -3.9820    0.9080    0.8543 H   0  0  0  0  0  0  0  0  0  0  0  0
   -1.4051    0.1914    0.0307 C   0  0  0  0  0  0  0  0  0  0  0  0
   -2.7102   -1.2354   -0.7611 H   0  0  0  0  0  0  0  0  0  0  0  0
   -2.7423   -1.2486    0.9822 H   0  0  0  0  0  0  0  0  0  0  0  0
   -0.1694   -0.7015    0.0046 C   0  0  0  0  0  0  0  0  0  0  0  0
   -1.4304    0.8878    0.8963 H   0  0  0  0  0  0  0  0  0  0  0  0
   -1.4086    0.8523   -0.8778 H   0  0  0  0  0  0  0  0  0  0  0  0
   -0.1495   -1.2256    0.8436 H   0  0  0  0  0  0  0  0  0  0  0  0
    0.7388   -0.1053    0.0620 H   0  0  0  0  0  0  0  0  0  0  0  0
   -0.1352   -1.4970   -0.9225 H   0  0  0  0  0  0  0  0  0  0  0  0
  1  2  1  0  0  0  0
  1  5  1  0  0  0  0
  2  8  1  0  0  0  0
  3  1  1  0  0  0  0
  4  1  1  0  0  0  0
  6  2  1  0  0  0  0
  6 10  1  0  0  0  0
  7  2  1  0  0  0  0
  9  6  1  0  0  0  0
  9 13  1  0  0  0  0
  9 12  1  0  0  0  0
 11  6  1  0  0  0  0
 14  9  1  0  0  0  0
M  END
$$$$
