14
butane_opt
C  -3.944695   0.280176   0.039745
C  -2.692403  -0.638515   0.022993
H  -4.863972  -0.331944  -0.122323
H  -3.920777   0.768774  -0.764494
H  -4.005060   1.087517   0.982167
C  -1.396088   0.179987  -0.014501
H  -2.718892  -1.263017  -0.810734
H  -2.723190  -1.274649   0.933463
C  -0.176243  -0.689023   0.051523
H  -1.417247   0.819103   0.797323
H  -1.330899   0.830867  -0.931693
H  -0.129282  -1.315381   0.966090
H   0.730378  -0.086173  -0.051333
H  -0.135629  -1.301081  -0.745057
