14
butane_opt
C  -3.961465   0.272954  -0.009464
C  -2.699387  -0.629999   0.076143
H  -4.843896  -0.285076  -0.066917
H  -3.926635   0.895690  -0.913907
H  -4.012912   0.969932   0.832512
C  -1.392768   0.179188   0.047635
H  -2.641621  -1.277750  -0.771319
H  -2.777906  -1.259021   0.984813
C  -0.159191  -0.693572  -0.001689
H  -1.322648   0.819018   0.892776
H  -1.402088   0.801109  -0.829959
H  -0.130596  -1.277628   0.872795
H   0.792822  -0.054657  -0.042021
H  -0.207679  -1.340833  -0.865344
