butane_opt
 OpenBabel08242015403D

 14 13  0  0  0  0  0  0  0  0999 V2000
   -3.9509    0.2587   -0.0138 C   0  0  0  0  0  0  0  0  0  0  0  0
   -2.7092   -0.6113    0.0661 C   0  0  0  0  0  0  0  0  0  0  0  0
   -4.8469   -0.3528    0.0568 H   0  0  0  0  0  0  0  0  0  0  0  0
   -3.9225    0.9181   -0.9706 H   0  0  0  0  0  0  0  0  0  0  0  0
   -3.9660    0.8896    0.8024 H   0  0  0  0  0  0  0  0  0  0  0  0
   -1.4078    0.1989    0.0475 C   0  0  0  0  0  0  0  0  0  0  0  0
   -2.6681   -1.3062   -0.7816 H   0  0  0  0  0  0  0  0  0  0  0  0
   -2.7470   -1.2835    0.9709 H   0  0  0  0  0  0  0  0  0  0  0  0
   -0.1452   -0.7009   -0.0008 C   0  0  0  0  0  0  0  0  0  0  0  0
   -1.3619    0.9654    0.9711 H   0  0  0  0  0  0  0  0  0  0  0  0
   -1.4497    0.7558   -0.7721 H   0  0  0  0  0  0  0  0  0  0  0  0
   -0.0590   -1.3482    0.9096 H   0  0  0  0  0  0  0  0  0  0  0  0
    0.7304   -0.1424   -0.1014 H   0  0  0  0  0  0  0  0  0  0  0  0
   -0.1743   -1.3086   -0.8280 H   0  0  0  0  0  0  0  0  0  0  0  0
  1  3  1  0  0  0  0
  1  2  1  0  0  0  0
  1  5  1  0  0  0  0
  2  8  1  0  0  0  0
  4  1  1  0  0  0  0
  6  2  1  0  0  0  0
  6 10  1  0  0  0  0
  7  2  1  0  0  0  0
  9  6  1  0  0  0  0
  9 12  1  0  0  0  0
 11  6  1  0  0  0  0
 13  9  1  0  0  0  0
 14  9  1  0  0  0  0
M  END
$$$$
