butane_opt
 OpenBabel08242015403D

 14 13  0  0  0  0  0  0  0  0999 V2000
   -3.9477    0.2769    0.0326 C   0  0  0  0  0  0  0  0  0  0  0  0
   -2.6905   -0.6325    0.0148 C   0  0  0  0  0  0  0  0  0  0  0  0
   -4.8338   -0.3114   -0.0166 H   0  0  0  0  0  0  0  0  0  0  0  0
   -4.0000    0.8283   -0.8490 H   0  0  0  0  0  0  0  0  0  0  0  0
   -3.9458    0.9733    0.9077 H   0  0  0  0  0  0  0  0  0  0  0  0
   -1.4063    0.1753    0.0082 C   0  0  0  0  0  0  0  0  0  0  0  0
   -2.7022   -1.3079   -0.8436 H   0  0  0  0  0  0  0  0  0  0  0  0
   -2.6331   -1.2679    0.9257 H   0  0  0  0  0  0  0  0  0  0  0  0
   -0.1755   -0.6853    0.0399 C   0  0  0  0  0  0  0  0  0  0  0  0
   -1.3876    0.8938    0.8971 H   0  0  0  0  0  0  0  0  0  0  0  0
   -1.3546    0.8174   -0.8984 H   0  0  0  0  0  0  0  0  0  0  0  0
   -0.1260   -1.3959    1.0102 H   0  0  0  0  0  0  0  0  0  0  0  0
    0.7633   -0.0802   -0.0867 H   0  0  0  0  0  0  0  0  0  0  0  0
   -0.1708   -1.2285   -0.7463 H   0  0  0  0  0  0  0  0  0  0  0  0
  1  5  1  0  0  0  0
  2  1  1  0  0  0  0
  2  8  1  0  0  0  0
  3  1  1  0  0  0  0
  4  1  1  0  0  0  0
  6  2  1  0  0  0  0
  6  9  1  0  0  0  0
  6 10  1  0  0  0  0
  7  2  1  0  0  0  0
  9 12  1  0  0  0  0
 11  6  1  0  0  0  0
 13  9  1  0  0  0  0
 14  9  1  0  0  0  0
M  END
$$$$
