butane_opt
 OpenBabel08242015403D

 14 13  0  0  0  0  0  0  0  0999 V2000
   -3.9466    0.2514    0.0276 C   0  0  0  0  0  0  0  0  0  0  0  0
   -2.7139   -0.6019    0.0207 C   0  0  0  0  0  0  0  0  0  0  0  0
   -4.8538   -0.3557    0.0394 H   0  0  0  0  0  0  0  0  0  0  0  0
   -4.0230    0.9038   -0.9164 H   0  0  0  0  0  0  0  0  0  0  0  0
   -3.9300    0.9393    0.8942 H   0  0  0  0  0  0  0  0  0  0  0  0
   -1.4039    0.1958    0.0135 C   0  0  0  0  0  0  0  0  0  0  0  0
   -2.7353   -1.3127   -0.8388 H   0  0  0  0  0  0  0  0  0  0  0  0
   -2.7283   -1.2166    0.9067 H   0  0  0  0  0  0  0  0  0  0  0  0
   -0.1381   -0.7048    0.0421 C   0  0  0  0  0  0  0  0  0  0  0  0
   -1.4229    0.8971    0.8908 H   0  0  0  0  0  0  0  0  0  0  0  0
   -1.3571    0.8060   -0.8815 H   0  0  0  0  0  0  0  0  0  0  0  0
   -0.0750   -1.3932    0.9741 H   0  0  0  0  0  0  0  0  0  0  0  0
    0.7396   -0.1259   -0.0996 H   0  0  0  0  0  0  0  0  0  0  0  0
   -0.1957   -1.2995   -0.7763 H   0  0  0  0  0  0  0  0  0  0  0  0
  1  3  1  0  0  0  0
  1  5  1  0  0  0  0
  2  1  1  0  0  0  0
  2  8  1  0  0  0  0
  4  1  1  0  0  0  0
  6  2  1  0  0  0  0
  6  9  1  0  0  0  0
  6 10  1  0  0  0  0
  7  2  1  0  0  0  0
  9 12  1  0  0  0  0
 11  6  1  0  0  0  0
 13  9  1  0  0  0  0
 14  9  1  0  0  0  0
M  END
$$$$
