butane_opt
 OpenBabel08242015403D

 14 13  0  0  0  0  0  0  0  0999 V2000
   -3.9388    0.2778    0.0054 C   0  0  0  0  0  0  0  0  0  0  0  0
   -2.6976   -0.6281    0.0379 C   0  0  0  0  0  0  0  0  0  0  0  0
   -4.8267   -0.3051    0.0940 H   0  0  0  0  0  0  0  0  0  0  0  0
   -4.0453    0.9210   -0.9108 H   0  0  0  0  0  0  0  0  0  0  0  0
   -3.9077    0.8518    0.8233 H   0  0  0  0  0  0  0  0  0  0  0  0
   -1.4051    0.1776    0.0253 C   0  0  0  0  0  0  0  0  0  0  0  0
   -2.6793   -1.2716   -0.7800 H   0  0  0  0  0  0  0  0  0  0  0  0
   -2.6974   -1.2917    0.9565 H   0  0  0  0  0  0  0  0  0  0  0  0
   -0.1644   -0.6849    0.0253 C   0  0  0  0  0  0  0  0  0  0  0  0
   -1.3832    0.8833    0.9038 H   0  0  0  0  0  0  0  0  0  0  0  0
   -1.4303    0.7580   -0.8568 H   0  0  0  0  0  0  0  0  0  0  0  0
   -0.1485   -1.2524    0.9221 H   0  0  0  0  0  0  0  0  0  0  0  0
    0.7598   -0.0765    0.0123 H   0  0  0  0  0  0  0  0  0  0  0  0
   -0.2021   -1.3902   -0.8629 H   0  0  0  0  0  0  0  0  0  0  0  0
  1  2  1  0  0  0  0
  1  3  1  0  0  0  0
  1  5  1  0  0  0  0
  2  8  1  0  0  0  0
  4  1  1  0  0  0  0
  6  2  1  0  0  0  0
  6 10  1  0  0  0  0
  7  2  1  0  0  0  0
  9  6  1  0  0  0  0
  9 12  1  0  0  0  0
 11  6  1  0  0  0  0
 13  9  1  0  0  0  0
 14  9  1  0  0  0  0
M  END
$$$$
