butane_opt
 OpenBabel08242015403D

 14 13  0  0  0  0  0  0  0  0999 V2000
   -3.9351    0.2706    0.0266 C   0  0  0  0  0  0  0  0  0  0  0  0
   -2.6939   -0.6293    0.0235 C   0  0  0  0  0  0  0  0  0  0  0  0
   -4.7929   -0.2872    0.0761 H   0  0  0  0  0  0  0  0  0  0  0  0
   -4.0272    0.8672   -0.8337 H   0  0  0  0  0  0  0  0  0  0  0  0
   -3.9314    0.9903    0.9136 H   0  0  0  0  0  0  0  0  0  0  0  0
   -1.4097    0.1672   -0.0068 C   0  0  0  0  0  0  0  0  0  0  0  0
   -2.6854   -1.2748   -0.8008 H   0  0  0  0  0  0  0  0  0  0  0  0
   -2.6787   -1.2867    0.9419 H   0  0  0  0  0  0  0  0  0  0  0  0
   -0.1716   -0.6777    0.0406 C   0  0  0  0  0  0  0  0  0  0  0  0
   -1.4142    0.8300    0.8537 H   0  0  0  0  0  0  0  0  0  0  0  0
   -1.3835    0.8415   -0.9424 H   0  0  0  0  0  0  0  0  0  0  0  0
   -0.2211   -1.2691    0.9153 H   0  0  0  0  0  0  0  0  0  0  0  0
    0.7617   -0.0887    0.1502 H   0  0  0  0  0  0  0  0  0  0  0  0
   -0.1340   -1.3577   -0.8364 H   0  0  0  0  0  0  0  0  0  0  0  0
  1  3  1  0  0  0  0
  1  5  1  0  0  0  0
  2  1  1  0  0  0  0
  2  8  1  0  0  0  0
  4  1  1  0  0  0  0
  6  2  1  0  0  0  0
  6  9  1  0  0  0  0
  6 10  1  0  0  0  0
  7  2  1  0  0  0  0
  9 13  1  0  0  0  0
  9 12  1  0  0  0  0
 11  6  1  0  0  0  0
 14  9  1  0  0  0  0
M  END
$$$$
