14
butane_opt
C  -3.939092   0.270416   0.013572
C  -2.687602  -0.615594   0.034003
H  -4.869958  -0.319989   0.126848
H  -4.066297   1.004568  -0.934568
H  -3.943657   0.831798   0.814672
C  -1.400348   0.165468   0.029155
H  -2.699178  -1.297974  -0.824817
H  -2.710579  -1.261751   0.956779
C  -0.168299  -0.683844   0.023716
H  -1.446845   0.855200   0.869205
H  -1.368279   0.777487  -0.874656
H  -0.172048  -1.239050   0.880247
H   0.775568  -0.065910   0.062184
H  -0.174457  -1.389391  -0.863205
