butane_opt
 OpenBabel08242015403D

 14 13  0  0  0  0  0  0  0  0999 V2000
   -3.9349    0.2517    0.0537 C   0  0  0  0  0  0  0  0  0  0  0  0
   -2.7036   -0.5941   -0.0021 C   0  0  0  0  0  0  0  0  0  0  0  0
   -4.8444   -0.3365    0.1422 H   0  0  0  0  0  0  0  0  0  0  0  0
   -3.9995    0.9311   -0.8469 H   0  0  0  0  0  0  0  0  0  0  0  0
   -3.8861    0.8650    0.8849 H   0  0  0  0  0  0  0  0  0  0  0  0
   -1.4092    0.1852   -0.0301 C   0  0  0  0  0  0  0  0  0  0  0  0
   -2.7626   -1.2898   -0.8743 H   0  0  0  0  0  0  0  0  0  0  0  0
   -2.6947   -1.1870    0.8539 H   0  0  0  0  0  0  0  0  0  0  0  0
   -0.1657   -0.7108    0.0659 C   0  0  0  0  0  0  0  0  0  0  0  0
   -1.4124    0.8917    0.8580 H   0  0  0  0  0  0  0  0  0  0  0  0
   -1.3547    0.7999   -0.9197 H   0  0  0  0  0  0  0  0  0  0  0  0
   -0.1586   -1.3118    0.9658 H   0  0  0  0  0  0  0  0  0  0  0  0
    0.7713   -0.0900    0.0882 H   0  0  0  0  0  0  0  0  0  0  0  0
   -0.1186   -1.3273   -0.7645 H   0  0  0  0  0  0  0  0  0  0  0  0
  1  3  1  0  0  0  0
  1  5  1  0  0  0  0
  2  1  1  0  0  0  0
  2  8  1  0  0  0  0
  4  1  1  0  0  0  0
  6  2  1  0  0  0  0
  6  9  1  0  0  0  0
  6 10  1  0  0  0  0
  7  2  1  0  0  0  0
  9 13  1  0  0  0  0
  9 12  1  0  0  0  0
 11  6  1  0  0  0  0
 14  9  1  0  0  0  0
M  END
$$$$
