butane_opt
 OpenBabel08242015403D

 14 13  0  0  0  0  0  0  0  0999 V2000
   -3.9490    0.2759   -0.0146 C   0  0  0  0  0  0  0  0  0  0  0  0
   -2.6981   -0.6307    0.0581 C   0  0  0  0  0  0  0  0  0  0  0  0
   -4.8513   -0.3155    0.0569 H   0  0  0  0  0  0  0  0  0  0  0  0
   -3.9708    0.8801   -0.9040 H   0  0  0  0  0  0  0  0  0  0  0  0
   -3.9867    0.9328    0.8380 H   0  0  0  0  0  0  0  0  0  0  0  0
   -1.3969    0.1831    0.0528 C   0  0  0  0  0  0  0  0  0  0  0  0
   -2.7202   -1.3021   -0.8142 H   0  0  0  0  0  0  0  0  0  0  0  0
   -2.7449   -1.2246    0.9242 H   0  0  0  0  0  0  0  0  0  0  0  0
   -0.1683   -0.6858    0.0110 C   0  0  0  0  0  0  0  0  0  0  0  0
   -1.3360    0.8548    0.9085 H   0  0  0  0  0  0  0  0  0  0  0  0
   -1.4005    0.7837   -0.8151 H   0  0  0  0  0  0  0  0  0  0  0  0
   -0.0180   -1.4036    0.9439 H   0  0  0  0  0  0  0  0  0  0  0  0
    0.7301   -0.0704   -0.1492 H   0  0  0  0  0  0  0  0  0  0  0  0
   -0.1905   -1.3120   -0.8255 H   0  0  0  0  0  0  0  0  0  0  0  0
  1  3  1  0  0  0  0
  1  2  1  0  0  0  0
  1  5  1  0  0  0  0
  2  8  1  0  0  0  0
  4  1  1  0  0  0  0
  6  2  1  0  0  0  0
  6 10  1  0  0  0  0
  7  2  1  0  0  0  0
  9  6  1  0  0  0  0
  9 12  1  0  0  0  0
 11  6  1  0  0  0  0
 13  9  1  0  0  0  0
 14  9  1  0  0  0  0
M  END
$$$$
