14
butane_opt
C  -3.937432   0.264332   0.044889
C  -2.691753  -0.614834   0.025391
H  -4.855134  -0.338344  -0.068527
H  -3.913223   0.762077  -0.808559
H  -3.996424   0.968655   0.926229
C  -1.405151   0.195778  -0.018020
H  -2.737781  -1.308921  -0.825650
H  -2.652122  -1.237963   0.901559
C  -0.169163  -0.694287   0.057002
H  -1.421143   0.827046   0.795777
H  -1.415050   0.876059  -0.949334
H  -0.182147  -1.322599   0.968054
H   0.719956  -0.128819   0.017925
H  -0.126313  -1.387096  -0.825840
