14
butane_opt
C  -3.951363   0.251711   0.027642
C  -2.710794  -0.595635   0.019625
H  -4.860621  -0.326163   0.047757
H  -4.007327   0.814957  -0.849277
H  -3.945191   0.942585   0.904985
C  -1.404088   0.197114   0.011508
H  -2.739352  -1.315033  -0.863081
H  -2.728851  -1.190563   0.878887
C  -0.141248  -0.706025   0.048521
H  -1.347912   0.840745   0.817484
H  -1.399504   0.828452  -0.899703
H  -0.111983  -1.389986   0.984738
H   0.762565  -0.144331  -0.100786
H  -0.145326  -1.297426  -0.755543
