14
butane_opt
C  -3.944868   0.261599   0.000195
C  -2.692184  -0.604305   0.045607
H  -4.852473  -0.322584   0.044032
H  -3.944998   0.919143  -0.928879
H  -3.927998   0.921077   0.845809
C  -1.403952   0.173312   0.040019
H  -2.718119  -1.300078  -0.807452
H  -2.712986  -1.263273   0.954887
C  -0.172601  -0.695069   0.008000
H  -1.333134   0.905378   0.944688
H  -1.406881   0.769814  -0.815220
H  -0.154250  -1.347260   0.963429
H   0.743419  -0.105561  -0.097080
H  -0.153174  -1.269618  -0.792483
