14
butane_opt
C  -3.944439   0.255210   0.004861
C  -2.719028  -0.603041   0.065307
H  -4.845104  -0.342783  -0.069227
H  -3.907934   0.875367  -0.893772
H  -3.994316   0.921508   0.841265
C  -1.406531   0.199538   0.022826
H  -2.742759  -1.271942  -0.798895
H  -2.764953  -1.232086   0.970931
C  -0.142612  -0.710231   0.015252
H  -1.377663   0.867322   0.891402
H  -1.403990   0.792086  -0.824788
H  -0.057016  -1.290162   0.892935
H   0.759055  -0.120382  -0.047997
H  -0.136644  -1.367915  -0.827060
