14
butane_opt
C  -3.935898   0.252835  -0.015169
C  -2.696128  -0.605996   0.054073
H  -4.861697  -0.342208   0.022393
H  -3.977610   0.893137  -0.917375
H  -3.954035   0.913124   0.842427
C  -1.408588   0.195726   0.061096
H  -2.662612  -1.253637  -0.797600
H  -2.701535  -1.269331   0.976137
C  -0.174683  -0.697343  -0.001589
H  -1.366154   0.869713   0.913296
H  -1.426340   0.794641  -0.791077
H  -0.021840  -1.391649   0.952407
H   0.742532  -0.114956  -0.106968
H  -0.205123  -1.313652  -0.828576
