14
butane_opt
C  -3.922787   0.253599  -0.018018
C  -2.710399  -0.606465   0.068455
H  -4.841165  -0.382024   0.018704
H  -3.881784   0.928173  -0.959047
H  -3.985719   0.924556   0.820694
C  -1.418865   0.202164   0.058465
H  -2.727327  -1.319790  -0.786646
H  -2.704843  -1.231002   0.966583
C  -0.157393  -0.705829  -0.000183
H  -1.370620   0.909786   0.947893
H  -1.431775   0.804980  -0.820344
H  -0.041697  -1.360446   0.931480
H   0.735826  -0.125420  -0.139843
H  -0.253817  -1.341832  -0.843362
