14
butane_opt
C  -3.949589   0.274307  -0.010950
C  -2.675686  -0.624940   0.083687
H  -4.877446  -0.325219  -0.107930
H  -3.861646   0.835467  -0.895666
H  -4.089973   1.012870   0.894494
C  -1.402007   0.162481   0.029927
H  -2.697107  -1.233676  -0.747345
H  -2.703792  -1.310799   1.017847
C  -0.179425  -0.678743  -0.003611
H  -1.379073   0.901226   0.926645
H  -1.378223   0.778701  -0.853062
H  -0.150736  -1.289551   0.877740
H   0.768951  -0.062873  -0.003257
H  -0.176100  -1.375727  -0.854873
