14
butane_opt
C  -3.952734   0.281461   0.013439
C  -2.703173  -0.629260   0.045107
H  -4.900461  -0.340331   0.016851
H  -3.961736   0.875543  -0.876076
H  -3.993634   0.942707   0.894943
C  -1.391193   0.173664   0.015111
H  -2.680639  -1.286676  -0.789327
H  -2.726090  -1.271656   0.955544
C  -0.160133  -0.686204   0.030128
H  -1.350191   0.844021   0.839272
H  -1.401802   0.847485  -0.914682
H  -0.175113  -1.261739   0.901600
H   0.762238  -0.071157   0.044021
H  -0.112114  -1.430890  -0.879760
