butane_opt
 OpenBabel08242015403D

 14 13  0  0  0  0  0  0  0  0999 V2000
   -3.9514    0.2537    0.0134 C   0  0  0  0  0  0  0  0  0  0  0  0
   -2.7129   -0.6001    0.0520 C   0  0  0  0  0  0  0  0  0  0  0  0
   -4.8803   -0.3568    0.0647 H   0  0  0  0  0  0  0  0  0  0  0  0
   -3.9728    0.8819   -0.8780 H   0  0  0  0  0  0  0  0  0  0  0  0
   -3.9334    0.8817    0.8603 H   0  0  0  0  0  0  0  0  0  0  0  0
   -1.4022    0.1974    0.0079 C   0  0  0  0  0  0  0  0  0  0  0  0
   -2.7008   -1.2604   -0.7814 H   0  0  0  0  0  0  0  0  0  0  0  0
   -2.7078   -1.2434    0.9299 H   0  0  0  0  0  0  0  0  0  0  0  0
   -0.1518   -0.7038    0.0261 C   0  0  0  0  0  0  0  0  0  0  0  0
   -1.4050    0.8181    0.8243 H   0  0  0  0  0  0  0  0  0  0  0  0
   -1.3861    0.8720   -0.9123 H   0  0  0  0  0  0  0  0  0  0  0  0
   -0.1661   -1.1969    0.8421 H   0  0  0  0  0  0  0  0  0  0  0  0
    0.7434   -0.1402    0.1554 H   0  0  0  0  0  0  0  0  0  0  0  0
    0.0063   -1.4998   -0.8768 H   0  0  0  0  0  0  0  0  0  0  0  0
  1  2  1  0  0  0  0
  1  3  1  0  0  0  0
  1  5  1  0  0  0  0
  2  8  1  0  0  0  0
  4  1  1  0  0  0  0
  6  9  1  0  0  0  0
  6  2  1  0  0  0  0
  6 10  1  0  0  0  0
  7  2  1  0  0  0  0
  9 13  1  0  0  0  0
  9 12  1  0  0  0  0
 11  6  1  0  0  0  0
 14  9  1  0  0  0  0
M  END
$$$$
