14
butane_opt
C  -3.942669   0.255226   0.001990
C  -2.707247  -0.612490   0.065274
H  -4.887682  -0.388329  -0.109075
H  -3.934605   0.815433  -0.840783
H  -3.994276   1.006562   0.910318
C  -1.396316   0.207572   0.023629
H  -2.679440  -1.231421  -0.752983
H  -2.781152  -1.256100   0.991909
C  -0.158535  -0.706085   0.012910
H  -1.388368   0.874657   0.841325
H  -1.410687   0.850788  -0.892848
H  -0.106160  -1.325119   0.889846
H   0.730573  -0.157378   0.016504
H  -0.102648  -1.405970  -0.853555
