butane_opt
 OpenBabel08242015403D

 14 13  0  0  0  0  0  0  0  0999 V2000
   -3.9482    0.2517    0.0298 C   0  0  0  0  0  0  0  0  0  0  0  0
   -2.7044   -0.6065    0.0128 C   0  0  0  0  0  0  0  0  0  0  0  0
   -4.8454   -0.3084    0.1116 H   0  0  0  0  0  0  0  0  0  0  0  0
   -3.9834    0.8765   -0.8643 H   0  0  0  0  0  0  0  0  0  0  0  0
   -3.9149    0.9346    0.8916 H   0  0  0  0  0  0  0  0  0  0  0  0
   -1.4160    0.1878    0.0049 C   0  0  0  0  0  0  0  0  0  0  0  0
   -2.7257   -1.2609   -0.8314 H   0  0  0  0  0  0  0  0  0  0  0  0
   -2.7439   -1.2453    0.9153 H   0  0  0  0  0  0  0  0  0  0  0  0
   -0.1454   -0.7004    0.0457 C   0  0  0  0  0  0  0  0  0  0  0  0
   -1.3774    0.8675    0.8668 H   0  0  0  0  0  0  0  0  0  0  0  0
   -1.4048    0.8550   -0.9442 H   0  0  0  0  0  0  0  0  0  0  0  0
   -0.1265   -1.3014    0.9607 H   0  0  0  0  0  0  0  0  0  0  0  0
    0.7752   -0.1104    0.0309 H   0  0  0  0  0  0  0  0  0  0  0  0
   -0.1134   -1.3704   -0.8102 H   0  0  0  0  0  0  0  0  0  0  0  0
  1  3  1  0  0  0  0
  1  5  1  0  0  0  0
  2  1  1  0  0  0  0
  2  8  1  0  0  0  0
  4  1  1  0  0  0  0
  6  2  1  0  0  0  0
  6  9  1  0  0  0  0
  6 10  1  0  0  0  0
  7  2  1  0  0  0  0
  9 12  1  0  0  0  0
 11  6  1  0  0  0  0
 13  9  1  0  0  0  0
 14  9  1  0  0  0  0
M  END
$$$$
