14
butane_opt
C  -3.958161   0.271702   0.050150
C  -2.705237  -0.621838   0.020084
H  -4.852126  -0.326096  -0.029849
H  -3.933685   0.801133  -0.788962
H  -4.002082   0.968061   0.957243
C  -1.391750   0.188147  -0.026733
H  -2.741118  -1.325700  -0.845396
H  -2.654822  -1.197232   0.865048
C  -0.161762  -0.698667   0.057867
H  -1.423223   0.817297   0.792641
H  -1.333460   0.865561  -0.972515
H  -0.189621  -1.319192   0.957621
H   0.759769  -0.078750   0.052539
H  -0.055619  -1.346863  -0.764547
