butane_opt
 OpenBabel08242015403D

 14 13  0  0  0  0  0  0  0  0999 V2000
   -3.9592    0.2777    0.0415 C   0  0  0  0  0  0  0  0  0  0  0  0
   -2.6834   -0.6368    0.0311 C   0  0  0  0  0  0  0  0  0  0  0  0
   -4.8573   -0.2993   -0.1149 H   0  0  0  0  0  0  0  0  0  0  0  0
   -3.9399    0.8145   -0.7956 H   0  0  0  0  0  0  0  0  0  0  0  0
   -4.0351    1.0115    0.9474 H   0  0  0  0  0  0  0  0  0  0  0  0
   -1.3994    0.1837   -0.0201 C   0  0  0  0  0  0  0  0  0  0  0  0
   -2.7275   -1.3827   -0.8650 H   0  0  0  0  0  0  0  0  0  0  0  0
   -2.6886   -1.2475    0.9350 H   0  0  0  0  0  0  0  0  0  0  0  0
   -0.1606   -0.6785    0.0530 C   0  0  0  0  0  0  0  0  0  0  0  0
   -1.3796    0.8431    0.8288 H   0  0  0  0  0  0  0  0  0  0  0  0
   -1.3595    0.8198   -0.9187 H   0  0  0  0  0  0  0  0  0  0  0  0
   -0.1577   -1.3667    0.9749 H   0  0  0  0  0  0  0  0  0  0  0  0
    0.7286   -0.1134   -0.0415 H   0  0  0  0  0  0  0  0  0  0  0  0
   -0.1743   -1.3023   -0.7679 H   0  0  0  0  0  0  0  0  0  0  0  0
  1  5  1  0  0  0  0
  2  1  1  0  0  0  0
  2  8  1  0  0  0  0
  3  1  1  0  0  0  0
  4  1  1  0  0  0  0
  6  2  1  0  0  0  0
  6  9  1  0  0  0  0
  6 10  1  0  0  0  0
  7  2  1  0  0  0  0
  9 12  1  0  0  0  0
 11  6  1  0  0  0  0
 13  9  1  0  0  0  0
 14  9  1  0  0  0  0
M  END
$$$$
