14
butane_opt
C  -3.947327   0.256162  -0.011496
C  -2.713678  -0.614339   0.066066
H  -4.860463  -0.315590  -0.015570
H  -3.910852   0.905988  -0.933129
H  -4.011975   0.874680   0.798585
C  -1.410900   0.197893   0.051393
H  -2.723897  -1.242225  -0.760193
H  -2.713165  -1.281073   0.972145
C  -0.143549  -0.702932  -0.005487
H  -1.355284   0.952906   0.956470
H  -1.439139   0.792030  -0.790221
H  -0.030565  -1.333557   0.916913
H   0.763701  -0.128236  -0.076977
H  -0.158344  -1.341339  -0.836825
