14
butane_opt
C  -3.958385   0.269575   0.002740
C  -2.702768  -0.619889   0.060429
H  -4.866569  -0.331528   0.033089
H  -3.962773   0.923313  -0.900385
H  -3.980407   0.906471   0.847040
C  -1.396455   0.179557   0.015754
H  -2.725121  -1.261164  -0.770704
H  -2.728559  -1.249429   0.970675
C  -0.150479  -0.688898   0.025746
H  -1.341837   0.828755   0.849965
H  -1.380179   0.801219  -0.888350
H  -0.112734  -1.177237   0.828434
H   0.733298  -0.141354   0.102142
H  -0.158361  -1.458901  -0.899114
