butane_opt
 OpenBabel08242015403D

 14 13  0  0  0  0  0  0  0  0999 V2000
   -3.9530    0.2749    0.0075 C   0  0  0  0  0  0  0  0  0  0  0  0
   -2.6966   -0.6304    0.0713 C   0  0  0  0  0  0  0  0  0  0  0  0
   -4.8783   -0.3095   -0.1073 H   0  0  0  0  0  0  0  0  0  0  0  0
   -3.9618    0.8558   -0.8757 H   0  0  0  0  0  0  0  0  0  0  0  0
   -4.0693    0.9980    0.8670 H   0  0  0  0  0  0  0  0  0  0  0  0
   -1.3972    0.1707    0.0064 C   0  0  0  0  0  0  0  0  0  0  0  0
   -2.6782   -1.2825   -0.7459 H   0  0  0  0  0  0  0  0  0  0  0  0
   -2.6888   -1.2971    0.9735 H   0  0  0  0  0  0  0  0  0  0  0  0
   -0.1576   -0.6854    0.0177 C   0  0  0  0  0  0  0  0  0  0  0  0
   -1.3711    0.9178    0.9207 H   0  0  0  0  0  0  0  0  0  0  0  0
   -1.3773    0.7949   -0.8751 H   0  0  0  0  0  0  0  0  0  0  0  0
   -0.1707   -1.2768    0.8844 H   0  0  0  0  0  0  0  0  0  0  0  0
    0.7882   -0.0442    0.0163 H   0  0  0  0  0  0  0  0  0  0  0  0
   -0.1623   -1.3896   -0.8593 H   0  0  0  0  0  0  0  0  0  0  0  0
  1  2  1  0  0  0  0
  1  5  1  0  0  0  0
  2  8  1  0  0  0  0
  3  1  1  0  0  0  0
  4  1  1  0  0  0  0
  6  9  1  0  0  0  0
  6  2  1  0  0  0  0
  6 10  1  0  0  0  0
  7  2  1  0  0  0  0
  9 12  1  0  0  0  0
 11  6  1  0  0  0  0
 13  9  1  0  0  0  0
 14  9  1  0  0  0  0
M  END
$$$$
