butane_opt
 OpenBabel08242015403D

 14 13  0  0  0  0  0  0  0  0999 V2000
   -3.9523    0.2765    0.0373 C   0  0  0  0  0  0  0  0  0  0  0  0
   -2.7052   -0.6230    0.0023 C   0  0  0  0  0  0  0  0  0  0  0  0
   -4.8871   -0.3441    0.1707 H   0  0  0  0  0  0  0  0  0  0  0  0
   -4.1009    0.9939   -0.9174 H   0  0  0  0  0  0  0  0  0  0  0  0
   -3.9030    0.8891    0.8659 H   0  0  0  0  0  0  0  0  0  0  0  0
   -1.3954    0.1688   -0.0019 C   0  0  0  0  0  0  0  0  0  0  0  0
   -2.7673   -1.3229   -0.8516 H   0  0  0  0  0  0  0  0  0  0  0  0
   -2.6681   -1.2568    0.8854 H   0  0  0  0  0  0  0  0  0  0  0  0
   -0.1543   -0.6848    0.0561 C   0  0  0  0  0  0  0  0  0  0  0  0
   -1.3596    0.8864    0.8694 H   0  0  0  0  0  0  0  0  0  0  0  0
   -1.3293    0.7777   -0.9037 H   0  0  0  0  0  0  0  0  0  0  0  0
   -0.1292   -1.3156    0.9480 H   0  0  0  0  0  0  0  0  0  0  0  0
    0.7442   -0.0763    0.0426 H   0  0  0  0  0  0  0  0  0  0  0  0
   -0.1359   -1.3494   -0.8060 H   0  0  0  0  0  0  0  0  0  0  0  0
  1  3  1  0  0  0  0
  1  5  1  0  0  0  0
  2  1  1  0  0  0  0
  2  8  1  0  0  0  0
  4  1  1  0  0  0  0
  6  2  1  0  0  0  0
  6  9  1  0  0  0  0
  6 10  1  0  0  0  0
  7  2  1  0  0  0  0
  9 12  1  0  0  0  0
 11  6  1  0  0  0  0
 13  9  1  0  0  0  0
 14  9  1  0  0  0  0
M  END
$$$$
