14
butane_opt
C  -3.948251   0.256696  -0.005695
C  -2.718142  -0.607122   0.058410
H  -4.871971  -0.357198   0.000807
H  -3.988506   0.874659  -0.901740
H  -3.946302   0.932836   0.862980
C  -1.396949   0.197306   0.044186
H  -2.714572  -1.254038  -0.782022
H  -2.731293  -1.227719   0.918549
C  -0.150833  -0.703853   0.012776
H  -1.360029   0.843825   0.885182
H  -1.405327   0.833610  -0.872814
H  -0.027980  -1.359379   0.905538
H   0.728846  -0.110592  -0.042750
H  -0.136533  -1.366236  -0.846665
