butane_opt
 OpenBabel08242015403D

 14 13  0  0  0  0  0  0  0  0999 V2000
   -3.9436    0.2563    0.0059 C   0  0  0  0  0  0  0  0  0  0  0  0
   -2.7151   -0.6073    0.0569 C   0  0  0  0  0  0  0  0  0  0  0  0
   -4.8557   -0.3218    0.0216 H   0  0  0  0  0  0  0  0  0  0  0  0
   -3.9305    0.8823   -0.9006 H   0  0  0  0  0  0  0  0  0  0  0  0
   -3.9595    0.9207    0.8546 H   0  0  0  0  0  0  0  0  0  0  0  0
   -1.4017    0.1926    0.0102 C   0  0  0  0  0  0  0  0  0  0  0  0
   -2.7342   -1.2317   -0.7459 H   0  0  0  0  0  0  0  0  0  0  0  0
   -2.6795   -1.2999    0.9750 H   0  0  0  0  0  0  0  0  0  0  0  0
   -0.1557   -0.6997    0.0152 C   0  0  0  0  0  0  0  0  0  0  0  0
   -1.3657    0.8759    0.8903 H   0  0  0  0  0  0  0  0  0  0  0  0
   -1.3962    0.8115   -0.8569 H   0  0  0  0  0  0  0  0  0  0  0  0
   -0.1380   -1.2221    0.8782 H   0  0  0  0  0  0  0  0  0  0  0  0
    0.7178   -0.1624    0.1437 H   0  0  0  0  0  0  0  0  0  0  0  0
   -0.0857   -1.4346   -0.8889 H   0  0  0  0  0  0  0  0  0  0  0  0
  1  3  1  0  0  0  0
  1  2  1  0  0  0  0
  1  5  1  0  0  0  0
  2  8  1  0  0  0  0
  4  1  1  0  0  0  0
  6  9  1  0  0  0  0
  6  2  1  0  0  0  0
  6 10  1  0  0  0  0
  7  2  1  0  0  0  0
  9 13  1  0  0  0  0
  9 12  1  0  0  0  0
 11  6  1  0  0  0  0
 14  9  1  0  0  0  0
M  END
$$$$
