butane_opt
 OpenBabel08242015403D

 14 13  0  0  0  0  0  0  0  0999 V2000
   -3.9465    0.2561    0.0417 C   0  0  0  0  0  0  0  0  0  0  0  0
   -2.7071   -0.6076    0.0005 C   0  0  0  0  0  0  0  0  0  0  0  0
   -4.8943   -0.3463    0.0803 H   0  0  0  0  0  0  0  0  0  0  0  0
   -3.9880    0.8413   -0.8292 H   0  0  0  0  0  0  0  0  0  0  0  0
   -3.9423    0.9296    0.9232 H   0  0  0  0  0  0  0  0  0  0  0  0
   -1.3995    0.2033   -0.0040 C   0  0  0  0  0  0  0  0  0  0  0  0
   -2.7536   -1.3534   -0.8802 H   0  0  0  0  0  0  0  0  0  0  0  0
   -2.7542   -1.1780    0.8638 H   0  0  0  0  0  0  0  0  0  0  0  0
   -0.1482   -0.7038    0.0631 C   0  0  0  0  0  0  0  0  0  0  0  0
   -1.4112    0.8815    0.8346 H   0  0  0  0  0  0  0  0  0  0  0  0
   -1.3386    0.8643   -0.9180 H   0  0  0  0  0  0  0  0  0  0  0  0
   -0.0468   -1.4303    1.0138 H   0  0  0  0  0  0  0  0  0  0  0  0
    0.6975   -0.1863   -0.1072 H   0  0  0  0  0  0  0  0  0  0  0  0
   -0.1661   -1.2805   -0.7443 H   0  0  0  0  0  0  0  0  0  0  0  0
  1  3  1  0  0  0  0
  1  5  1  0  0  0  0
  2  1  1  0  0  0  0
  2  8  1  0  0  0  0
  4  1  1  0  0  0  0
  6  2  1  0  0  0  0
  6  9  1  0  0  0  0
  6 10  1  0  0  0  0
  7  2  1  0  0  0  0
  9 12  1  0  0  0  0
 11  6  1  0  0  0  0
 13  9  1  0  0  0  0
 14  9  1  0  0  0  0
M  END
$$$$
