14
butane_opt
C  -3.965648   0.273803  -0.007812
C  -2.710942  -0.627303   0.066084
H  -4.886342  -0.288916   0.105157
H  -3.957358   0.930304  -0.953044
H  -3.966954   0.899402   0.828189
C  -1.389652   0.173332   0.029053
H  -2.655216  -1.234996  -0.742186
H  -2.712766  -1.322916   1.016288
C  -0.151921  -0.688317   0.001635
H  -1.363802   0.912447   0.909533
H  -1.350044   0.801078  -0.875023
H  -0.195658  -1.183132   0.833174
H   0.765949  -0.088647   0.159870
H  -0.086715  -1.479471  -0.923845
