butane_opt
 OpenBabel08242015403D

 14 13  0  0  0  0  0  0  0  0999 V2000
   -3.9386    0.2664    0.0482 C   0  0  0  0  0  0  0  0  0  0  0  0
   -2.6985   -0.6208    0.0152 C   0  0  0  0  0  0  0  0  0  0  0  0
   -4.8372   -0.3356    0.0556 H   0  0  0  0  0  0  0  0  0  0  0  0
   -3.9595    0.8455   -0.8077 H   0  0  0  0  0  0  0  0  0  0  0  0
   -3.9180    1.0097    0.9512 H   0  0  0  0  0  0  0  0  0  0  0  0
   -1.4070    0.1873   -0.0430 C   0  0  0  0  0  0  0  0  0  0  0  0
   -2.7217   -1.3259   -0.8533 H   0  0  0  0  0  0  0  0  0  0  0  0
   -2.6844   -1.2462    0.9039 H   0  0  0  0  0  0  0  0  0  0  0  0
   -0.1719   -0.6991    0.0674 C   0  0  0  0  0  0  0  0  0  0  0  0
   -1.3523    0.8645    0.8329 H   0  0  0  0  0  0  0  0  0  0  0  0
   -1.3812    0.8321   -0.9486 H   0  0  0  0  0  0  0  0  0  0  0  0
   -0.2555   -1.2839    0.9445 H   0  0  0  0  0  0  0  0  0  0  0  0
    0.7283   -0.0916    0.1068 H   0  0  0  0  0  0  0  0  0  0  0  0
   -0.0497   -1.3473   -0.7943 H   0  0  0  0  0  0  0  0  0  0  0  0
  1  3  1  0  0  0  0
  1  5  1  0  0  0  0
  2  1  1  0  0  0  0
  2  8  1  0  0  0  0
  4  1  1  0  0  0  0
  6  2  1  0  0  0  0
  6  9  1  0  0  0  0
  6 10  1  0  0  0  0
  7  2  1  0  0  0  0
  9 13  1  0  0  0  0
  9 12  1  0  0  0  0
 11  6  1  0  0  0  0
 14  9  1  0  0  0  0
M  END
$$$$
