14
butane_opt
C  -3.936555   0.249303   0.034746
C  -2.699440  -0.597355   0.018925
H  -4.849467  -0.380525   0.042228
H  -3.929568   0.834265  -0.842029
H  -3.963304   0.969355   0.936777
C  -1.413892   0.204295  -0.002644
H  -2.710695  -1.304915  -0.875634
H  -2.731755  -1.226484   0.893557
C  -0.160179  -0.705818   0.056418
H  -1.403310   0.844692   0.798242
H  -1.354043   0.857701  -0.903200
H  -0.095552  -1.384272   0.970640
H   0.722250  -0.142843  -0.045350
H  -0.173440  -1.349443  -0.809064
