butane_opt
 OpenBabel08242015403D

 14 13  0  0  0  0  0  0  0  0999 V2000
   -3.9580    0.2531    0.0365 C   0  0  0  0  0  0  0  0  0  0  0  0
   -2.7020   -0.6045    0.0252 C   0  0  0  0  0  0  0  0  0  0  0  0
   -4.8936   -0.3760    0.0534 H   0  0  0  0  0  0  0  0  0  0  0  0
   -3.9627    0.8529   -0.8475 H   0  0  0  0  0  0  0  0  0  0  0  0
   -3.9617    0.9619    0.9185 H   0  0  0  0  0  0  0  0  0  0  0  0
   -1.4076    0.2055   -0.0206 C   0  0  0  0  0  0  0  0  0  0  0  0
   -2.7321   -1.2809   -0.8162 H   0  0  0  0  0  0  0  0  0  0  0  0
   -2.6982   -1.2332    0.9210 H   0  0  0  0  0  0  0  0  0  0  0  0
   -0.1393   -0.7038    0.0491 C   0  0  0  0  0  0  0  0  0  0  0  0
   -1.3516    0.8438    0.8228 H   0  0  0  0  0  0  0  0  0  0  0  0
   -1.4007    0.8045   -0.9153 H   0  0  0  0  0  0  0  0  0  0  0  0
   -0.2149   -1.3182    0.9301 H   0  0  0  0  0  0  0  0  0  0  0  0
    0.7438   -0.1324    0.1231 H   0  0  0  0  0  0  0  0  0  0  0  0
   -0.0578   -1.4050   -0.8279 H   0  0  0  0  0  0  0  0  0  0  0  0
  1  3  1  0  0  0  0
  1  5  1  0  0  0  0
  2  1  1  0  0  0  0
  2  8  1  0  0  0  0
  4  1  1  0  0  0  0
  6  2  1  0  0  0  0
  6  9  1  0  0  0  0
  6 10  1  0  0  0  0
  7  2  1  0  0  0  0
  9 13  1  0  0  0  0
  9 12  1  0  0  0  0
 11  6  1  0  0  0  0
 14  9  1  0  0  0  0
M  END
$$$$
