butane_opt
 OpenBabel08242015403D

 14 13  0  0  0  0  0  0  0  0999 V2000
   -3.9488    0.2706    0.0149 C   0  0  0  0  0  0  0  0  0  0  0  0
   -2.6871   -0.6263    0.0217 C   0  0  0  0  0  0  0  0  0  0  0  0
   -4.8280   -0.2679    0.2116 H   0  0  0  0  0  0  0  0  0  0  0  0
   -4.0266    0.9713   -0.9100 H   0  0  0  0  0  0  0  0  0  0  0  0
   -3.8985    0.8427    0.8238 H   0  0  0  0  0  0  0  0  0  0  0  0
   -1.4008    0.1667    0.0253 C   0  0  0  0  0  0  0  0  0  0  0  0
   -2.6761   -1.3017   -0.8434 H   0  0  0  0  0  0  0  0  0  0  0  0
   -2.6958   -1.2138    0.9043 H   0  0  0  0  0  0  0  0  0  0  0  0
   -0.1713   -0.6789    0.0375 C   0  0  0  0  0  0  0  0  0  0  0  0
   -1.3893    0.8200    0.8432 H   0  0  0  0  0  0  0  0  0  0  0  0
   -1.4344    0.8154   -0.8927 H   0  0  0  0  0  0  0  0  0  0  0  0
   -0.1747   -1.2644    0.9050 H   0  0  0  0  0  0  0  0  0  0  0  0
    0.7637   -0.0462    0.0449 H   0  0  0  0  0  0  0  0  0  0  0  0
   -0.1783   -1.4051   -0.8458 H   0  0  0  0  0  0  0  0  0  0  0  0
  1  2  1  0  0  0  0
  1  3  1  0  0  0  0
  1  5  1  0  0  0  0
  2  6  1  0  0  0  0
  2  8  1  0  0  0  0
  4  1  1  0  0  0  0
  6  9  1  0  0  0  0
  6 10  1  0  0  0  0
  7  2  1  0  0  0  0
  9 13  1  0  0  0  0
  9 12  1  0  0  0  0
 11  6  1  0  0  0  0
 14  9  1  0  0  0  0
M  END
$$$$
