14
butane_opt
C  -3.963939   0.273889   0.036781
C  -2.690019  -0.626903   0.013963
H  -4.854734  -0.293029   0.004027
H  -4.054834   0.833844  -0.830347
H  -3.962793   1.014755   0.936606
C  -1.394775   0.169316  -0.003736
H  -2.697147  -1.300025  -0.842949
H  -2.744024  -1.248233   0.912731
C  -0.158966  -0.683491   0.048396
H  -1.402851   0.830687   0.808995
H  -1.363247   0.779923  -0.885388
H  -0.114038  -1.367300   1.009866
H   0.793498  -0.041530  -0.037370
H  -0.139219  -1.265974  -0.767588
