14
butane_opt
C  -3.963049   0.280234  -0.006105
C  -2.691278  -0.640512   0.065266
H  -4.851269  -0.294395   0.021994
H  -4.002999   0.930378  -0.897583
H  -3.993232   0.890847   0.815465
C  -1.398182   0.179956   0.039289
H  -2.706937  -1.312199  -0.784828
H  -2.726126  -1.273617   0.975907
C  -0.150458  -0.677141   0.006701
H  -1.364095   0.828891   0.852986
H  -1.395787   0.811122  -0.844855
H  -0.151554  -1.241144   0.864039
H   0.748984  -0.112758   0.047294
H  -0.148183  -1.407406  -0.885099
