butane_opt
 OpenBabel08242015403D

 14 13  0  0  0  0  0  0  0  0999 V2000
   -3.9290    0.2508    0.0525 C   0  0  0  0  0  0  0  0  0  0  0  0
   -2.7008   -0.5998   -0.0106 C   0  0  0  0  0  0  0  0  0  0  0  0
   -4.8659   -0.3841    0.1076 H   0  0  0  0  0  0  0  0  0  0  0  0
   -4.0095    0.9213   -0.8797 H   0  0  0  0  0  0  0  0  0  0  0  0
   -3.8629    0.9134    0.9195 H   0  0  0  0  0  0  0  0  0  0  0  0
   -1.4214    0.1896   -0.0068 C   0  0  0  0  0  0  0  0  0  0  0  0
   -2.7744   -1.2967   -0.8863 H   0  0  0  0  0  0  0  0  0  0  0  0
   -2.6552   -1.1634    0.8598 H   0  0  0  0  0  0  0  0  0  0  0  0
   -0.1553   -0.7018    0.0645 C   0  0  0  0  0  0  0  0  0  0  0  0
   -1.4587    0.8196    0.8020 H   0  0  0  0  0  0  0  0  0  0  0  0
   -1.3596    0.8417   -0.9181 H   0  0  0  0  0  0  0  0  0  0  0  0
   -0.1348   -1.3551    1.0039 H   0  0  0  0  0  0  0  0  0  0  0  0
    0.7456   -0.1299   -0.0093 H   0  0  0  0  0  0  0  0  0  0  0  0
   -0.1586   -1.3088   -0.7623 H   0  0  0  0  0  0  0  0  0  0  0  0
  1  3  1  0  0  0  0
  1  5  1  0  0  0  0
  2  6  1  0  0  0  0
  2  1  1  0  0  0  0
  2  8  1  0  0  0  0
  4  1  1  0  0  0  0
  6  9  1  0  0  0  0
  6 10  1  0  0  0  0
  7  2  1  0  0  0  0
  9 12  1  0  0  0  0
 11  6  1  0  0  0  0
 13  9  1  0  0  0  0
 14  9  1  0  0  0  0
M  END
$$$$
