butane_opt
 OpenBabel08242015403D

 14 13  0  0  0  0  0  0  0  0999 V2000
   -3.9254    0.2550    0.0028 C   0  0  0  0  0  0  0  0  0  0  0  0
   -2.7064   -0.6062    0.0748 C   0  0  0  0  0  0  0  0  0  0  0  0
   -4.8483   -0.3499   -0.1456 H   0  0  0  0  0  0  0  0  0  0  0  0
   -3.8513    0.8613   -0.9038 H   0  0  0  0  0  0  0  0  0  0  0  0
   -4.0319    0.9661    0.8694 H   0  0  0  0  0  0  0  0  0  0  0  0
   -1.4104    0.1868    0.0316 C   0  0  0  0  0  0  0  0  0  0  0  0
   -2.7279   -1.2669   -0.7633 H   0  0  0  0  0  0  0  0  0  0  0  0
   -2.7383   -1.2303    0.9590 H   0  0  0  0  0  0  0  0  0  0  0  0
   -0.1669   -0.7006    0.0086 C   0  0  0  0  0  0  0  0  0  0  0  0
   -1.3631    0.8765    0.8961 H   0  0  0  0  0  0  0  0  0  0  0  0
   -1.4617    0.8553   -0.8677 H   0  0  0  0  0  0  0  0  0  0  0  0
   -0.0820   -1.3355    0.9033 H   0  0  0  0  0  0  0  0  0  0  0  0
    0.7432   -0.1062   -0.0307 H   0  0  0  0  0  0  0  0  0  0  0  0
   -0.1568   -1.3702   -0.8855 H   0  0  0  0  0  0  0  0  0  0  0  0
  1  2  1  0  0  0  0
  1  5  1  0  0  0  0
  2  8  1  0  0  0  0
  3  1  1  0  0  0  0
  4  1  1  0  0  0  0
  6  2  1  0  0  0  0
  6 10  1  0  0  0  0
  7  2  1  0  0  0  0
  9  6  1  0  0  0  0
  9 12  1  0  0  0  0
 11  6  1  0  0  0  0
 13  9  1  0  0  0  0
 14  9  1  0  0  0  0
M  END
$$$$
