14
butane_opt
C  -3.940365   0.263794   0.027793
C  -2.711712  -0.619865   0.030895
H  -4.855484  -0.329259  -0.030004
H  -3.969973   0.802566  -0.784324
H  -4.002436   1.038711   0.956008
C  -1.401814   0.192645  -0.009928
H  -2.750824  -1.298411  -0.844040
H  -2.679179  -1.234949   0.913493
C  -0.156794  -0.690694   0.055076
H  -1.386928   0.791502   0.781269
H  -1.343371   0.848393  -0.919619
H  -0.104902  -1.341607   0.963770
H   0.728307  -0.126298  -0.018525
H  -0.126490  -1.379425  -0.817662
