butane_opt
 OpenBabel08242015403D

 14 13  0  0  0  0  0  0  0  0999 V2000
   -3.9636    0.2593    0.0513 C   0  0  0  0  0  0  0  0  0  0  0  0
   -2.6972   -0.6121    0.0020 C   0  0  0  0  0  0  0  0  0  0  0  0
   -4.8796   -0.3359    0.1237 H   0  0  0  0  0  0  0  0  0  0  0  0
   -3.9853    0.8370   -0.8087 H   0  0  0  0  0  0  0  0  0  0  0  0
   -3.9111    0.9304    0.9190 H   0  0  0  0  0  0  0  0  0  0  0  0
   -1.4003    0.1951   -0.0305 C   0  0  0  0  0  0  0  0  0  0  0  0
   -2.7732   -1.3060   -0.8364 H   0  0  0  0  0  0  0  0  0  0  0  0
   -2.6613   -1.1982    0.8577 H   0  0  0  0  0  0  0  0  0  0  0  0
   -0.1480   -0.6998    0.0629 C   0  0  0  0  0  0  0  0  0  0  0  0
   -1.4031    0.8211    0.7824 H   0  0  0  0  0  0  0  0  0  0  0  0
   -1.3840    0.8787   -0.9571 H   0  0  0  0  0  0  0  0  0  0  0  0
   -0.2182   -1.3061    0.9623 H   0  0  0  0  0  0  0  0  0  0  0  0
    0.7281   -0.1185    0.1642 H   0  0  0  0  0  0  0  0  0  0  0  0
   -0.0257   -1.3924   -0.7947 H   0  0  0  0  0  0  0  0  0  0  0  0
  1  3  1  0  0  0  0
  1  5  1  0  0  0  0
  2  1  1  0  0  0  0
  2  8  1  0  0  0  0
  4  1  1  0  0  0  0
  6  2  1  0  0  0  0
  6  9  1  0  0  0  0
  6 10  1  0  0  0  0
  7  2  1  0  0  0  0
  9 13  1  0  0  0  0
  9 12  1  0  0  0  0
 11  6  1  0  0  0  0
 14  9  1  0  0  0  0
M  END
$$$$
