butane_opt
 OpenBabel08242015403D

 14 13  0  0  0  0  0  0  0  0999 V2000
   -3.9470    0.2719    0.0067 C   0  0  0  0  0  0  0  0  0  0  0  0
   -2.6933   -0.6133    0.0578 C   0  0  0  0  0  0  0  0  0  0  0  0
   -4.8341   -0.3183    0.0298 H   0  0  0  0  0  0  0  0  0  0  0  0
   -3.9333    0.9286   -0.9308 H   0  0  0  0  0  0  0  0  0  0  0  0
   -3.9798    0.8970    0.8361 H   0  0  0  0  0  0  0  0  0  0  0  0
   -1.3931    0.1676    0.0116 C   0  0  0  0  0  0  0  0  0  0  0  0
   -2.7229   -1.2548   -0.7388 H   0  0  0  0  0  0  0  0  0  0  0  0
   -2.6973   -1.3199    1.0015 H   0  0  0  0  0  0  0  0  0  0  0  0
   -0.1743   -0.6833    0.0192 C   0  0  0  0  0  0  0  0  0  0  0  0
   -1.3466    0.8839    0.8949 H   0  0  0  0  0  0  0  0  0  0  0  0
   -1.4314    0.7723   -0.8528 H   0  0  0  0  0  0  0  0  0  0  0  0
   -0.2408   -1.2134    0.8513 H   0  0  0  0  0  0  0  0  0  0  0  0
    0.7433   -0.0642    0.1199 H   0  0  0  0  0  0  0  0  0  0  0  0
   -0.0958   -1.4928   -0.9344 H   0  0  0  0  0  0  0  0  0  0  0  0
  1  3  1  0  0  0  0
  1  2  1  0  0  0  0
  1  5  1  0  0  0  0
  2  8  1  0  0  0  0
  4  1  1  0  0  0  0
  6  9  1  0  0  0  0
  6  2  1  0  0  0  0
  6 10  1  0  0  0  0
  7  2  1  0  0  0  0
  9 13  1  0  0  0  0
  9 12  1  0  0  0  0
 11  6  1  0  0  0  0
 14  9  1  0  0  0  0
M  END
$$$$
