14
butane_opt
C  -3.955971   0.266513   0.035951
C  -2.699542  -0.633713   0.014597
H  -4.827913  -0.278143   0.030455
H  -3.960857   0.897826  -0.856848
H  -4.025663   1.006740   0.932044
C  -1.406821   0.182943  -0.007542
H  -2.751565  -1.317412  -0.830315
H  -2.691914  -1.238202   0.899366
C  -0.149420  -0.685816   0.050161
H  -1.357115   0.857034   0.858978
H  -1.373090   0.771090  -0.880202
H  -0.120364  -1.361651   0.982650
H   0.765169  -0.072361  -0.052890
H  -0.144833  -1.285486  -0.751752
