14
butane_opt
C  -3.951474   0.266739   0.035089
C  -2.698674  -0.607760   0.021098
H  -4.856737  -0.333840  -0.061393
H  -3.928311   0.757750  -0.793688
H  -3.966330   1.040571   1.004856
C  -1.393269   0.176034  -0.009774
H  -2.761171  -1.308285  -0.826948
H  -2.680620  -1.216931   0.907597
C  -0.166918  -0.693987   0.056947
H  -1.414225   0.782408   0.807212
H  -1.361935   0.895043  -0.984565
H  -0.156600  -1.348916   0.980798
H   0.760206  -0.084156  -0.033012
H  -0.139199  -1.344247  -0.794438
