butane_opt
 OpenBabel08242015403D

 14 13  0  0  0  0  0  0  0  0999 V2000
   -3.9549    0.2682    0.0002 C   0  0  0  0  0  0  0  0  0  0  0  0
   -2.7015   -0.6269    0.0571 C   0  0  0  0  0  0  0  0  0  0  0  0
   -4.8930   -0.3241   -0.0876 H   0  0  0  0  0  0  0  0  0  0  0  0
   -3.9244    0.8197   -0.8542 H   0  0  0  0  0  0  0  0  0  0  0  0
   -4.0336    1.0043    0.9116 H   0  0  0  0  0  0  0  0  0  0  0  0
   -1.4083    0.1970    0.0244 C   0  0  0  0  0  0  0  0  0  0  0  0
   -2.7256   -1.2562   -0.7521 H   0  0  0  0  0  0  0  0  0  0  0  0
   -2.6784   -1.3086    0.9928 H   0  0  0  0  0  0  0  0  0  0  0  0
   -0.1442   -0.6898    0.0183 C   0  0  0  0  0  0  0  0  0  0  0  0
   -1.3634    0.8484    0.8669 H   0  0  0  0  0  0  0  0  0  0  0  0
   -1.3760    0.7645   -0.8574 H   0  0  0  0  0  0  0  0  0  0  0  0
   -0.1100   -1.3204    0.9286 H   0  0  0  0  0  0  0  0  0  0  0  0
    0.7462   -0.1162   -0.0561 H   0  0  0  0  0  0  0  0  0  0  0  0
   -0.1551   -1.3661   -0.8532 H   0  0  0  0  0  0  0  0  0  0  0  0
  1  2  1  0  0  0  0
  1  5  1  0  0  0  0
  2  8  1  0  0  0  0
  3  1  1  0  0  0  0
  4  1  1  0  0  0  0
  6  2  1  0  0  0  0
  6 10  1  0  0  0  0
  7  2  1  0  0  0  0
  9  6  1  0  0  0  0
  9 12  1  0  0  0  0
 11  6  1  0  0  0  0
 13  9  1  0  0  0  0
 14  9  1  0  0  0  0
M  END
$$$$
