14
butane_opt
C  -3.944722   0.277591   0.055967
C  -2.686912  -0.628306   0.012542
H  -4.819721  -0.287187   0.049155
H  -3.939719   0.870690  -0.828356
H  -3.983402   0.956529   0.909496
C  -1.401791   0.165715  -0.032468
H  -2.733652  -1.346534  -0.871493
H  -2.705361  -1.222127   0.882490
C  -0.176490  -0.674218   0.061502
H  -1.401730   0.798007   0.816685
H  -1.346292   0.840187  -0.955359
H  -0.212298  -1.292880   0.959459
H   0.737181  -0.083830   0.107183
H  -0.112586  -1.386435  -0.797446
