14
butane_opt
C  -3.936439   0.276985   0.049181
C  -2.691024  -0.633971  -0.007647
H  -4.863801  -0.318352   0.181759
H  -4.019052   0.938346  -0.868918
H  -3.903114   0.921636   0.909217
C  -1.407901   0.178220  -0.008381
H  -2.663208  -1.359779  -0.888361
H  -2.700042  -1.194596   0.838529
C  -0.174923  -0.683356   0.062361
H  -1.371626   0.804246   0.788622
H  -1.329857   0.829650  -0.918174
H  -0.195076  -1.331668   0.984587
H   0.732294  -0.096472   0.026114
H  -0.181490  -1.317420  -0.751071
