14
butane_opt
C  -3.936492   0.271020   0.005616
C  -2.697424  -0.618157   0.066862
H  -4.826462  -0.325731  -0.096750
H  -3.875370   0.834588  -0.891086
H  -4.047160   0.968592   0.874001
C  -1.409487   0.181739   0.023046
H  -2.675417  -1.326779  -0.795855
H  -2.705353  -1.299817   0.989440
C  -0.172288  -0.692853   0.012792
H  -1.394952   0.876400   0.881521
H  -1.411158   0.808657  -0.843475
H  -0.083987  -1.312562   0.902203
H   0.776681  -0.075196  -0.017393
H  -0.197597  -1.311830  -0.852082
