14
butane_opt
C  -3.953011   0.261124  -0.018115
C  -2.715987  -0.608554   0.075060
H  -4.840838  -0.321064  -0.012620
H  -3.904251   0.929288  -0.959960
H  -4.025434   0.896806   0.829638
C  -1.405210   0.185846   0.056808
H  -2.718065  -1.311608  -0.786758
H  -2.758747  -1.217438   0.985357
C  -0.143100  -0.696324  -0.006933
H  -1.352683   0.907932   0.946246
H  -1.379700   0.756982  -0.797388
H  -0.010341  -1.397854   0.913106
H   0.780907  -0.076632  -0.112159
H  -0.212319  -1.333499  -0.844494
