14
butane_opt
C  -3.956685   0.268496   0.042408
C  -2.698748  -0.625229   0.030999
H  -4.847248  -0.301882  -0.102922
H  -3.969012   0.749728  -0.771520
H  -4.035853   1.050743   0.970097
C  -1.395746   0.181823  -0.033507
H  -2.678924  -1.288965  -0.830004
H  -2.670147  -1.237442   0.919045
C  -0.161601  -0.681928   0.051491
H  -1.359670   0.839872   0.818403
H  -1.380658   0.804020  -0.904349
H  -0.164576  -1.379027   1.007816
H   0.749169  -0.118316   0.042511
H  -0.111066  -1.313567  -0.785595
