butane_opt
 OpenBabel08242015403D

 14 13  0  0  0  0  0  0  0  0999 V2000
   -3.9322    0.2565    0.0036 C   0  0  0  0  0  0  0  0  0  0  0  0
   -2.7019   -0.6011    0.0535 C   0  0  0  0  0  0  0  0  0  0  0  0
   -4.8628   -0.3399    0.0013 H   0  0  0  0  0  0  0  0  0  0  0  0
   -3.9621    0.9284   -0.9023 H   0  0  0  0  0  0  0  0  0  0  0  0
   -3.9456    0.8842    0.8302 H   0  0  0  0  0  0  0  0  0  0  0  0
   -1.4059    0.1854    0.0209 C   0  0  0  0  0  0  0  0  0  0  0  0
   -2.7702   -1.2225   -0.7335 H   0  0  0  0  0  0  0  0  0  0  0  0
   -2.7448   -1.3024    1.0044 H   0  0  0  0  0  0  0  0  0  0  0  0
   -0.1642   -0.7013    0.0176 C   0  0  0  0  0  0  0  0  0  0  0  0
   -1.3904    0.9020    0.9015 H   0  0  0  0  0  0  0  0  0  0  0  0
   -1.4235    0.8176   -0.8615 H   0  0  0  0  0  0  0  0  0  0  0  0
   -0.1352   -1.2453    0.8642 H   0  0  0  0  0  0  0  0  0  0  0  0
    0.7759   -0.0804    0.0882 H   0  0  0  0  0  0  0  0  0  0  0  0
   -0.1192   -1.4891   -0.9223 H   0  0  0  0  0  0  0  0  0  0  0  0
  1  2  1  0  0  0  0
  1  5  1  0  0  0  0
  2  8  1  0  0  0  0
  3  1  1  0  0  0  0
  4  1  1  0  0  0  0
  6  2  1  0  0  0  0
  6 10  1  0  0  0  0
  7  2  1  0  0  0  0
  9  6  1  0  0  0  0
  9 13  1  0  0  0  0
  9 12  1  0  0  0  0
 11  6  1  0  0  0  0
 14  9  1  0  0  0  0
M  END
$$$$
