14
butane_opt
C  -3.961418   0.273411   0.043199
C  -2.693280  -0.626869   0.002441
H  -4.883420  -0.327782   0.198305
H  -4.062215   0.952940  -0.906415
H  -3.919946   0.878548   0.876568
C  -1.403882   0.186686  -0.019505
H  -2.712259  -1.362554  -0.871550
H  -2.686776  -1.234938   0.885590
C  -0.149242  -0.686204   0.056980
H  -1.359203   0.877643   0.869700
H  -1.359054   0.758379  -0.873812
H  -0.209979  -1.320620   0.996707
H   0.761178  -0.088695   0.050445
H  -0.096249  -1.361998  -0.790191
