14
butane_opt
C  -3.958086   0.264868   0.050989
C  -2.688327  -0.632741   0.019757
H  -4.814587  -0.258856  -0.087120
H  -3.901685   0.780581  -0.783579
H  -4.077903   1.088385   0.978983
C  -1.404167   0.178158  -0.023038
H  -2.735782  -1.327353  -0.865250
H  -2.698691  -1.220167   0.899548
C  -0.161489  -0.681004   0.058173
H  -1.381077   0.820813   0.791349
H  -1.360780   0.858897  -0.969267
H  -0.148529  -1.385316   1.012027
H   0.765873  -0.073246  -0.016450
H  -0.133485  -1.304862  -0.765961
