14
butane_opt
C  -3.942099   0.272972  -0.013190
C  -2.696901  -0.614373   0.084654
H  -4.864659  -0.337257  -0.101801
H  -3.900299   0.843594  -0.888287
H  -4.012726   1.000510   0.882574
C  -1.407078   0.165559   0.039695
H  -2.668122  -1.279847  -0.761534
H  -2.749131  -1.286968   1.012007
C  -0.171438  -0.692624  -0.001428
H  -1.333971   0.851153   0.865185
H  -1.381021   0.817174  -0.874374
H  -0.112933  -1.250795   0.857703
H   0.767902  -0.063325   0.019780
H  -0.160915  -1.345614  -0.880915
