14
butane_opt
C  -3.941979   0.274533  -0.008819
C  -2.691605  -0.624047   0.064570
H  -4.852028  -0.331332  -0.023870
H  -3.953045   0.813793  -0.844699
H  -4.033296   1.000075   0.874167
C  -1.395947   0.181021   0.028853
H  -2.705229  -1.231070  -0.746164
H  -2.733517  -1.313186   1.006875
C  -0.172706  -0.691400   0.008322
H  -1.345299   0.836956   0.873408
H  -1.383992   0.797889  -0.847264
H  -0.164090  -1.278004   0.875169
H   0.723781  -0.086745   0.035525
H  -0.145333  -1.366892  -0.872216
