14
butane_opt
C  -3.943889   0.251194  -0.006852
C  -2.701625  -0.603230   0.082418
H  -4.822983  -0.326840  -0.017037
H  -3.904406   0.881954  -0.920199
H  -4.037846   0.870911   0.832408
C  -1.404817   0.200350   0.024730
H  -2.744817  -1.252016  -0.747416
H  -2.718540  -1.266187   0.984880
C  -0.158077  -0.703636   0.003784
H  -1.430985   0.887102   0.875017
H  -1.429148   0.816020  -0.834365
H  -0.145310  -1.215921   0.836119
H   0.758132  -0.119823   0.087422
H  -0.048520  -1.482716  -0.926603
