14
butane_opt
C  -3.959186   0.275115  -0.014639
C  -2.696839  -0.628948   0.083891
H  -4.838591  -0.302247  -0.076527
H  -3.914437   0.842913  -0.883150
H  -4.097162   1.007429   0.895281
C  -1.392880   0.175747   0.027492
H  -2.696327  -1.249862  -0.750899
H  -2.804112  -1.283498   1.010208
C  -0.154120  -0.684993   0.001136
H  -1.336161   0.871661   0.895993
H  -1.429764   0.736986  -0.817056
H  -0.120250  -1.301917   0.878464
H   0.789408  -0.052206  -0.017617
H  -0.147072  -1.374968  -0.856807
