butane_opt
 OpenBabel08242015403D

 14 13  0  0  0  0  0  0  0  0999 V2000
   -3.9548    0.2564    0.0084 C   0  0  0  0  0  0  0  0  0  0  0  0
   -2.6981   -0.5985    0.0586 C   0  0  0  0  0  0  0  0  0  0  0  0
   -4.8657   -0.3676   -0.0338 H   0  0  0  0  0  0  0  0  0  0  0  0
   -3.9432    0.8443   -0.8717 H   0  0  0  0  0  0  0  0  0  0  0  0
   -4.0228    0.9492    0.8698 H   0  0  0  0  0  0  0  0  0  0  0  0
   -1.4085    0.1910    0.0104 C   0  0  0  0  0  0  0  0  0  0  0  0
   -2.6936   -1.3086   -0.8143 H   0  0  0  0  0  0  0  0  0  0  0  0
   -2.7402   -1.2567    0.9898 H   0  0  0  0  0  0  0  0  0  0  0  0
   -0.1475   -0.6997    0.0210 C   0  0  0  0  0  0  0  0  0  0  0  0
   -1.3492    0.8868    0.8963 H   0  0  0  0  0  0  0  0  0  0  0  0
   -1.3929    0.7822   -0.8432 H   0  0  0  0  0  0  0  0  0  0  0  0
   -0.1371   -1.3117    0.9288 H   0  0  0  0  0  0  0  0  0  0  0  0
    0.7410   -0.1172   -0.0359 H   0  0  0  0  0  0  0  0  0  0  0  0
   -0.1026   -1.3660   -0.8276 H   0  0  0  0  0  0  0  0  0  0  0  0
  1  2  1  0  0  0  0
  1  5  1  0  0  0  0
  2  8  1  0  0  0  0
  3  1  1  0  0  0  0
  4  1  1  0  0  0  0
  6  9  1  0  0  0  0
  6  2  1  0  0  0  0
  6 10  1  0  0  0  0
  7  2  1  0  0  0  0
  9 12  1  0  0  0  0
 11  6  1  0  0  0  0
 13  9  1  0  0  0  0
 14  9  1  0  0  0  0
M  END
$$$$
