14
butane_opt
C  -3.954105   0.251226   0.046178
C  -2.708182  -0.602149   0.015017
H  -4.905359  -0.367482  -0.069601
H  -3.910188   0.766766  -0.794542
H  -4.005724   1.036001   1.000315
C  -1.398098   0.201560  -0.020631
H  -2.745240  -1.276559  -0.833598
H  -2.717995  -1.221400   0.889178
C  -0.137023  -0.708333   0.051573
H  -1.427925   0.890608   0.807443
H  -1.400517   0.815600  -0.911151
H  -0.125499  -1.443087   1.030997
H   0.724723  -0.141215  -0.020732
H  -0.126897  -1.250940  -0.737184
