14
butane_opt
C  -3.935543   0.262758  -0.002625
C  -2.709666  -0.607588   0.072085
H  -4.856251  -0.349499  -0.080161
H  -3.875792   0.861730  -0.898277
H  -4.002160   0.928865   0.861497
C  -1.409592   0.179318   0.033696
H  -2.694931  -1.254796  -0.791268
H  -2.681932  -1.257657   0.977314
C  -0.159487  -0.696578   0.012342
H  -1.349942   0.885047   0.904468
H  -1.425007   0.843852  -0.886080
H  -0.141605  -1.281930   0.878365
H   0.759187  -0.122365  -0.031732
H  -0.178627  -1.388159  -0.883697
