14
butane_opt
C  -3.950931   0.255861   0.036714
C  -2.713401  -0.606942   0.013795
H  -4.901679  -0.359379  -0.001496
H  -3.980738   0.830574  -0.823458
H  -3.920842   0.988476   0.933319
C  -1.400662   0.194941  -0.001108
H  -2.704551  -1.340393  -0.852139
H  -2.758205  -1.176355   0.850759
C  -0.151262  -0.701670   0.051807
H  -1.394178   0.873204   0.867932
H  -1.375888   0.870105  -0.907747
H  -0.026281  -1.462314   1.040049
H   0.747459  -0.124868  -0.136971
H  -0.117913  -1.279638  -0.729233
