butane_opt
 OpenBabel08242015403D

 14 13  0  0  0  0  0  0  0  0999 V2000
   -3.9552    0.2579   -0.0128 C   0  0  0  0  0  0  0  0  0  0  0  0
   -2.7054   -0.6092    0.0650 C   0  0  0  0  0  0  0  0  0  0  0  0
   -4.9117   -0.3835    0.0226 H   0  0  0  0  0  0  0  0  0  0  0  0
   -3.9728    0.9104   -0.9553 H   0  0  0  0  0  0  0  0  0  0  0  0
   -3.9148    0.8914    0.8173 H   0  0  0  0  0  0  0  0  0  0  0  0
   -1.4113    0.2002    0.0537 C   0  0  0  0  0  0  0  0  0  0  0  0
   -2.6992   -1.2872   -0.7806 H   0  0  0  0  0  0  0  0  0  0  0  0
   -2.7383   -1.2218    0.9539 H   0  0  0  0  0  0  0  0  0  0  0  0
   -0.1448   -0.7069    0.0055 C   0  0  0  0  0  0  0  0  0  0  0  0
   -1.3535    0.8922    0.9347 H   0  0  0  0  0  0  0  0  0  0  0  0
   -1.4177    0.8198   -0.8523 H   0  0  0  0  0  0  0  0  0  0  0  0
   -0.0152   -1.3366    0.8969 H   0  0  0  0  0  0  0  0  0  0  0  0
    0.7543   -0.0968   -0.0823 H   0  0  0  0  0  0  0  0  0  0  0  0
   -0.1555   -1.3657   -0.8563 H   0  0  0  0  0  0  0  0  0  0  0  0
  1  3  1  0  0  0  0
  1  2  1  0  0  0  0
  1  5  1  0  0  0  0
  2  8  1  0  0  0  0
  4  1  1  0  0  0  0
  6  2  1  0  0  0  0
  6 10  1  0  0  0  0
  7  2  1  0  0  0  0
  9  6  1  0  0  0  0
  9 12  1  0  0  0  0
 11  6  1  0  0  0  0
 13  9  1  0  0  0  0
 14  9  1  0  0  0  0
M  END
$$$$
