butane_opt
 OpenBabel08242015403D

 14 13  0  0  0  0  0  0  0  0999 V2000
   -3.9467    0.2639   -0.0014 C   0  0  0  0  0  0  0  0  0  0  0  0
   -2.6955   -0.6111    0.0453 C   0  0  0  0  0  0  0  0  0  0  0  0
   -4.8226   -0.2865    0.1495 H   0  0  0  0  0  0  0  0  0  0  0  0
   -4.0090    0.9876   -0.9497 H   0  0  0  0  0  0  0  0  0  0  0  0
   -3.9075    0.8463    0.7943 H   0  0  0  0  0  0  0  0  0  0  0  0
   -1.4019    0.1651    0.0343 C   0  0  0  0  0  0  0  0  0  0  0  0
   -2.6885   -1.2529   -0.7887 H   0  0  0  0  0  0  0  0  0  0  0  0
   -2.7524   -1.2586    0.9633 H   0  0  0  0  0  0  0  0  0  0  0  0
   -0.1671   -0.6921    0.0132 C   0  0  0  0  0  0  0  0  0  0  0  0
   -1.3537    0.9113    0.9410 H   0  0  0  0  0  0  0  0  0  0  0  0
   -1.3845    0.7870   -0.8183 H   0  0  0  0  0  0  0  0  0  0  0  0
   -0.2003   -1.2543    0.8874 H   0  0  0  0  0  0  0  0  0  0  0  0
    0.7783   -0.0582    0.0128 H   0  0  0  0  0  0  0  0  0  0  0  0
   -0.1514   -1.3995   -0.8665 H   0  0  0  0  0  0  0  0  0  0  0  0
  1  2  1  0  0  0  0
  1  3  1  0  0  0  0
  1  5  1  0  0  0  0
  2  8  1  0  0  0  0
  4  1  1  0  0  0  0
  6  2  1  0  0  0  0
  6 10  1  0  0  0  0
  7  2  1  0  0  0  0
  9  6  1  0  0  0  0
  9 12  1  0  0  0  0
 11  6  1  0  0  0  0
 13  9  1  0  0  0  0
 14  9  1  0  0  0  0
M  END
$$$$
