14
butane_opt
C  -3.954546   0.276846   0.028824
C  -2.704856  -0.623515   0.041429
H  -4.857145  -0.318539  -0.065192
H  -3.986260   0.808909  -0.788659
H  -4.022125   0.981593   0.916880
C  -1.386243   0.174065  -0.006297
H  -2.751574  -1.337813  -0.851140
H  -2.690562  -1.216351   0.936372
C  -0.153660  -0.692595   0.037864
H  -1.384417   0.813040   0.820583
H  -1.408962   0.894692  -0.948971
H  -0.209321  -1.315098   0.954166
H   0.777788  -0.054195   0.067559
H  -0.100387  -1.351981  -0.821251
