butane_opt
 OpenBabel08242015403D

 14 13  0  0  0  0  0  0  0  0999 V2000
   -3.9546    0.2741   -0.0101 C   0  0  0  0  0  0  0  0  0  0  0  0
   -2.7030   -0.6254    0.0860 C   0  0  0  0  0  0  0  0  0  0  0  0
   -4.8916   -0.3471    0.0258 H   0  0  0  0  0  0  0  0  0  0  0  0
   -3.9583    0.9480   -0.9501 H   0  0  0  0  0  0  0  0  0  0  0  0
   -4.0479    0.9343    0.8261 H   0  0  0  0  0  0  0  0  0  0  0  0
   -1.3907    0.1731    0.0236 C   0  0  0  0  0  0  0  0  0  0  0  0
   -2.6994   -1.3154   -0.7561 H   0  0  0  0  0  0  0  0  0  0  0  0
   -2.7344   -1.2589    0.9947 H   0  0  0  0  0  0  0  0  0  0  0  0
   -0.1536   -0.6836    0.0063 C   0  0  0  0  0  0  0  0  0  0  0  0
   -1.3279    0.8553    0.9013 H   0  0  0  0  0  0  0  0  0  0  0  0
   -1.4367    0.8031   -0.8858 H   0  0  0  0  0  0  0  0  0  0  0  0
   -0.1544   -1.1902    0.8103 H   0  0  0  0  0  0  0  0  0  0  0  0
    0.7335   -0.0844    0.1382 H   0  0  0  0  0  0  0  0  0  0  0  0
   -0.0840   -1.4779   -0.9437 H   0  0  0  0  0  0  0  0  0  0  0  0
  1  3  1  0  0  0  0
  1  2  1  0  0  0  0
  1  5  1  0  0  0  0
  2  8  1  0  0  0  0
  4  1  1  0  0  0  0
  6  2  1  0  0  0  0
  6 10  1  0  0  0  0
  7  2  1  0  0  0  0
  9  6  1  0  0  0  0
  9 13  1  0  0  0  0
  9 12  1  0  0  0  0
 11  6  1  0  0  0  0
 14  9  1  0  0  0  0
M  END
$$$$
