14
butane_opt
C  -3.970411   0.270705  -0.014042
C  -2.693943  -0.629121   0.078507
H  -4.870077  -0.298509  -0.020066
H  -3.925793   0.942377  -0.932149
H  -4.034703   0.932869   0.838885
C  -1.391943   0.179159   0.046153
H  -2.622005  -1.341104  -0.794308
H  -2.726984  -1.228401   0.958311
C  -0.158297  -0.686175   0.001482
H  -1.323728   0.845189   0.897491
H  -1.425525   0.772481  -0.788414
H  -0.120995  -1.309113   0.898226
H   0.778072  -0.058795  -0.101956
H  -0.178267  -1.337578  -0.861159
