butane_opt
 OpenBabel08242015403D

 14 13  0  0  0  0  0  0  0  0999 V2000
   -3.9503    0.2575    0.0418 C   0  0  0  0  0  0  0  0  0  0  0  0
   -2.7036   -0.6068    0.0216 C   0  0  0  0  0  0  0  0  0  0  0  0
   -4.8638   -0.3450    0.0127 H   0  0  0  0  0  0  0  0  0  0  0  0
   -4.0492    0.7950   -0.7818 H   0  0  0  0  0  0  0  0  0  0  0  0
   -3.9480    0.9877    0.9583 H   0  0  0  0  0  0  0  0  0  0  0  0
   -1.4029    0.1964   -0.0311 C   0  0  0  0  0  0  0  0  0  0  0  0
   -2.7295   -1.3580   -0.8495 H   0  0  0  0  0  0  0  0  0  0  0  0
   -2.6967   -1.2276    0.9096 H   0  0  0  0  0  0  0  0  0  0  0  0
   -0.1484   -0.6975    0.0625 C   0  0  0  0  0  0  0  0  0  0  0  0
   -1.4175    0.8027    0.7697 H   0  0  0  0  0  0  0  0  0  0  0  0
   -1.3537    0.8960   -0.9706 H   0  0  0  0  0  0  0  0  0  0  0  0
   -0.1512   -1.2900    0.9509 H   0  0  0  0  0  0  0  0  0  0  0  0
    0.7107   -0.1346    0.1166 H   0  0  0  0  0  0  0  0  0  0  0  0
   -0.0542   -1.3997   -0.8132 H   0  0  0  0  0  0  0  0  0  0  0  0
  1  5  1  0  0  0  0
  2  1  1  0  0  0  0
  2  8  1  0  0  0  0
  3  1  1  0  0  0  0
  4  1  1  0  0  0  0
  6  2  1  0  0  0  0
  6  9  1  0  0  0  0
  6 10  1  0  0  0  0
  7  2  1  0  0  0  0
  9 13  1  0  0  0  0
  9 12  1  0  0  0  0
 11  6  1  0  0  0  0
 14  9  1  0  0  0  0
M  END
$$$$
