butane_opt
 OpenBabel08242015403D

 14 13  0  0  0  0  0  0  0  0999 V2000
   -3.9573    0.2716    0.0444 C   0  0  0  0  0  0  0  0  0  0  0  0
   -2.7036   -0.6200    0.0083 C   0  0  0  0  0  0  0  0  0  0  0  0
   -4.8750   -0.3429   -0.0017 H   0  0  0  0  0  0  0  0  0  0  0  0
   -3.9962    0.7765   -0.7820 H   0  0  0  0  0  0  0  0  0  0  0  0
   -4.0009    1.0495    0.9803 H   0  0  0  0  0  0  0  0  0  0  0  0
   -1.4017    0.1791   -0.0237 C   0  0  0  0  0  0  0  0  0  0  0  0
   -2.7188   -1.3059   -0.8244 H   0  0  0  0  0  0  0  0  0  0  0  0
   -2.6869   -1.2732    0.9220 H   0  0  0  0  0  0  0  0  0  0  0  0
   -0.1505   -0.6908    0.0590 C   0  0  0  0  0  0  0  0  0  0  0  0
   -1.4251    0.8287    0.8079 H   0  0  0  0  0  0  0  0  0  0  0  0
   -1.2976    0.8464   -0.9486 H   0  0  0  0  0  0  0  0  0  0  0  0
   -0.1327   -1.3204    0.9754 H   0  0  0  0  0  0  0  0  0  0  0  0
    0.7652   -0.1114    0.0244 H   0  0  0  0  0  0  0  0  0  0  0  0
   -0.0955   -1.2965   -0.7578 H   0  0  0  0  0  0  0  0  0  0  0  0
  1  5  1  0  0  0  0
  2  1  1  0  0  0  0
  2  8  1  0  0  0  0
  3  1  1  0  0  0  0
  4  1  1  0  0  0  0
  6  2  1  0  0  0  0
  6  9  1  0  0  0  0
  6 10  1  0  0  0  0
  7  2  1  0  0  0  0
  9 12  1  0  0  0  0
 11  6  1  0  0  0  0
 13  9  1  0  0  0  0
 14  9  1  0  0  0  0
M  END
$$$$
