butane_opt
 OpenBabel08242015403D

 14 13  0  0  0  0  0  0  0  0999 V2000
   -3.9545    0.2546    0.0432 C   0  0  0  0  0  0  0  0  0  0  0  0
   -2.7055   -0.6021    0.0043 C   0  0  0  0  0  0  0  0  0  0  0  0
   -4.8884   -0.3335    0.1091 H   0  0  0  0  0  0  0  0  0  0  0  0
   -4.0272    0.8579   -0.8468 H   0  0  0  0  0  0  0  0  0  0  0  0
   -3.9100    0.8807    0.8960 H   0  0  0  0  0  0  0  0  0  0  0  0
   -1.3977    0.1983   -0.0035 C   0  0  0  0  0  0  0  0  0  0  0  0
   -2.7081   -1.3190   -0.8896 H   0  0  0  0  0  0  0  0  0  0  0  0
   -2.7361   -1.2121    0.8981 H   0  0  0  0  0  0  0  0  0  0  0  0
   -0.1526   -0.7043    0.0548 C   0  0  0  0  0  0  0  0  0  0  0  0
   -1.4416    0.8517    0.8204 H   0  0  0  0  0  0  0  0  0  0  0  0
   -1.3750    0.8699   -0.9459 H   0  0  0  0  0  0  0  0  0  0  0  0
   -0.1073   -1.3347    0.9812 H   0  0  0  0  0  0  0  0  0  0  0  0
    0.7439   -0.1176    0.0066 H   0  0  0  0  0  0  0  0  0  0  0  0
   -0.0512   -1.3744   -0.7771 H   0  0  0  0  0  0  0  0  0  0  0  0
  1  3  1  0  0  0  0
  1  5  1  0  0  0  0
  2  1  1  0  0  0  0
  2  8  1  0  0  0  0
  4  1  1  0  0  0  0
  6  2  1  0  0  0  0
  6  9  1  0  0  0  0
  6 10  1  0  0  0  0
  7  2  1  0  0  0  0
  9 12  1  0  0  0  0
 11  6  1  0  0  0  0
 13  9  1  0  0  0  0
 14  9  1  0  0  0  0
M  END
$$$$
