14
butane_opt
C  -3.938068   0.255891   0.045398
C  -2.701856  -0.597443  -0.001485
H  -4.876861  -0.376444   0.213777
H  -3.977082   0.936701  -0.881040
H  -3.842901   0.867603   0.873325
C  -1.399403   0.197693  -0.020693
H  -2.725171  -1.325101  -0.876249
H  -2.707328  -1.198857   0.849276
C  -0.166921  -0.708883   0.058592
H  -1.421705   0.877471   0.844271
H  -1.421451   0.782232  -0.853328
H  -0.198028  -1.352336   1.001389
H   0.733981  -0.097152   0.055554
H  -0.108665  -1.351314  -0.768854
