14
butane_opt
C  -3.956122   0.258709  -0.003416
C  -2.705342  -0.597909   0.052117
H  -4.899691  -0.371301   0.086347
H  -3.938931   0.889087  -0.934992
H  -3.958470   0.871726   0.845023
C  -1.402313   0.200374   0.029780
H  -2.748774  -1.258419  -0.784167
H  -2.714359  -1.300119   0.961653
C  -0.146433  -0.706041   0.015809
H  -1.346889   0.911961   0.921232
H  -1.385051   0.793256  -0.835920
H  -0.106200  -1.306421   0.917362
H   0.753041  -0.131080  -0.000213
H  -0.149569  -1.432826  -0.875104
