14
butane_opt
C  -3.953309   0.263385  -0.002498
C  -2.707813  -0.617270   0.066776
H  -4.876147  -0.374876   0.006874
H  -3.948751   0.865685  -0.879905
H  -4.041783   0.942121   0.864586
C  -1.401488   0.193128   0.018953
H  -2.655939  -1.266161  -0.793720
H  -2.719818  -1.247084   0.962429
C  -0.147115  -0.699957   0.013818
H  -1.342244   0.928462   0.914126
H  -1.429065   0.794175  -0.847751
H  -0.127510  -1.333944   0.910111
H   0.765455  -0.091631   0.003829
H  -0.121875  -1.369505  -0.855529
