14
butane_opt
C  -3.952144   0.269435   0.046845
C  -2.697970  -0.629003  -0.002914
H  -4.816166  -0.271954   0.040798
H  -4.039601   0.842369  -0.811826
H  -3.922558   0.942376   0.918507
C  -1.402344   0.182433   0.000168
H  -2.726565  -1.343499  -0.894388
H  -2.719077  -1.193786   0.837416
C  -0.157271  -0.685553   0.060924
H  -1.406155   0.788212   0.814979
H  -1.413484   0.862530  -0.932635
H  -0.075254  -1.386603   1.046151
H   0.747703  -0.094223  -0.088979
H  -0.150679  -1.255231  -0.738077
