14
butane_opt
C  -3.947900   0.267953   0.002573
C  -2.706201  -0.628302   0.042910
H  -4.820654  -0.300803  -0.012965
H  -4.001471   0.892774  -0.871926
H  -3.979872   0.949822   0.856269
C  -1.401659   0.192192   0.038610
H  -2.725710  -1.269443  -0.781549
H  -2.733182  -1.284628   0.931309
C  -0.150653  -0.699050   0.020431
H  -1.388356   0.908475   0.910862
H  -1.330791   0.782488  -0.836295
H  -0.084276  -1.379030   0.952516
H   0.757031  -0.084251  -0.138921
H  -0.238093  -1.278431  -0.824218
