butane_opt
 OpenBabel08242015403D

 14 13  0  0  0  0  0  0  0  0999 V2000
   -3.9471    0.2725   -0.0128 C   0  0  0  0  0  0  0  0  0  0  0  0
   -2.6945   -0.6237    0.0668 C   0  0  0  0  0  0  0  0  0  0  0  0
   -4.8389   -0.3100    0.0221 H   0  0  0  0  0  0  0  0  0  0  0  0
   -3.9379    0.9712   -0.9634 H   0  0  0  0  0  0  0  0  0  0  0  0
   -4.0295    0.8766    0.7886 H   0  0  0  0  0  0  0  0  0  0  0  0
   -1.4055    0.1679    0.0592 C   0  0  0  0  0  0  0  0  0  0  0  0
   -2.7012   -1.3148   -0.7755 H   0  0  0  0  0  0  0  0  0  0  0  0
   -2.6648   -1.2372    0.9584 H   0  0  0  0  0  0  0  0  0  0  0  0
   -0.1666   -0.6855   -0.0058 C   0  0  0  0  0  0  0  0  0  0  0  0
   -1.3730    0.8639    0.9487 H   0  0  0  0  0  0  0  0  0  0  0  0
   -1.4134    0.7540   -0.8159 H   0  0  0  0  0  0  0  0  0  0  0  0
   -0.0663   -1.3026    0.8853 H   0  0  0  0  0  0  0  0  0  0  0  0
    0.7679   -0.0311   -0.0712 H   0  0  0  0  0  0  0  0  0  0  0  0
   -0.2118   -1.3040   -0.8327 H   0  0  0  0  0  0  0  0  0  0  0  0
  1  3  1  0  0  0  0
  1  2  1  0  0  0  0
  1  5  1  0  0  0  0
  2  8  1  0  0  0  0
  4  1  1  0  0  0  0
  6  2  1  0  0  0  0
  6 10  1  0  0  0  0
  7  2  1  0  0  0  0
  9  6  1  0  0  0  0
  9 12  1  0  0  0  0
 11  6  1  0  0  0  0
 13  9  1  0  0  0  0
 14  9  1  0  0  0  0
M  END
$$$$
