14
butane_opt
C  -3.946461   0.268067   0.046606
C  -2.707836  -0.623570   0.002997
H  -4.830665  -0.289641   0.119028
H  -4.013202   0.911891  -0.840606
H  -3.882542   0.929977   0.895172
C  -1.403016   0.170549  -0.008731
H  -2.672819  -1.306088  -0.859276
H  -2.709469  -1.184505   0.857753
C  -0.158161  -0.690621   0.057440
H  -1.420330   0.826916   0.807946
H  -1.375981   0.839744  -0.953240
H  -0.191203  -1.318178   0.953102
H   0.782514  -0.059023   0.069486
H  -0.132900  -1.312727  -0.782832
