14
butane_opt
C  -3.931422   0.257607   0.030185
C  -2.700277  -0.607396   0.004932
H  -4.844897  -0.329676   0.181589
H  -4.052640   0.908851  -0.866630
H  -3.851282   0.856049   0.846143
C  -1.406704   0.198506   0.007928
H  -2.746319  -1.302763  -0.849914
H  -2.734815  -1.189648   0.888432
C  -0.161536  -0.705639   0.045795
H  -1.422944   0.854758   0.850877
H  -1.384490   0.820235  -0.889634
H  -0.181591  -1.335736   0.988524
H   0.747454  -0.127212   0.011812
H  -0.147594  -1.345145  -0.794625
