butane_opt
 OpenBabel08242015403D

 14 13  0  0  0  0  0  0  0  0999 V2000
   -3.9299    0.2525    0.0451 C   0  0  0  0  0  0  0  0  0  0  0  0
   -2.6967   -0.5988    0.0078 C   0  0  0  0  0  0  0  0  0  0  0  0
   -4.8590   -0.3554   -0.0413 H   0  0  0  0  0  0  0  0  0  0  0  0
   -3.9418    0.8022   -0.8178 H   0  0  0  0  0  0  0  0  0  0  0  0
   -3.9532    0.9450    0.9132 H   0  0  0  0  0  0  0  0  0  0  0  0
   -1.4108    0.2003   -0.0006 C   0  0  0  0  0  0  0  0  0  0  0  0
   -2.7486   -1.3210   -0.8637 H   0  0  0  0  0  0  0  0  0  0  0  0
   -2.6976   -1.2406    0.8891 H   0  0  0  0  0  0  0  0  0  0  0  0
   -0.1625   -0.7045    0.0516 C   0  0  0  0  0  0  0  0  0  0  0  0
   -1.4382    0.9044    0.8483 H   0  0  0  0  0  0  0  0  0  0  0  0
   -1.4492    0.8460   -0.9191 H   0  0  0  0  0  0  0  0  0  0  0  0
   -0.1061   -1.4402    1.0222 H   0  0  0  0  0  0  0  0  0  0  0  0
    0.7495   -0.1253   -0.1094 H   0  0  0  0  0  0  0  0  0  0  0  0
   -0.1768   -1.2783   -0.7155 H   0  0  0  0  0  0  0  0  0  0  0  0
  1  5  1  0  0  0  0
  2  1  1  0  0  0  0
  2  8  1  0  0  0  0
  3  1  1  0  0  0  0
  4  1  1  0  0  0  0
  6  2  1  0  0  0  0
  6  9  1  0  0  0  0
  6 10  1  0  0  0  0
  7  2  1  0  0  0  0
  9 12  1  0  0  0  0
 11  6  1  0  0  0  0
 13  9  1  0  0  0  0
 14  9  1  0  0  0  0
M  END
$$$$
