butane_opt
 OpenBabel08242015403D

 14 13  0  0  0  0  0  0  0  0999 V2000
   -3.9388    0.2692    0.0379 C   0  0  0  0  0  0  0  0  0  0  0  0
   -2.6869   -0.6177    0.0238 C   0  0  0  0  0  0  0  0  0  0  0  0
   -4.8507   -0.3502   -0.0340 H   0  0  0  0  0  0  0  0  0  0  0  0
   -3.9266    0.8040   -0.8146 H   0  0  0  0  0  0  0  0  0  0  0  0
   -3.9811    1.0511    0.9596 H   0  0  0  0  0  0  0  0  0  0  0  0
   -1.4154    0.1794   -0.0147 C   0  0  0  0  0  0  0  0  0  0  0  0
   -2.6972   -1.3576   -0.8466 H   0  0  0  0  0  0  0  0  0  0  0  0
   -2.6942   -1.2554    0.9152 H   0  0  0  0  0  0  0  0  0  0  0  0
   -0.1697   -0.6860    0.0599 C   0  0  0  0  0  0  0  0  0  0  0  0
   -1.3923    0.8151    0.7984 H   0  0  0  0  0  0  0  0  0  0  0  0
   -1.3408    0.8475   -0.9347 H   0  0  0  0  0  0  0  0  0  0  0  0
   -0.1526   -1.3347    0.9746 H   0  0  0  0  0  0  0  0  0  0  0  0
    0.7325   -0.0972   -0.0457 H   0  0  0  0  0  0  0  0  0  0  0  0
   -0.1885   -1.3312   -0.8033 H   0  0  0  0  0  0  0  0  0  0  0  0
  1  5  1  0  0  0  0
  2  1  1  0  0  0  0
  2  8  1  0  0  0  0
  3  1  1  0  0  0  0
  4  1  1  0  0  0  0
  6  2  1  0  0  0  0
  6  9  1  0  0  0  0
  6 10  1  0  0  0  0
  7  2  1  0  0  0  0
  9 12  1  0  0  0  0
 11  6  1  0  0  0  0
 13  9  1  0  0  0  0
 14  9  1  0  0  0  0
M  END
$$$$
