14
butane_opt
C  -3.949144   0.259071  -0.000838
C  -2.713264  -0.608884   0.046259
H  -4.861727  -0.370779   0.166380
H  -4.016152   1.000592  -0.965195
H  -3.934144   0.824641   0.810206
C  -1.394146   0.200346   0.035180
H  -2.748035  -1.304043  -0.835033
H  -2.740486  -1.213810   0.945337
C  -0.140998  -0.705850   0.024396
H  -1.439692   0.874537   0.894995
H  -1.375573   0.817991  -0.829335
H  -0.123056  -1.279680   0.883380
H   0.768735  -0.114147  -0.022353
H  -0.172083  -1.443760  -0.893000
