butane_opt
 OpenBabel08242015403D

 14 13  0  0  0  0  0  0  0  0999 V2000
   -3.9503    0.2714    0.0326 C   0  0  0  0  0  0  0  0  0  0  0  0
   -2.6815   -0.6234    0.0071 C   0  0  0  0  0  0  0  0  0  0  0  0
   -4.8447   -0.3132    0.2133 H   0  0  0  0  0  0  0  0  0  0  0  0
   -4.0406    0.9835   -0.9301 H   0  0  0  0  0  0  0  0  0  0  0  0
   -3.8837    0.8634    0.8758 H   0  0  0  0  0  0  0  0  0  0  0  0
   -1.4072    0.1615    0.0123 C   0  0  0  0  0  0  0  0  0  0  0  0
   -2.7088   -1.3259   -0.8924 H   0  0  0  0  0  0  0  0  0  0  0  0
   -2.7113   -1.1967    0.8655 H   0  0  0  0  0  0  0  0  0  0  0  0
   -0.1685   -0.6810    0.0483 C   0  0  0  0  0  0  0  0  0  0  0  0
   -1.4199    0.8364    0.8634 H   0  0  0  0  0  0  0  0  0  0  0  0
   -1.3656    0.8573   -0.9280 H   0  0  0  0  0  0  0  0  0  0  0  0
   -0.1781   -1.3182    0.9444 H   0  0  0  0  0  0  0  0  0  0  0  0
    0.7767   -0.0490    0.0422 H   0  0  0  0  0  0  0  0  0  0  0  0
   -0.1647   -1.3440   -0.8203 H   0  0  0  0  0  0  0  0  0  0  0  0
  1  3  1  0  0  0  0
  1  5  1  0  0  0  0
  2  6  1  0  0  0  0
  2  1  1  0  0  0  0
  2  8  1  0  0  0  0
  4  1  1  0  0  0  0
  6  9  1  0  0  0  0
  6 10  1  0  0  0  0
  7  2  1  0  0  0  0
  9 12  1  0  0  0  0
 11  6  1  0  0  0  0
 13  9  1  0  0  0  0
 14  9  1  0  0  0  0
M  END
$$$$
