butane_opt
 OpenBabel08242015403D

 14 13  0  0  0  0  0  0  0  0999 V2000
   -3.9338    0.2525    0.0050 C   0  0  0  0  0  0  0  0  0  0  0  0
   -2.7160   -0.6046    0.0649 C   0  0  0  0  0  0  0  0  0  0  0  0
   -4.8551   -0.3511    0.0438 H   0  0  0  0  0  0  0  0  0  0  0  0
   -3.9536    0.9831   -0.9256 H   0  0  0  0  0  0  0  0  0  0  0  0
   -4.0056    0.8389    0.7989 H   0  0  0  0  0  0  0  0  0  0  0  0
   -1.4052    0.2028    0.0203 C   0  0  0  0  0  0  0  0  0  0  0  0
   -2.7482   -1.2737   -0.7939 H   0  0  0  0  0  0  0  0  0  0  0  0
   -2.7542   -1.2948    0.9962 H   0  0  0  0  0  0  0  0  0  0  0  0
   -0.1454   -0.7036    0.0152 C   0  0  0  0  0  0  0  0  0  0  0  0
   -1.4163    0.8872    0.8911 H   0  0  0  0  0  0  0  0  0  0  0  0
   -1.4198    0.8175   -0.8714 H   0  0  0  0  0  0  0  0  0  0  0  0
   -0.1484   -1.1892    0.8236 H   0  0  0  0  0  0  0  0  0  0  0  0
    0.7397   -0.1406    0.1186 H   0  0  0  0  0  0  0  0  0  0  0  0
   -0.0521   -1.5188   -0.9342 H   0  0  0  0  0  0  0  0  0  0  0  0
  1  3  1  0  0  0  0
  1  2  1  0  0  0  0
  1  5  1  0  0  0  0
  2  8  1  0  0  0  0
  4  1  1  0  0  0  0
  6  2  1  0  0  0  0
  6 10  1  0  0  0  0
  7  2  1  0  0  0  0
  9  6  1  0  0  0  0
  9 13  1  0  0  0  0
  9 12  1  0  0  0  0
 11  6  1  0  0  0  0
 14  9  1  0  0  0  0
M  END
$$$$
