butane_opt
 OpenBabel08242015403D

 14 13  0  0  0  0  0  0  0  0999 V2000
   -3.9594    0.2793    0.0062 C   0  0  0  0  0  0  0  0  0  0  0  0
   -2.6979   -0.6378    0.0605 C   0  0  0  0  0  0  0  0  0  0  0  0
   -4.8425   -0.2879   -0.0696 H   0  0  0  0  0  0  0  0  0  0  0  0
   -3.9344    0.8433   -0.8528 H   0  0  0  0  0  0  0  0  0  0  0  0
   -3.9815    0.9772    0.8540 H   0  0  0  0  0  0  0  0  0  0  0  0
   -1.3928    0.1810    0.0308 C   0  0  0  0  0  0  0  0  0  0  0  0
   -2.7267   -1.3285   -0.8223 H   0  0  0  0  0  0  0  0  0  0  0  0
   -2.7245   -1.2583    0.9406 H   0  0  0  0  0  0  0  0  0  0  0  0
   -0.1635   -0.6847    0.0128 C   0  0  0  0  0  0  0  0  0  0  0  0
   -1.3300    0.8429    0.8755 H   0  0  0  0  0  0  0  0  0  0  0  0
   -1.3990    0.8512   -0.8979 H   0  0  0  0  0  0  0  0  0  0  0  0
   -0.1136   -1.3391    0.9464 H   0  0  0  0  0  0  0  0  0  0  0  0
    0.7299   -0.1029   -0.0236 H   0  0  0  0  0  0  0  0  0  0  0  0
   -0.1505   -1.3228   -0.8257 H   0  0  0  0  0  0  0  0  0  0  0  0
  1  2  1  0  0  0  0
  1  5  1  0  0  0  0
  2  8  1  0  0  0  0
  3  1  1  0  0  0  0
  4  1  1  0  0  0  0
  6  2  1  0  0  0  0
  6 10  1  0  0  0  0
  7  2  1  0  0  0  0
  9  6  1  0  0  0  0
  9 12  1  0  0  0  0
 11  6  1  0  0  0  0
 13  9  1  0  0  0  0
 14  9  1  0  0  0  0
M  END
$$$$
