14
butane_opt
C  -3.941642   0.275574   0.035907
C  -2.692120  -0.617038   0.016364
H  -4.884986  -0.351042   0.007135
H  -3.950902   0.893709  -0.858678
H  -3.998376   0.952087   0.881769
C  -1.399332   0.161449   0.007551
H  -2.696059  -1.335294  -0.856163
H  -2.694545  -1.248187   0.902489
C  -0.171010  -0.681002   0.037231
H  -1.397981   0.905047   0.891198
H  -1.387079   0.770495  -0.874320
H  -0.106435  -1.404430   1.011673
H   0.751517  -0.097101  -0.089947
H  -0.209402  -1.221892  -0.725145
