14
butane_opt
C  -3.947901   0.255780   0.006299
C  -2.711920  -0.601359   0.058905
H  -4.887833  -0.343924   0.054508
H  -3.985858   0.891920  -0.889985
H  -3.943875   0.873081   0.849747
C  -1.410679   0.199138   0.009018
H  -2.738657  -1.269138  -0.781846
H  -2.722902  -1.262012   0.974285
C  -0.144068  -0.705284   0.024100
H  -1.354565   0.835889   0.808834
H  -1.395105   0.828695  -0.881032
H  -0.118675  -1.187694   0.826679
H   0.747396  -0.123683   0.182492
H  -0.044488  -1.500309  -0.898497
