butane_opt
 OpenBabel08242015403D

 14 13  0  0  0  0  0  0  0  0999 V2000
   -3.9535    0.2744    0.0061 C   0  0  0  0  0  0  0  0  0  0  0  0
   -2.6990   -0.6360    0.0554 C   0  0  0  0  0  0  0  0  0  0  0  0
   -4.8039   -0.2867    0.1192 H   0  0  0  0  0  0  0  0  0  0  0  0
   -4.0168    0.9821   -0.9630 H   0  0  0  0  0  0  0  0  0  0  0  0
   -4.0052    0.8317    0.7724 H   0  0  0  0  0  0  0  0  0  0  0  0
   -1.3970    0.1784    0.0305 C   0  0  0  0  0  0  0  0  0  0  0  0
   -2.7324   -1.3229   -0.8228 H   0  0  0  0  0  0  0  0  0  0  0  0
   -2.6975   -1.2296    0.9331 H   0  0  0  0  0  0  0  0  0  0  0  0
   -0.1532   -0.6788    0.0172 C   0  0  0  0  0  0  0  0  0  0  0  0
   -1.4077    0.8993    0.8880 H   0  0  0  0  0  0  0  0  0  0  0  0
   -1.3894    0.7750   -0.8466 H   0  0  0  0  0  0  0  0  0  0  0  0
   -0.1580   -1.2581    0.8959 H   0  0  0  0  0  0  0  0  0  0  0  0
    0.7446   -0.1028    0.0270 H   0  0  0  0  0  0  0  0  0  0  0  0
   -0.1299   -1.4128   -0.8935 H   0  0  0  0  0  0  0  0  0  0  0  0
  1  2  1  0  0  0  0
  1  3  1  0  0  0  0
  1  5  1  0  0  0  0
  2  8  1  0  0  0  0
  4  1  1  0  0  0  0
  6  2  1  0  0  0  0
  6 10  1  0  0  0  0
  7  2  1  0  0  0  0
  9 13  1  0  0  0  0
  9  6  1  0  0  0  0
  9 12  1  0  0  0  0
 11  6  1  0  0  0  0
 14  9  1  0  0  0  0
M  END
$$$$
