14
butane_opt
C  -3.932568   0.276020   0.001584
C  -2.694378  -0.622155   0.051673
H  -4.824510  -0.284267   0.081219
H  -4.031965   0.961259  -0.954879
H  -3.927891   0.862937   0.798902
C  -1.402456   0.166962   0.038529
H  -2.675039  -1.303923  -0.784061
H  -2.760934  -1.295452   0.959213
C  -0.167413  -0.679264   0.012074
H  -1.394302   0.824443   0.889670
H  -1.416677   0.778794  -0.825528
H  -0.183218  -1.236529   0.869187
H   0.734455  -0.081736   0.035472
H  -0.186528  -1.385726  -0.890093
