butane_opt
 OpenBabel08242015403D

 14 13  0  0  0  0  0  0  0  0999 V2000
   -3.9487    0.2792    0.0045 C   0  0  0  0  0  0  0  0  0  0  0  0
   -2.7007   -0.6357    0.0273 C   0  0  0  0  0  0  0  0  0  0  0  0
   -4.8718   -0.3164    0.1760 H   0  0  0  0  0  0  0  0  0  0  0  0
   -4.0286    0.9735   -0.9432 H   0  0  0  0  0  0  0  0  0  0  0  0
   -3.9473    0.8819    0.8495 H   0  0  0  0  0  0  0  0  0  0  0  0
   -1.3959    0.1821    0.0282 C   0  0  0  0  0  0  0  0  0  0  0  0
   -2.7225   -1.2925   -0.7897 H   0  0  0  0  0  0  0  0  0  0  0  0
   -2.7092   -1.2963    0.9249 H   0  0  0  0  0  0  0  0  0  0  0  0
   -0.1624   -0.6843    0.0327 C   0  0  0  0  0  0  0  0  0  0  0  0
   -1.3528    0.9027    0.9088 H   0  0  0  0  0  0  0  0  0  0  0  0
   -1.3690    0.7452   -0.8403 H   0  0  0  0  0  0  0  0  0  0  0  0
   -0.0809   -1.2849    0.9075 H   0  0  0  0  0  0  0  0  0  0  0  0
    0.7356   -0.1179   -0.0401 H   0  0  0  0  0  0  0  0  0  0  0  0
   -0.1872   -1.3520   -0.8313 H   0  0  0  0  0  0  0  0  0  0  0  0
  1  2  1  0  0  0  0
  1  3  1  0  0  0  0
  1  5  1  0  0  0  0
  2  6  1  0  0  0  0
  2  8  1  0  0  0  0
  4  1  1  0  0  0  0
  6  9  1  0  0  0  0
  6 10  1  0  0  0  0
  7  2  1  0  0  0  0
  9 12  1  0  0  0  0
 11  6  1  0  0  0  0
 13  9  1  0  0  0  0
 14  9  1  0  0  0  0
M  END
$$$$
