14
butane_opt
C  -3.932475   0.251182  -0.000622
C  -2.696229  -0.602901   0.051160
H  -4.856988  -0.373284  -0.028039
H  -3.879185   0.886609  -0.894786
H  -3.956362   0.951061   0.888493
C  -1.416474   0.200036   0.039727
H  -2.714388  -1.269230  -0.803326
H  -2.710777  -1.271117   0.959242
C  -0.174152  -0.705337   0.014184
H  -1.363691   0.895568   0.890041
H  -1.373369   0.842252  -0.843040
H  -0.044931  -1.377738   0.933485
H   0.733545  -0.132720  -0.085042
H  -0.217819  -1.342701  -0.824670
