butane_opt
 OpenBabel08242015403D

 14 13  0  0  0  0  0  0  0  0999 V2000
   -3.9258    0.2552    0.0348 C   0  0  0  0  0  0  0  0  0  0  0  0
   -2.7140   -0.6000    0.0386 C   0  0  0  0  0  0  0  0  0  0  0  0
   -4.8827   -0.3831    0.0342 H   0  0  0  0  0  0  0  0  0  0  0  0
   -3.9324    0.8988   -0.8886 H   0  0  0  0  0  0  0  0  0  0  0  0
   -3.9150    0.9243    0.8906 H   0  0  0  0  0  0  0  0  0  0  0  0
   -1.4138    0.1965   -0.0205 C   0  0  0  0  0  0  0  0  0  0  0  0
   -2.7760   -1.2852   -0.8059 H   0  0  0  0  0  0  0  0  0  0  0  0
   -2.6650   -1.2198    0.8981 H   0  0  0  0  0  0  0  0  0  0  0  0
   -0.1562   -0.7115    0.0479 C   0  0  0  0  0  0  0  0  0  0  0  0
   -1.4304    0.8426    0.8152 H   0  0  0  0  0  0  0  0  0  0  0  0
   -1.4073    0.8367   -0.9062 H   0  0  0  0  0  0  0  0  0  0  0  0
   -0.1853   -1.2435    0.8672 H   0  0  0  0  0  0  0  0  0  0  0  0
    0.7667   -0.0815    0.1632 H   0  0  0  0  0  0  0  0  0  0  0  0
   -0.0759   -1.4455   -0.8506 H   0  0  0  0  0  0  0  0  0  0  0  0
  1  2  1  0  0  0  0
  1  5  1  0  0  0  0
  2  8  1  0  0  0  0
  3  1  1  0  0  0  0
  4  1  1  0  0  0  0
  6  2  1  0  0  0  0
  6  9  1  0  0  0  0
  6 10  1  0  0  0  0
  7  2  1  0  0  0  0
  9 13  1  0  0  0  0
  9 12  1  0  0  0  0
 11  6  1  0  0  0  0
 14  9  1  0  0  0  0
M  END
$$$$
