butane_opt
 OpenBabel08242015403D

 14 13  0  0  0  0  0  0  0  0999 V2000
   -3.9342    0.2554   -0.0090 C   0  0  0  0  0  0  0  0  0  0  0  0
   -2.6932   -0.6054    0.0586 C   0  0  0  0  0  0  0  0  0  0  0  0
   -4.8590   -0.3620   -0.0102 H   0  0  0  0  0  0  0  0  0  0  0  0
   -3.9517    0.9042   -0.9054 H   0  0  0  0  0  0  0  0  0  0  0  0
   -3.9961    0.9115    0.8398 H   0  0  0  0  0  0  0  0  0  0  0  0
   -1.4173    0.1835    0.0566 C   0  0  0  0  0  0  0  0  0  0  0  0
   -2.6712   -1.2627   -0.7854 H   0  0  0  0  0  0  0  0  0  0  0  0
   -2.7301   -1.2015    0.9534 H   0  0  0  0  0  0  0  0  0  0  0  0
   -0.1629   -0.6996    0.0051 C   0  0  0  0  0  0  0  0  0  0  0  0
   -1.4135    0.8787    0.9083 H   0  0  0  0  0  0  0  0  0  0  0  0
   -1.3739    0.8135   -0.8550 H   0  0  0  0  0  0  0  0  0  0  0  0
   -0.0665   -1.3575    0.9214 H   0  0  0  0  0  0  0  0  0  0  0  0
    0.7920   -0.0857   -0.1299 H   0  0  0  0  0  0  0  0  0  0  0  0
   -0.2541   -1.3216   -0.8329 H   0  0  0  0  0  0  0  0  0  0  0  0
  1  2  1  0  0  0  0
  1  5  1  0  0  0  0
  2  8  1  0  0  0  0
  3  1  1  0  0  0  0
  4  1  1  0  0  0  0
  6  2  1  0  0  0  0
  6 10  1  0  0  0  0
  7  2  1  0  0  0  0
  9  6  1  0  0  0  0
  9 12  1  0  0  0  0
 11  6  1  0  0  0  0
 13  9  1  0  0  0  0
 14  9  1  0  0  0  0
M  END
$$$$
