14
butane_opt
C  -3.955660   0.263838   0.048036
C  -2.702931  -0.618953   0.015853
H  -4.871546  -0.311264  -0.030020
H  -3.899163   0.839840  -0.816423
H  -4.006463   1.026971   0.962682
C  -1.402185   0.181258  -0.024211
H  -2.764420  -1.298412  -0.839597
H  -2.671333  -1.206732   0.899229
C  -0.158132  -0.691595   0.059617
H  -1.349765   0.795460   0.800223
H  -1.351950   0.832931  -0.944931
H  -0.129824  -1.325854   0.977330
H   0.757528  -0.104807   0.046569
H  -0.113301  -1.336394  -0.795500
