14
butane_opt
C  -3.948539   0.285095   0.030675
C  -2.707120  -0.635080   0.019414
H  -4.855649  -0.304385   0.171691
H  -4.069478   0.957304  -0.894292
H  -3.953376   0.845371   0.844030
C  -1.388531   0.169866  -0.008193
H  -2.709653  -1.328820  -0.837353
H  -2.718368  -1.215387   0.884818
C  -0.155224  -0.683743   0.042433
H  -1.388058   0.876578   0.896212
H  -1.402906   0.758085  -0.867985
H  -0.183126  -1.292393   0.942453
H   0.758046  -0.066529   0.092908
H  -0.114817  -1.329108  -0.808727
