14
butane_opt
C  -3.945990   0.277409  -0.019459
C  -2.706637  -0.636043   0.069019
H  -4.866738  -0.308592  -0.047408
H  -4.003836   0.900708  -0.898946
H  -4.003682   0.944132   0.836794
C  -1.395672   0.183786   0.050884
H  -2.632864  -1.281885  -0.756333
H  -2.739505  -1.304257   1.011820
C  -0.165463  -0.684565  -0.001445
H  -1.331713   0.911161   0.956829
H  -1.368454   0.763483  -0.787674
H  -0.049725  -1.366279   0.936863
H   0.750826  -0.086375  -0.128758
H  -0.214099  -1.332592  -0.872769
