14
butane_opt
C  -3.934727   0.252824  -0.005434
C  -2.698199  -0.602162   0.074992
H  -4.855085  -0.362699  -0.080056
H  -3.826481   0.831198  -0.904878
H  -4.033003   0.976445   0.885399
C  -1.412186   0.189078   0.026040
H  -2.725327  -1.208653  -0.743503
H  -2.717507  -1.285391   1.017809
C  -0.159070  -0.703344   0.006123
H  -1.381234   0.935169   0.909598
H  -1.478654   0.800553  -0.872246
H  -0.149774  -1.305972   0.868296
H   0.755667  -0.081568   0.026111
H  -0.158360  -1.414304  -0.880370
