14
butane_opt
C  -3.946908   0.270930  -0.003365
C  -2.709191  -0.627935   0.046240
H  -4.802532  -0.263853   0.192979
H  -4.034637   1.014989  -0.975059
H  -3.911787   0.814713   0.767644
C  -1.396693   0.176620   0.034669
H  -2.703782  -1.300059  -0.785321
H  -2.745876  -1.262419   0.936662
C  -0.156516  -0.685322   0.014351
H  -1.344199   0.912541   0.943906
H  -1.442819   0.757464  -0.802312
H  -0.153734  -1.255862   0.892107
H   0.737830  -0.075734   0.017284
H  -0.123562  -1.414496  -0.868617
