14
butane_opt
C  -3.940412   0.275876   0.048456
C  -2.694406  -0.620397  -0.001093
H  -4.852033  -0.328302   0.009959
H  -3.981305   0.862824  -0.858422
H  -3.915740   0.955113   0.936669
C  -1.410020   0.164757   0.001046
H  -2.720296  -1.317055  -0.868712
H  -2.674738  -1.181714   0.833736
C  -0.176074  -0.685446   0.060656
H  -1.368223   0.795549   0.818741
H  -1.347815   0.845289  -0.911481
H  -0.087741  -1.399525   1.021157
H   0.771979  -0.049939  -0.107871
H  -0.206209  -1.263124  -0.733820
