14
butane_opt
C  -3.940821   0.279132   0.043597
C  -2.687962  -0.628841   0.012217
H  -4.861523  -0.350420   0.084143
H  -4.054503   0.905165  -0.842610
H  -3.915332   0.922893   0.923958
C  -1.398667   0.174445  -0.015075
H  -2.692576  -1.358380  -0.872932
H  -2.691544  -1.235158   0.890954
C  -0.176330  -0.684793   0.055988
H  -1.425629   0.782711   0.819786
H  -1.358308   0.885861  -0.969168
H  -0.205781  -1.245431   0.932974
H   0.730343  -0.106699   0.118524
H  -0.102177  -1.349933  -0.813782
