14
butane_opt
C  -3.946102   0.251424   0.051111
C  -2.715809  -0.602402   0.007229
H  -4.881265  -0.371841  -0.045584
H  -3.955044   0.850485  -0.830556
H  -3.987706   0.967394   0.954008
C  -1.410216   0.198060  -0.008742
H  -2.741688  -1.332537  -0.886853
H  -2.724266  -1.151748   0.845513
C  -0.137580  -0.706938   0.058191
H  -1.431582   0.844208   0.820281
H  -1.377416   0.842655  -0.888282
H  -0.035433  -1.442175   1.028198
H   0.778152  -0.144248  -0.125188
H  -0.143057  -1.216733  -0.710360
