14
butane_opt
C  -3.928986   0.257088   0.054104
C  -2.701388  -0.599713  -0.005970
H  -4.868091  -0.351295   0.195428
H  -3.995613   0.923632  -0.862505
H  -3.864981   0.849699   0.858531
C  -1.411116   0.194831  -0.024690
H  -2.793853  -1.340217  -0.900345
H  -2.685338  -1.177528   0.855739
C  -0.167451  -0.710417   0.068972
H  -1.475552   0.902200   0.848146
H  -1.356754   0.801019  -0.919350
H  -0.195265  -1.354634   0.995141
H   0.798598  -0.070140   0.034352
H  -0.084359  -1.351550  -0.786338
