14
butane_opt
C  -3.950607   0.260767   0.005065
C  -2.707436  -0.615340   0.073334
H  -4.838803  -0.310684  -0.142381
H  -3.885470   0.833911  -0.886012
H  -4.060206   0.920691   0.875426
C  -1.401973   0.201928   0.025864
H  -2.676905  -1.305324  -0.762921
H  -2.716712  -1.282076   0.981914
C  -0.153180  -0.700402   0.007147
H  -1.367619   0.911036   0.883441
H  -1.393895   0.827988  -0.875436
H  -0.109719  -1.314741   0.904177
H   0.737990  -0.130207  -0.012914
H  -0.150366  -1.387675  -0.863383
