14
butane_opt
C  -3.933602   0.253610   0.044322
C  -2.696339  -0.603275  -0.000469
H  -4.899048  -0.378189   0.020368
H  -3.972045   0.840877  -0.807534
H  -3.896392   0.943521   0.933807
C  -1.412844   0.196926  -0.004934
H  -2.716050  -1.298567  -0.851298
H  -2.684960  -1.189349   0.854046
C  -0.166591  -0.705065   0.059414
H  -1.415352   0.839316   0.831728
H  -1.432616   0.869776  -0.916853
H  -0.097281  -1.416226   1.029688
H   0.756787  -0.112817  -0.063626
H  -0.151658  -1.282563  -0.759580
