14
butane_opt
C  -3.938456   0.258197  -0.001816
C  -2.710475  -0.611418   0.063850
H  -4.883359  -0.372541  -0.024988
H  -3.959471   0.911458  -0.934048
H  -4.005935   0.901524   0.839320
C  -1.400956   0.201387   0.047698
H  -2.697455  -1.327938  -0.824219
H  -2.788418  -1.170654   0.925271
C  -0.153590  -0.703981   0.007632
H  -1.335493   0.900655   0.898310
H  -1.420129   0.794266  -0.828620
H  -0.037978  -1.403089   0.954212
H   0.706627  -0.153378  -0.142918
H  -0.148960  -1.291353  -0.822814
