14
butane_opt
C  -3.957679   0.270650   0.027411
C  -2.707830  -0.638167   0.036261
H  -4.855211  -0.287849  -0.125405
H  -3.923508   0.813744  -0.813560
H  -4.000969   1.052883   0.949957
C  -1.397214   0.187794   0.002864
H  -2.691492  -1.263974  -0.767651
H  -2.703830  -1.279931   0.923665
C  -0.158105  -0.686951   0.039207
H  -1.372384   0.863034   0.829483
H  -1.346526   0.822011  -0.914751
H  -0.090501  -1.360572   0.968553
H   0.749411  -0.113385  -0.044785
H  -0.147426  -1.319709  -0.822875
