butane_opt
 OpenBabel08242015403D

 14 13  0  0  0  0  0  0  0  0999 V2000
   -3.9470    0.2784    0.0269 C   0  0  0  0  0  0  0  0  0  0  0  0
   -2.6901   -0.6298    0.0210 C   0  0  0  0  0  0  0  0  0  0  0  0
   -4.8419   -0.3152    0.1132 H   0  0  0  0  0  0  0  0  0  0  0  0
   -4.0195    0.9106   -0.8742 H   0  0  0  0  0  0  0  0  0  0  0  0
   -3.9292    0.9241    0.8585 H   0  0  0  0  0  0  0  0  0  0  0  0
   -1.4002    0.1717    0.0024 C   0  0  0  0  0  0  0  0  0  0  0  0
   -2.7003   -1.3230   -0.8359 H   0  0  0  0  0  0  0  0  0  0  0  0
   -2.6787   -1.2909    0.9308 H   0  0  0  0  0  0  0  0  0  0  0  0
   -0.1671   -0.6788    0.0386 C   0  0  0  0  0  0  0  0  0  0  0  0
   -1.4365    0.8840    0.8694 H   0  0  0  0  0  0  0  0  0  0  0  0
   -1.3621    0.7672   -0.8867 H   0  0  0  0  0  0  0  0  0  0  0  0
   -0.1624   -1.3120    0.9586 H   0  0  0  0  0  0  0  0  0  0  0  0
    0.7312   -0.0763    0.0512 H   0  0  0  0  0  0  0  0  0  0  0  0
   -0.1766   -1.3312   -0.8124 H   0  0  0  0  0  0  0  0  0  0  0  0
  1  3  1  0  0  0  0
  1  5  1  0  0  0  0
  2  1  1  0  0  0  0
  2  8  1  0  0  0  0
  4  1  1  0  0  0  0
  6  2  1  0  0  0  0
  6  9  1  0  0  0  0
  6 10  1  0  0  0  0
  7  2  1  0  0  0  0
  9 13  1  0  0  0  0
  9 12  1  0  0  0  0
 11  6  1  0  0  0  0
 14  9  1  0  0  0  0
M  END
$$$$
