14
butane_opt
C  -3.936171   0.261590   0.000071
C  -2.696430  -0.617309   0.046512
H  -4.821567  -0.311736   0.127521
H  -4.017200   0.962070  -0.939856
H  -3.934263   0.892098   0.844691
C  -1.409705   0.180326   0.029974
H  -2.682503  -1.301036  -0.810744
H  -2.777740  -1.258693   0.948803
C  -0.157566  -0.690888   0.021225
H  -1.381659   0.906365   0.917759
H  -1.408765   0.773702  -0.866196
H  -0.120830  -1.283119   0.887077
H   0.710645  -0.104692   0.002168
H  -0.188251  -1.347668  -0.844402
