14
butane_opt
C  -3.933381   0.258482  -0.015211
C  -2.704540  -0.604168   0.063369
H  -4.876954  -0.354544   0.006058
H  -3.944714   0.932940  -0.956020
H  -3.922744   0.866356   0.827763
C  -1.412240   0.195971   0.065745
H  -2.696299  -1.300243  -0.797262
H  -2.822795  -1.249587   0.987009
C  -0.155861  -0.705007  -0.003868
H  -1.380418   0.881907   0.924390
H  -1.456933   0.812509  -0.823378
H  -0.038256  -1.351916   0.918380
H   0.766641  -0.092132  -0.113066
H  -0.183695  -1.354520  -0.856933
