14
butane_opt
C  -3.942777   0.256660   0.011714
C  -2.713718  -0.617344   0.036793
H  -4.879214  -0.339286   0.016873
H  -3.956143   0.820917  -0.854890
H  -3.941667   0.982154   0.909377
C  -1.408998   0.212439   0.023952
H  -2.736031  -1.339774  -0.837010
H  -2.735365  -1.175634   0.893156
C  -0.140787  -0.708341   0.034304
H  -1.360081   0.845353   0.855422
H  -1.390196   0.840780  -0.897307
H  -0.048284  -1.415164   0.968771
H   0.701648  -0.173552  -0.104964
H  -0.192527  -1.244895  -0.769451
