14
butane_opt
C  -3.959391   0.271522   0.030452
C  -2.702094  -0.630305   0.031489
H  -4.865096  -0.292101  -0.017563
H  -3.960088   0.798118  -0.796855
H  -3.983299   1.057669   0.979447
C  -1.396094   0.180077  -0.028050
H  -2.769401  -1.276534  -0.800771
H  -2.672224  -1.232068   0.905616
C  -0.152972  -0.692473   0.049082
H  -1.367327   0.840253   0.838386
H  -1.378601   0.803720  -0.916655
H  -0.189098  -1.330959   0.968353
H   0.797618  -0.065376   0.083462
H  -0.115616  -1.318130  -0.786325
