butane_opt
 OpenBabel08242015403D

 14 13  0  0  0  0  0  0  0  0999 V2000
   -3.9279    0.2558    0.0323 C   0  0  0  0  0  0  0  0  0  0  0  0
   -2.6946   -0.6061    0.0109 C   0  0  0  0  0  0  0  0  0  0  0  0
   -4.8898   -0.3918    0.0299 H   0  0  0  0  0  0  0  0  0  0  0  0
   -3.9900    0.8186   -0.8348 H   0  0  0  0  0  0  0  0  0  0  0  0
   -3.9368    0.9775    0.9564 H   0  0  0  0  0  0  0  0  0  0  0  0
   -1.4106    0.2012   -0.0010 C   0  0  0  0  0  0  0  0  0  0  0  0
   -2.7723   -1.3365   -0.8767 H   0  0  0  0  0  0  0  0  0  0  0  0
   -2.7032   -1.1658    0.8856 H   0  0  0  0  0  0  0  0  0  0  0  0
   -0.1683   -0.7039    0.0462 C   0  0  0  0  0  0  0  0  0  0  0  0
   -1.3655    0.8969    0.8765 H   0  0  0  0  0  0  0  0  0  0  0  0
   -1.4077    0.8212   -0.8945 H   0  0  0  0  0  0  0  0  0  0  0  0
   -0.0846   -1.4982    1.0515 H   0  0  0  0  0  0  0  0  0  0  0  0
    0.7091   -0.1538   -0.0910 H   0  0  0  0  0  0  0  0  0  0  0  0
   -0.1526   -1.2104   -0.7007 H   0  0  0  0  0  0  0  0  0  0  0  0
  1  5  1  0  0  0  0
  2  1  1  0  0  0  0
  2  8  1  0  0  0  0
  3  1  1  0  0  0  0
  4  1  1  0  0  0  0
  6  2  1  0  0  0  0
  6  9  1  0  0  0  0
  6 10  1  0  0  0  0
  7  2  1  0  0  0  0
  9 12  1  0  0  0  0
 11  6  1  0  0  0  0
 13  9  1  0  0  0  0
 14  9  1  0  0  0  0
M  END
$$$$
