butane_opt
 OpenBabel08242015403D

 14 13  0  0  0  0  0  0  0  0999 V2000
   -3.9403    0.2722    0.0313 C   0  0  0  0  0  0  0  0  0  0  0  0
   -2.6903   -0.6298    0.0337 C   0  0  0  0  0  0  0  0  0  0  0  0
   -4.8147   -0.2815   -0.0782 H   0  0  0  0  0  0  0  0  0  0  0  0
   -3.9601    0.8068   -0.8171 H   0  0  0  0  0  0  0  0  0  0  0  0
   -3.9693    1.0673    0.9670 H   0  0  0  0  0  0  0  0  0  0  0  0
   -1.3947    0.1776   -0.0083 C   0  0  0  0  0  0  0  0  0  0  0  0
   -2.7629   -1.3838   -0.8743 H   0  0  0  0  0  0  0  0  0  0  0  0
   -2.6931   -1.2213    0.9139 H   0  0  0  0  0  0  0  0  0  0  0  0
   -0.1782   -0.6844    0.0457 C   0  0  0  0  0  0  0  0  0  0  0  0
   -1.3809    0.8289    0.8098 H   0  0  0  0  0  0  0  0  0  0  0  0
   -1.4264    0.8486   -0.9180 H   0  0  0  0  0  0  0  0  0  0  0  0
   -0.1641   -1.3947    1.0232 H   0  0  0  0  0  0  0  0  0  0  0  0
    0.7798   -0.0751   -0.0412 H   0  0  0  0  0  0  0  0  0  0  0  0
   -0.1967   -1.2834   -0.7574 H   0  0  0  0  0  0  0  0  0  0  0  0
  1  2  1  0  0  0  0
  1  5  1  0  0  0  0
  2  8  1  0  0  0  0
  3  1  1  0  0  0  0
  4  1  1  0  0  0  0
  6  2  1  0  0  0  0
  6  9  1  0  0  0  0
  6 10  1  0  0  0  0
  7  2  1  0  0  0  0
  9 12  1  0  0  0  0
 11  6  1  0  0  0  0
 13  9  1  0  0  0  0
 14  9  1  0  0  0  0
M  END
$$$$
