butane_opt
 OpenBabel08242015403D

 14 13  0  0  0  0  0  0  0  0999 V2000
   -3.9381    0.2603   -0.0042 C   0  0  0  0  0  0  0  0  0  0  0  0
   -2.7037   -0.6190    0.0706 C   0  0  0  0  0  0  0  0  0  0  0  0
   -4.8483   -0.3524    0.0025 H   0  0  0  0  0  0  0  0  0  0  0  0
   -3.9634    0.8684   -0.9085 H   0  0  0  0  0  0  0  0  0  0  0  0
   -4.0043    0.9654    0.8704 H   0  0  0  0  0  0  0  0  0  0  0  0
   -1.3977    0.1994    0.0273 C   0  0  0  0  0  0  0  0  0  0  0  0
   -2.7145   -1.2374   -0.7739 H   0  0  0  0  0  0  0  0  0  0  0  0
   -2.7672   -1.2654    0.9722 H   0  0  0  0  0  0  0  0  0  0  0  0
   -0.1547   -0.7036    0.0129 C   0  0  0  0  0  0  0  0  0  0  0  0
   -1.3790    0.8302    0.8441 H   0  0  0  0  0  0  0  0  0  0  0  0
   -1.4508    0.8613   -0.8783 H   0  0  0  0  0  0  0  0  0  0  0  0
   -0.1609   -1.2216    0.8377 H   0  0  0  0  0  0  0  0  0  0  0  0
    0.7426   -0.1148    0.0845 H   0  0  0  0  0  0  0  0  0  0  0  0
   -0.1356   -1.4577   -0.8894 H   0  0  0  0  0  0  0  0  0  0  0  0
  1  3  1  0  0  0  0
  1  2  1  0  0  0  0
  1  5  1  0  0  0  0
  2  8  1  0  0  0  0
  4  1  1  0  0  0  0
  6  2  1  0  0  0  0
  6 10  1  0  0  0  0
  7  2  1  0  0  0  0
  9  6  1  0  0  0  0
  9 13  1  0  0  0  0
  9 12  1  0  0  0  0
 11  6  1  0  0  0  0
 14  9  1  0  0  0  0
M  END
$$$$
