14
butane_opt
C  -3.963712   0.277439  -0.005279
C  -2.700633  -0.632514   0.059830
H  -4.883050  -0.311494   0.030432
H  -3.977072   0.928703  -0.941460
H  -3.988181   0.909877   0.829582
C  -1.397735   0.182094   0.051905
H  -2.624618  -1.322769  -0.797030
H  -2.751193  -1.264900   0.956473
C  -0.152002  -0.686105   0.005943
H  -1.357407   0.818284   0.873518
H  -1.404178   0.789242  -0.847932
H  -0.061854  -1.293296   0.898880
H   0.771127  -0.058462  -0.040646
H  -0.186054  -1.348581  -0.866291
