butane_opt
 OpenBabel08242015403D

 14 13  0  0  0  0  0  0  0  0999 V2000
   -3.9316    0.2528    0.0333 C   0  0  0  0  0  0  0  0  0  0  0  0
   -2.7105   -0.5962    0.0129 C   0  0  0  0  0  0  0  0  0  0  0  0
   -4.8606   -0.3593    0.0177 H   0  0  0  0  0  0  0  0  0  0  0  0
   -3.9865    0.8361   -0.8255 H   0  0  0  0  0  0  0  0  0  0  0  0
   -3.8957    0.9321    0.9109 H   0  0  0  0  0  0  0  0  0  0  0  0
   -1.4126    0.1969   -0.0024 C   0  0  0  0  0  0  0  0  0  0  0  0
   -2.7310   -1.3054   -0.8711 H   0  0  0  0  0  0  0  0  0  0  0  0
   -2.6838   -1.2447    0.9291 H   0  0  0  0  0  0  0  0  0  0  0  0
   -0.1578   -0.6982    0.0504 C   0  0  0  0  0  0  0  0  0  0  0  0
   -1.4252    0.9015    0.8612 H   0  0  0  0  0  0  0  0  0  0  0  0
   -1.3434    0.8043   -0.8836 H   0  0  0  0  0  0  0  0  0  0  0  0
   -0.0724   -1.4224    1.0029 H   0  0  0  0  0  0  0  0  0  0  0  0
    0.7025   -0.1635   -0.0838 H   0  0  0  0  0  0  0  0  0  0  0  0
   -0.1681   -1.3191   -0.7459 H   0  0  0  0  0  0  0  0  0  0  0  0
  1  5  1  0  0  0  0
  2  1  1  0  0  0  0
  2  8  1  0  0  0  0
  3  1  1  0  0  0  0
  4  1  1  0  0  0  0
  6  2  1  0  0  0  0
  6  9  1  0  0  0  0
  6 10  1  0  0  0  0
  7  2  1  0  0  0  0
  9 12  1  0  0  0  0
 11  6  1  0  0  0  0
 13  9  1  0  0  0  0
 14  9  1  0  0  0  0
M  END
$$$$
