butane_opt
 OpenBabel08242015403D

 14 13  0  0  0  0  0  0  0  0999 V2000
   -3.9510    0.2838   -0.0157 C   0  0  0  0  0  0  0  0  0  0  0  0
   -2.7027   -0.6315    0.0718 C   0  0  0  0  0  0  0  0  0  0  0  0
   -4.8802   -0.2920   -0.0396 H   0  0  0  0  0  0  0  0  0  0  0  0
   -3.9939    0.8738   -0.9050 H   0  0  0  0  0  0  0  0  0  0  0  0
   -4.0106    0.9253    0.8170 H   0  0  0  0  0  0  0  0  0  0  0  0
   -1.3909    0.1726    0.0455 C   0  0  0  0  0  0  0  0  0  0  0  0
   -2.7145   -1.2536   -0.7197 H   0  0  0  0  0  0  0  0  0  0  0  0
   -2.7558   -1.3294    1.0365 H   0  0  0  0  0  0  0  0  0  0  0  0
   -0.1553   -0.6869   -0.0062 C   0  0  0  0  0  0  0  0  0  0  0  0
   -1.3505    0.8749    0.9402 H   0  0  0  0  0  0  0  0  0  0  0  0
   -1.4058    0.7874   -0.8469 H   0  0  0  0  0  0  0  0  0  0  0  0
   -0.1395   -1.2488    0.8710 H   0  0  0  0  0  0  0  0  0  0  0  0
    0.7899   -0.0623    0.0206 H   0  0  0  0  0  0  0  0  0  0  0  0
   -0.1708   -1.4002   -0.8897 H   0  0  0  0  0  0  0  0  0  0  0  0
  1  2  1  0  0  0  0
  1  5  1  0  0  0  0
  2  8  1  0  0  0  0
  3  1  1  0  0  0  0
  4  1  1  0  0  0  0
  6  2  1  0  0  0  0
  6 10  1  0  0  0  0
  7  2  1  0  0  0  0
  9 13  1  0  0  0  0
  9  6  1  0  0  0  0
  9 12  1  0  0  0  0
 11  6  1  0  0  0  0
 14  9  1  0  0  0  0
M  END
$$$$
