butane_opt
 OpenBabel08242015403D

 14 13  0  0  0  0  0  0  0  0999 V2000
   -3.9321    0.2804    0.0384 C   0  0  0  0  0  0  0  0  0  0  0  0
   -2.6862   -0.6314    0.0024 C   0  0  0  0  0  0  0  0  0  0  0  0
   -4.8288   -0.3245    0.1722 H   0  0  0  0  0  0  0  0  0  0  0  0
   -4.0984    0.8886   -0.8417 H   0  0  0  0  0  0  0  0  0  0  0  0
   -3.8929    0.9517    0.9069 H   0  0  0  0  0  0  0  0  0  0  0  0
   -1.3997    0.1731   -0.0146 C   0  0  0  0  0  0  0  0  0  0  0  0
   -2.7512   -1.3248   -0.8748 H   0  0  0  0  0  0  0  0  0  0  0  0
   -2.7078   -1.2526    0.8729 H   0  0  0  0  0  0  0  0  0  0  0  0
   -0.1766   -0.6922    0.0625 C   0  0  0  0  0  0  0  0  0  0  0  0
   -1.4195    0.8510    0.8185 H   0  0  0  0  0  0  0  0  0  0  0  0
   -1.3527    0.8299   -0.9133 H   0  0  0  0  0  0  0  0  0  0  0  0
   -0.2432   -1.2697    0.9572 H   0  0  0  0  0  0  0  0  0  0  0  0
    0.7652   -0.0694    0.0383 H   0  0  0  0  0  0  0  0  0  0  0  0
   -0.1535   -1.3059   -0.7643 H   0  0  0  0  0  0  0  0  0  0  0  0
  1  3  1  0  0  0  0
  1  5  1  0  0  0  0
  2  1  1  0  0  0  0
  2  8  1  0  0  0  0
  4  1  1  0  0  0  0
  6  2  1  0  0  0  0
  6  9  1  0  0  0  0
  6 10  1  0  0  0  0
  7  2  1  0  0  0  0
  9 12  1  0  0  0  0
 11  6  1  0  0  0  0
 13  9  1  0  0  0  0
 14  9  1  0  0  0  0
M  END
$$$$
