14
butane_opt
C  -3.950467   0.265492   0.009032
C  -2.689270  -0.619679   0.037662
H  -4.828380  -0.277233   0.040019
H  -3.967416   0.925196  -0.923711
H  -3.990212   0.911404   0.868461
C  -1.407216   0.170457   0.037897
H  -2.671822  -1.323594  -0.832762
H  -2.734557  -1.229411   0.944917
C  -0.166269  -0.681185   0.022870
H  -1.403722   0.852585   0.896250
H  -1.365684   0.817449  -0.865605
H  -0.052095  -1.373735   0.951579
H   0.800029  -0.055837  -0.092181
H  -0.259742  -1.326807  -0.831387
