14
butane_opt
C  -3.942670   0.261421   0.001969
C  -2.698030  -0.603513   0.059122
H  -4.891453  -0.374279  -0.071013
H  -3.920054   0.766456  -0.829699
H  -3.978287   0.950310   0.905301
C  -1.402102   0.199013   0.016222
H  -2.657071  -1.244442  -0.736673
H  -2.766947  -1.277650   0.981236
C  -0.161366  -0.705006   0.016458
H  -1.389645   0.859680   0.870836
H  -1.434749   0.848222  -0.869047
H  -0.117268  -1.316702   0.896682
H   0.731930  -0.126742   0.036580
H  -0.144387  -1.387808  -0.859540
