14
butane_opt
C  -3.926605   0.248154   0.001400
C  -2.708215  -0.591566   0.062677
H  -4.856464  -0.333418   0.010246
H  -3.957447   0.911759  -0.941675
H  -3.948960   0.894736   0.846915
C  -1.405874   0.187941   0.031520
H  -2.654477  -1.272436  -0.773279
H  -2.776448  -1.248397   1.001184
C  -0.158893  -0.706873   0.010456
H  -1.391153   0.848808   0.890520
H  -1.419550   0.850386  -0.895973
H  -0.183803  -1.208444   0.848765
H   0.729173  -0.130676   0.063130
H  -0.154001  -1.443967  -0.895374
