butane_opt
 OpenBabel08242015403D

 14 13  0  0  0  0  0  0  0  0999 V2000
   -3.9560    0.2607   -0.0138 C   0  0  0  0  0  0  0  0  0  0  0  0
   -2.7161   -0.6144    0.0559 C   0  0  0  0  0  0  0  0  0  0  0  0
   -4.8765   -0.3246    0.1211 H   0  0  0  0  0  0  0  0  0  0  0  0
   -3.9735    0.9416   -0.9555 H   0  0  0  0  0  0  0  0  0  0  0  0
   -3.9124    0.8812    0.8105 H   0  0  0  0  0  0  0  0  0  0  0  0
   -1.3913    0.1925    0.0404 C   0  0  0  0  0  0  0  0  0  0  0  0
   -2.7407   -1.2266   -0.7543 H   0  0  0  0  0  0  0  0  0  0  0  0
   -2.7327   -1.2826    0.9792 H   0  0  0  0  0  0  0  0  0  0  0  0
   -0.1416   -0.7061    0.0106 C   0  0  0  0  0  0  0  0  0  0  0  0
   -1.4087    0.9177    0.9178 H   0  0  0  0  0  0  0  0  0  0  0  0
   -1.4216    0.7814   -0.7899 H   0  0  0  0  0  0  0  0  0  0  0  0
   -0.0773   -1.2533    0.8547 H   0  0  0  0  0  0  0  0  0  0  0  0
    0.7610   -0.1263    0.0173 H   0  0  0  0  0  0  0  0  0  0  0  0
   -0.1789   -1.3765   -0.8884 H   0  0  0  0  0  0  0  0  0  0  0  0
  1  2  1  0  0  0  0
  1  3  1  0  0  0  0
  1  5  1  0  0  0  0
  2  8  1  0  0  0  0
  4  1  1  0  0  0  0
  6  2  1  0  0  0  0
  6 10  1  0  0  0  0
  7  2  1  0  0  0  0
  9 13  1  0  0  0  0
  9  6  1  0  0  0  0
  9 12  1  0  0  0  0
 11  6  1  0  0  0  0
 14  9  1  0  0  0  0
M  END
$$$$
