14
butane_opt
C  -3.934481   0.253141   0.045732
C  -2.696504  -0.605688   0.016985
H  -4.875049  -0.372129  -0.011116
H  -3.953430   0.804744  -0.804362
H  -3.966292   0.977598   0.937578
C  -1.414603   0.207888  -0.028435
H  -2.712251  -1.258899  -0.824001
H  -2.702800  -1.261160   0.946571
C  -0.161474  -0.703615   0.054402
H  -1.430088   0.829423   0.805653
H  -1.357356   0.837350  -0.915218
H  -0.164735  -1.311047   0.940422
H   0.730618  -0.133643   0.100998
H  -0.094829  -1.413078  -0.799632
