butane_opt
 OpenBabel08242015403D

 14 13  0  0  0  0  0  0  0  0999 V2000
   -3.9664    0.2740    0.0341 C   0  0  0  0  0  0  0  0  0  0  0  0
   -2.6880   -0.6260    0.0391 C   0  0  0  0  0  0  0  0  0  0  0  0
   -4.8642   -0.3069   -0.0614 H   0  0  0  0  0  0  0  0  0  0  0  0
   -3.9601    0.8614   -0.8490 H   0  0  0  0  0  0  0  0  0  0  0  0
   -4.0379    0.9696    0.9022 H   0  0  0  0  0  0  0  0  0  0  0  0
   -1.3978    0.1624   -0.0005 C   0  0  0  0  0  0  0  0  0  0  0  0
   -2.7325   -1.3339   -0.8384 H   0  0  0  0  0  0  0  0  0  0  0  0
   -2.6659   -1.2134    0.8968 H   0  0  0  0  0  0  0  0  0  0  0  0
   -0.1537   -0.6797    0.0382 C   0  0  0  0  0  0  0  0  0  0  0  0
   -1.3853    0.8583    0.8274 H   0  0  0  0  0  0  0  0  0  0  0  0
   -1.3293    0.8393   -0.9335 H   0  0  0  0  0  0  0  0  0  0  0  0
   -0.1553   -1.3123    0.9673 H   0  0  0  0  0  0  0  0  0  0  0  0
    0.7445   -0.1009    0.0108 H   0  0  0  0  0  0  0  0  0  0  0  0
   -0.1634   -1.3079   -0.8118 H   0  0  0  0  0  0  0  0  0  0  0  0
  1  2  1  0  0  0  0
  1  5  1  0  0  0  0
  2  8  1  0  0  0  0
  3  1  1  0  0  0  0
  4  1  1  0  0  0  0
  6  9  1  0  0  0  0
  6  2  1  0  0  0  0
  6 10  1  0  0  0  0
  7  2  1  0  0  0  0
  9 12  1  0  0  0  0
 11  6  1  0  0  0  0
 13  9  1  0  0  0  0
 14  9  1  0  0  0  0
M  END
$$$$
