butane_opt
 OpenBabel08242015403D

 14 13  0  0  0  0  0  0  0  0999 V2000
   -3.9310    0.2541   -0.0032 C   0  0  0  0  0  0  0  0  0  0  0  0
   -2.7018   -0.5993    0.0734 C   0  0  0  0  0  0  0  0  0  0  0  0
   -4.8666   -0.3417    0.0511 H   0  0  0  0  0  0  0  0  0  0  0  0
   -3.9045    0.9025   -0.9219 H   0  0  0  0  0  0  0  0  0  0  0  0
   -3.9717    0.8763    0.8513 H   0  0  0  0  0  0  0  0  0  0  0  0
   -1.4095    0.1930    0.0233 C   0  0  0  0  0  0  0  0  0  0  0  0
   -2.7132   -1.2873   -0.7963 H   0  0  0  0  0  0  0  0  0  0  0  0
   -2.7448   -1.2243    0.9851 H   0  0  0  0  0  0  0  0  0  0  0  0
   -0.1595   -0.7078    0.0096 C   0  0  0  0  0  0  0  0  0  0  0  0
   -1.3715    0.8681    0.8594 H   0  0  0  0  0  0  0  0  0  0  0  0
   -1.4190    0.8505   -0.9046 H   0  0  0  0  0  0  0  0  0  0  0  0
   -0.2234   -1.2060    0.8293 H   0  0  0  0  0  0  0  0  0  0  0  0
    0.7502   -0.1273    0.1408 H   0  0  0  0  0  0  0  0  0  0  0  0
   -0.1237   -1.4714   -0.9013 H   0  0  0  0  0  0  0  0  0  0  0  0
  1  3  1  0  0  0  0
  1  2  1  0  0  0  0
  1  5  1  0  0  0  0
  2  8  1  0  0  0  0
  4  1  1  0  0  0  0
  6  2  1  0  0  0  0
  6 10  1  0  0  0  0
  7  2  1  0  0  0  0
  9  6  1  0  0  0  0
  9 13  1  0  0  0  0
  9 12  1  0  0  0  0
 11  6  1  0  0  0  0
 14  9  1  0  0  0  0
M  END
$$$$
