butane_opt
 OpenBabel08242015403D

 14 13  0  0  0  0  0  0  0  0999 V2000
   -3.9383    0.2634    0.0556 C   0  0  0  0  0  0  0  0  0  0  0  0
   -2.6982   -0.6160   -0.0037 C   0  0  0  0  0  0  0  0  0  0  0  0
   -4.8123   -0.2790    0.1688 H   0  0  0  0  0  0  0  0  0  0  0  0
   -3.9940    0.9180   -0.8927 H   0  0  0  0  0  0  0  0  0  0  0  0
   -3.9346    0.9071    0.8980 H   0  0  0  0  0  0  0  0  0  0  0  0
   -1.3973    0.1747   -0.0276 C   0  0  0  0  0  0  0  0  0  0  0  0
   -2.7788   -1.3364   -0.8938 H   0  0  0  0  0  0  0  0  0  0  0  0
   -2.6627   -1.1988    0.8463 H   0  0  0  0  0  0  0  0  0  0  0  0
   -0.1741   -0.6910    0.0717 C   0  0  0  0  0  0  0  0  0  0  0  0
   -1.4068    0.8656    0.8635 H   0  0  0  0  0  0  0  0  0  0  0  0
   -1.3872    0.8394   -0.9553 H   0  0  0  0  0  0  0  0  0  0  0  0
   -0.1875   -1.3115    0.9622 H   0  0  0  0  0  0  0  0  0  0  0  0
    0.7672   -0.0921    0.0663 H   0  0  0  0  0  0  0  0  0  0  0  0
   -0.1376   -1.3476   -0.7740 H   0  0  0  0  0  0  0  0  0  0  0  0
  1  3  1  0  0  0  0
  1  5  1  0  0  0  0
  2  1  1  0  0  0  0
  2  8  1  0  0  0  0
  4  1  1  0  0  0  0
  6  2  1  0  0  0  0
  6  9  1  0  0  0  0
  6 10  1  0  0  0  0
  7  2  1  0  0  0  0
  9 12  1  0  0  0  0
 11  6  1  0  0  0  0
 13  9  1  0  0  0  0
 14  9  1  0  0  0  0
M  END
$$$$
