butane_opt
 OpenBabel08242015403D

 14 13  0  0  0  0  0  0  0  0999 V2000
   -3.9419    0.2510    0.0254 C   0  0  0  0  0  0  0  0  0  0  0  0
   -2.7013   -0.6078    0.0495 C   0  0  0  0  0  0  0  0  0  0  0  0
   -4.8507   -0.3211   -0.0855 H   0  0  0  0  0  0  0  0  0  0  0  0
   -3.9000    0.7937   -0.8017 H   0  0  0  0  0  0  0  0  0  0  0  0
   -3.9935    1.0374    0.9616 H   0  0  0  0  0  0  0  0  0  0  0  0
   -1.4075    0.2002   -0.0088 C   0  0  0  0  0  0  0  0  0  0  0  0
   -2.7186   -1.3468   -0.8556 H   0  0  0  0  0  0  0  0  0  0  0  0
   -2.6980   -1.1950    0.8933 H   0  0  0  0  0  0  0  0  0  0  0  0
   -0.1546   -0.7034    0.0407 C   0  0  0  0  0  0  0  0  0  0  0  0
   -1.4349    0.8345    0.8214 H   0  0  0  0  0  0  0  0  0  0  0  0
   -1.4146    0.8357   -0.9228 H   0  0  0  0  0  0  0  0  0  0  0  0
   -0.1772   -1.3764    0.9794 H   0  0  0  0  0  0  0  0  0  0  0  0
    0.7643   -0.0905   -0.0486 H   0  0  0  0  0  0  0  0  0  0  0  0
   -0.1339   -1.3222   -0.7705 H   0  0  0  0  0  0  0  0  0  0  0  0
  1  2  1  0  0  0  0
  1  5  1  0  0  0  0
  2  8  1  0  0  0  0
  3  1  1  0  0  0  0
  4  1  1  0  0  0  0
  6  9  1  0  0  0  0
  6  2  1  0  0  0  0
  6 10  1  0  0  0  0
  7  2  1  0  0  0  0
  9 12  1  0  0  0  0
 11  6  1  0  0  0  0
 13  9  1  0  0  0  0
 14  9  1  0  0  0  0
M  END
$$$$
