butane_opt
 OpenBabel08242015403D

 14 13  0  0  0  0  0  0  0  0999 V2000
   -3.9499    0.2507    0.0493 C   0  0  0  0  0  0  0  0  0  0  0  0
   -2.7090   -0.6135    0.0005 C   0  0  0  0  0  0  0  0  0  0  0  0
   -4.8370   -0.3235   -0.0227 H   0  0  0  0  0  0  0  0  0  0  0  0
   -3.9657    0.8384   -0.8320 H   0  0  0  0  0  0  0  0  0  0  0  0
   -3.9608    1.0213    0.9717 H   0  0  0  0  0  0  0  0  0  0  0  0
   -1.4152    0.2015   -0.0113 C   0  0  0  0  0  0  0  0  0  0  0  0
   -2.7779   -1.2982   -0.8485 H   0  0  0  0  0  0  0  0  0  0  0  0
   -2.6947   -1.2284    0.8618 H   0  0  0  0  0  0  0  0  0  0  0  0
   -0.1392   -0.7003    0.0585 C   0  0  0  0  0  0  0  0  0  0  0  0
   -1.4159    0.8636    0.8356 H   0  0  0  0  0  0  0  0  0  0  0  0
   -1.3616    0.8184   -0.8960 H   0  0  0  0  0  0  0  0  0  0  0  0
   -0.0842   -1.4475    1.0311 H   0  0  0  0  0  0  0  0  0  0  0  0
    0.7677   -0.1387   -0.0881 H   0  0  0  0  0  0  0  0  0  0  0  0
   -0.1321   -1.2313   -0.7224 H   0  0  0  0  0  0  0  0  0  0  0  0
  1  5  1  0  0  0  0
  2  1  1  0  0  0  0
  2  8  1  0  0  0  0
  3  1  1  0  0  0  0
  4  1  1  0  0  0  0
  6  2  1  0  0  0  0
  6  9  1  0  0  0  0
  6 10  1  0  0  0  0
  7  2  1  0  0  0  0
  9 12  1  0  0  0  0
 11  6  1  0  0  0  0
 13  9  1  0  0  0  0
 14  9  1  0  0  0  0
M  END
$$$$
