butane_opt
 OpenBabel08242015403D

 14 13  0  0  0  0  0  0  0  0999 V2000
   -3.9556    0.2786   -0.0044 C   0  0  0  0  0  0  0  0  0  0  0  0
   -2.7010   -0.6382    0.0525 C   0  0  0  0  0  0  0  0  0  0  0  0
   -4.8687   -0.3115    0.1292 H   0  0  0  0  0  0  0  0  0  0  0  0
   -4.0113    1.0397   -1.0084 H   0  0  0  0  0  0  0  0  0  0  0  0
   -3.9517    0.7916    0.7664 H   0  0  0  0  0  0  0  0  0  0  0  0
   -1.3966    0.1807    0.0456 C   0  0  0  0  0  0  0  0  0  0  0  0
   -2.7126   -1.3082   -0.8044 H   0  0  0  0  0  0  0  0  0  0  0  0
   -2.6566   -1.2810    0.9665 H   0  0  0  0  0  0  0  0  0  0  0  0
   -0.1556   -0.6802    0.0040 C   0  0  0  0  0  0  0  0  0  0  0  0
   -1.3494    0.9202    0.9709 H   0  0  0  0  0  0  0  0  0  0  0  0
   -1.4022    0.7772   -0.8020 H   0  0  0  0  0  0  0  0  0  0  0  0
   -0.1255   -1.2961    0.9028 H   0  0  0  0  0  0  0  0  0  0  0  0
    0.7263   -0.0868    0.0250 H   0  0  0  0  0  0  0  0  0  0  0  0
   -0.1695   -1.4089   -0.9040 H   0  0  0  0  0  0  0  0  0  0  0  0
  1  2  1  0  0  0  0
  1  3  1  0  0  0  0
  1  5  1  0  0  0  0
  2  8  1  0  0  0  0
  4  1  1  0  0  0  0
  6  2  1  0  0  0  0
  6 10  1  0  0  0  0
  7  2  1  0  0  0  0
  9 13  1  0  0  0  0
  9  6  1  0  0  0  0
  9 12  1  0  0  0  0
 11  6  1  0  0  0  0
 14  9  1  0  0  0  0
M  END
$$$$
