14
butane_opt
C  -3.935172   0.270260  -0.019823
C  -2.703169  -0.617181   0.095932
H  -4.847477  -0.342291  -0.060448
H  -3.919624   0.887524  -0.906423
H  -4.033834   0.975504   0.836581
C  -1.407849   0.170499   0.042301
H  -2.670889  -1.279042  -0.734786
H  -2.741236  -1.237314   0.958048
C  -0.163979  -0.691153  -0.010681
H  -1.348016   0.835976   0.883468
H  -1.401248   0.803768  -0.851188
H  -0.135805  -1.254362   0.870641
H   0.780816  -0.052387   0.050340
H  -0.186108  -1.399276  -0.896425
