14
butane_opt
C  -3.924654   0.261330   0.014639
C  -2.702875  -0.610125   0.029331
H  -4.826466  -0.313674   0.170791
H  -3.992858   0.979208  -0.971988
H  -3.906468   0.829622   0.813266
C  -1.414833   0.185454   0.031980
H  -2.737446  -1.321832  -0.847794
H  -2.735367  -1.226953   0.936936
C  -0.165763  -0.692247   0.022798
H  -1.425376   0.874324   0.888929
H  -1.343748   0.809171  -0.855528
H  -0.113602  -1.321356   0.924546
H   0.748398  -0.119860   0.022776
H  -0.193083  -1.386369  -0.838508
