14
butane_opt
C  -3.947971   0.260025   0.002065
C  -2.702594  -0.613192   0.056617
H  -4.860356  -0.330168   0.073576
H  -3.926935   0.891139  -0.914797
H  -3.990273   0.872958   0.836189
C  -1.412566   0.203228   0.019081
H  -2.698998  -1.262145  -0.766841
H  -2.746092  -1.312922   1.007942
C  -0.156597  -0.702573   0.019162
H  -1.373506   0.912176   0.865582
H  -1.360591   0.816998  -0.865608
H  -0.103675  -1.211819   0.849332
H   0.764063  -0.128368   0.096067
H  -0.090813  -1.491100  -0.915507
