14
butane_opt
C  -3.952947   0.274094   0.030308
C  -2.688210  -0.622857   0.020808
H  -4.871695  -0.320551   0.146532
H  -3.984790   0.968055  -0.917386
H  -3.976928   0.870929   0.837333
C  -1.398081   0.169521   0.008829
H  -2.701741  -1.338730  -0.844270
H  -2.690103  -1.228746   0.900035
C  -0.171724  -0.679536   0.042128
H  -1.415477   0.826466   0.835863
H  -1.366321   0.781743  -0.863951
H  -0.129880  -1.281354   0.933534
H   0.751596  -0.074457   0.031987
H  -0.115107  -1.362978  -0.852351
