14
butane_opt
C  -3.931812   0.257557   0.032579
C  -2.719560  -0.612457   0.003974
H  -4.833056  -0.333713   0.048164
H  -3.982425   0.812816  -0.829613
H  -3.916726   0.943776   0.919974
C  -1.409792   0.208671   0.004245
H  -2.761417  -1.251319  -0.839379
H  -2.677421  -1.257494   0.908749
C  -0.156110  -0.710842   0.053850
H  -1.437497   0.878213   0.857802
H  -1.373674   0.833583  -0.878202
H  -0.079118  -1.406583   0.968516
H   0.761165  -0.103293  -0.099363
H  -0.118229  -1.298605  -0.750640
