butane_opt
 OpenBabel08242015403D

 14 13  0  0  0  0  0  0  0  0999 V2000
   -3.9555    0.2527    0.0604 C   0  0  0  0  0  0  0  0  0  0  0  0
   -2.7119   -0.6065   -0.0188 C   0  0  0  0  0  0  0  0  0  0  0  0
   -4.9093   -0.3762    0.1968 H   0  0  0  0  0  0  0  0  0  0  0  0
   -4.0114    0.9778   -0.8921 H   0  0  0  0  0  0  0  0  0  0  0  0
   -3.8797    0.8538    0.8938 H   0  0  0  0  0  0  0  0  0  0  0  0
   -1.4074    0.2050   -0.0160 C   0  0  0  0  0  0  0  0  0  0  0  0
   -2.7434   -1.3461   -0.9126 H   0  0  0  0  0  0  0  0  0  0  0  0
   -2.6587   -1.1897    0.8377 H   0  0  0  0  0  0  0  0  0  0  0  0
   -0.1435   -0.7078    0.0715 C   0  0  0  0  0  0  0  0  0  0  0  0
   -1.4144    0.8637    0.8186 H   0  0  0  0  0  0  0  0  0  0  0  0
   -1.3608    0.8385   -0.9517 H   0  0  0  0  0  0  0  0  0  0  0  0
   -0.0776   -1.3564    0.9840 H   0  0  0  0  0  0  0  0  0  0  0  0
    0.7449   -0.1133    0.0639 H   0  0  0  0  0  0  0  0  0  0  0  0
   -0.0891   -1.3446   -0.7640 H   0  0  0  0  0  0  0  0  0  0  0  0
  1  3  1  0  0  0  0
  1  5  1  0  0  0  0
  2  6  1  0  0  0  0
  2  1  1  0  0  0  0
  2  8  1  0  0  0  0
  4  1  1  0  0  0  0
  6  9  1  0  0  0  0
  6 10  1  0  0  0  0
  7  2  1  0  0  0  0
  9 12  1  0  0  0  0
 11  6  1  0  0  0  0
 13  9  1  0  0  0  0
 14  9  1  0  0  0  0
M  END
$$$$
