14
butane_opt
C  -3.946141   0.272310  -0.006535
C  -2.696112  -0.631919   0.056914
H  -4.810614  -0.294601  -0.007795
H  -3.934609   0.892070  -0.897411
H  -4.077604   0.977046   0.854030
C  -1.408762   0.172357   0.040315
H  -2.729341  -1.290080  -0.757994
H  -2.678593  -1.268982   0.955553
C  -0.161998  -0.683634   0.006779
H  -1.350760   0.891156   0.925784
H  -1.392035   0.743769  -0.817045
H  -0.080140  -1.334262   0.924644
H   0.762714  -0.072694  -0.101899
H  -0.183058  -1.254138  -0.800982
