butane_opt
 OpenBabel08242015403D

 14 13  0  0  0  0  0  0  0  0999 V2000
   -3.9655    0.2772   -0.0134 C   0  0  0  0  0  0  0  0  0  0  0  0
   -2.6909   -0.6290    0.0576 C   0  0  0  0  0  0  0  0  0  0  0  0
   -4.8583   -0.3029    0.2027 H   0  0  0  0  0  0  0  0  0  0  0  0
   -4.0272    0.9934   -0.9647 H   0  0  0  0  0  0  0  0  0  0  0  0
   -3.9595    0.7972    0.7392 H   0  0  0  0  0  0  0  0  0  0  0  0
   -1.3970    0.1806    0.0366 C   0  0  0  0  0  0  0  0  0  0  0  0
   -2.6783   -1.2956   -0.7633 H   0  0  0  0  0  0  0  0  0  0  0  0
   -2.6970   -1.2745    0.9589 H   0  0  0  0  0  0  0  0  0  0  0  0
   -0.1630   -0.6879    0.0047 C   0  0  0  0  0  0  0  0  0  0  0  0
   -1.2865    0.9094    0.9600 H   0  0  0  0  0  0  0  0  0  0  0  0
   -1.4201    0.7233   -0.7816 H   0  0  0  0  0  0  0  0  0  0  0  0
   -0.1489   -1.2384    0.8667 H   0  0  0  0  0  0  0  0  0  0  0  0
    0.7614   -0.0521    0.0639 H   0  0  0  0  0  0  0  0  0  0  0  0
   -0.1211   -1.4138   -0.8821 H   0  0  0  0  0  0  0  0  0  0  0  0
  1  2  1  0  0  0  0
  1  3  1  0  0  0  0
  1  5  1  0  0  0  0
  2  8  1  0  0  0  0
  4  1  1  0  0  0  0
  6  2  1  0  0  0  0
  6 10  1  0  0  0  0
  7  2  1  0  0  0  0
  9  6  1  0  0  0  0
  9 13  1  0  0  0  0
  9 12  1  0  0  0  0
 11  6  1  0  0  0  0
 14  9  1  0  0  0  0
M  END
$$$$
