butane_opt
 OpenBabel08242015403D

 14 13  0  0  0  0  0  0  0  0999 V2000
   -3.9531    0.2722   -0.0109 C   0  0  0  0  0  0  0  0  0  0  0  0
   -2.6854   -0.6192    0.0649 C   0  0  0  0  0  0  0  0  0  0  0  0
   -4.8482   -0.3143    0.0039 H   0  0  0  0  0  0  0  0  0  0  0  0
   -3.9562    0.9124   -0.9445 H   0  0  0  0  0  0  0  0  0  0  0  0
   -3.9581    0.8886    0.8447 H   0  0  0  0  0  0  0  0  0  0  0  0
   -1.3984    0.1611    0.0472 C   0  0  0  0  0  0  0  0  0  0  0  0
   -2.6534   -1.3210   -0.8126 H   0  0  0  0  0  0  0  0  0  0  0  0
   -2.7037   -1.1999    0.9414 H   0  0  0  0  0  0  0  0  0  0  0  0
   -0.1742   -0.6806    0.0045 C   0  0  0  0  0  0  0  0  0  0  0  0
   -1.3459    0.9005    0.9659 H   0  0  0  0  0  0  0  0  0  0  0  0
   -1.4570    0.7864   -0.8187 H   0  0  0  0  0  0  0  0  0  0  0  0
   -0.0938   -1.3811    0.9386 H   0  0  0  0  0  0  0  0  0  0  0  0
    0.7536   -0.0656   -0.1224 H   0  0  0  0  0  0  0  0  0  0  0  0
   -0.2339   -1.2742   -0.8190 H   0  0  0  0  0  0  0  0  0  0  0  0
  1  3  1  0  0  0  0
  1  2  1  0  0  0  0
  1  5  1  0  0  0  0
  2  8  1  0  0  0  0
  4  1  1  0  0  0  0
  6  2  1  0  0  0  0
  6 10  1  0  0  0  0
  7  2  1  0  0  0  0
  9  6  1  0  0  0  0
  9 12  1  0  0  0  0
 11  6  1  0  0  0  0
 13  9  1  0  0  0  0
 14  9  1  0  0  0  0
M  END
$$$$
