butane_opt
 OpenBabel08242015403D

 14 13  0  0  0  0  0  0  0  0999 V2000
   -3.9463    0.2605    0.0429 C   0  0  0  0  0  0  0  0  0  0  0  0
   -2.7161   -0.6088   -0.0009 C   0  0  0  0  0  0  0  0  0  0  0  0
   -4.8749   -0.3648    0.1909 H   0  0  0  0  0  0  0  0  0  0  0  0
   -4.0525    0.9341   -0.8976 H   0  0  0  0  0  0  0  0  0  0  0  0
   -3.8779    0.8635    0.8926 H   0  0  0  0  0  0  0  0  0  0  0  0
   -1.4009    0.1890   -0.0101 C   0  0  0  0  0  0  0  0  0  0  0  0
   -2.7529   -1.2796   -0.8616 H   0  0  0  0  0  0  0  0  0  0  0  0
   -2.7318   -1.1750    0.8536 H   0  0  0  0  0  0  0  0  0  0  0  0
   -0.1452   -0.7009    0.0504 C   0  0  0  0  0  0  0  0  0  0  0  0
   -1.4347    0.8906    0.8708 H   0  0  0  0  0  0  0  0  0  0  0  0
   -1.3791    0.8027   -0.8856 H   0  0  0  0  0  0  0  0  0  0  0  0
   -0.1275   -1.3974    0.9819 H   0  0  0  0  0  0  0  0  0  0  0  0
    0.7648   -0.1043    0.0800 H   0  0  0  0  0  0  0  0  0  0  0  0
   -0.0567   -1.3179   -0.7712 H   0  0  0  0  0  0  0  0  0  0  0  0
  1  3  1  0  0  0  0
  1  5  1  0  0  0  0
  2  1  1  0  0  0  0
  2  8  1  0  0  0  0
  4  1  1  0  0  0  0
  6  2  1  0  0  0  0
  6  9  1  0  0  0  0
  6 10  1  0  0  0  0
  7  2  1  0  0  0  0
  9 13  1  0  0  0  0
  9 12  1  0  0  0  0
 11  6  1  0  0  0  0
 14  9  1  0  0  0  0
M  END
$$$$
