butane_opt
 OpenBabel08242015403D

 14 13  0  0  0  0  0  0  0  0999 V2000
   -3.9362    0.2653    0.0249 C   0  0  0  0  0  0  0  0  0  0  0  0
   -2.6979   -0.6267    0.0294 C   0  0  0  0  0  0  0  0  0  0  0  0
   -4.8100   -0.2974   -0.0509 H   0  0  0  0  0  0  0  0  0  0  0  0
   -3.9218    0.7922   -0.8052 H   0  0  0  0  0  0  0  0  0  0  0  0
   -4.0154    1.0727    0.9530 H   0  0  0  0  0  0  0  0  0  0  0  0
   -1.3966    0.1764    0.0046 C   0  0  0  0  0  0  0  0  0  0  0  0
   -2.7013   -1.2604   -0.8100 H   0  0  0  0  0  0  0  0  0  0  0  0
   -2.7173   -1.2197    0.9165 H   0  0  0  0  0  0  0  0  0  0  0  0
   -0.1787   -0.6872    0.0445 C   0  0  0  0  0  0  0  0  0  0  0  0
   -1.3729    0.8060    0.8306 H   0  0  0  0  0  0  0  0  0  0  0  0
   -1.4183    0.8672   -0.9189 H   0  0  0  0  0  0  0  0  0  0  0  0
   -0.1292   -1.3776    0.9619 H   0  0  0  0  0  0  0  0  0  0  0  0
    0.7527   -0.0839   -0.0565 H   0  0  0  0  0  0  0  0  0  0  0  0
   -0.1815   -1.3062   -0.7979 H   0  0  0  0  0  0  0  0  0  0  0  0
  1  2  1  0  0  0  0
  1  5  1  0  0  0  0
  2  8  1  0  0  0  0
  3  1  1  0  0  0  0
  4  1  1  0  0  0  0
  6  2  1  0  0  0  0
  6  9  1  0  0  0  0
  6 10  1  0  0  0  0
  7  2  1  0  0  0  0
  9 12  1  0  0  0  0
 11  6  1  0  0  0  0
 13  9  1  0  0  0  0
 14  9  1  0  0  0  0
M  END
$$$$
