14
butane_opt
C  -3.933257   0.271639   0.043710
C  -2.690002  -0.631594   0.015606
H  -4.843102  -0.319784   0.073631
H  -3.981545   0.887444  -0.855308
H  -3.936449   0.947236   0.914814
C  -1.414502   0.175775  -0.022938
H  -2.717129  -1.265143  -0.829905
H  -2.707819  -1.271648   0.931854
C  -0.166635  -0.684519   0.060981
H  -1.454833   0.886093   0.829225
H  -1.363599   0.841672  -0.959257
H  -0.235829  -1.238510   0.917246
H   0.771841  -0.086035   0.099139
H  -0.106419  -1.432333  -0.860404
