butane_opt
 OpenBabel08242015403D

 14 13  0  0  0  0  0  0  0  0999 V2000
   -3.9493    0.2603    0.0502 C   0  0  0  0  0  0  0  0  0  0  0  0
   -2.7055   -0.6162    0.0099 C   0  0  0  0  0  0  0  0  0  0  0  0
   -4.8731   -0.3270    0.0322 H   0  0  0  0  0  0  0  0  0  0  0  0
   -3.9787    0.8115   -0.7983 H   0  0  0  0  0  0  0  0  0  0  0  0
   -3.9479    0.9893    0.9554 H   0  0  0  0  0  0  0  0  0  0  0  0
   -1.4009    0.1941   -0.0385 C   0  0  0  0  0  0  0  0  0  0  0  0
   -2.7789   -1.2750   -0.8270 H   0  0  0  0  0  0  0  0  0  0  0  0
   -2.7181   -1.2374    0.9125 H   0  0  0  0  0  0  0  0  0  0  0  0
   -0.1503   -0.6967    0.0629 C   0  0  0  0  0  0  0  0  0  0  0  0
   -1.3522    0.8463    0.7864 H   0  0  0  0  0  0  0  0  0  0  0  0
   -1.3941    0.8561   -0.9333 H   0  0  0  0  0  0  0  0  0  0  0  0
   -0.2109   -1.2720    0.9652 H   0  0  0  0  0  0  0  0  0  0  0  0
    0.7070   -0.1843    0.1255 H   0  0  0  0  0  0  0  0  0  0  0  0
    0.0017   -1.3898   -0.7905 H   0  0  0  0  0  0  0  0  0  0  0  0
  1  5  1  0  0  0  0
  2  1  1  0  0  0  0
  2  8  1  0  0  0  0
  3  1  1  0  0  0  0
  4  1  1  0  0  0  0
  6  2  1  0  0  0  0
  6  9  1  0  0  0  0
  6 10  1  0  0  0  0
  7  2  1  0  0  0  0
  9 13  1  0  0  0  0
  9 12  1  0  0  0  0
 11  6  1  0  0  0  0
 14  9  1  0  0  0  0
M  END
$$$$
