14
butane_opt
C  -3.951375   0.255258   0.000058
C  -2.714551  -0.599741   0.063321
H  -4.861315  -0.334810   0.077946
H  -3.945368   0.909263  -0.906309
H  -3.956807   0.853419   0.830640
C  -1.392231   0.199418   0.023537
H  -2.750022  -1.273853  -0.765470
H  -2.745535  -1.236756   0.952661
C  -0.143042  -0.709896   0.013429
H  -1.403750   0.843735   0.840756
H  -1.436886   0.844457  -0.879433
H  -0.206987  -1.218841   0.847358
H   0.750149  -0.100018   0.137760
H  -0.051746  -1.502518  -0.918888
