14
butane_opt
C  -3.943699   0.269000  -0.001403
C  -2.701017  -0.627359   0.068915
H  -4.819043  -0.288589  -0.058369
H  -3.960836   0.922498  -0.925360
H  -4.033892   0.915990   0.816449
C  -1.393938   0.183019   0.037260
H  -2.741532  -1.261880  -0.759832
H  -2.742807  -1.265348   0.968365
C  -0.168565  -0.690301   0.008789
H  -1.371988   0.853887   0.909627
H  -1.419349   0.794510  -0.840673
H  -0.082469  -1.288727   0.887732
H   0.772712  -0.058728  -0.013569
H  -0.150940  -1.401230  -0.917958
