butane_opt
 OpenBabel08242015403D

 14 13  0  0  0  0  0  0  0  0999 V2000
   -3.9323    0.2726    0.0357 C   0  0  0  0  0  0  0  0  0  0  0  0
   -2.7074   -0.6225    0.0110 C   0  0  0  0  0  0  0  0  0  0  0  0
   -4.8098   -0.2828    0.0985 H   0  0  0  0  0  0  0  0  0  0  0  0
   -4.0266    0.8334   -0.8338 H   0  0  0  0  0  0  0  0  0  0  0  0
   -3.9199    0.9663    0.9150 H   0  0  0  0  0  0  0  0  0  0  0  0
   -1.4023    0.1765   -0.0021 C   0  0  0  0  0  0  0  0  0  0  0  0
   -2.6998   -1.3366   -0.8892 H   0  0  0  0  0  0  0  0  0  0  0  0
   -2.7062   -1.2190    0.8526 H   0  0  0  0  0  0  0  0  0  0  0  0
   -0.1753   -0.6868    0.0548 C   0  0  0  0  0  0  0  0  0  0  0  0
   -1.4092    0.8154    0.8386 H   0  0  0  0  0  0  0  0  0  0  0  0
   -1.3554    0.8235   -0.9348 H   0  0  0  0  0  0  0  0  0  0  0  0
   -0.0915   -1.3832    0.9908 H   0  0  0  0  0  0  0  0  0  0  0  0
    0.7593   -0.0761   -0.0298 H   0  0  0  0  0  0  0  0  0  0  0  0
   -0.1703   -1.2758   -0.7427 H   0  0  0  0  0  0  0  0  0  0  0  0
  1  3  1  0  0  0  0
  1  5  1  0  0  0  0
  2  1  1  0  0  0  0
  2  8  1  0  0  0  0
  4  1  1  0  0  0  0
  6  2  1  0  0  0  0
  6  9  1  0  0  0  0
  6 10  1  0  0  0  0
  7  2  1  0  0  0  0
  9 12  1  0  0  0  0
 11  6  1  0  0  0  0
 13  9  1  0  0  0  0
 14  9  1  0  0  0  0
M  END
$$$$
