butane_opt
 OpenBabel08242015403D

 14 13  0  0  0  0  0  0  0  0999 V2000
   -3.9422    0.2519   -0.0222 C   0  0  0  0  0  0  0  0  0  0  0  0
   -2.7166   -0.6062    0.0681 C   0  0  0  0  0  0  0  0  0  0  0  0
   -4.8811   -0.3340    0.0486 H   0  0  0  0  0  0  0  0  0  0  0  0
   -3.9535    0.8761   -0.9479 H   0  0  0  0  0  0  0  0  0  0  0  0
   -3.9758    0.9007    0.8193 H   0  0  0  0  0  0  0  0  0  0  0  0
   -1.4138    0.1992    0.0586 C   0  0  0  0  0  0  0  0  0  0  0  0
   -2.6719   -1.2758   -0.7875 H   0  0  0  0  0  0  0  0  0  0  0  0
   -2.7514   -1.2573    0.9623 H   0  0  0  0  0  0  0  0  0  0  0  0
   -0.1412   -0.7094   -0.0004 C   0  0  0  0  0  0  0  0  0  0  0  0
   -1.3411    0.9536    0.9595 H   0  0  0  0  0  0  0  0  0  0  0  0
   -1.4711    0.8199   -0.8013 H   0  0  0  0  0  0  0  0  0  0  0  0
   -0.0044   -1.3539    0.9085 H   0  0  0  0  0  0  0  0  0  0  0  0
    0.7708   -0.1167   -0.1381 H   0  0  0  0  0  0  0  0  0  0  0  0
   -0.1759   -1.3146   -0.8225 H   0  0  0  0  0  0  0  0  0  0  0  0
  1  3  1  0  0  0  0
  1  2  1  0  0  0  0
  1  5  1  0  0  0  0
  2  8  1  0  0  0  0
  4  1  1  0  0  0  0
  6  2  1  0  0  0  0
  6 10  1  0  0  0  0
  7  2  1  0  0  0  0
  9  6  1  0  0  0  0
  9 12  1  0  0  0  0
 11  6  1  0  0  0  0
 13  9  1  0  0  0  0
 14  9  1  0  0  0  0
M  END
$$$$
