14
butane_opt
C  -3.939616   0.278728   0.051778
C  -2.689259  -0.629862   0.006683
H  -4.870295  -0.328195   0.144873
H  -4.043358   0.955231  -0.889464
H  -3.908365   0.831265   0.852197
C  -1.395261   0.177229  -0.021295
H  -2.740867  -1.351289  -0.892310
H  -2.675368  -1.155371   0.839648
C  -0.179146  -0.691099   0.062477
H  -1.409539   0.859480   0.852076
H  -1.333605   0.821972  -0.911841
H  -0.197571  -1.282243   0.952827
H   0.737860  -0.099644   0.056038
H  -0.139717  -1.345466  -0.775715
