14
butane_opt
C  -3.954673   0.252310   0.048544
C  -2.706090  -0.602015   0.003843
H  -4.861911  -0.332923   0.091906
H  -4.012581   0.834845  -0.836612
H  -3.927906   0.901428   0.904765
C  -1.408782   0.199771  -0.023446
H  -2.733392  -1.320956  -0.870752
H  -2.684179  -1.185817   0.853269
C  -0.141834  -0.700878   0.062780
H  -1.368107   0.872690   0.829937
H  -1.394010   0.832543  -0.894127
H  -0.121323  -1.397903   1.005362
H   0.735942  -0.154111   0.033462
H  -0.111788  -1.316688  -0.766129
