14
butane_opt
C  -3.935168   0.255222   0.052493
C  -2.700663  -0.601302  -0.001935
H  -4.844614  -0.326464   0.041867
H  -3.978588   0.876705  -0.849211
H  -3.898524   0.937131   0.937722
C  -1.403866   0.190550  -0.010160
H  -2.708382  -1.363002  -0.894911
H  -2.693448  -1.169967   0.859487
C  -0.173217  -0.698930   0.057411
H  -1.379128   0.820234   0.828333
H  -1.400631   0.808483  -0.916088
H  -0.159386  -1.437039   1.048475
H   0.722847  -0.095270  -0.048342
H  -0.128083  -1.262689  -0.730298
