14
butane_opt
C  -3.932520   0.257023  -0.014999
C  -2.699514  -0.602657   0.066397
H  -4.873124  -0.365520   0.134886
H  -3.932501   0.943607  -0.976232
H  -3.949348   0.795280   0.752172
C  -1.409376   0.204446   0.052082
H  -2.728623  -1.315591  -0.816073
H  -2.723033  -1.210871   0.957174
C  -0.165717  -0.712187   0.001258
H  -1.322605   0.932740   0.955109
H  -1.426547   0.812844  -0.822416
H  -0.105177  -1.307961   0.891545
H   0.705885  -0.117821  -0.037093
H  -0.172702  -1.406522  -0.865221
