14
butane_opt
C  -3.940681   0.274662  -0.010348
C  -2.691202  -0.634369   0.066684
H  -4.850238  -0.296725  -0.019289
H  -3.920185   0.878774  -0.910786
H  -3.963648   1.007817   0.888775
C  -1.404693   0.175934   0.029168
H  -2.676356  -1.277505  -0.744680
H  -2.754096  -1.290696   0.998946
C  -0.175786  -0.683916   0.009704
H  -1.322834   0.866790   0.924928
H  -1.405627   0.793762  -0.863562
H  -0.111128  -1.279855   0.889475
H   0.739970  -0.079822  -0.000041
H  -0.219053  -1.377151  -0.859110
