butane_opt
 OpenBabel08242015403D

 14 13  0  0  0  0  0  0  0  0999 V2000
   -3.9582    0.2632    0.0491 C   0  0  0  0  0  0  0  0  0  0  0  0
   -2.7110   -0.6095    0.0031 C   0  0  0  0  0  0  0  0  0  0  0  0
   -4.8665   -0.3377    0.2109 H   0  0  0  0  0  0  0  0  0  0  0  0
   -4.0161    0.9017   -0.8930 H   0  0  0  0  0  0  0  0  0  0  0  0
   -3.8810    0.8653    0.8877 H   0  0  0  0  0  0  0  0  0  0  0  0
   -1.4049    0.1916   -0.0204 C   0  0  0  0  0  0  0  0  0  0  0  0
   -2.7430   -1.3846   -0.9066 H   0  0  0  0  0  0  0  0  0  0  0  0
   -2.6978   -1.1624    0.8142 H   0  0  0  0  0  0  0  0  0  0  0  0
   -0.1452   -0.7038    0.0634 C   0  0  0  0  0  0  0  0  0  0  0  0
   -1.3765    0.8691    0.8449 H   0  0  0  0  0  0  0  0  0  0  0  0
   -1.3394    0.8735   -0.9421 H   0  0  0  0  0  0  0  0  0  0  0  0
   -0.1648   -1.3294    0.9795 H   0  0  0  0  0  0  0  0  0  0  0  0
    0.7515   -0.1242    0.0654 H   0  0  0  0  0  0  0  0  0  0  0  0
   -0.0585   -1.3386   -0.7621 H   0  0  0  0  0  0  0  0  0  0  0  0
  1  3  1  0  0  0  0
  1  5  1  0  0  0  0
  2  1  1  0  0  0  0
  2  8  1  0  0  0  0
  4  1  1  0  0  0  0
  6  2  1  0  0  0  0
  6  9  1  0  0  0  0
  6 10  1  0  0  0  0
  7  2  1  0  0  0  0
  9 13  1  0  0  0  0
  9 12  1  0  0  0  0
 11  6  1  0  0  0  0
 14  9  1  0  0  0  0
M  END
$$$$
