butane_opt
 OpenBabel08242015403D

 14 13  0  0  0  0  0  0  0  0999 V2000
   -3.9481    0.2544    0.0278 C   0  0  0  0  0  0  0  0  0  0  0  0
   -2.7080   -0.6123    0.0237 C   0  0  0  0  0  0  0  0  0  0  0  0
   -4.8408   -0.3097    0.0199 H   0  0  0  0  0  0  0  0  0  0  0  0
   -3.9540    0.8604   -0.8491 H   0  0  0  0  0  0  0  0  0  0  0  0
   -3.9546    0.9130    0.8675 H   0  0  0  0  0  0  0  0  0  0  0  0
   -1.4023    0.2096   -0.0021 C   0  0  0  0  0  0  0  0  0  0  0  0
   -2.8033   -1.2893   -0.8321 H   0  0  0  0  0  0  0  0  0  0  0  0
   -2.7363   -1.2541    0.9320 H   0  0  0  0  0  0  0  0  0  0  0  0
   -0.1480   -0.7095    0.0422 C   0  0  0  0  0  0  0  0  0  0  0  0
   -1.3743    0.9378    0.8895 H   0  0  0  0  0  0  0  0  0  0  0  0
   -1.4219    0.8089   -0.8406 H   0  0  0  0  0  0  0  0  0  0  0  0
   -0.0646   -1.3913    0.9767 H   0  0  0  0  0  0  0  0  0  0  0  0
    0.7487   -0.1340   -0.0286 H   0  0  0  0  0  0  0  0  0  0  0  0
   -0.1470   -1.3217   -0.7899 H   0  0  0  0  0  0  0  0  0  0  0  0
  1  5  1  0  0  0  0
  2  1  1  0  0  0  0
  2  8  1  0  0  0  0
  3  1  1  0  0  0  0
  4  1  1  0  0  0  0
  6  2  1  0  0  0  0
  6  9  1  0  0  0  0
  6 10  1  0  0  0  0
  7  2  1  0  0  0  0
  9 12  1  0  0  0  0
 11  6  1  0  0  0  0
 13  9  1  0  0  0  0
 14  9  1  0  0  0  0
M  END
$$$$
