butane_opt
 OpenBabel08242015403D

 14 13  0  0  0  0  0  0  0  0999 V2000
   -3.9440    0.2674   -0.0019 C   0  0  0  0  0  0  0  0  0  0  0  0
   -2.6860   -0.6148    0.0738 C   0  0  0  0  0  0  0  0  0  0  0  0
   -4.8685   -0.3126    0.0230 H   0  0  0  0  0  0  0  0  0  0  0  0
   -3.9678    0.9425   -0.9421 H   0  0  0  0  0  0  0  0  0  0  0  0
   -3.9798    0.8887    0.8065 H   0  0  0  0  0  0  0  0  0  0  0  0
   -1.4041    0.1718    0.0229 C   0  0  0  0  0  0  0  0  0  0  0  0
   -2.6696   -1.2547   -0.7563 H   0  0  0  0  0  0  0  0  0  0  0  0
   -2.7158   -1.3085    1.0016 H   0  0  0  0  0  0  0  0  0  0  0  0
   -0.1705   -0.6868    0.0144 C   0  0  0  0  0  0  0  0  0  0  0  0
   -1.3777    0.8468    0.8774 H   0  0  0  0  0  0  0  0  0  0  0  0
   -1.3713    0.7866   -0.8758 H   0  0  0  0  0  0  0  0  0  0  0  0
   -0.1870   -1.1248    0.8069 H   0  0  0  0  0  0  0  0  0  0  0  0
    0.7453   -0.0996    0.1280 H   0  0  0  0  0  0  0  0  0  0  0  0
   -0.1703   -1.4916   -0.9623 H   0  0  0  0  0  0  0  0  0  0  0  0
  1  3  1  0  0  0  0
  1  2  1  0  0  0  0
  1  5  1  0  0  0  0
  2  8  1  0  0  0  0
  4  1  1  0  0  0  0
  6  2  1  0  0  0  0
  6 10  1  0  0  0  0
  7  2  1  0  0  0  0
  9  6  1  0  0  0  0
  9 13  1  0  0  0  0
  9 12  1  0  0  0  0
 11  6  1  0  0  0  0
 14  9  1  0  0  0  0
M  END
$$$$
