14
butane_opt
C  -3.928891   0.259873   0.009918
C  -2.702188  -0.601792   0.062104
H  -4.846301  -0.367325   0.041398
H  -3.912992   0.905357  -0.912739
H  -3.972146   0.851197   0.836170
C  -1.414341   0.178501   0.007843
H  -2.742462  -1.289624  -0.790638
H  -2.695733  -1.203981   0.950185
C  -0.156822  -0.695767   0.021484
H  -1.451293   0.896247   0.871718
H  -1.415627   0.839105  -0.882081
H  -0.163817  -1.228078   0.873080
H   0.742287  -0.130301   0.125065
H  -0.135318  -1.443914  -0.904276
