butane_opt
 OpenBabel08242015403D

 14 13  0  0  0  0  0  0  0  0999 V2000
   -3.9397    0.2507    0.0361 C   0  0  0  0  0  0  0  0  0  0  0  0
   -2.7044   -0.6090    0.0304 C   0  0  0  0  0  0  0  0  0  0  0  0
   -4.8474   -0.3440   -0.0875 H   0  0  0  0  0  0  0  0  0  0  0  0
   -3.8856    0.7391   -0.7733 H   0  0  0  0  0  0  0  0  0  0  0  0
   -4.0445    1.0687    0.9790 H   0  0  0  0  0  0  0  0  0  0  0  0
   -1.4102    0.2052   -0.0158 C   0  0  0  0  0  0  0  0  0  0  0  0
   -2.7708   -1.2887   -0.8151 H   0  0  0  0  0  0  0  0  0  0  0  0
   -2.7344   -1.2441    0.9100 H   0  0  0  0  0  0  0  0  0  0  0  0
   -0.1460   -0.7058    0.0506 C   0  0  0  0  0  0  0  0  0  0  0  0
   -1.4523    0.8681    0.8262 H   0  0  0  0  0  0  0  0  0  0  0  0
   -1.3585    0.9038   -0.9552 H   0  0  0  0  0  0  0  0  0  0  0  0
   -0.1331   -1.3968    0.9745 H   0  0  0  0  0  0  0  0  0  0  0  0
    0.7571   -0.1501   -0.0162 H   0  0  0  0  0  0  0  0  0  0  0  0
   -0.1434   -1.3291   -0.7982 H   0  0  0  0  0  0  0  0  0  0  0  0
  1  5  1  0  0  0  0
  2  1  1  0  0  0  0
  2  8  1  0  0  0  0
  3  1  1  0  0  0  0
  4  1  1  0  0  0  0
  6  2  1  0  0  0  0
  6  9  1  0  0  0  0
  6 10  1  0  0  0  0
  7  2  1  0  0  0  0
  9 12  1  0  0  0  0
 11  6  1  0  0  0  0
 13  9  1  0  0  0  0
 14  9  1  0  0  0  0
M  END
$$$$
