butane_opt
 OpenBabel08242015403D

 14 13  0  0  0  0  0  0  0  0999 V2000
   -3.9492    0.2562    0.0424 C   0  0  0  0  0  0  0  0  0  0  0  0
   -2.7125   -0.6034    0.0172 C   0  0  0  0  0  0  0  0  0  0  0  0
   -4.8726   -0.3417   -0.0213 H   0  0  0  0  0  0  0  0  0  0  0  0
   -3.9647    0.7807   -0.8029 H   0  0  0  0  0  0  0  0  0  0  0  0
   -3.9646    1.0215    0.9788 H   0  0  0  0  0  0  0  0  0  0  0  0
   -1.3916    0.1905   -0.0255 C   0  0  0  0  0  0  0  0  0  0  0  0
   -2.7358   -1.2906   -0.8262 H   0  0  0  0  0  0  0  0  0  0  0  0
   -2.7445   -1.2396    0.9349 H   0  0  0  0  0  0  0  0  0  0  0  0
   -0.1530   -0.7079    0.0519 C   0  0  0  0  0  0  0  0  0  0  0  0
   -1.4063    0.8794    0.8155 H   0  0  0  0  0  0  0  0  0  0  0  0
   -1.3868    0.8618   -0.9192 H   0  0  0  0  0  0  0  0  0  0  0  0
   -0.1683   -1.3275    0.9858 H   0  0  0  0  0  0  0  0  0  0  0  0
    0.7261   -0.1296    0.0319 H   0  0  0  0  0  0  0  0  0  0  0  0
   -0.0241   -1.3211   -0.7606 H   0  0  0  0  0  0  0  0  0  0  0  0
  1  5  1  0  0  0  0
  2  1  1  0  0  0  0
  2  8  1  0  0  0  0
  3  1  1  0  0  0  0
  4  1  1  0  0  0  0
  6  2  1  0  0  0  0
  6  9  1  0  0  0  0
  6 10  1  0  0  0  0
  7  2  1  0  0  0  0
  9 12  1  0  0  0  0
 11  6  1  0  0  0  0
 13  9  1  0  0  0  0
 14  9  1  0  0  0  0
M  END
$$$$
