14
butane_opt
C  -3.958213   0.273533   0.049312
C  -2.692755  -0.636344  -0.004179
H  -4.888160  -0.313802   0.165419
H  -4.065484   0.910757  -0.868359
H  -3.901120   0.948305   0.916554
C  -1.399331   0.182639  -0.015243
H  -2.724187  -1.364385  -0.905715
H  -2.709555  -1.199232   0.841149
C  -0.161037  -0.685786   0.069392
H  -1.412845   0.860614   0.824898
H  -1.341532   0.834385  -0.950362
H  -0.129578  -1.350264   0.996355
H   0.762488  -0.083816  -0.019229
H  -0.085275  -1.317253  -0.749010
