14
butane_opt
C  -3.937632   0.270546   0.006736
C  -2.693488  -0.619268   0.069309
H  -4.819556  -0.300914  -0.076229
H  -3.886491   0.848717  -0.879261
H  -4.066743   0.999149   0.878544
C  -1.405250   0.172972   0.016808
H  -2.737242  -1.328085  -0.798977
H  -2.729966  -1.276746   0.960847
C  -0.164532  -0.684116   0.020035
H  -1.343854   0.855381   0.855723
H  -1.409928   0.798367  -0.885041
H  -0.158783  -1.288955   0.904784
H   0.725335  -0.085162  -0.006114
H  -0.187050  -1.372292  -0.860844
