14
butane_opt
C  -3.947852   0.274831  -0.013582
C  -2.699594  -0.625690   0.083278
H  -4.824202  -0.291923  -0.061900
H  -3.861575   0.854546  -0.925960
H  -4.055050   0.947950   0.849508
C  -1.407374   0.172023   0.039337
H  -2.670484  -1.309490  -0.758648
H  -2.715228  -1.279481   1.023137
C  -0.157127  -0.684899  -0.003283
H  -1.328556   0.863959   0.917099
H  -1.484592   0.819515  -0.858397
H  -0.164552  -1.249033   0.873436
H   0.790484  -0.060463   0.005030
H  -0.176297  -1.394557  -0.888870
