14
butane_opt
C  -3.944253   0.278839   0.042226
C  -2.703782  -0.637352   0.012255
H  -4.833690  -0.301384   0.007858
H  -4.011128   0.836056  -0.796701
H  -4.001592   1.009633   0.928508
C  -1.391475   0.176282  -0.015641
H  -2.739342  -1.351419  -0.866166
H  -2.701491  -1.233377   0.871036
C  -0.160314  -0.687077   0.057643
H  -1.396137   0.900977   0.857100
H  -1.388006   0.828210  -0.906798
H  -0.172598  -1.416303   1.028265
H   0.759654  -0.068086  -0.080054
H  -0.145247  -1.244099  -0.746810
