butane_opt
 OpenBabel08242015403D

 14 13  0  0  0  0  0  0  0  0999 V2000
   -3.9406    0.2622    0.0222 C   0  0  0  0  0  0  0  0  0  0  0  0
   -2.6985   -0.6159    0.0238 C   0  0  0  0  0  0  0  0  0  0  0  0
   -4.8614   -0.3392    0.0094 H   0  0  0  0  0  0  0  0  0  0  0  0
   -3.9461    0.8524   -0.8599 H   0  0  0  0  0  0  0  0  0  0  0  0
   -3.9543    0.9410    0.8752 H   0  0  0  0  0  0  0  0  0  0  0  0
   -1.4053    0.1970    0.0214 C   0  0  0  0  0  0  0  0  0  0  0  0
   -2.7255   -1.2835   -0.8239 H   0  0  0  0  0  0  0  0  0  0  0  0
   -2.7207   -1.2154    0.8988 H   0  0  0  0  0  0  0  0  0  0  0  0
   -0.1686   -0.7034    0.0288 C   0  0  0  0  0  0  0  0  0  0  0  0
   -1.3290    0.9107    0.9020 H   0  0  0  0  0  0  0  0  0  0  0  0
   -1.4143    0.7667   -0.8600 H   0  0  0  0  0  0  0  0  0  0  0  0
   -0.0736   -1.4575    0.9985 H   0  0  0  0  0  0  0  0  0  0  0  0
    0.7285   -0.1014   -0.1063 H   0  0  0  0  0  0  0  0  0  0  0  0
   -0.1714   -1.2238   -0.7273 H   0  0  0  0  0  0  0  0  0  0  0  0
  1  2  1  0  0  0  0
  1  5  1  0  0  0  0
  2  8  1  0  0  0  0
  3  1  1  0  0  0  0
  4  1  1  0  0  0  0
  6  2  1  0  0  0  0
  6  9  1  0  0  0  0
  6 10  1  0  0  0  0
  7  2  1  0  0  0  0
  9 12  1  0  0  0  0
 11  6  1  0  0  0  0
 13  9  1  0  0  0  0
 14  9  1  0  0  0  0
M  END
$$$$
