butane_opt
 OpenBabel08242015403D

 14 13  0  0  0  0  0  0  0  0999 V2000
   -3.9626    0.2721   -0.0238 C   0  0  0  0  0  0  0  0  0  0  0  0
   -2.6966   -0.6308    0.0936 C   0  0  0  0  0  0  0  0  0  0  0  0
   -4.8459   -0.3170   -0.0581 H   0  0  0  0  0  0  0  0  0  0  0  0
   -3.9342    0.8900   -0.9010 H   0  0  0  0  0  0  0  0  0  0  0  0
   -4.0746    0.9822    0.8642 H   0  0  0  0  0  0  0  0  0  0  0  0
   -1.3908    0.1720    0.0359 C   0  0  0  0  0  0  0  0  0  0  0  0
   -2.7105   -1.2742   -0.7433 H   0  0  0  0  0  0  0  0  0  0  0  0
   -2.7076   -1.2854    0.9984 H   0  0  0  0  0  0  0  0  0  0  0  0
   -0.1481   -0.6839   -0.0023 C   0  0  0  0  0  0  0  0  0  0  0  0
   -1.3558    0.9014    0.9155 H   0  0  0  0  0  0  0  0  0  0  0  0
   -1.4521    0.8225   -0.8376 H   0  0  0  0  0  0  0  0  0  0  0  0
   -0.1734   -1.2578    0.8665 H   0  0  0  0  0  0  0  0  0  0  0  0
    0.7828   -0.0657    0.0100 H   0  0  0  0  0  0  0  0  0  0  0  0
   -0.1749   -1.4250   -0.9185 H   0  0  0  0  0  0  0  0  0  0  0  0
  1  2  1  0  0  0  0
  1  5  1  0  0  0  0
  2  8  1  0  0  0  0
  3  1  1  0  0  0  0
  4  1  1  0  0  0  0
  6  2  1  0  0  0  0
  6 10  1  0  0  0  0
  7  2  1  0  0  0  0
  9 13  1  0  0  0  0
  9  6  1  0  0  0  0
  9 12  1  0  0  0  0
 11  6  1  0  0  0  0
 14  9  1  0  0  0  0
M  END
$$$$
