14
butane_opt
C  -3.958054   0.279106   0.050304
C  -2.702280  -0.633505  -0.007095
H  -4.844338  -0.310710   0.110948
H  -4.099625   0.898189  -0.844528
H  -3.896064   0.948240   0.922331
C  -1.387943   0.170277  -0.016004
H  -2.686377  -1.311611  -0.872124
H  -2.734102  -1.259931   0.895617
C  -0.157132  -0.673680   0.061899
H  -1.392195   0.862941   0.838085
H  -1.345413   0.818939  -0.940114
H  -0.176785  -1.370769   1.003662
H   0.721592  -0.102465   0.038409
H  -0.109799  -1.348845  -0.778225
