14
butane_opt
C  -3.941118   0.254183   0.007877
C  -2.704292  -0.620293   0.069995
H  -4.873496  -0.332595  -0.019589
H  -3.943768   0.940433  -0.944523
H  -4.031138   0.874766   0.826747
C  -1.401777   0.207360   0.017980
H  -2.722924  -1.252259  -0.740253
H  -2.742555  -1.251629   0.981399
C  -0.150310  -0.703369   0.012190
H  -1.426705   0.893244   0.875273
H  -1.435999   0.814141  -0.882060
H  -0.137095  -1.206748   0.817258
H   0.742188  -0.132366   0.140879
H  -0.076344  -1.481306  -0.930103
