14
butane_opt
C  -3.936994   0.259078  -0.010896
C  -2.692004  -0.610064   0.073760
H  -4.855799  -0.359656  -0.032839
H  -3.891058   0.858528  -0.933548
H  -4.065145   0.923060   0.826680
C  -1.403717   0.193417   0.037353
H  -2.689828  -1.221432  -0.716140
H  -2.706346  -1.284631   1.004616
C  -0.173261  -0.693071   0.000514
H  -1.358607   0.897576   0.934817
H  -1.465730   0.760399  -0.821106
H  -0.096279  -1.307635   0.874801
H   0.724849  -0.103680  -0.003875
H  -0.146443  -1.427977  -0.901445
