butane_opt
 OpenBabel08242015403D

 14 13  0  0  0  0  0  0  0  0999 V2000
   -3.9365    0.2538    0.0461 C   0  0  0  0  0  0  0  0  0  0  0  0
   -2.7125   -0.6122   -0.0005 C   0  0  0  0  0  0  0  0  0  0  0  0
   -4.8606   -0.3447   -0.0083 H   0  0  0  0  0  0  0  0  0  0  0  0
   -3.9806    0.8313   -0.8174 H   0  0  0  0  0  0  0  0  0  0  0  0
   -3.9800    0.9827    0.9544 H   0  0  0  0  0  0  0  0  0  0  0  0
   -1.4009    0.2103   -0.0107 C   0  0  0  0  0  0  0  0  0  0  0  0
   -2.7595   -1.2990   -0.8426 H   0  0  0  0  0  0  0  0  0  0  0  0
   -2.6876   -1.2124    0.8665 H   0  0  0  0  0  0  0  0  0  0  0  0
   -0.1531   -0.7107    0.0575 C   0  0  0  0  0  0  0  0  0  0  0  0
   -1.3703    0.8906    0.8472 H   0  0  0  0  0  0  0  0  0  0  0  0
   -1.4068    0.8115   -0.8781 H   0  0  0  0  0  0  0  0  0  0  0  0
   -0.1233   -1.4576    1.0449 H   0  0  0  0  0  0  0  0  0  0  0  0
    0.7299   -0.1228   -0.1159 H   0  0  0  0  0  0  0  0  0  0  0  0
   -0.1359   -1.2500   -0.7066 H   0  0  0  0  0  0  0  0  0  0  0  0
  1  5  1  0  0  0  0
  2  1  1  0  0  0  0
  2  8  1  0  0  0  0
  3  1  1  0  0  0  0
  4  1  1  0  0  0  0
  6  2  1  0  0  0  0
  6  9  1  0  0  0  0
  6 10  1  0  0  0  0
  7  2  1  0  0  0  0
  9 12  1  0  0  0  0
 11  6  1  0  0  0  0
 13  9  1  0  0  0  0
 14  9  1  0  0  0  0
M  END
$$$$
