14
butane_opt
C  -3.934217   0.258295   0.004612
C  -2.698632  -0.598173   0.037287
H  -4.847064  -0.359460   0.041499
H  -3.936349   0.856991  -0.898983
H  -3.969793   0.934719   0.877525
C  -1.409143   0.180766   0.036977
H  -2.732461  -1.291384  -0.826258
H  -2.685837  -1.210319   0.907106
C  -0.168838  -0.704981   0.027071
H  -1.389714   0.861459   0.884980
H  -1.381198   0.826527  -0.840781
H  -0.034546  -1.360968   0.936816
H   0.749008  -0.089661  -0.153484
H  -0.257483  -1.267539  -0.751504
