butane_opt
 OpenBabel08242015403D

 14 13  0  0  0  0  0  0  0  0999 V2000
   -3.9413    0.2693   -0.0015 C   0  0  0  0  0  0  0  0  0  0  0  0
   -2.6931   -0.6273    0.0642 C   0  0  0  0  0  0  0  0  0  0  0  0
   -4.8017   -0.2950    0.0783 H   0  0  0  0  0  0  0  0  0  0  0  0
   -3.9322    0.8964   -0.9193 H   0  0  0  0  0  0  0  0  0  0  0  0
   -3.9558    0.9166    0.8458 H   0  0  0  0  0  0  0  0  0  0  0  0
   -1.4144    0.1852    0.0235 C   0  0  0  0  0  0  0  0  0  0  0  0
   -2.7198   -1.2788   -0.7796 H   0  0  0  0  0  0  0  0  0  0  0  0
   -2.7160   -1.2789    0.9699 H   0  0  0  0  0  0  0  0  0  0  0  0
   -0.1664   -0.6907    0.0154 C   0  0  0  0  0  0  0  0  0  0  0  0
   -1.3712    0.7979    0.8600 H   0  0  0  0  0  0  0  0  0  0  0  0
   -1.4171    0.8616   -0.9037 H   0  0  0  0  0  0  0  0  0  0  0  0
   -0.1992   -1.1703    0.8386 H   0  0  0  0  0  0  0  0  0  0  0  0
    0.7685   -0.0859    0.1594 H   0  0  0  0  0  0  0  0  0  0  0  0
   -0.1088   -1.4653   -0.9382 H   0  0  0  0  0  0  0  0  0  0  0  0
  1  2  1  0  0  0  0
  1  3  1  0  0  0  0
  1  5  1  0  0  0  0
  2  8  1  0  0  0  0
  4  1  1  0  0  0  0
  6  2  1  0  0  0  0
  6 10  1  0  0  0  0
  7  2  1  0  0  0  0
  9  6  1  0  0  0  0
  9 13  1  0  0  0  0
  9 12  1  0  0  0  0
 11  6  1  0  0  0  0
 14  9  1  0  0  0  0
M  END
$$$$
