butane_opt
 OpenBabel08242015403D

 14 13  0  0  0  0  0  0  0  0999 V2000
   -3.9486    0.2533    0.0380 C   0  0  0  0  0  0  0  0  0  0  0  0
   -2.7152   -0.6041    0.0210 C   0  0  0  0  0  0  0  0  0  0  0  0
   -4.8416   -0.3285   -0.0854 H   0  0  0  0  0  0  0  0  0  0  0  0
   -3.9477    0.7519   -0.7818 H   0  0  0  0  0  0  0  0  0  0  0  0
   -4.0104    1.0305    0.9722 H   0  0  0  0  0  0  0  0  0  0  0  0
   -1.4020    0.1961   -0.0132 C   0  0  0  0  0  0  0  0  0  0  0  0
   -2.7707   -1.2457   -0.8291 H   0  0  0  0  0  0  0  0  0  0  0  0
   -2.7122   -1.2499    0.9338 H   0  0  0  0  0  0  0  0  0  0  0  0
   -0.1390   -0.7100    0.0545 C   0  0  0  0  0  0  0  0  0  0  0  0
   -1.3807    0.8732    0.8346 H   0  0  0  0  0  0  0  0  0  0  0  0
   -1.3656    0.8680   -0.9528 H   0  0  0  0  0  0  0  0  0  0  0  0
   -0.1517   -1.3609    0.9893 H   0  0  0  0  0  0  0  0  0  0  0  0
    0.7499   -0.1291   -0.0407 H   0  0  0  0  0  0  0  0  0  0  0  0
   -0.1246   -1.3176   -0.7935 H   0  0  0  0  0  0  0  0  0  0  0  0
  1  5  1  0  0  0  0
  2  1  1  0  0  0  0
  2  8  1  0  0  0  0
  3  1  1  0  0  0  0
  4  1  1  0  0  0  0
  6  2  1  0  0  0  0
  6  9  1  0  0  0  0
  6 10  1  0  0  0  0
  7  2  1  0  0  0  0
  9 12  1  0  0  0  0
 11  6  1  0  0  0  0
 13  9  1  0  0  0  0
 14  9  1  0  0  0  0
M  END
$$$$
