butane_opt
 OpenBabel08242015403D

 14 13  0  0  0  0  0  0  0  0999 V2000
   -3.9537    0.2706   -0.0156 C   0  0  0  0  0  0  0  0  0  0  0  0
   -2.7050   -0.6246    0.0630 C   0  0  0  0  0  0  0  0  0  0  0  0
   -4.8455   -0.3166    0.0290 H   0  0  0  0  0  0  0  0  0  0  0  0
   -4.0126    0.9713   -0.9412 H   0  0  0  0  0  0  0  0  0  0  0  0
   -4.0408    0.9244    0.8174 H   0  0  0  0  0  0  0  0  0  0  0  0
   -1.4009    0.1726    0.0486 C   0  0  0  0  0  0  0  0  0  0  0  0
   -2.6813   -1.3168   -0.7789 H   0  0  0  0  0  0  0  0  0  0  0  0
   -2.7187   -1.2825    0.9707 H   0  0  0  0  0  0  0  0  0  0  0  0
   -0.1472   -0.6844    0.0059 C   0  0  0  0  0  0  0  0  0  0  0  0
   -1.3143    0.9046    0.9598 H   0  0  0  0  0  0  0  0  0  0  0  0
   -1.4456    0.7382   -0.7725 H   0  0  0  0  0  0  0  0  0  0  0  0
   -0.0818   -1.3355    0.9188 H   0  0  0  0  0  0  0  0  0  0  0  0
    0.7867   -0.0465   -0.1386 H   0  0  0  0  0  0  0  0  0  0  0  0
   -0.1901   -1.3133   -0.8512 H   0  0  0  0  0  0  0  0  0  0  0  0
  1  3  1  0  0  0  0
  1  2  1  0  0  0  0
  1  5  1  0  0  0  0
  2  8  1  0  0  0  0
  4  1  1  0  0  0  0
  6  2  1  0  0  0  0
  6 10  1  0  0  0  0
  7  2  1  0  0  0  0
  9  6  1  0  0  0  0
  9 12  1  0  0  0  0
 11  6  1  0  0  0  0
 13  9  1  0  0  0  0
 14  9  1  0  0  0  0
M  END
$$$$
