14
butane_opt
C  -3.946461   0.279225   0.036485
C  -2.693821  -0.630981   0.004530
H  -4.866996  -0.322366   0.153667
H  -4.077177   0.937320  -0.861975
H  -3.895361   0.933665   0.901083
C  -1.397054   0.171253  -0.005640
H  -2.753270  -1.297535  -0.853117
H  -2.692507  -1.261018   0.882084
C  -0.163575  -0.685787   0.052441
H  -1.385934   0.821888   0.854773
H  -1.358087   0.838424  -0.936019
H  -0.254896  -1.285855   0.948042
H   0.790705  -0.055254   0.074874
H  -0.121230  -1.378641  -0.788018
