butane_opt
 OpenBabel08242015403D

 14 13  0  0  0  0  0  0  0  0999 V2000
   -3.9370    0.2728    0.0164 C   0  0  0  0  0  0  0  0  0  0  0  0
   -2.6967   -0.6255    0.0562 C   0  0  0  0  0  0  0  0  0  0  0  0
   -4.8509   -0.3027    0.0016 H   0  0  0  0  0  0  0  0  0  0  0  0
   -3.9483    0.9133   -0.9054 H   0  0  0  0  0  0  0  0  0  0  0  0
   -3.9743    0.9185    0.8748 H   0  0  0  0  0  0  0  0  0  0  0  0
   -1.4048    0.1839    0.0067 C   0  0  0  0  0  0  0  0  0  0  0  0
   -2.6752   -1.3304   -0.8116 H   0  0  0  0  0  0  0  0  0  0  0  0
   -2.7157   -1.2547    0.9296 H   0  0  0  0  0  0  0  0  0  0  0  0
   -0.1719   -0.6878    0.0261 C   0  0  0  0  0  0  0  0  0  0  0  0
   -1.3355    0.8448    0.8489 H   0  0  0  0  0  0  0  0  0  0  0  0
   -1.3814    0.7816   -0.8700 H   0  0  0  0  0  0  0  0  0  0  0  0
   -0.2021   -1.2742    0.9031 H   0  0  0  0  0  0  0  0  0  0  0  0
    0.7325   -0.0977    0.0694 H   0  0  0  0  0  0  0  0  0  0  0  0
   -0.1457   -1.3898   -0.8685 H   0  0  0  0  0  0  0  0  0  0  0  0
  1  2  1  0  0  0  0
  1  5  1  0  0  0  0
  2  8  1  0  0  0  0
  3  1  1  0  0  0  0
  4  1  1  0  0  0  0
  6  9  1  0  0  0  0
  6  2  1  0  0  0  0
  6 10  1  0  0  0  0
  7  2  1  0  0  0  0
  9 13  1  0  0  0  0
  9 12  1  0  0  0  0
 11  6  1  0  0  0  0
 14  9  1  0  0  0  0
M  END
$$$$
