14
butane_opt
C  -3.943447   0.257577  -0.015433
C  -2.704876  -0.614708   0.059990
H  -4.840924  -0.328517   0.036056
H  -3.923274   0.884959  -0.955777
H  -3.985627   0.907846   0.836796
C  -1.401639   0.205350   0.061615
H  -2.716657  -1.237259  -0.767533
H  -2.799041  -1.256257   0.977371
C  -0.152876  -0.704286  -0.001488
H  -1.401830   0.911538   0.919411
H  -1.398506   0.764797  -0.803935
H  -0.035712  -1.373985   0.919592
H   0.737817  -0.138183  -0.123965
H  -0.222692  -1.330859  -0.847147
