14
butane_opt
C  -3.959424   0.270115   0.036186
C  -2.700031  -0.622725   0.011255
H  -4.865930  -0.315780  -0.003454
H  -4.046277   0.829709  -0.815142
H  -3.950185   1.032142   0.970673
C  -1.396532   0.183162  -0.008094
H  -2.694850  -1.337360  -0.848445
H  -2.732994  -1.273950   0.909019
C  -0.152500  -0.694432   0.051063
H  -1.413074   0.858764   0.825046
H  -1.381571   0.798870  -0.902538
H  -0.109352  -1.380555   1.033602
H   0.819024  -0.041937  -0.064565
H  -0.152298  -1.261748  -0.734467
