14
butane_opt
C  -3.952287   0.259431  -0.008828
C  -2.700161  -0.612402   0.050642
H  -4.864611  -0.342097  -0.005535
H  -3.957949   0.833877  -0.874682
H  -3.965674   0.916605   0.839986
C  -1.406695   0.200930   0.048291
H  -2.703350  -1.252237  -0.743175
H  -2.762254  -1.272886   0.973926
C  -0.155459  -0.700042   0.009299
H  -1.347066   0.875842   0.914263
H  -1.432921   0.824653  -0.832151
H  -0.030691  -1.350734   0.923890
H   0.715313  -0.119951  -0.114102
H  -0.105986  -1.360767  -0.835161
