14
butane_opt
C  -3.958572   0.280634   0.001585
C  -2.706609  -0.625261   0.067422
H  -4.844315  -0.312190   0.062185
H  -3.949029   0.915098  -0.906277
H  -4.027467   0.909011   0.837242
C  -1.395104   0.171302   0.020301
H  -2.724746  -1.325821  -0.805784
H  -2.746746  -1.293410   0.974022
C  -0.142831  -0.684902   0.012555
H  -1.371459   0.842263   0.855594
H  -1.389169   0.823253  -0.881397
H  -0.212385  -1.205403   0.856135
H   0.781894  -0.090292   0.136342
H  -0.107608  -1.430789  -0.916704
