14
butane_opt
C  -3.946194   0.274253   0.028940
C  -2.694259  -0.620233   0.028611
H  -4.819511  -0.298654   0.021315
H  -3.946077   0.841660  -0.835383
H  -3.979378   0.980862   0.936894
C  -1.397315   0.160122  -0.002949
H  -2.716968  -1.359886  -0.871997
H  -2.630790  -1.185280   0.847997
C  -0.177864  -0.681479   0.047649
H  -1.367506   0.834758   0.867184
H  -1.385358   0.830713  -0.930452
H  -0.151638  -1.376951   0.993492
H   0.749792  -0.066146  -0.057620
H  -0.196142  -1.255465  -0.743541
