14
butane_opt
C  -3.965087   0.280621   0.045006
C  -2.693401  -0.628628   0.011998
H  -4.871472  -0.334253   0.053331
H  -4.056131   0.863387  -0.845446
H  -3.950556   0.948981   0.906210
C  -1.392042   0.172328  -0.008901
H  -2.751713  -1.382832  -0.910643
H  -2.672976  -1.176595   0.823158
C  -0.152698  -0.681929   0.056361
H  -1.366549   0.816110   0.831912
H  -1.373981   0.811119  -0.916451
H  -0.142100  -1.383062   1.026328
H   0.740797  -0.114659  -0.043186
H  -0.140509  -1.223330  -0.728039
