butane_opt
 OpenBabel08242015403D

 14 13  0  0  0  0  0  0  0  0999 V2000
   -3.9510    0.2788    0.0357 C   0  0  0  0  0  0  0  0  0  0  0  0
   -2.6895   -0.6422    0.0299 C   0  0  0  0  0  0  0  0  0  0  0  0
   -4.8430   -0.3058   -0.0163 H   0  0  0  0  0  0  0  0  0  0  0  0
   -3.9647    0.9019   -0.8594 H   0  0  0  0  0  0  0  0  0  0  0  0
   -3.9786    0.9583    0.8800 H   0  0  0  0  0  0  0  0  0  0  0  0
   -1.4051    0.1766   -0.0062 C   0  0  0  0  0  0  0  0  0  0  0  0
   -2.7231   -1.3037   -0.7838 H   0  0  0  0  0  0  0  0  0  0  0  0
   -2.6638   -1.2552    0.9047 H   0  0  0  0  0  0  0  0  0  0  0  0
   -0.1699   -0.6810    0.0449 C   0  0  0  0  0  0  0  0  0  0  0  0
   -1.3753    0.8039    0.8161 H   0  0  0  0  0  0  0  0  0  0  0  0
   -1.3833    0.8466   -0.9221 H   0  0  0  0  0  0  0  0  0  0  0  0
   -0.1417   -1.2335    0.9199 H   0  0  0  0  0  0  0  0  0  0  0  0
    0.7505   -0.0566    0.0887 H   0  0  0  0  0  0  0  0  0  0  0  0
   -0.1283   -1.4123   -0.8501 H   0  0  0  0  0  0  0  0  0  0  0  0
  1  5  1  0  0  0  0
  2  1  1  0  0  0  0
  2  8  1  0  0  0  0
  3  1  1  0  0  0  0
  4  1  1  0  0  0  0
  6  2  1  0  0  0  0
  6  9  1  0  0  0  0
  6 10  1  0  0  0  0
  7  2  1  0  0  0  0
  9 13  1  0  0  0  0
  9 12  1  0  0  0  0
 11  6  1  0  0  0  0
 14  9  1  0  0  0  0
M  END
$$$$
