butane_opt
 OpenBabel08242015403D

 14 13  0  0  0  0  0  0  0  0999 V2000
   -3.9485    0.2687   -0.0047 C   0  0  0  0  0  0  0  0  0  0  0  0
   -2.6900   -0.6270    0.0490 C   0  0  0  0  0  0  0  0  0  0  0  0
   -4.8485   -0.3174    0.2197 H   0  0  0  0  0  0  0  0  0  0  0  0
   -3.9812    1.0268   -0.9930 H   0  0  0  0  0  0  0  0  0  0  0  0
   -3.8958    0.8160    0.7848 H   0  0  0  0  0  0  0  0  0  0  0  0
   -1.4156    0.1793    0.0329 C   0  0  0  0  0  0  0  0  0  0  0  0
   -2.6917   -1.3067   -0.8019 H   0  0  0  0  0  0  0  0  0  0  0  0
   -2.6929   -1.2574    0.9402 H   0  0  0  0  0  0  0  0  0  0  0  0
   -0.1684   -0.6860    0.0132 C   0  0  0  0  0  0  0  0  0  0  0  0
   -1.3571    0.9477    0.9518 H   0  0  0  0  0  0  0  0  0  0  0  0
   -1.3744    0.7715   -0.8029 H   0  0  0  0  0  0  0  0  0  0  0  0
   -0.1631   -1.2732    0.8757 H   0  0  0  0  0  0  0  0  0  0  0  0
    0.7680   -0.1041    0.0445 H   0  0  0  0  0  0  0  0  0  0  0  0
   -0.1238   -1.3892   -0.8815 H   0  0  0  0  0  0  0  0  0  0  0  0
  1  2  1  0  0  0  0
  1  3  1  0  0  0  0
  1  5  1  0  0  0  0
  2  8  1  0  0  0  0
  4  1  1  0  0  0  0
  6  2  1  0  0  0  0
  6 10  1  0  0  0  0
  7  2  1  0  0  0  0
  9  6  1  0  0  0  0
  9 13  1  0  0  0  0
  9 12  1  0  0  0  0
 11  6  1  0  0  0  0
 14  9  1  0  0  0  0
M  END
$$$$
