14
butane_opt
C  -3.954975   0.278514  -0.011291
C  -2.705815  -0.624105   0.071144
H  -4.882559  -0.325767  -0.060623
H  -3.930584   0.829836  -0.859169
H  -4.039257   0.973991   0.885715
C  -1.389592   0.173490   0.024763
H  -2.665499  -1.238891  -0.738060
H  -2.693176  -1.333556   1.003418
C  -0.161373  -0.692173   0.012745
H  -1.329598   0.898192   0.902606
H  -1.379779   0.810202  -0.853673
H  -0.106177  -1.252668   0.887226
H   0.761269  -0.073789   0.003332
H  -0.214093  -1.396534  -0.896393
