14
butane_opt
C  -3.969244   0.271373   0.038038
C  -2.693334  -0.630399   0.021868
H  -4.834985  -0.302482   0.061346
H  -3.959955   0.849785  -0.833856
H  -3.989887   0.974983   0.927478
C  -1.398276   0.186040  -0.031718
H  -2.746212  -1.266084  -0.798014
H  -2.658365  -1.269399   0.917940
C  -0.157766  -0.687610   0.057979
H  -1.353717   0.851167   0.834936
H  -1.361466   0.789154  -0.917002
H  -0.200718  -1.267655   0.937958
H   0.777461  -0.082422   0.128386
H  -0.080665  -1.416311  -0.853331
