butane_opt
 OpenBabel08242015403D

 14 13  0  0  0  0  0  0  0  0999 V2000
   -3.9446    0.2628    0.0397 C   0  0  0  0  0  0  0  0  0  0  0  0
   -2.7093   -0.6225   -0.0060 C   0  0  0  0  0  0  0  0  0  0  0  0
   -4.8626   -0.3613    0.1554 H   0  0  0  0  0  0  0  0  0  0  0  0
   -4.0516    0.8869   -0.8465 H   0  0  0  0  0  0  0  0  0  0  0  0
   -3.8447    0.9421    0.9130 H   0  0  0  0  0  0  0  0  0  0  0  0
   -1.4087    0.2041   -0.0108 C   0  0  0  0  0  0  0  0  0  0  0  0
   -2.7284   -1.2933   -0.8294 H   0  0  0  0  0  0  0  0  0  0  0  0
   -2.7058   -1.2251    0.8611 H   0  0  0  0  0  0  0  0  0  0  0  0
   -0.1605   -0.7038    0.0668 C   0  0  0  0  0  0  0  0  0  0  0  0
   -1.3576    0.8870    0.8322 H   0  0  0  0  0  0  0  0  0  0  0  0
   -1.3591    0.8319   -0.9074 H   0  0  0  0  0  0  0  0  0  0  0  0
   -0.1195   -1.3637    0.9742 H   0  0  0  0  0  0  0  0  0  0  0  0
    0.7469   -0.1219   -0.0166 H   0  0  0  0  0  0  0  0  0  0  0  0
   -0.0660   -1.3408   -0.7710 H   0  0  0  0  0  0  0  0  0  0  0  0
  1  3  1  0  0  0  0
  1  5  1  0  0  0  0
  2  1  1  0  0  0  0
  2  8  1  0  0  0  0
  4  1  1  0  0  0  0
  6  2  1  0  0  0  0
  6  9  1  0  0  0  0
  6 10  1  0  0  0  0
  7  2  1  0  0  0  0
  9 12  1  0  0  0  0
 11  6  1  0  0  0  0
 13  9  1  0  0  0  0
 14  9  1  0  0  0  0
M  END
$$$$
