butane_opt
 OpenBabel08242015403D

 14 13  0  0  0  0  0  0  0  0999 V2000
   -3.9413    0.2494    0.0127 C   0  0  0  0  0  0  0  0  0  0  0  0
   -2.6885   -0.5925    0.0480 C   0  0  0  0  0  0  0  0  0  0  0  0
   -4.8708   -0.3592   -0.0898 H   0  0  0  0  0  0  0  0  0  0  0  0
   -3.8968    0.7662   -0.8091 H   0  0  0  0  0  0  0  0  0  0  0  0
   -3.9511    1.0411    0.9526 H   0  0  0  0  0  0  0  0  0  0  0  0
   -1.4153    0.1839    0.0101 C   0  0  0  0  0  0  0  0  0  0  0  0
   -2.7211   -1.2604   -0.8089 H   0  0  0  0  0  0  0  0  0  0  0  0
   -2.7293   -1.2679    0.9637 H   0  0  0  0  0  0  0  0  0  0  0  0
   -0.1625   -0.7021    0.0281 C   0  0  0  0  0  0  0  0  0  0  0  0
   -1.3989    0.8472    0.8423 H   0  0  0  0  0  0  0  0  0  0  0  0
   -1.4230    0.8716   -0.9091 H   0  0  0  0  0  0  0  0  0  0  0  0
   -0.1199   -1.3586    0.9263 H   0  0  0  0  0  0  0  0  0  0  0  0
    0.7489   -0.1132    0.0088 H   0  0  0  0  0  0  0  0  0  0  0  0
   -0.1645   -1.3080   -0.8045 H   0  0  0  0  0  0  0  0  0  0  0  0
  1  2  1  0  0  0  0
  1  5  1  0  0  0  0
  2  8  1  0  0  0  0
  3  1  1  0  0  0  0
  4  1  1  0  0  0  0
  6  9  1  0  0  0  0
  6  2  1  0  0  0  0
  6 10  1  0  0  0  0
  7  2  1  0  0  0  0
  9 12  1  0  0  0  0
 11  6  1  0  0  0  0
 13  9  1  0  0  0  0
 14  9  1  0  0  0  0
M  END
$$$$
