butane_opt
 OpenBabel08242015403D

 14 13  0  0  0  0  0  0  0  0999 V2000
   -3.9614    0.2685    0.0144 C   0  0  0  0  0  0  0  0  0  0  0  0
   -2.6994   -0.6232    0.0529 C   0  0  0  0  0  0  0  0  0  0  0  0
   -4.8869   -0.3366    0.0687 H   0  0  0  0  0  0  0  0  0  0  0  0
   -3.9778    0.9000   -0.9138 H   0  0  0  0  0  0  0  0  0  0  0  0
   -3.9287    0.9577    0.8867 H   0  0  0  0  0  0  0  0  0  0  0  0
   -1.4081    0.1809   -0.0007 C   0  0  0  0  0  0  0  0  0  0  0  0
   -2.7100   -1.3126   -0.8074 H   0  0  0  0  0  0  0  0  0  0  0  0
   -2.6793   -1.2548    0.9671 H   0  0  0  0  0  0  0  0  0  0  0  0
   -0.1484   -0.6877    0.0324 C   0  0  0  0  0  0  0  0  0  0  0  0
   -1.3712    0.8262    0.8291 H   0  0  0  0  0  0  0  0  0  0  0  0
   -1.3494    0.8596   -0.9344 H   0  0  0  0  0  0  0  0  0  0  0  0
   -0.1657   -1.1976    0.8372 H   0  0  0  0  0  0  0  0  0  0  0  0
    0.7616   -0.1035    0.1901 H   0  0  0  0  0  0  0  0  0  0  0  0
   -0.1073   -1.4732   -0.8809 H   0  0  0  0  0  0  0  0  0  0  0  0
  1  2  1  0  0  0  0
  1  3  1  0  0  0  0
  1  5  1  0  0  0  0
  2  8  1  0  0  0  0
  4  1  1  0  0  0  0
  6  9  1  0  0  0  0
  6  2  1  0  0  0  0
  6 10  1  0  0  0  0
  7  2  1  0  0  0  0
  9 13  1  0  0  0  0
  9 12  1  0  0  0  0
 11  6  1  0  0  0  0
 14  9  1  0  0  0  0
M  END
$$$$
