14
butane_opt
C  -3.951955   0.252271   0.017799
C  -2.703210  -0.609666   0.043537
H  -4.844757  -0.334181   0.124086
H  -3.970182   1.013365  -0.968591
H  -3.929119   0.817033   0.819663
C  -1.415667   0.200470   0.020336
H  -2.739244  -1.318703  -0.849096
H  -2.712915  -1.227234   0.908886
C  -0.148120  -0.695597   0.023932
H  -1.403405   0.879406   0.853305
H  -1.349995   0.796240  -0.835412
H  -0.099268  -1.298085   0.894196
H   0.741761  -0.145056   0.080445
H  -0.088686  -1.420184  -0.872032
