butane_opt
 OpenBabel08242015403D

 14 13  0  0  0  0  0  0  0  0999 V2000
   -3.9353    0.2551    0.0263 C   0  0  0  0  0  0  0  0  0  0  0  0
   -2.6932   -0.5976    0.0201 C   0  0  0  0  0  0  0  0  0  0  0  0
   -4.9028   -0.3917    0.0038 H   0  0  0  0  0  0  0  0  0  0  0  0
   -3.9157    0.8428   -0.8323 H   0  0  0  0  0  0  0  0  0  0  0  0
   -3.9227    0.9827    0.9062 H   0  0  0  0  0  0  0  0  0  0  0  0
   -1.4167    0.1875    0.0086 C   0  0  0  0  0  0  0  0  0  0  0  0
   -2.7466   -1.2953   -0.8465 H   0  0  0  0  0  0  0  0  0  0  0  0
   -2.7121   -1.2356    0.9292 H   0  0  0  0  0  0  0  0  0  0  0  0
   -0.1659   -0.7011    0.0360 C   0  0  0  0  0  0  0  0  0  0  0  0
   -1.3763    0.8844    0.8885 H   0  0  0  0  0  0  0  0  0  0  0  0
   -1.4508    0.7932   -0.8769 H   0  0  0  0  0  0  0  0  0  0  0  0
   -0.1078   -1.4112    1.0138 H   0  0  0  0  0  0  0  0  0  0  0  0
    0.7465   -0.1088   -0.0947 H   0  0  0  0  0  0  0  0  0  0  0  0
   -0.1040   -1.2601   -0.7308 H   0  0  0  0  0  0  0  0  0  0  0  0
  1  5  1  0  0  0  0
  2  1  1  0  0  0  0
  2  8  1  0  0  0  0
  3  1  1  0  0  0  0
  4  1  1  0  0  0  0
  6  2  1  0  0  0  0
  6  9  1  0  0  0  0
  6 10  1  0  0  0  0
  7  2  1  0  0  0  0
  9 12  1  0  0  0  0
 11  6  1  0  0  0  0
 13  9  1  0  0  0  0
 14  9  1  0  0  0  0
M  END
$$$$
