14
butane_opt
C  -3.943088   0.254520  -0.001379
C  -2.718649  -0.601820   0.052352
H  -4.865536  -0.348813   0.019935
H  -3.956005   0.902655  -0.908383
H  -3.956602   0.905872   0.821864
C  -1.404332   0.195933   0.046580
H  -2.729185  -1.288062  -0.804782
H  -2.793942  -1.235174   0.951700
C  -0.145434  -0.706484   0.012278
H  -1.374818   0.852220   0.911431
H  -1.438913   0.866280  -0.863644
H  -0.034362  -1.343080   0.929516
H   0.781832  -0.096133  -0.076489
H  -0.126325  -1.391547  -0.861211
