butane_opt
 OpenBabel08242015403D

 14 13  0  0  0  0  0  0  0  0999 V2000
   -3.9432    0.2720    0.0014 C   0  0  0  0  0  0  0  0  0  0  0  0
   -2.6997   -0.6158    0.0522 C   0  0  0  0  0  0  0  0  0  0  0  0
   -4.8135   -0.3018    0.1201 H   0  0  0  0  0  0  0  0  0  0  0  0
   -3.9978    1.0129   -0.9696 H   0  0  0  0  0  0  0  0  0  0  0  0
   -3.9006    0.8023    0.7904 H   0  0  0  0  0  0  0  0  0  0  0  0
   -1.4001    0.1760    0.0255 C   0  0  0  0  0  0  0  0  0  0  0  0
   -2.7010   -1.3025   -0.7845 H   0  0  0  0  0  0  0  0  0  0  0  0
   -2.6934   -1.2873    0.9711 H   0  0  0  0  0  0  0  0  0  0  0  0
   -0.1703   -0.6925    0.0119 C   0  0  0  0  0  0  0  0  0  0  0  0
   -1.3988    0.9211    0.9579 H   0  0  0  0  0  0  0  0  0  0  0  0
   -1.3758    0.7412   -0.8195 H   0  0  0  0  0  0  0  0  0  0  0  0
   -0.2134   -1.2586    0.8701 H   0  0  0  0  0  0  0  0  0  0  0  0
    0.7937   -0.0324    0.0649 H   0  0  0  0  0  0  0  0  0  0  0  0
   -0.1718   -1.4256   -0.8823 H   0  0  0  0  0  0  0  0  0  0  0  0
  1  2  1  0  0  0  0
  1  3  1  0  0  0  0
  1  5  1  0  0  0  0
  2  8  1  0  0  0  0
  4  1  1  0  0  0  0
  6  2  1  0  0  0  0
  6 10  1  0  0  0  0
  7  2  1  0  0  0  0
  9  6  1  0  0  0  0
  9 13  1  0  0  0  0
  9 12  1  0  0  0  0
 11  6  1  0  0  0  0
 14  9  1  0  0  0  0
M  END
$$$$
