14
butane_opt
C  -3.939178   0.261862   0.051654
C  -2.708268  -0.605745   0.005174
H  -4.892556  -0.355072   0.069446
H  -4.014418   0.865658  -0.828390
H  -3.843673   0.966284   0.937794
C  -1.403487   0.188894  -0.029639
H  -2.723289  -1.287473  -0.881187
H  -2.728683  -1.271002   0.921958
C  -0.161508  -0.699483   0.062297
H  -1.419736   0.820781   0.792423
H  -1.380024   0.840474  -0.940531
H  -0.190505  -1.306167   0.952324
H   0.755258  -0.081556   0.136232
H  -0.039622  -1.410266  -0.795920
