14
butane_opt
C  -3.942376   0.270958  -0.004491
C  -2.694439  -0.617325   0.050277
H  -4.868908  -0.327144   0.051198
H  -3.966820   0.899394  -0.907798
H  -3.949029   0.899861   0.816972
C  -1.400877   0.179504   0.050951
H  -2.672154  -1.313466  -0.812267
H  -2.733347  -1.235660   0.945260
C  -0.177169  -0.697520   0.011140
H  -1.361352   0.853968   0.936528
H  -1.375169   0.843260  -0.867033
H  -0.109219  -1.316585   0.924800
H   0.779524  -0.083068  -0.118734
H  -0.192171  -1.315802  -0.827291
