14
butane_opt
C  -3.949885   0.281888  -0.004845
C  -2.710284  -0.626558   0.078562
H  -4.861726  -0.333896  -0.100195
H  -3.921859   0.836675  -0.858358
H  -4.078009   1.014724   0.884360
C  -1.390363   0.168790   0.020068
H  -2.684372  -1.304625  -0.771041
H  -2.772113  -1.303579   0.978039
C  -0.149969  -0.687804   0.006852
H  -1.340661   0.903882   0.914166
H  -1.438035   0.779440  -0.848672
H  -0.128360  -1.314890   0.895797
H   0.783923  -0.078501  -0.009446
H  -0.179017  -1.302902  -0.833900
