butane_opt
 OpenBabel08242015403D

 14 13  0  0  0  0  0  0  0  0999 V2000
   -3.9515    0.2516   -0.0052 C   0  0  0  0  0  0  0  0  0  0  0  0
   -2.6966   -0.6043    0.0622 C   0  0  0  0  0  0  0  0  0  0  0  0
   -4.8792   -0.3825    0.1280 H   0  0  0  0  0  0  0  0  0  0  0  0
   -3.9472    1.0237   -0.9901 H   0  0  0  0  0  0  0  0  0  0  0  0
   -3.8855    0.7687    0.7591 H   0  0  0  0  0  0  0  0  0  0  0  0
   -1.4059    0.1986    0.0417 C   0  0  0  0  0  0  0  0  0  0  0  0
   -2.6809   -1.2730   -0.7846 H   0  0  0  0  0  0  0  0  0  0  0  0
   -2.7433   -1.1893    0.9364 H   0  0  0  0  0  0  0  0  0  0  0  0
   -0.1567   -0.7068    0.0123 C   0  0  0  0  0  0  0  0  0  0  0  0
   -1.4035    0.9357    0.9308 H   0  0  0  0  0  0  0  0  0  0  0  0
   -1.4313    0.7973   -0.8472 H   0  0  0  0  0  0  0  0  0  0  0  0
   -0.0940   -1.2514    0.8584 H   0  0  0  0  0  0  0  0  0  0  0  0
    0.7273   -0.1139    0.0144 H   0  0  0  0  0  0  0  0  0  0  0  0
   -0.1550   -1.4649   -0.9206 H   0  0  0  0  0  0  0  0  0  0  0  0
  1  2  1  0  0  0  0
  1  3  1  0  0  0  0
  1  5  1  0  0  0  0
  2  8  1  0  0  0  0
  4  1  1  0  0  0  0
  6  2  1  0  0  0  0
  6 10  1  0  0  0  0
  7  2  1  0  0  0  0
  9 13  1  0  0  0  0
  9  6  1  0  0  0  0
  9 12  1  0  0  0  0
 11  6  1  0  0  0  0
 14  9  1  0  0  0  0
M  END
$$$$
