14
butane_opt
C  -3.944484   0.271349   0.023685
C  -2.702377  -0.612712   0.018606
H  -4.878026  -0.347672   0.033540
H  -3.919582   0.820309  -0.841816
H  -3.947873   0.951283   0.891416
C  -1.402248   0.179897   0.017372
H  -2.719567  -1.328555  -0.841538
H  -2.707875  -1.228182   0.912052
C  -0.166113  -0.695142   0.033230
H  -1.357487   0.898430   0.879697
H  -1.438501   0.807088  -0.855078
H  -0.100952  -1.453758   1.035412
H   0.755784  -0.091968  -0.111293
H  -0.135933  -1.217690  -0.755103
