14
butane_opt
C  -3.942585   0.278422  -0.021723
C  -2.693972  -0.628134   0.066506
H  -4.883782  -0.324467   0.043875
H  -4.002133   0.944339  -0.952834
H  -4.001198   0.908540   0.822108
C  -1.406578   0.162486   0.063414
H  -2.672238  -1.306492  -0.786289
H  -2.727766  -1.245752   0.955392
C  -0.160622  -0.679824   0.005408
H  -1.335201   0.846900   0.952406
H  -1.420192   0.806213  -0.839842
H  -0.072857  -1.298059   0.901981
H   0.773184  -0.044861  -0.149470
H  -0.240248  -1.350026  -0.876176
