butane_opt
 OpenBabel08242015403D

 14 13  0  0  0  0  0  0  0  0999 V2000
   -3.9498    0.2745    0.0402 C   0  0  0  0  0  0  0  0  0  0  0  0
   -2.6876   -0.6171    0.0078 C   0  0  0  0  0  0  0  0  0  0  0  0
   -4.8640   -0.3141    0.0528 H   0  0  0  0  0  0  0  0  0  0  0  0
   -3.9245    0.8267   -0.8098 H   0  0  0  0  0  0  0  0  0  0  0  0
   -3.9426    0.9758    0.9516 H   0  0  0  0  0  0  0  0  0  0  0  0
   -1.4087    0.1714   -0.0165 C   0  0  0  0  0  0  0  0  0  0  0  0
   -2.7792   -1.3706   -0.8976 H   0  0  0  0  0  0  0  0  0  0  0  0
   -2.6402   -1.2357    0.8794 H   0  0  0  0  0  0  0  0  0  0  0  0
   -0.1657   -0.6820    0.0620 C   0  0  0  0  0  0  0  0  0  0  0  0
   -1.4169    0.8232    0.8499 H   0  0  0  0  0  0  0  0  0  0  0  0
   -1.3748    0.8081   -0.9159 H   0  0  0  0  0  0  0  0  0  0  0  0
   -0.1403   -1.3887    1.0070 H   0  0  0  0  0  0  0  0  0  0  0  0
    0.7632   -0.0855   -0.0560 H   0  0  0  0  0  0  0  0  0  0  0  0
   -0.1735   -1.2576   -0.7333 H   0  0  0  0  0  0  0  0  0  0  0  0
  1  3  1  0  0  0  0
  1  5  1  0  0  0  0
  2  1  1  0  0  0  0
  2  8  1  0  0  0  0
  4  1  1  0  0  0  0
  6  2  1  0  0  0  0
  6  9  1  0  0  0  0
  6 10  1  0  0  0  0
  7  2  1  0  0  0  0
  9 12  1  0  0  0  0
 11  6  1  0  0  0  0
 13  9  1  0  0  0  0
 14  9  1  0  0  0  0
M  END
$$$$
