butane_opt
 OpenBabel08242015403D

 14 13  0  0  0  0  0  0  0  0999 V2000
   -3.9567    0.2593    0.0250 C   0  0  0  0  0  0  0  0  0  0  0  0
   -2.7072   -0.6074    0.0213 C   0  0  0  0  0  0  0  0  0  0  0  0
   -4.8813   -0.3606    0.0503 H   0  0  0  0  0  0  0  0  0  0  0  0
   -3.9684    0.8505   -0.8505 H   0  0  0  0  0  0  0  0  0  0  0  0
   -3.9660    0.9872    0.8969 H   0  0  0  0  0  0  0  0  0  0  0  0
   -1.4071    0.1816    0.0142 C   0  0  0  0  0  0  0  0  0  0  0  0
   -2.7224   -1.3292   -0.8531 H   0  0  0  0  0  0  0  0  0  0  0  0
   -2.6608   -1.2067    0.8575 H   0  0  0  0  0  0  0  0  0  0  0  0
   -0.1536   -0.6917    0.0499 C   0  0  0  0  0  0  0  0  0  0  0  0
   -1.3927    0.8594    0.8497 H   0  0  0  0  0  0  0  0  0  0  0  0
   -1.3520    0.8478   -0.9198 H   0  0  0  0  0  0  0  0  0  0  0  0
    0.0060   -1.4101    0.9932 H   0  0  0  0  0  0  0  0  0  0  0  0
    0.7789   -0.1042   -0.1253 H   0  0  0  0  0  0  0  0  0  0  0  0
   -0.1760   -1.3026   -0.7692 H   0  0  0  0  0  0  0  0  0  0  0  0
  1  3  1  0  0  0  0
  1  5  1  0  0  0  0
  2  1  1  0  0  0  0
  2  8  1  0  0  0  0
  4  1  1  0  0  0  0
  6  2  1  0  0  0  0
  6  9  1  0  0  0  0
  6 10  1  0  0  0  0
  7  2  1  0  0  0  0
  9 12  1  0  0  0  0
 11  6  1  0  0  0  0
 13  9  1  0  0  0  0
 14  9  1  0  0  0  0
M  END
$$$$
