butane_opt
 OpenBabel08242015403D

 14 13  0  0  0  0  0  0  0  0999 V2000
   -3.9393    0.2653    0.0341 C   0  0  0  0  0  0  0  0  0  0  0  0
   -2.6962   -0.6102    0.0107 C   0  0  0  0  0  0  0  0  0  0  0  0
   -4.8947   -0.3576    0.0313 H   0  0  0  0  0  0  0  0  0  0  0  0
   -3.9676    0.8385   -0.8152 H   0  0  0  0  0  0  0  0  0  0  0  0
   -3.9471    0.9369    0.8989 H   0  0  0  0  0  0  0  0  0  0  0  0
   -1.4005    0.1853    0.0016 C   0  0  0  0  0  0  0  0  0  0  0  0
   -2.7145   -1.2949   -0.8347 H   0  0  0  0  0  0  0  0  0  0  0  0
   -2.7162   -1.2074    0.8651 H   0  0  0  0  0  0  0  0  0  0  0  0
   -0.1654   -0.7006    0.0484 C   0  0  0  0  0  0  0  0  0  0  0  0
   -1.4058    0.9197    0.8780 H   0  0  0  0  0  0  0  0  0  0  0  0
   -1.3684    0.7981   -0.8903 H   0  0  0  0  0  0  0  0  0  0  0  0
   -0.0912   -1.4321    1.0095 H   0  0  0  0  0  0  0  0  0  0  0  0
    0.7381   -0.1117   -0.1095 H   0  0  0  0  0  0  0  0  0  0  0  0
   -0.2306   -1.2439   -0.7145 H   0  0  0  0  0  0  0  0  0  0  0  0
  1  5  1  0  0  0  0
  2  1  1  0  0  0  0
  2  8  1  0  0  0  0
  3  1  1  0  0  0  0
  4  1  1  0  0  0  0
  6  2  1  0  0  0  0
  6  9  1  0  0  0  0
  6 10  1  0  0  0  0
  7  2  1  0  0  0  0
  9 12  1  0  0  0  0
 11  6  1  0  0  0  0
 13  9  1  0  0  0  0
 14  9  1  0  0  0  0
M  END
$$$$
