butane_opt
 OpenBabel08242015403D

 14 13  0  0  0  0  0  0  0  0999 V2000
   -3.9575    0.2781    0.0365 C   0  0  0  0  0  0  0  0  0  0  0  0
   -2.6919   -0.6181    0.0080 C   0  0  0  0  0  0  0  0  0  0  0  0
   -4.8557   -0.3254    0.0007 H   0  0  0  0  0  0  0  0  0  0  0  0
   -4.0075    0.7893   -0.7900 H   0  0  0  0  0  0  0  0  0  0  0  0
   -3.9535    1.0111    0.9327 H   0  0  0  0  0  0  0  0  0  0  0  0
   -1.3952    0.1667   -0.0045 C   0  0  0  0  0  0  0  0  0  0  0  0
   -2.7754   -1.3182   -0.8755 H   0  0  0  0  0  0  0  0  0  0  0  0
   -2.6834   -1.2614    0.8751 H   0  0  0  0  0  0  0  0  0  0  0  0
   -0.1650   -0.6861    0.0577 C   0  0  0  0  0  0  0  0  0  0  0  0
   -1.3999    0.8661    0.8606 H   0  0  0  0  0  0  0  0  0  0  0  0
   -1.3428    0.8024   -0.9065 H   0  0  0  0  0  0  0  0  0  0  0  0
   -0.0678   -1.4331    1.0274 H   0  0  0  0  0  0  0  0  0  0  0  0
    0.7720   -0.0677   -0.1254 H   0  0  0  0  0  0  0  0  0  0  0  0
   -0.2051   -1.2106   -0.7139 H   0  0  0  0  0  0  0  0  0  0  0  0
  1  5  1  0  0  0  0
  2  1  1  0  0  0  0
  2  8  1  0  0  0  0
  3  1  1  0  0  0  0
  4  1  1  0  0  0  0
  6  2  1  0  0  0  0
  6  9  1  0  0  0  0
  6 10  1  0  0  0  0
  7  2  1  0  0  0  0
  9 12  1  0  0  0  0
 11  6  1  0  0  0  0
 13  9  1  0  0  0  0
 14  9  1  0  0  0  0
M  END
$$$$
