butane_opt
 OpenBabel08242015403D

 14 13  0  0  0  0  0  0  0  0999 V2000
   -3.9508    0.2604   -0.0030 C   0  0  0  0  0  0  0  0  0  0  0  0
   -2.7016   -0.6128    0.0555 C   0  0  0  0  0  0  0  0  0  0  0  0
   -4.8592   -0.3477    0.0230 H   0  0  0  0  0  0  0  0  0  0  0  0
   -3.9631    0.9041   -0.9057 H   0  0  0  0  0  0  0  0  0  0  0  0
   -3.9842    0.9242    0.8353 H   0  0  0  0  0  0  0  0  0  0  0  0
   -1.3969    0.1942    0.0320 C   0  0  0  0  0  0  0  0  0  0  0  0
   -2.7818   -1.2783   -0.7950 H   0  0  0  0  0  0  0  0  0  0  0  0
   -2.7216   -1.2597    0.9288 H   0  0  0  0  0  0  0  0  0  0  0  0
   -0.1597   -0.6983    0.0126 C   0  0  0  0  0  0  0  0  0  0  0  0
   -1.3574    0.9365    0.9353 H   0  0  0  0  0  0  0  0  0  0  0  0
   -1.3931    0.7760   -0.8129 H   0  0  0  0  0  0  0  0  0  0  0  0
   -0.0328   -1.3812    0.9479 H   0  0  0  0  0  0  0  0  0  0  0  0
    0.7483   -0.1346   -0.0708 H   0  0  0  0  0  0  0  0  0  0  0  0
   -0.1727   -1.3317   -0.8103 H   0  0  0  0  0  0  0  0  0  0  0  0
  1  3  1  0  0  0  0
  1  2  1  0  0  0  0
  1  5  1  0  0  0  0
  2  8  1  0  0  0  0
  4  1  1  0  0  0  0
  6  2  1  0  0  0  0
  6 10  1  0  0  0  0
  7  2  1  0  0  0  0
  9  6  1  0  0  0  0
  9 12  1  0  0  0  0
 11  6  1  0  0  0  0
 13  9  1  0  0  0  0
 14  9  1  0  0  0  0
M  END
$$$$
