14
butane_opt
C  -3.943210   0.263355   0.011068
C  -2.708494  -0.609426   0.054448
H  -4.889001  -0.376883   0.000063
H  -3.955162   0.870272  -0.892903
H  -3.987720   0.931051   0.870044
C  -1.406643   0.198136   0.012938
H  -2.794109  -1.292193  -0.800103
H  -2.732420  -1.272118   0.997504
C  -0.141650  -0.703985   0.028227
H  -1.418791   0.831729   0.822042
H  -1.382280   0.874627  -0.900869
H  -0.134880  -1.217310   0.872672
H   0.772924  -0.119804   0.088547
H  -0.096610  -1.484949  -0.915465
