butane_opt
 OpenBabel08242015403D

 14 13  0  0  0  0  0  0  0  0999 V2000
   -3.9354    0.2691    0.0128 C   0  0  0  0  0  0  0  0  0  0  0  0
   -2.6952   -0.6151    0.0505 C   0  0  0  0  0  0  0  0  0  0  0  0
   -4.8086   -0.3065    0.0423 H   0  0  0  0  0  0  0  0  0  0  0  0
   -4.0014    0.9044   -0.9136 H   0  0  0  0  0  0  0  0  0  0  0  0
   -3.9704    0.9143    0.8344 H   0  0  0  0  0  0  0  0  0  0  0  0
   -1.3985    0.1796    0.0091 C   0  0  0  0  0  0  0  0  0  0  0  0
   -2.7302   -1.2988   -0.7941 H   0  0  0  0  0  0  0  0  0  0  0  0
   -2.7432   -1.2949    0.9951 H   0  0  0  0  0  0  0  0  0  0  0  0
   -0.1743   -0.6928    0.0213 C   0  0  0  0  0  0  0  0  0  0  0  0
   -1.3445    0.8656    0.8875 H   0  0  0  0  0  0  0  0  0  0  0  0
   -1.4421    0.7765   -0.8743 H   0  0  0  0  0  0  0  0  0  0  0  0
   -0.1931   -1.2345    0.8649 H   0  0  0  0  0  0  0  0  0  0  0  0
    0.7512   -0.0705    0.1240 H   0  0  0  0  0  0  0  0  0  0  0  0
   -0.1047   -1.4059   -0.8565 H   0  0  0  0  0  0  0  0  0  0  0  0
  1  3  1  0  0  0  0
  1  2  1  0  0  0  0
  1  5  1  0  0  0  0
  2  8  1  0  0  0  0
  4  1  1  0  0  0  0
  6  9  1  0  0  0  0
  6  2  1  0  0  0  0
  6 10  1  0  0  0  0
  7  2  1  0  0  0  0
  9 13  1  0  0  0  0
  9 12  1  0  0  0  0
 11  6  1  0  0  0  0
 14  9  1  0  0  0  0
M  END
$$$$
