14
butane_opt
C  -3.935722   0.265397   0.031724
C  -2.694646  -0.606422   0.029355
H  -4.863260  -0.356970   0.000573
H  -3.923122   0.738195  -0.794922
H  -3.948735   1.027247   0.969852
C  -1.407575   0.186776  -0.014175
H  -2.696002  -1.334829  -0.853066
H  -2.747230  -1.203535   0.908991
C  -0.169739  -0.693485   0.053818
H  -1.402567   0.803689   0.800541
H  -1.363562   0.867463  -0.974500
H  -0.146488  -1.356888   0.999552
H   0.716661  -0.119133  -0.001046
H  -0.156847  -1.367719  -0.803543
