butane_opt
 OpenBabel08242015403D

 14 13  0  0  0  0  0  0  0  0999 V2000
   -3.9410    0.2645   -0.0067 C   0  0  0  0  0  0  0  0  0  0  0  0
   -2.7064   -0.6116    0.0530 C   0  0  0  0  0  0  0  0  0  0  0  0
   -4.9047   -0.3815    0.0300 H   0  0  0  0  0  0  0  0  0  0  0  0
   -3.9557    0.8892   -0.9234 H   0  0  0  0  0  0  0  0  0  0  0  0
   -3.9628    0.9045    0.8588 H   0  0  0  0  0  0  0  0  0  0  0  0
   -1.4063    0.1975    0.0465 C   0  0  0  0  0  0  0  0  0  0  0  0
   -2.7025   -1.3156   -0.7881 H   0  0  0  0  0  0  0  0  0  0  0  0
   -2.7992   -1.2312    0.9291 H   0  0  0  0  0  0  0  0  0  0  0  0
   -0.1510   -0.7012    0.0133 C   0  0  0  0  0  0  0  0  0  0  0  0
   -1.3468    0.9225    0.9304 H   0  0  0  0  0  0  0  0  0  0  0  0
   -1.4165    0.8076   -0.8405 H   0  0  0  0  0  0  0  0  0  0  0  0
   -0.0382   -1.3889    0.9621 H   0  0  0  0  0  0  0  0  0  0  0  0
    0.7343   -0.1369   -0.1664 H   0  0  0  0  0  0  0  0  0  0  0  0
   -0.1714   -1.3336   -0.8193 H   0  0  0  0  0  0  0  0  0  0  0  0
  1  3  1  0  0  0  0
  1  2  1  0  0  0  0
  1  5  1  0  0  0  0
  2  8  1  0  0  0  0
  4  1  1  0  0  0  0
  6  2  1  0  0  0  0
  6 10  1  0  0  0  0
  7  2  1  0  0  0  0
  9  6  1  0  0  0  0
  9 12  1  0  0  0  0
 11  6  1  0  0  0  0
 13  9  1  0  0  0  0
 14  9  1  0  0  0  0
M  END
$$$$
