14
butane_opt
C  -3.953547   0.281293  -0.012531
C  -2.695447  -0.640627   0.092419
H  -4.883401  -0.305900  -0.114813
H  -3.929319   0.830634  -0.873279
H  -4.064590   1.022804   0.859694
C  -1.396709   0.175494   0.029496
H  -2.694865  -1.306237  -0.762937
H  -2.737988  -1.268964   0.984887
C  -0.160397  -0.682657  -0.000267
H  -1.333842   0.847701   0.912906
H  -1.382972   0.816153  -0.870906
H  -0.143403  -1.260148   0.868305
H   0.739023  -0.095064  -0.012918
H  -0.122374  -1.359019  -0.859487
