butane_opt
 OpenBabel08242015403D

 14 13  0  0  0  0  0  0  0  0999 V2000
   -3.9373    0.2528    0.0070 C   0  0  0  0  0  0  0  0  0  0  0  0
   -2.7074   -0.6146    0.0486 C   0  0  0  0  0  0  0  0  0  0  0  0
   -4.8491   -0.3574    0.0839 H   0  0  0  0  0  0  0  0  0  0  0  0
   -3.9732    0.9277   -0.9188 H   0  0  0  0  0  0  0  0  0  0  0  0
   -3.9412    0.9018    0.8569 H   0  0  0  0  0  0  0  0  0  0  0  0
   -1.4184    0.2096    0.0198 C   0  0  0  0  0  0  0  0  0  0  0  0
   -2.7071   -1.2428   -0.7722 H   0  0  0  0  0  0  0  0  0  0  0  0
   -2.7409   -1.2647    0.9494 H   0  0  0  0  0  0  0  0  0  0  0  0
   -0.1438   -0.7048    0.0230 C   0  0  0  0  0  0  0  0  0  0  0  0
   -1.3618    0.8293    0.8504 H   0  0  0  0  0  0  0  0  0  0  0  0
   -1.4278    0.8522   -0.8826 H   0  0  0  0  0  0  0  0  0  0  0  0
   -0.1748   -1.2085    0.8703 H   0  0  0  0  0  0  0  0  0  0  0  0
    0.7450   -0.1415    0.1113 H   0  0  0  0  0  0  0  0  0  0  0  0
   -0.1007   -1.4914   -0.9022 H   0  0  0  0  0  0  0  0  0  0  0  0
  1  2  1  0  0  0  0
  1  3  1  0  0  0  0
  1  5  1  0  0  0  0
  2  8  1  0  0  0  0
  4  1  1  0  0  0  0
  6  9  1  0  0  0  0
  6  2  1  0  0  0  0
  6 10  1  0  0  0  0
  7  2  1  0  0  0  0
  9 13  1  0  0  0  0
  9 12  1  0  0  0  0
 11  6  1  0  0  0  0
 14  9  1  0  0  0  0
M  END
$$$$
