butane_opt
 OpenBabel08242015403D

 14 13  0  0  0  0  0  0  0  0999 V2000
   -3.9332    0.2528   -0.0055 C   0  0  0  0  0  0  0  0  0  0  0  0
   -2.6980   -0.6044    0.0667 C   0  0  0  0  0  0  0  0  0  0  0  0
   -4.8747   -0.3695   -0.0513 H   0  0  0  0  0  0  0  0  0  0  0  0
   -3.8947    0.9330   -0.9365 H   0  0  0  0  0  0  0  0  0  0  0  0
   -3.9807    0.9227    0.8308 H   0  0  0  0  0  0  0  0  0  0  0  0
   -1.4245    0.1910    0.0513 C   0  0  0  0  0  0  0  0  0  0  0  0
   -2.7427   -1.2959   -0.7944 H   0  0  0  0  0  0  0  0  0  0  0  0
   -2.7034   -1.2431    0.9559 H   0  0  0  0  0  0  0  0  0  0  0  0
   -0.1487   -0.7011    0.0015 C   0  0  0  0  0  0  0  0  0  0  0  0
   -1.3895    0.8948    0.9082 H   0  0  0  0  0  0  0  0  0  0  0  0
   -1.4225    0.8153   -0.8397 H   0  0  0  0  0  0  0  0  0  0  0  0
   -0.0988   -1.3354    0.9187 H   0  0  0  0  0  0  0  0  0  0  0  0
    0.7673   -0.1093   -0.0954 H   0  0  0  0  0  0  0  0  0  0  0  0
   -0.2229   -1.3474   -0.8331 H   0  0  0  0  0  0  0  0  0  0  0  0
  1  2  1  0  0  0  0
  1  5  1  0  0  0  0
  2  8  1  0  0  0  0
  3  1  1  0  0  0  0
  4  1  1  0  0  0  0
  6  2  1  0  0  0  0
  6 10  1  0  0  0  0
  7  2  1  0  0  0  0
  9  6  1  0  0  0  0
  9 12  1  0  0  0  0
 11  6  1  0  0  0  0
 13  9  1  0  0  0  0
 14  9  1  0  0  0  0
M  END
$$$$
