14
butane_opt
C  -3.950691   0.262226   0.008843
C  -2.690908  -0.613856   0.042280
H  -4.879633  -0.315168   0.064473
H  -3.973054   0.963124  -0.967125
H  -3.928118   0.861616   0.818922
C  -1.404685   0.177248   0.035093
H  -2.721843  -1.284008  -0.793078
H  -2.675356  -1.263972   0.937482
C  -0.165058  -0.692410   0.013835
H  -1.383341   0.944365   0.929557
H  -1.409198   0.779908  -0.840317
H  -0.129295  -1.331286   0.933390
H   0.772793  -0.075024  -0.019449
H  -0.164012  -1.347102  -0.836289
