14
butane_opt
C  -3.958245   0.279653   0.046861
C  -2.694887  -0.627918   0.008195
H  -4.846801  -0.327399   0.075999
H  -4.039614   0.836761  -0.790826
H  -3.951440   0.947864   0.917743
C  -1.396052   0.173883  -0.031245
H  -2.749999  -1.312151  -0.837368
H  -2.665466  -1.278402   0.925472
C  -0.154877  -0.685349   0.060694
H  -1.394962   0.847290   0.791074
H  -1.408431   0.862441  -0.943200
H  -0.284591  -1.261347   0.944679
H   0.785428  -0.067756   0.154667
H  -0.023728  -1.402397  -0.819285
