butane_opt
 OpenBabel08242015403D

 14 13  0  0  0  0  0  0  0  0999 V2000
   -3.9411    0.2567   -0.0146 C   0  0  0  0  0  0  0  0  0  0  0  0
   -2.6998   -0.5976    0.0724 C   0  0  0  0  0  0  0  0  0  0  0  0
   -4.8414   -0.3407   -0.0333 H   0  0  0  0  0  0  0  0  0  0  0  0
   -3.9054    0.8607   -0.9218 H   0  0  0  0  0  0  0  0  0  0  0  0
   -4.0128    0.9276    0.8677 H   0  0  0  0  0  0  0  0  0  0  0  0
   -1.4064    0.1815    0.0529 C   0  0  0  0  0  0  0  0  0  0  0  0
   -2.6403   -1.2608   -0.7654 H   0  0  0  0  0  0  0  0  0  0  0  0
   -2.7624   -1.2551    0.9686 H   0  0  0  0  0  0  0  0  0  0  0  0
   -0.1576   -0.6994    0.0021 C   0  0  0  0  0  0  0  0  0  0  0  0
   -1.3732    0.8307    0.8970 H   0  0  0  0  0  0  0  0  0  0  0  0
   -1.4303    0.8165   -0.8522 H   0  0  0  0  0  0  0  0  0  0  0  0
   -0.1116   -1.2682    0.8769 H   0  0  0  0  0  0  0  0  0  0  0  0
    0.7451   -0.1132   -0.0909 H   0  0  0  0  0  0  0  0  0  0  0  0
   -0.2236   -1.3609   -0.8567 H   0  0  0  0  0  0  0  0  0  0  0  0
  1  2  1  0  0  0  0
  1  5  1  0  0  0  0
  2  8  1  0  0  0  0
  3  1  1  0  0  0  0
  4  1  1  0  0  0  0
  6  2  1  0  0  0  0
  6 10  1  0  0  0  0
  7  2  1  0  0  0  0
  9  6  1  0  0  0  0
  9 12  1  0  0  0  0
 11  6  1  0  0  0  0
 13  9  1  0  0  0  0
 14  9  1  0  0  0  0
M  END
$$$$
