butane_opt
 OpenBabel08242015403D

 14 13  0  0  0  0  0  0  0  0999 V2000
   -3.9515    0.2794   -0.0024 C   0  0  0  0  0  0  0  0  0  0  0  0
   -2.7021   -0.6358    0.0652 C   0  0  0  0  0  0  0  0  0  0  0  0
   -4.8235   -0.2762   -0.0989 H   0  0  0  0  0  0  0  0  0  0  0  0
   -3.9052    0.8388   -0.8508 H   0  0  0  0  0  0  0  0  0  0  0  0
   -4.0633    0.9807    0.8764 H   0  0  0  0  0  0  0  0  0  0  0  0
   -1.4029    0.1784    0.0276 C   0  0  0  0  0  0  0  0  0  0  0  0
   -2.7045   -1.2646   -0.7644 H   0  0  0  0  0  0  0  0  0  0  0  0
   -2.7256   -1.3158    0.9957 H   0  0  0  0  0  0  0  0  0  0  0  0
   -0.1531   -0.6858    0.0090 C   0  0  0  0  0  0  0  0  0  0  0  0
   -1.2988    0.8722    0.9067 H   0  0  0  0  0  0  0  0  0  0  0  0
   -1.4092    0.7801   -0.8496 H   0  0  0  0  0  0  0  0  0  0  0  0
   -0.1311   -1.3148    0.9352 H   0  0  0  0  0  0  0  0  0  0  0  0
    0.7643   -0.0726   -0.0227 H   0  0  0  0  0  0  0  0  0  0  0  0
   -0.2177   -1.3329   -0.8685 H   0  0  0  0  0  0  0  0  0  0  0  0
  1  2  1  0  0  0  0
  1  5  1  0  0  0  0
  2  8  1  0  0  0  0
  3  1  1  0  0  0  0
  4  1  1  0  0  0  0
  6  2  1  0  0  0  0
  6 10  1  0  0  0  0
  7  2  1  0  0  0  0
  9  6  1  0  0  0  0
  9 12  1  0  0  0  0
 11  6  1  0  0  0  0
 13  9  1  0  0  0  0
 14  9  1  0  0  0  0
M  END
$$$$
