butane_opt
 OpenBabel08242015403D

 14 13  0  0  0  0  0  0  0  0999 V2000
   -3.9489    0.2773   -0.0021 C   0  0  0  0  0  0  0  0  0  0  0  0
   -2.6867   -0.6249    0.0508 C   0  0  0  0  0  0  0  0  0  0  0  0
   -4.8883   -0.3520    0.1310 H   0  0  0  0  0  0  0  0  0  0  0  0
   -3.9859    0.9883   -0.9605 H   0  0  0  0  0  0  0  0  0  0  0  0
   -3.9453    0.8670    0.7768 H   0  0  0  0  0  0  0  0  0  0  0  0
   -1.3959    0.1747    0.0390 C   0  0  0  0  0  0  0  0  0  0  0  0
   -2.7413   -1.2973   -0.8167 H   0  0  0  0  0  0  0  0  0  0  0  0
   -2.6803   -1.2503    0.9333 H   0  0  0  0  0  0  0  0  0  0  0  0
   -0.1744   -0.6909    0.0146 C   0  0  0  0  0  0  0  0  0  0  0  0
   -1.3529    0.9069    0.9289 H   0  0  0  0  0  0  0  0  0  0  0  0
   -1.3948    0.7224   -0.8119 H   0  0  0  0  0  0  0  0  0  0  0  0
   -0.1455   -1.2904    0.9091 H   0  0  0  0  0  0  0  0  0  0  0  0
    0.7551   -0.0561   -0.0495 H   0  0  0  0  0  0  0  0  0  0  0  0
   -0.1751   -1.3419   -0.8398 H   0  0  0  0  0  0  0  0  0  0  0  0
  1  2  1  0  0  0  0
  1  3  1  0  0  0  0
  1  5  1  0  0  0  0
  2  8  1  0  0  0  0
  4  1  1  0  0  0  0
  6  2  1  0  0  0  0
  6 10  1  0  0  0  0
  7  2  1  0  0  0  0
  9  6  1  0  0  0  0
  9 12  1  0  0  0  0
 11  6  1  0  0  0  0
 13  9  1  0  0  0  0
 14  9  1  0  0  0  0
M  END
$$$$
