14
butane_opt
C  -3.947547   0.254573   0.034301
C  -2.708829  -0.603560   0.016893
H  -4.925208  -0.399074   0.092193
H  -4.012865   0.892985  -0.841226
H  -3.903590   0.928269   0.905033
C  -1.407567   0.191650  -0.011972
H  -2.770599  -1.263288  -0.859406
H  -2.677679  -1.228035   0.910573
C  -0.144028  -0.700540   0.056459
H  -1.424997   0.860972   0.824497
H  -1.370225   0.876367  -0.944526
H  -0.090962  -1.297824   0.936297
H   0.741223  -0.137045   0.099273
H  -0.085207  -1.427371  -0.837788
