14
butane_opt
C  -3.949792   0.267814   0.028157
C  -2.696294  -0.626164   0.021076
H  -4.857011  -0.329240  -0.000241
H  -4.059122   0.865818  -0.828099
H  -3.984029   1.016115   0.938502
C  -1.405693   0.179179   0.000678
H  -2.754657  -1.333896  -0.872371
H  -2.715005  -1.244649   0.898196
C  -0.149064  -0.685572   0.043043
H  -1.362812   0.894930   0.868790
H  -1.389836   0.801175  -0.867373
H  -0.119520  -1.440492   1.022554
H   0.774064  -0.101301  -0.085891
H  -0.141272  -1.221119  -0.734592
