butane_opt
 OpenBabel08242015403D

 14 13  0  0  0  0  0  0  0  0999 V2000
   -3.9425    0.2780    0.0428 C   0  0  0  0  0  0  0  0  0  0  0  0
   -2.6883   -0.6276   -0.0068 C   0  0  0  0  0  0  0  0  0  0  0  0
   -4.8807   -0.3505    0.1646 H   0  0  0  0  0  0  0  0  0  0  0  0
   -4.0452    0.9261   -0.8583 H   0  0  0  0  0  0  0  0  0  0  0  0
   -3.9095    0.9228    0.8979 H   0  0  0  0  0  0  0  0  0  0  0  0
   -1.3978    0.1676   -0.0159 C   0  0  0  0  0  0  0  0  0  0  0  0
   -2.7191   -1.3176   -0.8532 H   0  0  0  0  0  0  0  0  0  0  0  0
   -2.6338   -1.2334    0.8801 H   0  0  0  0  0  0  0  0  0  0  0  0
   -0.1777   -0.6829    0.0630 C   0  0  0  0  0  0  0  0  0  0  0  0
   -1.4156    0.8889    0.8816 H   0  0  0  0  0  0  0  0  0  0  0  0
   -1.3779    0.7929   -0.9149 H   0  0  0  0  0  0  0  0  0  0  0  0
   -0.1707   -1.3420    1.0012 H   0  0  0  0  0  0  0  0  0  0  0  0
    0.7802   -0.0640    0.0148 H   0  0  0  0  0  0  0  0  0  0  0  0
   -0.1765   -1.3132   -0.7724 H   0  0  0  0  0  0  0  0  0  0  0  0
  1  3  1  0  0  0  0
  1  5  1  0  0  0  0
  2  1  1  0  0  0  0
  2  8  1  0  0  0  0
  4  1  1  0  0  0  0
  6  2  1  0  0  0  0
  6  9  1  0  0  0  0
  6 10  1  0  0  0  0
  7  2  1  0  0  0  0
  9 12  1  0  0  0  0
 11  6  1  0  0  0  0
 13  9  1  0  0  0  0
 14  9  1  0  0  0  0
M  END
$$$$
