14
butane_opt
C  -3.941685   0.261921   0.048908
C  -2.681040  -0.613099   0.001231
H  -4.881820  -0.368745   0.137911
H  -4.046058   0.927876  -0.858504
H  -3.869535   0.906856   0.925542
C  -1.409369   0.185231  -0.022404
H  -2.742043  -1.338088  -0.920998
H  -2.684649  -1.195779   0.864772
C  -0.174371  -0.694832   0.057261
H  -1.423636   0.884514   0.845800
H  -1.361189   0.805209  -0.908594
H  -0.193731  -1.376078   1.023044
H   0.742324  -0.095338   0.059527
H  -0.080766  -1.294605  -0.749812
