butane_opt
 OpenBabel08242015403D

 14 13  0  0  0  0  0  0  0  0999 V2000
   -3.9366    0.2537    0.0552 C   0  0  0  0  0  0  0  0  0  0  0  0
   -2.7018   -0.6067    0.0183 C   0  0  0  0  0  0  0  0  0  0  0  0
   -4.8640   -0.3643    0.0687 H   0  0  0  0  0  0  0  0  0  0  0  0
   -3.9414    0.8498   -0.8304 H   0  0  0  0  0  0  0  0  0  0  0  0
   -3.9229    0.9496    0.9443 H   0  0  0  0  0  0  0  0  0  0  0  0
   -1.4108    0.2043   -0.0438 C   0  0  0  0  0  0  0  0  0  0  0  0
   -2.7658   -1.3366   -0.8607 H   0  0  0  0  0  0  0  0  0  0  0  0
   -2.6731   -1.1881    0.8612 H   0  0  0  0  0  0  0  0  0  0  0  0
   -0.1628   -0.7068    0.0673 C   0  0  0  0  0  0  0  0  0  0  0  0
   -1.4188    0.8582    0.7715 H   0  0  0  0  0  0  0  0  0  0  0  0
   -1.3105    0.9004   -0.9935 H   0  0  0  0  0  0  0  0  0  0  0  0
   -0.2220   -1.2806    0.9347 H   0  0  0  0  0  0  0  0  0  0  0  0
    0.7174   -0.1482    0.1815 H   0  0  0  0  0  0  0  0  0  0  0  0
   -0.0667   -1.4569   -0.8067 H   0  0  0  0  0  0  0  0  0  0  0  0
  1  3  1  0  0  0  0
  1  5  1  0  0  0  0
  2  1  1  0  0  0  0
  2  8  1  0  0  0  0
  4  1  1  0  0  0  0
  6  2  1  0  0  0  0
  6  9  1  0  0  0  0
  6 10  1  0  0  0  0
  7  2  1  0  0  0  0
  9 13  1  0  0  0  0
  9 12  1  0  0  0  0
 11  6  1  0  0  0  0
 14  9  1  0  0  0  0
M  END
$$$$
