butane_opt
 OpenBabel08242015403D

 14 13  0  0  0  0  0  0  0  0999 V2000
   -3.9272    0.2426    0.0336 C   0  0  0  0  0  0  0  0  0  0  0  0
   -2.6970   -0.6015    0.0082 C   0  0  0  0  0  0  0  0  0  0  0  0
   -4.8408   -0.3480    0.1385 H   0  0  0  0  0  0  0  0  0  0  0  0
   -4.0480    0.9263   -0.8876 H   0  0  0  0  0  0  0  0  0  0  0  0
   -3.8869    0.9038    0.9148 H   0  0  0  0  0  0  0  0  0  0  0  0
   -1.4216    0.2034   -0.0019 C   0  0  0  0  0  0  0  0  0  0  0  0
   -2.7428   -1.3148   -0.8387 H   0  0  0  0  0  0  0  0  0  0  0  0
   -2.7078   -1.1743    0.8606 H   0  0  0  0  0  0  0  0  0  0  0  0
   -0.1548   -0.7059    0.0541 C   0  0  0  0  0  0  0  0  0  0  0  0
   -1.3981    0.8311    0.8221 H   0  0  0  0  0  0  0  0  0  0  0  0
   -1.4164    0.8546   -0.9070 H   0  0  0  0  0  0  0  0  0  0  0  0
   -0.1323   -1.3333    0.9577 H   0  0  0  0  0  0  0  0  0  0  0  0
    0.7142   -0.1286    0.0476 H   0  0  0  0  0  0  0  0  0  0  0  0
   -0.1439   -1.3547   -0.7962 H   0  0  0  0  0  0  0  0  0  0  0  0
  1  3  1  0  0  0  0
  1  5  1  0  0  0  0
  2  1  1  0  0  0  0
  2  8  1  0  0  0  0
  4  1  1  0  0  0  0
  6  2  1  0  0  0  0
  6  9  1  0  0  0  0
  6 10  1  0  0  0  0
  7  2  1  0  0  0  0
  9 12  1  0  0  0  0
 11  6  1  0  0  0  0
 13  9  1  0  0  0  0
 14  9  1  0  0  0  0
M  END
$$$$
