14
butane_opt
C  -3.949557   0.280532   0.000605
C  -2.704972  -0.629167   0.043931
H  -4.882228  -0.341290   0.165798
H  -3.983694   0.994765  -0.974647
H  -3.953567   0.827495   0.769721
C  -1.390909   0.178688   0.046090
H  -2.682781  -1.274684  -0.799467
H  -2.734201  -1.276176   0.931676
C  -0.161849  -0.687819   0.015911
H  -1.394675   0.869295   0.914700
H  -1.371575   0.772241  -0.834381
H  -0.100968  -1.236858   0.874322
H   0.751558  -0.122546  -0.016022
H  -0.186817  -1.386484  -0.882809
