butane_opt
 OpenBabel08242015403D

 14 13  0  0  0  0  0  0  0  0999 V2000
   -3.9559    0.2783    0.0008 C   0  0  0  0  0  0  0  0  0  0  0  0
   -2.6988   -0.6359    0.0469 C   0  0  0  0  0  0  0  0  0  0  0  0
   -4.8359   -0.3204    0.0887 H   0  0  0  0  0  0  0  0  0  0  0  0
   -4.0313    1.0208   -0.9630 H   0  0  0  0  0  0  0  0  0  0  0  0
   -3.9691    0.8622    0.8021 H   0  0  0  0  0  0  0  0  0  0  0  0
   -1.3899    0.1768    0.0384 C   0  0  0  0  0  0  0  0  0  0  0  0
   -2.6733   -1.2630   -0.7753 H   0  0  0  0  0  0  0  0  0  0  0  0
   -2.7540   -1.3331    0.9740 H   0  0  0  0  0  0  0  0  0  0  0  0
   -0.1625   -0.6771    0.0113 C   0  0  0  0  0  0  0  0  0  0  0  0
   -1.3770    0.9037    0.9429 H   0  0  0  0  0  0  0  0  0  0  0  0
   -1.3584    0.7502   -0.8185 H   0  0  0  0  0  0  0  0  0  0  0  0
   -0.1118   -1.2600    0.9007 H   0  0  0  0  0  0  0  0  0  0  0  0
    0.7310   -0.1033   -0.0083 H   0  0  0  0  0  0  0  0  0  0  0  0
   -0.1642   -1.4258   -0.8924 H   0  0  0  0  0  0  0  0  0  0  0  0
  1  2  1  0  0  0  0
  1  3  1  0  0  0  0
  1  5  1  0  0  0  0
  2  8  1  0  0  0  0
  4  1  1  0  0  0  0
  6  2  1  0  0  0  0
  6 10  1  0  0  0  0
  7  2  1  0  0  0  0
  9  6  1  0  0  0  0
  9 12  1  0  0  0  0
 11  6  1  0  0  0  0
 13  9  1  0  0  0  0
 14  9  1  0  0  0  0
M  END
$$$$
