14
butane_opt
C  -3.931183   0.279088   0.035078
C  -2.703640  -0.629999   0.030291
H  -4.854970  -0.353131  -0.104532
H  -3.938720   0.762074  -0.779402
H  -4.003756   1.115179   1.024105
C  -1.401998   0.173204  -0.018738
H  -2.712473  -1.299214  -0.840535
H  -2.647332  -1.233796   0.898238
C  -0.171616  -0.688753   0.058336
H  -1.421145   0.774618   0.784692
H  -1.346167   0.844881  -0.945628
H  -0.180478  -1.327655   0.983557
H   0.774669  -0.068821  -0.050055
H  -0.188045  -1.288699  -0.776813
