butane_opt
 OpenBabel08242015403D

 14 13  0  0  0  0  0  0  0  0999 V2000
   -3.9419    0.2575    0.0452 C   0  0  0  0  0  0  0  0  0  0  0  0
   -2.7031   -0.6056   -0.0033 C   0  0  0  0  0  0  0  0  0  0  0  0
   -4.8605   -0.3346    0.0163 H   0  0  0  0  0  0  0  0  0  0  0  0
   -4.0287    0.8254   -0.7967 H   0  0  0  0  0  0  0  0  0  0  0  0
   -3.9322    1.0099    0.9308 H   0  0  0  0  0  0  0  0  0  0  0  0
   -1.3963    0.1856   -0.0091 C   0  0  0  0  0  0  0  0  0  0  0  0
   -2.7789   -1.2810   -0.8852 H   0  0  0  0  0  0  0  0  0  0  0  0
   -2.7223   -1.2373    0.8811 H   0  0  0  0  0  0  0  0  0  0  0  0
   -0.1582   -0.7045    0.0642 C   0  0  0  0  0  0  0  0  0  0  0  0
   -1.4125    0.8663    0.8496 H   0  0  0  0  0  0  0  0  0  0  0  0
   -1.3907    0.8154   -0.9157 H   0  0  0  0  0  0  0  0  0  0  0  0
   -0.0718   -1.4038    1.0190 H   0  0  0  0  0  0  0  0  0  0  0  0
    0.7613   -0.1029   -0.1112 H   0  0  0  0  0  0  0  0  0  0  0  0
   -0.1893   -1.2250   -0.6969 H   0  0  0  0  0  0  0  0  0  0  0  0
  1  5  1  0  0  0  0
  2  1  1  0  0  0  0
  2  8  1  0  0  0  0
  3  1  1  0  0  0  0
  4  1  1  0  0  0  0
  6  2  1  0  0  0  0
  6  9  1  0  0  0  0
  6 10  1  0  0  0  0
  7  2  1  0  0  0  0
  9 12  1  0  0  0  0
 11  6  1  0  0  0  0
 13  9  1  0  0  0  0
 14  9  1  0  0  0  0
M  END
$$$$
