14
butane_opt
C  -3.939757   0.264110   0.008046
C  -2.703186  -0.609050   0.057202
H  -4.905308  -0.392441   0.073833
H  -3.913627   0.898266  -0.920471
H  -3.966418   0.872673   0.811031
C  -1.415067   0.195318   0.010164
H  -2.721469  -1.251817  -0.756831
H  -2.678164  -1.246246   0.963920
C  -0.155149  -0.701392   0.026663
H  -1.364565   0.853410   0.867951
H  -1.413927   0.805735  -0.884903
H  -0.144044  -1.203000   0.842010
H   0.741019  -0.083763   0.127632
H  -0.098201  -1.521119  -0.924751
