14
butane_opt
C  -3.938242   0.251078   0.041749
C  -2.717362  -0.603552   0.002309
H  -4.814897  -0.349852   0.012775
H  -4.000165   0.801601  -0.797916
H  -3.953806   1.014703   0.966849
C  -1.403128   0.205723  -0.005664
H  -2.747057  -1.315015  -0.890122
H  -2.721785  -1.231632   0.909376
C  -0.154076  -0.711641   0.057220
H  -1.428718   0.891383   0.821327
H  -1.359336   0.830780  -0.917813
H  -0.092789  -1.456735   1.024763
H   0.758495  -0.115309  -0.107690
H  -0.103700  -1.237087  -0.711244
