butane_opt
 OpenBabel08242015403D

 14 13  0  0  0  0  0  0  0  0999 V2000
   -3.9411    0.2722   -0.0092 C   0  0  0  0  0  0  0  0  0  0  0  0
   -2.6909   -0.6291    0.0516 C   0  0  0  0  0  0  0  0  0  0  0  0
   -4.8013   -0.2897    0.0358 H   0  0  0  0  0  0  0  0  0  0  0  0
   -3.9507    0.9143   -0.9247 H   0  0  0  0  0  0  0  0  0  0  0  0
   -3.9705    0.9247    0.8546 H   0  0  0  0  0  0  0  0  0  0  0  0
   -1.4018    0.1781    0.0479 C   0  0  0  0  0  0  0  0  0  0  0  0
   -2.6307   -1.2866   -0.7550 H   0  0  0  0  0  0  0  0  0  0  0  0
   -2.7520   -1.2665    0.9604 H   0  0  0  0  0  0  0  0  0  0  0  0
   -0.1826   -0.6854    0.0092 C   0  0  0  0  0  0  0  0  0  0  0  0
   -1.3601    0.8958    0.9248 H   0  0  0  0  0  0  0  0  0  0  0  0
   -1.3989    0.7617   -0.8056 H   0  0  0  0  0  0  0  0  0  0  0  0
   -0.1114   -1.3566    0.9434 H   0  0  0  0  0  0  0  0  0  0  0  0
    0.7736   -0.0659   -0.1318 H   0  0  0  0  0  0  0  0  0  0  0  0
   -0.2343   -1.3195   -0.8534 H   0  0  0  0  0  0  0  0  0  0  0  0
  1  3  1  0  0  0  0
  1  2  1  0  0  0  0
  1  5  1  0  0  0  0
  2  8  1  0  0  0  0
  4  1  1  0  0  0  0
  6  2  1  0  0  0  0
  6 10  1  0  0  0  0
  7  2  1  0  0  0  0
  9  6  1  0  0  0  0
  9 12  1  0  0  0  0
 11  6  1  0  0  0  0
 13  9  1  0  0  0  0
 14  9  1  0  0  0  0
M  END
$$$$
