14
butane_opt
C  -3.932665   0.259859   0.046799
C  -2.696911  -0.606797   0.009793
H  -4.849019  -0.348461  -0.003405
H  -3.958302   0.768922  -0.773392
H  -3.924820   0.984743   0.968528
C  -1.410369   0.188432  -0.030754
H  -2.710695  -1.261310  -0.836177
H  -2.722490  -1.241134   0.896924
C  -0.164370  -0.700240   0.065429
H  -1.473868   0.852121   0.817402
H  -1.405555   0.853975  -0.949809
H  -0.157460  -1.325634   0.993401
H   0.762214  -0.099109   0.024866
H  -0.134527  -1.353509  -0.784790
