14
butane_opt
C  -3.945010   0.270209   0.042698
C  -2.690559  -0.621333   0.015278
H  -4.850071  -0.315229  -0.047103
H  -3.955981   0.765374  -0.740684
H  -4.032798   1.075672   0.972907
C  -1.402934   0.170318  -0.022013
H  -2.712224  -1.274416  -0.833849
H  -2.623769  -1.267585   0.896423
C  -0.172375  -0.679780   0.061967
H  -1.410466   0.778555   0.785303
H  -1.344448   0.834148  -0.960009
H  -0.168364  -1.356243   0.995641
H   0.758512  -0.053778   0.015118
H  -0.156253  -1.333116  -0.802715
