butane_opt
 OpenBabel08242015403D

 14 13  0  0  0  0  0  0  0  0999 V2000
   -3.9268    0.2586   -0.0053 C   0  0  0  0  0  0  0  0  0  0  0  0
   -2.7069   -0.6031    0.0529 C   0  0  0  0  0  0  0  0  0  0  0  0
   -4.8548   -0.3393    0.0322 H   0  0  0  0  0  0  0  0  0  0  0  0
   -3.9331    0.8921   -0.9173 H   0  0  0  0  0  0  0  0  0  0  0  0
   -3.9325    0.8631    0.8317 H   0  0  0  0  0  0  0  0  0  0  0  0
   -1.4107    0.1932    0.0407 C   0  0  0  0  0  0  0  0  0  0  0  0
   -2.7203   -1.3032   -0.7910 H   0  0  0  0  0  0  0  0  0  0  0  0
   -2.7478   -1.2412    0.9694 H   0  0  0  0  0  0  0  0  0  0  0  0
   -0.1612   -0.6976    0.0059 C   0  0  0  0  0  0  0  0  0  0  0  0
   -1.4157    0.9487    0.9643 H   0  0  0  0  0  0  0  0  0  0  0  0
   -1.4365    0.7605   -0.8268 H   0  0  0  0  0  0  0  0  0  0  0  0
   -0.0697   -1.4101    0.9509 H   0  0  0  0  0  0  0  0  0  0  0  0
    0.7411   -0.1365   -0.0872 H   0  0  0  0  0  0  0  0  0  0  0  0
   -0.1919   -1.3135   -0.8154 H   0  0  0  0  0  0  0  0  0  0  0  0
  1  3  1  0  0  0  0
  1  2  1  0  0  0  0
  1  5  1  0  0  0  0
  2  8  1  0  0  0  0
  4  1  1  0  0  0  0
  6  2  1  0  0  0  0
  6 10  1  0  0  0  0
  7  2  1  0  0  0  0
  9  6  1  0  0  0  0
  9 12  1  0  0  0  0
 11  6  1  0  0  0  0
 13  9  1  0  0  0  0
 14  9  1  0  0  0  0
M  END
$$$$
