14
butane_opt
C  -3.933870   0.256461  -0.006162
C  -2.707642  -0.601665   0.070358
H  -4.884110  -0.380030   0.034382
H  -3.909261   0.915646  -0.968375
H  -3.889907   0.864604   0.819104
C  -1.411930   0.196442   0.040005
H  -2.672691  -1.243755  -0.755776
H  -2.738707  -1.233114   0.956752
C  -0.162330  -0.706849   0.007965
H  -1.347572   0.842091   0.900957
H  -1.444937   0.861781  -0.880610
H  -0.148078  -1.230476   0.846447
H   0.734996  -0.124234   0.069212
H  -0.132044  -1.484702  -0.941205
