14
butane_opt
C  -3.966296   0.275324  -0.016197
C  -2.693184  -0.634074   0.078956
H  -4.831817  -0.266382  -0.075577
H  -3.924904   0.859237  -0.912555
H  -4.046274   0.975344   0.839114
C  -1.385122   0.174077   0.047319
H  -2.720037  -1.261289  -0.747328
H  -2.714176  -1.316774   0.987014
C  -0.167515  -0.685323  -0.004789
H  -1.333863   0.909369   0.950170
H  -1.369890   0.793743  -0.834974
H  -0.072005  -1.304451   0.910352
H   0.731340  -0.100648  -0.058841
H  -0.204611  -1.318916  -0.877745
