butane_opt
 OpenBabel08242015403D

 14 13  0  0  0  0  0  0  0  0999 V2000
   -3.9606    0.2674   -0.0119 C   0  0  0  0  0  0  0  0  0  0  0  0
   -2.7051   -0.6196    0.0821 C   0  0  0  0  0  0  0  0  0  0  0  0
   -4.8397   -0.2882    0.0396 H   0  0  0  0  0  0  0  0  0  0  0  0
   -3.9220    0.8915   -0.9286 H   0  0  0  0  0  0  0  0  0  0  0  0
   -4.0140    0.9257    0.8319 H   0  0  0  0  0  0  0  0  0  0  0  0
   -1.3982    0.1800    0.0220 C   0  0  0  0  0  0  0  0  0  0  0  0
   -2.7123   -1.2445   -0.7597 H   0  0  0  0  0  0  0  0  0  0  0  0
   -2.7457   -1.2990    1.0152 H   0  0  0  0  0  0  0  0  0  0  0  0
   -0.1495   -0.6963    0.0023 C   0  0  0  0  0  0  0  0  0  0  0  0
   -1.3389    0.9205    0.9197 H   0  0  0  0  0  0  0  0  0  0  0  0
   -1.3870    0.7869   -0.8572 H   0  0  0  0  0  0  0  0  0  0  0  0
   -0.1969   -1.2120    0.8168 H   0  0  0  0  0  0  0  0  0  0  0  0
    0.7957   -0.0699    0.1233 H   0  0  0  0  0  0  0  0  0  0  0  0
   -0.1058   -1.4587   -0.9035 H   0  0  0  0  0  0  0  0  0  0  0  0
  1  3  1  0  0  0  0
  1  2  1  0  0  0  0
  1  5  1  0  0  0  0
  2  8  1  0  0  0  0
  4  1  1  0  0  0  0
  6  2  1  0  0  0  0
  6 10  1  0  0  0  0
  7  2  1  0  0  0  0
  9  6  1  0  0  0  0
  9 13  1  0  0  0  0
  9 12  1  0  0  0  0
 11  6  1  0  0  0  0
 14  9  1  0  0  0  0
M  END
$$$$
