butane_opt
 OpenBabel08242015403D

 14 13  0  0  0  0  0  0  0  0999 V2000
   -3.9286    0.2587    0.0505 C   0  0  0  0  0  0  0  0  0  0  0  0
   -2.7133   -0.6080   -0.0006 C   0  0  0  0  0  0  0  0  0  0  0  0
   -4.8599   -0.3569    0.1943 H   0  0  0  0  0  0  0  0  0  0  0  0
   -4.0284    0.9256   -0.8770 H   0  0  0  0  0  0  0  0  0  0  0  0
   -3.8198    0.8466    0.8619 H   0  0  0  0  0  0  0  0  0  0  0  0
   -1.4094    0.1941   -0.0153 C   0  0  0  0  0  0  0  0  0  0  0  0
   -2.7176   -1.3724   -0.8976 H   0  0  0  0  0  0  0  0  0  0  0  0
   -2.6817   -1.1280    0.8214 H   0  0  0  0  0  0  0  0  0  0  0  0
   -0.1594   -0.7045    0.0615 C   0  0  0  0  0  0  0  0  0  0  0  0
   -1.4262    0.8748    0.8174 H   0  0  0  0  0  0  0  0  0  0  0  0
   -1.3577    0.8710   -0.9283 H   0  0  0  0  0  0  0  0  0  0  0  0
   -0.1835   -1.3467    0.9889 H   0  0  0  0  0  0  0  0  0  0  0  0
    0.6882   -0.1350    0.0578 H   0  0  0  0  0  0  0  0  0  0  0  0
   -0.0998   -1.3453   -0.7575 H   0  0  0  0  0  0  0  0  0  0  0  0
  1  3  1  0  0  0  0
  1  5  1  0  0  0  0
  2  1  1  0  0  0  0
  2  8  1  0  0  0  0
  4  1  1  0  0  0  0
  6  2  1  0  0  0  0
  6  9  1  0  0  0  0
  6 10  1  0  0  0  0
  7  2  1  0  0  0  0
  9 12  1  0  0  0  0
 11  6  1  0  0  0  0
 13  9  1  0  0  0  0
 14  9  1  0  0  0  0
M  END
$$$$
