14
butane_opt
C  -3.957108   0.269690  -0.016630
C  -2.703598  -0.631202   0.077953
H  -4.825159  -0.285527  -0.063859
H  -3.937860   0.860706  -0.872784
H  -4.021650   1.016704   0.890877
C  -1.397587   0.192267   0.035614
H  -2.665840  -1.278513  -0.737829
H  -2.788957  -1.301783   0.979039
C  -0.153500  -0.693046   0.005367
H  -1.326242   0.862012   0.880051
H  -1.385345   0.759123  -0.815650
H  -0.130105  -1.307117   0.902332
H   0.769313  -0.074186  -0.075334
H  -0.174606  -1.367183  -0.868414
