14
butane_opt
C  -3.948774   0.260366   0.023548
C  -2.711714  -0.615916   0.023683
H  -4.849558  -0.308409   0.008978
H  -3.998952   0.808465  -0.804542
H  -3.950064   0.994496   0.921635
C  -1.396007   0.198013   0.005563
H  -2.727663  -1.326653  -0.868580
H  -2.714994  -1.219402   0.896382
C  -0.146267  -0.702632   0.039640
H  -1.392186   0.899133   0.883687
H  -1.387442   0.803031  -0.882041
H  -0.142047  -1.449925   1.040216
H   0.745246  -0.112940  -0.140473
H  -0.166677  -1.238340  -0.709757
