butane_opt
 OpenBabel08242015403D

 14 13  0  0  0  0  0  0  0  0999 V2000
   -3.9434    0.2540   -0.0172 C   0  0  0  0  0  0  0  0  0  0  0  0
   -2.7217   -0.6040    0.0736 C   0  0  0  0  0  0  0  0  0  0  0  0
   -4.8687   -0.3609    0.0711 H   0  0  0  0  0  0  0  0  0  0  0  0
   -3.9594    0.8687   -0.9154 H   0  0  0  0  0  0  0  0  0  0  0  0
   -3.9565    0.9431    0.8396 H   0  0  0  0  0  0  0  0  0  0  0  0
   -1.4078    0.2085    0.0290 C   0  0  0  0  0  0  0  0  0  0  0  0
   -2.7180   -1.2371   -0.7332 H   0  0  0  0  0  0  0  0  0  0  0  0
   -2.7536   -1.2873    1.0260 H   0  0  0  0  0  0  0  0  0  0  0  0
   -0.1413   -0.7101    0.0084 C   0  0  0  0  0  0  0  0  0  0  0  0
   -1.3822    0.8546    0.8700 H   0  0  0  0  0  0  0  0  0  0  0  0
   -1.4289    0.7931   -0.8492 H   0  0  0  0  0  0  0  0  0  0  0  0
   -0.1201   -1.2210    0.8186 H   0  0  0  0  0  0  0  0  0  0  0  0
    0.7997   -0.1088    0.1083 H   0  0  0  0  0  0  0  0  0  0  0  0
   -0.0654   -1.4940   -0.9291 H   0  0  0  0  0  0  0  0  0  0  0  0
  1  3  1  0  0  0  0
  1  2  1  0  0  0  0
  1  5  1  0  0  0  0
  2  8  1  0  0  0  0
  4  1  1  0  0  0  0
  6  2  1  0  0  0  0
  6 10  1  0  0  0  0
  7  2  1  0  0  0  0
  9  6  1  0  0  0  0
  9 13  1  0  0  0  0
  9 12  1  0  0  0  0
 11  6  1  0  0  0  0
 14  9  1  0  0  0  0
M  END
$$$$
