butane_opt
 OpenBabel08242015403D

 14 13  0  0  0  0  0  0  0  0999 V2000
   -3.9491    0.2576    0.0495 C   0  0  0  0  0  0  0  0  0  0  0  0
   -2.7118   -0.6062   -0.0048 C   0  0  0  0  0  0  0  0  0  0  0  0
   -4.8834   -0.3412    0.1566 H   0  0  0  0  0  0  0  0  0  0  0  0
   -4.0080    0.9133   -0.8664 H   0  0  0  0  0  0  0  0  0  0  0  0
   -3.9073    0.8506    0.8927 H   0  0  0  0  0  0  0  0  0  0  0  0
   -1.4040    0.1973   -0.0099 C   0  0  0  0  0  0  0  0  0  0  0  0
   -2.8093   -1.3474   -0.9094 H   0  0  0  0  0  0  0  0  0  0  0  0
   -2.6729   -1.1584    0.8291 H   0  0  0  0  0  0  0  0  0  0  0  0
   -0.1437   -0.7066    0.0630 C   0  0  0  0  0  0  0  0  0  0  0  0
   -1.4370    0.8442    0.8196 H   0  0  0  0  0  0  0  0  0  0  0  0
   -1.4087    0.8673   -0.9027 H   0  0  0  0  0  0  0  0  0  0  0  0
   -0.1319   -1.3877    1.0110 H   0  0  0  0  0  0  0  0  0  0  0  0
    0.7853   -0.0784    0.0019 H   0  0  0  0  0  0  0  0  0  0  0  0
   -0.0526   -1.3377   -0.7722 H   0  0  0  0  0  0  0  0  0  0  0  0
  1  3  1  0  0  0  0
  1  5  1  0  0  0  0
  2  1  1  0  0  0  0
  2  8  1  0  0  0  0
  4  1  1  0  0  0  0
  6  2  1  0  0  0  0
  6  9  1  0  0  0  0
  6 10  1  0  0  0  0
  7  2  1  0  0  0  0
  9 12  1  0  0  0  0
 11  6  1  0  0  0  0
 13  9  1  0  0  0  0
 14  9  1  0  0  0  0
M  END
$$$$
