14
butane_opt
C  -3.955631   0.272709   0.044721
C  -2.690704  -0.630658   0.015148
H  -4.856564  -0.294077   0.077462
H  -4.043712   0.855547  -0.831027
H  -3.948177   0.964589   0.930266
C  -1.397777   0.175460  -0.025735
H  -2.730445  -1.327604  -0.838248
H  -2.650739  -1.196520   0.866431
C  -0.170272  -0.684968   0.061069
H  -1.358710   0.793983   0.798615
H  -1.365160   0.849283  -0.978821
H  -0.180669  -1.277264   0.937882
H   0.736211  -0.072416   0.150552
H  -0.059494  -1.357287  -0.812099
