14
butane_opt
C  -3.939629   0.262166  -0.015123
C  -2.696778  -0.608477   0.080670
H  -4.866906  -0.324769  -0.100592
H  -3.897394   0.818369  -0.870721
H  -4.009471   0.963335   0.848482
C  -1.395143   0.190512   0.040117
H  -2.681284  -1.271593  -0.744332
H  -2.756133  -1.285392   1.010034
C  -0.178455  -0.699533   0.006894
H  -1.385049   0.876264   0.883023
H  -1.411939   0.791785  -0.848754
H  -0.025755  -1.289488   0.868446
H   0.734953  -0.121844  -0.057953
H  -0.206681  -1.365633  -0.892540
