14
butane_opt
C  -3.961716   0.279850   0.042306
C  -2.696479  -0.628937   0.020504
H  -4.878421  -0.325499   0.079108
H  -4.007258   0.900792  -0.851520
H  -3.963641   0.951025   0.885854
C  -1.380566   0.173746  -0.030021
H  -2.755568  -1.292219  -0.828514
H  -2.661131  -1.268012   0.890398
C  -0.168610  -0.690160   0.060873
H  -1.367397   0.854066   0.831974
H  -1.386468   0.779652  -0.898898
H  -0.221627  -1.218825   0.909308
H   0.777066  -0.082030   0.099558
H  -0.073584  -1.380416  -0.810427
