butane_opt
 OpenBabel08242015403D

 14 13  0  0  0  0  0  0  0  0999 V2000
   -3.9432    0.2644    0.0039 C   0  0  0  0  0  0  0  0  0  0  0  0
   -2.6911   -0.6207    0.0637 C   0  0  0  0  0  0  0  0  0  0  0  0
   -4.8298   -0.2940    0.0650 H   0  0  0  0  0  0  0  0  0  0  0  0
   -3.9240    0.9380   -0.9372 H   0  0  0  0  0  0  0  0  0  0  0  0
   -3.9680    0.8862    0.8217 H   0  0  0  0  0  0  0  0  0  0  0  0
   -1.4112    0.1771    0.0184 C   0  0  0  0  0  0  0  0  0  0  0  0
   -2.6526   -1.2779   -0.7442 H   0  0  0  0  0  0  0  0  0  0  0  0
   -2.7137   -1.2542    0.9782 H   0  0  0  0  0  0  0  0  0  0  0  0
   -0.1745   -0.6867    0.0116 C   0  0  0  0  0  0  0  0  0  0  0  0
   -1.3294    0.8337    0.8786 H   0  0  0  0  0  0  0  0  0  0  0  0
   -1.4111    0.8191   -0.8915 H   0  0  0  0  0  0  0  0  0  0  0  0
   -0.2001   -1.1470    0.8332 H   0  0  0  0  0  0  0  0  0  0  0  0
    0.7280   -0.1145    0.1739 H   0  0  0  0  0  0  0  0  0  0  0  0
   -0.0875   -1.4700   -0.9210 H   0  0  0  0  0  0  0  0  0  0  0  0
  1  2  1  0  0  0  0
  1  3  1  0  0  0  0
  1  5  1  0  0  0  0
  2  8  1  0  0  0  0
  4  1  1  0  0  0  0
  6  2  1  0  0  0  0
  6 10  1  0  0  0  0
  7  2  1  0  0  0  0
  9  6  1  0  0  0  0
  9 13  1  0  0  0  0
  9 12  1  0  0  0  0
 11  6  1  0  0  0  0
 14  9  1  0  0  0  0
M  END
$$$$
