14
butane_opt
C  -3.945857   0.278147   0.046648
C  -2.704202  -0.617532   0.016314
H  -4.850225  -0.325687   0.028190
H  -3.917891   0.813770  -0.821672
H  -3.955095   0.983078   0.932117
C  -1.401972   0.170682  -0.028028
H  -2.754194  -1.302834  -0.841851
H  -2.619023  -1.293682   0.931532
C  -0.170469  -0.690510   0.055892
H  -1.386987   0.844777   0.793461
H  -1.350091   0.834920  -0.944119
H  -0.227785  -1.264077   0.958174
H   0.781216  -0.067217   0.131940
H  -0.082044  -1.381321  -0.817722
