14
butane_opt
C  -3.937681   0.265474   0.033899
C  -2.700524  -0.618329   0.036803
H  -4.848370  -0.350643  -0.135320
H  -3.912552   0.771087  -0.780963
H  -4.013975   1.060725   0.992863
C  -1.412596   0.180648  -0.014979
H  -2.688538  -1.281007  -0.808556
H  -2.699698  -1.227476   0.933298
C  -0.163233  -0.693374   0.038693
H  -1.388124   0.841366   0.817555
H  -1.431101   0.828582  -0.930373
H  -0.177103  -1.364478   0.988080
H   0.789072  -0.065038   0.015871
H  -0.088402  -1.298199  -0.767216
