14
butane_opt
C  -3.942719   0.273219  -0.000616
C  -2.681401  -0.634233   0.065175
H  -4.864793  -0.299068   0.074411
H  -4.000511   0.956956  -0.966155
H  -3.958587   0.831066   0.768380
C  -1.403787   0.183113   0.033704
H  -2.691547  -1.268439  -0.760892
H  -2.709747  -1.257978   0.957037
C  -0.175219  -0.688885   0.007776
H  -1.346719   0.849891   0.912858
H  -1.443595   0.830377  -0.865213
H  -0.187247  -1.177397   0.821395
H   0.740853  -0.084991   0.128500
H  -0.126641  -1.453653  -0.922508
