butane_opt
 OpenBabel08242015403D

 14 13  0  0  0  0  0  0  0  0999 V2000
   -3.9436    0.2671    0.0329 C   0  0  0  0  0  0  0  0  0  0  0  0
   -2.6888   -0.6271    0.0416 C   0  0  0  0  0  0  0  0  0  0  0  0
   -4.8476   -0.3162    0.0671 H   0  0  0  0  0  0  0  0  0  0  0  0
   -3.9563    0.8781   -0.8742 H   0  0  0  0  0  0  0  0  0  0  0  0
   -3.9526    0.9183    0.8732 H   0  0  0  0  0  0  0  0  0  0  0  0
   -1.4002    0.1850   -0.0168 C   0  0  0  0  0  0  0  0  0  0  0  0
   -2.6794   -1.3166   -0.8399 H   0  0  0  0  0  0  0  0  0  0  0  0
   -2.6894   -1.1916    0.9041 H   0  0  0  0  0  0  0  0  0  0  0  0
   -0.1749   -0.6902    0.0465 C   0  0  0  0  0  0  0  0  0  0  0  0
   -1.4105    0.8637    0.8152 H   0  0  0  0  0  0  0  0  0  0  0  0
   -1.4248    0.8270   -0.9357 H   0  0  0  0  0  0  0  0  0  0  0  0
   -0.2413   -1.2168    0.8966 H   0  0  0  0  0  0  0  0  0  0  0  0
    0.7427   -0.1164    0.1120 H   0  0  0  0  0  0  0  0  0  0  0  0
   -0.0738   -1.4230   -0.8348 H   0  0  0  0  0  0  0  0  0  0  0  0
  1  2  1  0  0  0  0
  1  3  1  0  0  0  0
  1  5  1  0  0  0  0
  2  8  1  0  0  0  0
  4  1  1  0  0  0  0
  6  2  1  0  0  0  0
  6  9  1  0  0  0  0
  6 10  1  0  0  0  0
  7  2  1  0  0  0  0
  9 13  1  0  0  0  0
  9 12  1  0  0  0  0
 11  6  1  0  0  0  0
 14  9  1  0  0  0  0
M  END
$$$$
