butane_opt
 OpenBabel08242015403D

 14 13  0  0  0  0  0  0  0  0999 V2000
   -3.9417    0.2736   -0.0003 C   0  0  0  0  0  0  0  0  0  0  0  0
   -2.6877   -0.6203    0.0453 C   0  0  0  0  0  0  0  0  0  0  0  0
   -4.8756   -0.3667    0.0626 H   0  0  0  0  0  0  0  0  0  0  0  0
   -3.9512    0.9084   -0.9187 H   0  0  0  0  0  0  0  0  0  0  0  0
   -3.9872    0.8714    0.8137 H   0  0  0  0  0  0  0  0  0  0  0  0
   -1.4048    0.1815    0.0471 C   0  0  0  0  0  0  0  0  0  0  0  0
   -2.6658   -1.2886   -0.7959 H   0  0  0  0  0  0  0  0  0  0  0  0
   -2.6981   -1.2427    0.9305 H   0  0  0  0  0  0  0  0  0  0  0  0
   -0.1710   -0.6876    0.0097 C   0  0  0  0  0  0  0  0  0  0  0  0
   -1.3280    0.9045    0.8979 H   0  0  0  0  0  0  0  0  0  0  0  0
   -1.4693    0.7656   -0.8088 H   0  0  0  0  0  0  0  0  0  0  0  0
   -0.1282   -1.4001    0.9539 H   0  0  0  0  0  0  0  0  0  0  0  0
    0.7492   -0.0680   -0.0824 H   0  0  0  0  0  0  0  0  0  0  0  0
   -0.2044   -1.3220   -0.8239 H   0  0  0  0  0  0  0  0  0  0  0  0
  1  2  1  0  0  0  0
  1  3  1  0  0  0  0
  1  5  1  0  0  0  0
  2  6  1  0  0  0  0
  2  8  1  0  0  0  0
  4  1  1  0  0  0  0
  6 10  1  0  0  0  0
  7  2  1  0  0  0  0
  9  6  1  0  0  0  0
  9 12  1  0  0  0  0
 11  6  1  0  0  0  0
 13  9  1  0  0  0  0
 14  9  1  0  0  0  0
M  END
$$$$
