butane_opt
 OpenBabel08242015403D

 14 13  0  0  0  0  0  0  0  0999 V2000
   -3.9586    0.2725   -0.0197 C   0  0  0  0  0  0  0  0  0  0  0  0
   -2.6909   -0.6282    0.0750 C   0  0  0  0  0  0  0  0  0  0  0  0
   -4.8673   -0.2872    0.0407 H   0  0  0  0  0  0  0  0  0  0  0  0
   -4.0117    0.9612   -0.9562 H   0  0  0  0  0  0  0  0  0  0  0  0
   -3.9858    0.8651    0.7789 H   0  0  0  0  0  0  0  0  0  0  0  0
   -1.3991    0.1832    0.0592 C   0  0  0  0  0  0  0  0  0  0  0  0
   -2.6987   -1.3693   -0.8333 H   0  0  0  0  0  0  0  0  0  0  0  0
   -2.6980   -1.2596    0.9610 H   0  0  0  0  0  0  0  0  0  0  0  0
   -0.1642   -0.6894   -0.0054 C   0  0  0  0  0  0  0  0  0  0  0  0
   -1.3010    0.8927    0.9381 H   0  0  0  0  0  0  0  0  0  0  0  0
   -1.4010    0.7848   -0.7864 H   0  0  0  0  0  0  0  0  0  0  0  0
   -0.0747   -1.3172    0.8924 H   0  0  0  0  0  0  0  0  0  0  0  0
    0.7554   -0.0761   -0.0961 H   0  0  0  0  0  0  0  0  0  0  0  0
   -0.1865   -1.3158   -0.8158 H   0  0  0  0  0  0  0  0  0  0  0  0
  1  3  1  0  0  0  0
  1  2  1  0  0  0  0
  1  5  1  0  0  0  0
  2  8  1  0  0  0  0
  4  1  1  0  0  0  0
  6  2  1  0  0  0  0
  6 10  1  0  0  0  0
  7  2  1  0  0  0  0
  9  6  1  0  0  0  0
  9 12  1  0  0  0  0
 11  6  1  0  0  0  0
 13  9  1  0  0  0  0
 14  9  1  0  0  0  0
M  END
$$$$
