14
butane_opt
C  -3.953417   0.272818   0.000659
C  -2.691453  -0.618507   0.054126
H  -4.865951  -0.333436  -0.043837
H  -3.946572   0.839754  -0.855843
H  -3.977347   0.964809   0.888459
C  -1.401102   0.166973   0.024672
H  -2.667817  -1.253114  -0.736159
H  -2.724526  -1.296521   0.979854
C  -0.157841  -0.681868   0.017371
H  -1.356037   0.864049   0.892902
H  -1.441880   0.812927  -0.887972
H  -0.171913  -1.274540   0.905925
H   0.723710  -0.086194  -0.008623
H  -0.153143  -1.385734  -0.857307
