14
butane_opt
C  -3.930177   0.256970  -0.019542
C  -2.703541  -0.603629   0.068432
H  -4.873928  -0.364254   0.015640
H  -3.874954   0.889730  -0.923669
H  -4.015454   0.848808   0.787707
C  -1.413966   0.197577   0.067151
H  -2.692587  -1.290306  -0.787688
H  -2.743916  -1.189105   0.963269
C  -0.153986  -0.703981  -0.007257
H  -1.352472   0.895740   0.935435
H  -1.522573   0.799175  -0.796598
H  -0.062522  -1.399015   0.919148
H   0.765415  -0.104684  -0.140506
H  -0.226633  -1.323565  -0.827392
