14
butane_opt
C  -3.939536   0.252925  -0.008660
C  -2.697006  -0.598276   0.054235
H  -4.885132  -0.370965   0.148717
H  -3.974478   0.989882  -0.977485
H  -3.895463   0.814336   0.762253
C  -1.419206   0.192349   0.042786
H  -2.659700  -1.253222  -0.780700
H  -2.739327  -1.262584   0.976315
C  -0.157075  -0.698207   0.009884
H  -1.393910   0.914991   0.917140
H  -1.377944   0.746456  -0.773546
H  -0.071771  -1.284358   0.876635
H   0.744039  -0.120170   0.001765
H  -0.208012  -1.436062  -0.904890
