butane_opt
 OpenBabel08242015403D

 14 13  0  0  0  0  0  0  0  0999 V2000
   -3.9334    0.2587    0.0382 C   0  0  0  0  0  0  0  0  0  0  0  0
   -2.6995   -0.6053    0.0348 C   0  0  0  0  0  0  0  0  0  0  0  0
   -4.8973   -0.3770   -0.0145 H   0  0  0  0  0  0  0  0  0  0  0  0
   -3.9359    0.7994   -0.8071 H   0  0  0  0  0  0  0  0  0  0  0  0
   -3.9641    1.0213    0.9514 H   0  0  0  0  0  0  0  0  0  0  0  0
   -1.4112    0.1893   -0.0257 C   0  0  0  0  0  0  0  0  0  0  0  0
   -2.7197   -1.3297   -0.8547 H   0  0  0  0  0  0  0  0  0  0  0  0
   -2.7016   -1.1801    0.8859 H   0  0  0  0  0  0  0  0  0  0  0  0
   -0.1668   -0.7058    0.0490 C   0  0  0  0  0  0  0  0  0  0  0  0
   -1.3806    0.8527    0.8184 H   0  0  0  0  0  0  0  0  0  0  0  0
   -1.3525    0.8806   -0.9431 H   0  0  0  0  0  0  0  0  0  0  0  0
   -0.1853   -1.3677    0.9782 H   0  0  0  0  0  0  0  0  0  0  0  0
    0.7653   -0.1017    0.0890 H   0  0  0  0  0  0  0  0  0  0  0  0
   -0.1096   -1.3265   -0.8030 H   0  0  0  0  0  0  0  0  0  0  0  0
  1  5  1  0  0  0  0
  2  1  1  0  0  0  0
  2  8  1  0  0  0  0
  3  1  1  0  0  0  0
  4  1  1  0  0  0  0
  6  2  1  0  0  0  0
  6  9  1  0  0  0  0
  6 10  1  0  0  0  0
  7  2  1  0  0  0  0
  9 13  1  0  0  0  0
  9 12  1  0  0  0  0
 11  6  1  0  0  0  0
 14  9  1  0  0  0  0
M  END
$$$$
