14
butane_opt
C  -3.929501   0.245908   0.016304
C  -2.709231  -0.595038   0.021749
H  -4.835822  -0.308643   0.166248
H  -3.982493   0.971479  -0.957748
H  -3.882537   0.802947   0.805055
C  -1.408976   0.192905   0.023944
H  -2.707738  -1.233407  -0.799424
H  -2.708537  -1.223584   0.945086
C  -0.165283  -0.708443   0.031332
H  -1.404973   0.923419   0.912552
H  -1.415857   0.765446  -0.828916
H  -0.110078  -1.310576   0.900608
H   0.753972  -0.104770   0.012657
H  -0.170255  -1.377996  -0.848140
