14
butane_opt
C  -3.944486   0.264161   0.045424
C  -2.691656  -0.618109   0.000236
H  -4.864179  -0.323624   0.212286
H  -4.063645   0.967458  -0.876122
H  -3.939348   0.894886   0.879518
C  -1.407204   0.184927  -0.015660
H  -2.709008  -1.419503  -0.903704
H  -2.685085  -1.193612   0.848941
C  -0.166227  -0.689219   0.063485
H  -1.360550   0.842978   0.822850
H  -1.361124   0.817099  -0.920406
H  -0.161426  -1.331060   0.973804
H   0.739930  -0.085443   0.053654
H  -0.100616  -1.335891  -0.770285
