butane_opt
 OpenBabel08242015403D

 14 13  0  0  0  0  0  0  0  0999 V2000
   -3.9336    0.2648    0.0334 C   0  0  0  0  0  0  0  0  0  0  0  0
   -2.7002   -0.6195    0.0222 C   0  0  0  0  0  0  0  0  0  0  0  0
   -4.8315   -0.3116   -0.0556 H   0  0  0  0  0  0  0  0  0  0  0  0
   -3.9428    0.7624   -0.7758 H   0  0  0  0  0  0  0  0  0  0  0  0
   -3.9396    1.1095    0.9957 H   0  0  0  0  0  0  0  0  0  0  0  0
   -1.4048    0.1846   -0.0182 C   0  0  0  0  0  0  0  0  0  0  0  0
   -2.6984   -1.3054   -0.8500 H   0  0  0  0  0  0  0  0  0  0  0  0
   -2.7089   -1.2869    0.9497 H   0  0  0  0  0  0  0  0  0  0  0  0
   -0.1739   -0.6900    0.0577 C   0  0  0  0  0  0  0  0  0  0  0  0
   -1.3630    0.8402    0.8072 H   0  0  0  0  0  0  0  0  0  0  0  0
   -1.4107    0.8281   -0.9349 H   0  0  0  0  0  0  0  0  0  0  0  0
   -0.1762   -1.3745    0.9937 H   0  0  0  0  0  0  0  0  0  0  0  0
    0.7469   -0.0936   -0.0379 H   0  0  0  0  0  0  0  0  0  0  0  0
   -0.1517   -1.3159   -0.7711 H   0  0  0  0  0  0  0  0  0  0  0  0
  1  5  1  0  0  0  0
  2  1  1  0  0  0  0
  2  8  1  0  0  0  0
  3  1  1  0  0  0  0
  4  1  1  0  0  0  0
  6  2  1  0  0  0  0
  6  9  1  0  0  0  0
  6 10  1  0  0  0  0
  7  2  1  0  0  0  0
  9 12  1  0  0  0  0
 11  6  1  0  0  0  0
 13  9  1  0  0  0  0
 14  9  1  0  0  0  0
M  END
$$$$
