butane_opt
 OpenBabel08242015403D

 14 13  0  0  0  0  0  0  0  0999 V2000
   -3.9539    0.2590    0.0414 C   0  0  0  0  0  0  0  0  0  0  0  0
   -2.7062   -0.6033   -0.0029 C   0  0  0  0  0  0  0  0  0  0  0  0
   -4.8655   -0.3541    0.0603 H   0  0  0  0  0  0  0  0  0  0  0  0
   -3.9977    0.8022   -0.8034 H   0  0  0  0  0  0  0  0  0  0  0  0
   -3.9214    0.9423    0.9236 H   0  0  0  0  0  0  0  0  0  0  0  0
   -1.4084    0.1961    0.0014 C   0  0  0  0  0  0  0  0  0  0  0  0
   -2.7092   -1.3017   -0.8536 H   0  0  0  0  0  0  0  0  0  0  0  0
   -2.7692   -1.2145    0.8677 H   0  0  0  0  0  0  0  0  0  0  0  0
   -0.1384   -0.6961    0.0576 C   0  0  0  0  0  0  0  0  0  0  0  0
   -1.4022    0.8600    0.8231 H   0  0  0  0  0  0  0  0  0  0  0  0
   -1.3629    0.8086   -0.9049 H   0  0  0  0  0  0  0  0  0  0  0  0
   -0.0858   -1.4645    1.0325 H   0  0  0  0  0  0  0  0  0  0  0  0
    0.7128   -0.1465   -0.1142 H   0  0  0  0  0  0  0  0  0  0  0  0
   -0.1374   -1.2726   -0.7407 H   0  0  0  0  0  0  0  0  0  0  0  0
  1  3  1  0  0  0  0
  1  5  1  0  0  0  0
  2  6  1  0  0  0  0
  2  1  1  0  0  0  0
  2  8  1  0  0  0  0
  4  1  1  0  0  0  0
  6  9  1  0  0  0  0
  6 10  1  0  0  0  0
  7  2  1  0  0  0  0
  9 12  1  0  0  0  0
 11  6  1  0  0  0  0
 13  9  1  0  0  0  0
 14  9  1  0  0  0  0
M  END
$$$$
