butane_opt
 OpenBabel08242015403D

 14 13  0  0  0  0  0  0  0  0999 V2000
   -3.9707    0.2718    0.0339 C   0  0  0  0  0  0  0  0  0  0  0  0
   -2.6936   -0.6232    0.0135 C   0  0  0  0  0  0  0  0  0  0  0  0
   -4.8368   -0.3007    0.0587 H   0  0  0  0  0  0  0  0  0  0  0  0
   -4.0077    0.7798   -0.7858 H   0  0  0  0  0  0  0  0  0  0  0  0
   -3.9830    1.0097    0.9414 H   0  0  0  0  0  0  0  0  0  0  0  0
   -1.3983    0.1794   -0.0039 C   0  0  0  0  0  0  0  0  0  0  0  0
   -2.6945   -1.3689   -0.8746 H   0  0  0  0  0  0  0  0  0  0  0  0
   -2.6978   -1.1708    0.8464 H   0  0  0  0  0  0  0  0  0  0  0  0
   -0.1562   -0.6883    0.0576 C   0  0  0  0  0  0  0  0  0  0  0  0
   -1.3892    0.7967    0.8140 H   0  0  0  0  0  0  0  0  0  0  0  0
   -1.3143    0.8402   -0.9378 H   0  0  0  0  0  0  0  0  0  0  0  0
   -0.0939   -1.4165    1.0057 H   0  0  0  0  0  0  0  0  0  0  0  0
    0.7749   -0.0699   -0.0919 H   0  0  0  0  0  0  0  0  0  0  0  0
   -0.1621   -1.2363   -0.7253 H   0  0  0  0  0  0  0  0  0  0  0  0
  1  3  1  0  0  0  0
  1  5  1  0  0  0  0
  2  1  1  0  0  0  0
  2  8  1  0  0  0  0
  4  1  1  0  0  0  0
  6  2  1  0  0  0  0
  6  9  1  0  0  0  0
  6 10  1  0  0  0  0
  7  2  1  0  0  0  0
  9 12  1  0  0  0  0
 11  6  1  0  0  0  0
 13  9  1  0  0  0  0
 14  9  1  0  0  0  0
M  END
$$$$
