butane_opt
 OpenBabel08242015403D

 14 13  0  0  0  0  0  0  0  0999 V2000
   -3.9401    0.2613    0.0334 C   0  0  0  0  0  0  0  0  0  0  0  0
   -2.6975   -0.6007    0.0367 C   0  0  0  0  0  0  0  0  0  0  0  0
   -4.8582   -0.3582   -0.0006 H   0  0  0  0  0  0  0  0  0  0  0  0
   -3.9409    0.8574   -0.8717 H   0  0  0  0  0  0  0  0  0  0  0  0
   -3.9028    0.9446    0.9002 H   0  0  0  0  0  0  0  0  0  0  0  0
   -1.4076    0.1799   -0.0097 C   0  0  0  0  0  0  0  0  0  0  0  0
   -2.7554   -1.2643   -0.8077 H   0  0  0  0  0  0  0  0  0  0  0  0
   -2.7248   -1.2633    0.9436 H   0  0  0  0  0  0  0  0  0  0  0  0
   -0.1632   -0.6970    0.0378 C   0  0  0  0  0  0  0  0  0  0  0  0
   -1.4359    0.8503    0.8317 H   0  0  0  0  0  0  0  0  0  0  0  0
   -1.3628    0.8085   -0.9413 H   0  0  0  0  0  0  0  0  0  0  0  0
   -0.1935   -1.2479    0.8912 H   0  0  0  0  0  0  0  0  0  0  0  0
    0.7139   -0.1104    0.1329 H   0  0  0  0  0  0  0  0  0  0  0  0
   -0.0657   -1.4102   -0.8261 H   0  0  0  0  0  0  0  0  0  0  0  0
  1  2  1  0  0  0  0
  1  5  1  0  0  0  0
  2  8  1  0  0  0  0
  3  1  1  0  0  0  0
  4  1  1  0  0  0  0
  6  2  1  0  0  0  0
  6  9  1  0  0  0  0
  6 10  1  0  0  0  0
  7  2  1  0  0  0  0
  9 13  1  0  0  0  0
  9 12  1  0  0  0  0
 11  6  1  0  0  0  0
 14  9  1  0  0  0  0
M  END
$$$$
