14
butane_opt
C  -3.942272   0.256508  -0.010051
C  -2.702558  -0.610183   0.068267
H  -4.856503  -0.359908  -0.053964
H  -3.940531   0.767923  -0.853516
H  -4.025236   0.990352   0.896221
C  -1.408370   0.204607   0.029499
H  -2.751060  -1.229321  -0.742946
H  -2.763509  -1.295759   0.981471
C  -0.146156  -0.709294   0.009626
H  -1.370703   0.911690   0.902165
H  -1.430370   0.865407  -0.878934
H  -0.112290  -1.307334   0.908424
H   0.750035  -0.147997  -0.018453
H  -0.123122  -1.376008  -0.860870
