14
butane_opt
C  -3.935908   0.257686  -0.012023
C  -2.717156  -0.605447   0.081671
H  -4.808723  -0.330294  -0.003245
H  -3.905904   0.889470  -0.929532
H  -3.943079   0.889236   0.811478
C  -1.408587   0.194173   0.033073
H  -2.726396  -1.267495  -0.761533
H  -2.703193  -1.272168   1.008154
C  -0.157437  -0.703441   0.010188
H  -1.386222   0.862167   0.880678
H  -1.409488   0.857288  -0.867504
H  -0.128958  -1.201609   0.803557
H   0.744449  -0.114412   0.078223
H  -0.130289  -1.501130  -0.955878
