butane_opt
 OpenBabel08242015403D

 14 13  0  0  0  0  0  0  0  0999 V2000
   -3.9416    0.2597    0.0453 C   0  0  0  0  0  0  0  0  0  0  0  0
   -2.7178   -0.6069    0.0071 C   0  0  0  0  0  0  0  0  0  0  0  0
   -4.8617   -0.3614    0.1813 H   0  0  0  0  0  0  0  0  0  0  0  0
   -4.0479    0.9684   -0.9060 H   0  0  0  0  0  0  0  0  0  0  0  0
   -3.9325    0.8331    0.8512 H   0  0  0  0  0  0  0  0  0  0  0  0
   -1.4104    0.1926   -0.0108 C   0  0  0  0  0  0  0  0  0  0  0  0
   -2.7691   -1.3313   -0.8826 H   0  0  0  0  0  0  0  0  0  0  0  0
   -2.7183   -1.1463    0.8377 H   0  0  0  0  0  0  0  0  0  0  0  0
   -0.1390   -0.7054    0.0601 C   0  0  0  0  0  0  0  0  0  0  0  0
   -1.3884    0.8779    0.8492 H   0  0  0  0  0  0  0  0  0  0  0  0
   -1.3507    0.7960   -0.9225 H   0  0  0  0  0  0  0  0  0  0  0  0
   -0.1481   -1.2992    0.9718 H   0  0  0  0  0  0  0  0  0  0  0  0
    0.7840   -0.1190    0.0190 H   0  0  0  0  0  0  0  0  0  0  0  0
   -0.0814   -1.3689   -0.7920 H   0  0  0  0  0  0  0  0  0  0  0  0
  1  3  1  0  0  0  0
  1  5  1  0  0  0  0
  2  1  1  0  0  0  0
  2  8  1  0  0  0  0
  4  1  1  0  0  0  0
  6  2  1  0  0  0  0
  6  9  1  0  0  0  0
  6 10  1  0  0  0  0
  7  2  1  0  0  0  0
  9 12  1  0  0  0  0
 11  6  1  0  0  0  0
 13  9  1  0  0  0  0
 14  9  1  0  0  0  0
M  END
$$$$
