butane_opt
 OpenBabel08242015403D

 14 13  0  0  0  0  0  0  0  0999 V2000
   -3.9284    0.2581    0.0176 C   0  0  0  0  0  0  0  0  0  0  0  0
   -2.7103   -0.5971    0.0350 C   0  0  0  0  0  0  0  0  0  0  0  0
   -4.8865   -0.3697    0.0296 H   0  0  0  0  0  0  0  0  0  0  0  0
   -3.9165    0.8241   -0.8570 H   0  0  0  0  0  0  0  0  0  0  0  0
   -3.9181    0.9410    0.9102 H   0  0  0  0  0  0  0  0  0  0  0  0
   -1.4123    0.1975    0.0089 C   0  0  0  0  0  0  0  0  0  0  0  0
   -2.6720   -1.3150   -0.8683 H   0  0  0  0  0  0  0  0  0  0  0  0
   -2.7386   -1.2431    0.9470 H   0  0  0  0  0  0  0  0  0  0  0  0
   -0.1603   -0.7061    0.0308 C   0  0  0  0  0  0  0  0  0  0  0  0
   -1.3727    0.8990    0.8785 H   0  0  0  0  0  0  0  0  0  0  0  0
   -1.4063    0.7854   -0.8597 H   0  0  0  0  0  0  0  0  0  0  0  0
   -0.1124   -1.4054    0.9930 H   0  0  0  0  0  0  0  0  0  0  0  0
    0.7131   -0.1262   -0.0578 H   0  0  0  0  0  0  0  0  0  0  0  0
   -0.1683   -1.2945   -0.7647 H   0  0  0  0  0  0  0  0  0  0  0  0
  1  3  1  0  0  0  0
  1  2  1  0  0  0  0
  1  5  1  0  0  0  0
  2  8  1  0  0  0  0
  4  1  1  0  0  0  0
  6  9  1  0  0  0  0
  6  2  1  0  0  0  0
  6 10  1  0  0  0  0
  7  2  1  0  0  0  0
  9 12  1  0  0  0  0
 11  6  1  0  0  0  0
 13  9  1  0  0  0  0
 14  9  1  0  0  0  0
M  END
$$$$
