14
butane_opt
C  -3.952689   0.261133  -0.015423
C  -2.709996  -0.604938   0.073328
H  -4.849981  -0.314785  -0.029061
H  -3.918391   0.868810  -0.927842
H  -3.985935   0.934300   0.856923
C  -1.403665   0.186254   0.045690
H  -2.715687  -1.304747  -0.778326
H  -2.817787  -1.271124   0.984315
C  -0.139715  -0.697665   0.007444
H  -1.359892   0.882310   0.921169
H  -1.434816   0.793082  -0.812774
H  -0.059195  -1.333399   0.887623
H   0.756228  -0.106027  -0.121627
H  -0.171845  -1.348725  -0.869770
