14
butane_opt
C  -3.940983   0.273409  -0.010001
C  -2.688966  -0.625648   0.090240
H  -4.787161  -0.267778  -0.110612
H  -3.904921   0.860187  -0.916153
H  -4.033241   0.963218   0.838760
C  -1.399143   0.168359   0.032731
H  -2.721608  -1.273455  -0.738760
H  -2.725086  -1.263587   0.975301
C  -0.177515  -0.682145   0.000376
H  -1.387634   0.846948   0.893853
H  -1.382174   0.781102  -0.831469
H  -0.154717  -1.266228   0.857382
H   0.747546  -0.050683  -0.000260
H  -0.206009  -1.400758  -0.896959
