14
butane_opt
C  -3.947821   0.262346   0.031844
C  -2.708446  -0.611914   0.038548
H  -4.868788  -0.351485  -0.107579
H  -3.929583   0.783795  -0.813044
H  -3.992207   1.035414   0.962997
C  -1.397670   0.198106  -0.016349
H  -2.774357  -1.306703  -0.808249
H  -2.720195  -1.277493   0.938411
C  -0.148044  -0.695214   0.041749
H  -1.403174   0.881345   0.830840
H  -1.369145   0.813260  -0.910585
H  -0.129805  -1.381187   0.996503
H   0.707703  -0.138650   0.005209
H  -0.117644  -1.373922  -0.797379
