butane_opt
 OpenBabel08242015403D

 14 13  0  0  0  0  0  0  0  0999 V2000
   -3.9443    0.2594    0.0625 C   0  0  0  0  0  0  0  0  0  0  0  0
   -2.6939   -0.6000    0.0035 C   0  0  0  0  0  0  0  0  0  0  0  0
   -4.8700   -0.3690    0.0389 H   0  0  0  0  0  0  0  0  0  0  0  0
   -3.9903    0.8634   -0.8242 H   0  0  0  0  0  0  0  0  0  0  0  0
   -3.9140    0.9615    0.9285 H   0  0  0  0  0  0  0  0  0  0  0  0
   -1.4014    0.1824   -0.0415 C   0  0  0  0  0  0  0  0  0  0  0  0
   -2.7478   -1.2541   -0.8422 H   0  0  0  0  0  0  0  0  0  0  0  0
   -2.7171   -1.2591    0.8912 H   0  0  0  0  0  0  0  0  0  0  0  0
   -0.1621   -0.6941    0.0703 C   0  0  0  0  0  0  0  0  0  0  0  0
   -1.4445    0.8174    0.7782 H   0  0  0  0  0  0  0  0  0  0  0  0
   -1.3419    0.8177   -0.9484 H   0  0  0  0  0  0  0  0  0  0  0  0
   -0.2273   -1.2708    0.9479 H   0  0  0  0  0  0  0  0  0  0  0  0
    0.7443   -0.1184    0.1488 H   0  0  0  0  0  0  0  0  0  0  0  0
   -0.0890   -1.4369   -0.8230 H   0  0  0  0  0  0  0  0  0  0  0  0
  1  5  1  0  0  0  0
  2  1  1  0  0  0  0
  2  8  1  0  0  0  0
  3  1  1  0  0  0  0
  4  1  1  0  0  0  0
  6  2  1  0  0  0  0
  6  9  1  0  0  0  0
  6 10  1  0  0  0  0
  7  2  1  0  0  0  0
  9 13  1  0  0  0  0
  9 12  1  0  0  0  0
 11  6  1  0  0  0  0
 14  9  1  0  0  0  0
M  END
$$$$
