butane_opt
 OpenBabel08242015403D

 14 13  0  0  0  0  0  0  0  0999 V2000
   -3.9509    0.2707   -0.0091 C   0  0  0  0  0  0  0  0  0  0  0  0
   -2.6904   -0.6149    0.0742 C   0  0  0  0  0  0  0  0  0  0  0  0
   -4.8766   -0.3506    0.0604 H   0  0  0  0  0  0  0  0  0  0  0  0
   -3.9882    0.9520   -0.9726 H   0  0  0  0  0  0  0  0  0  0  0  0
   -3.9627    0.9266    0.8269 H   0  0  0  0  0  0  0  0  0  0  0  0
   -1.3983    0.1689    0.0283 C   0  0  0  0  0  0  0  0  0  0  0  0
   -2.6860   -1.2795   -0.7552 H   0  0  0  0  0  0  0  0  0  0  0  0
   -2.7137   -1.2791    1.0144 H   0  0  0  0  0  0  0  0  0  0  0  0
   -0.1740   -0.6900    0.0129 C   0  0  0  0  0  0  0  0  0  0  0  0
   -1.3505    0.8504    0.8893 H   0  0  0  0  0  0  0  0  0  0  0  0
   -1.3387    0.8028   -0.8788 H   0  0  0  0  0  0  0  0  0  0  0  0
   -0.1735   -1.1457    0.8115 H   0  0  0  0  0  0  0  0  0  0  0  0
    0.7726   -0.0766    0.1001 H   0  0  0  0  0  0  0  0  0  0  0  0
   -0.1397   -1.4893   -0.9550 H   0  0  0  0  0  0  0  0  0  0  0  0
  1  3  1  0  0  0  0
  1  2  1  0  0  0  0
  1  5  1  0  0  0  0
  2  8  1  0  0  0  0
  4  1  1  0  0  0  0
  6  2  1  0  0  0  0
  6 10  1  0  0  0  0
  7  2  1  0  0  0  0
  9  6  1  0  0  0  0
  9 13  1  0  0  0  0
  9 12  1  0  0  0  0
 11  6  1  0  0  0  0
 14  9  1  0  0  0  0
M  END
$$$$
