14
butane_opt
C  -3.949149   0.265976  -0.008885
C  -2.695697  -0.624323   0.087882
H  -4.844366  -0.291469  -0.100942
H  -3.885104   0.848764  -0.905617
H  -4.048071   0.966605   0.843307
C  -1.400795   0.185490   0.021592
H  -2.649132  -1.269085  -0.749471
H  -2.709910  -1.298693   1.022905
C  -0.166035  -0.690066   0.002711
H  -1.353704   0.904717   0.917122
H  -1.430670   0.763982  -0.813448
H  -0.120229  -1.269546   0.841054
H   0.739027  -0.086536   0.027008
H  -0.180605  -1.386431  -0.878311
