butane_opt
 OpenBabel08242015403D

 14 13  0  0  0  0  0  0  0  0999 V2000
   -3.9554    0.2567   -0.0176 C   0  0  0  0  0  0  0  0  0  0  0  0
   -2.7022   -0.6107    0.0840 C   0  0  0  0  0  0  0  0  0  0  0  0
   -4.8616   -0.3318   -0.1267 H   0  0  0  0  0  0  0  0  0  0  0  0
   -3.9371    0.8427   -0.8821 H   0  0  0  0  0  0  0  0  0  0  0  0
   -4.0156    0.9774    0.8897 H   0  0  0  0  0  0  0  0  0  0  0  0
   -1.3939    0.1878    0.0313 C   0  0  0  0  0  0  0  0  0  0  0  0
   -2.6956   -1.2230   -0.7028 H   0  0  0  0  0  0  0  0  0  0  0  0
   -2.7567   -1.3115    1.0053 H   0  0  0  0  0  0  0  0  0  0  0  0
   -0.1515   -0.6922    0.0053 C   0  0  0  0  0  0  0  0  0  0  0  0
   -1.3580    0.9208    0.9369 H   0  0  0  0  0  0  0  0  0  0  0  0
   -1.4353    0.8273   -0.8564 H   0  0  0  0  0  0  0  0  0  0  0  0
   -0.0771   -1.2954    0.8659 H   0  0  0  0  0  0  0  0  0  0  0  0
    0.7293   -0.1375   -0.0256 H   0  0  0  0  0  0  0  0  0  0  0  0
   -0.1770   -1.4462   -0.9037 H   0  0  0  0  0  0  0  0  0  0  0  0
  1  2  1  0  0  0  0
  1  5  1  0  0  0  0
  2  8  1  0  0  0  0
  3  1  1  0  0  0  0
  4  1  1  0  0  0  0
  6  2  1  0  0  0  0
  6 10  1  0  0  0  0
  7  2  1  0  0  0  0
  9  6  1  0  0  0  0
  9 12  1  0  0  0  0
 11  6  1  0  0  0  0
 13  9  1  0  0  0  0
 14  9  1  0  0  0  0
M  END
$$$$
