14
butane_opt
C  -3.947927   0.249061   0.044690
C  -2.716932  -0.600939  -0.000290
H  -4.866151  -0.325910   0.019830
H  -3.986332   0.827674  -0.816121
H  -3.893529   0.981481   0.954130
C  -1.403497   0.201100  -0.013754
H  -2.752642  -1.299773  -0.879404
H  -2.693868  -1.227217   0.868054
C  -0.145893  -0.710214   0.065485
H  -1.414260   0.899835   0.845383
H  -1.374478   0.854455  -0.899619
H  -0.079967  -1.451672   1.042789
H   0.781550  -0.089264  -0.115301
H  -0.171183  -1.309689  -0.724546
