butane_opt
 OpenBabel08242015403D

 14 13  0  0  0  0  0  0  0  0999 V2000
   -3.9484    0.2609    0.0390 C   0  0  0  0  0  0  0  0  0  0  0  0
   -2.7003   -0.6119    0.0079 C   0  0  0  0  0  0  0  0  0  0  0  0
   -4.8686   -0.3563    0.1378 H   0  0  0  0  0  0  0  0  0  0  0  0
   -4.0154    0.8996   -0.8635 H   0  0  0  0  0  0  0  0  0  0  0  0
   -3.9179    0.8434    0.8374 H   0  0  0  0  0  0  0  0  0  0  0  0
   -1.4033    0.2045    0.0009 C   0  0  0  0  0  0  0  0  0  0  0  0
   -2.7498   -1.3398   -0.8713 H   0  0  0  0  0  0  0  0  0  0  0  0
   -2.7279   -1.1795    0.8758 H   0  0  0  0  0  0  0  0  0  0  0  0
   -0.1564   -0.7049    0.0484 C   0  0  0  0  0  0  0  0  0  0  0  0
   -1.3617    0.8591    0.8320 H   0  0  0  0  0  0  0  0  0  0  0  0
   -1.4032    0.8755   -0.8961 H   0  0  0  0  0  0  0  0  0  0  0  0
   -0.1064   -1.3604    0.9655 H   0  0  0  0  0  0  0  0  0  0  0  0
    0.7456   -0.1344    0.0495 H   0  0  0  0  0  0  0  0  0  0  0  0
   -0.1139   -1.3660   -0.7789 H   0  0  0  0  0  0  0  0  0  0  0  0
  1  3  1  0  0  0  0
  1  5  1  0  0  0  0
  2  1  1  0  0  0  0
  2  8  1  0  0  0  0
  4  1  1  0  0  0  0
  6  2  1  0  0  0  0
  6  9  1  0  0  0  0
  6 10  1  0  0  0  0
  7  2  1  0  0  0  0
  9 13  1  0  0  0  0
  9 12  1  0  0  0  0
 11  6  1  0  0  0  0
 14  9  1  0  0  0  0
M  END
$$$$
