butane_opt
 OpenBabel08242015403D

 14 13  0  0  0  0  0  0  0  0999 V2000
   -3.9303    0.2577   -0.0032 C   0  0  0  0  0  0  0  0  0  0  0  0
   -2.6982   -0.6080    0.0713 C   0  0  0  0  0  0  0  0  0  0  0  0
   -4.8591   -0.3463   -0.0446 H   0  0  0  0  0  0  0  0  0  0  0  0
   -3.9265    0.7803   -0.8569 H   0  0  0  0  0  0  0  0  0  0  0  0
   -3.9918    0.9532    0.8749 H   0  0  0  0  0  0  0  0  0  0  0  0
   -1.4098    0.2043    0.0243 C   0  0  0  0  0  0  0  0  0  0  0  0
   -2.6700   -1.2909   -0.7880 H   0  0  0  0  0  0  0  0  0  0  0  0
   -2.7386   -1.2492    0.9469 H   0  0  0  0  0  0  0  0  0  0  0  0
   -0.1681   -0.7037    0.0120 C   0  0  0  0  0  0  0  0  0  0  0  0
   -1.4197    0.8705    0.8560 H   0  0  0  0  0  0  0  0  0  0  0  0
   -1.4222    0.8365   -0.8584 H   0  0  0  0  0  0  0  0  0  0  0  0
   -0.0851   -1.3384    0.9084 H   0  0  0  0  0  0  0  0  0  0  0  0
    0.7473   -0.1235   -0.0010 H   0  0  0  0  0  0  0  0  0  0  0  0
   -0.1769   -1.3703   -0.8362 H   0  0  0  0  0  0  0  0  0  0  0  0
  1  2  1  0  0  0  0
  1  5  1  0  0  0  0
  2  8  1  0  0  0  0
  3  1  1  0  0  0  0
  4  1  1  0  0  0  0
  6  2  1  0  0  0  0
  6 10  1  0  0  0  0
  7  2  1  0  0  0  0
  9  6  1  0  0  0  0
  9 12  1  0  0  0  0
 11  6  1  0  0  0  0
 13  9  1  0  0  0  0
 14  9  1  0  0  0  0
M  END
$$$$
