14
butane_opt
C  -3.943957   0.267138  -0.003734
C  -2.700821  -0.624993   0.054424
H  -4.848768  -0.298736   0.118028
H  -4.053081   1.001963  -0.985846
H  -3.998117   0.838375   0.791431
C  -1.410755   0.188748   0.048254
H  -2.676511  -1.327074  -0.782269
H  -2.769227  -1.253143   0.949571
C  -0.150443  -0.686096   0.007777
H  -1.358151   0.831468   0.882579
H  -1.383968   0.775619  -0.824094
H  -0.102244  -1.240924   0.869709
H   0.776497  -0.100133  -0.000300
H  -0.138392  -1.424201  -0.876305
