butane_opt
 OpenBabel08242015403D

 14 13  0  0  0  0  0  0  0  0999 V2000
   -3.9476    0.2504   -0.0076 C   0  0  0  0  0  0  0  0  0  0  0  0
   -2.7097   -0.6116    0.0563 C   0  0  0  0  0  0  0  0  0  0  0  0
   -4.8613   -0.3259    0.0083 H   0  0  0  0  0  0  0  0  0  0  0  0
   -3.9337    0.8972   -0.9195 H   0  0  0  0  0  0  0  0  0  0  0  0
   -3.9665    0.9259    0.8434 H   0  0  0  0  0  0  0  0  0  0  0  0
   -1.4006    0.2091    0.0435 C   0  0  0  0  0  0  0  0  0  0  0  0
   -2.7587   -1.2366   -0.7956 H   0  0  0  0  0  0  0  0  0  0  0  0
   -2.7690   -1.2438    0.9516 H   0  0  0  0  0  0  0  0  0  0  0  0
   -0.1454   -0.7127    0.0162 C   0  0  0  0  0  0  0  0  0  0  0  0
   -1.3776    0.9355    0.9213 H   0  0  0  0  0  0  0  0  0  0  0  0
   -1.4150    0.7691   -0.7932 H   0  0  0  0  0  0  0  0  0  0  0  0
   -0.0447   -1.3645    0.9079 H   0  0  0  0  0  0  0  0  0  0  0  0
    0.7394   -0.1431   -0.1692 H   0  0  0  0  0  0  0  0  0  0  0  0
   -0.1884   -1.3110   -0.8154 H   0  0  0  0  0  0  0  0  0  0  0  0
  1  3  1  0  0  0  0
  1  2  1  0  0  0  0
  1  5  1  0  0  0  0
  2  8  1  0  0  0  0
  4  1  1  0  0  0  0
  6  2  1  0  0  0  0
  6 10  1  0  0  0  0
  7  2  1  0  0  0  0
  9  6  1  0  0  0  0
  9 12  1  0  0  0  0
 11  6  1  0  0  0  0
 13  9  1  0  0  0  0
 14  9  1  0  0  0  0
M  END
$$$$
