14
butane_opt
C  -3.932168   0.275050   0.004589
C  -2.684542  -0.630062   0.063254
H  -4.831447  -0.304429  -0.136223
H  -3.935790   0.833948  -0.845589
H  -4.064763   0.996869   0.889329
C  -1.405043   0.178731   0.027847
H  -2.700341  -1.285082  -0.792385
H  -2.724164  -1.309449   0.983775
C  -0.177710  -0.686025   0.014881
H  -1.371009   0.824536   0.874896
H  -1.415823   0.824309  -0.884387
H  -0.128473  -1.278627   0.911057
H   0.772410  -0.085216  -0.044674
H  -0.230138  -1.336121  -0.837659
