butane_opt
 OpenBabel08242015403D

 14 13  0  0  0  0  0  0  0  0999 V2000
   -3.9558    0.2746   -0.0099 C   0  0  0  0  0  0  0  0  0  0  0  0
   -2.7031   -0.6366    0.0585 C   0  0  0  0  0  0  0  0  0  0  0  0
   -4.8633   -0.3040    0.0541 H   0  0  0  0  0  0  0  0  0  0  0  0
   -3.9369    0.9511   -0.9143 H   0  0  0  0  0  0  0  0  0  0  0  0
   -4.0276    0.9213    0.8168 H   0  0  0  0  0  0  0  0  0  0  0  0
   -1.3989    0.1739    0.0532 C   0  0  0  0  0  0  0  0  0  0  0  0
   -2.6941   -1.3165   -0.7889 H   0  0  0  0  0  0  0  0  0  0  0  0
   -2.7276   -1.2026    0.9134 H   0  0  0  0  0  0  0  0  0  0  0  0
   -0.1550   -0.6864    0.0001 C   0  0  0  0  0  0  0  0  0  0  0  0
   -1.3690    0.8867    0.9313 H   0  0  0  0  0  0  0  0  0  0  0  0
   -1.4101    0.7971   -0.8060 H   0  0  0  0  0  0  0  0  0  0  0  0
   -0.0739   -1.3814    0.9417 H   0  0  0  0  0  0  0  0  0  0  0  0
    0.7973   -0.0514   -0.1096 H   0  0  0  0  0  0  0  0  0  0  0  0
   -0.1766   -1.2746   -0.8140 H   0  0  0  0  0  0  0  0  0  0  0  0
  1  3  1  0  0  0  0
  1  2  1  0  0  0  0
  1  5  1  0  0  0  0
  2  8  1  0  0  0  0
  4  1  1  0  0  0  0
  6  2  1  0  0  0  0
  6 10  1  0  0  0  0
  7  2  1  0  0  0  0
  9  6  1  0  0  0  0
  9 12  1  0  0  0  0
 11  6  1  0  0  0  0
 13  9  1  0  0  0  0
 14  9  1  0  0  0  0
M  END
$$$$
