14
butane_opt
C  -3.934351   0.276319   0.022170
C  -2.695986  -0.628846   0.038705
H  -4.847808  -0.305340  -0.030680
H  -3.975439   0.859426  -0.838457
H  -3.958717   0.995590   0.910352
C  -1.401678   0.177764   0.010798
H  -2.684589  -1.398387  -0.893110
H  -2.664909  -1.233679   0.896433
C  -0.184721  -0.683437   0.031921
H  -1.368729   0.847690   0.868653
H  -1.380879   0.799244  -0.891451
H  -0.117624  -1.424339   1.008671
H   0.746394  -0.053888  -0.092954
H  -0.178165  -1.248098  -0.726732
