butane_opt
 OpenBabel08242015403D

 14 13  0  0  0  0  0  0  0  0999 V2000
   -3.9347    0.2632    0.0309 C   0  0  0  0  0  0  0  0  0  0  0  0
   -2.7034   -0.6059    0.0261 C   0  0  0  0  0  0  0  0  0  0  0  0
   -4.8885   -0.3682    0.0467 H   0  0  0  0  0  0  0  0  0  0  0  0
   -3.9708    0.8353   -0.8364 H   0  0  0  0  0  0  0  0  0  0  0  0
   -3.9254    0.9475    0.8873 H   0  0  0  0  0  0  0  0  0  0  0  0
   -1.4137    0.1873    0.0005 C   0  0  0  0  0  0  0  0  0  0  0  0
   -2.6921   -1.3719   -0.8831 H   0  0  0  0  0  0  0  0  0  0  0  0
   -2.6847   -1.1921    0.8729 H   0  0  0  0  0  0  0  0  0  0  0  0
   -0.1635   -0.6962    0.0455 C   0  0  0  0  0  0  0  0  0  0  0  0
   -1.4033    0.8616    0.8557 H   0  0  0  0  0  0  0  0  0  0  0  0
   -1.3739    0.8479   -0.9055 H   0  0  0  0  0  0  0  0  0  0  0  0
   -0.1311   -1.4087    1.0277 H   0  0  0  0  0  0  0  0  0  0  0  0
    0.7586   -0.1028   -0.0690 H   0  0  0  0  0  0  0  0  0  0  0  0
   -0.1300   -1.3055   -0.7855 H   0  0  0  0  0  0  0  0  0  0  0  0
  1  3  1  0  0  0  0
  1  5  1  0  0  0  0
  2  1  1  0  0  0  0
  2  8  1  0  0  0  0
  4  1  1  0  0  0  0
  6  2  1  0  0  0  0
  6  9  1  0  0  0  0
  6 10  1  0  0  0  0
  7  2  1  0  0  0  0
  9 12  1  0  0  0  0
 11  6  1  0  0  0  0
 13  9  1  0  0  0  0
 14  9  1  0  0  0  0
M  END
$$$$
