14
butane_opt
C  -3.956353   0.275312  -0.007003
C  -2.697923  -0.634753   0.047555
H  -4.847078  -0.290671   0.169670
H  -4.075582   1.034830  -0.990392
H  -3.939112   0.804497   0.776337
C  -1.386442   0.179106   0.041455
H  -2.688543  -1.258406  -0.775436
H  -2.718731  -1.292441   0.960011
C  -0.164472  -0.676689   0.015131
H  -1.345144   0.898110   0.919227
H  -1.384893   0.757101  -0.789949
H  -0.114582  -1.241382   0.884861
H   0.744625  -0.124884   0.020999
H  -0.192085  -1.471697  -0.925895
