butane_opt
 OpenBabel08242015403D

 14 13  0  0  0  0  0  0  0  0999 V2000
   -3.9384    0.2740    0.0080 C   0  0  0  0  0  0  0  0  0  0  0  0
   -2.6852   -0.6255    0.0444 C   0  0  0  0  0  0  0  0  0  0  0  0
   -4.8364   -0.2939    0.1763 H   0  0  0  0  0  0  0  0  0  0  0  0
   -4.0213    1.0205   -0.9573 H   0  0  0  0  0  0  0  0  0  0  0  0
   -3.9526    0.8122    0.7609 H   0  0  0  0  0  0  0  0  0  0  0  0
   -1.3993    0.1748    0.0253 C   0  0  0  0  0  0  0  0  0  0  0  0
   -2.7116   -1.3550   -0.8518 H   0  0  0  0  0  0  0  0  0  0  0  0
   -2.7020   -1.2212    0.9158 H   0  0  0  0  0  0  0  0  0  0  0  0
   -0.1849   -0.6839    0.0252 C   0  0  0  0  0  0  0  0  0  0  0  0
   -1.3320    0.8444    0.9096 H   0  0  0  0  0  0  0  0  0  0  0  0
   -1.4151    0.7641   -0.8210 H   0  0  0  0  0  0  0  0  0  0  0  0
   -0.1561   -1.2371    0.8855 H   0  0  0  0  0  0  0  0  0  0  0  0
    0.7425   -0.0741    0.0105 H   0  0  0  0  0  0  0  0  0  0  0  0
   -0.1487   -1.3930   -0.8422 H   0  0  0  0  0  0  0  0  0  0  0  0
  1  2  1  0  0  0  0
  1  3  1  0  0  0  0
  1  5  1  0  0  0  0
  2  8  1  0  0  0  0
  4  1  1  0  0  0  0
  6  2  1  0  0  0  0
  6 10  1  0  0  0  0
  7  2  1  0  0  0  0
  9  6  1  0  0  0  0
  9 12  1  0  0  0  0
 11  6  1  0  0  0  0
 13  9  1  0  0  0  0
 14  9  1  0  0  0  0
M  END
$$$$
