14
butane_opt
C  -3.932340   0.252098   0.021156
C  -2.701278  -0.592021   0.018994
H  -4.865014  -0.371713   0.047668
H  -3.982621   0.813490  -0.849105
H  -3.882380   0.977001   0.916323
C  -1.412853   0.190051   0.012036
H  -2.741192  -1.299763  -0.862503
H  -2.710135  -1.221838   0.906111
C  -0.168029  -0.712018   0.041839
H  -1.382777   0.891529   0.876851
H  -1.380788   0.834331  -0.873695
H  -0.049290  -1.416766   1.002734
H   0.738444  -0.113698  -0.101242
H  -0.186668  -1.224240  -0.733818
