butane_opt
 OpenBabel08242015403D

 14 13  0  0  0  0  0  0  0  0999 V2000
   -3.9550    0.2718    0.0214 C   0  0  0  0  0  0  0  0  0  0  0  0
   -2.7073   -0.6240    0.0373 C   0  0  0  0  0  0  0  0  0  0  0  0
   -4.8597   -0.3309    0.0900 H   0  0  0  0  0  0  0  0  0  0  0  0
   -4.0223    0.8612   -0.8447 H   0  0  0  0  0  0  0  0  0  0  0  0
   -3.9651    1.0068    0.9166 H   0  0  0  0  0  0  0  0  0  0  0  0
   -1.3908    0.1826   -0.0169 C   0  0  0  0  0  0  0  0  0  0  0  0
   -2.7286   -1.3013   -0.8222 H   0  0  0  0  0  0  0  0  0  0  0  0
   -2.7140   -1.2786    0.9775 H   0  0  0  0  0  0  0  0  0  0  0  0
   -0.1457   -0.6927    0.0432 C   0  0  0  0  0  0  0  0  0  0  0  0
   -1.4080    0.8543    0.8192 H   0  0  0  0  0  0  0  0  0  0  0  0
   -1.3770    0.8101   -0.9155 H   0  0  0  0  0  0  0  0  0  0  0  0
   -0.2383   -1.2605    0.9136 H   0  0  0  0  0  0  0  0  0  0  0  0
    0.7817   -0.0634    0.1614 H   0  0  0  0  0  0  0  0  0  0  0  0
   -0.1019   -1.4252   -0.8745 H   0  0  0  0  0  0  0  0  0  0  0  0
  1  2  1  0  0  0  0
  1  3  1  0  0  0  0
  1  5  1  0  0  0  0
  2  8  1  0  0  0  0
  4  1  1  0  0  0  0
  6  2  1  0  0  0  0
  6  9  1  0  0  0  0
  6 10  1  0  0  0  0
  7  2  1  0  0  0  0
  9 13  1  0  0  0  0
  9 12  1  0  0  0  0
 11  6  1  0  0  0  0
 14  9  1  0  0  0  0
M  END
$$$$
