14
butane_opt
C  -3.959704   0.271609   0.043393
C  -2.702210  -0.631605  -0.002707
H  -4.839083  -0.288504   0.076536
H  -4.047248   0.860500  -0.814734
H  -3.920570   0.980588   0.950653
C  -1.399895   0.180174  -0.010080
H  -2.658653  -1.307905  -0.875441
H  -2.696118  -1.255034   0.876193
C  -0.160066  -0.678387   0.059129
H  -1.366197   0.831839   0.820550
H  -1.360294   0.809685  -0.906509
H  -0.106729  -1.424421   1.016875
H   0.755567  -0.076338  -0.012137
H  -0.131153  -1.294682  -0.749996
