14
butane_opt
C  -3.951196   0.274133   0.043297
C  -2.703806  -0.628180   0.009876
H  -4.853675  -0.331382   0.158424
H  -4.043429   0.969590  -0.904573
H  -3.945550   0.829170   0.828001
C  -1.398277   0.189455   0.001041
H  -2.724048  -1.340863  -0.858054
H  -2.690871  -1.202164   0.835230
C  -0.157022  -0.695705   0.050147
H  -1.347186   0.855936   0.824864
H  -1.351706   0.824352  -0.911697
H  -0.147787  -1.296494   0.932459
H   0.734557  -0.108249   0.085335
H  -0.126720  -1.347803  -0.805344
