butane_opt
 OpenBabel08242015403D

 14 13  0  0  0  0  0  0  0  0999 V2000
   -3.9418    0.2785   -0.0176 C   0  0  0  0  0  0  0  0  0  0  0  0
   -2.6927   -0.6228    0.0742 C   0  0  0  0  0  0  0  0  0  0  0  0
   -4.8456   -0.3373    0.1045 H   0  0  0  0  0  0  0  0  0  0  0  0
   -3.9811    0.9674   -0.9402 H   0  0  0  0  0  0  0  0  0  0  0  0
   -3.9615    0.9147    0.8280 H   0  0  0  0  0  0  0  0  0  0  0  0
   -1.4032    0.1558    0.0384 C   0  0  0  0  0  0  0  0  0  0  0  0
   -2.7249   -1.2913   -0.7830 H   0  0  0  0  0  0  0  0  0  0  0  0
   -2.7281   -1.2608    0.9887 H   0  0  0  0  0  0  0  0  0  0  0  0
   -0.1645   -0.6780    0.0068 C   0  0  0  0  0  0  0  0  0  0  0  0
   -1.3439    0.8372    0.8862 H   0  0  0  0  0  0  0  0  0  0  0  0
   -1.4141    0.8118   -0.8890 H   0  0  0  0  0  0  0  0  0  0  0  0
   -0.2000   -1.1845    0.8354 H   0  0  0  0  0  0  0  0  0  0  0  0
    0.7664   -0.0630    0.1086 H   0  0  0  0  0  0  0  0  0  0  0  0
   -0.1697   -1.4658   -0.9332 H   0  0  0  0  0  0  0  0  0  0  0  0
  1  2  1  0  0  0  0
  1  3  1  0  0  0  0
  1  5  1  0  0  0  0
  2  8  1  0  0  0  0
  4  1  1  0  0  0  0
  6  2  1  0  0  0  0
  6 10  1  0  0  0  0
  7  2  1  0  0  0  0
  9  6  1  0  0  0  0
  9 13  1  0  0  0  0
  9 12  1  0  0  0  0
 11  6  1  0  0  0  0
 14  9  1  0  0  0  0
M  END
$$$$
