butane_opt
 OpenBabel08242015403D

 14 13  0  0  0  0  0  0  0  0999 V2000
   -3.9495    0.2724   -0.0194 C   0  0  0  0  0  0  0  0  0  0  0  0
   -2.7127   -0.6239    0.0796 C   0  0  0  0  0  0  0  0  0  0  0  0
   -4.8582   -0.3345   -0.0526 H   0  0  0  0  0  0  0  0  0  0  0  0
   -3.9032    0.8518   -0.8923 H   0  0  0  0  0  0  0  0  0  0  0  0
   -4.0432    1.0306    0.8915 H   0  0  0  0  0  0  0  0  0  0  0  0
   -1.4006    0.1780    0.0382 C   0  0  0  0  0  0  0  0  0  0  0  0
   -2.7194   -1.2739   -0.7551 H   0  0  0  0  0  0  0  0  0  0  0  0
   -2.7237   -1.3016    1.0050 H   0  0  0  0  0  0  0  0  0  0  0  0
   -0.1533   -0.6959   -0.0016 C   0  0  0  0  0  0  0  0  0  0  0  0
   -1.3087    0.9204    0.9122 H   0  0  0  0  0  0  0  0  0  0  0  0
   -1.4375    0.7831   -0.8351 H   0  0  0  0  0  0  0  0  0  0  0  0
   -0.1197   -1.3236    0.8918 H   0  0  0  0  0  0  0  0  0  0  0  0
    0.8190   -0.0606   -0.0345 H   0  0  0  0  0  0  0  0  0  0  0  0
   -0.1409   -1.3246   -0.8397 H   0  0  0  0  0  0  0  0  0  0  0  0
  1  2  1  0  0  0  0
  1  5  1  0  0  0  0
  2  8  1  0  0  0  0
  3  1  1  0  0  0  0
  4  1  1  0  0  0  0
  6  2  1  0  0  0  0
  6 10  1  0  0  0  0
  7  2  1  0  0  0  0
  9  6  1  0  0  0  0
  9 12  1  0  0  0  0
 11  6  1  0  0  0  0
 13  9  1  0  0  0  0
 14  9  1  0  0  0  0
M  END
$$$$
