14
butane_opt
C  -3.945054   0.253119   0.025572
C  -2.708885  -0.617133   0.030346
H  -4.832809  -0.331136   0.128016
H  -4.012460   0.953230  -0.935814
H  -3.917279   0.864549   0.862638
C  -1.406818   0.199584  -0.001556
H  -2.760235  -1.269373  -0.814489
H  -2.697819  -1.213835   0.903945
C  -0.147180  -0.696028   0.033451
H  -1.452723   0.936134   0.890969
H  -1.391140   0.778326  -0.877517
H  -0.127670  -1.309851   0.957385
H   0.738954  -0.147584   0.094648
H  -0.076952  -1.407191  -0.837734
