butane_opt
 OpenBabel08242015403D

 14 13  0  0  0  0  0  0  0  0999 V2000
   -3.9384    0.2690    0.0383 C   0  0  0  0  0  0  0  0  0  0  0  0
   -2.6964   -0.6197    0.0073 C   0  0  0  0  0  0  0  0  0  0  0  0
   -4.8649   -0.3313    0.1000 H   0  0  0  0  0  0  0  0  0  0  0  0
   -4.0248    0.8776   -0.8593 H   0  0  0  0  0  0  0  0  0  0  0  0
   -3.9727    0.9632    0.9336 H   0  0  0  0  0  0  0  0  0  0  0  0
   -1.4060    0.1725   -0.0076 C   0  0  0  0  0  0  0  0  0  0  0  0
   -2.6870   -1.3390   -0.9024 H   0  0  0  0  0  0  0  0  0  0  0  0
   -2.6694   -1.2077    0.8628 H   0  0  0  0  0  0  0  0  0  0  0  0
   -0.1635   -0.6895    0.0557 C   0  0  0  0  0  0  0  0  0  0  0  0
   -1.3664    0.8905    0.8790 H   0  0  0  0  0  0  0  0  0  0  0  0
   -1.4284    0.8053   -0.9042 H   0  0  0  0  0  0  0  0  0  0  0  0
   -0.1734   -1.4235    1.0217 H   0  0  0  0  0  0  0  0  0  0  0  0
    0.8102   -0.0520   -0.0599 H   0  0  0  0  0  0  0  0  0  0  0  0
   -0.1901   -1.2375   -0.7334 H   0  0  0  0  0  0  0  0  0  0  0  0
  1  3  1  0  0  0  0
  1  5  1  0  0  0  0
  2  1  1  0  0  0  0
  2  8  1  0  0  0  0
  4  1  1  0  0  0  0
  6  2  1  0  0  0  0
  6  9  1  0  0  0  0
  6 10  1  0  0  0  0
  7  2  1  0  0  0  0
  9 12  1  0  0  0  0
 11  6  1  0  0  0  0
 13  9  1  0  0  0  0
 14  9  1  0  0  0  0
M  END
$$$$
