14
butane_opt
C  -3.941906   0.262989   0.035627
C  -2.718450  -0.609975   0.032164
H  -4.873642  -0.349943  -0.079946
H  -3.932491   0.831015  -0.826185
H  -4.017527   0.965409   0.918937
C  -1.408196   0.194011  -0.002692
H  -2.752922  -1.328227  -0.846102
H  -2.687058  -1.234302   0.916969
C  -0.140037  -0.699401   0.044770
H  -1.375129   0.853482   0.820792
H  -1.407071   0.860396  -0.925981
H  -0.132730  -1.377568   0.960196
H   0.793210  -0.092424  -0.021106
H  -0.132555  -1.371691  -0.791378
