14
butane_opt
C  -3.926369   0.256614   0.007930
C  -2.696257  -0.602214   0.059760
H  -4.857154  -0.378727   0.062736
H  -3.984796   0.903220  -0.930674
H  -3.935110   0.861972   0.816377
C  -1.405787   0.193936   0.021227
H  -2.715443  -1.281862  -0.803728
H  -2.747648  -1.214285   0.936930
C  -0.173234  -0.702362   0.017729
H  -1.395922   0.866537   0.893502
H  -1.388630   0.866834  -0.903110
H  -0.154544  -1.257841   0.861896
H   0.693008  -0.145707   0.100263
H  -0.107626  -1.454400  -0.886859
