butane_opt
 OpenBabel08242015403D

 14 13  0  0  0  0  0  0  0  0999 V2000
   -3.9289    0.2531    0.0289 C   0  0  0  0  0  0  0  0  0  0  0  0
   -2.6952   -0.5996    0.0211 C   0  0  0  0  0  0  0  0  0  0  0  0
   -4.8352   -0.3201    0.0051 H   0  0  0  0  0  0  0  0  0  0  0  0
   -4.0298    0.8091   -0.8382 H   0  0  0  0  0  0  0  0  0  0  0  0
   -3.9110    0.9750    0.9299 H   0  0  0  0  0  0  0  0  0  0  0  0
   -1.4084    0.1888   -0.0004 C   0  0  0  0  0  0  0  0  0  0  0  0
   -2.7373   -1.3147   -0.8486 H   0  0  0  0  0  0  0  0  0  0  0  0
   -2.7012   -1.2621    0.9199 H   0  0  0  0  0  0  0  0  0  0  0  0
   -0.1616   -0.6968    0.0468 C   0  0  0  0  0  0  0  0  0  0  0  0
   -1.4308    0.8708    0.8341 H   0  0  0  0  0  0  0  0  0  0  0  0
   -1.4360    0.8123   -0.8994 H   0  0  0  0  0  0  0  0  0  0  0  0
   -0.1454   -1.3683    1.0038 H   0  0  0  0  0  0  0  0  0  0  0  0
    0.7139   -0.1235   -0.0391 H   0  0  0  0  0  0  0  0  0  0  0  0
   -0.1745   -1.2949   -0.7759 H   0  0  0  0  0  0  0  0  0  0  0  0
  1  5  1  0  0  0  0
  2  1  1  0  0  0  0
  2  8  1  0  0  0  0
  3  1  1  0  0  0  0
  4  1  1  0  0  0  0
  6  2  1  0  0  0  0
  6  9  1  0  0  0  0
  6 10  1  0  0  0  0
  7  2  1  0  0  0  0
  9 12  1  0  0  0  0
 11  6  1  0  0  0  0
 13  9  1  0  0  0  0
 14  9  1  0  0  0  0
M  END
$$$$
