butane_opt
 OpenBabel08242015403D

 14 13  0  0  0  0  0  0  0  0999 V2000
   -3.9405    0.2729   -0.0189 C   0  0  0  0  0  0  0  0  0  0  0  0
   -2.6915   -0.6271    0.0951 C   0  0  0  0  0  0  0  0  0  0  0  0
   -4.8086   -0.3004   -0.1135 H   0  0  0  0  0  0  0  0  0  0  0  0
   -3.8689    0.8752   -0.9151 H   0  0  0  0  0  0  0  0  0  0  0  0
   -4.0418    0.9736    0.8599 H   0  0  0  0  0  0  0  0  0  0  0  0
   -1.3954    0.1775    0.0437 C   0  0  0  0  0  0  0  0  0  0  0  0
   -2.6980   -1.3157   -0.7433 H   0  0  0  0  0  0  0  0  0  0  0  0
   -2.7327   -1.2783    0.9809 H   0  0  0  0  0  0  0  0  0  0  0  0
   -0.1782   -0.6866   -0.0035 C   0  0  0  0  0  0  0  0  0  0  0  0
   -1.3926    0.8926    0.9051 H   0  0  0  0  0  0  0  0  0  0  0  0
   -1.4220    0.8115   -0.8613 H   0  0  0  0  0  0  0  0  0  0  0  0
   -0.1150   -1.3091    0.8716 H   0  0  0  0  0  0  0  0  0  0  0  0
    0.7686   -0.0559   -0.0306 H   0  0  0  0  0  0  0  0  0  0  0  0
   -0.2562   -1.3961   -0.9076 H   0  0  0  0  0  0  0  0  0  0  0  0
  1  2  1  0  0  0  0
  1  5  1  0  0  0  0
  2  8  1  0  0  0  0
  3  1  1  0  0  0  0
  4  1  1  0  0  0  0
  6  2  1  0  0  0  0
  6 10  1  0  0  0  0
  7  2  1  0  0  0  0
  9  6  1  0  0  0  0
  9 12  1  0  0  0  0
 11  6  1  0  0  0  0
 13  9  1  0  0  0  0
 14  9  1  0  0  0  0
M  END
$$$$
