14
butane_opt
C  -3.945711   0.270556   0.039802
C  -2.690538  -0.625269   0.027448
H  -4.785915  -0.287693   0.008949
H  -3.957456   0.867223  -0.830463
H  -3.980674   0.966231   0.923126
C  -1.399769   0.167126  -0.034907
H  -2.781510  -1.278839  -0.808879
H  -2.691634  -1.246510   0.946235
C  -0.171799  -0.686436   0.055230
H  -1.368668   0.894453   0.847524
H  -1.389245   0.818131  -0.939142
H  -0.206210  -1.242051   0.916288
H   0.746747  -0.077325   0.154742
H  -0.122271  -1.397081  -0.831903
