14
butane_opt
C  -3.933090   0.257298   0.002346
C  -2.705928  -0.597350   0.069210
H  -4.876009  -0.343810  -0.102467
H  -3.834490   0.813956  -0.865962
H  -4.014602   0.949785   0.867407
C  -1.415923   0.185891   0.020411
H  -2.695301  -1.208437  -0.754509
H  -2.727570  -1.274784   1.017004
C  -0.164465  -0.702917   0.012323
H  -1.358351   0.884766   0.879366
H  -1.408720   0.751924  -0.843232
H  -0.137315  -1.281208   0.874276
H   0.757336  -0.108365  -0.011221
H  -0.095832  -1.376860  -0.872413
