14
butane_opt
C  -3.947978   0.268016   0.007402
C  -2.704099  -0.630915   0.055354
H  -4.804061  -0.266590  -0.094556
H  -3.965920   0.806585  -0.855544
H  -3.996253   1.009033   0.909636
C  -1.401534   0.187229   0.012886
H  -2.693159  -1.249077  -0.746874
H  -2.740471  -1.288151   0.972826
C  -0.156104  -0.695178   0.026724
H  -1.388144   0.887573   0.892379
H  -1.365404   0.791279  -0.884907
H  -0.113770  -1.289080   0.917076
H   0.749165  -0.086723  -0.051662
H  -0.193374  -1.333939  -0.844847
