14
butane_opt
C  -3.952138   0.280313   0.050148
C  -2.695378  -0.627661  -0.016220
H  -4.821045  -0.303292   0.149605
H  -4.063115   0.901014  -0.841849
H  -3.931452   0.929872   0.889732
C  -1.391219   0.168871  -0.007127
H  -2.748192  -1.307837  -0.888036
H  -2.733477  -1.248501   0.886924
C  -0.164092  -0.686430   0.063113
H  -1.413996   0.840690   0.823022
H  -1.354976   0.775851  -0.898576
H  -0.139031  -1.343511   0.997003
H   0.782606  -0.061697  -0.023539
H  -0.173878  -1.260891  -0.725289
