butane_opt
 OpenBabel08242015403D

 14 13  0  0  0  0  0  0  0  0999 V2000
   -3.9432    0.2621   -0.0119 C   0  0  0  0  0  0  0  0  0  0  0  0
   -2.7010   -0.6154    0.0856 C   0  0  0  0  0  0  0  0  0  0  0  0
   -4.8865   -0.3525   -0.0711 H   0  0  0  0  0  0  0  0  0  0  0  0
   -3.8677    0.8547   -0.8883 H   0  0  0  0  0  0  0  0  0  0  0  0
   -4.0120    0.9671    0.8510 H   0  0  0  0  0  0  0  0  0  0  0  0
   -1.4055    0.2025    0.0225 C   0  0  0  0  0  0  0  0  0  0  0  0
   -2.7594   -1.2743   -0.7335 H   0  0  0  0  0  0  0  0  0  0  0  0
   -2.7343   -1.2825    1.0120 H   0  0  0  0  0  0  0  0  0  0  0  0
   -0.1619   -0.7013    0.0038 C   0  0  0  0  0  0  0  0  0  0  0  0
   -1.3829    0.8916    0.8796 H   0  0  0  0  0  0  0  0  0  0  0  0
   -1.4026    0.7716   -0.8114 H   0  0  0  0  0  0  0  0  0  0  0  0
   -0.1176   -1.2617    0.8666 H   0  0  0  0  0  0  0  0  0  0  0  0
    0.7461   -0.1179    0.0122 H   0  0  0  0  0  0  0  0  0  0  0  0
   -0.0713   -1.4449   -0.8900 H   0  0  0  0  0  0  0  0  0  0  0  0
  1  2  1  0  0  0  0
  1  5  1  0  0  0  0
  2  8  1  0  0  0  0
  3  1  1  0  0  0  0
  4  1  1  0  0  0  0
  6  2  1  0  0  0  0
  6 10  1  0  0  0  0
  7  2  1  0  0  0  0
  9 13  1  0  0  0  0
  9  6  1  0  0  0  0
  9 12  1  0  0  0  0
 11  6  1  0  0  0  0
 14  9  1  0  0  0  0
M  END
$$$$
