butane_opt
 OpenBabel08242015403D

 14 13  0  0  0  0  0  0  0  0999 V2000
   -3.9454    0.2749    0.0293 C   0  0  0  0  0  0  0  0  0  0  0  0
   -2.6915   -0.6227    0.0440 C   0  0  0  0  0  0  0  0  0  0  0  0
   -4.8346   -0.3007   -0.1405 H   0  0  0  0  0  0  0  0  0  0  0  0
   -3.8939    0.7719   -0.7705 H   0  0  0  0  0  0  0  0  0  0  0  0
   -3.9833    1.0284    0.9264 H   0  0  0  0  0  0  0  0  0  0  0  0
   -1.4111    0.1705   -0.0103 C   0  0  0  0  0  0  0  0  0  0  0  0
   -2.7622   -1.3354   -0.8198 H   0  0  0  0  0  0  0  0  0  0  0  0
   -2.6619   -1.2303    0.9344 H   0  0  0  0  0  0  0  0  0  0  0  0
   -0.1643   -0.6857    0.0434 C   0  0  0  0  0  0  0  0  0  0  0  0
   -1.4057    0.8114    0.8268 H   0  0  0  0  0  0  0  0  0  0  0  0
   -1.4034    0.8368   -0.9403 H   0  0  0  0  0  0  0  0  0  0  0  0
   -0.1615   -1.3285    0.9595 H   0  0  0  0  0  0  0  0  0  0  0  0
    0.7857   -0.0513   -0.0076 H   0  0  0  0  0  0  0  0  0  0  0  0
   -0.1716   -1.3135   -0.7992 H   0  0  0  0  0  0  0  0  0  0  0  0
  1  2  1  0  0  0  0
  1  5  1  0  0  0  0
  2  8  1  0  0  0  0
  3  1  1  0  0  0  0
  4  1  1  0  0  0  0
  6  9  1  0  0  0  0
  6  2  1  0  0  0  0
  6 10  1  0  0  0  0
  7  2  1  0  0  0  0
  9 12  1  0  0  0  0
 11  6  1  0  0  0  0
 13  9  1  0  0  0  0
 14  9  1  0  0  0  0
M  END
$$$$
