butane_opt
 OpenBabel08242015403D

 14 13  0  0  0  0  0  0  0  0999 V2000
   -3.9529    0.2774   -0.0170 C   0  0  0  0  0  0  0  0  0  0  0  0
   -2.7082   -0.6310    0.0797 C   0  0  0  0  0  0  0  0  0  0  0  0
   -4.8773   -0.3357   -0.0008 H   0  0  0  0  0  0  0  0  0  0  0  0
   -3.9451    0.9509   -0.9473 H   0  0  0  0  0  0  0  0  0  0  0  0
   -4.0420    0.9153    0.7866 H   0  0  0  0  0  0  0  0  0  0  0  0
   -1.3902    0.1820    0.0570 C   0  0  0  0  0  0  0  0  0  0  0  0
   -2.7092   -1.3492   -0.8049 H   0  0  0  0  0  0  0  0  0  0  0  0
   -2.7476   -1.2457    0.9653 H   0  0  0  0  0  0  0  0  0  0  0  0
   -0.1498   -0.6898   -0.0034 C   0  0  0  0  0  0  0  0  0  0  0  0
   -1.3813    0.9060    0.9371 H   0  0  0  0  0  0  0  0  0  0  0  0
   -1.4041    0.7722   -0.8219 H   0  0  0  0  0  0  0  0  0  0  0  0
   -0.0658   -1.3233    0.9166 H   0  0  0  0  0  0  0  0  0  0  0  0
    0.7641   -0.0718   -0.1346 H   0  0  0  0  0  0  0  0  0  0  0  0
   -0.2048   -1.3505   -0.8580 H   0  0  0  0  0  0  0  0  0  0  0  0
  1  3  1  0  0  0  0
  1  2  1  0  0  0  0
  1  5  1  0  0  0  0
  2  8  1  0  0  0  0
  4  1  1  0  0  0  0
  6  2  1  0  0  0  0
  6 10  1  0  0  0  0
  7  2  1  0  0  0  0
  9  6  1  0  0  0  0
  9 12  1  0  0  0  0
 11  6  1  0  0  0  0
 13  9  1  0  0  0  0
 14  9  1  0  0  0  0
M  END
$$$$
