14
butane_opt
C  -3.938952   0.253502   0.045259
C  -2.696379  -0.594385   0.009894
H  -4.865696  -0.333652   0.100395
H  -3.988976   0.881833  -0.862683
H  -3.945339   0.880551   0.843484
C  -1.407466   0.182618  -0.003766
H  -2.760719  -1.365591  -0.885688
H  -2.664998  -1.182778   0.868105
C  -0.163183  -0.699726   0.056015
H  -1.466209   0.872189   0.842525
H  -1.373365   0.850874  -0.927210
H  -0.144655  -1.356867   0.980077
H   0.764801  -0.089394  -0.030459
H  -0.107485  -1.332647  -0.784997
