butane_opt
 OpenBabel08242015403D

 14 13  0  0  0  0  0  0  0  0999 V2000
   -3.9393    0.2524    0.0153 C   0  0  0  0  0  0  0  0  0  0  0  0
   -2.6901   -0.6001    0.0344 C   0  0  0  0  0  0  0  0  0  0  0  0
   -4.8775   -0.3653   -0.0290 H   0  0  0  0  0  0  0  0  0  0  0  0
   -3.9148    0.7746   -0.8097 H   0  0  0  0  0  0  0  0  0  0  0  0
   -3.9727    1.0017    0.9548 H   0  0  0  0  0  0  0  0  0  0  0  0
   -1.4101    0.1953    0.0130 C   0  0  0  0  0  0  0  0  0  0  0  0
   -2.7083   -1.2965   -0.8013 H   0  0  0  0  0  0  0  0  0  0  0  0
   -2.7481   -1.2327    0.9231 H   0  0  0  0  0  0  0  0  0  0  0  0
   -0.1713   -0.7017    0.0375 C   0  0  0  0  0  0  0  0  0  0  0  0
   -1.3843    0.8576    0.8480 H   0  0  0  0  0  0  0  0  0  0  0  0
   -1.4210    0.8907   -0.9340 H   0  0  0  0  0  0  0  0  0  0  0  0
   -0.0700   -1.3875    0.9536 H   0  0  0  0  0  0  0  0  0  0  0  0
    0.7381   -0.1271   -0.0668 H   0  0  0  0  0  0  0  0  0  0  0  0
   -0.1357   -1.3395   -0.7812 H   0  0  0  0  0  0  0  0  0  0  0  0
  1  2  1  0  0  0  0
  1  5  1  0  0  0  0
  2  8  1  0  0  0  0
  3  1  1  0  0  0  0
  4  1  1  0  0  0  0
  6  2  1  0  0  0  0
  6  9  1  0  0  0  0
  6 10  1  0  0  0  0
  7  2  1  0  0  0  0
  9 12  1  0  0  0  0
 11  6  1  0  0  0  0
 13  9  1  0  0  0  0
 14  9  1  0  0  0  0
M  END
$$$$
