14
butane_opt
C  -3.952633   0.254792   0.030498
C  -2.705095  -0.606936   0.021007
H  -4.845865  -0.348811  -0.009045
H  -3.963312   0.825103  -0.823970
H  -3.984046   0.973439   0.924322
C  -1.401204   0.199857  -0.000472
H  -2.777870  -1.308778  -0.839174
H  -2.703146  -1.224507   0.918987
C  -0.148444  -0.698521   0.040535
H  -1.377731   0.893227   0.855004
H  -1.363078   0.833555  -0.873464
H  -0.122657  -1.443724   1.027752
H   0.725319  -0.155288  -0.057348
H  -0.115036  -1.312492  -0.774839
