14
butane_opt
C  -3.942863   0.264032   0.038026
C  -2.694288  -0.609961   0.036704
H  -4.830620  -0.325774  -0.093126
H  -3.922569   0.830585  -0.852701
H  -3.989245   1.001923   0.954243
C  -1.402816   0.174453  -0.011835
H  -2.688506  -1.315317  -0.820651
H  -2.710214  -1.204933   0.922864
C  -0.166619  -0.695249   0.040085
H  -1.399803   0.806936   0.828849
H  -1.401669   0.823462  -0.926597
H  -0.213643  -1.294014   0.951816
H   0.768644  -0.077313   0.028094
H  -0.153828  -1.311535  -0.783220
