butane_opt
 OpenBabel08242015403D

 14 13  0  0  0  0  0  0  0  0999 V2000
   -3.9260    0.2577    0.0402 C   0  0  0  0  0  0  0  0  0  0  0  0
   -2.7053   -0.6025    0.0286 C   0  0  0  0  0  0  0  0  0  0  0  0
   -4.8942   -0.3890   -0.1004 H   0  0  0  0  0  0  0  0  0  0  0  0
   -3.8966    0.7296   -0.7675 H   0  0  0  0  0  0  0  0  0  0  0  0
   -3.9872    1.0431    0.9773 H   0  0  0  0  0  0  0  0  0  0  0  0
   -1.4151    0.1926   -0.0215 C   0  0  0  0  0  0  0  0  0  0  0  0
   -2.7504   -1.2958   -0.8576 H   0  0  0  0  0  0  0  0  0  0  0  0
   -2.6971   -1.2088    0.9126 H   0  0  0  0  0  0  0  0  0  0  0  0
   -0.1528   -0.7077    0.0595 C   0  0  0  0  0  0  0  0  0  0  0  0
   -1.4311    0.8270    0.7818 H   0  0  0  0  0  0  0  0  0  0  0  0
   -1.4426    0.8966   -0.9743 H   0  0  0  0  0  0  0  0  0  0  0  0
   -0.0903   -1.3351    0.9637 H   0  0  0  0  0  0  0  0  0  0  0  0
    0.7359   -0.0968    0.0012 H   0  0  0  0  0  0  0  0  0  0  0  0
   -0.1713   -1.3373   -0.7577 H   0  0  0  0  0  0  0  0  0  0  0  0
  1  5  1  0  0  0  0
  2  1  1  0  0  0  0
  2  8  1  0  0  0  0
  3  1  1  0  0  0  0
  4  1  1  0  0  0  0
  6  2  1  0  0  0  0
  6  9  1  0  0  0  0
  6 10  1  0  0  0  0
  7  2  1  0  0  0  0
  9 12  1  0  0  0  0
 11  6  1  0  0  0  0
 13  9  1  0  0  0  0
 14  9  1  0  0  0  0
M  END
$$$$
