14
butane_opt
C  -3.954818   0.256164  -0.007270
C  -2.705805  -0.607312   0.082450
H  -4.903372  -0.345425  -0.134860
H  -3.860559   0.834347  -0.891307
H  -3.993084   0.949993   0.878486
C  -1.405534   0.199484   0.036127
H  -2.702695  -1.270427  -0.761117
H  -2.748419  -1.271834   1.000854
C  -0.146673  -0.699182   0.000412
H  -1.341116   0.875388   0.893846
H  -1.486411   0.835109  -0.889007
H  -0.100649  -1.328506   0.899891
H   0.754277  -0.121589   0.012199
H  -0.094177  -1.423110  -0.905967
