butane_opt
 OpenBabel08242015403D

 14 13  0  0  0  0  0  0  0  0999 V2000
   -3.9575    0.2766   -0.0200 C   0  0  0  0  0  0  0  0  0  0  0  0
   -2.6921   -0.6356    0.0911 C   0  0  0  0  0  0  0  0  0  0  0  0
   -4.8607   -0.2859   -0.1082 H   0  0  0  0  0  0  0  0  0  0  0  0
   -3.9011    0.8534   -0.9116 H   0  0  0  0  0  0  0  0  0  0  0  0
   -4.0418    0.9784    0.8657 H   0  0  0  0  0  0  0  0  0  0  0  0
   -1.3993    0.1847    0.0384 C   0  0  0  0  0  0  0  0  0  0  0  0
   -2.7209   -1.2845   -0.7291 H   0  0  0  0  0  0  0  0  0  0  0  0
   -2.7266   -1.3276    1.0061 H   0  0  0  0  0  0  0  0  0  0  0  0
   -0.1583   -0.6804   -0.0024 C   0  0  0  0  0  0  0  0  0  0  0  0
   -1.3332    0.8852    0.8967 H   0  0  0  0  0  0  0  0  0  0  0  0
   -1.4298    0.7345   -0.8155 H   0  0  0  0  0  0  0  0  0  0  0  0
   -0.0833   -1.2877    0.8734 H   0  0  0  0  0  0  0  0  0  0  0  0
    0.7227   -0.1054   -0.0178 H   0  0  0  0  0  0  0  0  0  0  0  0
   -0.1725   -1.3693   -0.9031 H   0  0  0  0  0  0  0  0  0  0  0  0
  1  2  1  0  0  0  0
  1  5  1  0  0  0  0
  2  8  1  0  0  0  0
  3  1  1  0  0  0  0
  4  1  1  0  0  0  0
  6  2  1  0  0  0  0
  6 10  1  0  0  0  0
  7  2  1  0  0  0  0
  9  6  1  0  0  0  0
  9 12  1  0  0  0  0
 11  6  1  0  0  0  0
 13  9  1  0  0  0  0
 14  9  1  0  0  0  0
M  END
$$$$
