14
butane_opt
C  -3.931931   0.251053  -0.004202
C  -2.713271  -0.606426   0.038917
H  -4.832351  -0.347058   0.078507
H  -3.994157   0.935647  -0.923257
H  -3.974498   0.873907   0.822764
C  -1.410464   0.204715   0.048278
H  -2.743659  -1.253013  -0.771064
H  -2.700025  -1.282580   0.968020
C  -0.155465  -0.705327   0.011619
H  -1.393674   0.943348   0.945043
H  -1.396543   0.792889  -0.832082
H  -0.059395  -1.374601   0.936251
H   0.771042  -0.121093  -0.087461
H  -0.163291  -1.364213  -0.841674
