butane_opt
 OpenBabel08242015403D

 14 13  0  0  0  0  0  0  0  0999 V2000
   -3.9297    0.2582    0.0490 C   0  0  0  0  0  0  0  0  0  0  0  0
   -2.6968   -0.6109    0.0159 C   0  0  0  0  0  0  0  0  0  0  0  0
   -4.8594   -0.3557    0.0430 H   0  0  0  0  0  0  0  0  0  0  0  0
   -4.0249    0.8102   -0.8148 H   0  0  0  0  0  0  0  0  0  0  0  0
   -3.8899    0.9434    0.9248 H   0  0  0  0  0  0  0  0  0  0  0  0
   -1.4184    0.2062   -0.0289 C   0  0  0  0  0  0  0  0  0  0  0  0
   -2.6945   -1.3118   -0.8640 H   0  0  0  0  0  0  0  0  0  0  0  0
   -2.7027   -1.2112    0.8675 H   0  0  0  0  0  0  0  0  0  0  0  0
   -0.1672   -0.7051    0.0664 C   0  0  0  0  0  0  0  0  0  0  0  0
   -1.4254    0.8187    0.7832 H   0  0  0  0  0  0  0  0  0  0  0  0
   -1.3564    0.8681   -0.9650 H   0  0  0  0  0  0  0  0  0  0  0  0
   -0.1695   -1.3102    0.9659 H   0  0  0  0  0  0  0  0  0  0  0  0
    0.7471   -0.0984    0.0893 H   0  0  0  0  0  0  0  0  0  0  0  0
   -0.0995   -1.4090   -0.8179 H   0  0  0  0  0  0  0  0  0  0  0  0
  1  5  1  0  0  0  0
  2  1  1  0  0  0  0
  2  8  1  0  0  0  0
  3  1  1  0  0  0  0
  4  1  1  0  0  0  0
  6  2  1  0  0  0  0
  6  9  1  0  0  0  0
  6 10  1  0  0  0  0
  7  2  1  0  0  0  0
  9 13  1  0  0  0  0
  9 12  1  0  0  0  0
 11  6  1  0  0  0  0
 14  9  1  0  0  0  0
M  END
$$$$
