butane_opt
 OpenBabel08242015403D

 14 13  0  0  0  0  0  0  0  0999 V2000
   -3.9383    0.2667   -0.0032 C   0  0  0  0  0  0  0  0  0  0  0  0
   -2.6974   -0.6127    0.0555 C   0  0  0  0  0  0  0  0  0  0  0  0
   -4.8551   -0.3287   -0.0255 H   0  0  0  0  0  0  0  0  0  0  0  0
   -3.9571    0.8213   -0.8498 H   0  0  0  0  0  0  0  0  0  0  0  0
   -3.9764    0.9813    0.8716 H   0  0  0  0  0  0  0  0  0  0  0  0
   -1.4078    0.1754    0.0351 C   0  0  0  0  0  0  0  0  0  0  0  0
   -2.7120   -1.2975   -0.7984 H   0  0  0  0  0  0  0  0  0  0  0  0
   -2.7243   -1.2192    0.9524 H   0  0  0  0  0  0  0  0  0  0  0  0
   -0.1611   -0.6857    0.0160 C   0  0  0  0  0  0  0  0  0  0  0  0
   -1.3947    0.8324    0.8751 H   0  0  0  0  0  0  0  0  0  0  0  0
   -1.4410    0.7896   -0.8616 H   0  0  0  0  0  0  0  0  0  0  0  0
   -0.0738   -1.3981    0.9471 H   0  0  0  0  0  0  0  0  0  0  0  0
    0.7654   -0.0788   -0.0696 H   0  0  0  0  0  0  0  0  0  0  0  0
   -0.2068   -1.2929   -0.8246 H   0  0  0  0  0  0  0  0  0  0  0  0
  1  2  1  0  0  0  0
  1  5  1  0  0  0  0
  2  8  1  0  0  0  0
  3  1  1  0  0  0  0
  4  1  1  0  0  0  0
  6  2  1  0  0  0  0
  6 10  1  0  0  0  0
  7  2  1  0  0  0  0
  9  6  1  0  0  0  0
  9 12  1  0  0  0  0
 11  6  1  0  0  0  0
 13  9  1  0  0  0  0
 14  9  1  0  0  0  0
M  END
$$$$
