butane_opt
 OpenBabel08242015403D

 14 13  0  0  0  0  0  0  0  0999 V2000
   -3.9398    0.2655    0.0358 C   0  0  0  0  0  0  0  0  0  0  0  0
   -2.7130   -0.6180    0.0024 C   0  0  0  0  0  0  0  0  0  0  0  0
   -4.8531   -0.3265    0.1910 H   0  0  0  0  0  0  0  0  0  0  0  0
   -4.0724    0.9197   -0.8702 H   0  0  0  0  0  0  0  0  0  0  0  0
   -3.9230    0.8764    0.8626 H   0  0  0  0  0  0  0  0  0  0  0  0
   -1.4012    0.1928    0.0041 C   0  0  0  0  0  0  0  0  0  0  0  0
   -2.7808   -1.3438   -0.8909 H   0  0  0  0  0  0  0  0  0  0  0  0
   -2.7103   -1.2116    0.8898 H   0  0  0  0  0  0  0  0  0  0  0  0
   -0.1466   -0.6979    0.0535 C   0  0  0  0  0  0  0  0  0  0  0  0
   -1.4112    0.8313    0.8229 H   0  0  0  0  0  0  0  0  0  0  0  0
   -1.3825    0.8782   -0.9332 H   0  0  0  0  0  0  0  0  0  0  0  0
   -0.1476   -1.3102    0.9744 H   0  0  0  0  0  0  0  0  0  0  0  0
    0.7565   -0.1059    0.0393 H   0  0  0  0  0  0  0  0  0  0  0  0
   -0.0907   -1.3893   -0.8045 H   0  0  0  0  0  0  0  0  0  0  0  0
  1  3  1  0  0  0  0
  1  5  1  0  0  0  0
  2  6  1  0  0  0  0
  2  1  1  0  0  0  0
  2  8  1  0  0  0  0
  4  1  1  0  0  0  0
  6  9  1  0  0  0  0
  6 10  1  0  0  0  0
  7  2  1  0  0  0  0
  9 12  1  0  0  0  0
 11  6  1  0  0  0  0
 13  9  1  0  0  0  0
 14  9  1  0  0  0  0
M  END
$$$$
