14
butane_opt
C  -3.945237   0.265208   0.033122
C  -2.704478  -0.624324   0.018741
H  -4.819904  -0.308269   0.170672
H  -4.004219   0.888555  -0.857993
H  -3.926651   0.897843   0.848940
C  -1.404172   0.198523  -0.007954
H  -2.747766  -1.346659  -0.861129
H  -2.700755  -1.203103   0.863907
C  -0.157392  -0.696742   0.047257
H  -1.434253   0.885643   0.834477
H  -1.413709   0.791320  -0.897488
H  -0.159023  -1.334473   0.965209
H   0.781667  -0.100729   0.056356
H  -0.075006  -1.341794  -0.772994
