14
butane_opt
C  -3.939924   0.251412   0.022500
C  -2.711839  -0.610316   0.049370
H  -4.841285  -0.328138   0.093315
H  -3.912993   0.923944  -0.939008
H  -3.972517   0.897084   0.852114
C  -1.403262   0.210243  -0.004895
H  -2.715584  -1.292015  -0.799538
H  -2.723319  -1.232497   0.935180
C  -0.156535  -0.709221   0.037013
H  -1.408447   0.860337   0.819170
H  -1.392691   0.833146  -0.871716
H  -0.172216  -1.210003   0.830421
H   0.755354  -0.125982   0.142391
H  -0.093769  -1.503087  -0.881713
