butane_opt
 OpenBabel08242015403D

 14 13  0  0  0  0  0  0  0  0999 V2000
   -3.9552    0.2759    0.0495 C   0  0  0  0  0  0  0  0  0  0  0  0
   -2.6947   -0.6346    0.0157 C   0  0  0  0  0  0  0  0  0  0  0  0
   -4.8307   -0.2877   -0.0363 H   0  0  0  0  0  0  0  0  0  0  0  0
   -3.9630    0.8131   -0.7957 H   0  0  0  0  0  0  0  0  0  0  0  0
   -4.0165    1.0320    0.9450 H   0  0  0  0  0  0  0  0  0  0  0  0
   -1.3880    0.1750   -0.0190 C   0  0  0  0  0  0  0  0  0  0  0  0
   -2.7116   -1.3283   -0.8539 H   0  0  0  0  0  0  0  0  0  0  0  0
   -2.6981   -1.2269    0.8535 H   0  0  0  0  0  0  0  0  0  0  0  0
   -0.1749   -0.6811    0.0601 C   0  0  0  0  0  0  0  0  0  0  0  0
   -1.3894    0.8122    0.7822 H   0  0  0  0  0  0  0  0  0  0  0  0
   -1.3567    0.8484   -0.9410 H   0  0  0  0  0  0  0  0  0  0  0  0
   -0.0979   -1.3760    1.0060 H   0  0  0  0  0  0  0  0  0  0  0  0
    0.7381   -0.0695    0.0026 H   0  0  0  0  0  0  0  0  0  0  0  0
   -0.1547   -1.3073   -0.7775 H   0  0  0  0  0  0  0  0  0  0  0  0
  1  5  1  0  0  0  0
  2  1  1  0  0  0  0
  2  8  1  0  0  0  0
  3  1  1  0  0  0  0
  4  1  1  0  0  0  0
  6  2  1  0  0  0  0
  6  9  1  0  0  0  0
  6 10  1  0  0  0  0
  7  2  1  0  0  0  0
  9 12  1  0  0  0  0
 11  6  1  0  0  0  0
 13  9  1  0  0  0  0
 14  9  1  0  0  0  0
M  END
$$$$
