14
butane_opt
C  -3.953187   0.274035   0.044566
C  -2.700631  -0.632220  -0.001251
H  -4.824262  -0.296324   0.026088
H  -3.982134   0.854761  -0.821318
H  -4.028630   1.006614   0.933888
C  -1.396477   0.175857  -0.007000
H  -2.749950  -1.362447  -0.894127
H  -2.685315  -1.261378   0.888584
C  -0.148281  -0.679413   0.058382
H  -1.401907   0.891693   0.867840
H  -1.409224   0.798477  -0.866225
H  -0.116033  -1.465815   1.041494
H   0.756192  -0.101659  -0.140177
H  -0.200976  -1.185403  -0.709594
