butane_opt
 OpenBabel08242015403D

 14 13  0  0  0  0  0  0  0  0999 V2000
   -3.9665    0.2705    0.0474 C   0  0  0  0  0  0  0  0  0  0  0  0
   -2.6957   -0.6255    0.0113 C   0  0  0  0  0  0  0  0  0  0  0  0
   -4.8870   -0.3304   -0.0190 H   0  0  0  0  0  0  0  0  0  0  0  0
   -3.9716    0.8330   -0.7970 H   0  0  0  0  0  0  0  0  0  0  0  0
   -3.9821    1.0431    0.9632 H   0  0  0  0  0  0  0  0  0  0  0  0
   -1.3915    0.1789   -0.0254 C   0  0  0  0  0  0  0  0  0  0  0  0
   -2.7548   -1.3337   -0.8635 H   0  0  0  0  0  0  0  0  0  0  0  0
   -2.6868   -1.2332    0.8764 H   0  0  0  0  0  0  0  0  0  0  0  0
   -0.1505   -0.6894    0.0684 C   0  0  0  0  0  0  0  0  0  0  0  0
   -1.3651    0.8221    0.8135 H   0  0  0  0  0  0  0  0  0  0  0  0
   -1.3590    0.8767   -0.9474 H   0  0  0  0  0  0  0  0  0  0  0  0
   -0.1158   -1.3585    0.9788 H   0  0  0  0  0  0  0  0  0  0  0  0
    0.7523   -0.1062    0.0086 H   0  0  0  0  0  0  0  0  0  0  0  0
   -0.1983   -1.3026   -0.7760 H   0  0  0  0  0  0  0  0  0  0  0  0
  1  5  1  0  0  0  0
  2  1  1  0  0  0  0
  2  8  1  0  0  0  0
  3  1  1  0  0  0  0
  4  1  1  0  0  0  0
  6  2  1  0  0  0  0
  6  9  1  0  0  0  0
  6 10  1  0  0  0  0
  7  2  1  0  0  0  0
  9 12  1  0  0  0  0
 11  6  1  0  0  0  0
 13  9  1  0  0  0  0
 14  9  1  0  0  0  0
M  END
$$$$
