14
butane_opt
C  -3.945350   0.259865   0.054398
C  -2.708714  -0.600851   0.010499
H  -4.847130  -0.345950   0.055187
H  -4.023070   0.826292  -0.790825
H  -3.911369   0.924653   0.941468
C  -1.407455   0.184539  -0.044297
H  -2.756116  -1.324763  -0.853268
H  -2.701069  -1.228005   0.898562
C  -0.140477  -0.694581   0.073466
H  -1.488579   0.831581   0.773519
H  -1.355994   0.881936  -0.988604
H  -0.201363  -1.259108   0.931237
H   0.745381  -0.116998   0.163288
H  -0.060485  -1.452318  -0.831426
