butane_opt
 OpenBabel08242015403D

 14 13  0  0  0  0  0  0  0  0999 V2000
   -3.9368    0.2540    0.0424 C   0  0  0  0  0  0  0  0  0  0  0  0
   -2.6989   -0.6045    0.0286 C   0  0  0  0  0  0  0  0  0  0  0  0
   -4.9110   -0.3889   -0.1144 H   0  0  0  0  0  0  0  0  0  0  0  0
   -3.9143    0.8033   -0.8069 H   0  0  0  0  0  0  0  0  0  0  0  0
   -3.9988    1.0054    0.9552 H   0  0  0  0  0  0  0  0  0  0  0  0
   -1.4085    0.1981   -0.0164 C   0  0  0  0  0  0  0  0  0  0  0  0
   -2.7010   -1.2808   -0.8374 H   0  0  0  0  0  0  0  0  0  0  0  0
   -2.6605   -1.2231    0.9001 H   0  0  0  0  0  0  0  0  0  0  0  0
   -0.1629   -0.7070    0.0507 C   0  0  0  0  0  0  0  0  0  0  0  0
   -1.4120    0.8769    0.8149 H   0  0  0  0  0  0  0  0  0  0  0  0
   -1.3935    0.8260   -0.8972 H   0  0  0  0  0  0  0  0  0  0  0  0
   -0.1345   -1.3751    0.9814 H   0  0  0  0  0  0  0  0  0  0  0  0
    0.7509   -0.1346   -0.0377 H   0  0  0  0  0  0  0  0  0  0  0  0
   -0.1449   -1.2833   -0.7699 H   0  0  0  0  0  0  0  0  0  0  0  0
  1  5  1  0  0  0  0
  2  1  1  0  0  0  0
  2  8  1  0  0  0  0
  3  1  1  0  0  0  0
  4  1  1  0  0  0  0
  6  2  1  0  0  0  0
  6  9  1  0  0  0  0
  6 10  1  0  0  0  0
  7  2  1  0  0  0  0
  9 12  1  0  0  0  0
 11  6  1  0  0  0  0
 13  9  1  0  0  0  0
 14  9  1  0  0  0  0
M  END
$$$$
