butane_opt
 OpenBabel08242015403D

 14 13  0  0  0  0  0  0  0  0999 V2000
   -3.9580    0.2749    0.0555 C   0  0  0  0  0  0  0  0  0  0  0  0
   -2.6837   -0.6244   -0.0067 C   0  0  0  0  0  0  0  0  0  0  0  0
   -4.8762   -0.3231    0.0648 H   0  0  0  0  0  0  0  0  0  0  0  0
   -3.9864    0.8646   -0.8220 H   0  0  0  0  0  0  0  0  0  0  0  0
   -3.9665    0.9579    0.8963 H   0  0  0  0  0  0  0  0  0  0  0  0
   -1.4025    0.1740   -0.0216 C   0  0  0  0  0  0  0  0  0  0  0  0
   -2.7457   -1.3247   -0.8756 H   0  0  0  0  0  0  0  0  0  0  0  0
   -2.6282   -1.2647    0.8953 H   0  0  0  0  0  0  0  0  0  0  0  0
   -0.1707   -0.6885    0.0653 C   0  0  0  0  0  0  0  0  0  0  0  0
   -1.3678    0.8737    0.8243 H   0  0  0  0  0  0  0  0  0  0  0  0
   -1.3619    0.8013   -0.8946 H   0  0  0  0  0  0  0  0  0  0  0  0
   -0.1798   -1.3529    0.9955 H   0  0  0  0  0  0  0  0  0  0  0  0
    0.7818   -0.0537   -0.0082 H   0  0  0  0  0  0  0  0  0  0  0  0
   -0.1164   -1.2797   -0.7416 H   0  0  0  0  0  0  0  0  0  0  0  0
  1  3  1  0  0  0  0
  1  5  1  0  0  0  0
  2  1  1  0  0  0  0
  2  8  1  0  0  0  0
  4  1  1  0  0  0  0
  6  2  1  0  0  0  0
  6  9  1  0  0  0  0
  6 10  1  0  0  0  0
  7  2  1  0  0  0  0
  9 12  1  0  0  0  0
 11  6  1  0  0  0  0
 13  9  1  0  0  0  0
 14  9  1  0  0  0  0
M  END
$$$$
