butane_opt
 OpenBabel08242015403D

 14 13  0  0  0  0  0  0  0  0999 V2000
   -3.9532    0.2648   -0.0026 C   0  0  0  0  0  0  0  0  0  0  0  0
   -2.6872   -0.6198    0.0556 C   0  0  0  0  0  0  0  0  0  0  0  0
   -4.8613   -0.3417    0.0550 H   0  0  0  0  0  0  0  0  0  0  0  0
   -4.0051    0.9188   -0.9410 H   0  0  0  0  0  0  0  0  0  0  0  0
   -3.9377    0.8765    0.8118 H   0  0  0  0  0  0  0  0  0  0  0  0
   -1.4059    0.1974    0.0311 C   0  0  0  0  0  0  0  0  0  0  0  0
   -2.7023   -1.2517   -0.7284 H   0  0  0  0  0  0  0  0  0  0  0  0
   -2.7456   -1.3239    1.0074 H   0  0  0  0  0  0  0  0  0  0  0  0
   -0.1625   -0.6960    0.0100 C   0  0  0  0  0  0  0  0  0  0  0  0
   -1.3394    0.8943    0.8954 H   0  0  0  0  0  0  0  0  0  0  0  0
   -1.4354    0.8065   -0.8372 H   0  0  0  0  0  0  0  0  0  0  0  0
   -0.1484   -1.2468    0.8521 H   0  0  0  0  0  0  0  0  0  0  0  0
    0.7487   -0.0805    0.0987 H   0  0  0  0  0  0  0  0  0  0  0  0
   -0.0946   -1.4787   -0.9190 H   0  0  0  0  0  0  0  0  0  0  0  0
  1  3  1  0  0  0  0
  1  2  1  0  0  0  0
  1  5  1  0  0  0  0
  2  8  1  0  0  0  0
  4  1  1  0  0  0  0
  6  2  1  0  0  0  0
  6 10  1  0  0  0  0
  7  2  1  0  0  0  0
  9  6  1  0  0  0  0
  9 13  1  0  0  0  0
  9 12  1  0  0  0  0
 11  6  1  0  0  0  0
 14  9  1  0  0  0  0
M  END
$$$$
