butane_opt
 OpenBabel08242015403D

 14 13  0  0  0  0  0  0  0  0999 V2000
   -3.9552    0.2708    0.0265 C   0  0  0  0  0  0  0  0  0  0  0  0
   -2.7068   -0.6186    0.0271 C   0  0  0  0  0  0  0  0  0  0  0  0
   -4.8749   -0.3407    0.0250 H   0  0  0  0  0  0  0  0  0  0  0  0
   -4.0048    0.8647   -0.8643 H   0  0  0  0  0  0  0  0  0  0  0  0
   -3.9855    0.9699    0.9269 H   0  0  0  0  0  0  0  0  0  0  0  0
   -1.4005    0.1741    0.0055 C   0  0  0  0  0  0  0  0  0  0  0  0
   -2.6995   -1.3303   -0.8448 H   0  0  0  0  0  0  0  0  0  0  0  0
   -2.6681   -1.2287    0.8979 H   0  0  0  0  0  0  0  0  0  0  0  0
   -0.1530   -0.6845    0.0486 C   0  0  0  0  0  0  0  0  0  0  0  0
   -1.4108    0.8267    0.8676 H   0  0  0  0  0  0  0  0  0  0  0  0
   -1.3095    0.8411   -0.9341 H   0  0  0  0  0  0  0  0  0  0  0  0
   -0.0958   -1.3513    0.9611 H   0  0  0  0  0  0  0  0  0  0  0  0
    0.7548   -0.0918   -0.0635 H   0  0  0  0  0  0  0  0  0  0  0  0
   -0.1444   -1.3317   -0.8254 H   0  0  0  0  0  0  0  0  0  0  0  0
  1  2  1  0  0  0  0
  1  5  1  0  0  0  0
  2  8  1  0  0  0  0
  3  1  1  0  0  0  0
  4  1  1  0  0  0  0
  6  2  1  0  0  0  0
  6  9  1  0  0  0  0
  6 10  1  0  0  0  0
  7  2  1  0  0  0  0
  9 12  1  0  0  0  0
 11  6  1  0  0  0  0
 13  9  1  0  0  0  0
 14  9  1  0  0  0  0
M  END
$$$$
