14
butane_opt
C  -3.944999   0.282118   0.053456
C  -2.687824  -0.636145   0.000265
H  -4.848154  -0.315560   0.079640
H  -3.999529   0.860329  -0.822311
H  -3.920840   0.971568   0.932008
C  -1.399857   0.172289  -0.024440
H  -2.753264  -1.315153  -0.860024
H  -2.637155  -1.275360   0.893074
C  -0.179868  -0.677485   0.071418
H  -1.431668   0.795947   0.755353
H  -1.346461   0.873030  -0.979510
H  -0.207330  -1.270424   0.949730
H   0.743665  -0.044601   0.105570
H  -0.085782  -1.437197  -0.830383
