14
butane_opt
C  -3.948609   0.255262   0.005913
C  -2.712498  -0.612897   0.068349
H  -4.863911  -0.357675  -0.121538
H  -3.872443   0.774849  -0.842187
H  -4.001613   1.030159   0.940042
C  -1.407096   0.206999   0.005550
H  -2.673104  -1.280633  -0.754807
H  -2.753239  -1.265262   0.965516
C  -0.150547  -0.702467   0.020426
H  -1.365202   0.919010   0.871280
H  -1.424319   0.825758  -0.891575
H  -0.097826  -1.349832   0.944887
H   0.724992  -0.127081  -0.032331
H  -0.074690  -1.409113  -0.831181
