butane_opt
 OpenBabel08242015403D

 14 13  0  0  0  0  0  0  0  0999 V2000
   -3.9350    0.2582    0.0460 C   0  0  0  0  0  0  0  0  0  0  0  0
   -2.7022   -0.6033    0.0197 C   0  0  0  0  0  0  0  0  0  0  0  0
   -4.9146   -0.3847    0.0415 H   0  0  0  0  0  0  0  0  0  0  0  0
   -3.9637    0.8497   -0.8285 H   0  0  0  0  0  0  0  0  0  0  0  0
   -3.8895    0.9371    0.9145 H   0  0  0  0  0  0  0  0  0  0  0  0
   -1.4104    0.1957   -0.0246 C   0  0  0  0  0  0  0  0  0  0  0  0
   -2.7237   -1.3273   -0.8729 H   0  0  0  0  0  0  0  0  0  0  0  0
   -2.6937   -1.1790    0.8985 H   0  0  0  0  0  0  0  0  0  0  0  0
   -0.1561   -0.6988    0.0527 C   0  0  0  0  0  0  0  0  0  0  0  0
   -1.4438    0.8223    0.7822 H   0  0  0  0  0  0  0  0  0  0  0  0
   -1.4085    0.8226   -0.9175 H   0  0  0  0  0  0  0  0  0  0  0  0
   -0.1912   -1.3309    0.9931 H   0  0  0  0  0  0  0  0  0  0  0  0
    0.7361   -0.1419    0.1051 H   0  0  0  0  0  0  0  0  0  0  0  0
   -0.0793   -1.3730   -0.8013 H   0  0  0  0  0  0  0  0  0  0  0  0
  1  5  1  0  0  0  0
  2  1  1  0  0  0  0
  2  8  1  0  0  0  0
  3  1  1  0  0  0  0
  4  1  1  0  0  0  0
  6  2  1  0  0  0  0
  6  9  1  0  0  0  0
  6 10  1  0  0  0  0
  7  2  1  0  0  0  0
  9 13  1  0  0  0  0
  9 12  1  0  0  0  0
 11  6  1  0  0  0  0
 14  9  1  0  0  0  0
M  END
$$$$
