14
butane_opt
C  -3.960001   0.274645   0.046789
C  -2.694720  -0.636362   0.012051
H  -4.827736  -0.311641   0.109726
H  -4.008747   0.949927  -0.883778
H  -3.957402   0.893164   0.878702
C  -1.391979   0.182657  -0.016535
H  -2.734405  -1.349828  -0.880410
H  -2.624115  -1.223548   0.843674
C  -0.167671  -0.687960   0.064565
H  -1.368808   0.869334   0.824497
H  -1.366388   0.833865  -0.908107
H  -0.185416  -1.276007   0.930996
H   0.733349  -0.103686   0.030794
H  -0.110624  -1.346338  -0.797931
