14
butane_opt
C  -3.926819   0.272201  -0.028061
C  -2.700570  -0.619884   0.078310
H  -4.852496  -0.321586   0.008271
H  -3.934218   0.891316  -0.897856
H  -3.995531   0.953465   0.840415
C  -1.412198   0.182236   0.055262
H  -2.659601  -1.312502  -0.764988
H  -2.774588  -1.297640   1.001453
C  -0.168030  -0.692267  -0.006601
H  -1.349570   0.895075   0.926788
H  -1.400314   0.748311  -0.806391
H  -0.100495  -1.333619   0.897401
H   0.766796  -0.067178  -0.096002
H  -0.233932  -1.326970  -0.848006
