14
butane_opt
C  -3.919923   0.261061   0.046942
C  -2.706529  -0.611704   0.013815
H  -4.859664  -0.359446  -0.014260
H  -3.921349   0.804791  -0.800734
H  -3.963544   0.977766   0.924688
C  -1.408116   0.203193  -0.024468
H  -2.746040  -1.318154  -0.851836
H  -2.712250  -1.208040   0.878962
C  -0.169980  -0.701334   0.058968
H  -1.442171   0.867508   0.849716
H  -1.417532   0.806882  -0.891269
H  -0.142555  -1.416206   1.017853
H   0.746038  -0.108836  -0.071127
H  -0.113061  -1.330225  -0.737407
