butane_opt
 OpenBabel08242015403D

 14 13  0  0  0  0  0  0  0  0999 V2000
   -3.9590    0.2742    0.0443 C   0  0  0  0  0  0  0  0  0  0  0  0
   -2.6985   -0.6305    0.0256 C   0  0  0  0  0  0  0  0  0  0  0  0
   -4.8700   -0.3282   -0.0814 H   0  0  0  0  0  0  0  0  0  0  0  0
   -3.9615    0.7970   -0.7815 H   0  0  0  0  0  0  0  0  0  0  0  0
   -4.0305    1.0778    0.9784 H   0  0  0  0  0  0  0  0  0  0  0  0
   -1.3915    0.1812   -0.0291 C   0  0  0  0  0  0  0  0  0  0  0  0
   -2.7344   -1.2935   -0.8288 H   0  0  0  0  0  0  0  0  0  0  0  0
   -2.7399   -1.2655    0.9222 H   0  0  0  0  0  0  0  0  0  0  0  0
   -0.1472   -0.6894    0.0554 C   0  0  0  0  0  0  0  0  0  0  0  0
   -1.3791    0.8400    0.8197 H   0  0  0  0  0  0  0  0  0  0  0  0
   -1.3830    0.8158   -0.9374 H   0  0  0  0  0  0  0  0  0  0  0  0
   -0.2322   -1.3462    0.9864 H   0  0  0  0  0  0  0  0  0  0  0  0
    0.7545   -0.0719    0.0202 H   0  0  0  0  0  0  0  0  0  0  0  0
   -0.0919   -1.3263   -0.7990 H   0  0  0  0  0  0  0  0  0  0  0  0
  1  5  1  0  0  0  0
  2  1  1  0  0  0  0
  2  8  1  0  0  0  0
  3  1  1  0  0  0  0
  4  1  1  0  0  0  0
  6  2  1  0  0  0  0
  6  9  1  0  0  0  0
  6 10  1  0  0  0  0
  7  2  1  0  0  0  0
  9 12  1  0  0  0  0
 11  6  1  0  0  0  0
 13  9  1  0  0  0  0
 14  9  1  0  0  0  0
M  END
$$$$
