butane_opt
 OpenBabel08242015403D

 14 13  0  0  0  0  0  0  0  0999 V2000
   -3.9566    0.2730    0.0467 C   0  0  0  0  0  0  0  0  0  0  0  0
   -2.6885   -0.6347    0.0135 C   0  0  0  0  0  0  0  0  0  0  0  0
   -4.8456   -0.3004    0.0805 H   0  0  0  0  0  0  0  0  0  0  0  0
   -4.0752    0.9355   -0.8827 H   0  0  0  0  0  0  0  0  0  0  0  0
   -3.9480    0.9335    0.8842 H   0  0  0  0  0  0  0  0  0  0  0  0
   -1.3988    0.1783   -0.0130 C   0  0  0  0  0  0  0  0  0  0  0  0
   -2.7161   -1.3531   -0.8862 H   0  0  0  0  0  0  0  0  0  0  0  0
   -2.6822   -1.2114    0.8655 H   0  0  0  0  0  0  0  0  0  0  0  0
   -0.1689   -0.6816    0.0558 C   0  0  0  0  0  0  0  0  0  0  0  0
   -1.3281    0.8266    0.8141 H   0  0  0  0  0  0  0  0  0  0  0  0
   -1.3773    0.8158   -0.9159 H   0  0  0  0  0  0  0  0  0  0  0  0
   -0.1649   -1.3079    0.9477 H   0  0  0  0  0  0  0  0  0  0  0  0
    0.7580   -0.0835    0.0607 H   0  0  0  0  0  0  0  0  0  0  0  0
   -0.0916   -1.3391   -0.7643 H   0  0  0  0  0  0  0  0  0  0  0  0
  1  3  1  0  0  0  0
  1  5  1  0  0  0  0
  2  1  1  0  0  0  0
  2  8  1  0  0  0  0
  4  1  1  0  0  0  0
  6  2  1  0  0  0  0
  6  9  1  0  0  0  0
  6 10  1  0  0  0  0
  7  2  1  0  0  0  0
  9 13  1  0  0  0  0
  9 12  1  0  0  0  0
 11  6  1  0  0  0  0
 14  9  1  0  0  0  0
M  END
$$$$
