butane_opt
 OpenBabel08242015403D

 14 13  0  0  0  0  0  0  0  0999 V2000
   -3.9482    0.2610   -0.0034 C   0  0  0  0  0  0  0  0  0  0  0  0
   -2.7101   -0.6045    0.0872 C   0  0  0  0  0  0  0  0  0  0  0  0
   -4.9039   -0.3769   -0.1213 H   0  0  0  0  0  0  0  0  0  0  0  0
   -3.8556    0.8363   -0.9060 H   0  0  0  0  0  0  0  0  0  0  0  0
   -4.0141    0.9264    0.8335 H   0  0  0  0  0  0  0  0  0  0  0  0
   -1.4025    0.1973    0.0257 C   0  0  0  0  0  0  0  0  0  0  0  0
   -2.7349   -1.2765   -0.7833 H   0  0  0  0  0  0  0  0  0  0  0  0
   -2.7339   -1.2756    0.9977 H   0  0  0  0  0  0  0  0  0  0  0  0
   -0.1496   -0.7076    0.0090 C   0  0  0  0  0  0  0  0  0  0  0  0
   -1.3710    0.8971    0.8740 H   0  0  0  0  0  0  0  0  0  0  0  0
   -1.4611    0.8384   -0.8493 H   0  0  0  0  0  0  0  0  0  0  0  0
   -0.0569   -1.2488    0.8636 H   0  0  0  0  0  0  0  0  0  0  0  0
    0.7527   -0.1238    0.0123 H   0  0  0  0  0  0  0  0  0  0  0  0
   -0.1199   -1.4334   -0.9077 H   0  0  0  0  0  0  0  0  0  0  0  0
  1  2  1  0  0  0  0
  1  5  1  0  0  0  0
  2  8  1  0  0  0  0
  3  1  1  0  0  0  0
  4  1  1  0  0  0  0
  6  2  1  0  0  0  0
  6 10  1  0  0  0  0
  7  2  1  0  0  0  0
  9 13  1  0  0  0  0
  9  6  1  0  0  0  0
  9 12  1  0  0  0  0
 11  6  1  0  0  0  0
 14  9  1  0  0  0  0
M  END
$$$$
