butane_opt
 OpenBabel08242015403D

 14 13  0  0  0  0  0  0  0  0999 V2000
   -3.9214    0.2547   -0.0079 C   0  0  0  0  0  0  0  0  0  0  0  0
   -2.7074   -0.5976    0.0811 C   0  0  0  0  0  0  0  0  0  0  0  0
   -4.8521   -0.3554   -0.0563 H   0  0  0  0  0  0  0  0  0  0  0  0
   -3.8636    0.8241   -0.9089 H   0  0  0  0  0  0  0  0  0  0  0  0
   -4.0174    0.9645    0.8776 H   0  0  0  0  0  0  0  0  0  0  0  0
   -1.4174    0.1886    0.0327 C   0  0  0  0  0  0  0  0  0  0  0  0
   -2.7090   -1.2552   -0.7708 H   0  0  0  0  0  0  0  0  0  0  0  0
   -2.7717   -1.2339    0.9868 H   0  0  0  0  0  0  0  0  0  0  0  0
   -0.1618   -0.7090    0.0009 C   0  0  0  0  0  0  0  0  0  0  0  0
   -1.3717    0.8627    0.8761 H   0  0  0  0  0  0  0  0  0  0  0  0
   -1.4365    0.8139   -0.8780 H   0  0  0  0  0  0  0  0  0  0  0  0
   -0.1208   -1.2619    0.8616 H   0  0  0  0  0  0  0  0  0  0  0  0
    0.7462   -0.1054    0.0303 H   0  0  0  0  0  0  0  0  0  0  0  0
   -0.1272   -1.3695   -0.8515 H   0  0  0  0  0  0  0  0  0  0  0  0
  1  2  1  0  0  0  0
  1  5  1  0  0  0  0
  2  8  1  0  0  0  0
  3  1  1  0  0  0  0
  4  1  1  0  0  0  0
  6  2  1  0  0  0  0
  6 10  1  0  0  0  0
  7  2  1  0  0  0  0
  9 13  1  0  0  0  0
  9  6  1  0  0  0  0
  9 12  1  0  0  0  0
 11  6  1  0  0  0  0
 14  9  1  0  0  0  0
M  END
$$$$
