14
butane_opt
C  -3.954225   0.253456   0.018093
C  -2.704255  -0.611757   0.040540
H  -4.880782  -0.355161  -0.097552
H  -3.900993   0.779155  -0.808008
H  -4.017056   1.016892   0.920104
C  -1.399818   0.202113   0.005659
H  -2.707522  -1.229977  -0.762558
H  -2.707343  -1.290200   0.981615
C  -0.148999  -0.701008   0.032039
H  -1.383387   0.906128   0.880769
H  -1.416900   0.856656  -0.916889
H  -0.082036  -1.360452   0.941171
H   0.724183  -0.162234  -0.002738
H  -0.156347  -1.361169  -0.837297
