14
butane_opt
C  -3.947734   0.271426   0.032593
C  -2.702031  -0.634249   0.006893
H  -4.836761  -0.297769   0.022617
H  -4.037592   0.814252  -0.803769
H  -4.002795   1.026896   0.948139
C  -1.399231   0.188190  -0.001621
H  -2.773671  -1.328210  -0.865774
H  -2.683558  -1.245987   0.887732
C  -0.153898  -0.698942   0.057546
H  -1.375368   0.886827   0.862037
H  -1.341266   0.853578  -0.894344
H  -0.104232  -1.410706   1.028755
H   0.767900  -0.084755  -0.142075
H  -0.195272  -1.204900  -0.733663
