butane_opt
 OpenBabel08242015403D

 14 13  0  0  0  0  0  0  0  0999 V2000
   -3.9472    0.2667    0.0024 C   0  0  0  0  0  0  0  0  0  0  0  0
   -2.6999   -0.6161    0.0524 C   0  0  0  0  0  0  0  0  0  0  0  0
   -4.8386   -0.3088    0.1785 H   0  0  0  0  0  0  0  0  0  0  0  0
   -3.9626    1.0772   -1.0327 H   0  0  0  0  0  0  0  0  0  0  0  0
   -3.9673    0.7939    0.7679 H   0  0  0  0  0  0  0  0  0  0  0  0
   -1.3986    0.1667    0.0411 C   0  0  0  0  0  0  0  0  0  0  0  0
   -2.6731   -1.3030   -0.8045 H   0  0  0  0  0  0  0  0  0  0  0  0
   -2.6994   -1.2127    0.9200 H   0  0  0  0  0  0  0  0  0  0  0  0
   -0.1654   -0.6891    0.0116 C   0  0  0  0  0  0  0  0  0  0  0  0
   -1.3744    0.8815    0.9041 H   0  0  0  0  0  0  0  0  0  0  0  0
   -1.3814    0.7554   -0.8095 H   0  0  0  0  0  0  0  0  0  0  0  0
   -0.1623   -1.2115    0.8574 H   0  0  0  0  0  0  0  0  0  0  0  0
    0.7544   -0.0468    0.0191 H   0  0  0  0  0  0  0  0  0  0  0  0
   -0.1842   -1.4301   -0.8747 H   0  0  0  0  0  0  0  0  0  0  0  0
  1  2  1  0  0  0  0
  1  3  1  0  0  0  0
  1  5  1  0  0  0  0
  2  8  1  0  0  0  0
  4  1  1  0  0  0  0
  6  2  1  0  0  0  0
  6 10  1  0  0  0  0
  7  2  1  0  0  0  0
  9 13  1  0  0  0  0
  9  6  1  0  0  0  0
  9 12  1  0  0  0  0
 11  6  1  0  0  0  0
 14  9  1  0  0  0  0
M  END
$$$$
