14
butane_opt
C  -3.948899   0.262648   0.016941
C  -2.695498  -0.617952   0.051134
H  -4.875216  -0.354221  -0.003227
H  -4.007589   0.876354  -0.884450
H  -3.984290   0.963915   0.898763
C  -1.397569   0.197002  -0.000586
H  -2.771135  -1.301291  -0.806324
H  -2.717525  -1.262951   0.946199
C  -0.157388  -0.695817   0.038583
H  -1.394546   0.819276   0.845227
H  -1.348917   0.870315  -0.926733
H  -0.118489  -1.232864   0.874440
H   0.719002  -0.134008   0.087124
H  -0.124102  -1.471534  -0.877994
