14
butane_opt
C  -3.955329   0.254291  -0.004463
C  -2.696933  -0.613425   0.043815
H  -4.866080  -0.327908   0.018005
H  -3.939474   0.885353  -0.893467
H  -3.960174   0.896093   0.853042
C  -1.404262   0.204803   0.044623
H  -2.725034  -1.225046  -0.783166
H  -2.757302  -1.298495   0.974946
C  -0.153166  -0.703292   0.016457
H  -1.357194   0.933481   0.927045
H  -1.416023   0.820203  -0.820428
H  -0.053295  -1.365882   0.943913
H   0.735503  -0.133981  -0.131114
H  -0.167033  -1.370179  -0.856414
