14
butane_opt
C  -3.959119   0.280006  -0.023776
C  -2.709232  -0.629016   0.077408
H  -4.877203  -0.315091  -0.018316
H  -3.955975   0.873752  -0.903115
H  -3.996123   0.919502   0.818440
C  -1.389530   0.179217   0.056320
H  -2.654282  -1.280582  -0.784472
H  -2.774440  -1.276160   0.987711
C  -0.152443  -0.690117  -0.001056
H  -1.362136   0.909085   0.944026
H  -1.430084   0.747569  -0.791675
H  -0.060713  -1.342890   0.905855
H   0.789577  -0.081911  -0.160426
H  -0.187909  -1.300457  -0.860239
