14
butane_opt
C  -3.964026   0.270015   0.004884
C  -2.692075  -0.622114   0.052744
H  -4.831515  -0.302033  -0.007962
H  -4.012123   0.887721  -0.884984
H  -3.981055   0.966027   0.908853
C  -1.391746   0.173188   0.015897
H  -2.723520  -1.259103  -0.776999
H  -2.717143  -1.302300   0.988923
C  -0.155384  -0.683129   0.019860
H  -1.397047   0.801786   0.862291
H  -1.424341   0.803752  -0.870629
H  -0.185419  -1.242608   0.890337
H   0.791462  -0.068017   0.089170
H  -0.111093  -1.401157  -0.889332
