butane_opt
 OpenBabel08242015403D

 14 13  0  0  0  0  0  0  0  0999 V2000
   -3.9350    0.2520    0.0291 C   0  0  0  0  0  0  0  0  0  0  0  0
   -2.7139   -0.6103    0.0304 C   0  0  0  0  0  0  0  0  0  0  0  0
   -4.8499   -0.3198    0.0287 H   0  0  0  0  0  0  0  0  0  0  0  0
   -4.0166    0.8159   -0.8005 H   0  0  0  0  0  0  0  0  0  0  0  0
   -3.9614    0.9700    0.9299 H   0  0  0  0  0  0  0  0  0  0  0  0
   -1.4154    0.1951   -0.0258 C   0  0  0  0  0  0  0  0  0  0  0  0
   -2.7251   -1.2486   -0.8101 H   0  0  0  0  0  0  0  0  0  0  0  0
   -2.7173   -1.2731    0.9429 H   0  0  0  0  0  0  0  0  0  0  0  0
   -0.1439   -0.7014    0.0514 C   0  0  0  0  0  0  0  0  0  0  0  0
   -1.3786    0.8936    0.8341 H   0  0  0  0  0  0  0  0  0  0  0  0
   -1.4154    0.8695   -0.9242 H   0  0  0  0  0  0  0  0  0  0  0  0
   -0.1348   -1.2645    0.9187 H   0  0  0  0  0  0  0  0  0  0  0  0
    0.7469   -0.1455    0.1454 H   0  0  0  0  0  0  0  0  0  0  0  0
   -0.0655   -1.4085   -0.8419 H   0  0  0  0  0  0  0  0  0  0  0  0
  1  2  1  0  0  0  0
  1  5  1  0  0  0  0
  2  8  1  0  0  0  0
  3  1  1  0  0  0  0
  4  1  1  0  0  0  0
  6  2  1  0  0  0  0
  6  9  1  0  0  0  0
  6 10  1  0  0  0  0
  7  2  1  0  0  0  0
  9 13  1  0  0  0  0
  9 12  1  0  0  0  0
 11  6  1  0  0  0  0
 14  9  1  0  0  0  0
M  END
$$$$
