butane_opt
 OpenBabel08242015403D

 14 13  0  0  0  0  0  0  0  0999 V2000
   -3.9480    0.2823   -0.0073 C   0  0  0  0  0  0  0  0  0  0  0  0
   -2.6980   -0.6376    0.0488 C   0  0  0  0  0  0  0  0  0  0  0  0
   -4.8267   -0.2910    0.0260 H   0  0  0  0  0  0  0  0  0  0  0  0
   -4.0087    0.9013   -0.8806 H   0  0  0  0  0  0  0  0  0  0  0  0
   -3.9708    0.9483    0.8513 H   0  0  0  0  0  0  0  0  0  0  0  0
   -1.3960    0.1771    0.0439 C   0  0  0  0  0  0  0  0  0  0  0  0
   -2.7091   -1.3063   -0.7740 H   0  0  0  0  0  0  0  0  0  0  0  0
   -2.7780   -1.3125    0.9667 H   0  0  0  0  0  0  0  0  0  0  0  0
   -0.1642   -0.6898    0.0062 C   0  0  0  0  0  0  0  0  0  0  0  0
   -1.3720    0.8891    0.9311 H   0  0  0  0  0  0  0  0  0  0  0  0
   -1.3784    0.7893   -0.8190 H   0  0  0  0  0  0  0  0  0  0  0  0
   -0.1049   -1.3333    0.9336 H   0  0  0  0  0  0  0  0  0  0  0  0
    0.7710   -0.0590   -0.0849 H   0  0  0  0  0  0  0  0  0  0  0  0
   -0.1832   -1.2690   -0.8075 H   0  0  0  0  0  0  0  0  0  0  0  0
  1  3  1  0  0  0  0
  1  2  1  0  0  0  0
  1  5  1  0  0  0  0
  2  8  1  0  0  0  0
  4  1  1  0  0  0  0
  6  2  1  0  0  0  0
  6 10  1  0  0  0  0
  7  2  1  0  0  0  0
  9  6  1  0  0  0  0
  9 12  1  0  0  0  0
 11  6  1  0  0  0  0
 13  9  1  0  0  0  0
 14  9  1  0  0  0  0
M  END
$$$$
