14
butane_opt
C  -3.965326   0.268491   0.010452
C  -2.693370  -0.624876   0.046828
H  -4.829035  -0.283394   0.041741
H  -3.996053   0.891079  -0.896629
H  -3.974772   0.958137   0.874780
C  -1.395558   0.175320   0.009532
H  -2.747804  -1.207677  -0.759738
H  -2.704488  -1.311284   0.987802
C  -0.152868  -0.685407   0.028511
H  -1.385846   0.835204   0.837158
H  -1.379117   0.780425  -0.881037
H  -0.198384  -1.206976   0.865414
H   0.776986  -0.041948   0.114104
H  -0.106805  -1.482955  -0.903240
