butane_opt
 OpenBabel08242015403D

 14 13  0  0  0  0  0  0  0  0999 V2000
   -3.9508    0.2576    0.0399 C   0  0  0  0  0  0  0  0  0  0  0  0
   -2.7196   -0.5978    0.0352 C   0  0  0  0  0  0  0  0  0  0  0  0
   -4.8681   -0.3678   -0.0919 H   0  0  0  0  0  0  0  0  0  0  0  0
   -3.8611    0.7255   -0.7699 H   0  0  0  0  0  0  0  0  0  0  0  0
   -4.0269    1.0433    0.9960 H   0  0  0  0  0  0  0  0  0  0  0  0
   -1.4001    0.1879   -0.0291 C   0  0  0  0  0  0  0  0  0  0  0  0
   -2.7161   -1.3091   -0.8649 H   0  0  0  0  0  0  0  0  0  0  0  0
   -2.7062   -1.1943    0.9061 H   0  0  0  0  0  0  0  0  0  0  0  0
   -0.1469   -0.7029    0.0566 C   0  0  0  0  0  0  0  0  0  0  0  0
   -1.3765    0.8616    0.8128 H   0  0  0  0  0  0  0  0  0  0  0  0
   -1.3634    0.8689   -0.9665 H   0  0  0  0  0  0  0  0  0  0  0  0
   -0.1079   -1.3705    0.9979 H   0  0  0  0  0  0  0  0  0  0  0  0
    0.7318   -0.1572   -0.0077 H   0  0  0  0  0  0  0  0  0  0  0  0
   -0.1129   -1.3224   -0.7764 H   0  0  0  0  0  0  0  0  0  0  0  0
  1  5  1  0  0  0  0
  2  1  1  0  0  0  0
  2  8  1  0  0  0  0
  3  1  1  0  0  0  0
  4  1  1  0  0  0  0
  6  2  1  0  0  0  0
  6  9  1  0  0  0  0
  6 10  1  0  0  0  0
  7  2  1  0  0  0  0
  9 12  1  0  0  0  0
 11  6  1  0  0  0  0
 13  9  1  0  0  0  0
 14  9  1  0  0  0  0
M  END
$$$$
