14
butane_opt
C  -3.930497   0.252016   0.002395
C  -2.706982  -0.599043   0.036594
H  -4.837867  -0.333325   0.141778
H  -3.989614   0.958041  -0.956662
H  -3.924416   0.784336   0.782061
C  -1.417469   0.192493   0.038059
H  -2.739513  -1.242250  -0.785767
H  -2.663700  -1.237944   0.964155
C  -0.151973  -0.700353   0.013960
H  -1.403211   0.917921   0.930928
H  -1.424772   0.760783  -0.796552
H  -0.152836  -1.315388   0.910694
H   0.738959  -0.107730  -0.013103
H  -0.137516  -1.399926  -0.853484
