butane_opt
 OpenBabel08242015403D

 14 13  0  0  0  0  0  0  0  0999 V2000
   -3.9436    0.2600    0.0081 C   0  0  0  0  0  0  0  0  0  0  0  0
   -2.7004   -0.6160    0.0477 C   0  0  0  0  0  0  0  0  0  0  0  0
   -4.8381   -0.3235    0.0905 H   0  0  0  0  0  0  0  0  0  0  0  0
   -3.9772    0.8618   -0.8844 H   0  0  0  0  0  0  0  0  0  0  0  0
   -3.9592    0.9028    0.8595 H   0  0  0  0  0  0  0  0  0  0  0  0
   -1.4105    0.1897    0.0100 C   0  0  0  0  0  0  0  0  0  0  0  0
   -2.7571   -1.2231   -0.7727 H   0  0  0  0  0  0  0  0  0  0  0  0
   -2.7417   -1.2419    0.9468 H   0  0  0  0  0  0  0  0  0  0  0  0
   -0.1535   -0.6994    0.0238 C   0  0  0  0  0  0  0  0  0  0  0  0
   -1.3806    0.8985    0.8725 H   0  0  0  0  0  0  0  0  0  0  0  0
   -1.4318    0.8163   -0.8865 H   0  0  0  0  0  0  0  0  0  0  0  0
   -0.1493   -1.2636    0.8597 H   0  0  0  0  0  0  0  0  0  0  0  0
    0.7483   -0.1040    0.1247 H   0  0  0  0  0  0  0  0  0  0  0  0
   -0.0457   -1.4098   -0.8458 H   0  0  0  0  0  0  0  0  0  0  0  0
  1  2  1  0  0  0  0
  1  3  1  0  0  0  0
  1  5  1  0  0  0  0
  2  8  1  0  0  0  0
  4  1  1  0  0  0  0
  6  9  1  0  0  0  0
  6  2  1  0  0  0  0
  6 10  1  0  0  0  0
  7  2  1  0  0  0  0
  9 13  1  0  0  0  0
  9 12  1  0  0  0  0
 11  6  1  0  0  0  0
 14  9  1  0  0  0  0
M  END
$$$$
