butane_opt
 OpenBabel08242015403D

 14 13  0  0  0  0  0  0  0  0999 V2000
   -3.9572    0.2629    0.0362 C   0  0  0  0  0  0  0  0  0  0  0  0
   -2.7029   -0.6241    0.0054 C   0  0  0  0  0  0  0  0  0  0  0  0
   -4.8595   -0.3152    0.0481 H   0  0  0  0  0  0  0  0  0  0  0  0
   -4.0268    0.8840   -0.8579 H   0  0  0  0  0  0  0  0  0  0  0  0
   -3.9742    1.0002    0.9402 H   0  0  0  0  0  0  0  0  0  0  0  0
   -1.3997    0.1854   -0.0034 C   0  0  0  0  0  0  0  0  0  0  0  0
   -2.6859   -1.3032   -0.8233 H   0  0  0  0  0  0  0  0  0  0  0  0
   -2.7025   -1.2446    0.8969 H   0  0  0  0  0  0  0  0  0  0  0  0
   -0.1459   -0.6900    0.0559 C   0  0  0  0  0  0  0  0  0  0  0  0
   -1.4189    0.8769    0.8496 H   0  0  0  0  0  0  0  0  0  0  0  0
   -1.3567    0.7736   -0.8793 H   0  0  0  0  0  0  0  0  0  0  0  0
   -0.0855   -1.3837    1.0014 H   0  0  0  0  0  0  0  0  0  0  0  0
    0.7797   -0.1129   -0.0826 H   0  0  0  0  0  0  0  0  0  0  0  0
   -0.2195   -1.2527   -0.7687 H   0  0  0  0  0  0  0  0  0  0  0  0
  1  3  1  0  0  0  0
  1  5  1  0  0  0  0
  2  1  1  0  0  0  0
  2  8  1  0  0  0  0
  4  1  1  0  0  0  0
  6  2  1  0  0  0  0
  6  9  1  0  0  0  0
  6 10  1  0  0  0  0
  7  2  1  0  0  0  0
  9 12  1  0  0  0  0
 11  6  1  0  0  0  0
 13  9  1  0  0  0  0
 14  9  1  0  0  0  0
M  END
$$$$
