butane_opt
 OpenBabel08242015403D

 14 13  0  0  0  0  0  0  0  0999 V2000
   -3.9250    0.2560    0.0331 C   0  0  0  0  0  0  0  0  0  0  0  0
   -2.7104   -0.5998    0.0193 C   0  0  0  0  0  0  0  0  0  0  0  0
   -4.8728   -0.3679    0.0908 H   0  0  0  0  0  0  0  0  0  0  0  0
   -3.9623    0.8674   -0.8944 H   0  0  0  0  0  0  0  0  0  0  0  0
   -3.8864    0.9136    0.8992 H   0  0  0  0  0  0  0  0  0  0  0  0
   -1.4156    0.1908   -0.0123 C   0  0  0  0  0  0  0  0  0  0  0  0
   -2.7401   -1.2490   -0.8285 H   0  0  0  0  0  0  0  0  0  0  0  0
   -2.6842   -1.2571    0.9438 H   0  0  0  0  0  0  0  0  0  0  0  0
   -0.1578   -0.7020    0.0552 C   0  0  0  0  0  0  0  0  0  0  0  0
   -1.4273    0.8818    0.8617 H   0  0  0  0  0  0  0  0  0  0  0  0
   -1.4037    0.8457   -0.9134 H   0  0  0  0  0  0  0  0  0  0  0  0
   -0.1725   -1.2862    0.9192 H   0  0  0  0  0  0  0  0  0  0  0  0
    0.7631   -0.1106    0.0669 H   0  0  0  0  0  0  0  0  0  0  0  0
   -0.1274   -1.4555   -0.8588 H   0  0  0  0  0  0  0  0  0  0  0  0
  1  3  1  0  0  0  0
  1  5  1  0  0  0  0
  2  1  1  0  0  0  0
  2  8  1  0  0  0  0
  4  1  1  0  0  0  0
  6  2  1  0  0  0  0
  6  9  1  0  0  0  0
  6 10  1  0  0  0  0
  7  2  1  0  0  0  0
  9 13  1  0  0  0  0
  9 12  1  0  0  0  0
 11  6  1  0  0  0  0
 14  9  1  0  0  0  0
M  END
$$$$
