butane_opt
 OpenBabel08242015403D

 14 13  0  0  0  0  0  0  0  0999 V2000
   -3.9337    0.2633    0.0327 C   0  0  0  0  0  0  0  0  0  0  0  0
   -2.6966   -0.6025    0.0085 C   0  0  0  0  0  0  0  0  0  0  0  0
   -4.9117   -0.3606    0.0057 H   0  0  0  0  0  0  0  0  0  0  0  0
   -3.9891    0.8090   -0.8402 H   0  0  0  0  0  0  0  0  0  0  0  0
   -3.9072    0.9582    0.9045 H   0  0  0  0  0  0  0  0  0  0  0  0
   -1.4166    0.1813    0.0153 C   0  0  0  0  0  0  0  0  0  0  0  0
   -2.7090   -1.2925   -0.8715 H   0  0  0  0  0  0  0  0  0  0  0  0
   -2.7284   -1.2346    0.9076 H   0  0  0  0  0  0  0  0  0  0  0  0
   -0.1603   -0.6929    0.0444 C   0  0  0  0  0  0  0  0  0  0  0  0
   -1.3648    0.8546    0.8797 H   0  0  0  0  0  0  0  0  0  0  0  0
   -1.4090    0.8304   -0.8918 H   0  0  0  0  0  0  0  0  0  0  0  0
   -0.0886   -1.4699    1.0437 H   0  0  0  0  0  0  0  0  0  0  0  0
    0.7542   -0.0970   -0.1371 H   0  0  0  0  0  0  0  0  0  0  0  0
   -0.1817   -1.2629   -0.7533 H   0  0  0  0  0  0  0  0  0  0  0  0
  1  5  1  0  0  0  0
  2  6  1  0  0  0  0
  2  1  1  0  0  0  0
  2  8  1  0  0  0  0
  3  1  1  0  0  0  0
  4  1  1  0  0  0  0
  6  9  1  0  0  0  0
  6 10  1  0  0  0  0
  7  2  1  0  0  0  0
  9 12  1  0  0  0  0
 11  6  1  0  0  0  0
 13  9  1  0  0  0  0
 14  9  1  0  0  0  0
M  END
$$$$
