14
butane_opt
C  -3.959810   0.274029   0.027569
C  -2.693816  -0.637440   0.043715
H  -4.818482  -0.279842  -0.024528
H  -3.989647   0.791434  -0.824909
H  -4.043974   1.027269   0.940121
C  -1.400898   0.187828  -0.013451
H  -2.723938  -1.334503  -0.838302
H  -2.703308  -1.253566   0.927029
C  -0.159212  -0.689219   0.042799
H  -1.386266   0.839178   0.818840
H  -1.339469   0.855577  -0.936931
H  -0.160565  -1.317241   0.933634
H   0.799978  -0.042537   0.059476
H  -0.100412  -1.371601  -0.812406
