butane_opt
 OpenBabel08242015403D

 14 13  0  0  0  0  0  0  0  0999 V2000
   -3.9368    0.2608    0.0103 C   0  0  0  0  0  0  0  0  0  0  0  0
   -2.7225   -0.6060    0.0402 C   0  0  0  0  0  0  0  0  0  0  0  0
   -4.8876   -0.3677    0.1725 H   0  0  0  0  0  0  0  0  0  0  0  0
   -3.9669    0.9822   -0.9730 H   0  0  0  0  0  0  0  0  0  0  0  0
   -3.9509    0.8004    0.7696 H   0  0  0  0  0  0  0  0  0  0  0  0
   -1.4063    0.1942    0.0358 C   0  0  0  0  0  0  0  0  0  0  0  0
   -2.7365   -1.2997   -0.8321 H   0  0  0  0  0  0  0  0  0  0  0  0
   -2.6973   -1.2149    0.9293 H   0  0  0  0  0  0  0  0  0  0  0  0
   -0.1435   -0.7100    0.0184 C   0  0  0  0  0  0  0  0  0  0  0  0
   -1.4109    0.9199    0.9102 H   0  0  0  0  0  0  0  0  0  0  0  0
   -1.3755    0.8200   -0.8744 H   0  0  0  0  0  0  0  0  0  0  0  0
   -0.1039   -1.2940    0.8897 H   0  0  0  0  0  0  0  0  0  0  0  0
    0.7618   -0.0848    0.0378 H   0  0  0  0  0  0  0  0  0  0  0  0
   -0.1409   -1.4078   -0.8590 H   0  0  0  0  0  0  0  0  0  0  0  0
  1  2  1  0  0  0  0
  1  3  1  0  0  0  0
  1  5  1  0  0  0  0
  2  8  1  0  0  0  0
  4  1  1  0  0  0  0
  6  2  1  0  0  0  0
  6 10  1  0  0  0  0
  7  2  1  0  0  0  0
  9  6  1  0  0  0  0
  9 13  1  0  0  0  0
  9 12  1  0  0  0  0
 11  6  1  0  0  0  0
 14  9  1  0  0  0  0
M  END
$$$$
