14
butane_opt
C  -3.943955   0.257843   0.041361
C  -2.708295  -0.613864  -0.000308
H  -4.868221  -0.362022   0.143767
H  -4.044161   0.865020  -0.837341
H  -3.888599   0.925756   0.895701
C  -1.405041   0.209022  -0.015117
H  -2.743293  -1.288344  -0.855464
H  -2.700714  -1.208797   0.898895
C  -0.152623  -0.708698   0.058383
H  -1.419814   0.874108   0.825480
H  -1.310771   0.818718  -0.900249
H  -0.128160  -1.339293   0.961565
H   0.733118  -0.162582   0.040613
H  -0.119323  -1.332469  -0.745232
