14
butane_opt
C  -3.932865   0.253435  -0.005749
C  -2.696914  -0.609890   0.058786
H  -4.818739  -0.335889   0.126467
H  -4.009402   1.049089  -1.024490
H  -3.942831   0.794771   0.779309
C  -1.411060   0.190155   0.052246
H  -2.692747  -1.312203  -0.796423
H  -2.718905  -1.209780   0.952072
C  -0.166888  -0.697895  -0.000771
H  -1.393853   0.883190   0.920873
H  -1.445422   0.788176  -0.809371
H  -0.133270  -1.269222   0.853562
H   0.749797  -0.079759   0.028556
H  -0.122540  -1.401300  -0.867776
