butane_opt
 OpenBabel08242015403D

 14 13  0  0  0  0  0  0  0  0999 V2000
   -3.9509    0.2460    0.0568 C   0  0  0  0  0  0  0  0  0  0  0  0
   -2.7081   -0.6027    0.0045 C   0  0  0  0  0  0  0  0  0  0  0  0
   -4.8545   -0.3446    0.0855 H   0  0  0  0  0  0  0  0  0  0  0  0
   -4.0261    0.8699   -0.8258 H   0  0  0  0  0  0  0  0  0  0  0  0
   -3.9365    0.9572    0.9472 H   0  0  0  0  0  0  0  0  0  0  0  0
   -1.4021    0.2066   -0.0316 C   0  0  0  0  0  0  0  0  0  0  0  0
   -2.7090   -1.3257   -0.8802 H   0  0  0  0  0  0  0  0  0  0  0  0
   -2.7071   -1.2330    0.8952 H   0  0  0  0  0  0  0  0  0  0  0  0
   -0.1486   -0.7025    0.0710 C   0  0  0  0  0  0  0  0  0  0  0  0
   -1.4098    0.8138    0.7615 H   0  0  0  0  0  0  0  0  0  0  0  0
   -1.3555    0.8947   -1.0043 H   0  0  0  0  0  0  0  0  0  0  0  0
   -0.2029   -1.2843    0.9575 H   0  0  0  0  0  0  0  0  0  0  0  0
    0.7112   -0.1515    0.1448 H   0  0  0  0  0  0  0  0  0  0  0  0
   -0.0066   -1.4460   -0.8521 H   0  0  0  0  0  0  0  0  0  0  0  0
  1  3  1  0  0  0  0
  1  5  1  0  0  0  0
  2  1  1  0  0  0  0
  2  8  1  0  0  0  0
  4  1  1  0  0  0  0
  6  2  1  0  0  0  0
  6  9  1  0  0  0  0
  6 10  1  0  0  0  0
  7  2  1  0  0  0  0
  9 13  1  0  0  0  0
  9 12  1  0  0  0  0
 11  6  1  0  0  0  0
 14  9  1  0  0  0  0
M  END
$$$$
