14
butane_opt
C  -3.933018   0.254295   0.034059
C  -2.697758  -0.599256   0.028384
H  -4.866151  -0.346472   0.076930
H  -3.960282   0.868127  -0.868964
H  -3.899597   0.860280   0.870226
C  -1.412724   0.202608  -0.004982
H  -2.700554  -1.293358  -0.810507
H  -2.717453  -1.218704   0.902348
C  -0.164741  -0.709197   0.042390
H  -1.385138   0.817468   0.794940
H  -1.377214   0.875757  -0.937442
H  -0.203631  -1.231537   0.910125
H   0.704762  -0.133476   0.155357
H  -0.109166  -1.461963  -0.859981
