butane_opt
 OpenBabel08242015403D

 14 13  0  0  0  0  0  0  0  0999 V2000
   -3.9521    0.2732    0.0459 C   0  0  0  0  0  0  0  0  0  0  0  0
   -2.6963   -0.6425    0.0046 C   0  0  0  0  0  0  0  0  0  0  0  0
   -4.8466   -0.2970    0.1671 H   0  0  0  0  0  0  0  0  0  0  0  0
   -4.0515    0.9556   -0.8924 H   0  0  0  0  0  0  0  0  0  0  0  0
   -3.9314    0.9077    0.8682 H   0  0  0  0  0  0  0  0  0  0  0  0
   -1.4046    0.1903   -0.0178 C   0  0  0  0  0  0  0  0  0  0  0  0
   -2.7751   -1.3209   -0.8836 H   0  0  0  0  0  0  0  0  0  0  0  0
   -2.6948   -1.2297    0.8774 H   0  0  0  0  0  0  0  0  0  0  0  0
   -0.1470   -0.6861    0.0547 C   0  0  0  0  0  0  0  0  0  0  0  0
   -1.4400    0.8936    0.8396 H   0  0  0  0  0  0  0  0  0  0  0  0
   -1.3469    0.7448   -0.8705 H   0  0  0  0  0  0  0  0  0  0  0  0
   -0.1595   -1.3236    0.9955 H   0  0  0  0  0  0  0  0  0  0  0  0
    0.7462   -0.1041    0.0679 H   0  0  0  0  0  0  0  0  0  0  0  0
   -0.1247   -1.3126   -0.7814 H   0  0  0  0  0  0  0  0  0  0  0  0
  1  3  1  0  0  0  0
  1  5  1  0  0  0  0
  2  1  1  0  0  0  0
  2  8  1  0  0  0  0
  4  1  1  0  0  0  0
  6  2  1  0  0  0  0
  6  9  1  0  0  0  0
  6 10  1  0  0  0  0
  7  2  1  0  0  0  0
  9 13  1  0  0  0  0
  9 12  1  0  0  0  0
 11  6  1  0  0  0  0
 14  9  1  0  0  0  0
M  END
$$$$
