14
butane_opt
C  -3.956898   0.277650  -0.004554
C  -2.700105  -0.630072   0.074289
H  -4.892823  -0.313400   0.001641
H  -3.994286   0.911438  -0.921300
H  -4.034127   0.926812   0.834441
C  -1.385592   0.169678   0.027119
H  -2.692684  -1.262028  -0.736209
H  -2.736370  -1.290985   0.974785
C  -0.160201  -0.681339   0.004239
H  -1.348521   0.896544   0.907968
H  -1.387720   0.803029  -0.875223
H  -0.193965  -1.240827   0.856757
H   0.758056  -0.090022   0.088939
H  -0.070114  -1.448779  -0.917479
