14
butane_opt
C  -3.943935   0.265100   0.028924
C  -2.706193  -0.613351   0.017964
H  -4.869769  -0.361303  -0.001203
H  -3.970829   0.848242  -0.854880
H  -3.975296   0.956826   0.915103
C  -1.407564   0.184536   0.016294
H  -2.737235  -1.330468  -0.848227
H  -2.705185  -1.219383   0.891078
C  -0.141596  -0.697175   0.039543
H  -1.467030   0.850754   0.856841
H  -1.383245   0.863961  -0.885508
H  -0.051415  -1.399000   0.977505
H   0.756377  -0.103036  -0.105938
H  -0.223871  -1.245642  -0.727892
