butane_opt
 OpenBabel08242015403D

 14 13  0  0  0  0  0  0  0  0999 V2000
   -3.9532    0.2559    0.0333 C   0  0  0  0  0  0  0  0  0  0  0  0
   -2.7140   -0.6055    0.0273 C   0  0  0  0  0  0  0  0  0  0  0  0
   -4.8793   -0.3480   -0.0448 H   0  0  0  0  0  0  0  0  0  0  0  0
   -3.8926    0.7278   -0.7713 H   0  0  0  0  0  0  0  0  0  0  0  0
   -3.9540    1.0808    0.9990 H   0  0  0  0  0  0  0  0  0  0  0  0
   -1.4065    0.1982   -0.0237 C   0  0  0  0  0  0  0  0  0  0  0  0
   -2.6804   -1.2909   -0.8397 H   0  0  0  0  0  0  0  0  0  0  0  0
   -2.7282   -1.2626    0.9307 H   0  0  0  0  0  0  0  0  0  0  0  0
   -0.1495   -0.7023    0.0527 C   0  0  0  0  0  0  0  0  0  0  0  0
   -1.3803    0.8658    0.8043 H   0  0  0  0  0  0  0  0  0  0  0  0
   -1.3820    0.8529   -0.9148 H   0  0  0  0  0  0  0  0  0  0  0  0
   -0.1164   -1.3932    1.0212 H   0  0  0  0  0  0  0  0  0  0  0  0
    0.7634   -0.1208   -0.0116 H   0  0  0  0  0  0  0  0  0  0  0  0
   -0.0967   -1.3444   -0.7820 H   0  0  0  0  0  0  0  0  0  0  0  0
  1  5  1  0  0  0  0
  2  1  1  0  0  0  0
  2  8  1  0  0  0  0
  3  1  1  0  0  0  0
  4  1  1  0  0  0  0
  6  2  1  0  0  0  0
  6  9  1  0  0  0  0
  6 10  1  0  0  0  0
  7  2  1  0  0  0  0
  9 12  1  0  0  0  0
 11  6  1  0  0  0  0
 13  9  1  0  0  0  0
 14  9  1  0  0  0  0
M  END
$$$$
