14
butane_opt
C  -3.960837   0.280429  -0.002733
C  -2.698332  -0.635239   0.080073
H  -4.864748  -0.336719  -0.068958
H  -3.894642   0.845459  -0.872548
H  -4.020449   1.017528   0.888776
C  -1.394417   0.177008   0.018691
H  -2.703945  -1.317682  -0.770740
H  -2.758018  -1.225686   0.942818
C  -0.160480  -0.686581   0.007741
H  -1.339248   0.866936   0.880969
H  -1.385127   0.808458  -0.898337
H  -0.122319  -1.306557   0.922839
H   0.768265  -0.074879   0.027604
H  -0.146631  -1.373520  -0.845898
