butane_opt
 OpenBabel08242015403D

 14 13  0  0  0  0  0  0  0  0999 V2000
   -3.9341    0.2498    0.0113 C   0  0  0  0  0  0  0  0  0  0  0  0
   -2.7058   -0.5996    0.0262 C   0  0  0  0  0  0  0  0  0  0  0  0
   -4.8574   -0.3288    0.0608 H   0  0  0  0  0  0  0  0  0  0  0  0
   -3.9056    0.8844   -0.8970 H   0  0  0  0  0  0  0  0  0  0  0  0
   -3.9345    0.9304    0.9028 H   0  0  0  0  0  0  0  0  0  0  0  0
   -1.4071    0.1972    0.0316 C   0  0  0  0  0  0  0  0  0  0  0  0
   -2.6851   -1.2819   -0.8091 H   0  0  0  0  0  0  0  0  0  0  0  0
   -2.7358   -1.2670    0.9375 H   0  0  0  0  0  0  0  0  0  0  0  0
   -0.1642   -0.7101    0.0265 C   0  0  0  0  0  0  0  0  0  0  0  0
   -1.4153    0.9234    0.8960 H   0  0  0  0  0  0  0  0  0  0  0  0
   -1.4081    0.8156   -0.8611 H   0  0  0  0  0  0  0  0  0  0  0  0
   -0.0940   -1.3846    0.9650 H   0  0  0  0  0  0  0  0  0  0  0  0
    0.7641   -0.1092   -0.1127 H   0  0  0  0  0  0  0  0  0  0  0  0
   -0.2146   -1.2977   -0.7798 H   0  0  0  0  0  0  0  0  0  0  0  0
  1  2  1  0  0  0  0
  1  3  1  0  0  0  0
  1  5  1  0  0  0  0
  2  6  1  0  0  0  0
  2  8  1  0  0  0  0
  4  1  1  0  0  0  0
  6 10  1  0  0  0  0
  7  2  1  0  0  0  0
  9  6  1  0  0  0  0
  9 12  1  0  0  0  0
 11  6  1  0  0  0  0
 13  9  1  0  0  0  0
 14  9  1  0  0  0  0
M  END
$$$$
