butane_opt
 OpenBabel08242015403D

 14 13  0  0  0  0  0  0  0  0999 V2000
   -3.9429    0.2518   -0.0044 C   0  0  0  0  0  0  0  0  0  0  0  0
   -2.7071   -0.6087    0.0588 C   0  0  0  0  0  0  0  0  0  0  0  0
   -4.8487   -0.3336   -0.0195 H   0  0  0  0  0  0  0  0  0  0  0  0
   -3.9306    0.9247   -0.9378 H   0  0  0  0  0  0  0  0  0  0  0  0
   -4.0299    0.8828    0.8327 H   0  0  0  0  0  0  0  0  0  0  0  0
   -1.4181    0.1987    0.0552 C   0  0  0  0  0  0  0  0  0  0  0  0
   -2.7006   -1.2964   -0.7996 H   0  0  0  0  0  0  0  0  0  0  0  0
   -2.7694   -1.2208    0.9515 H   0  0  0  0  0  0  0  0  0  0  0  0
   -0.1400   -0.6971    0.0018 C   0  0  0  0  0  0  0  0  0  0  0  0
   -1.3479    0.8987    0.9303 H   0  0  0  0  0  0  0  0  0  0  0  0
   -1.4162    0.8000   -0.8473 H   0  0  0  0  0  0  0  0  0  0  0  0
   -0.0100   -1.3826    0.9421 H   0  0  0  0  0  0  0  0  0  0  0  0
    0.7517   -0.1590   -0.1124 H   0  0  0  0  0  0  0  0  0  0  0  0
   -0.2193   -1.3205   -0.8284 H   0  0  0  0  0  0  0  0  0  0  0  0
  1  2  1  0  0  0  0
  1  5  1  0  0  0  0
  2  8  1  0  0  0  0
  3  1  1  0  0  0  0
  4  1  1  0  0  0  0
  6  2  1  0  0  0  0
  6 10  1  0  0  0  0
  7  2  1  0  0  0  0
  9  6  1  0  0  0  0
  9 12  1  0  0  0  0
 11  6  1  0  0  0  0
 13  9  1  0  0  0  0
 14  9  1  0  0  0  0
M  END
$$$$
