14
butane_opt
C  -3.930305   0.264744   0.035133
C  -2.703988  -0.609986   0.039405
H  -4.867330  -0.375012  -0.093675
H  -3.884367   0.769232  -0.823784
H  -4.017488   1.010863   0.927817
C  -1.412845   0.192745  -0.007034
H  -2.703283  -1.305554  -0.826627
H  -2.729629  -1.199640   0.922316
C  -0.160942  -0.700760   0.037780
H  -1.373218   0.829381   0.812719
H  -1.407066   0.844286  -0.915950
H  -0.144251  -1.391186   0.966283
H   0.751137  -0.082713   0.016552
H  -0.146706  -1.338042  -0.787062
