butane_opt
 OpenBabel08242015403D

 14 13  0  0  0  0  0  0  0  0999 V2000
   -3.9548    0.2753    0.0493 C   0  0  0  0  0  0  0  0  0  0  0  0
   -2.6883   -0.6304   -0.0089 C   0  0  0  0  0  0  0  0  0  0  0  0
   -4.8677   -0.3152    0.1821 H   0  0  0  0  0  0  0  0  0  0  0  0
   -4.0519    0.9323   -0.8523 H   0  0  0  0  0  0  0  0  0  0  0  0
   -3.8942    0.9012    0.8781 H   0  0  0  0  0  0  0  0  0  0  0  0
   -1.4048    0.1724   -0.0124 C   0  0  0  0  0  0  0  0  0  0  0  0
   -2.7216   -1.3454   -0.9103 H   0  0  0  0  0  0  0  0  0  0  0  0
   -2.6114   -1.1957    0.8413 H   0  0  0  0  0  0  0  0  0  0  0  0
   -0.1610   -0.6842    0.0721 C   0  0  0  0  0  0  0  0  0  0  0  0
   -1.4125    0.8210    0.8093 H   0  0  0  0  0  0  0  0  0  0  0  0
   -1.3159    0.8238   -0.9356 H   0  0  0  0  0  0  0  0  0  0  0  0
   -0.1815   -1.2908    0.9798 H   0  0  0  0  0  0  0  0  0  0  0  0
    0.7455   -0.0781   -0.0102 H   0  0  0  0  0  0  0  0  0  0  0  0
   -0.1996   -1.3248   -0.7521 H   0  0  0  0  0  0  0  0  0  0  0  0
  1  3  1  0  0  0  0
  1  5  1  0  0  0  0
  2  1  1  0  0  0  0
  2  8  1  0  0  0  0
  4  1  1  0  0  0  0
  6  2  1  0  0  0  0
  6  9  1  0  0  0  0
  6 10  1  0  0  0  0
  7  2  1  0  0  0  0
  9 12  1  0  0  0  0
 11  6  1  0  0  0  0
 13  9  1  0  0  0  0
 14  9  1  0  0  0  0
M  END
$$$$
