14
butane_opt
C  -3.932426   0.257790   0.035937
C  -2.694162  -0.597572   0.009090
H  -4.872152  -0.353023  -0.006194
H  -3.959580   0.821391  -0.814869
H  -3.921454   0.941885   0.918659
C  -1.405975   0.192901   0.010335
H  -2.763477  -1.346889  -0.885792
H  -2.707898  -1.218507   0.885246
C  -0.169749  -0.699900   0.049842
H  -1.418308   0.822337   0.846482
H  -1.358821   0.874707  -0.905798
H  -0.094092  -1.433495   1.024798
H   0.712038  -0.164034  -0.128713
H  -0.204509  -1.256512  -0.748963
