butane_opt
 OpenBabel08242015403D

 14 13  0  0  0  0  0  0  0  0999 V2000
   -3.9354    0.2733    0.0033 C   0  0  0  0  0  0  0  0  0  0  0  0
   -2.7057   -0.6364    0.0714 C   0  0  0  0  0  0  0  0  0  0  0  0
   -4.8292   -0.2830    0.0389 H   0  0  0  0  0  0  0  0  0  0  0  0
   -3.9167    0.9692   -0.9301 H   0  0  0  0  0  0  0  0  0  0  0  0
   -4.0237    0.8972    0.8344 H   0  0  0  0  0  0  0  0  0  0  0  0
   -1.4053    0.1795    0.0189 C   0  0  0  0  0  0  0  0  0  0  0  0
   -2.7085   -1.2937   -0.7565 H   0  0  0  0  0  0  0  0  0  0  0  0
   -2.7051   -1.2542    0.9569 H   0  0  0  0  0  0  0  0  0  0  0  0
   -0.1699   -0.6901    0.0119 C   0  0  0  0  0  0  0  0  0  0  0  0
   -1.3892    0.8675    0.8491 H   0  0  0  0  0  0  0  0  0  0  0  0
   -1.3697    0.8240   -0.8881 H   0  0  0  0  0  0  0  0  0  0  0  0
   -0.2006   -1.1746    0.8359 H   0  0  0  0  0  0  0  0  0  0  0  0
    0.7891   -0.0484    0.1493 H   0  0  0  0  0  0  0  0  0  0  0  0
   -0.0858   -1.4898   -0.9365 H   0  0  0  0  0  0  0  0  0  0  0  0
  1  3  1  0  0  0  0
  1  2  1  0  0  0  0
  1  5  1  0  0  0  0
  2  8  1  0  0  0  0
  4  1  1  0  0  0  0
  6  2  1  0  0  0  0
  6 10  1  0  0  0  0
  7  2  1  0  0  0  0
  9  6  1  0  0  0  0
  9 13  1  0  0  0  0
  9 12  1  0  0  0  0
 11  6  1  0  0  0  0
 14  9  1  0  0  0  0
M  END
$$$$
