butane_opt
 OpenBabel08242015403D

 14 13  0  0  0  0  0  0  0  0999 V2000
   -3.9395    0.2595   -0.0040 C   0  0  0  0  0  0  0  0  0  0  0  0
   -2.7160   -0.6170    0.0614 C   0  0  0  0  0  0  0  0  0  0  0  0
   -4.8377   -0.3562    0.1131 H   0  0  0  0  0  0  0  0  0  0  0  0
   -4.0299    0.9344   -0.9246 H   0  0  0  0  0  0  0  0  0  0  0  0
   -3.9596    0.9203    0.8342 H   0  0  0  0  0  0  0  0  0  0  0  0
   -1.4053    0.1963    0.0167 C   0  0  0  0  0  0  0  0  0  0  0  0
   -2.7401   -1.2487   -0.7601 H   0  0  0  0  0  0  0  0  0  0  0  0
   -2.7369   -1.2851    0.9829 H   0  0  0  0  0  0  0  0  0  0  0  0
   -0.1467   -0.7006    0.0131 C   0  0  0  0  0  0  0  0  0  0  0  0
   -1.3551    0.9154    0.9032 H   0  0  0  0  0  0  0  0  0  0  0  0
   -1.4111    0.8136   -0.8917 H   0  0  0  0  0  0  0  0  0  0  0  0
   -0.1569   -1.2266    0.8633 H   0  0  0  0  0  0  0  0  0  0  0  0
    0.7658   -0.1123    0.1741 H   0  0  0  0  0  0  0  0  0  0  0  0
   -0.0687   -1.4888   -0.9116 H   0  0  0  0  0  0  0  0  0  0  0  0
  1  2  1  0  0  0  0
  1  3  1  0  0  0  0
  1  5  1  0  0  0  0
  2  8  1  0  0  0  0
  4  1  1  0  0  0  0
  6  2  1  0  0  0  0
  6 10  1  0  0  0  0
  7  2  1  0  0  0  0
  9  6  1  0  0  0  0
  9 13  1  0  0  0  0
  9 12  1  0  0  0  0
 11  6  1  0  0  0  0
 14  9  1  0  0  0  0
M  END
$$$$
