14
butane_opt
C  -3.936072   0.275205  -0.018290
C  -2.704260  -0.611034   0.077787
H  -4.868062  -0.333614   0.036101
H  -3.952621   0.929878  -0.939546
H  -3.985286   0.871189   0.789208
C  -1.404972   0.164673   0.054690
H  -2.656437  -1.338698  -0.798258
H  -2.733614  -1.237815   0.938878
C  -0.167124  -0.687718  -0.007476
H  -1.336245   0.896194   0.948705
H  -1.386774   0.778747  -0.817950
H  -0.081718  -1.343274   0.915695
H   0.749509  -0.056380  -0.059956
H  -0.227187  -1.328919  -0.850497
