14
butane_opt
C  -3.935299   0.255074   0.013465
C  -2.703700  -0.596657   0.044931
H  -4.880268  -0.371721   0.099826
H  -3.911375   0.939970  -0.916977
H  -3.915986   0.846673   0.807031
C  -1.411019   0.198265   0.018791
H  -2.688739  -1.254253  -0.796567
H  -2.730121  -1.252591   0.972304
C  -0.166472  -0.711559   0.028375
H  -1.401360   0.835871   0.831466
H  -1.376840   0.810289  -0.871859
H  -0.123824  -1.206658   0.819703
H   0.751862  -0.101989   0.123299
H  -0.143432  -1.463021  -0.906744
