butane_opt
 OpenBabel08242015403D

 14 13  0  0  0  0  0  0  0  0999 V2000
   -3.9605    0.2768    0.0411 C   0  0  0  0  0  0  0  0  0  0  0  0
   -2.6922   -0.6260   -0.0042 C   0  0  0  0  0  0  0  0  0  0  0  0
   -4.8557   -0.3068    0.2020 H   0  0  0  0  0  0  0  0  0  0  0  0
   -4.0606    0.9548   -0.8718 H   0  0  0  0  0  0  0  0  0  0  0  0
   -3.8669    0.8736    0.8490 H   0  0  0  0  0  0  0  0  0  0  0  0
   -1.4064    0.1695   -0.0031 C   0  0  0  0  0  0  0  0  0  0  0  0
   -2.7341   -1.3386   -0.8857 H   0  0  0  0  0  0  0  0  0  0  0  0
   -2.6536   -1.2504    0.8797 H   0  0  0  0  0  0  0  0  0  0  0  0
   -0.1619   -0.6822    0.0461 C   0  0  0  0  0  0  0  0  0  0  0  0
   -1.3566    0.8727    0.8783 H   0  0  0  0  0  0  0  0  0  0  0  0
   -1.3667    0.7829   -0.9091 H   0  0  0  0  0  0  0  0  0  0  0  0
   -0.1795   -1.3397    0.9967 H   0  0  0  0  0  0  0  0  0  0  0  0
    0.7902   -0.0654    0.0840 H   0  0  0  0  0  0  0  0  0  0  0  0
   -0.1012   -1.2978   -0.7416 H   0  0  0  0  0  0  0  0  0  0  0  0
  1  3  1  0  0  0  0
  1  5  1  0  0  0  0
  2  6  1  0  0  0  0
  2  1  1  0  0  0  0
  2  8  1  0  0  0  0
  4  1  1  0  0  0  0
  6  9  1  0  0  0  0
  6 10  1  0  0  0  0
  7  2  1  0  0  0  0
  9 13  1  0  0  0  0
  9 12  1  0  0  0  0
 11  6  1  0  0  0  0
 14  9  1  0  0  0  0
M  END
$$$$
