butane_opt
 OpenBabel08242015403D

 14 13  0  0  0  0  0  0  0  0999 V2000
   -3.9368    0.2579   -0.0015 C   0  0  0  0  0  0  0  0  0  0  0  0
   -2.6930   -0.5961    0.0546 C   0  0  0  0  0  0  0  0  0  0  0  0
   -4.8706   -0.3866    0.0006 H   0  0  0  0  0  0  0  0  0  0  0  0
   -3.9611    0.8424   -0.8758 H   0  0  0  0  0  0  0  0  0  0  0  0
   -3.9782    0.9192    0.8474 H   0  0  0  0  0  0  0  0  0  0  0  0
   -1.4115    0.1865    0.0202 C   0  0  0  0  0  0  0  0  0  0  0  0
   -2.7174   -1.2283   -0.7644 H   0  0  0  0  0  0  0  0  0  0  0  0
   -2.7503   -1.2906    1.0017 H   0  0  0  0  0  0  0  0  0  0  0  0
   -0.1609   -0.6984    0.0189 C   0  0  0  0  0  0  0  0  0  0  0  0
   -1.3774    0.9014    0.9151 H   0  0  0  0  0  0  0  0  0  0  0  0
   -1.4205    0.8090   -0.8296 H   0  0  0  0  0  0  0  0  0  0  0  0
   -0.0786   -1.3147    0.9072 H   0  0  0  0  0  0  0  0  0  0  0  0
    0.7524   -0.1016    0.0057 H   0  0  0  0  0  0  0  0  0  0  0  0
   -0.1896   -1.4277   -0.8770 H   0  0  0  0  0  0  0  0  0  0  0  0
  1  3  1  0  0  0  0
  1  2  1  0  0  0  0
  1  5  1  0  0  0  0
  2  8  1  0  0  0  0
  4  1  1  0  0  0  0
  6  2  1  0  0  0  0
  6 10  1  0  0  0  0
  7  2  1  0  0  0  0
  9  6  1  0  0  0  0
  9 12  1  0  0  0  0
 11  6  1  0  0  0  0
 13  9  1  0  0  0  0
 14  9  1  0  0  0  0
M  END
$$$$
