butane_opt
 OpenBabel08242015403D

 14 13  0  0  0  0  0  0  0  0999 V2000
   -3.9512    0.2490    0.0519 C   0  0  0  0  0  0  0  0  0  0  0  0
   -2.7102   -0.5947   -0.0006 C   0  0  0  0  0  0  0  0  0  0  0  0
   -4.8413   -0.3178    0.1191 H   0  0  0  0  0  0  0  0  0  0  0  0
   -3.9990    0.9112   -0.8817 H   0  0  0  0  0  0  0  0  0  0  0  0
   -3.9212    0.8724    0.9107 H   0  0  0  0  0  0  0  0  0  0  0  0
   -1.4025    0.1893   -0.0146 C   0  0  0  0  0  0  0  0  0  0  0  0
   -2.7692   -1.3296   -0.8986 H   0  0  0  0  0  0  0  0  0  0  0  0
   -2.6765   -1.1944    0.8751 H   0  0  0  0  0  0  0  0  0  0  0  0
   -0.1446   -0.7061    0.0614 C   0  0  0  0  0  0  0  0  0  0  0  0
   -1.4638    0.8601    0.8467 H   0  0  0  0  0  0  0  0  0  0  0  0
   -1.3484    0.8560   -0.9420 H   0  0  0  0  0  0  0  0  0  0  0  0
   -0.1639   -1.3309    0.9748 H   0  0  0  0  0  0  0  0  0  0  0  0
    0.7560   -0.1085    0.0316 H   0  0  0  0  0  0  0  0  0  0  0  0
   -0.0904   -1.3368   -0.7840 H   0  0  0  0  0  0  0  0  0  0  0  0
  1  3  1  0  0  0  0
  1  5  1  0  0  0  0
  2  1  1  0  0  0  0
  2  8  1  0  0  0  0
  4  1  1  0  0  0  0
  6  2  1  0  0  0  0
  6  9  1  0  0  0  0
  6 10  1  0  0  0  0
  7  2  1  0  0  0  0
  9 12  1  0  0  0  0
 11  6  1  0  0  0  0
 13  9  1  0  0  0  0
 14  9  1  0  0  0  0
M  END
$$$$
