butane_opt
 OpenBabel08242015403D

 14 13  0  0  0  0  0  0  0  0999 V2000
   -3.9278    0.2687    0.0022 C   0  0  0  0  0  0  0  0  0  0  0  0
   -2.7032   -0.6140    0.0445 C   0  0  0  0  0  0  0  0  0  0  0  0
   -4.8689   -0.3919    0.0777 H   0  0  0  0  0  0  0  0  0  0  0  0
   -3.9194    0.9239   -0.9206 H   0  0  0  0  0  0  0  0  0  0  0  0
   -3.9636    0.8778    0.8258 H   0  0  0  0  0  0  0  0  0  0  0  0
   -1.4037    0.1953    0.0398 C   0  0  0  0  0  0  0  0  0  0  0  0
   -2.6917   -1.3244   -0.8104 H   0  0  0  0  0  0  0  0  0  0  0  0
   -2.7416   -1.2214    0.9426 H   0  0  0  0  0  0  0  0  0  0  0  0
   -0.1732   -0.6961    0.0212 C   0  0  0  0  0  0  0  0  0  0  0  0
   -1.4150    0.8630    0.8655 H   0  0  0  0  0  0  0  0  0  0  0  0
   -1.3937    0.7939   -0.8183 H   0  0  0  0  0  0  0  0  0  0  0  0
   -0.0343   -1.3497    0.9231 H   0  0  0  0  0  0  0  0  0  0  0  0
    0.7146   -0.1229   -0.0927 H   0  0  0  0  0  0  0  0  0  0  0  0
   -0.2128   -1.3658   -0.8439 H   0  0  0  0  0  0  0  0  0  0  0  0
  1  2  1  0  0  0  0
  1  3  1  0  0  0  0
  1  5  1  0  0  0  0
  2  8  1  0  0  0  0
  4  1  1  0  0  0  0
  6  2  1  0  0  0  0
  6 10  1  0  0  0  0
  7  2  1  0  0  0  0
  9  6  1  0  0  0  0
  9 12  1  0  0  0  0
 11  6  1  0  0  0  0
 13  9  1  0  0  0  0
 14  9  1  0  0  0  0
M  END
$$$$
