14
butane_opt
C  -3.945935   0.255423   0.003670
C  -2.707532  -0.603840   0.053171
H  -4.879552  -0.356124   0.005698
H  -3.968554   0.901818  -0.880054
H  -3.982812   0.894520   0.832882
C  -1.400438   0.196062   0.033115
H  -2.706544  -1.333424  -0.830381
H  -2.761745  -1.204083   0.949562
C  -0.143218  -0.705050   0.016908
H  -1.409102   0.901990   0.908667
H  -1.429765   0.816311  -0.859991
H  -0.097175  -1.364082   0.938693
H   0.758224  -0.122946  -0.091508
H  -0.172579  -1.321657  -0.816414
