14
butane_opt
C  -3.945880   0.277251   0.055581
C  -2.685327  -0.635633  -0.010554
H  -4.851643  -0.306760   0.162609
H  -4.040839   0.907147  -0.848177
H  -3.894003   0.905732   0.865772
C  -1.398899   0.177145  -0.013308
H  -2.734613  -1.341669  -0.880451
H  -2.663069  -1.187072   0.837802
C  -0.184197  -0.690334   0.070314
H  -1.434907   0.839458   0.801581
H  -1.290647   0.868109  -0.944662
H  -0.175629  -1.297588   0.969879
H   0.747983  -0.078619   0.006935
H  -0.119359  -1.322647  -0.765386
