14
butane_opt
C  -3.954898   0.268311   0.015012
C  -2.699797  -0.617901   0.046347
H  -4.849166  -0.316706   0.081186
H  -3.958454   0.881618  -0.856645
H  -3.999920   0.908329   0.854883
C  -1.400129   0.179817  -0.007591
H  -2.761650  -1.288783  -0.796958
H  -2.643309  -1.279565   0.969881
C  -0.148883  -0.688382   0.035695
H  -1.411191   0.884888   0.851485
H  -1.402776   0.821356  -0.887286
H  -0.223165  -1.226231   0.880582
H   0.787031  -0.095386   0.150012
H  -0.116118  -1.466292  -0.894729
