butane_opt
 OpenBabel08242015403D

 14 13  0  0  0  0  0  0  0  0999 V2000
   -3.9466    0.2609   -0.0020 C   0  0  0  0  0  0  0  0  0  0  0  0
   -2.6952   -0.6005    0.0483 C   0  0  0  0  0  0  0  0  0  0  0  0
   -4.8584   -0.3597    0.1663 H   0  0  0  0  0  0  0  0  0  0  0  0
   -3.9918    0.9848   -0.9409 H   0  0  0  0  0  0  0  0  0  0  0  0
   -3.8192    0.7753    0.7789 H   0  0  0  0  0  0  0  0  0  0  0  0
   -1.4181    0.1839    0.0282 C   0  0  0  0  0  0  0  0  0  0  0  0
   -2.6890   -1.2948   -0.8052 H   0  0  0  0  0  0  0  0  0  0  0  0
   -2.7255   -1.2467    0.9456 H   0  0  0  0  0  0  0  0  0  0  0  0
   -0.1621   -0.6973    0.0128 C   0  0  0  0  0  0  0  0  0  0  0  0
   -1.3844    0.9460    0.9583 H   0  0  0  0  0  0  0  0  0  0  0  0
   -1.3921    0.7646   -0.8174 H   0  0  0  0  0  0  0  0  0  0  0  0
   -0.1461   -1.2953    0.8984 H   0  0  0  0  0  0  0  0  0  0  0  0
    0.7634   -0.1123    0.0460 H   0  0  0  0  0  0  0  0  0  0  0  0
   -0.1228   -1.3919   -0.8592 H   0  0  0  0  0  0  0  0  0  0  0  0
  1  2  1  0  0  0  0
  1  3  1  0  0  0  0
  1  5  1  0  0  0  0
  2  8  1  0  0  0  0
  4  1  1  0  0  0  0
  6  2  1  0  0  0  0
  6 10  1  0  0  0  0
  7  2  1  0  0  0  0
  9  6  1  0  0  0  0
  9 13  1  0  0  0  0
  9 12  1  0  0  0  0
 11  6  1  0  0  0  0
 14  9  1  0  0  0  0
M  END
$$$$
