butane_opt
 OpenBabel08242015403D

 14 13  0  0  0  0  0  0  0  0999 V2000
   -3.9619    0.2713    0.0459 C   0  0  0  0  0  0  0  0  0  0  0  0
   -2.6942   -0.6249   -0.0035 C   0  0  0  0  0  0  0  0  0  0  0  0
   -4.8620   -0.3207    0.1309 H   0  0  0  0  0  0  0  0  0  0  0  0
   -4.0484    0.9197   -0.8810 H   0  0  0  0  0  0  0  0  0  0  0  0
   -3.9452    0.9046    0.9043 H   0  0  0  0  0  0  0  0  0  0  0  0
   -1.3888    0.1750   -0.0099 C   0  0  0  0  0  0  0  0  0  0  0  0
   -2.7341   -1.3331   -0.8448 H   0  0  0  0  0  0  0  0  0  0  0  0
   -2.6618   -1.1838    0.8282 H   0  0  0  0  0  0  0  0  0  0  0  0
   -0.1585   -0.6813    0.0676 C   0  0  0  0  0  0  0  0  0  0  0  0
   -1.3921    0.8457    0.8338 H   0  0  0  0  0  0  0  0  0  0  0  0
   -1.3686    0.8173   -0.9153 H   0  0  0  0  0  0  0  0  0  0  0  0
   -0.1302   -1.3467    1.0080 H   0  0  0  0  0  0  0  0  0  0  0  0
    0.7342   -0.1111   -0.0401 H   0  0  0  0  0  0  0  0  0  0  0  0
   -0.1735   -1.3423   -0.7880 H   0  0  0  0  0  0  0  0  0  0  0  0
  1  3  1  0  0  0  0
  1  5  1  0  0  0  0
  2  1  1  0  0  0  0
  2  8  1  0  0  0  0
  4  1  1  0  0  0  0
  6  2  1  0  0  0  0
  6  9  1  0  0  0  0
  6 10  1  0  0  0  0
  7  2  1  0  0  0  0
  9 12  1  0  0  0  0
 11  6  1  0  0  0  0
 13  9  1  0  0  0  0
 14  9  1  0  0  0  0
M  END
$$$$
