14
butane_opt
C  -3.953329   0.251177   0.019316
C  -2.710053  -0.602970   0.039718
H  -4.863243  -0.352309  -0.062498
H  -3.936806   0.799564  -0.820599
H  -3.984921   0.981401   0.915692
C  -1.411647   0.202227   0.001100
H  -2.724162  -1.221459  -0.768154
H  -2.701375  -1.306361   0.984026
C  -0.136007  -0.704948   0.036275
H  -1.380954   0.870148   0.816510
H  -1.389431   0.823759  -0.885356
H  -0.088005  -1.291599   0.901881
H   0.713752  -0.142496   0.059810
H  -0.125396  -1.390975  -0.853571
