14
butane_opt
C  -3.954573   0.273046  -0.008428
C  -2.700384  -0.635420   0.070963
H  -4.816426  -0.271843   0.063316
H  -3.995884   0.957056  -0.967319
H  -4.001032   0.933662   0.861775
C  -1.394730   0.184699   0.022396
H  -2.742475  -1.270659  -0.759068
H  -2.718486  -1.342495   0.999674
C  -0.160397  -0.689823   0.011155
H  -1.364612   0.871951   0.895685
H  -1.345176   0.793030  -0.859451
H  -0.152585  -1.163931   0.824162
H   0.785926  -0.069346   0.132469
H  -0.155886  -1.486680  -0.923502
