14
butane_opt
C  -3.924383   0.255734   0.036135
C  -2.697808  -0.607170   0.039845
H  -4.869444  -0.336345  -0.127722
H  -3.859708   0.747891  -0.796211
H  -3.959426   1.016496   0.955024
C  -1.419864   0.206578  -0.008367
H  -2.757368  -1.343219  -0.832562
H  -2.732536  -1.200050   0.912277
C  -0.162388  -0.705112   0.040035
H  -1.428345   0.804486   0.785133
H  -1.423582   0.857079  -0.932392
H  -0.157461  -1.383993   0.974235
H   0.721845  -0.136951   0.008102
H  -0.105492  -1.299704  -0.782014
