butane_opt
 OpenBabel08242015403D

 14 13  0  0  0  0  0  0  0  0999 V2000
   -3.9360    0.2690    0.0534 C   0  0  0  0  0  0  0  0  0  0  0  0
   -2.6929   -0.6160    0.0014 C   0  0  0  0  0  0  0  0  0  0  0  0
   -4.8343   -0.3110    0.0400 H   0  0  0  0  0  0  0  0  0  0  0  0
   -3.9933    0.8798   -0.8281 H   0  0  0  0  0  0  0  0  0  0  0  0
   -3.9269    0.9479    0.9233 H   0  0  0  0  0  0  0  0  0  0  0  0
   -1.4114    0.1749   -0.0182 C   0  0  0  0  0  0  0  0  0  0  0  0
   -2.7301   -1.3195   -0.8447 H   0  0  0  0  0  0  0  0  0  0  0  0
   -2.6674   -1.2594    0.8822 H   0  0  0  0  0  0  0  0  0  0  0  0
   -0.1731   -0.6802    0.0701 C   0  0  0  0  0  0  0  0  0  0  0  0
   -1.3744    0.7904    0.7774 H   0  0  0  0  0  0  0  0  0  0  0  0
   -1.3310    0.8548   -0.9734 H   0  0  0  0  0  0  0  0  0  0  0  0
   -0.1974   -1.3060    0.9438 H   0  0  0  0  0  0  0  0  0  0  0  0
    0.7394   -0.1008    0.0647 H   0  0  0  0  0  0  0  0  0  0  0  0
   -0.1501   -1.4148   -0.8297 H   0  0  0  0  0  0  0  0  0  0  0  0
  1  5  1  0  0  0  0
  2  1  1  0  0  0  0
  2  8  1  0  0  0  0
  3  1  1  0  0  0  0
  4  1  1  0  0  0  0
  6  2  1  0  0  0  0
  6  9  1  0  0  0  0
  6 10  1  0  0  0  0
  7  2  1  0  0  0  0
  9 12  1  0  0  0  0
 11  6  1  0  0  0  0
 13  9  1  0  0  0  0
 14  9  1  0  0  0  0
M  END
$$$$
