14
butane_opt
C  -3.915861   0.254315   0.044200
C  -2.708918  -0.609395   0.019734
H  -4.851655  -0.368689  -0.038410
H  -3.964176   0.795616  -0.785508
H  -3.929102   1.049648   0.996647
C  -1.411755   0.198216  -0.024014
H  -2.756003  -1.293967  -0.851801
H  -2.706570  -1.195061   0.875973
C  -0.165277  -0.704868   0.059648
H  -1.446564   0.775985   0.774872
H  -1.415939   0.888516  -0.968439
H  -0.164059  -1.342695   0.985163
H   0.726609  -0.123148   0.067333
H  -0.089743  -1.324826  -0.798396
