butane_opt
 OpenBabel08242015403D

 14 13  0  0  0  0  0  0  0  0999 V2000
   -3.9365    0.2546    0.0351 C   0  0  0  0  0  0  0  0  0  0  0  0
   -2.6983   -0.5998    0.0271 C   0  0  0  0  0  0  0  0  0  0  0  0
   -4.8656   -0.3518   -0.0608 H   0  0  0  0  0  0  0  0  0  0  0  0
   -3.9281    0.7795   -0.7616 H   0  0  0  0  0  0  0  0  0  0  0  0
   -3.9125    0.9827    0.9289 H   0  0  0  0  0  0  0  0  0  0  0  0
   -1.4123    0.1982   -0.0087 C   0  0  0  0  0  0  0  0  0  0  0  0
   -2.7156   -1.2825   -0.8409 H   0  0  0  0  0  0  0  0  0  0  0  0
   -2.7153   -1.2010    0.8953 H   0  0  0  0  0  0  0  0  0  0  0  0
   -0.1617   -0.7077    0.0529 C   0  0  0  0  0  0  0  0  0  0  0  0
   -1.3717    0.7812    0.7940 H   0  0  0  0  0  0  0  0  0  0  0  0
   -1.4075    0.8870   -0.9558 H   0  0  0  0  0  0  0  0  0  0  0  0
   -0.1749   -1.3391    0.9676 H   0  0  0  0  0  0  0  0  0  0  0  0
    0.7491   -0.1123    0.0117 H   0  0  0  0  0  0  0  0  0  0  0  0
   -0.1704   -1.3682   -0.8053 H   0  0  0  0  0  0  0  0  0  0  0  0
  1  5  1  0  0  0  0
  2  1  1  0  0  0  0
  2  8  1  0  0  0  0
  3  1  1  0  0  0  0
  4  1  1  0  0  0  0
  6  2  1  0  0  0  0
  6  9  1  0  0  0  0
  6 10  1  0  0  0  0
  7  2  1  0  0  0  0
  9 12  1  0  0  0  0
 11  6  1  0  0  0  0
 13  9  1  0  0  0  0
 14  9  1  0  0  0  0
M  END
$$$$
