butane_opt
 OpenBabel08242015403D

 14 13  0  0  0  0  0  0  0  0999 V2000
   -3.9644    0.2702   -0.0147 C   0  0  0  0  0  0  0  0  0  0  0  0
   -2.7039   -0.6253    0.0706 C   0  0  0  0  0  0  0  0  0  0  0  0
   -4.8668   -0.3222   -0.0176 H   0  0  0  0  0  0  0  0  0  0  0  0
   -3.9196    0.8662   -0.8858 H   0  0  0  0  0  0  0  0  0  0  0  0
   -4.0117    0.9571    0.8646 H   0  0  0  0  0  0  0  0  0  0  0  0
   -1.3874    0.1886    0.0394 C   0  0  0  0  0  0  0  0  0  0  0  0
   -2.6674   -1.2347   -0.7273 H   0  0  0  0  0  0  0  0  0  0  0  0
   -2.7549   -1.2954    0.9882 H   0  0  0  0  0  0  0  0  0  0  0  0
   -0.1524   -0.6916    0.0023 C   0  0  0  0  0  0  0  0  0  0  0  0
   -1.3361    0.8495    0.8966 H   0  0  0  0  0  0  0  0  0  0  0  0
   -1.4527    0.8012   -0.8466 H   0  0  0  0  0  0  0  0  0  0  0  0
   -0.1189   -1.2958    0.8854 H   0  0  0  0  0  0  0  0  0  0  0  0
    0.7505   -0.0742    0.0200 H   0  0  0  0  0  0  0  0  0  0  0  0
   -0.1548   -1.4263   -0.9012 H   0  0  0  0  0  0  0  0  0  0  0  0
  1  2  1  0  0  0  0
  1  5  1  0  0  0  0
  2  8  1  0  0  0  0
  3  1  1  0  0  0  0
  4  1  1  0  0  0  0
  6  2  1  0  0  0  0
  6 10  1  0  0  0  0
  7  2  1  0  0  0  0
  9 13  1  0  0  0  0
  9  6  1  0  0  0  0
  9 12  1  0  0  0  0
 11  6  1  0  0  0  0
 14  9  1  0  0  0  0
M  END
$$$$
