14
butane_opt
C  -3.940643   0.268575   0.048499
C  -2.694602  -0.604852  -0.008415
H  -4.890760  -0.339594   0.221399
H  -4.023846   0.928952  -0.877866
H  -3.883032   0.878397   0.900790
C  -1.394322   0.167412  -0.023302
H  -2.751499  -1.326393  -0.906807
H  -2.646931  -1.239348   0.862079
C  -0.178531  -0.694025   0.070566
H  -1.436163   0.897322   0.849525
H  -1.342008   0.791147  -0.901495
H  -0.173463  -1.319142   0.967581
H   0.736350  -0.076774   0.040668
H  -0.113634  -1.310224  -0.768711
