14
butane_opt
C  -3.963480   0.268429   0.045124
C  -2.697529  -0.621964   0.002015
H  -4.831960  -0.293148   0.030890
H  -3.997165   0.856013  -0.825019
H  -3.960288   0.976316   0.912422
C  -1.386723   0.177269  -0.002851
H  -2.756830  -1.324184  -0.895764
H  -2.642357  -1.230309   0.850569
C  -0.162001  -0.686683   0.051141
H  -1.397914   0.855690   0.860267
H  -1.380015   0.776615  -0.891126
H  -0.100376  -1.448025   1.053220
H   0.724210  -0.094662  -0.078429
H  -0.169843  -1.182476  -0.704044
