butane_opt
 OpenBabel08242015403D

 14 13  0  0  0  0  0  0  0  0999 V2000
   -3.9540    0.2728    0.0145 C   0  0  0  0  0  0  0  0  0  0  0  0
   -2.6902   -0.6332    0.0496 C   0  0  0  0  0  0  0  0  0  0  0  0
   -4.8256   -0.3025    0.0545 H   0  0  0  0  0  0  0  0  0  0  0  0
   -4.0040    0.9210   -0.8710 H   0  0  0  0  0  0  0  0  0  0  0  0
   -4.0278    0.8943    0.8308 H   0  0  0  0  0  0  0  0  0  0  0  0
   -1.4028    0.1853    0.0076 C   0  0  0  0  0  0  0  0  0  0  0  0
   -2.6839   -1.2803   -0.7609 H   0  0  0  0  0  0  0  0  0  0  0  0
   -2.7018   -1.2756    0.9638 H   0  0  0  0  0  0  0  0  0  0  0  0
   -0.1640   -0.6863    0.0282 C   0  0  0  0  0  0  0  0  0  0  0  0
   -1.3684    0.8214    0.8461 H   0  0  0  0  0  0  0  0  0  0  0  0
   -1.3279    0.8276   -0.9085 H   0  0  0  0  0  0  0  0  0  0  0  0
   -0.1996   -1.1757    0.8470 H   0  0  0  0  0  0  0  0  0  0  0  0
    0.7430   -0.0837    0.1438 H   0  0  0  0  0  0  0  0  0  0  0  0
   -0.0954   -1.4837   -0.9244 H   0  0  0  0  0  0  0  0  0  0  0  0
  1  2  1  0  0  0  0
  1  3  1  0  0  0  0
  1  5  1  0  0  0  0
  2  8  1  0  0  0  0
  4  1  1  0  0  0  0
  6  9  1  0  0  0  0
  6  2  1  0  0  0  0
  6 10  1  0  0  0  0
  7  2  1  0  0  0  0
  9 13  1  0  0  0  0
  9 12  1  0  0  0  0
 11  6  1  0  0  0  0
 14  9  1  0  0  0  0
M  END
$$$$
