butane_opt
 OpenBabel08242015403D

 14 13  0  0  0  0  0  0  0  0999 V2000
   -3.9572    0.2610   -0.0128 C   0  0  0  0  0  0  0  0  0  0  0  0
   -2.7062   -0.6115    0.0847 C   0  0  0  0  0  0  0  0  0  0  0  0
   -4.8892   -0.3510   -0.0047 H   0  0  0  0  0  0  0  0  0  0  0  0
   -3.9021    0.8734   -0.9359 H   0  0  0  0  0  0  0  0  0  0  0  0
   -3.9678    0.9196    0.8344 H   0  0  0  0  0  0  0  0  0  0  0  0
   -1.4021    0.1911    0.0264 C   0  0  0  0  0  0  0  0  0  0  0  0
   -2.6766   -1.2522   -0.7322 H   0  0  0  0  0  0  0  0  0  0  0  0
   -2.7582   -1.2814    1.0104 H   0  0  0  0  0  0  0  0  0  0  0  0
   -0.1474   -0.6934    0.0030 C   0  0  0  0  0  0  0  0  0  0  0  0
   -1.3582    0.9181    0.8995 H   0  0  0  0  0  0  0  0  0  0  0  0
   -1.4532    0.8074   -0.8336 H   0  0  0  0  0  0  0  0  0  0  0  0
   -0.1566   -1.2533    0.8432 H   0  0  0  0  0  0  0  0  0  0  0  0
    0.7461   -0.1207    0.0695 H   0  0  0  0  0  0  0  0  0  0  0  0
   -0.0559   -1.5039   -0.9349 H   0  0  0  0  0  0  0  0  0  0  0  0
  1  3  1  0  0  0  0
  1  2  1  0  0  0  0
  1  5  1  0  0  0  0
  2  8  1  0  0  0  0
  4  1  1  0  0  0  0
  6  2  1  0  0  0  0
  6 10  1  0  0  0  0
  7  2  1  0  0  0  0
  9  6  1  0  0  0  0
  9 13  1  0  0  0  0
  9 12  1  0  0  0  0
 11  6  1  0  0  0  0
 14  9  1  0  0  0  0
M  END
$$$$
