butane_opt
 OpenBabel08242015403D

 14 13  0  0  0  0  0  0  0  0999 V2000
   -3.9391    0.2792   -0.0215 C   0  0  0  0  0  0  0  0  0  0  0  0
   -2.6902   -0.6319    0.0827 C   0  0  0  0  0  0  0  0  0  0  0  0
   -4.8523   -0.3226   -0.0776 H   0  0  0  0  0  0  0  0  0  0  0  0
   -3.8949    0.8474   -0.8937 H   0  0  0  0  0  0  0  0  0  0  0  0
   -4.0757    0.9762    0.8444 H   0  0  0  0  0  0  0  0  0  0  0  0
   -1.4002    0.1805    0.0495 C   0  0  0  0  0  0  0  0  0  0  0  0
   -2.6737   -1.2721   -0.7450 H   0  0  0  0  0  0  0  0  0  0  0  0
   -2.7118   -1.3081    1.0169 H   0  0  0  0  0  0  0  0  0  0  0  0
   -0.1807   -0.6900    0.0016 C   0  0  0  0  0  0  0  0  0  0  0  0
   -1.2960    0.8652    0.9188 H   0  0  0  0  0  0  0  0  0  0  0  0
   -1.3875    0.8051   -0.8641 H   0  0  0  0  0  0  0  0  0  0  0  0
   -0.0986   -1.2319    0.8603 H   0  0  0  0  0  0  0  0  0  0  0  0
    0.7538   -0.1107   -0.0841 H   0  0  0  0  0  0  0  0  0  0  0  0
   -0.2586   -1.3746   -0.8801 H   0  0  0  0  0  0  0  0  0  0  0  0
  1  2  1  0  0  0  0
  1  5  1  0  0  0  0
  2  8  1  0  0  0  0
  3  1  1  0  0  0  0
  4  1  1  0  0  0  0
  6  2  1  0  0  0  0
  6 10  1  0  0  0  0
  7  2  1  0  0  0  0
  9  6  1  0  0  0  0
  9 12  1  0  0  0  0
 11  6  1  0  0  0  0
 13  9  1  0  0  0  0
 14  9  1  0  0  0  0
M  END
$$$$
