butane_opt
 OpenBabel08242015403D

 14 13  0  0  0  0  0  0  0  0999 V2000
   -3.9385    0.2782    0.0086 C   0  0  0  0  0  0  0  0  0  0  0  0
   -2.6997   -0.6328    0.0388 C   0  0  0  0  0  0  0  0  0  0  0  0
   -4.8267   -0.3211    0.1190 H   0  0  0  0  0  0  0  0  0  0  0  0
   -3.9643    0.9531   -0.9085 H   0  0  0  0  0  0  0  0  0  0  0  0
   -3.9699    0.9249    0.8634 H   0  0  0  0  0  0  0  0  0  0  0  0
   -1.3994    0.1691    0.0251 C   0  0  0  0  0  0  0  0  0  0  0  0
   -2.6838   -1.3360   -0.8312 H   0  0  0  0  0  0  0  0  0  0  0  0
   -2.6741   -1.2368    0.9051 H   0  0  0  0  0  0  0  0  0  0  0  0
   -0.1851   -0.6817    0.0295 C   0  0  0  0  0  0  0  0  0  0  0  0
   -1.3955    0.8672    0.9040 H   0  0  0  0  0  0  0  0  0  0  0  0
   -1.3286    0.8209   -0.9012 H   0  0  0  0  0  0  0  0  0  0  0  0
   -0.0955   -1.3141    0.9238 H   0  0  0  0  0  0  0  0  0  0  0  0
    0.7553   -0.0575   -0.0335 H   0  0  0  0  0  0  0  0  0  0  0  0
   -0.1804   -1.3556   -0.8274 H   0  0  0  0  0  0  0  0  0  0  0  0
  1  2  1  0  0  0  0
  1  3  1  0  0  0  0
  1  5  1  0  0  0  0
  2  8  1  0  0  0  0
  4  1  1  0  0  0  0
  6  9  1  0  0  0  0
  6  2  1  0  0  0  0
  6 10  1  0  0  0  0
  7  2  1  0  0  0  0
  9 12  1  0  0  0  0
 11  6  1  0  0  0  0
 13  9  1  0  0  0  0
 14  9  1  0  0  0  0
M  END
$$$$
