butane_opt
 OpenBabel08242015403D

 14 13  0  0  0  0  0  0  0  0999 V2000
   -3.9568    0.2730    0.0295 C   0  0  0  0  0  0  0  0  0  0  0  0
   -2.7036   -0.6385    0.0377 C   0  0  0  0  0  0  0  0  0  0  0  0
   -4.8534   -0.2880   -0.1184 H   0  0  0  0  0  0  0  0  0  0  0  0
   -3.9466    0.7818   -0.8005 H   0  0  0  0  0  0  0  0  0  0  0  0
   -4.0490    1.0673    0.9996 H   0  0  0  0  0  0  0  0  0  0  0  0
   -1.3919    0.1846   -0.0091 C   0  0  0  0  0  0  0  0  0  0  0  0
   -2.6995   -1.2759   -0.8037 H   0  0  0  0  0  0  0  0  0  0  0  0
   -2.6925   -1.2463    0.9010 H   0  0  0  0  0  0  0  0  0  0  0  0
   -0.1610   -0.6921    0.0413 C   0  0  0  0  0  0  0  0  0  0  0  0
   -1.3167    0.8370    0.8205 H   0  0  0  0  0  0  0  0  0  0  0  0
   -1.3999    0.8477   -0.9145 H   0  0  0  0  0  0  0  0  0  0  0  0
   -0.1720   -1.3558    0.9863 H   0  0  0  0  0  0  0  0  0  0  0  0
    0.7572   -0.0648   -0.0253 H   0  0  0  0  0  0  0  0  0  0  0  0
   -0.0925   -1.3029   -0.7809 H   0  0  0  0  0  0  0  0  0  0  0  0
  1  2  1  0  0  0  0
  1  5  1  0  0  0  0
  2  8  1  0  0  0  0
  3  1  1  0  0  0  0
  4  1  1  0  0  0  0
  6  2  1  0  0  0  0
  6  9  1  0  0  0  0
  6 10  1  0  0  0  0
  7  2  1  0  0  0  0
  9 12  1  0  0  0  0
 11  6  1  0  0  0  0
 13  9  1  0  0  0  0
 14  9  1  0  0  0  0
M  END
$$$$
