butane_opt
 OpenBabel08242015403D

 14 13  0  0  0  0  0  0  0  0999 V2000
   -3.9361    0.2760    0.0438 C   0  0  0  0  0  0  0  0  0  0  0  0
   -2.6939   -0.6300   -0.0053 C   0  0  0  0  0  0  0  0  0  0  0  0
   -4.7992   -0.2837    0.1843 H   0  0  0  0  0  0  0  0  0  0  0  0
   -4.0928    0.8796   -0.8306 H   0  0  0  0  0  0  0  0  0  0  0  0
   -3.8706    0.9348    0.8974 H   0  0  0  0  0  0  0  0  0  0  0  0
   -1.4049    0.1688   -0.0185 C   0  0  0  0  0  0  0  0  0  0  0  0
   -2.7098   -1.3251   -0.8698 H   0  0  0  0  0  0  0  0  0  0  0  0
   -2.6881   -1.2339    0.8610 H   0  0  0  0  0  0  0  0  0  0  0  0
   -0.1658   -0.6752    0.0646 C   0  0  0  0  0  0  0  0  0  0  0  0
   -1.4709    0.8455    0.8293 H   0  0  0  0  0  0  0  0  0  0  0  0
   -1.3678    0.7697   -0.9147 H   0  0  0  0  0  0  0  0  0  0  0  0
   -0.2159   -1.3343    1.0060 H   0  0  0  0  0  0  0  0  0  0  0  0
    0.7347   -0.0748    0.0204 H   0  0  0  0  0  0  0  0  0  0  0  0
   -0.1432   -1.3142   -0.7592 H   0  0  0  0  0  0  0  0  0  0  0  0
  1  3  1  0  0  0  0
  1  5  1  0  0  0  0
  2  1  1  0  0  0  0
  2  8  1  0  0  0  0
  4  1  1  0  0  0  0
  6  2  1  0  0  0  0
  6  9  1  0  0  0  0
  6 10  1  0  0  0  0
  7  2  1  0  0  0  0
  9 12  1  0  0  0  0
 11  6  1  0  0  0  0
 13  9  1  0  0  0  0
 14  9  1  0  0  0  0
M  END
$$$$
