butane_opt
 OpenBabel08242015403D

 14 13  0  0  0  0  0  0  0  0999 V2000
   -3.9691    0.2728   -0.0196 C   0  0  0  0  0  0  0  0  0  0  0  0
   -2.6929   -0.6273    0.0982 C   0  0  0  0  0  0  0  0  0  0  0  0
   -4.8652   -0.2900   -0.1411 H   0  0  0  0  0  0  0  0  0  0  0  0
   -3.9218    0.8382   -0.9101 H   0  0  0  0  0  0  0  0  0  0  0  0
   -4.0407    0.9834    0.8507 H   0  0  0  0  0  0  0  0  0  0  0  0
   -1.3929    0.1711    0.0446 C   0  0  0  0  0  0  0  0  0  0  0  0
   -2.6911   -1.2725   -0.7330 H   0  0  0  0  0  0  0  0  0  0  0  0
   -2.7393   -1.2558    0.9904 H   0  0  0  0  0  0  0  0  0  0  0  0
   -0.1536   -0.6854   -0.0088 C   0  0  0  0  0  0  0  0  0  0  0  0
   -1.3271    0.8822    0.8945 H   0  0  0  0  0  0  0  0  0  0  0  0
   -1.3997    0.7975   -0.8433 H   0  0  0  0  0  0  0  0  0  0  0  0
   -0.1132   -1.2824    0.8702 H   0  0  0  0  0  0  0  0  0  0  0  0
    0.7493   -0.0721   -0.0351 H   0  0  0  0  0  0  0  0  0  0  0  0
   -0.1760   -1.3786   -0.8765 H   0  0  0  0  0  0  0  0  0  0  0  0
  1  2  1  0  0  0  0
  1  5  1  0  0  0  0
  2  8  1  0  0  0  0
  3  1  1  0  0  0  0
  4  1  1  0  0  0  0
  6  2  1  0  0  0  0
  6 10  1  0  0  0  0
  7  2  1  0  0  0  0
  9  6  1  0  0  0  0
  9 12  1  0  0  0  0
 11  6  1  0  0  0  0
 13  9  1  0  0  0  0
 14  9  1  0  0  0  0
M  END
$$$$
