14
butane_opt
C  -3.934000   0.254560  -0.012935
C  -2.692002  -0.601177   0.062927
H  -4.854337  -0.344448   0.216493
H  -3.967066   1.000084  -1.002389
H  -3.917876   0.735773   0.748509
C  -1.410711   0.197814   0.048128
H  -2.727906  -1.316490  -0.829306
H  -2.746446  -1.204789   0.952404
C  -0.174681  -0.701935   0.002336
H  -1.385235   0.945833   0.944102
H  -1.415490   0.786974  -0.828386
H  -0.111589  -1.285511   0.871360
H   0.740144  -0.132463   0.035159
H  -0.102522  -1.445192  -0.891958
