butane_opt
 OpenBabel08242015403D

 14 13  0  0  0  0  0  0  0  0999 V2000
   -3.9350    0.2610    0.0546 C   0  0  0  0  0  0  0  0  0  0  0  0
   -2.6870   -0.6145    0.0123 C   0  0  0  0  0  0  0  0  0  0  0  0
   -4.8696   -0.3513    0.0728 H   0  0  0  0  0  0  0  0  0  0  0  0
   -3.9887    0.8496   -0.8187 H   0  0  0  0  0  0  0  0  0  0  0  0
   -3.9127    0.9705    0.9490 H   0  0  0  0  0  0  0  0  0  0  0  0
   -1.4107    0.1943   -0.0363 C   0  0  0  0  0  0  0  0  0  0  0  0
   -2.7110   -1.3386   -0.8852 H   0  0  0  0  0  0  0  0  0  0  0  0
   -2.7193   -1.2478    0.8897 H   0  0  0  0  0  0  0  0  0  0  0  0
   -0.1682   -0.6908    0.0646 C   0  0  0  0  0  0  0  0  0  0  0  0
   -1.4366    0.7968    0.7648 H   0  0  0  0  0  0  0  0  0  0  0  0
   -1.3818    0.8879   -0.9945 H   0  0  0  0  0  0  0  0  0  0  0  0
   -0.2203   -1.2695    0.9593 H   0  0  0  0  0  0  0  0  0  0  0  0
    0.7257   -0.1504    0.1993 H   0  0  0  0  0  0  0  0  0  0  0  0
   -0.0934   -1.4234   -0.8322 H   0  0  0  0  0  0  0  0  0  0  0  0
  1  3  1  0  0  0  0
  1  5  1  0  0  0  0
  2  1  1  0  0  0  0
  2  8  1  0  0  0  0
  4  1  1  0  0  0  0
  6  2  1  0  0  0  0
  6  9  1  0  0  0  0
  6 10  1  0  0  0  0
  7  2  1  0  0  0  0
  9 13  1  0  0  0  0
  9 12  1  0  0  0  0
 11  6  1  0  0  0  0
 14  9  1  0  0  0  0
M  END
$$$$
