butane_opt
 OpenBabel08242015403D

 14 13  0  0  0  0  0  0  0  0999 V2000
   -3.9436    0.2619    0.0287 C   0  0  0  0  0  0  0  0  0  0  0  0
   -2.7089   -0.6070    0.0307 C   0  0  0  0  0  0  0  0  0  0  0  0
   -4.8505   -0.3428    0.0919 H   0  0  0  0  0  0  0  0  0  0  0  0
   -4.0118    0.8949   -0.8499 H   0  0  0  0  0  0  0  0  0  0  0  0
   -3.9235    0.9593    0.9019 H   0  0  0  0  0  0  0  0  0  0  0  0
   -1.4083    0.1842   -0.0187 C   0  0  0  0  0  0  0  0  0  0  0  0
   -2.7742   -1.3082   -0.8616 H   0  0  0  0  0  0  0  0  0  0  0  0
   -2.7124   -1.2581    0.9259 H   0  0  0  0  0  0  0  0  0  0  0  0
   -0.1507   -0.6984    0.0429 C   0  0  0  0  0  0  0  0  0  0  0  0
   -1.3578    0.8513    0.8381 H   0  0  0  0  0  0  0  0  0  0  0  0
   -1.3974    0.7975   -0.8973 H   0  0  0  0  0  0  0  0  0  0  0  0
   -0.1701   -1.2876    0.9581 H   0  0  0  0  0  0  0  0  0  0  0  0
    0.7713   -0.0673    0.1457 H   0  0  0  0  0  0  0  0  0  0  0  0
   -0.0611   -1.3956   -0.8157 H   0  0  0  0  0  0  0  0  0  0  0  0
  1  2  1  0  0  0  0
  1  3  1  0  0  0  0
  1  5  1  0  0  0  0
  2  8  1  0  0  0  0
  4  1  1  0  0  0  0
  6  2  1  0  0  0  0
  6  9  1  0  0  0  0
  6 10  1  0  0  0  0
  7  2  1  0  0  0  0
  9 13  1  0  0  0  0
  9 12  1  0  0  0  0
 11  6  1  0  0  0  0
 14  9  1  0  0  0  0
M  END
$$$$
