butane_opt
 OpenBabel08242015403D

 14 13  0  0  0  0  0  0  0  0999 V2000
   -3.9638    0.2788   -0.0058 C   0  0  0  0  0  0  0  0  0  0  0  0
   -2.7024   -0.6376    0.0704 C   0  0  0  0  0  0  0  0  0  0  0  0
   -4.8489   -0.2999    0.0912 H   0  0  0  0  0  0  0  0  0  0  0  0
   -4.0095    0.9712   -0.9509 H   0  0  0  0  0  0  0  0  0  0  0  0
   -3.9465    0.8618    0.7847 H   0  0  0  0  0  0  0  0  0  0  0  0
   -1.3951    0.1714    0.0372 C   0  0  0  0  0  0  0  0  0  0  0  0
   -2.6765   -1.2807   -0.7815 H   0  0  0  0  0  0  0  0  0  0  0  0
   -2.7427   -1.2396    0.9401 H   0  0  0  0  0  0  0  0  0  0  0  0
   -0.1484   -0.6866    0.0069 C   0  0  0  0  0  0  0  0  0  0  0  0
   -1.3988    0.8427    0.8858 H   0  0  0  0  0  0  0  0  0  0  0  0
   -1.4108    0.8234   -0.8695 H   0  0  0  0  0  0  0  0  0  0  0  0
   -0.1540   -1.1707    0.8282 H   0  0  0  0  0  0  0  0  0  0  0  0
    0.7802   -0.0502    0.0959 H   0  0  0  0  0  0  0  0  0  0  0  0
   -0.1127   -1.4388   -0.9063 H   0  0  0  0  0  0  0  0  0  0  0  0
  1  2  1  0  0  0  0
  1  3  1  0  0  0  0
  1  5  1  0  0  0  0
  2  8  1  0  0  0  0
  4  1  1  0  0  0  0
  6  2  1  0  0  0  0
  6 10  1  0  0  0  0
  7  2  1  0  0  0  0
  9  6  1  0  0  0  0
  9 13  1  0  0  0  0
  9 12  1  0  0  0  0
 11  6  1  0  0  0  0
 14  9  1  0  0  0  0
M  END
$$$$
