14
butane_opt
C  -3.959622   0.269931   0.047097
C  -2.705255  -0.625252   0.005519
H  -4.858972  -0.301975   0.053022
H  -4.023690   0.861769  -0.828150
H  -3.904283   0.949031   0.949341
C  -1.402370   0.183716  -0.027294
H  -2.702675  -1.287297  -0.805949
H  -2.659496  -1.264520   0.904071
C  -0.153555  -0.687072   0.061649
H  -1.386112   0.818910   0.788162
H  -1.372898   0.824454  -0.927888
H  -0.184833  -1.290286   0.963583
H   0.759587  -0.069744   0.130707
H  -0.050795  -1.405060  -0.836075
