butane_opt
 OpenBabel08242015403D

 14 13  0  0  0  0  0  0  0  0999 V2000
   -3.9248    0.2552    0.0326 C   0  0  0  0  0  0  0  0  0  0  0  0
   -2.7036   -0.5998    0.0199 C   0  0  0  0  0  0  0  0  0  0  0  0
   -4.8878   -0.3642    0.0269 H   0  0  0  0  0  0  0  0  0  0  0  0
   -3.9058    0.8420   -0.8391 H   0  0  0  0  0  0  0  0  0  0  0  0
   -3.9454    0.9499    0.9253 H   0  0  0  0  0  0  0  0  0  0  0  0
   -1.4139    0.1925    0.0101 C   0  0  0  0  0  0  0  0  0  0  0  0
   -2.7395   -1.3214   -0.8718 H   0  0  0  0  0  0  0  0  0  0  0  0
   -2.7531   -1.1391    0.8507 H   0  0  0  0  0  0  0  0  0  0  0  0
   -0.1655   -0.7093    0.0388 C   0  0  0  0  0  0  0  0  0  0  0  0
   -1.4077    0.8543    0.8577 H   0  0  0  0  0  0  0  0  0  0  0  0
   -1.4101    0.8297   -0.9173 H   0  0  0  0  0  0  0  0  0  0  0  0
   -0.1029   -1.4567    1.0286 H   0  0  0  0  0  0  0  0  0  0  0  0
    0.7701   -0.0939   -0.0892 H   0  0  0  0  0  0  0  0  0  0  0  0
   -0.1504   -1.2354   -0.7257 H   0  0  0  0  0  0  0  0  0  0  0  0
  1  5  1  0  0  0  0
  2  1  1  0  0  0  0
  2  8  1  0  0  0  0
  3  1  1  0  0  0  0
  4  1  1  0  0  0  0
  6  2  1  0  0  0  0
  6  9  1  0  0  0  0
  6 10  1  0  0  0  0
  7  2  1  0  0  0  0
  9 12  1  0  0  0  0
 11  6  1  0  0  0  0
 13  9  1  0  0  0  0
 14  9  1  0  0  0  0
M  END
$$$$
