butane_opt
 OpenBabel08242015403D

 14 13  0  0  0  0  0  0  0  0999 V2000
   -3.9597    0.2755   -0.0122 C   0  0  0  0  0  0  0  0  0  0  0  0
   -2.7045   -0.6327    0.0650 C   0  0  0  0  0  0  0  0  0  0  0  0
   -4.8583   -0.2797    0.1233 H   0  0  0  0  0  0  0  0  0  0  0  0
   -4.0254    1.0156   -0.9783 H   0  0  0  0  0  0  0  0  0  0  0  0
   -3.9350    0.8339    0.7818 H   0  0  0  0  0  0  0  0  0  0  0  0
   -1.3985    0.1743    0.0435 C   0  0  0  0  0  0  0  0  0  0  0  0
   -2.6636   -1.2982   -0.7839 H   0  0  0  0  0  0  0  0  0  0  0  0
   -2.7205   -1.2658    0.9579 H   0  0  0  0  0  0  0  0  0  0  0  0
   -0.1515   -0.6844   -0.0016 C   0  0  0  0  0  0  0  0  0  0  0  0
   -1.3737    0.9145    0.9277 H   0  0  0  0  0  0  0  0  0  0  0  0
   -1.4115    0.7141   -0.7672 H   0  0  0  0  0  0  0  0  0  0  0  0
   -0.1546   -1.2801    0.8852 H   0  0  0  0  0  0  0  0  0  0  0  0
    0.8056   -0.0507    0.0254 H   0  0  0  0  0  0  0  0  0  0  0  0
   -0.1272   -1.3567   -0.8837 H   0  0  0  0  0  0  0  0  0  0  0  0
  1  2  1  0  0  0  0
  1  3  1  0  0  0  0
  1  5  1  0  0  0  0
  2  8  1  0  0  0  0
  4  1  1  0  0  0  0
  6  2  1  0  0  0  0
  6 10  1  0  0  0  0
  7  2  1  0  0  0  0
  9 13  1  0  0  0  0
  9  6  1  0  0  0  0
  9 12  1  0  0  0  0
 11  6  1  0  0  0  0
 14  9  1  0  0  0  0
M  END
$$$$
