butane_opt
 OpenBabel08242015403D

 14 13  0  0  0  0  0  0  0  0999 V2000
   -3.9240    0.2548    0.0320 C   0  0  0  0  0  0  0  0  0  0  0  0
   -2.6904   -0.6032    0.0353 C   0  0  0  0  0  0  0  0  0  0  0  0
   -4.8327   -0.3752    0.0919 H   0  0  0  0  0  0  0  0  0  0  0  0
   -4.0093    0.8606   -0.8428 H   0  0  0  0  0  0  0  0  0  0  0  0
   -3.9126    0.8993    0.8804 H   0  0  0  0  0  0  0  0  0  0  0  0
   -1.4177    0.2037   -0.0253 C   0  0  0  0  0  0  0  0  0  0  0  0
   -2.7645   -1.2824   -0.8369 H   0  0  0  0  0  0  0  0  0  0  0  0
   -2.7309   -1.2466    0.9232 H   0  0  0  0  0  0  0  0  0  0  0  0
   -0.1644   -0.7076    0.0440 C   0  0  0  0  0  0  0  0  0  0  0  0
   -1.4457    0.8979    0.8086 H   0  0  0  0  0  0  0  0  0  0  0  0
   -1.4077    0.8015   -0.8862 H   0  0  0  0  0  0  0  0  0  0  0  0
   -0.2316   -1.2701    0.9084 H   0  0  0  0  0  0  0  0  0  0  0  0
    0.7377   -0.1226    0.1963 H   0  0  0  0  0  0  0  0  0  0  0  0
   -0.0590   -1.4121   -0.8398 H   0  0  0  0  0  0  0  0  0  0  0  0
  1  2  1  0  0  0  0
  1  3  1  0  0  0  0
  1  5  1  0  0  0  0
  2  8  1  0  0  0  0
  4  1  1  0  0  0  0
  6  2  1  0  0  0  0
  6  9  1  0  0  0  0
  6 10  1  0  0  0  0
  7  2  1  0  0  0  0
  9 13  1  0  0  0  0
  9 12  1  0  0  0  0
 11  6  1  0  0  0  0
 14  9  1  0  0  0  0
M  END
$$$$
