14
butane_opt
C  -3.948552   0.257831  -0.017089
C  -2.704534  -0.616416   0.083544
H  -4.841000  -0.325505  -0.061799
H  -3.921680   0.824935  -0.883997
H  -4.023143   0.939415   0.838423
C  -1.400420   0.204877   0.039812
H  -2.693217  -1.255435  -0.755786
H  -2.770347  -1.288557   1.033353
C  -0.155329  -0.704121  -0.012736
H  -1.393087   0.939494   0.920064
H  -1.450905   0.811743  -0.833803
H  -0.084427  -1.324457   0.892205
H   0.770819  -0.116113   0.030614
H  -0.112624  -1.385099  -0.855613
