butane_opt
 OpenBabel08242015403D

 14 13  0  0  0  0  0  0  0  0999 V2000
   -3.9544    0.2793   -0.0083 C   0  0  0  0  0  0  0  0  0  0  0  0
   -2.7018   -0.6371    0.0829 C   0  0  0  0  0  0  0  0  0  0  0  0
   -4.8386   -0.3171   -0.0924 H   0  0  0  0  0  0  0  0  0  0  0  0
   -3.9463    0.8402   -0.8881 H   0  0  0  0  0  0  0  0  0  0  0  0
   -4.0783    0.9807    0.8369 H   0  0  0  0  0  0  0  0  0  0  0  0
   -1.4074    0.1840    0.0303 C   0  0  0  0  0  0  0  0  0  0  0  0
   -2.6926   -1.2882   -0.7321 H   0  0  0  0  0  0  0  0  0  0  0  0
   -2.7144   -1.2791    0.9918 H   0  0  0  0  0  0  0  0  0  0  0  0
   -0.1468   -0.6853    0.0077 C   0  0  0  0  0  0  0  0  0  0  0  0
   -1.3889    0.8397    0.8790 H   0  0  0  0  0  0  0  0  0  0  0  0
   -1.3603    0.7883   -0.8523 H   0  0  0  0  0  0  0  0  0  0  0  0
   -0.1237   -1.2434    0.8661 H   0  0  0  0  0  0  0  0  0  0  0  0
    0.7994   -0.0633   -0.0244 H   0  0  0  0  0  0  0  0  0  0  0  0
   -0.1617   -1.4151   -0.9060 H   0  0  0  0  0  0  0  0  0  0  0  0
  1  2  1  0  0  0  0
  1  5  1  0  0  0  0
  2  8  1  0  0  0  0
  3  1  1  0  0  0  0
  4  1  1  0  0  0  0
  6  2  1  0  0  0  0
  6 10  1  0  0  0  0
  7  2  1  0  0  0  0
  9  6  1  0  0  0  0
  9 12  1  0  0  0  0
 11  6  1  0  0  0  0
 13  9  1  0  0  0  0
 14  9  1  0  0  0  0
M  END
$$$$
