14
butane_opt
C  -3.942507   0.279261   0.037818
C  -2.691656  -0.625249   0.027678
H  -4.860344  -0.325651  -0.029832
H  -3.927906   0.742624  -0.756933
H  -3.975576   1.071469   0.958872
C  -1.401663   0.159855  -0.020171
H  -2.697263  -1.328872  -0.845184
H  -2.687282  -1.187926   0.872071
C  -0.172099  -0.678867   0.055226
H  -1.413976   0.792607   0.774833
H  -1.354868   0.859843  -0.947769
H  -0.184122  -1.350647   0.988661
H   0.734877  -0.094757   0.007725
H  -0.165457  -1.277296  -0.765211
