14
butane_opt
C  -3.936467   0.279124   0.044527
C  -2.686060  -0.632956   0.007249
H  -4.859337  -0.338103   0.105350
H  -4.027065   0.900063  -0.821293
H  -3.929476   0.934370   0.893265
C  -1.409956   0.176706  -0.022289
H  -2.756015  -1.295857  -0.864713
H  -2.643355  -1.301258   0.927358
C  -0.173760  -0.680810   0.062913
H  -1.427569   0.830628   0.810147
H  -1.347384   0.823054  -0.938630
H  -0.232083  -1.232872   0.912781
H   0.746950  -0.093513   0.115066
H  -0.075325  -1.402554  -0.823842
