14
butane_opt
C  -3.937666   0.262942   0.036040
C  -2.704288  -0.606290   0.003718
H  -4.889118  -0.344526  -0.020349
H  -3.948204   0.798057  -0.817166
H  -3.947210   0.970974   0.933351
C  -1.399298   0.191288   0.006147
H  -2.749437  -1.267007  -0.819469
H  -2.722959  -1.235224   0.907840
C  -0.162835  -0.705986   0.052393
H  -1.414632   0.877976   0.844670
H  -1.417435   0.811012  -0.870189
H  -0.098414  -1.456461   1.023858
H   0.785752  -0.064480  -0.152339
H  -0.175491  -1.264708  -0.756881
