14
butane_opt
C  -3.942887   0.256984   0.028437
C  -2.701544  -0.612036   0.043455
H  -4.862500  -0.358963  -0.061545
H  -3.900612   0.779613  -0.800984
H  -4.061196   1.038049   0.953887
C  -1.414055   0.193864  -0.014035
H  -2.744663  -1.326849  -0.850284
H  -2.679336  -1.220442   0.906030
C  -0.154562  -0.696693   0.045113
H  -1.389798   0.867692   0.817316
H  -1.356982   0.850430  -0.911633
H  -0.087576  -1.355652   0.951604
H   0.723339  -0.148810  -0.019899
H  -0.098732  -1.310360  -0.763110
