14
butane_opt
C  -3.954134   0.262222   0.042841
C  -2.707966  -0.619424   0.021588
H  -4.848195  -0.317288  -0.104892
H  -3.936023   0.739426  -0.767705
H  -3.957285   1.043405   0.983080
C  -1.394417   0.205327  -0.019691
H  -2.696801  -1.311954  -0.828091
H  -2.717311  -1.214199   0.904017
C  -0.161100  -0.698359   0.051203
H  -1.383278   0.837398   0.814030
H  -1.379081   0.831898  -0.933506
H  -0.137113  -1.454201   1.021385
H   0.745127  -0.121350  -0.027709
H  -0.106588  -1.299533  -0.749958
