butane_opt
 OpenBabel08242015403D

 14 13  0  0  0  0  0  0  0  0999 V2000
   -3.9336    0.2750    0.0368 C   0  0  0  0  0  0  0  0  0  0  0  0
   -2.6946   -0.6275    0.0138 C   0  0  0  0  0  0  0  0  0  0  0  0
   -4.8482   -0.3149    0.1763 H   0  0  0  0  0  0  0  0  0  0  0  0
   -4.0583    0.9773   -0.9211 H   0  0  0  0  0  0  0  0  0  0  0  0
   -3.9285    0.8719    0.8635 H   0  0  0  0  0  0  0  0  0  0  0  0
   -1.4032    0.1754   -0.0027 C   0  0  0  0  0  0  0  0  0  0  0  0
   -2.7012   -1.3921   -0.9007 H   0  0  0  0  0  0  0  0  0  0  0  0
   -2.6674   -1.1846    0.8468 H   0  0  0  0  0  0  0  0  0  0  0  0
   -0.1789   -0.6801    0.0554 C   0  0  0  0  0  0  0  0  0  0  0  0
   -1.3371    0.8317    0.8312 H   0  0  0  0  0  0  0  0  0  0  0  0
   -1.3893    0.7980   -0.8682 H   0  0  0  0  0  0  0  0  0  0  0  0
   -0.1827   -1.3421    0.9629 H   0  0  0  0  0  0  0  0  0  0  0  0
    0.7449   -0.0892    0.0139 H   0  0  0  0  0  0  0  0  0  0  0  0
   -0.1317   -1.3340   -0.8071 H   0  0  0  0  0  0  0  0  0  0  0  0
  1  3  1  0  0  0  0
  1  5  1  0  0  0  0
  2  1  1  0  0  0  0
  2  8  1  0  0  0  0
  4  1  1  0  0  0  0
  6  2  1  0  0  0  0
  6  9  1  0  0  0  0
  6 10  1  0  0  0  0
  7  2  1  0  0  0  0
  9 12  1  0  0  0  0
 11  6  1  0  0  0  0
 13  9  1  0  0  0  0
 14  9  1  0  0  0  0
M  END
$$$$
