butane_opt
 OpenBabel08242015403D

 14 13  0  0  0  0  0  0  0  0999 V2000
   -3.9535    0.2743    0.0530 C   0  0  0  0  0  0  0  0  0  0  0  0
   -2.7058   -0.6269    0.0020 C   0  0  0  0  0  0  0  0  0  0  0  0
   -4.8199   -0.3092    0.1484 H   0  0  0  0  0  0  0  0  0  0  0  0
   -4.0515    0.9840   -0.8904 H   0  0  0  0  0  0  0  0  0  0  0  0
   -3.9735    0.8943    0.8847 H   0  0  0  0  0  0  0  0  0  0  0  0
   -1.3988    0.1687   -0.0184 C   0  0  0  0  0  0  0  0  0  0  0  0
   -2.7373   -1.3385   -0.9047 H   0  0  0  0  0  0  0  0  0  0  0  0
   -2.6971   -1.2326    0.8716 H   0  0  0  0  0  0  0  0  0  0  0  0
   -0.1530   -0.6866    0.0577 C   0  0  0  0  0  0  0  0  0  0  0  0
   -1.3953    0.8421    0.8373 H   0  0  0  0  0  0  0  0  0  0  0  0
   -1.3274    0.8182   -0.9293 H   0  0  0  0  0  0  0  0  0  0  0  0
   -0.1544   -1.2724    0.9499 H   0  0  0  0  0  0  0  0  0  0  0  0
    0.7845   -0.0638    0.1158 H   0  0  0  0  0  0  0  0  0  0  0  0
   -0.1209   -1.3383   -0.7778 H   0  0  0  0  0  0  0  0  0  0  0  0
  1  3  1  0  0  0  0
  1  5  1  0  0  0  0
  2  1  1  0  0  0  0
  2  8  1  0  0  0  0
  4  1  1  0  0  0  0
  6  2  1  0  0  0  0
  6  9  1  0  0  0  0
  6 10  1  0  0  0  0
  7  2  1  0  0  0  0
  9 13  1  0  0  0  0
  9 12  1  0  0  0  0
 11  6  1  0  0  0  0
 14  9  1  0  0  0  0
M  END
$$$$
