butane_opt
 OpenBabel08242015403D

 14 13  0  0  0  0  0  0  0  0999 V2000
   -3.9431    0.2575   -0.0090 C   0  0  0  0  0  0  0  0  0  0  0  0
   -2.6983   -0.5994    0.0704 C   0  0  0  0  0  0  0  0  0  0  0  0
   -4.8598   -0.3625    0.0686 H   0  0  0  0  0  0  0  0  0  0  0  0
   -3.9508    0.8951   -0.9277 H   0  0  0  0  0  0  0  0  0  0  0  0
   -3.9280    0.8585    0.8227 H   0  0  0  0  0  0  0  0  0  0  0  0
   -1.4089    0.1852    0.0280 C   0  0  0  0  0  0  0  0  0  0  0  0
   -2.6709   -1.2132   -0.7353 H   0  0  0  0  0  0  0  0  0  0  0  0
   -2.7456   -1.2398    0.9931 H   0  0  0  0  0  0  0  0  0  0  0  0
   -0.1625   -0.7033    0.0092 C   0  0  0  0  0  0  0  0  0  0  0  0
   -1.3693    0.8557    0.8899 H   0  0  0  0  0  0  0  0  0  0  0  0
   -1.3733    0.8448   -0.8641 H   0  0  0  0  0  0  0  0  0  0  0  0
   -0.2066   -1.1645    0.8196 H   0  0  0  0  0  0  0  0  0  0  0  0
    0.7429   -0.1336    0.1133 H   0  0  0  0  0  0  0  0  0  0  0  0
   -0.0992   -1.5033   -0.9457 H   0  0  0  0  0  0  0  0  0  0  0  0
  1  3  1  0  0  0  0
  1  2  1  0  0  0  0
  1  5  1  0  0  0  0
  2  8  1  0  0  0  0
  4  1  1  0  0  0  0
  6  2  1  0  0  0  0
  6 10  1  0  0  0  0
  7  2  1  0  0  0  0
  9  6  1  0  0  0  0
  9 13  1  0  0  0  0
  9 12  1  0  0  0  0
 11  6  1  0  0  0  0
 14  9  1  0  0  0  0
M  END
$$$$
