butane_opt
 OpenBabel08242015403D

 14 13  0  0  0  0  0  0  0  0999 V2000
   -3.9582    0.2790   -0.0144 C   0  0  0  0  0  0  0  0  0  0  0  0
   -2.7067   -0.6226    0.0837 C   0  0  0  0  0  0  0  0  0  0  0  0
   -4.8887   -0.3352   -0.0795 H   0  0  0  0  0  0  0  0  0  0  0  0
   -3.8906    0.8243   -0.8650 H   0  0  0  0  0  0  0  0  0  0  0  0
   -4.0697    0.9406    0.8400 H   0  0  0  0  0  0  0  0  0  0  0  0
   -1.3980    0.1793    0.0377 C   0  0  0  0  0  0  0  0  0  0  0  0
   -2.7024   -1.3145   -0.7554 H   0  0  0  0  0  0  0  0  0  0  0  0
   -2.7139   -1.2339    0.9747 H   0  0  0  0  0  0  0  0  0  0  0  0
   -0.1487   -0.6918    0.0049 C   0  0  0  0  0  0  0  0  0  0  0  0
   -1.3629    0.8655    0.8838 H   0  0  0  0  0  0  0  0  0  0  0  0
   -1.3424    0.7992   -0.8400 H   0  0  0  0  0  0  0  0  0  0  0  0
   -0.0715   -1.3018    0.8992 H   0  0  0  0  0  0  0  0  0  0  0  0
    0.7514   -0.0925   -0.0736 H   0  0  0  0  0  0  0  0  0  0  0  0
   -0.1940   -1.3580   -0.8874 H   0  0  0  0  0  0  0  0  0  0  0  0
  1  2  1  0  0  0  0
  1  5  1  0  0  0  0
  2  8  1  0  0  0  0
  3  1  1  0  0  0  0
  4  1  1  0  0  0  0
  6  2  1  0  0  0  0
  6 10  1  0  0  0  0
  7  2  1  0  0  0  0
  9  6  1  0  0  0  0
  9 12  1  0  0  0  0
 11  6  1  0  0  0  0
 13  9  1  0  0  0  0
 14  9  1  0  0  0  0
M  END
$$$$
