14
butane_opt
C  -3.940756   0.284473   0.004224
C  -2.698963  -0.633255   0.058654
H  -4.844002  -0.287825  -0.050387
H  -3.900038   0.891323  -0.915990
H  -4.037749   0.913387   0.829756
C  -1.396697   0.169221   0.045871
H  -2.712375  -1.328799  -0.795001
H  -2.731999  -1.249985   0.924838
C  -0.172622  -0.685134   0.011823
H  -1.394543   0.884160   0.898983
H  -1.408723   0.781531  -0.853311
H  -0.099185  -1.346504   0.919464
H   0.803555  -0.044771  -0.146398
H  -0.207879  -1.291935  -0.817112
