14
butane_opt
C  -3.944104   0.252505   0.032761
C  -2.700911  -0.603404   0.029725
H  -4.864429  -0.363561   0.093402
H  -3.950739   0.915534  -0.881262
H  -3.982619   0.886052   0.847655
C  -1.401849   0.199370  -0.003329
H  -2.751647  -1.293543  -0.819856
H  -2.738812  -1.240510   0.925550
C  -0.152988  -0.702933   0.044303
H  -1.416942   0.859731   0.825471
H  -1.383222   0.872816  -0.943860
H  -0.152010  -1.220233   0.880966
H   0.716312  -0.167881   0.125780
H  -0.091362  -1.475994  -0.865622
