butane_opt
 OpenBabel08242015403D

 14 13  0  0  0  0  0  0  0  0999 V2000
   -3.9440    0.2723   -0.0254 C   0  0  0  0  0  0  0  0  0  0  0  0
   -2.6862   -0.6245    0.0636 C   0  0  0  0  0  0  0  0  0  0  0  0
   -4.8624   -0.3222    0.0386 H   0  0  0  0  0  0  0  0  0  0  0  0
   -4.0084    0.9054   -0.9052 H   0  0  0  0  0  0  0  0  0  0  0  0
   -3.9686    0.9112    0.8004 H   0  0  0  0  0  0  0  0  0  0  0  0
   -1.3960    0.1821    0.0666 C   0  0  0  0  0  0  0  0  0  0  0  0
   -2.6633   -1.2863   -0.7652 H   0  0  0  0  0  0  0  0  0  0  0  0
   -2.7115   -1.2971    0.9831 H   0  0  0  0  0  0  0  0  0  0  0  0
   -0.1766   -0.6867   -0.0022 C   0  0  0  0  0  0  0  0  0  0  0  0
   -1.3689    0.8914    0.9228 H   0  0  0  0  0  0  0  0  0  0  0  0
   -1.4388    0.7380   -0.7826 H   0  0  0  0  0  0  0  0  0  0  0  0
   -0.0931   -1.3393    0.9004 H   0  0  0  0  0  0  0  0  0  0  0  0
    0.7395   -0.0920   -0.1510 H   0  0  0  0  0  0  0  0  0  0  0  0
   -0.2129   -1.2925   -0.8342 H   0  0  0  0  0  0  0  0  0  0  0  0
  1  3  1  0  0  0  0
  1  2  1  0  0  0  0
  1  5  1  0  0  0  0
  2  6  1  0  0  0  0
  2  8  1  0  0  0  0
  4  1  1  0  0  0  0
  6 10  1  0  0  0  0
  7  2  1  0  0  0  0
  9  6  1  0  0  0  0
  9 12  1  0  0  0  0
 11  6  1  0  0  0  0
 13  9  1  0  0  0  0
 14  9  1  0  0  0  0
M  END
$$$$
