14
butane_opt
C  -3.922907   0.253439   0.005060
C  -2.705966  -0.597147   0.062844
H  -4.887028  -0.361308  -0.074431
H  -3.875653   0.828224  -0.869117
H  -3.977633   0.995534   0.913261
C  -1.409539   0.186309   0.022525
H  -2.761407  -1.241427  -0.802438
H  -2.730775  -1.249899   0.965154
C  -0.166883  -0.702911   0.026494
H  -1.439724   0.815400   0.825390
H  -1.420425   0.860558  -0.902825
H  -0.098255  -1.283064   0.870520
H   0.754664  -0.097519  -0.013699
H  -0.124406  -1.420371  -0.877714
