14
butane_opt
C  -3.953817   0.258459   0.035724
C  -2.709118  -0.614007   0.012741
H  -4.845990  -0.347471  -0.010860
H  -3.988775   0.805169  -0.794774
H  -3.946182   1.027735   0.975851
C  -1.406070   0.198791  -0.011055
H  -2.675498  -1.336570  -0.853348
H  -2.727076  -1.225985   0.908325
C  -0.152512  -0.695044   0.053662
H  -1.382494   0.850301   0.808944
H  -1.378710   0.809319  -0.883422
H  -0.043249  -1.445408   1.024320
H   0.740103  -0.121391  -0.065377
H  -0.118749  -1.261095  -0.737820
