butane_opt
 OpenBabel08242015403D

 14 13  0  0  0  0  0  0  0  0999 V2000
   -3.9271    0.2549    0.0399 C   0  0  0  0  0  0  0  0  0  0  0  0
   -2.7030   -0.6133    0.0041 C   0  0  0  0  0  0  0  0  0  0  0  0
   -4.8546   -0.3372    0.0281 H   0  0  0  0  0  0  0  0  0  0  0  0
   -4.0287    0.8055   -0.8191 H   0  0  0  0  0  0  0  0  0  0  0  0
   -3.9203    0.9619    0.9344 H   0  0  0  0  0  0  0  0  0  0  0  0
   -1.4144    0.2050   -0.0004 C   0  0  0  0  0  0  0  0  0  0  0  0
   -2.7036   -1.3485   -0.8741 H   0  0  0  0  0  0  0  0  0  0  0  0
   -2.6929   -1.1590    0.8495 H   0  0  0  0  0  0  0  0  0  0  0  0
   -0.1611   -0.7044    0.0605 C   0  0  0  0  0  0  0  0  0  0  0  0
   -1.4088    0.8330    0.8363 H   0  0  0  0  0  0  0  0  0  0  0  0
   -1.4213    0.8774   -0.9385 H   0  0  0  0  0  0  0  0  0  0  0  0
   -0.0759   -1.4281    1.0254 H   0  0  0  0  0  0  0  0  0  0  0  0
    0.7549   -0.1275   -0.1171 H   0  0  0  0  0  0  0  0  0  0  0  0
   -0.1982   -1.2550   -0.7160 H   0  0  0  0  0  0  0  0  0  0  0  0
  1  5  1  0  0  0  0
  2  1  1  0  0  0  0
  2  8  1  0  0  0  0
  3  1  1  0  0  0  0
  4  1  1  0  0  0  0
  6  2  1  0  0  0  0
  6  9  1  0  0  0  0
  6 10  1  0  0  0  0
  7  2  1  0  0  0  0
  9 12  1  0  0  0  0
 11  6  1  0  0  0  0
 13  9  1  0  0  0  0
 14  9  1  0  0  0  0
M  END
$$$$
