butane_opt
 OpenBabel08242015403D

 14 13  0  0  0  0  0  0  0  0999 V2000
   -3.9580    0.2743    0.0310 C   0  0  0  0  0  0  0  0  0  0  0  0
   -2.7017   -0.6315    0.0373 C   0  0  0  0  0  0  0  0  0  0  0  0
   -4.8561   -0.2960   -0.1137 H   0  0  0  0  0  0  0  0  0  0  0  0
   -3.9797    0.7759   -0.8086 H   0  0  0  0  0  0  0  0  0  0  0  0
   -4.0202    1.0721    0.9627 H   0  0  0  0  0  0  0  0  0  0  0  0
   -1.3976    0.1760   -0.0076 C   0  0  0  0  0  0  0  0  0  0  0  0
   -2.6960   -1.3100   -0.8189 H   0  0  0  0  0  0  0  0  0  0  0  0
   -2.6961   -1.2726    0.9281 H   0  0  0  0  0  0  0  0  0  0  0  0
   -0.1548   -0.6834    0.0430 C   0  0  0  0  0  0  0  0  0  0  0  0
   -1.3697    0.8021    0.8428 H   0  0  0  0  0  0  0  0  0  0  0  0
   -1.4210    0.8686   -0.9473 H   0  0  0  0  0  0  0  0  0  0  0  0
   -0.1445   -1.3488    0.9646 H   0  0  0  0  0  0  0  0  0  0  0  0
    0.8177   -0.0495    0.0041 H   0  0  0  0  0  0  0  0  0  0  0  0
   -0.1245   -1.3299   -0.8017 H   0  0  0  0  0  0  0  0  0  0  0  0
  1  2  1  0  0  0  0
  1  5  1  0  0  0  0
  2  8  1  0  0  0  0
  3  1  1  0  0  0  0
  4  1  1  0  0  0  0
  6  2  1  0  0  0  0
  6  9  1  0  0  0  0
  6 10  1  0  0  0  0
  7  2  1  0  0  0  0
  9 12  1  0  0  0  0
 11  6  1  0  0  0  0
 13  9  1  0  0  0  0
 14  9  1  0  0  0  0
M  END
$$$$
