14
butane_opt
C  -3.948168   0.252880  -0.010170
C  -2.699570  -0.613241   0.063262
H  -4.896345  -0.368406   0.034873
H  -3.967094   0.919004  -0.952666
H  -3.963242   0.889951   0.843972
C  -1.411424   0.210123   0.037428
H  -2.688032  -1.214407  -0.719335
H  -2.753249  -1.282298   1.013601
C  -0.153414  -0.709297   0.005542
H  -1.332314   0.877723   0.896853
H  -1.416693   0.822356  -0.838451
H  -0.068066  -1.225748   0.825441
H   0.720792  -0.125419   0.086634
H  -0.098583  -1.460361  -0.914139
