14
butane_opt
C  -3.962268   0.276024  -0.008661
C  -2.697171  -0.621564   0.086316
H  -4.844217  -0.306091  -0.113436
H  -3.890106   0.843204  -0.871034
H  -4.077553   0.972126   0.878635
C  -1.397300   0.170245   0.024471
H  -2.752647  -1.304872  -0.760284
H  -2.740870  -1.275188   0.979223
C  -0.154138  -0.684729   0.008346
H  -1.382531   0.866191   0.894192
H  -1.374851   0.800109  -0.859799
H  -0.115242  -1.277060   0.894761
H   0.799307  -0.062515  -0.031795
H  -0.130421  -1.398835  -0.903298
