butane_opt
 OpenBabel08242015403D

 14 13  0  0  0  0  0  0  0  0999 V2000
   -3.9457    0.2556    0.0237 C   0  0  0  0  0  0  0  0  0  0  0  0
   -2.7009   -0.5949    0.0255 C   0  0  0  0  0  0  0  0  0  0  0  0
   -4.8972   -0.3885    0.0016 H   0  0  0  0  0  0  0  0  0  0  0  0
   -3.8915    0.8401   -0.8535 H   0  0  0  0  0  0  0  0  0  0  0  0
   -3.9623    0.9342    0.8941 H   0  0  0  0  0  0  0  0  0  0  0  0
   -1.4059    0.2016    0.0150 C   0  0  0  0  0  0  0  0  0  0  0  0
   -2.7296   -1.2914   -0.8319 H   0  0  0  0  0  0  0  0  0  0  0  0
   -2.7046   -1.2426    0.9062 H   0  0  0  0  0  0  0  0  0  0  0  0
   -0.1626   -0.7118    0.0346 C   0  0  0  0  0  0  0  0  0  0  0  0
   -1.3966    0.9010    0.8794 H   0  0  0  0  0  0  0  0  0  0  0  0
   -1.3810    0.7744   -0.8420 H   0  0  0  0  0  0  0  0  0  0  0  0
   -0.0666   -1.4307    0.9667 H   0  0  0  0  0  0  0  0  0  0  0  0
    0.7574   -0.1184   -0.1225 H   0  0  0  0  0  0  0  0  0  0  0  0
   -0.1653   -1.2520   -0.7316 H   0  0  0  0  0  0  0  0  0  0  0  0
  1  2  1  0  0  0  0
  1  5  1  0  0  0  0
  2  8  1  0  0  0  0
  3  1  1  0  0  0  0
  4  1  1  0  0  0  0
  6  2  1  0  0  0  0
  6  9  1  0  0  0  0
  6 10  1  0  0  0  0
  7  2  1  0  0  0  0
  9 12  1  0  0  0  0
 11  6  1  0  0  0  0
 13  9  1  0  0  0  0
 14  9  1  0  0  0  0
M  END
$$$$
