14
butane_opt
C  -3.933873   0.253510   0.014740
C  -2.704799  -0.602738   0.034627
H  -4.855347  -0.370084  -0.011966
H  -3.937143   0.840500  -0.872915
H  -3.919617   0.929316   0.879003
C  -1.404807   0.203550   0.026702
H  -2.716554  -1.306148  -0.824917
H  -2.691771  -1.217745   0.922030
C  -0.170627  -0.711195   0.020109
H  -1.374437   0.918987   0.932861
H  -1.430385   0.840030  -0.875510
H  -0.101250  -1.438895   0.990399
H   0.712208  -0.118424  -0.105348
H  -0.136254  -1.269047  -0.740565
