butane_opt
 OpenBabel08242015403D

 14 13  0  0  0  0  0  0  0  0999 V2000
   -3.9572    0.2733    0.0036 C   0  0  0  0  0  0  0  0  0  0  0  0
   -2.7036   -0.6247    0.0747 C   0  0  0  0  0  0  0  0  0  0  0  0
   -4.8457   -0.2936    0.0278 H   0  0  0  0  0  0  0  0  0  0  0  0
   -3.9379    0.9600   -0.9586 H   0  0  0  0  0  0  0  0  0  0  0  0
   -4.0413    0.8629    0.7833 H   0  0  0  0  0  0  0  0  0  0  0  0
   -1.3969    0.1771    0.0207 C   0  0  0  0  0  0  0  0  0  0  0  0
   -2.7069   -1.2524   -0.7455 H   0  0  0  0  0  0  0  0  0  0  0  0
   -2.7326   -1.2774    0.9604 H   0  0  0  0  0  0  0  0  0  0  0  0
   -0.1540   -0.6947    0.0072 C   0  0  0  0  0  0  0  0  0  0  0  0
   -1.3346    0.8782    0.9007 H   0  0  0  0  0  0  0  0  0  0  0  0
   -1.3802    0.7822   -0.8567 H   0  0  0  0  0  0  0  0  0  0  0  0
   -0.1829   -1.1680    0.7935 H   0  0  0  0  0  0  0  0  0  0  0  0
    0.8079   -0.0524    0.1530 H   0  0  0  0  0  0  0  0  0  0  0  0
   -0.1343   -1.4767   -0.9076 H   0  0  0  0  0  0  0  0  0  0  0  0
  1  3  1  0  0  0  0
  1  2  1  0  0  0  0
  1  5  1  0  0  0  0
  2  8  1  0  0  0  0
  4  1  1  0  0  0  0
  6  2  1  0  0  0  0
  6 10  1  0  0  0  0
  7  2  1  0  0  0  0
  9  6  1  0  0  0  0
  9 13  1  0  0  0  0
  9 12  1  0  0  0  0
 11  6  1  0  0  0  0
 14  9  1  0  0  0  0
M  END
$$$$
