14
butane_opt
C  -3.925209   0.251602   0.035521
C  -2.701161  -0.597844   0.009944
H  -4.834440  -0.339271   0.009673
H  -3.932557   0.782578  -0.792876
H  -3.962408   0.954611   0.937269
C  -1.410062   0.202773  -0.006528
H  -2.751847  -1.286527  -0.841622
H  -2.723059  -1.214468   0.884813
C  -0.166663  -0.704712   0.048168
H  -1.369483   0.866881   0.861430
H  -1.447000   0.822516  -0.872267
H  -0.140772  -1.459545   1.039838
H   0.732753  -0.157108  -0.067043
H  -0.152003  -1.264114  -0.742040
