butane_opt
 OpenBabel08242015403D

 14 13  0  0  0  0  0  0  0  0999 V2000
   -3.9461    0.2710   -0.0182 C   0  0  0  0  0  0  0  0  0  0  0  0
   -2.6797   -0.6244    0.0737 C   0  0  0  0  0  0  0  0  0  0  0  0
   -4.8095   -0.3038   -0.0141 H   0  0  0  0  0  0  0  0  0  0  0  0
   -3.9430    0.8954   -0.9335 H   0  0  0  0  0  0  0  0  0  0  0  0
   -3.9873    0.9401    0.8482 H   0  0  0  0  0  0  0  0  0  0  0  0
   -1.4032    0.1747    0.0492 C   0  0  0  0  0  0  0  0  0  0  0  0
   -2.6549   -1.3122   -0.7748 H   0  0  0  0  0  0  0  0  0  0  0  0
   -2.7704   -1.2691    1.0053 H   0  0  0  0  0  0  0  0  0  0  0  0
   -0.1825   -0.6817    0.0046 C   0  0  0  0  0  0  0  0  0  0  0  0
   -1.3612    0.8714    0.9207 H   0  0  0  0  0  0  0  0  0  0  0  0
   -1.3933    0.8007   -0.8280 H   0  0  0  0  0  0  0  0  0  0  0  0
   -0.0936   -1.2981    0.9043 H   0  0  0  0  0  0  0  0  0  0  0  0
    0.7479   -0.0774   -0.1095 H   0  0  0  0  0  0  0  0  0  0  0  0
   -0.2270   -1.3843   -0.8943 H   0  0  0  0  0  0  0  0  0  0  0  0
  1  3  1  0  0  0  0
  1  2  1  0  0  0  0
  1  5  1  0  0  0  0
  2  8  1  0  0  0  0
  4  1  1  0  0  0  0
  6  2  1  0  0  0  0
  6 10  1  0  0  0  0
  7  2  1  0  0  0  0
  9  6  1  0  0  0  0
  9 12  1  0  0  0  0
 11  6  1  0  0  0  0
 13  9  1  0  0  0  0
 14  9  1  0  0  0  0
M  END
$$$$
