butane_opt
 OpenBabel08242015403D

 14 13  0  0  0  0  0  0  0  0999 V2000
   -3.9343    0.2545   -0.0147 C   0  0  0  0  0  0  0  0  0  0  0  0
   -2.7047   -0.6066    0.0893 C   0  0  0  0  0  0  0  0  0  0  0  0
   -4.8383   -0.3673   -0.1084 H   0  0  0  0  0  0  0  0  0  0  0  0
   -3.8489    0.7973   -0.8694 H   0  0  0  0  0  0  0  0  0  0  0  0
   -3.9784    0.9927    0.8955 H   0  0  0  0  0  0  0  0  0  0  0  0
   -1.4217    0.1952    0.0238 C   0  0  0  0  0  0  0  0  0  0  0  0
   -2.6953   -1.2158   -0.7378 H   0  0  0  0  0  0  0  0  0  0  0  0
   -2.7304   -1.2494    0.9907 H   0  0  0  0  0  0  0  0  0  0  0  0
   -0.1552   -0.7068    0.0036 C   0  0  0  0  0  0  0  0  0  0  0  0
   -1.3761    0.9202    0.9020 H   0  0  0  0  0  0  0  0  0  0  0  0
   -1.4495    0.7949   -0.8400 H   0  0  0  0  0  0  0  0  0  0  0  0
   -0.1672   -1.3083    0.8791 H   0  0  0  0  0  0  0  0  0  0  0  0
    0.7642   -0.0962   -0.0168 H   0  0  0  0  0  0  0  0  0  0  0  0
   -0.1122   -1.3835   -0.8765 H   0  0  0  0  0  0  0  0  0  0  0  0
  1  2  1  0  0  0  0
  1  5  1  0  0  0  0
  2  8  1  0  0  0  0
  3  1  1  0  0  0  0
  4  1  1  0  0  0  0
  6  2  1  0  0  0  0
  6 10  1  0  0  0  0
  7  2  1  0  0  0  0
  9  6  1  0  0  0  0
  9 12  1  0  0  0  0
 11  6  1  0  0  0  0
 13  9  1  0  0  0  0
 14  9  1  0  0  0  0
M  END
$$$$
