butane_opt
 OpenBabel08242015403D

 14 13  0  0  0  0  0  0  0  0999 V2000
   -3.9542    0.2558   -0.0238 C   0  0  0  0  0  0  0  0  0  0  0  0
   -2.7043   -0.6067    0.0799 C   0  0  0  0  0  0  0  0  0  0  0  0
   -4.9042   -0.3784   -0.0208 H   0  0  0  0  0  0  0  0  0  0  0  0
   -3.9269    0.8994   -0.9174 H   0  0  0  0  0  0  0  0  0  0  0  0
   -4.0252    0.8963    0.8163 H   0  0  0  0  0  0  0  0  0  0  0  0
   -1.3975    0.1956    0.0611 C   0  0  0  0  0  0  0  0  0  0  0  0
   -2.6992   -1.2556   -0.7858 H   0  0  0  0  0  0  0  0  0  0  0  0
   -2.7711   -1.1891    0.9541 H   0  0  0  0  0  0  0  0  0  0  0  0
   -0.1480   -0.7044   -0.0036 C   0  0  0  0  0  0  0  0  0  0  0  0
   -1.3014    0.8969    0.9388 H   0  0  0  0  0  0  0  0  0  0  0  0
   -1.4679    0.8085   -0.8049 H   0  0  0  0  0  0  0  0  0  0  0  0
   -0.0448   -1.3699    0.9159 H   0  0  0  0  0  0  0  0  0  0  0  0
    0.7360   -0.1211   -0.1515 H   0  0  0  0  0  0  0  0  0  0  0  0
   -0.1619   -1.3564   -0.8624 H   0  0  0  0  0  0  0  0  0  0  0  0
  1  3  1  0  0  0  0
  1  2  1  0  0  0  0
  1  5  1  0  0  0  0
  2  8  1  0  0  0  0
  4  1  1  0  0  0  0
  6  2  1  0  0  0  0
  6 10  1  0  0  0  0
  7  2  1  0  0  0  0
  9  6  1  0  0  0  0
  9 12  1  0  0  0  0
 11  6  1  0  0  0  0
 13  9  1  0  0  0  0
 14  9  1  0  0  0  0
M  END
$$$$
