butane_opt
 OpenBabel08242015403D

 14 13  0  0  0  0  0  0  0  0999 V2000
   -3.9580    0.2672   -0.0212 C   0  0  0  0  0  0  0  0  0  0  0  0
   -2.6902   -0.6308    0.0618 C   0  0  0  0  0  0  0  0  0  0  0  0
   -4.8828   -0.3021    0.0178 H   0  0  0  0  0  0  0  0  0  0  0  0
   -3.9887    0.9226   -0.9464 H   0  0  0  0  0  0  0  0  0  0  0  0
   -3.9888    0.9504    0.8548 H   0  0  0  0  0  0  0  0  0  0  0  0
   -1.4026    0.1879    0.0592 C   0  0  0  0  0  0  0  0  0  0  0  0
   -2.6612   -1.2926   -0.7648 H   0  0  0  0  0  0  0  0  0  0  0  0
   -2.7454   -1.3058    0.9691 H   0  0  0  0  0  0  0  0  0  0  0  0
   -0.1557   -0.6899    0.0045 C   0  0  0  0  0  0  0  0  0  0  0  0
   -1.2901    0.9146    0.9629 H   0  0  0  0  0  0  0  0  0  0  0  0
   -1.4165    0.7844   -0.7992 H   0  0  0  0  0  0  0  0  0  0  0  0
   -0.0649   -1.3563    0.9094 H   0  0  0  0  0  0  0  0  0  0  0  0
    0.7389   -0.1068   -0.1645 H   0  0  0  0  0  0  0  0  0  0  0  0
   -0.2409   -1.2906   -0.8438 H   0  0  0  0  0  0  0  0  0  0  0  0
  1  3  1  0  0  0  0
  1  2  1  0  0  0  0
  1  5  1  0  0  0  0
  2  8  1  0  0  0  0
  4  1  1  0  0  0  0
  6  2  1  0  0  0  0
  6 10  1  0  0  0  0
  7  2  1  0  0  0  0
  9  6  1  0  0  0  0
  9 12  1  0  0  0  0
 11  6  1  0  0  0  0
 13  9  1  0  0  0  0
 14  9  1  0  0  0  0
M  END
$$$$
