14
butane_opt
C  -3.928224   0.246341   0.036859
C  -2.698320  -0.605886   0.007461
H  -4.844015  -0.360752   0.006307
H  -3.943251   0.821191  -0.825980
H  -3.941705   0.988861   0.937442
C  -1.417800   0.205334  -0.001870
H  -2.766273  -1.271845  -0.843352
H  -2.657326  -1.192398   0.863828
C  -0.167974  -0.712095   0.049376
H  -1.440028   0.909220   0.867744
H  -1.409706   0.830192  -0.855436
H  -0.108337  -1.466998   1.042225
H   0.783248  -0.098098  -0.141568
H  -0.143803  -1.236232  -0.703176
