butane_opt
 OpenBabel08242015403D

 14 13  0  0  0  0  0  0  0  0999 V2000
   -3.9377    0.2795   -0.0034 C   0  0  0  0  0  0  0  0  0  0  0  0
   -2.6867   -0.6370    0.0545 C   0  0  0  0  0  0  0  0  0  0  0  0
   -4.8492   -0.3180    0.0183 H   0  0  0  0  0  0  0  0  0  0  0  0
   -3.9899    0.8792   -0.9036 H   0  0  0  0  0  0  0  0  0  0  0  0
   -3.9992    0.9247    0.8335 H   0  0  0  0  0  0  0  0  0  0  0  0
   -1.3968    0.1807    0.0374 C   0  0  0  0  0  0  0  0  0  0  0  0
   -2.6703   -1.2598   -0.7650 H   0  0  0  0  0  0  0  0  0  0  0  0
   -2.6991   -1.2775    0.9632 H   0  0  0  0  0  0  0  0  0  0  0  0
   -0.1822   -0.6848    0.0150 C   0  0  0  0  0  0  0  0  0  0  0  0
   -1.4216    0.9021    0.9075 H   0  0  0  0  0  0  0  0  0  0  0  0
   -1.3641    0.7508   -0.8288 H   0  0  0  0  0  0  0  0  0  0  0  0
   -0.1211   -1.3269    0.9245 H   0  0  0  0  0  0  0  0  0  0  0  0
    0.7414   -0.0569   -0.0935 H   0  0  0  0  0  0  0  0  0  0  0  0
   -0.2118   -1.3500   -0.8644 H   0  0  0  0  0  0  0  0  0  0  0  0
  1  3  1  0  0  0  0
  1  2  1  0  0  0  0
  1  5  1  0  0  0  0
  2  8  1  0  0  0  0
  4  1  1  0  0  0  0
  6  2  1  0  0  0  0
  6 10  1  0  0  0  0
  7  2  1  0  0  0  0
  9  6  1  0  0  0  0
  9 12  1  0  0  0  0
 11  6  1  0  0  0  0
 13  9  1  0  0  0  0
 14  9  1  0  0  0  0
M  END
$$$$
