14
butane_opt
C  -3.932519   0.264516   0.047596
C  -2.694835  -0.618792   0.005333
H  -4.796125  -0.315163   0.139694
H  -4.032153   0.916749  -0.846368
H  -3.916073   0.901314   0.901183
C  -1.408367   0.183841  -0.019595
H  -2.714212  -1.360424  -0.903607
H  -2.703977  -1.136422   0.836598
C  -0.170809  -0.690320   0.064011
H  -1.391616   0.819504   0.812362
H  -1.359119   0.829396  -0.904989
H  -0.233005  -1.369629   1.000787
H   0.748875  -0.087431   0.017481
H  -0.143776  -1.338053  -0.781105
