butane_opt
 OpenBabel08242015403D

 14 13  0  0  0  0  0  0  0  0999 V2000
   -3.9387    0.2591    0.0351 C   0  0  0  0  0  0  0  0  0  0  0  0
   -2.7179   -0.6003    0.0359 C   0  0  0  0  0  0  0  0  0  0  0  0
   -4.8754   -0.3813   -0.0718 H   0  0  0  0  0  0  0  0  0  0  0  0
   -3.9435    0.7552   -0.7883 H   0  0  0  0  0  0  0  0  0  0  0  0
   -3.9843    1.0261    0.9558 H   0  0  0  0  0  0  0  0  0  0  0  0
   -1.4023    0.1970   -0.0201 C   0  0  0  0  0  0  0  0  0  0  0  0
   -2.7090   -1.2981   -0.8339 H   0  0  0  0  0  0  0  0  0  0  0  0
   -2.7348   -1.2404    0.9156 H   0  0  0  0  0  0  0  0  0  0  0  0
   -0.1495   -0.7092    0.0546 C   0  0  0  0  0  0  0  0  0  0  0  0
   -1.3943    0.8367    0.8062 H   0  0  0  0  0  0  0  0  0  0  0  0
   -1.3861    0.8590   -0.9532 H   0  0  0  0  0  0  0  0  0  0  0  0
   -0.1299   -1.2994    0.9473 H   0  0  0  0  0  0  0  0  0  0  0  0
    0.7388   -0.1409    0.0044 H   0  0  0  0  0  0  0  0  0  0  0  0
   -0.0963   -1.3542   -0.7961 H   0  0  0  0  0  0  0  0  0  0  0  0
  1  2  1  0  0  0  0
  1  5  1  0  0  0  0
  2  8  1  0  0  0  0
  3  1  1  0  0  0  0
  4  1  1  0  0  0  0
  6  2  1  0  0  0  0
  6  9  1  0  0  0  0
  6 10  1  0  0  0  0
  7  2  1  0  0  0  0
  9 12  1  0  0  0  0
 11  6  1  0  0  0  0
 13  9  1  0  0  0  0
 14  9  1  0  0  0  0
M  END
$$$$
