butane_opt
 OpenBabel08242015403D

 14 13  0  0  0  0  0  0  0  0999 V2000
   -3.9444    0.2553    0.0069 C   0  0  0  0  0  0  0  0  0  0  0  0
   -2.7133   -0.6102    0.0553 C   0  0  0  0  0  0  0  0  0  0  0  0
   -4.8320   -0.3105    0.0362 H   0  0  0  0  0  0  0  0  0  0  0  0
   -3.9630    0.9359   -0.9430 H   0  0  0  0  0  0  0  0  0  0  0  0
   -3.9419    0.8327    0.8360 H   0  0  0  0  0  0  0  0  0  0  0  0
   -1.4041    0.2030    0.0222 C   0  0  0  0  0  0  0  0  0  0  0  0
   -2.7711   -1.2392   -0.7719 H   0  0  0  0  0  0  0  0  0  0  0  0
   -2.7681   -1.2483    0.9774 H   0  0  0  0  0  0  0  0  0  0  0  0
   -0.1479   -0.7016    0.0219 C   0  0  0  0  0  0  0  0  0  0  0  0
   -1.3920    0.8339    0.8543 H   0  0  0  0  0  0  0  0  0  0  0  0
   -1.4130    0.8472   -0.8605 H   0  0  0  0  0  0  0  0  0  0  0  0
   -0.0964   -1.2165    0.8329 H   0  0  0  0  0  0  0  0  0  0  0  0
    0.7545   -0.1407    0.1145 H   0  0  0  0  0  0  0  0  0  0  0  0
   -0.0907   -1.5224   -0.9356 H   0  0  0  0  0  0  0  0  0  0  0  0
  1  3  1  0  0  0  0
  1  2  1  0  0  0  0
  1  5  1  0  0  0  0
  2  8  1  0  0  0  0
  4  1  1  0  0  0  0
  6  2  1  0  0  0  0
  6 10  1  0  0  0  0
  7  2  1  0  0  0  0
  9  6  1  0  0  0  0
  9 13  1  0  0  0  0
  9 12  1  0  0  0  0
 11  6  1  0  0  0  0
 14  9  1  0  0  0  0
M  END
$$$$
