14
butane_opt
C  -3.940621   0.254898  -0.003930
C  -2.706641  -0.609999   0.066383
H  -4.882596  -0.341844  -0.041376
H  -3.974549   0.859261  -0.893489
H  -4.001025   0.958827   0.876529
C  -1.398217   0.201565   0.025594
H  -2.688510  -1.222112  -0.750403
H  -2.743076  -1.316745   1.006452
C  -0.160536  -0.703073   0.008530
H  -1.323662   0.880070   0.900408
H  -1.408480   0.829608  -0.880343
H  -0.116659  -1.258973   0.877940
H   0.713090  -0.142809   0.069410
H  -0.113017  -1.449808  -0.886408
