butane_opt
 OpenBabel08242015403D

 14 13  0  0  0  0  0  0  0  0999 V2000
   -3.9433    0.2738   -0.0082 C   0  0  0  0  0  0  0  0  0  0  0  0
   -2.6921   -0.6224    0.0579 C   0  0  0  0  0  0  0  0  0  0  0  0
   -4.8529   -0.3192    0.0354 H   0  0  0  0  0  0  0  0  0  0  0  0
   -3.9547    0.9185   -0.9254 H   0  0  0  0  0  0  0  0  0  0  0  0
   -3.9687    0.8995    0.8319 H   0  0  0  0  0  0  0  0  0  0  0  0
   -1.4018    0.1724    0.0469 C   0  0  0  0  0  0  0  0  0  0  0  0
   -2.6584   -1.3001   -0.7838 H   0  0  0  0  0  0  0  0  0  0  0  0
   -2.7378   -1.2727    0.9347 H   0  0  0  0  0  0  0  0  0  0  0  0
   -0.1650   -0.6880   -0.0015 C   0  0  0  0  0  0  0  0  0  0  0  0
   -1.3898    0.9125    0.9468 H   0  0  0  0  0  0  0  0  0  0  0  0
   -1.4490    0.7413   -0.7877 H   0  0  0  0  0  0  0  0  0  0  0  0
   -0.1429   -1.3442    0.9435 H   0  0  0  0  0  0  0  0  0  0  0  0
    0.7437   -0.0682   -0.1059 H   0  0  0  0  0  0  0  0  0  0  0  0
   -0.1904   -1.2599   -0.7884 H   0  0  0  0  0  0  0  0  0  0  0  0
  1  3  1  0  0  0  0
  1  2  1  0  0  0  0
  1  5  1  0  0  0  0
  2  8  1  0  0  0  0
  4  1  1  0  0  0  0
  6  2  1  0  0  0  0
  6 10  1  0  0  0  0
  7  2  1  0  0  0  0
  9  6  1  0  0  0  0
  9 12  1  0  0  0  0
 11  6  1  0  0  0  0
 13  9  1  0  0  0  0
 14  9  1  0  0  0  0
M  END
$$$$
