14
butane_opt
C  -3.929318   0.267087   0.043013
C  -2.699808  -0.622485  -0.001899
H  -4.807029  -0.305055   0.044151
H  -3.991612   0.844146  -0.815061
H  -3.930229   0.968650   0.933876
C  -1.416422   0.178356   0.002370
H  -2.736595  -1.300136  -0.875934
H  -2.696674  -1.193224   0.835586
C  -0.171769  -0.694535   0.053446
H  -1.426697   0.837314   0.835452
H  -1.323891   0.843968  -0.909677
H  -0.063257  -1.418517   1.044008
H   0.764447  -0.077967  -0.094207
H  -0.211445  -1.206304  -0.704868
