14
butane_opt
C  -3.942769   0.273821  -0.007341
C  -2.694675  -0.619557   0.080146
H  -4.848570  -0.313610  -0.115893
H  -3.851122   0.887050  -0.931064
H  -4.012801   0.959724   0.836395
C  -1.406156   0.168136   0.039029
H  -2.673360  -1.273745  -0.733844
H  -2.717585  -1.308001   0.994968
C  -0.176757  -0.686253  -0.003105
H  -1.323121   0.915924   0.932909
H  -1.404884   0.741567  -0.825592
H  -0.116740  -1.278131   0.882639
H   0.766616  -0.096513  -0.053185
H  -0.205897  -1.331686  -0.851260
