14
butane_opt
C  -3.945715   0.251478   0.029506
C  -2.700530  -0.598979   0.019493
H  -4.846933  -0.338331  -0.026667
H  -3.930868   0.775091  -0.785636
H  -3.924650   0.994505   0.950891
C  -1.415129   0.184260  -0.006920
H  -2.762576  -1.262748  -0.816308
H  -2.716015  -1.193048   0.905998
C  -0.149453  -0.699632   0.048703
H  -1.453368   0.894817   0.850022
H  -1.372448   0.824329  -0.889839
H  -0.091463  -1.422025   0.993563
H   0.754400  -0.124942  -0.085892
H  -0.151853  -1.268268  -0.734805
