14
butane_opt
C  -3.948456   0.277147  -0.018249
C  -2.689949  -0.633424   0.059454
H  -4.834103  -0.323558   0.160161
H  -4.004382   0.994816  -0.979209
H  -3.938360   0.869939   0.791500
C  -1.403577   0.166620   0.057607
H  -2.657360  -1.319360  -0.782848
H  -2.710898  -1.245955   0.940782
C  -0.170720  -0.673195   0.003518
H  -1.358526   0.858538   0.942649
H  -1.391130   0.817834  -0.841979
H  -0.111382  -1.266027   0.899488
H   0.728199  -0.094006  -0.032426
H  -0.201186  -1.404503  -0.897893
