14
butane_opt
C  -3.932300   0.253358  -0.007202
C  -2.710026  -0.591876   0.057285
H  -4.857171  -0.347716   0.038035
H  -3.893468   0.892676  -0.926588
H  -3.933718   0.879067   0.848485
C  -1.409159   0.182505   0.046712
H  -2.739677  -1.334134  -0.815155
H  -2.729180  -1.178260   0.911213
C  -0.156570  -0.702297   0.008663
H  -1.375718   0.914134   0.929986
H  -1.486513   0.828911  -0.852627
H  -0.056320  -1.403016   0.956967
H   0.758654  -0.123903  -0.103843
H  -0.217636  -1.295965  -0.801334
