butane_opt
 OpenBabel08242015403D

 14 13  0  0  0  0  0  0  0  0999 V2000
   -3.9357    0.2703    0.0233 C   0  0  0  0  0  0  0  0  0  0  0  0
   -2.6946   -0.6161    0.0518 C   0  0  0  0  0  0  0  0  0  0  0  0
   -4.8530   -0.3271   -0.1052 H   0  0  0  0  0  0  0  0  0  0  0  0
   -3.9105    0.7742   -0.8020 H   0  0  0  0  0  0  0  0  0  0  0  0
   -4.0538    1.0265    0.9339 H   0  0  0  0  0  0  0  0  0  0  0  0
   -1.4036    0.1766   -0.0045 C   0  0  0  0  0  0  0  0  0  0  0  0
   -2.7023   -1.3155   -0.8173 H   0  0  0  0  0  0  0  0  0  0  0  0
   -2.6993   -1.2441    0.9036 H   0  0  0  0  0  0  0  0  0  0  0  0
   -0.1785   -0.6920    0.0418 C   0  0  0  0  0  0  0  0  0  0  0  0
   -1.3563    0.8420    0.8384 H   0  0  0  0  0  0  0  0  0  0  0  0
   -1.3325    0.8548   -0.9403 H   0  0  0  0  0  0  0  0  0  0  0  0
   -0.1002   -1.3242    0.9348 H   0  0  0  0  0  0  0  0  0  0  0  0
    0.7401   -0.1160   -0.0151 H   0  0  0  0  0  0  0  0  0  0  0  0
   -0.2034   -1.3126   -0.8208 H   0  0  0  0  0  0  0  0  0  0  0  0
  1  2  1  0  0  0  0
  1  5  1  0  0  0  0
  2  8  1  0  0  0  0
  3  1  1  0  0  0  0
  4  1  1  0  0  0  0
  6  9  1  0  0  0  0
  6  2  1  0  0  0  0
  6 10  1  0  0  0  0
  7  2  1  0  0  0  0
  9 12  1  0  0  0  0
 11  6  1  0  0  0  0
 13  9  1  0  0  0  0
 14  9  1  0  0  0  0
M  END
$$$$
