14
butane_opt
C  -3.957217   0.269072  -0.015645
C  -2.697540  -0.634134   0.060362
H  -4.844956  -0.284490   0.026964
H  -4.029325   0.937759  -0.934934
H  -3.978616   0.904785   0.839516
C  -1.399265   0.188988   0.052232
H  -2.710508  -1.260656  -0.731399
H  -2.735470  -1.275869   0.958496
C  -0.156602  -0.696026   0.001440
H  -1.343282   0.903928   0.931070
H  -1.384429   0.783653  -0.821958
H  -0.081941  -1.309067   0.890649
H   0.779660  -0.054794  -0.053375
H  -0.172343  -1.345049  -0.854825
