14
butane_opt
C  -3.951393   0.282700  -0.012782
C  -2.682915  -0.629246   0.065246
H  -4.866357  -0.336048   0.083337
H  -4.005577   0.938309  -0.945978
H  -3.972828   0.851015   0.792705
C  -1.400476   0.167490   0.040389
H  -2.678376  -1.281082  -0.779134
H  -2.726841  -1.293774   0.969333
C  -0.170688  -0.684567   0.007964
H  -1.310595   0.938259   0.953450
H  -1.433007   0.774281  -0.816863
H  -0.165865  -1.253583   0.873272
H   0.767294  -0.079120  -0.017809
H  -0.167119  -1.365862  -0.890678
