14
butane_opt
C  -3.944727   0.254811   0.037136
C  -2.709955  -0.610701   0.006606
H  -4.840445  -0.310647   0.030102
H  -3.976761   0.779592  -0.771266
H  -3.982951   1.006299   0.965292
C  -1.405436   0.198873  -0.008426
H  -2.745467  -1.314369  -0.880148
H  -2.716059  -1.220552   0.868742
C  -0.139718  -0.697514   0.051067
H  -1.426148   0.866081   0.825081
H  -1.402655   0.808532  -0.877211
H  -0.118327  -1.478180   1.051506
H   0.725684  -0.140948  -0.092072
H  -0.136439  -1.213434  -0.689318
