14
butane_opt
C  -3.925026   0.247836  -0.001999
C  -2.696991  -0.604089   0.046957
H  -4.837581  -0.351761   0.135328
H  -3.963564   1.015170  -1.010352
H  -3.910358   0.821696   0.796872
C  -1.423543   0.197339   0.046052
H  -2.698208  -1.275402  -0.790223
H  -2.760636  -1.245378   0.981674
C  -0.167186  -0.703618   0.008055
H  -1.423700   0.920211   0.936636
H  -1.393363   0.802885  -0.824095
H  -0.055344  -1.266467   0.874912
H   0.755386  -0.133013   0.005708
H  -0.179919  -1.405587  -0.872190
