14
butane_opt
C  -3.932997   0.255580  -0.009753
C  -2.691416  -0.603339   0.065491
H  -4.895636  -0.392214   0.117967
H  -3.981230   0.973453  -0.982362
H  -3.916739   0.840960   0.793746
C  -1.418771   0.194172   0.037596
H  -2.666958  -1.260346  -0.800634
H  -2.733207  -1.272145   0.982976
C  -0.165015  -0.703483   0.005858
H  -1.357743   0.937449   0.942631
H  -1.428514   0.776000  -0.818302
H  -0.171927  -1.247862   0.838097
H   0.756286  -0.106396   0.021048
H  -0.116218  -1.439485  -0.862764
