butane_opt
 OpenBabel08242015403D

 14 13  0  0  0  0  0  0  0  0999 V2000
   -3.9630    0.2703   -0.0123 C   0  0  0  0  0  0  0  0  0  0  0  0
   -2.6927   -0.6291    0.0735 C   0  0  0  0  0  0  0  0  0  0  0  0
   -4.8532   -0.3175   -0.0436 H   0  0  0  0  0  0  0  0  0  0  0  0
   -3.8783    0.8773   -0.9191 H   0  0  0  0  0  0  0  0  0  0  0  0
   -4.0551    0.9689    0.8754 H   0  0  0  0  0  0  0  0  0  0  0  0
   -1.3993    0.1909    0.0419 C   0  0  0  0  0  0  0  0  0  0  0  0
   -2.7220   -1.2863   -0.7556 H   0  0  0  0  0  0  0  0  0  0  0  0
   -2.7324   -1.3212    1.0042 H   0  0  0  0  0  0  0  0  0  0  0  0
   -0.1561   -0.6859    0.0067 C   0  0  0  0  0  0  0  0  0  0  0  0
   -1.3514    0.8297    0.8723 H   0  0  0  0  0  0  0  0  0  0  0  0
   -1.3982    0.8362   -0.8464 H   0  0  0  0  0  0  0  0  0  0  0  0
   -0.0667   -1.2709    0.8527 H   0  0  0  0  0  0  0  0  0  0  0  0
    0.7284   -0.0986   -0.0084 H   0  0  0  0  0  0  0  0  0  0  0  0
   -0.1683   -1.4389   -0.9094 H   0  0  0  0  0  0  0  0  0  0  0  0
  1  2  1  0  0  0  0
  1  5  1  0  0  0  0
  2  8  1  0  0  0  0
  3  1  1  0  0  0  0
  4  1  1  0  0  0  0
  6  2  1  0  0  0  0
  6 10  1  0  0  0  0
  7  2  1  0  0  0  0
  9  6  1  0  0  0  0
  9 12  1  0  0  0  0
 11  6  1  0  0  0  0
 13  9  1  0  0  0  0
 14  9  1  0  0  0  0
M  END
$$$$
