butane_opt
 OpenBabel08242015403D

 14 13  0  0  0  0  0  0  0  0999 V2000
   -3.9625    0.2755   -0.0169 C   0  0  0  0  0  0  0  0  0  0  0  0
   -2.6934   -0.6256    0.0938 C   0  0  0  0  0  0  0  0  0  0  0  0
   -4.8859   -0.3085   -0.0967 H   0  0  0  0  0  0  0  0  0  0  0  0
   -3.9359    0.7907   -0.8731 H   0  0  0  0  0  0  0  0  0  0  0  0
   -4.0726    0.9866    0.8604 H   0  0  0  0  0  0  0  0  0  0  0  0
   -1.3888    0.1737    0.0300 C   0  0  0  0  0  0  0  0  0  0  0  0
   -2.6497   -1.2657   -0.7491 H   0  0  0  0  0  0  0  0  0  0  0  0
   -2.7299   -1.2627    1.0002 H   0  0  0  0  0  0  0  0  0  0  0  0
   -0.1620   -0.6815   -0.0054 C   0  0  0  0  0  0  0  0  0  0  0  0
   -1.3659    0.8589    0.8961 H   0  0  0  0  0  0  0  0  0  0  0  0
   -1.4171    0.7823   -0.8357 H   0  0  0  0  0  0  0  0  0  0  0  0
   -0.1093   -1.3047    0.8782 H   0  0  0  0  0  0  0  0  0  0  0  0
    0.7667   -0.0791    0.0297 H   0  0  0  0  0  0  0  0  0  0  0  0
   -0.1472   -1.3787   -0.8773 H   0  0  0  0  0  0  0  0  0  0  0  0
  1  2  1  0  0  0  0
  1  5  1  0  0  0  0
  2  8  1  0  0  0  0
  3  1  1  0  0  0  0
  4  1  1  0  0  0  0
  6  2  1  0  0  0  0
  6 10  1  0  0  0  0
  7  2  1  0  0  0  0
  9 13  1  0  0  0  0
  9  6  1  0  0  0  0
  9 12  1  0  0  0  0
 11  6  1  0  0  0  0
 14  9  1  0  0  0  0
M  END
$$$$
