butane_opt
 OpenBabel08242015403D

 14 13  0  0  0  0  0  0  0  0999 V2000
   -3.9334    0.2561    0.0421 C   0  0  0  0  0  0  0  0  0  0  0  0
   -2.6945   -0.6105    0.0136 C   0  0  0  0  0  0  0  0  0  0  0  0
   -4.8524   -0.3732    0.0672 H   0  0  0  0  0  0  0  0  0  0  0  0
   -3.9684    0.8275   -0.8245 H   0  0  0  0  0  0  0  0  0  0  0  0
   -3.9195    0.9275    0.9222 H   0  0  0  0  0  0  0  0  0  0  0  0
   -1.4131    0.2050   -0.0256 C   0  0  0  0  0  0  0  0  0  0  0  0
   -2.7442   -1.2337   -0.8038 H   0  0  0  0  0  0  0  0  0  0  0  0
   -2.6261   -1.2604    0.8997 H   0  0  0  0  0  0  0  0  0  0  0  0
   -0.1738   -0.7067    0.0538 C   0  0  0  0  0  0  0  0  0  0  0  0
   -1.4361    0.8588    0.8317 H   0  0  0  0  0  0  0  0  0  0  0  0
   -1.3782    0.8580   -0.9455 H   0  0  0  0  0  0  0  0  0  0  0  0
   -0.1799   -1.2779    0.9243 H   0  0  0  0  0  0  0  0  0  0  0  0
    0.7281   -0.1096    0.1649 H   0  0  0  0  0  0  0  0  0  0  0  0
   -0.0660   -1.4203   -0.8088 H   0  0  0  0  0  0  0  0  0  0  0  0
  1  3  1  0  0  0  0
  1  5  1  0  0  0  0
  2  1  1  0  0  0  0
  2  8  1  0  0  0  0
  4  1  1  0  0  0  0
  6  2  1  0  0  0  0
  6  9  1  0  0  0  0
  6 10  1  0  0  0  0
  7  2  1  0  0  0  0
  9 13  1  0  0  0  0
  9 12  1  0  0  0  0
 11  6  1  0  0  0  0
 14  9  1  0  0  0  0
M  END
$$$$
