14
butane_opt
C  -3.947974   0.277920   0.019322
C  -2.690583  -0.620295   0.034117
H  -4.846831  -0.328717   0.052770
H  -3.967393   0.831375  -0.839446
H  -3.958445   0.973309   0.876345
C  -1.401766   0.162392   0.001601
H  -2.682346  -1.287237  -0.790512
H  -2.691835  -1.303851   0.973636
C  -0.169810  -0.677328   0.033244
H  -1.441375   0.848601   0.870364
H  -1.377403   0.808227  -0.910590
H  -0.187959  -1.272089   0.928887
H   0.757011  -0.062296   0.067059
H  -0.118259  -1.386220  -0.849758
