butane_opt
 OpenBabel08242015403D

 14 13  0  0  0  0  0  0  0  0999 V2000
   -3.9461    0.2700    0.0513 C   0  0  0  0  0  0  0  0  0  0  0  0
   -2.6881   -0.6297    0.0049 C   0  0  0  0  0  0  0  0  0  0  0  0
   -4.8264   -0.3099    0.1084 H   0  0  0  0  0  0  0  0  0  0  0  0
   -3.9650    0.8977   -0.8314 H   0  0  0  0  0  0  0  0  0  0  0  0
   -3.9295    0.9612    0.9384 H   0  0  0  0  0  0  0  0  0  0  0  0
   -1.4006    0.1775   -0.0280 C   0  0  0  0  0  0  0  0  0  0  0  0
   -2.7133   -1.3126   -0.8593 H   0  0  0  0  0  0  0  0  0  0  0  0
   -2.6334   -1.2540    0.8711 H   0  0  0  0  0  0  0  0  0  0  0  0
   -0.1830   -0.6857    0.0688 C   0  0  0  0  0  0  0  0  0  0  0  0
   -1.4009    0.8062    0.7734 H   0  0  0  0  0  0  0  0  0  0  0  0
   -1.3588    0.9081   -0.9774 H   0  0  0  0  0  0  0  0  0  0  0  0
   -0.2228   -1.2550    0.9401 H   0  0  0  0  0  0  0  0  0  0  0  0
    0.7390   -0.0596    0.1575 H   0  0  0  0  0  0  0  0  0  0  0  0
   -0.1052   -1.4398   -0.8479 H   0  0  0  0  0  0  0  0  0  0  0  0
  1  3  1  0  0  0  0
  1  5  1  0  0  0  0
  2  1  1  0  0  0  0
  2  8  1  0  0  0  0
  4  1  1  0  0  0  0
  6  2  1  0  0  0  0
  6  9  1  0  0  0  0
  6 10  1  0  0  0  0
  7  2  1  0  0  0  0
  9 13  1  0  0  0  0
  9 12  1  0  0  0  0
 11  6  1  0  0  0  0
 14  9  1  0  0  0  0
M  END
$$$$
