14
butane_opt
C  -3.918156   0.252587   0.040953
C  -2.703440  -0.602298   0.004053
H  -4.855458  -0.362809   0.128090
H  -4.005742   0.894205  -0.855180
H  -3.916806   0.905298   0.869880
C  -1.417074   0.195650   0.001076
H  -2.768831  -1.314841  -0.887367
H  -2.683906  -1.235141   0.881014
C  -0.161484  -0.701811   0.058769
H  -1.469012   0.833477   0.807246
H  -1.388363   0.889733  -0.918388
H  -0.133783  -1.315656   0.945132
H   0.721260  -0.133414   0.003508
H  -0.112846  -1.368355  -0.799376
