14
butane_opt
C  -3.951091   0.255255   0.034303
C  -2.699396  -0.609487   0.023222
H  -4.849245  -0.344072   0.087783
H  -3.976300   0.868347  -0.840037
H  -3.963957   0.919510   0.884734
C  -1.399467   0.198691  -0.014873
H  -2.718767  -1.294957  -0.804856
H  -2.721838  -1.223841   0.909324
C  -0.155635  -0.695718   0.053375
H  -1.444020   0.836117   0.803711
H  -1.366692   0.840783  -0.916334
H  -0.127594  -1.274734   0.932225
H   0.699580  -0.134691   0.093090
H  -0.086270  -1.456183  -0.867991
