butane_opt
 OpenBabel08242015403D

 14 13  0  0  0  0  0  0  0  0999 V2000
   -3.9442    0.2626    0.0379 C   0  0  0  0  0  0  0  0  0  0  0  0
   -2.7151   -0.6202    0.0122 C   0  0  0  0  0  0  0  0  0  0  0  0
   -4.8686   -0.3361    0.0187 H   0  0  0  0  0  0  0  0  0  0  0  0
   -3.9873    0.8263   -0.8522 H   0  0  0  0  0  0  0  0  0  0  0  0
   -3.9576    1.0141    0.9519 H   0  0  0  0  0  0  0  0  0  0  0  0
   -1.3977    0.1956   -0.0026 C   0  0  0  0  0  0  0  0  0  0  0  0
   -2.7199   -1.3135   -0.8850 H   0  0  0  0  0  0  0  0  0  0  0  0
   -2.7214   -1.1924    0.8651 H   0  0  0  0  0  0  0  0  0  0  0  0
   -0.1582   -0.6996    0.0477 C   0  0  0  0  0  0  0  0  0  0  0  0
   -1.3767    0.8775    0.8598 H   0  0  0  0  0  0  0  0  0  0  0  0
   -1.3821    0.7926   -0.8737 H   0  0  0  0  0  0  0  0  0  0  0  0
   -0.0492   -1.4739    1.0404 H   0  0  0  0  0  0  0  0  0  0  0  0
    0.7537   -0.1274   -0.1114 H   0  0  0  0  0  0  0  0  0  0  0  0
   -0.1318   -1.1966   -0.6894 H   0  0  0  0  0  0  0  0  0  0  0  0
  1  5  1  0  0  0  0
  2  1  1  0  0  0  0
  2  8  1  0  0  0  0
  3  1  1  0  0  0  0
  4  1  1  0  0  0  0
  6  2  1  0  0  0  0
  6  9  1  0  0  0  0
  6 10  1  0  0  0  0
  7  2  1  0  0  0  0
  9 12  1  0  0  0  0
 11  6  1  0  0  0  0
 13  9  1  0  0  0  0
 14  9  1  0  0  0  0
M  END
$$$$
