butane_opt
 OpenBabel08242015403D

 14 13  0  0  0  0  0  0  0  0999 V2000
   -3.9536    0.2634    0.0086 C   0  0  0  0  0  0  0  0  0  0  0  0
   -2.7176   -0.6063    0.0458 C   0  0  0  0  0  0  0  0  0  0  0  0
   -4.8686   -0.3670    0.1300 H   0  0  0  0  0  0  0  0  0  0  0  0
   -3.9636    0.9702   -0.9612 H   0  0  0  0  0  0  0  0  0  0  0  0
   -3.9259    0.7922    0.7611 H   0  0  0  0  0  0  0  0  0  0  0  0
   -1.3960    0.1892    0.0342 C   0  0  0  0  0  0  0  0  0  0  0  0
   -2.7175   -1.2772   -0.8025 H   0  0  0  0  0  0  0  0  0  0  0  0
   -2.7288   -1.2133    0.9246 H   0  0  0  0  0  0  0  0  0  0  0  0
   -0.1433   -0.6974    0.0120 C   0  0  0  0  0  0  0  0  0  0  0  0
   -1.3391    0.8931    0.8859 H   0  0  0  0  0  0  0  0  0  0  0  0
   -1.4404    0.8073   -0.8233 H   0  0  0  0  0  0  0  0  0  0  0  0
   -0.1086   -1.2959    0.9056 H   0  0  0  0  0  0  0  0  0  0  0  0
    0.7170   -0.1540    0.0774 H   0  0  0  0  0  0  0  0  0  0  0  0
   -0.1199   -1.4208   -0.8742 H   0  0  0  0  0  0  0  0  0  0  0  0
  1  2  1  0  0  0  0
  1  3  1  0  0  0  0
  1  5  1  0  0  0  0
  2  8  1  0  0  0  0
  4  1  1  0  0  0  0
  6  2  1  0  0  0  0
  6 10  1  0  0  0  0
  7  2  1  0  0  0  0
  9  6  1  0  0  0  0
  9 13  1  0  0  0  0
  9 12  1  0  0  0  0
 11  6  1  0  0  0  0
 14  9  1  0  0  0  0
M  END
$$$$
