butane_opt
 OpenBabel08242015403D

 14 13  0  0  0  0  0  0  0  0999 V2000
   -3.9602    0.2546    0.0306 C   0  0  0  0  0  0  0  0  0  0  0  0
   -2.7041   -0.6121    0.0275 C   0  0  0  0  0  0  0  0  0  0  0  0
   -4.8615   -0.3242    0.0158 H   0  0  0  0  0  0  0  0  0  0  0  0
   -3.9411    0.8828   -0.8721 H   0  0  0  0  0  0  0  0  0  0  0  0
   -3.9910    0.9261    0.8594 H   0  0  0  0  0  0  0  0  0  0  0  0
   -1.3970    0.1898    0.0167 C   0  0  0  0  0  0  0  0  0  0  0  0
   -2.7313   -1.3066   -0.8430 H   0  0  0  0  0  0  0  0  0  0  0  0
   -2.7160   -1.1580    0.8695 H   0  0  0  0  0  0  0  0  0  0  0  0
   -0.1453   -0.6993    0.0325 C   0  0  0  0  0  0  0  0  0  0  0  0
   -1.4290    0.8841    0.8708 H   0  0  0  0  0  0  0  0  0  0  0  0
   -1.4138    0.8161   -0.8985 H   0  0  0  0  0  0  0  0  0  0  0  0
   -0.0757   -1.4075    0.9934 H   0  0  0  0  0  0  0  0  0  0  0  0
    0.7633   -0.1105   -0.0729 H   0  0  0  0  0  0  0  0  0  0  0  0
   -0.1507   -1.2703   -0.7576 H   0  0  0  0  0  0  0  0  0  0  0  0
  1  5  1  0  0  0  0
  2  1  1  0  0  0  0
  2  8  1  0  0  0  0
  3  1  1  0  0  0  0
  4  1  1  0  0  0  0
  6  2  1  0  0  0  0
  6  9  1  0  0  0  0
  6 10  1  0  0  0  0
  7  2  1  0  0  0  0
  9 12  1  0  0  0  0
 11  6  1  0  0  0  0
 13  9  1  0  0  0  0
 14  9  1  0  0  0  0
M  END
$$$$
