14
butane_opt
C  -3.952599   0.276721   0.034861
C  -2.686378  -0.633889   0.027893
H  -4.831565  -0.284179   0.109618
H  -4.005840   0.859866  -0.842735
H  -3.982771   0.947493   0.889078
C  -1.399886   0.180481  -0.030055
H  -2.732179  -1.314246  -0.823288
H  -2.717398  -1.256443   0.930779
C  -0.160251  -0.683395   0.050177
H  -1.396175   0.855606   0.845509
H  -1.394286   0.784758  -0.914583
H  -0.272668  -1.242173   0.933697
H   0.790253  -0.082813   0.156655
H  -0.097075  -1.411538  -0.840476
