14
butane_opt
C  -3.944730   0.261800   0.032215
C  -2.711461  -0.618796   0.009567
H  -4.854384  -0.317850   0.074832
H  -3.985481   0.825382  -0.823521
H  -3.942447   0.999058   0.934839
C  -1.402003   0.191056  -0.002729
H  -2.708542  -1.285590  -0.829389
H  -2.718852  -1.239744   0.885635
C  -0.161844  -0.692795   0.046315
H  -1.390809   0.859374   0.848368
H  -1.345438   0.839468  -0.884616
H  -0.090702  -1.418250   1.009089
H   0.733042  -0.113411  -0.034681
H  -0.085289  -1.315154  -0.750553
