14
butane_opt
C  -3.940596   0.277568   0.033084
C  -2.696176  -0.632947   0.030633
H  -4.805176  -0.265783  -0.086014
H  -3.947397   0.734396  -0.775511
H  -3.984965   1.107219   1.001493
C  -1.404285   0.177874  -0.022065
H  -2.679109  -1.330584  -0.817426
H  -2.744801  -1.305354   0.942227
C  -0.171861  -0.685229   0.051253
H  -1.375400   0.806778   0.812777
H  -1.376033   0.842067  -0.933199
H  -0.168359  -1.327355   0.960663
H   0.778559  -0.076954   0.018420
H  -0.175963  -1.288939  -0.771733
