14
butane_opt
C  -3.938669   0.254837   0.054644
C  -2.690716  -0.600806  -0.007177
H  -4.880828  -0.356218   0.159746
H  -3.993661   0.898615  -0.849848
H  -3.862982   0.891260   0.907725
C  -1.413296   0.190673  -0.021294
H  -2.730730  -1.326249  -0.911637
H  -2.717970  -1.198103   0.843291
C  -0.167133  -0.695810   0.065425
H  -1.401684   0.880464   0.847867
H  -1.390312   0.818711  -0.934508
H  -0.200753  -1.411072   1.016236
H   0.734643  -0.117477   0.024853
H  -0.062597  -1.337656  -0.757469
