butane_opt
 OpenBabel08242015403D

 14 13  0  0  0  0  0  0  0  0999 V2000
   -3.9269    0.2497    0.0384 C   0  0  0  0  0  0  0  0  0  0  0  0
   -2.6998   -0.6002    0.0235 C   0  0  0  0  0  0  0  0  0  0  0  0
   -4.8535   -0.3472   -0.0190 H   0  0  0  0  0  0  0  0  0  0  0  0
   -3.9586    0.7622   -0.7680 H   0  0  0  0  0  0  0  0  0  0  0  0
   -3.9321    1.0181    0.9686 H   0  0  0  0  0  0  0  0  0  0  0  0
   -1.4092    0.2008   -0.0272 C   0  0  0  0  0  0  0  0  0  0  0  0
   -2.7873   -1.2873   -0.8659 H   0  0  0  0  0  0  0  0  0  0  0  0
   -2.7060   -1.2136    0.9008 H   0  0  0  0  0  0  0  0  0  0  0  0
   -0.1639   -0.7024    0.0561 C   0  0  0  0  0  0  0  0  0  0  0  0
   -1.3911    0.8601    0.8179 H   0  0  0  0  0  0  0  0  0  0  0  0
   -1.4184    0.8608   -0.9479 H   0  0  0  0  0  0  0  0  0  0  0  0
   -0.1808   -1.4190    1.0087 H   0  0  0  0  0  0  0  0  0  0  0  0
    0.7113   -0.1371    0.0594 H   0  0  0  0  0  0  0  0  0  0  0  0
   -0.1017   -1.3559   -0.7871 H   0  0  0  0  0  0  0  0  0  0  0  0
  1  5  1  0  0  0  0
  2  1  1  0  0  0  0
  2  8  1  0  0  0  0
  3  1  1  0  0  0  0
  4  1  1  0  0  0  0
  6  2  1  0  0  0  0
  6  9  1  0  0  0  0
  6 10  1  0  0  0  0
  7  2  1  0  0  0  0
  9 13  1  0  0  0  0
  9 12  1  0  0  0  0
 11  6  1  0  0  0  0
 14  9  1  0  0  0  0
M  END
$$$$
