butane_opt
 OpenBabel08242015403D

 14 13  0  0  0  0  0  0  0  0999 V2000
   -3.9444    0.2542    0.0030 C   0  0  0  0  0  0  0  0  0  0  0  0
   -2.7065   -0.6108    0.0550 C   0  0  0  0  0  0  0  0  0  0  0  0
   -4.8812   -0.3453    0.0636 H   0  0  0  0  0  0  0  0  0  0  0  0
   -3.9575    0.9228   -0.9585 H   0  0  0  0  0  0  0  0  0  0  0  0
   -3.9437    0.8516    0.8102 H   0  0  0  0  0  0  0  0  0  0  0  0
   -1.4130    0.2079    0.0279 C   0  0  0  0  0  0  0  0  0  0  0  0
   -2.6734   -1.2365   -0.7652 H   0  0  0  0  0  0  0  0  0  0  0  0
   -2.7313   -1.2854    0.9931 H   0  0  0  0  0  0  0  0  0  0  0  0
   -0.1492   -0.6963    0.0142 C   0  0  0  0  0  0  0  0  0  0  0  0
   -1.3844    0.8868    0.9085 H   0  0  0  0  0  0  0  0  0  0  0  0
   -1.3927    0.7918   -0.8260 H   0  0  0  0  0  0  0  0  0  0  0  0
   -0.1308   -1.2728    0.8725 H   0  0  0  0  0  0  0  0  0  0  0  0
    0.7238   -0.1576    0.0448 H   0  0  0  0  0  0  0  0  0  0  0  0
   -0.0898   -1.4930   -0.9243 H   0  0  0  0  0  0  0  0  0  0  0  0
  1  2  1  0  0  0  0
  1  3  1  0  0  0  0
  1  5  1  0  0  0  0
  2  8  1  0  0  0  0
  4  1  1  0  0  0  0
  6  2  1  0  0  0  0
  6 10  1  0  0  0  0
  7  2  1  0  0  0  0
  9  6  1  0  0  0  0
  9 13  1  0  0  0  0
  9 12  1  0  0  0  0
 11  6  1  0  0  0  0
 14  9  1  0  0  0  0
M  END
$$$$
