14
butane_opt
C  -3.931169   0.255527  -0.021066
C  -2.702053  -0.610910   0.072624
H  -4.808434  -0.325931   0.034651
H  -3.931445   0.922183  -0.963813
H  -3.925633   0.885992   0.816305
C  -1.418462   0.195796   0.062773
H  -2.658383  -1.304740  -0.797352
H  -2.754497  -1.244758   0.976677
C  -0.165537  -0.698006  -0.003836
H  -1.397231   0.887841   0.936333
H  -1.421826   0.826348  -0.816775
H  -0.043331  -1.364677   0.886847
H   0.756812  -0.092550  -0.079134
H  -0.237631  -1.361824  -0.878105
