butane_opt
 OpenBabel08242015403D

 14 13  0  0  0  0  0  0  0  0999 V2000
   -3.9581    0.2591    0.0396 C   0  0  0  0  0  0  0  0  0  0  0  0
   -2.6987   -0.6113    0.0343 C   0  0  0  0  0  0  0  0  0  0  0  0
   -4.8474   -0.3507   -0.0916 H   0  0  0  0  0  0  0  0  0  0  0  0
   -3.8912    0.7674   -0.7818 H   0  0  0  0  0  0  0  0  0  0  0  0
   -4.0110    1.0458    0.9918 H   0  0  0  0  0  0  0  0  0  0  0  0
   -1.4057    0.1940   -0.0261 C   0  0  0  0  0  0  0  0  0  0  0  0
   -2.7747   -1.3109   -0.8565 H   0  0  0  0  0  0  0  0  0  0  0  0
   -2.7046   -1.2248    0.9007 H   0  0  0  0  0  0  0  0  0  0  0  0
   -0.1493   -0.6926    0.0554 C   0  0  0  0  0  0  0  0  0  0  0  0
   -1.4327    0.8235    0.7698 H   0  0  0  0  0  0  0  0  0  0  0  0
   -1.3606    0.8349   -0.9124 H   0  0  0  0  0  0  0  0  0  0  0  0
   -0.1229   -1.3648    0.9852 H   0  0  0  0  0  0  0  0  0  0  0  0
    0.7315   -0.1308   -0.0113 H   0  0  0  0  0  0  0  0  0  0  0  0
   -0.0706   -1.3518   -0.7832 H   0  0  0  0  0  0  0  0  0  0  0  0
  1  5  1  0  0  0  0
  2  1  1  0  0  0  0
  2  8  1  0  0  0  0
  3  1  1  0  0  0  0
  4  1  1  0  0  0  0
  6  2  1  0  0  0  0
  6  9  1  0  0  0  0
  6 10  1  0  0  0  0
  7  2  1  0  0  0  0
  9 12  1  0  0  0  0
 11  6  1  0  0  0  0
 13  9  1  0  0  0  0
 14  9  1  0  0  0  0
M  END
$$$$
