butane_opt
 OpenBabel08242015403D

 14 13  0  0  0  0  0  0  0  0999 V2000
   -3.9433    0.2697   -0.0088 C   0  0  0  0  0  0  0  0  0  0  0  0
   -2.6833   -0.6244    0.0631 C   0  0  0  0  0  0  0  0  0  0  0  0
   -4.8074   -0.3040   -0.0165 H   0  0  0  0  0  0  0  0  0  0  0  0
   -3.9403    0.8784   -0.9118 H   0  0  0  0  0  0  0  0  0  0  0  0
   -4.0252    0.9184    0.8212 H   0  0  0  0  0  0  0  0  0  0  0  0
   -1.4088    0.1766    0.0421 C   0  0  0  0  0  0  0  0  0  0  0  0
   -2.7131   -1.2789   -0.7980 H   0  0  0  0  0  0  0  0  0  0  0  0
   -2.7301   -1.2811    0.9645 H   0  0  0  0  0  0  0  0  0  0  0  0
   -0.1736   -0.6870    0.0070 C   0  0  0  0  0  0  0  0  0  0  0  0
   -1.3394    0.9491    0.9530 H   0  0  0  0  0  0  0  0  0  0  0  0
   -1.4487    0.7636   -0.7949 H   0  0  0  0  0  0  0  0  0  0  0  0
   -0.0421   -1.3749    0.9335 H   0  0  0  0  0  0  0  0  0  0  0  0
    0.7626   -0.0680   -0.1181 H   0  0  0  0  0  0  0  0  0  0  0  0
   -0.2406   -1.2855   -0.8206 H   0  0  0  0  0  0  0  0  0  0  0  0
  1  2  1  0  0  0  0
  1  5  1  0  0  0  0
  2  8  1  0  0  0  0
  3  1  1  0  0  0  0
  4  1  1  0  0  0  0
  6  2  1  0  0  0  0
  6 10  1  0  0  0  0
  7  2  1  0  0  0  0
  9  6  1  0  0  0  0
  9 12  1  0  0  0  0
 11  6  1  0  0  0  0
 13  9  1  0  0  0  0
 14  9  1  0  0  0  0
M  END
$$$$
