14
butane_opt
C  -3.955609   0.254444  -0.000593
C  -2.705298  -0.603317   0.043379
H  -4.885621  -0.351636   0.132163
H  -3.989923   0.956762  -0.952342
H  -3.926813   0.815577   0.807961
C  -1.409998   0.194034   0.033683
H  -2.697614  -1.200238  -0.770892
H  -2.731766  -1.297256   0.985769
C  -0.140195  -0.699424   0.016981
H  -1.361880   0.904946   0.915098
H  -1.403839   0.776725  -0.832485
H  -0.085889  -1.235167   0.844665
H   0.740024  -0.169487   0.076069
H  -0.138224  -1.426503  -0.899490
