butane_opt
 OpenBabel08242015403D

 14 13  0  0  0  0  0  0  0  0999 V2000
   -3.9563    0.2765    0.0432 C   0  0  0  0  0  0  0  0  0  0  0  0
   -2.7006   -0.6305    0.0073 C   0  0  0  0  0  0  0  0  0  0  0  0
   -4.8779   -0.3333    0.0287 H   0  0  0  0  0  0  0  0  0  0  0  0
   -3.9998    0.8710   -0.8297 H   0  0  0  0  0  0  0  0  0  0  0  0
   -4.0095    0.9550    0.9245 H   0  0  0  0  0  0  0  0  0  0  0  0
   -1.3938    0.1776   -0.0016 C   0  0  0  0  0  0  0  0  0  0  0  0
   -2.7016   -1.3454   -0.8828 H   0  0  0  0  0  0  0  0  0  0  0  0
   -2.6289   -1.1881    0.8578 H   0  0  0  0  0  0  0  0  0  0  0  0
   -0.1624   -0.6887    0.0482 C   0  0  0  0  0  0  0  0  0  0  0  0
   -1.4094    0.8739    0.8380 H   0  0  0  0  0  0  0  0  0  0  0  0
   -1.3244    0.8041   -0.9060 H   0  0  0  0  0  0  0  0  0  0  0  0
   -0.1070   -1.4377    1.0443 H   0  0  0  0  0  0  0  0  0  0  0  0
    0.7958   -0.0764   -0.0629 H   0  0  0  0  0  0  0  0  0  0  0  0
   -0.1998   -1.2122   -0.7217 H   0  0  0  0  0  0  0  0  0  0  0  0
  1  5  1  0  0  0  0
  2  1  1  0  0  0  0
  2  8  1  0  0  0  0
  3  1  1  0  0  0  0
  4  1  1  0  0  0  0
  6  2  1  0  0  0  0
  6  9  1  0  0  0  0
  6 10  1  0  0  0  0
  7  2  1  0  0  0  0
  9 12  1  0  0  0  0
 11  6  1  0  0  0  0
 13  9  1  0  0  0  0
 14  9  1  0  0  0  0
M  END
$$$$
