14
butane_opt
C  -3.949126   0.257975  -0.002220
C  -2.708433  -0.613539   0.074111
H  -4.856702  -0.354009   0.061095
H  -3.975647   0.903264  -0.926326
H  -3.998399   0.869920   0.804885
C  -1.401813   0.210799   0.024819
H  -2.649887  -1.297559  -0.773428
H  -2.740958  -1.264452   0.990409
C  -0.151380  -0.701636   0.012313
H  -1.370530   0.838935   0.841346
H  -1.409505   0.830530  -0.889905
H  -0.160290  -1.169441   0.814699
H   0.717531  -0.152780   0.136505
H  -0.041324  -1.525028  -0.943158
