14
butane_opt
C  -3.946925   0.275199  -0.008418
C  -2.690263  -0.635901   0.070685
H  -4.881894  -0.325110   0.045383
H  -3.971003   0.994839  -0.943841
H  -3.962365   0.906678   0.829069
C  -1.400771   0.173077   0.034486
H  -2.704887  -1.285796  -0.761577
H  -2.668017  -1.305581   0.993383
C  -0.171541  -0.679597   0.008490
H  -1.391788   0.842195   0.883609
H  -1.408734   0.824524  -0.898881
H  -0.154448  -1.159245   0.807693
H   0.744068  -0.064927   0.131183
H  -0.118241  -1.491876  -0.934594
