14
butane_opt
C  -3.959814   0.260906  -0.006060
C  -2.708846  -0.606086   0.079446
H  -4.869437  -0.340339   0.041300
H  -3.923946   0.917100  -0.957837
H  -3.960704   0.831441   0.807317
C  -1.395009   0.197557   0.018721
H  -2.739415  -1.243375  -0.748442
H  -2.735576  -1.289998   0.988451
C  -0.149492  -0.705294   0.012600
H  -1.339580   0.923881   0.911618
H  -1.424916   0.804976  -0.856125
H  -0.162683  -1.183868   0.806397
H   0.744368  -0.122326   0.129058
H  -0.056010  -1.537643  -0.962009
