14
butane_opt
C  -3.939765   0.257539   0.041237
C  -2.702382  -0.594294   0.030541
H  -4.870646  -0.354536  -0.101581
H  -3.924285   0.708809  -0.760159
H  -3.948785   1.024099   0.984920
C  -1.410808   0.189692  -0.026049
H  -2.729217  -1.289331  -0.858859
H  -2.693897  -1.188707   0.874947
C  -0.159586  -0.701145   0.052772
H  -1.378306   0.839686   0.823174
H  -1.359311   0.808839  -0.937666
H  -0.184010  -1.442751   1.026780
H   0.743868  -0.129614  -0.022830
H  -0.122801  -1.274807  -0.749075
