14
butane_opt
C  -3.945100   0.245446   0.039090
C  -2.706063  -0.606366   0.007403
H  -4.853694  -0.339335   0.130066
H  -4.031670   0.883710  -0.825309
H  -3.915223   0.939987   0.919538
C  -1.400622   0.205754  -0.026544
H  -2.798977  -1.253796  -0.824559
H  -2.682095  -1.242569   0.907024
C  -0.152376  -0.707637   0.064620
H  -1.449366   0.882563   0.817193
H  -1.393332   0.828449  -0.939885
H  -0.144172  -1.254385   0.925686
H   0.724130  -0.147107   0.108800
H  -0.024133  -1.421802  -0.805448
