14
butane_opt
C  -3.937440   0.261101   0.038869
C  -2.694048  -0.602737   0.002551
H  -4.866960  -0.347496   0.017065
H  -3.980852   0.819695  -0.819533
H  -3.927854   0.989279   0.944980
C  -1.407630   0.181734  -0.005240
H  -2.743382  -1.279272  -0.835763
H  -2.676540  -1.234319   0.901323
C  -0.177526  -0.696031   0.053477
H  -1.399392   0.847823   0.833192
H  -1.317227   0.809743  -0.884048
H  -0.085190  -1.429926   1.006667
H   0.766252  -0.079748  -0.062650
H  -0.190990  -1.292227  -0.727199
