14
butane_opt
C  -3.955420   0.275030   0.015551
C  -2.706776  -0.624646   0.033531
H  -4.894079  -0.313395   0.055442
H  -3.978462   0.875296  -0.868587
H  -3.958945   0.952665   0.909022
C  -1.394274   0.178390   0.022881
H  -2.712207  -1.336242  -0.855435
H  -2.775117  -1.233759   0.907421
C  -0.151369  -0.696475   0.029930
H  -1.392103   0.843770   0.865625
H  -1.365006   0.861904  -0.913439
H  -0.079527  -1.342511   0.937833
H   0.783974  -0.084819  -0.032174
H  -0.163707  -1.276933  -0.774546
