butane_opt
 OpenBabel08242015403D

 14 13  0  0  0  0  0  0  0  0999 V2000
   -3.9405    0.2631   -0.0043 C   0  0  0  0  0  0  0  0  0  0  0  0
   -2.6934   -0.6109    0.0629 C   0  0  0  0  0  0  0  0  0  0  0  0
   -4.8499   -0.3237    0.0834 H   0  0  0  0  0  0  0  0  0  0  0  0
   -3.9376    0.9905   -0.9793 H   0  0  0  0  0  0  0  0  0  0  0  0
   -3.9531    0.8357    0.7837 H   0  0  0  0  0  0  0  0  0  0  0  0
   -1.4086    0.1725    0.0366 C   0  0  0  0  0  0  0  0  0  0  0  0
   -2.7172   -1.2979   -0.8025 H   0  0  0  0  0  0  0  0  0  0  0  0
   -2.7061   -1.2257    0.9543 H   0  0  0  0  0  0  0  0  0  0  0  0
   -0.1659   -0.6877    0.0082 C   0  0  0  0  0  0  0  0  0  0  0  0
   -1.4062    0.8796    0.9164 H   0  0  0  0  0  0  0  0  0  0  0  0
   -1.4529    0.7704   -0.7840 H   0  0  0  0  0  0  0  0  0  0  0  0
   -0.0980   -1.2649    0.8906 H   0  0  0  0  0  0  0  0  0  0  0  0
    0.7773   -0.0757    0.0062 H   0  0  0  0  0  0  0  0  0  0  0  0
   -0.1865   -1.3978   -0.8858 H   0  0  0  0  0  0  0  0  0  0  0  0
  1  2  1  0  0  0  0
  1  3  1  0  0  0  0
  1  5  1  0  0  0  0
  2  8  1  0  0  0  0
  4  1  1  0  0  0  0
  6  2  1  0  0  0  0
  6 10  1  0  0  0  0
  7  2  1  0  0  0  0
  9  6  1  0  0  0  0
  9 12  1  0  0  0  0
 11  6  1  0  0  0  0
 13  9  1  0  0  0  0
 14  9  1  0  0  0  0
M  END
$$$$
