butane_opt
 OpenBabel08242015403D

 14 13  0  0  0  0  0  0  0  0999 V2000
   -3.9704    0.2757    0.0317 C   0  0  0  0  0  0  0  0  0  0  0  0
   -2.6950   -0.6330    0.0107 C   0  0  0  0  0  0  0  0  0  0  0  0
   -4.8635   -0.3214    0.0356 H   0  0  0  0  0  0  0  0  0  0  0  0
   -4.0037    0.8112   -0.8205 H   0  0  0  0  0  0  0  0  0  0  0  0
   -3.9797    1.0290    0.9567 H   0  0  0  0  0  0  0  0  0  0  0  0
   -1.3965    0.1801   -0.0043 C   0  0  0  0  0  0  0  0  0  0  0  0
   -2.7061   -1.3287   -0.8296 H   0  0  0  0  0  0  0  0  0  0  0  0
   -2.6613   -1.2067    0.8490 H   0  0  0  0  0  0  0  0  0  0  0  0
   -0.1525   -0.6875    0.0492 C   0  0  0  0  0  0  0  0  0  0  0  0
   -1.3135    0.8697    0.8617 H   0  0  0  0  0  0  0  0  0  0  0  0
   -1.3700    0.7933   -0.8825 H   0  0  0  0  0  0  0  0  0  0  0  0
   -0.1356   -1.4442    1.0766 H   0  0  0  0  0  0  0  0  0  0  0  0
    0.7759   -0.0879   -0.1056 H   0  0  0  0  0  0  0  0  0  0  0  0
   -0.1921   -1.2076   -0.7223 H   0  0  0  0  0  0  0  0  0  0  0  0
  1  3  1  0  0  0  0
  1  5  1  0  0  0  0
  2  1  1  0  0  0  0
  2  8  1  0  0  0  0
  4  1  1  0  0  0  0
  6  2  1  0  0  0  0
  6  9  1  0  0  0  0
  6 10  1  0  0  0  0
  7  2  1  0  0  0  0
  9 12  1  0  0  0  0
 11  6  1  0  0  0  0
 13  9  1  0  0  0  0
 14  9  1  0  0  0  0
M  END
$$$$
