butane_opt
 OpenBabel08242015403D

 14 13  0  0  0  0  0  0  0  0999 V2000
   -3.9499    0.2743   -0.0009 C   0  0  0  0  0  0  0  0  0  0  0  0
   -2.7090   -0.6321    0.0571 C   0  0  0  0  0  0  0  0  0  0  0  0
   -4.8465   -0.2870   -0.0378 H   0  0  0  0  0  0  0  0  0  0  0  0
   -3.9226    0.8196   -0.8340 H   0  0  0  0  0  0  0  0  0  0  0  0
   -4.0176    1.0196    0.9177 H   0  0  0  0  0  0  0  0  0  0  0  0
   -1.3934    0.1839    0.0263 C   0  0  0  0  0  0  0  0  0  0  0  0
   -2.6770   -1.3193   -0.8027 H   0  0  0  0  0  0  0  0  0  0  0  0
   -2.6901   -1.2607    0.9498 H   0  0  0  0  0  0  0  0  0  0  0  0
   -0.1618   -0.6864    0.0190 C   0  0  0  0  0  0  0  0  0  0  0  0
   -1.3472    0.7981    0.8494 H   0  0  0  0  0  0  0  0  0  0  0  0
   -1.3761    0.8423   -0.8722 H   0  0  0  0  0  0  0  0  0  0  0  0
   -0.1174   -1.3351    0.9235 H   0  0  0  0  0  0  0  0  0  0  0  0
    0.7225   -0.1060   -0.0400 H   0  0  0  0  0  0  0  0  0  0  0  0
   -0.1829   -1.3205   -0.8189 H   0  0  0  0  0  0  0  0  0  0  0  0
  1  2  1  0  0  0  0
  1  5  1  0  0  0  0
  2  8  1  0  0  0  0
  3  1  1  0  0  0  0
  4  1  1  0  0  0  0
  6  2  1  0  0  0  0
  6 10  1  0  0  0  0
  7  2  1  0  0  0  0
  9  6  1  0  0  0  0
  9 12  1  0  0  0  0
 11  6  1  0  0  0  0
 13  9  1  0  0  0  0
 14  9  1  0  0  0  0
M  END
$$$$
