butane_opt
 OpenBabel08242015403D

 14 13  0  0  0  0  0  0  0  0999 V2000
   -3.9477    0.2615   -0.0049 C   0  0  0  0  0  0  0  0  0  0  0  0
   -2.6976   -0.6104    0.0663 C   0  0  0  0  0  0  0  0  0  0  0  0
   -4.8627   -0.3597    0.0122 H   0  0  0  0  0  0  0  0  0  0  0  0
   -3.9659    0.8959   -0.9110 H   0  0  0  0  0  0  0  0  0  0  0  0
   -3.9481    0.8630    0.8382 H   0  0  0  0  0  0  0  0  0  0  0  0
   -1.4100    0.1905    0.0264 C   0  0  0  0  0  0  0  0  0  0  0  0
   -2.6607   -1.1940   -0.7404 H   0  0  0  0  0  0  0  0  0  0  0  0
   -2.7336   -1.3088    1.0123 H   0  0  0  0  0  0  0  0  0  0  0  0
   -0.1571   -0.7009    0.0087 C   0  0  0  0  0  0  0  0  0  0  0  0
   -1.3512    0.8866    0.9026 H   0  0  0  0  0  0  0  0  0  0  0  0
   -1.4141    0.8318   -0.8730 H   0  0  0  0  0  0  0  0  0  0  0  0
   -0.1638   -1.1806    0.8271 H   0  0  0  0  0  0  0  0  0  0  0  0
    0.7486   -0.1255    0.1332 H   0  0  0  0  0  0  0  0  0  0  0  0
   -0.1153   -1.4793   -0.9345 H   0  0  0  0  0  0  0  0  0  0  0  0
  1  3  1  0  0  0  0
  1  2  1  0  0  0  0
  1  5  1  0  0  0  0
  2  8  1  0  0  0  0
  4  1  1  0  0  0  0
  6  2  1  0  0  0  0
  6 10  1  0  0  0  0
  7  2  1  0  0  0  0
  9  6  1  0  0  0  0
  9 13  1  0  0  0  0
  9 12  1  0  0  0  0
 11  6  1  0  0  0  0
 14  9  1  0  0  0  0
M  END
$$$$
