14
butane_opt
C  -3.930261   0.249834   0.006019
C  -2.711908  -0.600110   0.058065
H  -4.823026  -0.343328   0.039855
H  -3.952989   0.902182  -0.896929
H  -3.943704   0.886171   0.836183
C  -1.416330   0.192892   0.017752
H  -2.676158  -1.298461  -0.785087
H  -2.743424  -1.236349   0.945732
C  -0.152807  -0.700242   0.023000
H  -1.397788   0.874400   0.893268
H  -1.417251   0.886040  -0.896964
H  -0.151077  -1.240238   0.869391
H   0.737081  -0.153369   0.050229
H  -0.115542  -1.462708  -0.886998
