14
butane_opt
C  -3.948809   0.273034  -0.016906
C  -2.688932  -0.629219   0.062205
H  -4.839175  -0.292003   0.110001
H  -4.005442   0.971911  -0.975806
H  -3.898828   0.868827   0.795801
C  -1.411375   0.177390   0.056047
H  -2.676335  -1.308969  -0.783349
H  -2.704628  -1.276517   0.942246
C  -0.169017  -0.681855   0.006156
H  -1.347882   0.861521   0.903391
H  -1.403576   0.757727  -0.810083
H  -0.088951  -1.262024   0.876621
H   0.760475  -0.094800  -0.040332
H  -0.211310  -1.355408  -0.877808
