butane_opt
 OpenBabel08242015403D

 14 13  0  0  0  0  0  0  0  0999 V2000
   -3.9432    0.2743    0.0347 C   0  0  0  0  0  0  0  0  0  0  0  0
   -2.6890   -0.6292    0.0338 C   0  0  0  0  0  0  0  0  0  0  0  0
   -4.8013   -0.3011   -0.0627 H   0  0  0  0  0  0  0  0  0  0  0  0
   -3.8979    0.7956   -0.8056 H   0  0  0  0  0  0  0  0  0  0  0  0
   -3.9990    1.0362    0.9401 H   0  0  0  0  0  0  0  0  0  0  0  0
   -1.4024    0.1827   -0.0057 C   0  0  0  0  0  0  0  0  0  0  0  0
   -2.7147   -1.3312   -0.8696 H   0  0  0  0  0  0  0  0  0  0  0  0
   -2.6916   -1.2306    0.8994 H   0  0  0  0  0  0  0  0  0  0  0  0
   -0.1809   -0.6904    0.0439 C   0  0  0  0  0  0  0  0  0  0  0  0
   -1.3518    0.7871    0.7968 H   0  0  0  0  0  0  0  0  0  0  0  0
   -1.3821    0.8318   -0.9091 H   0  0  0  0  0  0  0  0  0  0  0  0
   -0.1980   -1.3351    0.9731 H   0  0  0  0  0  0  0  0  0  0  0  0
    0.7478   -0.0816   -0.0343 H   0  0  0  0  0  0  0  0  0  0  0  0
   -0.1511   -1.2845   -0.7513 H   0  0  0  0  0  0  0  0  0  0  0  0
  1  5  1  0  0  0  0
  2  1  1  0  0  0  0
  2  8  1  0  0  0  0
  3  1  1  0  0  0  0
  4  1  1  0  0  0  0
  6  2  1  0  0  0  0
  6  9  1  0  0  0  0
  6 10  1  0  0  0  0
  7  2  1  0  0  0  0
  9 12  1  0  0  0  0
 11  6  1  0  0  0  0
 13  9  1  0  0  0  0
 14  9  1  0  0  0  0
M  END
$$$$
