butane_opt
 OpenBabel08242015403D

 14 13  0  0  0  0  0  0  0  0999 V2000
   -3.9265    0.2570    0.0183 C   0  0  0  0  0  0  0  0  0  0  0  0
   -2.6956   -0.6118    0.0360 C   0  0  0  0  0  0  0  0  0  0  0  0
   -4.8460   -0.3184    0.1102 H   0  0  0  0  0  0  0  0  0  0  0  0
   -3.9967    0.9051   -0.8791 H   0  0  0  0  0  0  0  0  0  0  0  0
   -3.9111    0.8815    0.8611 H   0  0  0  0  0  0  0  0  0  0  0  0
   -1.4209    0.1857   -0.0005 C   0  0  0  0  0  0  0  0  0  0  0  0
   -2.7188   -1.2569   -0.7925 H   0  0  0  0  0  0  0  0  0  0  0  0
   -2.7637   -1.2726    0.9590 H   0  0  0  0  0  0  0  0  0  0  0  0
   -0.1649   -0.6992    0.0354 C   0  0  0  0  0  0  0  0  0  0  0  0
   -1.4290    0.9288    0.8672 H   0  0  0  0  0  0  0  0  0  0  0  0
   -1.4017    0.8295   -0.9043 H   0  0  0  0  0  0  0  0  0  0  0  0
   -0.1491   -1.2241    0.8777 H   0  0  0  0  0  0  0  0  0  0  0  0
    0.7539   -0.1106    0.1333 H   0  0  0  0  0  0  0  0  0  0  0  0
   -0.0705   -1.4202   -0.8710 H   0  0  0  0  0  0  0  0  0  0  0  0
  1  2  1  0  0  0  0
  1  3  1  0  0  0  0
  1  5  1  0  0  0  0
  2  8  1  0  0  0  0
  4  1  1  0  0  0  0
  6  9  1  0  0  0  0
  6  2  1  0  0  0  0
  6 10  1  0  0  0  0
  7  2  1  0  0  0  0
  9 13  1  0  0  0  0
  9 12  1  0  0  0  0
 11  6  1  0  0  0  0
 14  9  1  0  0  0  0
M  END
$$$$
