14
butane_opt
C  -3.956852   0.256925   0.039152
C  -2.696452  -0.603529   0.029231
H  -4.862550  -0.361382  -0.037244
H  -3.929568   0.781288  -0.802959
H  -4.050511   1.034219   0.953976
C  -1.401988   0.190909  -0.028153
H  -2.753099  -1.299163  -0.838673
H  -2.741421  -1.260793   0.910577
C  -0.148146  -0.701024   0.052403
H  -1.412419   0.896024   0.845548
H  -1.391636   0.799891  -0.899838
H  -0.112932  -1.365419   0.982616
H   0.771061  -0.100885  -0.003977
H  -0.097253  -1.312538  -0.762055
