14
butane_opt
C  -3.944408   0.257631   0.023550
C  -2.698749  -0.613294   0.034658
H  -4.852816  -0.331854   0.088790
H  -4.027138   0.872292  -0.858481
H  -3.975371   0.950900   0.905352
C  -1.406857   0.188905  -0.008312
H  -2.743825  -1.292259  -0.840331
H  -2.683411  -1.233002   0.936580
C  -0.155060  -0.699928   0.048013
H  -1.365274   0.852882   0.815955
H  -1.361942   0.851233  -0.946777
H  -0.168743  -1.227687   0.891661
H   0.730370  -0.127636   0.125210
H  -0.099610  -1.398004  -0.854762
