14
butane_opt
C  -3.942030   0.249100  -0.021532
C  -2.708535  -0.608111   0.077647
H  -4.858676  -0.332127  -0.048993
H  -3.952736   0.887703  -0.928941
H  -3.997213   0.918846   0.835927
C  -1.400782   0.211021   0.061845
H  -2.706821  -1.273454  -0.764253
H  -2.801962  -1.221318   1.008598
C  -0.156297  -0.709100  -0.009372
H  -1.387001   0.873779   0.900533
H  -1.421231   0.804869  -0.800931
H  -0.006567  -1.362492   0.898822
H   0.750610  -0.131936  -0.089880
H  -0.146831  -1.352423  -0.874302
