14
butane_opt
C  -3.956366   0.258144  -0.002514
C  -2.705604  -0.609449   0.059334
H  -4.844117  -0.317688   0.118588
H  -4.001438   1.021809  -0.991519
H  -3.915008   0.779867   0.766663
C  -1.410500   0.182988   0.039094
H  -2.716184  -1.283036  -0.786209
H  -2.766120  -1.234209   0.957703
C  -0.140310  -0.693833   0.012991
H  -1.412531   0.887244   0.943419
H  -1.367177   0.826603  -0.861951
H  -0.078655  -1.208582   0.814578
H   0.765141  -0.112038   0.050569
H  -0.141173  -1.480314  -0.910439
