14
butane_opt
C  -3.923546   0.258964   0.043050
C  -2.702387  -0.609851   0.011843
H  -4.813885  -0.338739   0.040596
H  -3.954400   0.833370  -0.805360
H  -3.918994   0.941537   0.930799
C  -1.413753   0.190698  -0.023817
H  -2.791246  -1.223532  -0.823783
H  -2.725470  -1.249961   0.910123
C  -0.168737  -0.703773   0.059131
H  -1.428066   0.866451   0.816404
H  -1.392363   0.841365  -0.928061
H  -0.184914  -1.275211   0.930069
H   0.733834  -0.117522   0.080981
H  -0.050890  -1.385525  -0.799460
