butane_opt
 OpenBabel08242015403D

 14 13  0  0  0  0  0  0  0  0999 V2000
   -3.9470    0.2603   -0.0106 C   0  0  0  0  0  0  0  0  0  0  0  0
   -2.7099   -0.6061    0.0681 C   0  0  0  0  0  0  0  0  0  0  0  0
   -4.8822   -0.3507    0.0855 H   0  0  0  0  0  0  0  0  0  0  0  0
   -3.9744    0.9348   -0.9273 H   0  0  0  0  0  0  0  0  0  0  0  0
   -3.9594    0.8026    0.7761 H   0  0  0  0  0  0  0  0  0  0  0  0
   -1.4180    0.2014    0.0343 C   0  0  0  0  0  0  0  0  0  0  0  0
   -2.7234   -1.2679   -0.7505 H   0  0  0  0  0  0  0  0  0  0  0  0
   -2.7244   -1.2790    0.9796 H   0  0  0  0  0  0  0  0  0  0  0  0
   -0.1362   -0.7050    0.0152 C   0  0  0  0  0  0  0  0  0  0  0  0
   -1.3760    0.8561    0.8792 H   0  0  0  0  0  0  0  0  0  0  0  0
   -1.4036    0.8266   -0.8408 H   0  0  0  0  0  0  0  0  0  0  0  0
   -0.1141   -1.1651    0.7864 H   0  0  0  0  0  0  0  0  0  0  0  0
    0.7790   -0.1127    0.0716 H   0  0  0  0  0  0  0  0  0  0  0  0
   -0.1098   -1.5239   -0.9330 H   0  0  0  0  0  0  0  0  0  0  0  0
  1  2  1  0  0  0  0
  1  3  1  0  0  0  0
  1  5  1  0  0  0  0
  2  8  1  0  0  0  0
  4  1  1  0  0  0  0
  6  2  1  0  0  0  0
  6 10  1  0  0  0  0
  7  2  1  0  0  0  0
  9  6  1  0  0  0  0
  9 13  1  0  0  0  0
  9 12  1  0  0  0  0
 11  6  1  0  0  0  0
 14  9  1  0  0  0  0
M  END
$$$$
