butane_opt
 OpenBabel08242015403D

 14 13  0  0  0  0  0  0  0  0999 V2000
   -3.9504    0.2723    0.0418 C   0  0  0  0  0  0  0  0  0  0  0  0
   -2.7088   -0.6232    0.0165 C   0  0  0  0  0  0  0  0  0  0  0  0
   -4.8675   -0.3300    0.1034 H   0  0  0  0  0  0  0  0  0  0  0  0
   -4.0221    0.8483   -0.8105 H   0  0  0  0  0  0  0  0  0  0  0  0
   -3.9624    0.9799    0.9462 H   0  0  0  0  0  0  0  0  0  0  0  0
   -1.3996    0.1870   -0.0384 C   0  0  0  0  0  0  0  0  0  0  0  0
   -2.6963   -1.2940   -0.8328 H   0  0  0  0  0  0  0  0  0  0  0  0
   -2.7328   -1.2806    0.9283 H   0  0  0  0  0  0  0  0  0  0  0  0
   -0.1495   -0.6941    0.0606 C   0  0  0  0  0  0  0  0  0  0  0  0
   -1.3833    0.8383    0.8144 H   0  0  0  0  0  0  0  0  0  0  0  0
   -1.3641    0.8192   -0.9481 H   0  0  0  0  0  0  0  0  0  0  0  0
   -0.2337   -1.2545    0.9550 H   0  0  0  0  0  0  0  0  0  0  0  0
    0.7841   -0.0684    0.1758 H   0  0  0  0  0  0  0  0  0  0  0  0
   -0.0482   -1.4353   -0.8545 H   0  0  0  0  0  0  0  0  0  0  0  0
  1  3  1  0  0  0  0
  1  5  1  0  0  0  0
  2  1  1  0  0  0  0
  2  8  1  0  0  0  0
  4  1  1  0  0  0  0
  6  2  1  0  0  0  0
  6  9  1  0  0  0  0
  6 10  1  0  0  0  0
  7  2  1  0  0  0  0
  9 13  1  0  0  0  0
  9 12  1  0  0  0  0
 11  6  1  0  0  0  0
 14  9  1  0  0  0  0
M  END
$$$$
