butane_opt
 OpenBabel08242015403D

 14 13  0  0  0  0  0  0  0  0999 V2000
   -3.9534    0.2725    0.0311 C   0  0  0  0  0  0  0  0  0  0  0  0
   -2.7024   -0.6260    0.0278 C   0  0  0  0  0  0  0  0  0  0  0  0
   -4.8523   -0.2997    0.0538 H   0  0  0  0  0  0  0  0  0  0  0  0
   -4.0760    0.9013   -0.8620 H   0  0  0  0  0  0  0  0  0  0  0  0
   -3.9844    0.9649    0.9196 H   0  0  0  0  0  0  0  0  0  0  0  0
   -1.3889    0.1702   -0.0108 C   0  0  0  0  0  0  0  0  0  0  0  0
   -2.7343   -1.3431   -0.8546 H   0  0  0  0  0  0  0  0  0  0  0  0
   -2.7181   -1.2373    0.8992 H   0  0  0  0  0  0  0  0  0  0  0  0
   -0.1522   -0.6887    0.0423 C   0  0  0  0  0  0  0  0  0  0  0  0
   -1.3951    0.8987    0.8525 H   0  0  0  0  0  0  0  0  0  0  0  0
   -1.3697    0.8017   -0.8947 H   0  0  0  0  0  0  0  0  0  0  0  0
   -0.1857   -1.3234    0.9719 H   0  0  0  0  0  0  0  0  0  0  0  0
    0.7682   -0.0613    0.0337 H   0  0  0  0  0  0  0  0  0  0  0  0
   -0.1096   -1.3081   -0.7639 H   0  0  0  0  0  0  0  0  0  0  0  0
  1  3  1  0  0  0  0
  1  5  1  0  0  0  0
  2  1  1  0  0  0  0
  2  8  1  0  0  0  0
  4  1  1  0  0  0  0
  6  2  1  0  0  0  0
  6  9  1  0  0  0  0
  6 10  1  0  0  0  0
  7  2  1  0  0  0  0
  9 12  1  0  0  0  0
 11  6  1  0  0  0  0
 13  9  1  0  0  0  0
 14  9  1  0  0  0  0
M  END
$$$$
