14
butane_opt
C  -3.954810   0.264970   0.038734
C  -2.705151  -0.614417   0.020720
H  -4.859307  -0.301010  -0.055503
H  -3.964795   0.749225  -0.751903
H  -3.950490   1.061013   1.003597
C  -1.403252   0.171704  -0.025777
H  -2.678153  -1.289316  -0.847987
H  -2.719134  -1.249273   0.918934
C  -0.153989  -0.686797   0.061184
H  -1.394412   0.828661   0.819413
H  -1.365567   0.873344  -0.968214
H  -0.155405  -1.351124   0.979209
H   0.756467  -0.084330  -0.011995
H  -0.093206  -1.337078  -0.768877
