butane_opt
 OpenBabel08242015403D

 14 13  0  0  0  0  0  0  0  0999 V2000
   -3.9474    0.2682    0.0367 C   0  0  0  0  0  0  0  0  0  0  0  0
   -2.7158   -0.6144    0.0175 C   0  0  0  0  0  0  0  0  0  0  0  0
   -4.8462   -0.3219    0.0007 H   0  0  0  0  0  0  0  0  0  0  0  0
   -3.9777    0.8362   -0.8295 H   0  0  0  0  0  0  0  0  0  0  0  0
   -3.9955    0.9910    0.9495 H   0  0  0  0  0  0  0  0  0  0  0  0
   -1.3982    0.1793   -0.0035 C   0  0  0  0  0  0  0  0  0  0  0  0
   -2.7599   -1.3686   -0.8869 H   0  0  0  0  0  0  0  0  0  0  0  0
   -2.6687   -1.1860    0.8538 H   0  0  0  0  0  0  0  0  0  0  0  0
   -0.1496   -0.6939    0.0576 C   0  0  0  0  0  0  0  0  0  0  0  0
   -1.3925    0.8362    0.8050 H   0  0  0  0  0  0  0  0  0  0  0  0
   -1.3853    0.8057   -0.8942 H   0  0  0  0  0  0  0  0  0  0  0  0
   -0.0895   -1.4103    1.0043 H   0  0  0  0  0  0  0  0  0  0  0  0
    0.7674   -0.0785   -0.1308 H   0  0  0  0  0  0  0  0  0  0  0  0
   -0.1467   -1.2364   -0.7194 H   0  0  0  0  0  0  0  0  0  0  0  0
  1  5  1  0  0  0  0
  2  1  1  0  0  0  0
  2  8  1  0  0  0  0
  3  1  1  0  0  0  0
  4  1  1  0  0  0  0
  6  2  1  0  0  0  0
  6  9  1  0  0  0  0
  6 10  1  0  0  0  0
  7  2  1  0  0  0  0
  9 12  1  0  0  0  0
 11  6  1  0  0  0  0
 13  9  1  0  0  0  0
 14  9  1  0  0  0  0
M  END
$$$$
