14
butane_opt
C  -3.941139   0.259935   0.006592
C  -2.712369  -0.610006   0.065850
H  -4.877276  -0.335400  -0.139776
H  -3.927533   0.775738  -0.814276
H  -4.018358   1.003655   0.910935
C  -1.407594   0.199528   0.021662
H  -2.715927  -1.257768  -0.793340
H  -2.756065  -1.229874   0.961154
C  -0.145848  -0.707712   0.016667
H  -1.394384   0.804399   0.826311
H  -1.351742   0.863851  -0.902821
H  -0.117574  -1.323108   0.938595
H   0.790740  -0.103829  -0.020031
H  -0.165134  -1.380161  -0.851854
