butane_opt
 OpenBabel08242015403D

 14 13  0  0  0  0  0  0  0  0999 V2000
   -3.9481    0.2636   -0.0027 C   0  0  0  0  0  0  0  0  0  0  0  0
   -2.7001   -0.6244    0.0630 C   0  0  0  0  0  0  0  0  0  0  0  0
   -4.8912   -0.3268   -0.0644 H   0  0  0  0  0  0  0  0  0  0  0  0
   -3.8775    0.8292   -0.8802 H   0  0  0  0  0  0  0  0  0  0  0  0
   -4.0105    1.0247    0.9176 H   0  0  0  0  0  0  0  0  0  0  0  0
   -1.4015    0.1966    0.0248 C   0  0  0  0  0  0  0  0  0  0  0  0
   -2.7213   -1.2361   -0.7428 H   0  0  0  0  0  0  0  0  0  0  0  0
   -2.7624   -1.3282    1.0078 H   0  0  0  0  0  0  0  0  0  0  0  0
   -0.1593   -0.6959    0.0126 C   0  0  0  0  0  0  0  0  0  0  0  0
   -1.3910    0.8930    0.8950 H   0  0  0  0  0  0  0  0  0  0  0  0
   -1.3709    0.8045   -0.8826 H   0  0  0  0  0  0  0  0  0  0  0  0
   -0.0853   -1.2865    0.8997 H   0  0  0  0  0  0  0  0  0  0  0  0
    0.7182   -0.1366   -0.0181 H   0  0  0  0  0  0  0  0  0  0  0  0
   -0.1251   -1.3933   -0.8615 H   0  0  0  0  0  0  0  0  0  0  0  0
  1  2  1  0  0  0  0
  1  5  1  0  0  0  0
  2  8  1  0  0  0  0
  3  1  1  0  0  0  0
  4  1  1  0  0  0  0
  6  2  1  0  0  0  0
  6 10  1  0  0  0  0
  7  2  1  0  0  0  0
  9  6  1  0  0  0  0
  9 12  1  0  0  0  0
 11  6  1  0  0  0  0
 13  9  1  0  0  0  0
 14  9  1  0  0  0  0
M  END
$$$$
