butane_opt
 OpenBabel08242015403D

 14 13  0  0  0  0  0  0  0  0999 V2000
   -3.9372    0.2599   -0.0049 C   0  0  0  0  0  0  0  0  0  0  0  0
   -2.7166   -0.6102    0.0513 C   0  0  0  0  0  0  0  0  0  0  0  0
   -4.8725   -0.3478    0.0237 H   0  0  0  0  0  0  0  0  0  0  0  0
   -3.9675    0.8359   -0.8923 H   0  0  0  0  0  0  0  0  0  0  0  0
   -3.9957    0.9584    0.8524 H   0  0  0  0  0  0  0  0  0  0  0  0
   -1.4083    0.2016    0.0365 C   0  0  0  0  0  0  0  0  0  0  0  0
   -2.7086   -1.2769   -0.7956 H   0  0  0  0  0  0  0  0  0  0  0  0
   -2.7450   -1.2734    0.9597 H   0  0  0  0  0  0  0  0  0  0  0  0
   -0.1405   -0.7078    0.0158 C   0  0  0  0  0  0  0  0  0  0  0  0
   -1.4209    0.9104    0.9068 H   0  0  0  0  0  0  0  0  0  0  0  0
   -1.3750    0.7762   -0.7893 H   0  0  0  0  0  0  0  0  0  0  0  0
   -0.0306   -1.3892    0.9305 H   0  0  0  0  0  0  0  0  0  0  0  0
    0.7539   -0.1009   -0.1352 H   0  0  0  0  0  0  0  0  0  0  0  0
   -0.2210   -1.2868   -0.7958 H   0  0  0  0  0  0  0  0  0  0  0  0
  1  3  1  0  0  0  0
  1  2  1  0  0  0  0
  1  5  1  0  0  0  0
  2  8  1  0  0  0  0
  4  1  1  0  0  0  0
  6  2  1  0  0  0  0
  6 10  1  0  0  0  0
  7  2  1  0  0  0  0
  9  6  1  0  0  0  0
  9 12  1  0  0  0  0
 11  6  1  0  0  0  0
 13  9  1  0  0  0  0
 14  9  1  0  0  0  0
M  END
$$$$
