14
butane_opt
C  -3.940946   0.272852   0.036156
C  -2.696942  -0.624362   0.013468
H  -4.880659  -0.348283   0.047996
H  -3.967225   0.878065  -0.827626
H  -3.928318   0.990178   0.916904
C  -1.407373   0.175891  -0.004742
H  -2.686198  -1.352643  -0.844597
H  -2.681612  -1.165692   0.850661
C  -0.166933  -0.688488   0.048426
H  -1.363994   0.857323   0.857581
H  -1.352577   0.783710  -0.882192
H  -0.197929  -1.421099   1.038225
H   0.753686  -0.089745  -0.099090
H  -0.169717  -1.235603  -0.726825
