14
butane_opt
C  -3.950534   0.259980  -0.002625
C  -2.711535  -0.614683   0.069259
H  -4.855563  -0.347429   0.065461
H  -3.942819   0.913891  -0.951949
H  -3.926213   0.895136   0.834593
C  -1.396458   0.206117   0.015414
H  -2.751878  -1.290142  -0.767390
H  -2.731241  -1.281469   1.007055
C  -0.152582  -0.703381   0.014449
H  -1.360088   0.905436   0.876100
H  -1.446248   0.815359  -0.846995
H  -0.185395  -1.205526   0.838497
H   0.729827  -0.157127   0.129588
H  -0.020395  -1.497980  -0.923122
