butane_opt
 OpenBabel08242015403D

 14 13  0  0  0  0  0  0  0  0999 V2000
   -3.9553    0.2742    0.0007 C   0  0  0  0  0  0  0  0  0  0  0  0
   -2.6991   -0.6292    0.0541 C   0  0  0  0  0  0  0  0  0  0  0  0
   -4.8421   -0.3131    0.0916 H   0  0  0  0  0  0  0  0  0  0  0  0
   -3.9905    0.9623   -0.9424 H   0  0  0  0  0  0  0  0  0  0  0  0
   -4.0146    0.8958    0.8522 H   0  0  0  0  0  0  0  0  0  0  0  0
   -1.3853    0.1743    0.0249 C   0  0  0  0  0  0  0  0  0  0  0  0
   -2.7135   -1.2703   -0.7704 H   0  0  0  0  0  0  0  0  0  0  0  0
   -2.7007   -1.2964    0.9730 H   0  0  0  0  0  0  0  0  0  0  0  0
   -0.1626   -0.6800    0.0211 C   0  0  0  0  0  0  0  0  0  0  0  0
   -1.3680    0.8351    0.8928 H   0  0  0  0  0  0  0  0  0  0  0  0
   -1.3726    0.8424   -0.8943 H   0  0  0  0  0  0  0  0  0  0  0  0
   -0.1608   -1.1978    0.8467 H   0  0  0  0  0  0  0  0  0  0  0  0
    0.7234   -0.1093    0.1101 H   0  0  0  0  0  0  0  0  0  0  0  0
   -0.1541   -1.4934   -0.9453 H   0  0  0  0  0  0  0  0  0  0  0  0
  1  2  1  0  0  0  0
  1  3  1  0  0  0  0
  1  5  1  0  0  0  0
  2  8  1  0  0  0  0
  4  1  1  0  0  0  0
  6  2  1  0  0  0  0
  6 10  1  0  0  0  0
  7  2  1  0  0  0  0
  9  6  1  0  0  0  0
  9 13  1  0  0  0  0
  9 12  1  0  0  0  0
 11  6  1  0  0  0  0
 14  9  1  0  0  0  0
M  END
$$$$
