butane_opt
 OpenBabel08242015403D

 14 13  0  0  0  0  0  0  0  0999 V2000
   -3.9544    0.2550    0.0020 C   0  0  0  0  0  0  0  0  0  0  0  0
   -2.7038   -0.6171    0.0455 C   0  0  0  0  0  0  0  0  0  0  0  0
   -4.8727   -0.3416    0.1404 H   0  0  0  0  0  0  0  0  0  0  0  0
   -3.9966    0.9713   -0.9638 H   0  0  0  0  0  0  0  0  0  0  0  0
   -3.8920    0.8585    0.8169 H   0  0  0  0  0  0  0  0  0  0  0  0
   -1.4124    0.2011    0.0260 C   0  0  0  0  0  0  0  0  0  0  0  0
   -2.7011   -1.2361   -0.7516 H   0  0  0  0  0  0  0  0  0  0  0  0
   -2.7081   -1.2650    0.9622 H   0  0  0  0  0  0  0  0  0  0  0  0
   -0.1501   -0.6981    0.0207 C   0  0  0  0  0  0  0  0  0  0  0  0
   -1.4065    0.9243    0.9121 H   0  0  0  0  0  0  0  0  0  0  0  0
   -1.3368    0.7741   -0.8465 H   0  0  0  0  0  0  0  0  0  0  0  0
   -0.1231   -1.2501    0.8571 H   0  0  0  0  0  0  0  0  0  0  0  0
    0.7424   -0.1307    0.0424 H   0  0  0  0  0  0  0  0  0  0  0  0
   -0.0808   -1.4690   -0.8854 H   0  0  0  0  0  0  0  0  0  0  0  0
  1  2  1  0  0  0  0
  1  3  1  0  0  0  0
  1  5  1  0  0  0  0
  2  8  1  0  0  0  0
  4  1  1  0  0  0  0
  6  2  1  0  0  0  0
  6 10  1  0  0  0  0
  7  2  1  0  0  0  0
  9  6  1  0  0  0  0
  9 13  1  0  0  0  0
  9 12  1  0  0  0  0
 11  6  1  0  0  0  0
 14  9  1  0  0  0  0
M  END
$$$$
