14
butane_opt
C  -3.949649   0.274456   0.055200
C  -2.703990  -0.626664  -0.005907
H  -4.843685  -0.306534   0.143172
H  -4.060324   0.959103  -0.863169
H  -3.979267   0.880142   0.879516
C  -1.392563   0.183212  -0.018683
H  -2.756049  -1.377635  -0.888203
H  -2.644862  -1.227566   0.864073
C  -0.165131  -0.685506   0.067752
H  -1.348550   0.805656   0.804377
H  -1.348605   0.819115  -0.920314
H  -0.194399  -1.288594   0.961244
H   0.752786  -0.113329   0.059171
H  -0.063501  -1.359576  -0.792103
