14
butane_opt
C  -3.960461   0.282145   0.036767
C  -2.697760  -0.634057   0.032735
H  -4.892010  -0.327609  -0.075639
H  -3.919146   0.802790  -0.818514
H  -4.027772   1.070209   0.976170
C  -1.397051   0.169547  -0.015897
H  -2.739273  -1.363486  -0.851747
H  -2.670437  -1.201373   0.900572
C  -0.152999  -0.679858   0.052514
H  -1.390867   0.812581   0.825254
H  -1.302744   0.826382  -0.940986
H  -0.168925  -1.353371   0.992033
H   0.760799  -0.094462  -0.073446
H  -0.173385  -1.296496  -0.759103
