butane_opt
 OpenBabel08242015403D

 14 13  0  0  0  0  0  0  0  0999 V2000
   -3.9546    0.2723    0.0148 C   0  0  0  0  0  0  0  0  0  0  0  0
   -2.7051   -0.6380    0.0336 C   0  0  0  0  0  0  0  0  0  0  0  0
   -4.8416   -0.3064   -0.0654 H   0  0  0  0  0  0  0  0  0  0  0  0
   -4.0112    0.8338   -0.8200 H   0  0  0  0  0  0  0  0  0  0  0  0
   -4.0125    1.0664    0.9461 H   0  0  0  0  0  0  0  0  0  0  0  0
   -1.3892    0.1874    0.0158 C   0  0  0  0  0  0  0  0  0  0  0  0
   -2.7122   -1.2785   -0.7815 H   0  0  0  0  0  0  0  0  0  0  0  0
   -2.7081   -1.2647    0.9547 H   0  0  0  0  0  0  0  0  0  0  0  0
   -0.1557   -0.6961    0.0302 C   0  0  0  0  0  0  0  0  0  0  0  0
   -1.3771    0.8350    0.8465 H   0  0  0  0  0  0  0  0  0  0  0  0
   -1.3611    0.8200   -0.8833 H   0  0  0  0  0  0  0  0  0  0  0  0
   -0.1260   -1.3567    0.9633 H   0  0  0  0  0  0  0  0  0  0  0  0
    0.7710   -0.0590   -0.0634 H   0  0  0  0  0  0  0  0  0  0  0  0
   -0.1853   -1.2697   -0.7810 H   0  0  0  0  0  0  0  0  0  0  0  0
  1  2  1  0  0  0  0
  1  5  1  0  0  0  0
  2  8  1  0  0  0  0
  3  1  1  0  0  0  0
  4  1  1  0  0  0  0
  6  9  1  0  0  0  0
  6  2  1  0  0  0  0
  6 10  1  0  0  0  0
  7  2  1  0  0  0  0
  9 12  1  0  0  0  0
 11  6  1  0  0  0  0
 13  9  1  0  0  0  0
 14  9  1  0  0  0  0
M  END
$$$$
