butane_opt
 OpenBabel08242015403D

 14 13  0  0  0  0  0  0  0  0999 V2000
   -3.9544    0.2718    0.0210 C   0  0  0  0  0  0  0  0  0  0  0  0
   -2.7026   -0.6329    0.0341 C   0  0  0  0  0  0  0  0  0  0  0  0
   -4.8629   -0.2924    0.0160 H   0  0  0  0  0  0  0  0  0  0  0  0
   -4.0130    0.9312   -0.9045 H   0  0  0  0  0  0  0  0  0  0  0  0
   -3.9735    0.9638    0.8903 H   0  0  0  0  0  0  0  0  0  0  0  0
   -1.4066    0.1781    0.0227 C   0  0  0  0  0  0  0  0  0  0  0  0
   -2.7024   -1.3467   -0.8294 H   0  0  0  0  0  0  0  0  0  0  0  0
   -2.7079   -1.2277    0.8758 H   0  0  0  0  0  0  0  0  0  0  0  0
   -0.1420   -0.6856    0.0274 C   0  0  0  0  0  0  0  0  0  0  0  0
   -1.3868    0.8366    0.8751 H   0  0  0  0  0  0  0  0  0  0  0  0
   -1.3638    0.7934   -0.8584 H   0  0  0  0  0  0  0  0  0  0  0  0
   -0.1475   -1.3823    0.9667 H   0  0  0  0  0  0  0  0  0  0  0  0
    0.7849   -0.0714   -0.0658 H   0  0  0  0  0  0  0  0  0  0  0  0
   -0.1842   -1.2440   -0.7833 H   0  0  0  0  0  0  0  0  0  0  0  0
  1  2  1  0  0  0  0
  1  5  1  0  0  0  0
  2  8  1  0  0  0  0
  3  1  1  0  0  0  0
  4  1  1  0  0  0  0
  6  9  1  0  0  0  0
  6  2  1  0  0  0  0
  6 10  1  0  0  0  0
  7  2  1  0  0  0  0
  9 12  1  0  0  0  0
 11  6  1  0  0  0  0
 13  9  1  0  0  0  0
 14  9  1  0  0  0  0
M  END
$$$$
