14
butane_opt
C  -3.963821   0.273868   0.050159
C  -2.692807  -0.640843   0.005044
H  -4.839178  -0.297688   0.099498
H  -4.027054   0.854650  -0.805653
H  -3.966766   0.986419   0.931382
C  -1.391296   0.182117  -0.035524
H  -2.696750  -1.310878  -0.840364
H  -2.711761  -1.256343   0.922101
C  -0.164293  -0.683524   0.061150
H  -1.408912   0.864168   0.813541
H  -1.366401   0.870143  -0.965410
H  -0.191395  -1.270149   0.944897
H   0.763510  -0.097294   0.160414
H  -0.039612  -1.393927  -0.785220
