butane_opt
 OpenBabel08242015403D

 14 13  0  0  0  0  0  0  0  0999 V2000
   -3.9458    0.2592    0.0442 C   0  0  0  0  0  0  0  0  0  0  0  0
   -2.7007   -0.6213   -0.0035 C   0  0  0  0  0  0  0  0  0  0  0  0
   -4.8710   -0.3272    0.0501 H   0  0  0  0  0  0  0  0  0  0  0  0
   -3.9989    0.8305   -0.8130 H   0  0  0  0  0  0  0  0  0  0  0  0
   -3.9485    0.9695    0.9222 H   0  0  0  0  0  0  0  0  0  0  0  0
   -1.4104    0.1979   -0.0081 C   0  0  0  0  0  0  0  0  0  0  0  0
   -2.7609   -1.2820   -0.8387 H   0  0  0  0  0  0  0  0  0  0  0  0
   -2.6683   -1.2092    0.8734 H   0  0  0  0  0  0  0  0  0  0  0  0
   -0.1598   -0.6984    0.0588 C   0  0  0  0  0  0  0  0  0  0  0  0
   -1.3865    0.8674    0.8489 H   0  0  0  0  0  0  0  0  0  0  0  0
   -1.3565    0.8291   -0.9183 H   0  0  0  0  0  0  0  0  0  0  0  0
   -0.0495   -1.4169    1.0167 H   0  0  0  0  0  0  0  0  0  0  0  0
    0.7381   -0.1332   -0.0352 H   0  0  0  0  0  0  0  0  0  0  0  0
   -0.1219   -1.2515   -0.7489 H   0  0  0  0  0  0  0  0  0  0  0  0
  1  3  1  0  0  0  0
  1  5  1  0  0  0  0
  2  1  1  0  0  0  0
  2  8  1  0  0  0  0
  4  1  1  0  0  0  0
  6  2  1  0  0  0  0
  6  9  1  0  0  0  0
  6 10  1  0  0  0  0
  7  2  1  0  0  0  0
  9 12  1  0  0  0  0
 11  6  1  0  0  0  0
 13  9  1  0  0  0  0
 14  9  1  0  0  0  0
M  END
$$$$
