butane_opt
 OpenBabel08242015403D

 14 13  0  0  0  0  0  0  0  0999 V2000
   -3.9502    0.2721    0.0372 C   0  0  0  0  0  0  0  0  0  0  0  0
   -2.6847   -0.6162    0.0223 C   0  0  0  0  0  0  0  0  0  0  0  0
   -4.8744   -0.3257   -0.0607 H   0  0  0  0  0  0  0  0  0  0  0  0
   -3.9303    0.7557   -0.7910 H   0  0  0  0  0  0  0  0  0  0  0  0
   -3.9969    1.0100    0.9471 H   0  0  0  0  0  0  0  0  0  0  0  0
   -1.4054    0.1814   -0.0182 C   0  0  0  0  0  0  0  0  0  0  0  0
   -2.7397   -1.3039   -0.8220 H   0  0  0  0  0  0  0  0  0  0  0  0
   -2.6778   -1.2495    0.9224 H   0  0  0  0  0  0  0  0  0  0  0  0
   -0.1683   -0.6912    0.0516 C   0  0  0  0  0  0  0  0  0  0  0  0
   -1.3958    0.8494    0.8374 H   0  0  0  0  0  0  0  0  0  0  0  0
   -1.3985    0.7613   -0.8993 H   0  0  0  0  0  0  0  0  0  0  0  0
   -0.1177   -1.3828    0.9769 H   0  0  0  0  0  0  0  0  0  0  0  0
    0.7827   -0.0830   -0.0199 H   0  0  0  0  0  0  0  0  0  0  0  0
   -0.1775   -1.2470   -0.7447 H   0  0  0  0  0  0  0  0  0  0  0  0
  1  5  1  0  0  0  0
  2  1  1  0  0  0  0
  2  8  1  0  0  0  0
  3  1  1  0  0  0  0
  4  1  1  0  0  0  0
  6  2  1  0  0  0  0
  6  9  1  0  0  0  0
  6 10  1  0  0  0  0
  7  2  1  0  0  0  0
  9 12  1  0  0  0  0
 11  6  1  0  0  0  0
 13  9  1  0  0  0  0
 14  9  1  0  0  0  0
M  END
$$$$
