14
butane_opt
C  -3.952350   0.271366   0.034819
C  -2.705251  -0.627384   0.027330
H  -4.815086  -0.294185   0.060285
H  -4.039203   0.901657  -0.847042
H  -3.926273   0.989788   0.929442
C  -1.399475   0.171422  -0.020393
H  -2.717429  -1.293877  -0.810653
H  -2.700159  -1.293766   0.915807
C  -0.161885  -0.683091   0.046075
H  -1.396398   0.832465   0.818420
H  -1.317241   0.847609  -0.943011
H  -0.223682  -1.229976   0.927345
H   0.774736  -0.075602   0.171842
H  -0.045255  -1.437365  -0.848345
