butane_opt
 OpenBabel08242015403D

 14 13  0  0  0  0  0  0  0  0999 V2000
   -3.9396    0.2596    0.0179 C   0  0  0  0  0  0  0  0  0  0  0  0
   -2.7042   -0.6022    0.0322 C   0  0  0  0  0  0  0  0  0  0  0  0
   -4.8685   -0.3853   -0.0211 H   0  0  0  0  0  0  0  0  0  0  0  0
   -3.8650    0.8663   -0.8770 H   0  0  0  0  0  0  0  0  0  0  0  0
   -3.9425    0.9325    0.8962 H   0  0  0  0  0  0  0  0  0  0  0  0
   -1.4109    0.1899    0.0291 C   0  0  0  0  0  0  0  0  0  0  0  0
   -2.7144   -1.3091   -0.8297 H   0  0  0  0  0  0  0  0  0  0  0  0
   -2.7519   -1.1900    0.9331 H   0  0  0  0  0  0  0  0  0  0  0  0
   -0.1584   -0.7063    0.0314 C   0  0  0  0  0  0  0  0  0  0  0  0
   -1.4155    0.8697    0.8717 H   0  0  0  0  0  0  0  0  0  0  0  0
   -1.3826    0.8386   -0.8727 H   0  0  0  0  0  0  0  0  0  0  0  0
   -0.0744   -1.3823    0.9587 H   0  0  0  0  0  0  0  0  0  0  0  0
    0.7450   -0.1228   -0.1639 H   0  0  0  0  0  0  0  0  0  0  0  0
   -0.1953   -1.2831   -0.7777 H   0  0  0  0  0  0  0  0  0  0  0  0
  1  2  1  0  0  0  0
  1  5  1  0  0  0  0
  2  8  1  0  0  0  0
  3  1  1  0  0  0  0
  4  1  1  0  0  0  0
  6  9  1  0  0  0  0
  6  2  1  0  0  0  0
  6 10  1  0  0  0  0
  7  2  1  0  0  0  0
  9 12  1  0  0  0  0
 11  6  1  0  0  0  0
 13  9  1  0  0  0  0
 14  9  1  0  0  0  0
M  END
$$$$
