butane_opt
 OpenBabel08242015403D

 14 13  0  0  0  0  0  0  0  0999 V2000
   -3.9526    0.2752    0.0313 C   0  0  0  0  0  0  0  0  0  0  0  0
   -2.6912   -0.6226    0.0167 C   0  0  0  0  0  0  0  0  0  0  0  0
   -4.8632   -0.3115    0.0217 H   0  0  0  0  0  0  0  0  0  0  0  0
   -3.9145    0.8351   -0.8372 H   0  0  0  0  0  0  0  0  0  0  0  0
   -3.9754    0.9903    0.9291 H   0  0  0  0  0  0  0  0  0  0  0  0
   -1.4004    0.1644    0.0092 C   0  0  0  0  0  0  0  0  0  0  0  0
   -2.7110   -1.3522   -0.8492 H   0  0  0  0  0  0  0  0  0  0  0  0
   -2.7144   -1.1733    0.8512 H   0  0  0  0  0  0  0  0  0  0  0  0
   -0.1704   -0.6793    0.0446 C   0  0  0  0  0  0  0  0  0  0  0  0
   -1.3440    0.8196    0.8499 H   0  0  0  0  0  0  0  0  0  0  0  0
   -1.4067    0.8362   -0.9031 H   0  0  0  0  0  0  0  0  0  0  0  0
   -0.0998   -1.4238    1.0402 H   0  0  0  0  0  0  0  0  0  0  0  0
    0.7607   -0.0994   -0.1195 H   0  0  0  0  0  0  0  0  0  0  0  0
   -0.1930   -1.2379   -0.7399 H   0  0  0  0  0  0  0  0  0  0  0  0
  1  5  1  0  0  0  0
  2  1  1  0  0  0  0
  2  8  1  0  0  0  0
  3  1  1  0  0  0  0
  4  1  1  0  0  0  0
  6  2  1  0  0  0  0
  6  9  1  0  0  0  0
  6 10  1  0  0  0  0
  7  2  1  0  0  0  0
  9 12  1  0  0  0  0
 11  6  1  0  0  0  0
 13  9  1  0  0  0  0
 14  9  1  0  0  0  0
M  END
$$$$
