butane_opt
 OpenBabel08242015403D

 14 13  0  0  0  0  0  0  0  0999 V2000
   -3.9478    0.2549    0.0284 C   0  0  0  0  0  0  0  0  0  0  0  0
   -2.7160   -0.5982    0.0388 C   0  0  0  0  0  0  0  0  0  0  0  0
   -4.8534   -0.3432   -0.0748 H   0  0  0  0  0  0  0  0  0  0  0  0
   -3.9465    0.8041   -0.8280 H   0  0  0  0  0  0  0  0  0  0  0  0
   -3.9447    0.9992    0.9722 H   0  0  0  0  0  0  0  0  0  0  0  0
   -1.4092    0.1952   -0.0072 C   0  0  0  0  0  0  0  0  0  0  0  0
   -2.7594   -1.3127   -0.8486 H   0  0  0  0  0  0  0  0  0  0  0  0
   -2.7590   -1.2277    0.9124 H   0  0  0  0  0  0  0  0  0  0  0  0
   -0.1394   -0.7078    0.0498 C   0  0  0  0  0  0  0  0  0  0  0  0
   -1.3598    0.8143    0.7929 H   0  0  0  0  0  0  0  0  0  0  0  0
   -1.3995    0.8791   -0.9277 H   0  0  0  0  0  0  0  0  0  0  0  0
   -0.0975   -1.3374    0.9376 H   0  0  0  0  0  0  0  0  0  0  0  0
    0.7726   -0.1003    0.0017 H   0  0  0  0  0  0  0  0  0  0  0  0
   -0.1270   -1.3741   -0.8063 H   0  0  0  0  0  0  0  0  0  0  0  0
  1  2  1  0  0  0  0
  1  5  1  0  0  0  0
  2  8  1  0  0  0  0
  3  1  1  0  0  0  0
  4  1  1  0  0  0  0
  6  2  1  0  0  0  0
  6  9  1  0  0  0  0
  6 10  1  0  0  0  0
  7  2  1  0  0  0  0
  9 12  1  0  0  0  0
 11  6  1  0  0  0  0
 13  9  1  0  0  0  0
 14  9  1  0  0  0  0
M  END
$$$$
