14
butane_opt
C  -3.951428   0.276704   0.022336
C  -2.699363  -0.640271   0.025734
H  -4.859862  -0.279655   0.021514
H  -4.036620   0.905188  -0.862370
H  -3.957181   0.968815   0.919456
C  -1.399018   0.181636   0.008522
H  -2.746901  -1.369455  -0.869537
H  -2.678797  -1.259592   0.911174
C  -0.159252  -0.682254   0.044457
H  -1.403606   0.851523   0.863091
H  -1.373120   0.823824  -0.873124
H  -0.075312  -1.377336   0.976426
H   0.782106  -0.059162  -0.079815
H  -0.175568  -1.293900  -0.780264
