14
butane_opt
C  -3.936472   0.260305  -0.014612
C  -2.699205  -0.597987   0.060853
H  -4.861498  -0.338151  -0.018811
H  -3.967567   0.864198  -0.902888
H  -3.941006   0.914059   0.846034
C  -1.400889   0.177487   0.054005
H  -2.684150  -1.300657  -0.779323
H  -2.705653  -1.255494   0.956718
C  -0.177097  -0.700155   0.003315
H  -1.359202   0.912000   0.939945
H  -1.420252   0.800172  -0.837226
H  -0.046968  -1.367924   0.942015
H   0.737126  -0.079975  -0.147240
H  -0.211323  -1.292865  -0.800520
