14
butane_opt
C  -3.933107   0.265601  -0.010498
C  -2.682709  -0.627906   0.057648
H  -4.848561  -0.323354   0.186257
H  -4.035494   1.056162  -1.005567
H  -3.929926   0.806669   0.794165
C  -1.412137   0.184808   0.044364
H  -2.681545  -1.312731  -0.800287
H  -2.772282  -1.239170   0.955409
C  -0.174436  -0.691667   0.010872
H  -1.384886   0.921428   0.918277
H  -1.424462   0.786233  -0.824760
H  -0.160505  -1.214613   0.846717
H   0.784251  -0.083863   0.011666
H  -0.140650  -1.431946  -0.893908
