butane_opt
 OpenBabel08242015403D

 14 13  0  0  0  0  0  0  0  0999 V2000
   -3.9347    0.2467   -0.0017 C   0  0  0  0  0  0  0  0  0  0  0  0
   -2.6973   -0.5857    0.0498 C   0  0  0  0  0  0  0  0  0  0  0  0
   -4.8538   -0.3711    0.1405 H   0  0  0  0  0  0  0  0  0  0  0  0
   -4.0090    0.9501   -0.9444 H   0  0  0  0  0  0  0  0  0  0  0  0
   -3.8788    0.8427    0.8437 H   0  0  0  0  0  0  0  0  0  0  0  0
   -1.4191    0.1955    0.0216 C   0  0  0  0  0  0  0  0  0  0  0  0
   -2.7035   -1.2892   -0.7861 H   0  0  0  0  0  0  0  0  0  0  0  0
   -2.7465   -1.2637    0.9886 H   0  0  0  0  0  0  0  0  0  0  0  0
   -0.1589   -0.7101    0.0191 C   0  0  0  0  0  0  0  0  0  0  0  0
   -1.4184    0.9060    0.8961 H   0  0  0  0  0  0  0  0  0  0  0  0
   -1.3983    0.7822   -0.8381 H   0  0  0  0  0  0  0  0  0  0  0  0
   -0.1725   -1.2499    0.8654 H   0  0  0  0  0  0  0  0  0  0  0  0
    0.7761   -0.0845    0.0713 H   0  0  0  0  0  0  0  0  0  0  0  0
   -0.0928   -1.4460   -0.8837 H   0  0  0  0  0  0  0  0  0  0  0  0
  1  2  1  0  0  0  0
  1  3  1  0  0  0  0
  1  5  1  0  0  0  0
  2  8  1  0  0  0  0
  4  1  1  0  0  0  0
  6  2  1  0  0  0  0
  6 10  1  0  0  0  0
  7  2  1  0  0  0  0
  9  6  1  0  0  0  0
  9 13  1  0  0  0  0
  9 12  1  0  0  0  0
 11  6  1  0  0  0  0
 14  9  1  0  0  0  0
M  END
$$$$
