14
butane_opt
C  -3.951719   0.275813   0.022643
C  -2.702756  -0.628790   0.026998
H  -4.848991  -0.294522  -0.046979
H  -3.982240   0.766200  -0.757230
H  -4.041572   1.072340   0.957334
C  -1.394576   0.177369  -0.000768
H  -2.732706  -1.307351  -0.826754
H  -2.694512  -1.289622   0.974685
C  -0.161256  -0.684554   0.041252
H  -1.322451   0.817172   0.825771
H  -1.344261   0.837054  -0.928354
H  -0.148573  -1.357958   0.979114
H   0.737145  -0.103404  -0.017291
H  -0.120195  -1.293149  -0.783623
