14
butane_opt
C  -3.939395   0.249159   0.002700
C  -2.717074  -0.599708   0.067355
H  -4.835970  -0.321539  -0.114119
H  -3.902438   0.781004  -0.839027
H  -4.043204   0.993213   0.924172
C  -1.404900   0.204360   0.011986
H  -2.698536  -1.260795  -0.782393
H  -2.766174  -1.272389   1.001804
C  -0.142704  -0.706251   0.011288
H  -1.344374   0.886204   0.883279
H  -1.439751   0.817985  -0.855458
H  -0.126697  -1.357019   0.919045
H   0.742386  -0.159068   0.022614
H  -0.146714  -1.355737  -0.822360
