14
butane_opt
C  -3.953282   0.280727  -0.003411
C  -2.696325  -0.637194   0.069639
H  -4.864564  -0.318893   0.092230
H  -3.991433   0.926800  -0.918635
H  -4.011342   0.894708   0.793750
C  -1.397107   0.179480   0.018382
H  -2.689921  -1.291457  -0.773733
H  -2.704522  -1.291010   0.987006
C  -0.158139  -0.678256   0.018098
H  -1.417904   0.832185   0.867354
H  -1.360466   0.799081  -0.858501
H  -0.149415  -1.157225   0.803583
H   0.750473  -0.102581   0.128756
H  -0.129258  -1.499738  -0.934233
