butane_opt
 OpenBabel08242015403D

 14 13  0  0  0  0  0  0  0  0999 V2000
   -3.9497    0.2497   -0.0050 C   0  0  0  0  0  0  0  0  0  0  0  0
   -2.7090   -0.6005    0.0523 C   0  0  0  0  0  0  0  0  0  0  0  0
   -4.8641   -0.3355    0.1189 H   0  0  0  0  0  0  0  0  0  0  0  0
   -3.9472    1.0309   -0.9866 H   0  0  0  0  0  0  0  0  0  0  0  0
   -3.9298    0.8108    0.7771 H   0  0  0  0  0  0  0  0  0  0  0  0
   -1.4090    0.1900    0.0455 C   0  0  0  0  0  0  0  0  0  0  0  0
   -2.7910   -1.2648   -0.8124 H   0  0  0  0  0  0  0  0  0  0  0  0
   -2.7467   -1.2507    0.9787 H   0  0  0  0  0  0  0  0  0  0  0  0
   -0.1384   -0.7031    0.0086 C   0  0  0  0  0  0  0  0  0  0  0  0
   -1.3851    0.9277    0.9586 H   0  0  0  0  0  0  0  0  0  0  0  0
   -1.4235    0.7827   -0.8031 H   0  0  0  0  0  0  0  0  0  0  0  0
   -0.0958   -1.2762    0.8627 H   0  0  0  0  0  0  0  0  0  0  0  0
    0.7496   -0.1314   -0.0263 H   0  0  0  0  0  0  0  0  0  0  0  0
   -0.1165   -1.3981   -0.8680 H   0  0  0  0  0  0  0  0  0  0  0  0
  1  2  1  0  0  0  0
  1  3  1  0  0  0  0
  1  5  1  0  0  0  0
  2  8  1  0  0  0  0
  4  1  1  0  0  0  0
  6  2  1  0  0  0  0
  6 10  1  0  0  0  0
  7  2  1  0  0  0  0
  9  6  1  0  0  0  0
  9 12  1  0  0  0  0
 11  6  1  0  0  0  0
 13  9  1  0  0  0  0
 14  9  1  0  0  0  0
M  END
$$$$
