14
butane_opt
C  -3.953720   0.278740   0.048919
C  -2.681548  -0.633460   0.004906
H  -4.891205  -0.328648   0.133427
H  -3.993793   0.955219  -0.869665
H  -3.948895   0.891827   0.878861
C  -1.400941   0.169072  -0.012583
H  -2.738858  -1.339925  -0.870089
H  -2.648227  -1.187078   0.845300
C  -0.175705  -0.684686   0.057022
H  -1.403592   0.842386   0.833254
H  -1.345927   0.821473  -0.949499
H  -0.174722  -1.301021   0.977737
H   0.779819  -0.046250   0.078732
H  -0.124032  -1.334106  -0.801311
