14
butane_opt
C  -3.951847   0.261515   0.043934
C  -2.703167  -0.608394  -0.006477
H  -4.862941  -0.333576   0.187478
H  -4.116814   0.909874  -0.870850
H  -3.890168   0.851152   0.849252
C  -1.397525   0.188519   0.002456
H  -2.749988  -1.356715  -0.917571
H  -2.711247  -1.189197   0.886219
C  -0.146319  -0.699887   0.058229
H  -1.425411   0.833213   0.826596
H  -1.401892   0.887744  -0.935890
H  -0.134137  -1.336310   0.991028
H   0.775796  -0.101975   0.033133
H  -0.116248  -1.337855  -0.791230
