butane_opt
 OpenBabel08242015403D

 14 13  0  0  0  0  0  0  0  0999 V2000
   -3.9398    0.2566   -0.0130 C   0  0  0  0  0  0  0  0  0  0  0  0
   -2.7083   -0.5935    0.0618 C   0  0  0  0  0  0  0  0  0  0  0  0
   -4.8474   -0.3700    0.0403 H   0  0  0  0  0  0  0  0  0  0  0  0
   -3.9354    0.9153   -0.9412 H   0  0  0  0  0  0  0  0  0  0  0  0
   -3.9725    0.8693    0.7988 H   0  0  0  0  0  0  0  0  0  0  0  0
   -1.4019    0.1882    0.0577 C   0  0  0  0  0  0  0  0  0  0  0  0
   -2.7251   -1.3063   -0.7933 H   0  0  0  0  0  0  0  0  0  0  0  0
   -2.7719   -1.2189    0.9647 H   0  0  0  0  0  0  0  0  0  0  0  0
   -0.1597   -0.7046    0.0101 C   0  0  0  0  0  0  0  0  0  0  0  0
   -1.4206    0.9046    0.9234 H   0  0  0  0  0  0  0  0  0  0  0  0
   -1.3966    0.8012   -0.8275 H   0  0  0  0  0  0  0  0  0  0  0  0
   -0.0122   -1.3657    0.8974 H   0  0  0  0  0  0  0  0  0  0  0  0
    0.7793   -0.0867   -0.1577 H   0  0  0  0  0  0  0  0  0  0  0  0
   -0.2093   -1.3677   -0.8697 H   0  0  0  0  0  0  0  0  0  0  0  0
  1  3  1  0  0  0  0
  1  2  1  0  0  0  0
  1  5  1  0  0  0  0
  2  8  1  0  0  0  0
  4  1  1  0  0  0  0
  6  2  1  0  0  0  0
  6 10  1  0  0  0  0
  7  2  1  0  0  0  0
  9  6  1  0  0  0  0
  9 12  1  0  0  0  0
 11  6  1  0  0  0  0
 13  9  1  0  0  0  0
 14  9  1  0  0  0  0
M  END
$$$$
