14
butane_opt
C  -3.931627   0.257826  -0.001030
C  -2.704060  -0.592542   0.071703
H  -4.896020  -0.385238  -0.092732
H  -3.858555   0.830229  -0.887413
H  -4.033523   0.915997   0.852070
C  -1.399358   0.193456   0.029965
H  -2.690895  -1.229378  -0.764982
H  -2.732777  -1.283047   1.017795
C  -0.167475  -0.708876   0.006700
H  -1.391773   0.906517   0.882550
H  -1.412947   0.763071  -0.829861
H  -0.136933  -1.297680   0.878867
H   0.711102  -0.122211  -0.030483
H  -0.136874  -1.381623  -0.876675
