14
butane_opt
C  -3.928032   0.254419   0.045566
C  -2.710702  -0.602711   0.013329
H  -4.880507  -0.357447   0.092857
H  -3.986530   0.841785  -0.821702
H  -3.939643   0.950218   0.921264
C  -1.406249   0.194961  -0.031218
H  -2.768879  -1.287636  -0.861209
H  -2.731203  -1.241194   0.907805
C  -0.157163  -0.703848   0.059091
H  -1.384940   0.880769   0.800392
H  -1.436936   0.857277  -0.927402
H  -0.185307  -1.291454   0.961947
H   0.725675  -0.156727   0.139301
H  -0.002755  -1.394681  -0.808460
