14
butane_opt
C  -3.939730   0.246954   0.000850
C  -2.702455  -0.599229   0.047759
H  -4.837128  -0.360647   0.022013
H  -4.002034   0.890538  -0.929457
H  -3.986184   0.915573   0.841195
C  -1.415032   0.204239   0.046520
H  -2.746947  -1.299843  -0.841182
H  -2.717868  -1.233120   0.929011
C  -0.149277  -0.706221   0.019822
H  -1.384301   0.875960   0.882928
H  -1.391449   0.835964  -0.829614
H  -0.005198  -1.395094   0.941736
H   0.755738  -0.115811  -0.135289
H  -0.218178  -1.333219  -0.818369
