14
butane_opt
C  -3.957350   0.257530   0.044690
C  -2.707988  -0.615739   0.025461
H  -4.869499  -0.336959   0.046888
H  -3.965629   0.901253  -0.881278
H  -3.940322   0.916125   0.905203
C  -1.412324   0.195562  -0.019195
H  -2.741189  -1.291913  -0.841829
H  -2.709980  -1.186746   0.864622
C  -0.137436  -0.704656   0.048762
H  -1.407726   0.858649   0.810105
H  -1.364748   0.841095  -0.913385
H  -0.164326  -1.289581   0.945338
H   0.780152  -0.078621   0.103626
H  -0.059887  -1.400755  -0.802173
