14
butane_opt
C  -3.946661   0.277961   0.046425
C  -2.691091  -0.620889   0.027677
H  -4.867255  -0.305811  -0.087023
H  -3.982113   0.741655  -0.768230
H  -4.006581   1.020198   0.957152
C  -1.393727   0.172433  -0.032299
H  -2.722773  -1.312091  -0.843033
H  -2.722811  -1.225813   0.867291
C  -0.171563  -0.684781   0.057207
H  -1.366866   0.847919   0.814033
H  -1.366498   0.794275  -0.922090
H  -0.184487  -1.383912   1.007878
H   0.759744  -0.094137  -0.006023
H  -0.130320  -1.289575  -0.748856
