butane_opt
 OpenBabel08242015403D

 14 13  0  0  0  0  0  0  0  0999 V2000
   -3.9502    0.2568    0.0576 C   0  0  0  0  0  0  0  0  0  0  0  0
   -2.7040   -0.6138   -0.0148 C   0  0  0  0  0  0  0  0  0  0  0  0
   -4.8404   -0.3342    0.1683 H   0  0  0  0  0  0  0  0  0  0  0  0
   -4.0570    0.9199   -0.8712 H   0  0  0  0  0  0  0  0  0  0  0  0
   -3.8563    0.8544    0.8905 H   0  0  0  0  0  0  0  0  0  0  0  0
   -1.4145    0.1971   -0.0278 C   0  0  0  0  0  0  0  0  0  0  0  0
   -2.7299   -1.2982   -0.8614 H   0  0  0  0  0  0  0  0  0  0  0  0
   -2.7014   -1.2052    0.8433 H   0  0  0  0  0  0  0  0  0  0  0  0
   -0.1497   -0.6971    0.0727 C   0  0  0  0  0  0  0  0  0  0  0  0
   -1.4220    0.8929    0.8426 H   0  0  0  0  0  0  0  0  0  0  0  0
   -1.3156    0.8141   -0.8945 H   0  0  0  0  0  0  0  0  0  0  0  0
   -0.0896   -1.3302    0.9724 H   0  0  0  0  0  0  0  0  0  0  0  0
    0.7022   -0.1573    0.0370 H   0  0  0  0  0  0  0  0  0  0  0  0
   -0.0912   -1.3448   -0.7475 H   0  0  0  0  0  0  0  0  0  0  0  0
  1  3  1  0  0  0  0
  1  5  1  0  0  0  0
  2  1  1  0  0  0  0
  2  8  1  0  0  0  0
  4  1  1  0  0  0  0
  6  2  1  0  0  0  0
  6  9  1  0  0  0  0
  6 10  1  0  0  0  0
  7  2  1  0  0  0  0
  9 12  1  0  0  0  0
 11  6  1  0  0  0  0
 13  9  1  0  0  0  0
 14  9  1  0  0  0  0
M  END
$$$$
