butane_opt
 OpenBabel08242015403D

 14 13  0  0  0  0  0  0  0  0999 V2000
   -3.9432    0.2605    0.0062 C   0  0  0  0  0  0  0  0  0  0  0  0
   -2.6975   -0.6010    0.0455 C   0  0  0  0  0  0  0  0  0  0  0  0
   -4.8767   -0.3552    0.0037 H   0  0  0  0  0  0  0  0  0  0  0  0
   -3.9288    0.7974   -0.8445 H   0  0  0  0  0  0  0  0  0  0  0  0
   -3.9594    0.9771    0.8916 H   0  0  0  0  0  0  0  0  0  0  0  0
   -1.4121    0.1866    0.0196 C   0  0  0  0  0  0  0  0  0  0  0  0
   -2.7213   -1.3126   -0.8169 H   0  0  0  0  0  0  0  0  0  0  0  0
   -2.6929   -1.2218    0.9055 H   0  0  0  0  0  0  0  0  0  0  0  0
   -0.1556   -0.6930    0.0243 C   0  0  0  0  0  0  0  0  0  0  0  0
   -1.3523    0.8446    0.8854 H   0  0  0  0  0  0  0  0  0  0  0  0
   -1.4168    0.7952   -0.8403 H   0  0  0  0  0  0  0  0  0  0  0  0
   -0.1158   -1.4121    0.9815 H   0  0  0  0  0  0  0  0  0  0  0  0
    0.7330   -0.1367   -0.0956 H   0  0  0  0  0  0  0  0  0  0  0  0
   -0.1866   -1.2830   -0.7612 H   0  0  0  0  0  0  0  0  0  0  0  0
  1  2  1  0  0  0  0
  1  5  1  0  0  0  0
  2  8  1  0  0  0  0
  3  1  1  0  0  0  0
  4  1  1  0  0  0  0
  6  9  1  0  0  0  0
  6  2  1  0  0  0  0
  6 10  1  0  0  0  0
  7  2  1  0  0  0  0
  9 12  1  0  0  0  0
 11  6  1  0  0  0  0
 13  9  1  0  0  0  0
 14  9  1  0  0  0  0
M  END
$$$$
