14
butane_opt
C  -3.932330   0.258958  -0.007882
C  -2.702645  -0.593930   0.071151
H  -4.909828  -0.392418  -0.035673
H  -3.918739   0.890929  -0.942843
H  -3.960679   0.894239   0.823889
C  -1.410494   0.191189   0.046029
H  -2.734412  -1.292871  -0.788120
H  -2.758276  -1.235180   0.953741
C  -0.157496  -0.703435   0.009213
H  -1.398369   0.853763   0.897495
H  -1.394744   0.792773  -0.816129
H  -0.034270  -1.322810   0.903698
H   0.729530  -0.122416  -0.100653
H  -0.203347  -1.374692  -0.885597
