14
butane_opt
C  -3.966416   0.269667   0.055319
C  -2.698617  -0.626679   0.014417
H  -4.860102  -0.318829   0.058293
H  -3.986687   0.863203  -0.832032
H  -3.986328   0.975058   0.941530
C  -1.393432   0.180276  -0.039778
H  -2.744820  -1.356149  -0.881681
H  -2.615175  -1.215513   0.892754
C  -0.150381  -0.689295   0.063174
H  -1.408383   0.806506   0.776771
H  -1.355669   0.888678  -0.973806
H  -0.223288  -1.236525   0.948882
H   0.753424  -0.112890   0.192700
H  -0.083746  -1.378452  -0.802317
