butane_opt
 OpenBabel08242015403D

 14 13  0  0  0  0  0  0  0  0999 V2000
   -3.9482    0.2634    0.0443 C   0  0  0  0  0  0  0  0  0  0  0  0
   -2.6942   -0.6133    0.0146 C   0  0  0  0  0  0  0  0  0  0  0  0
   -4.8728   -0.3319   -0.0688 H   0  0  0  0  0  0  0  0  0  0  0  0
   -3.9277    0.7710   -0.8061 H   0  0  0  0  0  0  0  0  0  0  0  0
   -3.9491    1.0772    1.0141 H   0  0  0  0  0  0  0  0  0  0  0  0
   -1.4101    0.1726   -0.0202 C   0  0  0  0  0  0  0  0  0  0  0  0
   -2.6952   -1.2650   -0.8108 H   0  0  0  0  0  0  0  0  0  0  0  0
   -2.6574   -1.2552    0.9015 H   0  0  0  0  0  0  0  0  0  0  0  0
   -0.1648   -0.6883    0.0545 C   0  0  0  0  0  0  0  0  0  0  0  0
   -1.3713    0.8130    0.7746 H   0  0  0  0  0  0  0  0  0  0  0  0
   -1.3957    0.8276   -0.9376 H   0  0  0  0  0  0  0  0  0  0  0  0
   -0.1533   -1.3475    0.9959 H   0  0  0  0  0  0  0  0  0  0  0  0
    0.7345   -0.0791    0.0356 H   0  0  0  0  0  0  0  0  0  0  0  0
   -0.1304   -1.2976   -0.7553 H   0  0  0  0  0  0  0  0  0  0  0  0
  1  5  1  0  0  0  0
  2  1  1  0  0  0  0
  2  8  1  0  0  0  0
  3  1  1  0  0  0  0
  4  1  1  0  0  0  0
  6  2  1  0  0  0  0
  6  9  1  0  0  0  0
  6 10  1  0  0  0  0
  7  2  1  0  0  0  0
  9 12  1  0  0  0  0
 11  6  1  0  0  0  0
 13  9  1  0  0  0  0
 14  9  1  0  0  0  0
M  END
$$$$
