14
butane_opt
C  -3.934340   0.261063   0.030513
C  -2.698654  -0.601700   0.007630
H  -4.879375  -0.367387   0.048967
H  -3.969282   0.781650  -0.802848
H  -3.882467   0.971199   0.929345
C  -1.420835   0.192170  -0.000725
H  -2.711596  -1.306152  -0.846898
H  -2.671804  -1.242320   0.903249
C  -0.162128  -0.701185   0.056171
H  -1.411040   0.855031   0.823657
H  -1.394329   0.809954  -0.876976
H  -0.114743  -1.404705   0.972061
H   0.760599  -0.104456  -0.101897
H  -0.155857  -1.263937  -0.719318
