butane_opt
 OpenBabel08242015403D

 14 13  0  0  0  0  0  0  0  0999 V2000
   -3.9658    0.2731    0.0344 C   0  0  0  0  0  0  0  0  0  0  0  0
   -2.6920   -0.6229    0.0074 C   0  0  0  0  0  0  0  0  0  0  0  0
   -4.8597   -0.3053    0.1988 H   0  0  0  0  0  0  0  0  0  0  0  0
   -4.0531    0.9434   -0.8838 H   0  0  0  0  0  0  0  0  0  0  0  0
   -3.9211    0.9023    0.8771 H   0  0  0  0  0  0  0  0  0  0  0  0
   -1.3965    0.1683   -0.0093 C   0  0  0  0  0  0  0  0  0  0  0  0
   -2.7089   -1.3342   -0.8765 H   0  0  0  0  0  0  0  0  0  0  0  0
   -2.6917   -1.2425    0.8603 H   0  0  0  0  0  0  0  0  0  0  0  0
   -0.1571   -0.6865    0.0539 C   0  0  0  0  0  0  0  0  0  0  0  0
   -1.3251    0.8973    0.8815 H   0  0  0  0  0  0  0  0  0  0  0  0
   -1.3822    0.7621   -0.8801 H   0  0  0  0  0  0  0  0  0  0  0  0
   -0.1678   -1.3287    0.9602 H   0  0  0  0  0  0  0  0  0  0  0  0
    0.7381   -0.0680    0.0310 H   0  0  0  0  0  0  0  0  0  0  0  0
   -0.1174   -1.2745   -0.7566 H   0  0  0  0  0  0  0  0  0  0  0  0
  1  3  1  0  0  0  0
  1  5  1  0  0  0  0
  2  1  1  0  0  0  0
  2  8  1  0  0  0  0
  4  1  1  0  0  0  0
  6  2  1  0  0  0  0
  6  9  1  0  0  0  0
  6 10  1  0  0  0  0
  7  2  1  0  0  0  0
  9 12  1  0  0  0  0
 11  6  1  0  0  0  0
 13  9  1  0  0  0  0
 14  9  1  0  0  0  0
M  END
$$$$
