14
butane_opt
C  -3.934710   0.249821   0.019606
C  -2.687530  -0.595293   0.020385
H  -4.863931  -0.348945   0.045309
H  -3.930901   0.813585  -0.855463
H  -3.943441   0.915479   0.893406
C  -1.416640   0.197705   0.020471
H  -2.695529  -1.307850  -0.838172
H  -2.756150  -1.217276   0.937013
C  -0.165491  -0.698937   0.029148
H  -1.393353   0.917443   0.920981
H  -1.413881   0.805184  -0.870554
H  -0.101404  -1.461202   1.021247
H   0.708338  -0.167178  -0.130335
H  -0.174096  -1.262191  -0.741153
