butane_opt
 OpenBabel08242015403D

 14 13  0  0  0  0  0  0  0  0999 V2000
   -3.9399    0.2659   -0.0057 C   0  0  0  0  0  0  0  0  0  0  0  0
   -2.6947   -0.6236    0.0573 C   0  0  0  0  0  0  0  0  0  0  0  0
   -4.8181   -0.2911    0.0780 H   0  0  0  0  0  0  0  0  0  0  0  0
   -3.9441    1.0279   -1.0004 H   0  0  0  0  0  0  0  0  0  0  0  0
   -3.9698    0.8536    0.7623 H   0  0  0  0  0  0  0  0  0  0  0  0
   -1.4082    0.1756    0.0511 C   0  0  0  0  0  0  0  0  0  0  0  0
   -2.6846   -1.3093   -0.7882 H   0  0  0  0  0  0  0  0  0  0  0  0
   -2.6723   -1.2710    0.9700 H   0  0  0  0  0  0  0  0  0  0  0  0
   -0.1726   -0.6855    0.0041 C   0  0  0  0  0  0  0  0  0  0  0  0
   -1.3453    0.9078    0.9213 H   0  0  0  0  0  0  0  0  0  0  0  0
   -1.4484    0.7394   -0.7713 H   0  0  0  0  0  0  0  0  0  0  0  0
   -0.1020   -1.2936    0.8903 H   0  0  0  0  0  0  0  0  0  0  0  0
    0.7738   -0.0508   -0.0396 H   0  0  0  0  0  0  0  0  0  0  0  0
   -0.2337   -1.3645   -0.8742 H   0  0  0  0  0  0  0  0  0  0  0  0
  1  2  1  0  0  0  0
  1  3  1  0  0  0  0
  1  5  1  0  0  0  0
  2  8  1  0  0  0  0
  4  1  1  0  0  0  0
  6  2  1  0  0  0  0
  6 10  1  0  0  0  0
  7  2  1  0  0  0  0
  9  6  1  0  0  0  0
  9 12  1  0  0  0  0
 11  6  1  0  0  0  0
 13  9  1  0  0  0  0
 14  9  1  0  0  0  0
M  END
$$$$
