butane_opt
 OpenBabel08242015403D

 14 13  0  0  0  0  0  0  0  0999 V2000
   -3.9388    0.2539    0.0150 C   0  0  0  0  0  0  0  0  0  0  0  0
   -2.7100   -0.6097    0.0576 C   0  0  0  0  0  0  0  0  0  0  0  0
   -4.8810   -0.3442   -0.0651 H   0  0  0  0  0  0  0  0  0  0  0  0
   -3.9599    0.7920   -0.8279 H   0  0  0  0  0  0  0  0  0  0  0  0
   -4.0132    1.0156    0.9199 H   0  0  0  0  0  0  0  0  0  0  0  0
   -1.3977    0.1989    0.0067 C   0  0  0  0  0  0  0  0  0  0  0  0
   -2.6995   -1.3097   -0.8302 H   0  0  0  0  0  0  0  0  0  0  0  0
   -2.7183   -1.1870    0.8954 H   0  0  0  0  0  0  0  0  0  0  0  0
   -0.1627   -0.7050    0.0299 C   0  0  0  0  0  0  0  0  0  0  0  0
   -1.3697    0.8632    0.8224 H   0  0  0  0  0  0  0  0  0  0  0  0
   -1.3787    0.8735   -0.9068 H   0  0  0  0  0  0  0  0  0  0  0  0
   -0.0853   -1.3727    0.9656 H   0  0  0  0  0  0  0  0  0  0  0  0
    0.7345   -0.1424   -0.0148 H   0  0  0  0  0  0  0  0  0  0  0  0
   -0.1289   -1.3331   -0.8117 H   0  0  0  0  0  0  0  0  0  0  0  0
  1  2  1  0  0  0  0
  1  5  1  0  0  0  0
  2  8  1  0  0  0  0
  3  1  1  0  0  0  0
  4  1  1  0  0  0  0
  6  9  1  0  0  0  0
  6  2  1  0  0  0  0
  6 10  1  0  0  0  0
  7  2  1  0  0  0  0
  9 12  1  0  0  0  0
 11  6  1  0  0  0  0
 13  9  1  0  0  0  0
 14  9  1  0  0  0  0
M  END
$$$$
