butane_opt
 OpenBabel08242015403D

 14 13  0  0  0  0  0  0  0  0999 V2000
   -3.9402    0.2564    0.0304 C   0  0  0  0  0  0  0  0  0  0  0  0
   -2.6916   -0.6045    0.0182 C   0  0  0  0  0  0  0  0  0  0  0  0
   -4.8731   -0.3926    0.1329 H   0  0  0  0  0  0  0  0  0  0  0  0
   -4.0075    0.8920   -0.8846 H   0  0  0  0  0  0  0  0  0  0  0  0
   -3.8638    0.8887    0.8627 H   0  0  0  0  0  0  0  0  0  0  0  0
   -1.4078    0.2021   -0.0027 C   0  0  0  0  0  0  0  0  0  0  0  0
   -2.6748   -1.2677   -0.8191 H   0  0  0  0  0  0  0  0  0  0  0  0
   -2.7321   -1.2753    0.9392 H   0  0  0  0  0  0  0  0  0  0  0  0
   -0.1730   -0.7037    0.0438 C   0  0  0  0  0  0  0  0  0  0  0  0
   -1.4441    0.8802    0.8711 H   0  0  0  0  0  0  0  0  0  0  0  0
   -1.4009    0.8401   -0.9009 H   0  0  0  0  0  0  0  0  0  0  0  0
   -0.1774   -1.3031    0.9252 H   0  0  0  0  0  0  0  0  0  0  0  0
    0.7493   -0.0946    0.0895 H   0  0  0  0  0  0  0  0  0  0  0  0
   -0.0504   -1.4424   -0.8616 H   0  0  0  0  0  0  0  0  0  0  0  0
  1  3  1  0  0  0  0
  1  5  1  0  0  0  0
  2  1  1  0  0  0  0
  2  8  1  0  0  0  0
  4  1  1  0  0  0  0
  6  2  1  0  0  0  0
  6  9  1  0  0  0  0
  6 10  1  0  0  0  0
  7  2  1  0  0  0  0
  9 13  1  0  0  0  0
  9 12  1  0  0  0  0
 11  6  1  0  0  0  0
 14  9  1  0  0  0  0
M  END
$$$$
