butane_opt
 OpenBabel08242015403D

 14 13  0  0  0  0  0  0  0  0999 V2000
   -3.9401    0.2576   -0.0085 C   0  0  0  0  0  0  0  0  0  0  0  0
   -2.6947   -0.6003    0.0548 C   0  0  0  0  0  0  0  0  0  0  0  0
   -4.8477   -0.3337   -0.0030 H   0  0  0  0  0  0  0  0  0  0  0  0
   -3.9085    0.8152   -0.8762 H   0  0  0  0  0  0  0  0  0  0  0  0
   -3.9407    0.9747    0.8898 H   0  0  0  0  0  0  0  0  0  0  0  0
   -1.4181    0.1781    0.0363 C   0  0  0  0  0  0  0  0  0  0  0  0
   -2.6929   -1.2580   -0.7836 H   0  0  0  0  0  0  0  0  0  0  0  0
   -2.7849   -1.2754    0.9794 H   0  0  0  0  0  0  0  0  0  0  0  0
   -0.1557   -0.6909    0.0169 C   0  0  0  0  0  0  0  0  0  0  0  0
   -1.3784    0.9036    0.8892 H   0  0  0  0  0  0  0  0  0  0  0  0
   -1.4719    0.7853   -0.8308 H   0  0  0  0  0  0  0  0  0  0  0  0
   -0.0622   -1.3912    0.9305 H   0  0  0  0  0  0  0  0  0  0  0  0
    0.7747   -0.0898   -0.1024 H   0  0  0  0  0  0  0  0  0  0  0  0
   -0.2158   -1.3305   -0.8256 H   0  0  0  0  0  0  0  0  0  0  0  0
  1  3  1  0  0  0  0
  1  2  1  0  0  0  0
  1  5  1  0  0  0  0
  2  8  1  0  0  0  0
  4  1  1  0  0  0  0
  6  2  1  0  0  0  0
  6 10  1  0  0  0  0
  7  2  1  0  0  0  0
  9  6  1  0  0  0  0
  9 12  1  0  0  0  0
 11  6  1  0  0  0  0
 13  9  1  0  0  0  0
 14  9  1  0  0  0  0
M  END
$$$$
