butane_opt
 OpenBabel08242015403D

 14 13  0  0  0  0  0  0  0  0999 V2000
   -3.9653    0.2751   -0.0104 C   0  0  0  0  0  0  0  0  0  0  0  0
   -2.7007   -0.6402    0.0500 C   0  0  0  0  0  0  0  0  0  0  0  0
   -4.8199   -0.2753    0.1385 H   0  0  0  0  0  0  0  0  0  0  0  0
   -4.0040    0.9921   -0.9538 H   0  0  0  0  0  0  0  0  0  0  0  0
   -3.9596    0.8427    0.7874 H   0  0  0  0  0  0  0  0  0  0  0  0
   -1.3946    0.1736    0.0587 C   0  0  0  0  0  0  0  0  0  0  0  0
   -2.6375   -1.2882   -0.7899 H   0  0  0  0  0  0  0  0  0  0  0  0
   -2.7111   -1.2423    0.9276 H   0  0  0  0  0  0  0  0  0  0  0  0
   -0.1602   -0.6765    0.0084 C   0  0  0  0  0  0  0  0  0  0  0  0
   -1.3291    0.8536    0.9108 H   0  0  0  0  0  0  0  0  0  0  0  0
   -1.4136    0.8213   -0.8382 H   0  0  0  0  0  0  0  0  0  0  0  0
   -0.0653   -1.2721    0.8706 H   0  0  0  0  0  0  0  0  0  0  0  0
    0.7459   -0.1169   -0.0289 H   0  0  0  0  0  0  0  0  0  0  0  0
   -0.1884   -1.3634   -0.8677 H   0  0  0  0  0  0  0  0  0  0  0  0
  1  2  1  0  0  0  0
  1  3  1  0  0  0  0
  1  5  1  0  0  0  0
  2  6  1  0  0  0  0
  2  8  1  0  0  0  0
  4  1  1  0  0  0  0
  6 10  1  0  0  0  0
  7  2  1  0  0  0  0
  9  6  1  0  0  0  0
  9 12  1  0  0  0  0
 11  6  1  0  0  0  0
 13  9  1  0  0  0  0
 14  9  1  0  0  0  0
M  END
$$$$
