butane_opt
 OpenBabel08242015403D

 14 13  0  0  0  0  0  0  0  0999 V2000
   -3.9428    0.2510    0.0047 C   0  0  0  0  0  0  0  0  0  0  0  0
   -2.7199   -0.6044    0.0448 C   0  0  0  0  0  0  0  0  0  0  0  0
   -4.8755   -0.3434    0.1893 H   0  0  0  0  0  0  0  0  0  0  0  0
   -4.0005    1.0206   -0.9916 H   0  0  0  0  0  0  0  0  0  0  0  0
   -3.9138    0.7832    0.7698 H   0  0  0  0  0  0  0  0  0  0  0  0
   -1.4025    0.2041    0.0298 C   0  0  0  0  0  0  0  0  0  0  0  0
   -2.7472   -1.2948   -0.8280 H   0  0  0  0  0  0  0  0  0  0  0  0
   -2.6730   -1.2043    0.9114 H   0  0  0  0  0  0  0  0  0  0  0  0
   -0.1452   -0.7066    0.0175 C   0  0  0  0  0  0  0  0  0  0  0  0
   -1.3706    0.8999    0.9285 H   0  0  0  0  0  0  0  0  0  0  0  0
   -1.3966    0.7738   -0.8171 H   0  0  0  0  0  0  0  0  0  0  0  0
   -0.0870   -1.2651    0.8974 H   0  0  0  0  0  0  0  0  0  0  0  0
    0.7154   -0.1823    0.0523 H   0  0  0  0  0  0  0  0  0  0  0  0
   -0.1372   -1.3940   -0.8536 H   0  0  0  0  0  0  0  0  0  0  0  0
  1  2  1  0  0  0  0
  1  3  1  0  0  0  0
  1  5  1  0  0  0  0
  2  8  1  0  0  0  0
  4  1  1  0  0  0  0
  6  2  1  0  0  0  0
  6 10  1  0  0  0  0
  7  2  1  0  0  0  0
  9  6  1  0  0  0  0
  9 13  1  0  0  0  0
  9 12  1  0  0  0  0
 11  6  1  0  0  0  0
 14  9  1  0  0  0  0
M  END
$$$$
