14
butane_opt
C  -3.924158   0.254520   0.029756
C  -2.700695  -0.601390   0.014187
H  -4.842918  -0.333147   0.014919
H  -3.969535   0.844718  -0.846345
H  -3.933397   0.987377   0.912557
C  -1.417880   0.191464   0.021087
H  -2.721264  -1.341714  -0.891011
H  -2.751704  -1.217921   0.893143
C  -0.169137  -0.700381   0.042677
H  -1.354762   0.812786   0.831657
H  -1.417327   0.841332  -0.908217
H  -0.036148  -1.446897   1.012892
H   0.758885  -0.091346  -0.111027
H  -0.213948  -1.248415  -0.733095
