14
butane_opt
C  -3.940223   0.275854  -0.006741
C  -2.689903  -0.628097   0.076884
H  -4.823703  -0.319933  -0.101468
H  -3.881052   0.873106  -0.893441
H  -4.051268   0.984766   0.885959
C  -1.398340   0.166871   0.036457
H  -2.663799  -1.282665  -0.727779
H  -2.756379  -1.275688   0.982327
C  -0.181557  -0.682570   0.003624
H  -1.394463   0.852836   0.877331
H  -1.409963   0.829470  -0.888599
H  -0.097355  -1.262688   0.880109
H   0.769292  -0.062344   0.007984
H  -0.207064  -1.387099  -0.900281
