butane_opt
 OpenBabel08242015403D

 14 13  0  0  0  0  0  0  0  0999 V2000
   -3.9385    0.2719   -0.0049 C   0  0  0  0  0  0  0  0  0  0  0  0
   -2.6947   -0.6289    0.0511 C   0  0  0  0  0  0  0  0  0  0  0  0
   -4.8450   -0.3035    0.1620 H   0  0  0  0  0  0  0  0  0  0  0  0
   -4.0250    1.0150   -0.9713 H   0  0  0  0  0  0  0  0  0  0  0  0
   -4.0024    0.8759    0.8135 H   0  0  0  0  0  0  0  0  0  0  0  0
   -1.3967    0.1727    0.0409 C   0  0  0  0  0  0  0  0  0  0  0  0
   -2.7177   -1.2892   -0.8019 H   0  0  0  0  0  0  0  0  0  0  0  0
   -2.7036   -1.2509    0.9179 H   0  0  0  0  0  0  0  0  0  0  0  0
   -0.1703   -0.6849    0.0220 C   0  0  0  0  0  0  0  0  0  0  0  0
   -1.3652    0.8469    0.8775 H   0  0  0  0  0  0  0  0  0  0  0  0
   -1.3541    0.7948   -0.8350 H   0  0  0  0  0  0  0  0  0  0  0  0
   -0.1285   -1.2365    0.8316 H   0  0  0  0  0  0  0  0  0  0  0  0
    0.7532   -0.0794    0.0037 H   0  0  0  0  0  0  0  0  0  0  0  0
   -0.2244   -1.4097   -0.8796 H   0  0  0  0  0  0  0  0  0  0  0  0
  1  2  1  0  0  0  0
  1  3  1  0  0  0  0
  1  5  1  0  0  0  0
  2  8  1  0  0  0  0
  4  1  1  0  0  0  0
  6  2  1  0  0  0  0
  6 10  1  0  0  0  0
  7  2  1  0  0  0  0
  9  6  1  0  0  0  0
  9 12  1  0  0  0  0
 11  6  1  0  0  0  0
 13  9  1  0  0  0  0
 14  9  1  0  0  0  0
M  END
$$$$
