butane_opt
 OpenBabel08242015403D

 14 13  0  0  0  0  0  0  0  0999 V2000
   -3.9261    0.2531    0.0552 C   0  0  0  0  0  0  0  0  0  0  0  0
   -2.7084   -0.6065   -0.0053 C   0  0  0  0  0  0  0  0  0  0  0  0
   -4.8264   -0.3513    0.1197 H   0  0  0  0  0  0  0  0  0  0  0  0
   -4.0237    0.8657   -0.8481 H   0  0  0  0  0  0  0  0  0  0  0  0
   -3.9216    0.8987    0.8898 H   0  0  0  0  0  0  0  0  0  0  0  0
   -1.4182    0.1955   -0.0264 C   0  0  0  0  0  0  0  0  0  0  0  0
   -2.7479   -1.2527   -0.8531 H   0  0  0  0  0  0  0  0  0  0  0  0
   -2.6535   -1.2245    0.8839 H   0  0  0  0  0  0  0  0  0  0  0  0
   -0.1569   -0.7027    0.0675 C   0  0  0  0  0  0  0  0  0  0  0  0
   -1.4137    0.8929    0.8220 H   0  0  0  0  0  0  0  0  0  0  0  0
   -1.4066    0.8207   -0.9332 H   0  0  0  0  0  0  0  0  0  0  0  0
   -0.1797   -1.3076    0.9548 H   0  0  0  0  0  0  0  0  0  0  0  0
    0.7323   -0.1160    0.0811 H   0  0  0  0  0  0  0  0  0  0  0  0
   -0.0607   -1.3781   -0.7715 H   0  0  0  0  0  0  0  0  0  0  0  0
  1  3  1  0  0  0  0
  1  5  1  0  0  0  0
  2  1  1  0  0  0  0
  2  8  1  0  0  0  0
  4  1  1  0  0  0  0
  6  2  1  0  0  0  0
  6  9  1  0  0  0  0
  6 10  1  0  0  0  0
  7  2  1  0  0  0  0
  9 13  1  0  0  0  0
  9 12  1  0  0  0  0
 11  6  1  0  0  0  0
 14  9  1  0  0  0  0
M  END
$$$$
