14
butane_opt
C  -3.961178   0.275261   0.038201
C  -2.702196  -0.639468   0.003520
H  -4.823210  -0.277053   0.010708
H  -4.035439   0.827793  -0.821595
H  -3.931336   0.996984   0.953079
C  -1.397730   0.185113   0.004566
H  -2.674673  -1.332278  -0.839159
H  -2.678393  -1.242886   0.867808
C  -0.157576  -0.686607   0.050760
H  -1.419913   0.848963   0.835832
H  -1.325515   0.818089  -0.906176
H  -0.106088  -1.427049   1.021186
H   0.756717  -0.088893  -0.103364
H  -0.169435  -1.195717  -0.728843
