14
butane_opt
C  -3.941954   0.272566   0.043062
C  -2.683107  -0.624709   0.009233
H  -4.853538  -0.300402   0.130399
H  -4.007898   0.838035  -0.822314
H  -3.908399   0.966594   0.938531
C  -1.409879   0.176626  -0.033371
H  -2.713756  -1.278463  -0.835080
H  -2.692289  -1.273414   0.883314
C  -0.180545  -0.678933   0.067748
H  -1.380096   0.814900   0.796510
H  -1.372095   0.804820  -0.935411
H  -0.206071  -1.280260   0.945862
H   0.755124  -0.081867   0.139461
H  -0.071214  -1.421175  -0.835951
