14
butane_opt
C  -3.962101   0.272459   0.030717
C  -2.704954  -0.624924   0.016365
H  -4.829590  -0.287347  -0.011934
H  -4.009665   0.741942  -0.753280
H  -4.010928   1.084619   0.997774
C  -1.388279   0.171016  -0.015270
H  -2.725224  -1.275291  -0.813045
H  -2.688362  -1.233529   0.886948
C  -0.148371  -0.687036   0.055353
H  -1.365922   0.818713   0.826072
H  -1.352615   0.823787  -0.954813
H  -0.160918  -1.371601   1.014627
H   0.750929  -0.078879  -0.034450
H  -0.185427  -1.272224  -0.739090
