14
butane_opt
C  -3.938914   0.251918   0.003167
C  -2.699056  -0.591719   0.041118
H  -4.880226  -0.393105   0.143217
H  -3.976659   0.914337  -0.944818
H  -3.882231   0.896649   0.845257
C  -1.415738   0.191498   0.021992
H  -2.693185  -1.283949  -0.810072
H  -2.705235  -1.267960   0.976455
C  -0.164619  -0.700197   0.025097
H  -1.368507   0.881646   0.903394
H  -1.440356   0.779813  -0.853213
H  -0.103330  -1.292754   0.915134
H   0.747087  -0.117946   0.042283
H  -0.100334  -1.403208  -0.877088
