butane_opt
 OpenBabel08242015403D

 14 13  0  0  0  0  0  0  0  0999 V2000
   -3.9493    0.2510    0.0057 C   0  0  0  0  0  0  0  0  0  0  0  0
   -2.7048   -0.6091    0.0439 C   0  0  0  0  0  0  0  0  0  0  0  0
   -4.8428   -0.3291    0.1565 H   0  0  0  0  0  0  0  0  0  0  0  0
   -4.0079    1.0017   -0.9836 H   0  0  0  0  0  0  0  0  0  0  0  0
   -3.8822    0.7983    0.7925 H   0  0  0  0  0  0  0  0  0  0  0  0
   -1.4160    0.2013    0.0336 C   0  0  0  0  0  0  0  0  0  0  0  0
   -2.6906   -1.3126   -0.8365 H   0  0  0  0  0  0  0  0  0  0  0  0
   -2.7627   -1.2185    0.9446 H   0  0  0  0  0  0  0  0  0  0  0  0
   -0.1507   -0.6981    0.0206 C   0  0  0  0  0  0  0  0  0  0  0  0
   -1.3672    0.8850    0.9067 H   0  0  0  0  0  0  0  0  0  0  0  0
   -1.3841    0.8408   -0.8372 H   0  0  0  0  0  0  0  0  0  0  0  0
   -0.0540   -1.2913    0.9156 H   0  0  0  0  0  0  0  0  0  0  0  0
    0.7232   -0.1288    0.0260 H   0  0  0  0  0  0  0  0  0  0  0  0
   -0.1085   -1.4600   -0.9073 H   0  0  0  0  0  0  0  0  0  0  0  0
  1  2  1  0  0  0  0
  1  3  1  0  0  0  0
  1  5  1  0  0  0  0
  2  8  1  0  0  0  0
  4  1  1  0  0  0  0
  6  2  1  0  0  0  0
  6 10  1  0  0  0  0
  7  2  1  0  0  0  0
  9 13  1  0  0  0  0
  9  6  1  0  0  0  0
  9 12  1  0  0  0  0
 11  6  1  0  0  0  0
 14  9  1  0  0  0  0
M  END
$$$$
