14
butane_opt
C  -3.945504   0.259935   0.004722
C  -2.686488  -0.606675   0.046923
H  -4.865751  -0.334311   0.060380
H  -3.979818   0.954373  -0.936122
H  -3.911008   0.903152   0.835274
C  -1.402496   0.175376   0.025886
H  -2.725064  -1.280655  -0.825883
H  -2.680334  -1.287598   0.957187
C  -0.172713  -0.686635   0.023279
H  -1.404553   0.901385   0.925374
H  -1.428368   0.743973  -0.835691
H  -0.120747  -1.311204   0.936034
H   0.754756  -0.088735  -0.039027
H  -0.180448  -1.369327  -0.859228
