14
butane_opt
C  -3.957631   0.275973  -0.007098
C  -2.706464  -0.634856   0.050474
H  -4.834474  -0.300063   0.175841
H  -4.046431   0.985306  -0.963461
H  -3.919589   0.812174   0.773199
C  -1.396738   0.189510   0.045546
H  -2.635872  -1.344980  -0.799958
H  -2.733178  -1.244506   0.939185
C  -0.155286  -0.683357   0.014677
H  -1.360482   0.872136   0.919295
H  -1.382969   0.787280  -0.843587
H  -0.078439  -1.286634   0.862123
H   0.725287  -0.115920   0.005041
H  -0.171056  -1.393477  -0.879919
