14
butane_opt
C  -3.923178   0.262734  -0.006742
C  -2.698240  -0.616729   0.070264
H  -4.842891  -0.350120   0.069862
H  -3.941886   0.952482  -0.932198
H  -4.003676   0.888782   0.821093
C  -1.413855   0.185104   0.021525
H  -2.700582  -1.227048  -0.739053
H  -2.784303  -1.262558   1.007247
C  -0.164824  -0.692183   0.003795
H  -1.371687   0.872712   0.905345
H  -1.438380   0.773075  -0.819395
H  -0.198074  -1.201931   0.832111
H   0.750467  -0.115509   0.141011
H  -0.088006  -1.473421  -0.925054
