butane_opt
 OpenBabel08242015403D

 14 13  0  0  0  0  0  0  0  0999 V2000
   -3.9376    0.2686    0.0112 C   0  0  0  0  0  0  0  0  0  0  0  0
   -2.7040   -0.6166    0.0357 C   0  0  0  0  0  0  0  0  0  0  0  0
   -4.8607   -0.3309    0.0181 H   0  0  0  0  0  0  0  0  0  0  0  0
   -3.9056    0.8879   -0.9110 H   0  0  0  0  0  0  0  0  0  0  0  0
   -3.9809    0.9531    0.8562 H   0  0  0  0  0  0  0  0  0  0  0  0
   -1.4036    0.1823    0.0301 C   0  0  0  0  0  0  0  0  0  0  0  0
   -2.7147   -1.3067   -0.8234 H   0  0  0  0  0  0  0  0  0  0  0  0
   -2.6903   -1.2852    0.9418 H   0  0  0  0  0  0  0  0  0  0  0  0
   -0.1710   -0.6952    0.0245 C   0  0  0  0  0  0  0  0  0  0  0  0
   -1.3391    0.8972    0.9417 H   0  0  0  0  0  0  0  0  0  0  0  0
   -1.3995    0.7833   -0.8318 H   0  0  0  0  0  0  0  0  0  0  0  0
   -0.0610   -1.3818    0.9455 H   0  0  0  0  0  0  0  0  0  0  0  0
    0.7215   -0.0888   -0.1358 H   0  0  0  0  0  0  0  0  0  0  0  0
   -0.2011   -1.2637   -0.7697 H   0  0  0  0  0  0  0  0  0  0  0  0
  1  3  1  0  0  0  0
  1  2  1  0  0  0  0
  1  5  1  0  0  0  0
  2  8  1  0  0  0  0
  4  1  1  0  0  0  0
  6  2  1  0  0  0  0
  6 10  1  0  0  0  0
  7  2  1  0  0  0  0
  9  6  1  0  0  0  0
  9 12  1  0  0  0  0
 11  6  1  0  0  0  0
 13  9  1  0  0  0  0
 14  9  1  0  0  0  0
M  END
$$$$
