butane_opt
 OpenBabel08242015403D

 14 13  0  0  0  0  0  0  0  0999 V2000
   -3.9501    0.2702    0.0388 C   0  0  0  0  0  0  0  0  0  0  0  0
   -2.6933   -0.6301    0.0176 C   0  0  0  0  0  0  0  0  0  0  0  0
   -4.8241   -0.2920   -0.0366 H   0  0  0  0  0  0  0  0  0  0  0  0
   -4.0132    0.8048   -0.7891 H   0  0  0  0  0  0  0  0  0  0  0  0
   -3.9974    1.0581    0.9683 H   0  0  0  0  0  0  0  0  0  0  0  0
   -1.3998    0.1769   -0.0065 C   0  0  0  0  0  0  0  0  0  0  0  0
   -2.6748   -1.3429   -0.8542 H   0  0  0  0  0  0  0  0  0  0  0  0
   -2.6926   -1.2276    0.8888 H   0  0  0  0  0  0  0  0  0  0  0  0
   -0.1683   -0.6789    0.0562 C   0  0  0  0  0  0  0  0  0  0  0  0
   -1.3930    0.7862    0.7832 H   0  0  0  0  0  0  0  0  0  0  0  0
   -1.3215    0.8740   -0.9309 H   0  0  0  0  0  0  0  0  0  0  0  0
   -0.1699   -1.3961    1.0009 H   0  0  0  0  0  0  0  0  0  0  0  0
    0.7622   -0.0939   -0.0577 H   0  0  0  0  0  0  0  0  0  0  0  0
   -0.1589   -1.2988   -0.7919 H   0  0  0  0  0  0  0  0  0  0  0  0
  1  5  1  0  0  0  0
  2  1  1  0  0  0  0
  2  8  1  0  0  0  0
  3  1  1  0  0  0  0
  4  1  1  0  0  0  0
  6  2  1  0  0  0  0
  6  9  1  0  0  0  0
  6 10  1  0  0  0  0
  7  2  1  0  0  0  0
  9 12  1  0  0  0  0
 11  6  1  0  0  0  0
 13  9  1  0  0  0  0
 14  9  1  0  0  0  0
M  END
$$$$
