14
butane_opt
C  -3.939951   0.273609  -0.005942
C  -2.695648  -0.620149   0.049256
H  -4.844082  -0.315023   0.134103
H  -4.068677   0.986244  -0.966381
H  -3.922053   0.797536   0.739181
C  -1.403140   0.181101   0.047503
H  -2.698160  -1.260224  -0.761871
H  -2.733082  -1.300110   0.985829
C  -0.163711  -0.694294   0.006412
H  -1.339466   0.886663   0.946785
H  -1.413635   0.772763  -0.829288
H  -0.174705  -1.234790   0.853493
H   0.773619  -0.047375   0.048824
H  -0.175035  -1.434923  -0.901039
