butane_opt
 OpenBabel08242015403D

 14 13  0  0  0  0  0  0  0  0999 V2000
   -3.9360    0.2589    0.0457 C   0  0  0  0  0  0  0  0  0  0  0  0
   -2.6984   -0.6107    0.0137 C   0  0  0  0  0  0  0  0  0  0  0  0
   -4.8241   -0.3471    0.0962 H   0  0  0  0  0  0  0  0  0  0  0  0
   -3.9791    0.8434   -0.8140 H   0  0  0  0  0  0  0  0  0  0  0  0
   -3.8961    0.9501    0.9343 H   0  0  0  0  0  0  0  0  0  0  0  0
   -1.4186    0.1934   -0.0337 C   0  0  0  0  0  0  0  0  0  0  0  0
   -2.7536   -1.3463   -0.8531 H   0  0  0  0  0  0  0  0  0  0  0  0
   -2.6441   -1.1762    0.8594 H   0  0  0  0  0  0  0  0  0  0  0  0
   -0.1684   -0.6918    0.0634 C   0  0  0  0  0  0  0  0  0  0  0  0
   -1.3803    0.8059    0.7717 H   0  0  0  0  0  0  0  0  0  0  0  0
   -1.3917    0.8504   -0.9424 H   0  0  0  0  0  0  0  0  0  0  0  0
   -0.1801   -1.3321    0.9839 H   0  0  0  0  0  0  0  0  0  0  0  0
    0.7328   -0.1167    0.1534 H   0  0  0  0  0  0  0  0  0  0  0  0
   -0.0558   -1.3986   -0.8136 H   0  0  0  0  0  0  0  0  0  0  0  0
  1  3  1  0  0  0  0
  1  5  1  0  0  0  0
  2  1  1  0  0  0  0
  2  8  1  0  0  0  0
  4  1  1  0  0  0  0
  6  2  1  0  0  0  0
  6  9  1  0  0  0  0
  6 10  1  0  0  0  0
  7  2  1  0  0  0  0
  9 13  1  0  0  0  0
  9 12  1  0  0  0  0
 11  6  1  0  0  0  0
 14  9  1  0  0  0  0
M  END
$$$$
