butane_opt
 OpenBabel08242015403D

 14 13  0  0  0  0  0  0  0  0999 V2000
   -3.9268    0.2514   -0.0117 C   0  0  0  0  0  0  0  0  0  0  0  0
   -2.7069   -0.5964    0.0510 C   0  0  0  0  0  0  0  0  0  0  0  0
   -4.8595   -0.3571    0.0653 H   0  0  0  0  0  0  0  0  0  0  0  0
   -3.9521    0.8656   -0.8958 H   0  0  0  0  0  0  0  0  0  0  0  0
   -3.9369    0.9421    0.8534 H   0  0  0  0  0  0  0  0  0  0  0  0
   -1.4035    0.1888    0.0462 C   0  0  0  0  0  0  0  0  0  0  0  0
   -2.7107   -1.2556   -0.7834 H   0  0  0  0  0  0  0  0  0  0  0  0
   -2.7760   -1.2281    0.9513 H   0  0  0  0  0  0  0  0  0  0  0  0
   -0.1668   -0.7066    0.0139 C   0  0  0  0  0  0  0  0  0  0  0  0
   -1.4289    0.9406    0.9472 H   0  0  0  0  0  0  0  0  0  0  0  0
   -1.4263    0.7882   -0.8561 H   0  0  0  0  0  0  0  0  0  0  0  0
   -0.0493   -1.4105    0.9309 H   0  0  0  0  0  0  0  0  0  0  0  0
    0.7582   -0.0902   -0.1422 H   0  0  0  0  0  0  0  0  0  0  0  0
   -0.1967   -1.3116   -0.8125 H   0  0  0  0  0  0  0  0  0  0  0  0
  1  2  1  0  0  0  0
  1  3  1  0  0  0  0
  1  5  1  0  0  0  0
  2  8  1  0  0  0  0
  4  1  1  0  0  0  0
  6  2  1  0  0  0  0
  6 10  1  0  0  0  0
  7  2  1  0  0  0  0
  9  6  1  0  0  0  0
  9 12  1  0  0  0  0
 11  6  1  0  0  0  0
 13  9  1  0  0  0  0
 14  9  1  0  0  0  0
M  END
$$$$
