butane_opt
 OpenBabel08242015403D

 14 13  0  0  0  0  0  0  0  0999 V2000
   -3.9321    0.2570    0.0300 C   0  0  0  0  0  0  0  0  0  0  0  0
   -2.6991   -0.6073    0.0000 C   0  0  0  0  0  0  0  0  0  0  0  0
   -4.8661   -0.3862    0.2221 H   0  0  0  0  0  0  0  0  0  0  0  0
   -4.0146    0.9518   -0.9165 H   0  0  0  0  0  0  0  0  0  0  0  0
   -3.8474    0.8528    0.8579 H   0  0  0  0  0  0  0  0  0  0  0  0
   -1.4045    0.2083    0.0044 C   0  0  0  0  0  0  0  0  0  0  0  0
   -2.7296   -1.2769   -0.8404 H   0  0  0  0  0  0  0  0  0  0  0  0
   -2.7009   -1.2455    0.9035 H   0  0  0  0  0  0  0  0  0  0  0  0
   -0.1675   -0.7036    0.0535 C   0  0  0  0  0  0  0  0  0  0  0  0
   -1.4161    0.8697    0.8571 H   0  0  0  0  0  0  0  0  0  0  0  0
   -1.4154    0.7803   -0.8612 H   0  0  0  0  0  0  0  0  0  0  0  0
   -0.1403   -1.3209    0.9532 H   0  0  0  0  0  0  0  0  0  0  0  0
    0.7132   -0.1365    0.0133 H   0  0  0  0  0  0  0  0  0  0  0  0
   -0.1612   -1.4109   -0.8112 H   0  0  0  0  0  0  0  0  0  0  0  0
  1  3  1  0  0  0  0
  1  5  1  0  0  0  0
  2  6  1  0  0  0  0
  2  1  1  0  0  0  0
  2  8  1  0  0  0  0
  4  1  1  0  0  0  0
  6  9  1  0  0  0  0
  6 10  1  0  0  0  0
  7  2  1  0  0  0  0
  9 12  1  0  0  0  0
 11  6  1  0  0  0  0
 13  9  1  0  0  0  0
 14  9  1  0  0  0  0
M  END
$$$$
