14
butane_opt
C  -3.957618   0.272298   0.039711
C  -2.693534  -0.629300   0.023846
H  -4.863603  -0.313540  -0.101567
H  -3.996757   0.732464  -0.764438
H  -3.995047   1.072551   0.971970
C  -1.396183   0.184539  -0.015574
H  -2.741345  -1.304696  -0.823913
H  -2.688974  -1.222607   0.893824
C  -0.154675  -0.685652   0.053616
H  -1.393313   0.782310   0.791825
H  -1.385886   0.867965  -0.953998
H  -0.155207  -1.380168   1.016350
H   0.768226  -0.105844  -0.006032
H  -0.149415  -1.304985  -0.785856
