14
butane_opt
C  -3.950387   0.268207   0.007688
C  -2.699686  -0.627293   0.061534
H  -4.831272  -0.308739   0.016667
H  -3.987231   0.909507  -0.886219
H  -3.999762   0.908713   0.846607
C  -1.396891   0.182111   0.013280
H  -2.708638  -1.332704  -0.815199
H  -2.719171  -1.233117   0.955123
C  -0.151086  -0.689561   0.024901
H  -1.358864   0.876092   0.864252
H  -1.460907   0.854994  -0.906708
H  -0.193939  -1.229504   0.885799
H   0.729205  -0.097972   0.064797
H  -0.114083  -1.427758  -0.882857
