butane_opt
 OpenBabel08242015403D

 14 13  0  0  0  0  0  0  0  0999 V2000
   -3.9508    0.2784    0.0494 C   0  0  0  0  0  0  0  0  0  0  0  0
   -2.6957   -0.6257   -0.0049 C   0  0  0  0  0  0  0  0  0  0  0  0
   -4.8671   -0.3016    0.1263 H   0  0  0  0  0  0  0  0  0  0  0  0
   -4.0378    0.8913   -0.8546 H   0  0  0  0  0  0  0  0  0  0  0  0
   -3.8628    0.9246    0.9133 H   0  0  0  0  0  0  0  0  0  0  0  0
   -1.3994    0.1688   -0.0091 C   0  0  0  0  0  0  0  0  0  0  0  0
   -2.6750   -1.3608   -0.8958 H   0  0  0  0  0  0  0  0  0  0  0  0
   -2.6621   -1.2176    0.8855 H   0  0  0  0  0  0  0  0  0  0  0  0
   -0.1692   -0.6820    0.0592 C   0  0  0  0  0  0  0  0  0  0  0  0
   -1.4323    0.8022    0.7973 H   0  0  0  0  0  0  0  0  0  0  0  0
   -1.3413    0.8171   -0.9271 H   0  0  0  0  0  0  0  0  0  0  0  0
   -0.1897   -1.3511    0.9872 H   0  0  0  0  0  0  0  0  0  0  0  0
    0.7560   -0.0584    0.0454 H   0  0  0  0  0  0  0  0  0  0  0  0
   -0.1366   -1.2838   -0.7699 H   0  0  0  0  0  0  0  0  0  0  0  0
  1  3  1  0  0  0  0
  1  5  1  0  0  0  0
  2  1  1  0  0  0  0
  2  8  1  0  0  0  0
  4  1  1  0  0  0  0
  6  2  1  0  0  0  0
  6  9  1  0  0  0  0
  6 10  1  0  0  0  0
  7  2  1  0  0  0  0
  9 12  1  0  0  0  0
 11  6  1  0  0  0  0
 13  9  1  0  0  0  0
 14  9  1  0  0  0  0
M  END
$$$$
