14
butane_opt
C  -3.953214   0.247785   0.001496
C  -2.707391  -0.606889   0.044739
H  -4.843498  -0.329552   0.011820
H  -3.936126   0.899422  -0.898289
H  -3.986423   0.929333   0.865695
C  -1.403795   0.208194   0.037678
H  -2.700592  -1.286320  -0.789288
H  -2.718902  -1.256385   0.943078
C  -0.151739  -0.700742   0.014365
H  -1.343648   0.906233   0.892450
H  -1.443859   0.755869  -0.807194
H  -0.060295  -1.399017   0.965285
H   0.735305  -0.153308  -0.119128
H  -0.129043  -1.312839  -0.796707
