butane_opt
 OpenBabel08242015403D

 14 13  0  0  0  0  0  0  0  0999 V2000
   -3.9567    0.2722    0.0004 C   0  0  0  0  0  0  0  0  0  0  0  0
   -2.6859   -0.6313    0.0461 C   0  0  0  0  0  0  0  0  0  0  0  0
   -4.8499   -0.2850    0.0237 H   0  0  0  0  0  0  0  0  0  0  0  0
   -3.9942    0.8950   -0.8920 H   0  0  0  0  0  0  0  0  0  0  0  0
   -4.0021    0.9309    0.8337 H   0  0  0  0  0  0  0  0  0  0  0  0
   -1.3971    0.1750    0.0414 C   0  0  0  0  0  0  0  0  0  0  0  0
   -2.6979   -1.2985   -0.7813 H   0  0  0  0  0  0  0  0  0  0  0  0
   -2.6960   -1.2543    0.9567 H   0  0  0  0  0  0  0  0  0  0  0  0
   -0.1645   -0.6766    0.0182 C   0  0  0  0  0  0  0  0  0  0  0  0
   -1.3767    0.8377    0.8928 H   0  0  0  0  0  0  0  0  0  0  0  0
   -1.3631    0.8061   -0.8612 H   0  0  0  0  0  0  0  0  0  0  0  0
   -0.1101   -1.3151    0.9274 H   0  0  0  0  0  0  0  0  0  0  0  0
    0.7140   -0.1003   -0.0938 H   0  0  0  0  0  0  0  0  0  0  0  0
   -0.2005   -1.3608   -0.8474 H   0  0  0  0  0  0  0  0  0  0  0  0
  1  3  1  0  0  0  0
  1  2  1  0  0  0  0
  1  5  1  0  0  0  0
  2  8  1  0  0  0  0
  4  1  1  0  0  0  0
  6  2  1  0  0  0  0
  6 10  1  0  0  0  0
  7  2  1  0  0  0  0
  9  6  1  0  0  0  0
  9 12  1  0  0  0  0
 11  6  1  0  0  0  0
 13  9  1  0  0  0  0
 14  9  1  0  0  0  0
M  END
$$$$
