butane_opt
 OpenBabel08242015403D

 14 13  0  0  0  0  0  0  0  0999 V2000
   -3.9355    0.2490    0.0465 C   0  0  0  0  0  0  0  0  0  0  0  0
   -2.7053   -0.5954   -0.0011 C   0  0  0  0  0  0  0  0  0  0  0  0
   -4.8650   -0.3636    0.1309 H   0  0  0  0  0  0  0  0  0  0  0  0
   -3.9975    0.8654   -0.8596 H   0  0  0  0  0  0  0  0  0  0  0  0
   -3.8858    0.9039    0.9010 H   0  0  0  0  0  0  0  0  0  0  0  0
   -1.4164    0.2007   -0.0110 C   0  0  0  0  0  0  0  0  0  0  0  0
   -2.7261   -1.2607   -0.8647 H   0  0  0  0  0  0  0  0  0  0  0  0
   -2.6728   -1.2401    0.8755 H   0  0  0  0  0  0  0  0  0  0  0  0
   -0.1516   -0.7064    0.0601 C   0  0  0  0  0  0  0  0  0  0  0  0
   -1.4878    0.8683    0.8156 H   0  0  0  0  0  0  0  0  0  0  0  0
   -1.3526    0.8318   -0.9035 H   0  0  0  0  0  0  0  0  0  0  0  0
   -0.1884   -1.3572    0.9939 H   0  0  0  0  0  0  0  0  0  0  0  0
    0.7914   -0.1122    0.0182 H   0  0  0  0  0  0  0  0  0  0  0  0
   -0.1254   -1.3844   -0.8075 H   0  0  0  0  0  0  0  0  0  0  0  0
  1  3  1  0  0  0  0
  1  5  1  0  0  0  0
  2  1  1  0  0  0  0
  2  8  1  0  0  0  0
  4  1  1  0  0  0  0
  6  2  1  0  0  0  0
  6  9  1  0  0  0  0
  6 10  1  0  0  0  0
  7  2  1  0  0  0  0
  9 12  1  0  0  0  0
 11  6  1  0  0  0  0
 13  9  1  0  0  0  0
 14  9  1  0  0  0  0
M  END
$$$$
