14
butane_opt
C  -3.958354   0.267659  -0.004886
C  -2.704221  -0.617154   0.050020
H  -4.873904  -0.303969   0.169409
H  -4.031352   1.052487  -1.002952
H  -3.928829   0.824967   0.775167
C  -1.390646   0.166210   0.042372
H  -2.657563  -1.288688  -0.769753
H  -2.721035  -1.266995   0.942456
C  -0.159334  -0.684684   0.013697
H  -1.346921   0.939507   0.951860
H  -1.358569   0.756038  -0.835644
H  -0.138664  -1.240621   0.894132
H   0.760067  -0.086512  -0.017860
H  -0.177058  -1.441298  -0.905704
