14
butane_opt
C  -3.946143   0.253225  -0.015689
C  -2.714311  -0.610607   0.060137
H  -4.828923  -0.315869   0.023886
H  -3.942241   0.892973  -0.936608
H  -3.948141   0.892405   0.826757
C  -1.407375   0.207293   0.055159
H  -2.736462  -1.275767  -0.750435
H  -2.783564  -1.257219   0.973644
C  -0.143813  -0.710565   0.005351
H  -1.397735   0.964172   0.959647
H  -1.368710   0.808285  -0.822523
H  -0.040274  -1.371752   0.883711
H   0.751780  -0.140149  -0.151836
H  -0.189989  -1.336291  -0.832225
