butane_opt
 OpenBabel08242015403D

 14 13  0  0  0  0  0  0  0  0999 V2000
   -3.9282    0.2531    0.0423 C   0  0  0  0  0  0  0  0  0  0  0  0
   -2.7072   -0.5947    0.0333 C   0  0  0  0  0  0  0  0  0  0  0  0
   -4.8882   -0.3785   -0.1179 H   0  0  0  0  0  0  0  0  0  0  0  0
   -3.8663    0.7435   -0.8139 H   0  0  0  0  0  0  0  0  0  0  0  0
   -3.9886    1.0404    0.9815 H   0  0  0  0  0  0  0  0  0  0  0  0
   -1.4154    0.1886   -0.0234 C   0  0  0  0  0  0  0  0  0  0  0  0
   -2.7491   -1.2902   -0.8569 H   0  0  0  0  0  0  0  0  0  0  0  0
   -2.6928   -1.1843    0.9026 H   0  0  0  0  0  0  0  0  0  0  0  0
   -0.1639   -0.7059    0.0550 C   0  0  0  0  0  0  0  0  0  0  0  0
   -1.3770    0.8408    0.8273 H   0  0  0  0  0  0  0  0  0  0  0  0
   -1.3918    0.8765   -0.9468 H   0  0  0  0  0  0  0  0  0  0  0  0
   -0.0776   -1.3971    0.9919 H   0  0  0  0  0  0  0  0  0  0  0  0
    0.7274   -0.1040   -0.0095 H   0  0  0  0  0  0  0  0  0  0  0  0
   -0.1389   -1.3242   -0.7836 H   0  0  0  0  0  0  0  0  0  0  0  0
  1  5  1  0  0  0  0
  2  1  1  0  0  0  0
  2  8  1  0  0  0  0
  3  1  1  0  0  0  0
  4  1  1  0  0  0  0
  6  2  1  0  0  0  0
  6  9  1  0  0  0  0
  6 10  1  0  0  0  0
  7  2  1  0  0  0  0
  9 12  1  0  0  0  0
 11  6  1  0  0  0  0
 13  9  1  0  0  0  0
 14  9  1  0  0  0  0
M  END
$$$$
