butane_opt
 OpenBabel08242015403D

 14 13  0  0  0  0  0  0  0  0999 V2000
   -3.9574    0.2711   -0.0040 C   0  0  0  0  0  0  0  0  0  0  0  0
   -2.7003   -0.6359    0.0848 C   0  0  0  0  0  0  0  0  0  0  0  0
   -4.8046   -0.2607   -0.0847 H   0  0  0  0  0  0  0  0  0  0  0  0
   -3.9321    0.8435   -0.8969 H   0  0  0  0  0  0  0  0  0  0  0  0
   -4.0460    1.0042    0.8797 H   0  0  0  0  0  0  0  0  0  0  0  0
   -1.3978    0.1908    0.0235 C   0  0  0  0  0  0  0  0  0  0  0  0
   -2.7127   -1.3073   -0.7759 H   0  0  0  0  0  0  0  0  0  0  0  0
   -2.7448   -1.2416    0.9551 H   0  0  0  0  0  0  0  0  0  0  0  0
   -0.1581   -0.6914    0.0048 C   0  0  0  0  0  0  0  0  0  0  0  0
   -1.3333    0.8311    0.8618 H   0  0  0  0  0  0  0  0  0  0  0  0
   -1.3825    0.7872   -0.8745 H   0  0  0  0  0  0  0  0  0  0  0  0
   -0.1394   -1.2948    0.9186 H   0  0  0  0  0  0  0  0  0  0  0  0
    0.7796   -0.0610    0.0439 H   0  0  0  0  0  0  0  0  0  0  0  0
   -0.1548   -1.3789   -0.8880 H   0  0  0  0  0  0  0  0  0  0  0  0
  1  2  1  0  0  0  0
  1  5  1  0  0  0  0
  2  8  1  0  0  0  0
  3  1  1  0  0  0  0
  4  1  1  0  0  0  0
  6  2  1  0  0  0  0
  6 10  1  0  0  0  0
  7  2  1  0  0  0  0
  9  6  1  0  0  0  0
  9 13  1  0  0  0  0
  9 12  1  0  0  0  0
 11  6  1  0  0  0  0
 14  9  1  0  0  0  0
M  END
$$$$
