14
butane_opt
C  -3.952034   0.283272   0.001576
C  -2.693640  -0.640352   0.043609
H  -4.851810  -0.323168   0.029248
H  -3.991234   0.842365  -0.875797
H  -4.029485   0.982562   0.867385
C  -1.386947   0.184485   0.028770
H  -2.692995  -1.290810  -0.781819
H  -2.734898  -1.288305   0.961850
C  -0.172399  -0.685622   0.023422
H  -1.387658   0.916793   0.916841
H  -1.341489   0.765537  -0.851261
H  -0.076506  -1.380369   0.974018
H   0.764203  -0.085430  -0.118099
H  -0.225337  -1.308052  -0.840158
