butane_opt
 OpenBabel08242015403D

 14 13  0  0  0  0  0  0  0  0999 V2000
   -3.9378    0.2511    0.0301 C   0  0  0  0  0  0  0  0  0  0  0  0
   -2.6935   -0.6064    0.0121 C   0  0  0  0  0  0  0  0  0  0  0  0
   -4.8636   -0.3647    0.2076 H   0  0  0  0  0  0  0  0  0  0  0  0
   -3.9957    0.9675   -0.9058 H   0  0  0  0  0  0  0  0  0  0  0  0
   -3.8435    0.8630    0.8759 H   0  0  0  0  0  0  0  0  0  0  0  0
   -1.4066    0.1992    0.0019 C   0  0  0  0  0  0  0  0  0  0  0  0
   -2.7222   -1.3413   -0.8818 H   0  0  0  0  0  0  0  0  0  0  0  0
   -2.7034   -1.1712    0.8530 H   0  0  0  0  0  0  0  0  0  0  0  0
   -0.1680   -0.7045    0.0525 C   0  0  0  0  0  0  0  0  0  0  0  0
   -1.4572    0.8536    0.8263 H   0  0  0  0  0  0  0  0  0  0  0  0
   -1.4076    0.8514   -0.8704 H   0  0  0  0  0  0  0  0  0  0  0  0
   -0.1345   -1.3295    0.9508 H   0  0  0  0  0  0  0  0  0  0  0  0
    0.7115   -0.1092    0.0242 H   0  0  0  0  0  0  0  0  0  0  0  0
   -0.1318   -1.3672   -0.8061 H   0  0  0  0  0  0  0  0  0  0  0  0
  1  3  1  0  0  0  0
  1  5  1  0  0  0  0
  2  1  1  0  0  0  0
  2  8  1  0  0  0  0
  4  1  1  0  0  0  0
  6  2  1  0  0  0  0
  6  9  1  0  0  0  0
  6 10  1  0  0  0  0
  7  2  1  0  0  0  0
  9 12  1  0  0  0  0
 11  6  1  0  0  0  0
 13  9  1  0  0  0  0
 14  9  1  0  0  0  0
M  END
$$$$
