14
butane_opt
C  -3.937539   0.256765  -0.002587
C  -2.706675  -0.603114   0.054914
H  -4.877700  -0.399251   0.032968
H  -3.886128   0.926733  -0.927667
H  -3.961975   0.845187   0.798470
C  -1.416366   0.202348   0.049247
H  -2.653907  -1.316658  -0.791638
H  -2.710835  -1.191680   0.934098
C  -0.154114  -0.699824   0.003196
H  -1.377895   0.888502   0.920546
H  -1.448476   0.779165  -0.809059
H  -0.055862  -1.413392   0.959143
H   0.739639  -0.131916  -0.084177
H  -0.211278  -1.334072  -0.844162
