14
butane_opt
C  -3.932905   0.275344  -0.000174
C  -2.699033  -0.627747   0.068033
H  -4.816702  -0.285582   0.000229
H  -3.941326   0.918051  -0.936870
H  -4.062956   0.865968   0.806070
C  -1.408761   0.172630   0.028463
H  -2.673460  -1.283407  -0.762306
H  -2.714221  -1.293698   1.015999
C  -0.166662  -0.683364   0.005283
H  -1.370396   0.906893   0.920208
H  -1.402495   0.775164  -0.845185
H  -0.144020  -1.244471   0.856978
H   0.752856  -0.058859   0.072308
H  -0.166853  -1.412970  -0.915198
