butane_opt
 OpenBabel08242015403D

 14 13  0  0  0  0  0  0  0  0999 V2000
   -3.9487    0.2601   -0.0194 C   0  0  0  0  0  0  0  0  0  0  0  0
   -2.7136   -0.6090    0.0836 C   0  0  0  0  0  0  0  0  0  0  0  0
   -4.8565   -0.3319   -0.0839 H   0  0  0  0  0  0  0  0  0  0  0  0
   -3.9097    0.8026   -0.8927 H   0  0  0  0  0  0  0  0  0  0  0  0
   -4.0185    0.9443    0.8593 H   0  0  0  0  0  0  0  0  0  0  0  0
   -1.3985    0.1990    0.0495 C   0  0  0  0  0  0  0  0  0  0  0  0
   -2.7046   -1.2646   -0.7447 H   0  0  0  0  0  0  0  0  0  0  0  0
   -2.7780   -1.2574    0.9934 H   0  0  0  0  0  0  0  0  0  0  0  0
   -0.1454   -0.7070   -0.0060 C   0  0  0  0  0  0  0  0  0  0  0  0
   -1.4213    0.8510    0.8869 H   0  0  0  0  0  0  0  0  0  0  0  0
   -1.4308    0.8689   -0.8346 H   0  0  0  0  0  0  0  0  0  0  0  0
   -0.0395   -1.3107    0.8799 H   0  0  0  0  0  0  0  0  0  0  0  0
    0.7784   -0.0999   -0.0342 H   0  0  0  0  0  0  0  0  0  0  0  0
   -0.1729   -1.3913   -0.8786 H   0  0  0  0  0  0  0  0  0  0  0  0
  1  2  1  0  0  0  0
  1  5  1  0  0  0  0
  2  8  1  0  0  0  0
  3  1  1  0  0  0  0
  4  1  1  0  0  0  0
  6  2  1  0  0  0  0
  6 10  1  0  0  0  0
  7  2  1  0  0  0  0
  9  6  1  0  0  0  0
  9 12  1  0  0  0  0
 11  6  1  0  0  0  0
 13  9  1  0  0  0  0
 14  9  1  0  0  0  0
M  END
$$$$
