butane_opt
 OpenBabel08242015403D

 14 13  0  0  0  0  0  0  0  0999 V2000
   -3.9602    0.2710    0.0017 C   0  0  0  0  0  0  0  0  0  0  0  0
   -2.6961   -0.6354    0.0672 C   0  0  0  0  0  0  0  0  0  0  0  0
   -4.8201   -0.2875   -0.1166 H   0  0  0  0  0  0  0  0  0  0  0  0
   -3.9363    0.8441   -0.8624 H   0  0  0  0  0  0  0  0  0  0  0  0
   -4.0372    1.0037    0.8930 H   0  0  0  0  0  0  0  0  0  0  0  0
   -1.4041    0.1804    0.0200 C   0  0  0  0  0  0  0  0  0  0  0  0
   -2.6693   -1.2741   -0.7650 H   0  0  0  0  0  0  0  0  0  0  0  0
   -2.7146   -1.2791    0.9773 H   0  0  0  0  0  0  0  0  0  0  0  0
   -0.1556   -0.6837    0.0161 C   0  0  0  0  0  0  0  0  0  0  0  0
   -1.3399    0.8955    0.8805 H   0  0  0  0  0  0  0  0  0  0  0  0
   -1.3743    0.7534   -0.8366 H   0  0  0  0  0  0  0  0  0  0  0  0
   -0.0983   -1.3086    0.9091 H   0  0  0  0  0  0  0  0  0  0  0  0
    0.7187   -0.1002   -0.0698 H   0  0  0  0  0  0  0  0  0  0  0  0
   -0.1616   -1.3066   -0.8250 H   0  0  0  0  0  0  0  0  0  0  0  0
  1  2  1  0  0  0  0
  1  5  1  0  0  0  0
  2  8  1  0  0  0  0
  3  1  1  0  0  0  0
  4  1  1  0  0  0  0
  6  2  1  0  0  0  0
  6 10  1  0  0  0  0
  7  2  1  0  0  0  0
  9  6  1  0  0  0  0
  9 12  1  0  0  0  0
 11  6  1  0  0  0  0
 13  9  1  0  0  0  0
 14  9  1  0  0  0  0
M  END
$$$$
