butane_opt
 OpenBabel08242015403D

 14 13  0  0  0  0  0  0  0  0999 V2000
   -3.9313    0.2591   -0.0232 C   0  0  0  0  0  0  0  0  0  0  0  0
   -2.7058   -0.6045    0.0814 C   0  0  0  0  0  0  0  0  0  0  0  0
   -4.8773   -0.3689   -0.0334 H   0  0  0  0  0  0  0  0  0  0  0  0
   -3.9010    0.8718   -0.9143 H   0  0  0  0  0  0  0  0  0  0  0  0
   -3.9277    0.9657    0.8644 H   0  0  0  0  0  0  0  0  0  0  0  0
   -1.4041    0.1910    0.0414 C   0  0  0  0  0  0  0  0  0  0  0  0
   -2.6770   -1.2473   -0.7408 H   0  0  0  0  0  0  0  0  0  0  0  0
   -2.7716   -1.3041    1.0206 H   0  0  0  0  0  0  0  0  0  0  0  0
   -0.1663   -0.7011    0.0012 C   0  0  0  0  0  0  0  0  0  0  0  0
   -1.3553    0.8830    0.9337 H   0  0  0  0  0  0  0  0  0  0  0  0
   -1.4813    0.8159   -0.8468 H   0  0  0  0  0  0  0  0  0  0  0  0
   -0.0906   -1.2937    0.8400 H   0  0  0  0  0  0  0  0  0  0  0  0
    0.7442   -0.1067    0.0117 H   0  0  0  0  0  0  0  0  0  0  0  0
   -0.1963   -1.4214   -0.9003 H   0  0  0  0  0  0  0  0  0  0  0  0
  1  2  1  0  0  0  0
  1  5  1  0  0  0  0
  2  8  1  0  0  0  0
  3  1  1  0  0  0  0
  4  1  1  0  0  0  0
  6  2  1  0  0  0  0
  6 10  1  0  0  0  0
  7  2  1  0  0  0  0
  9 13  1  0  0  0  0
  9  6  1  0  0  0  0
  9 12  1  0  0  0  0
 11  6  1  0  0  0  0
 14  9  1  0  0  0  0
M  END
$$$$
