14
butane_opt
C  -3.946414   0.249299   0.032102
C  -2.708544  -0.610293   0.034445
H  -4.835430  -0.334722   0.092623
H  -4.014553   0.905596  -0.900189
H  -3.959101   0.905025   0.881620
C  -1.407027   0.213013  -0.014588
H  -2.751870  -1.353680  -0.831852
H  -2.697294  -1.219612   0.913214
C  -0.143048  -0.706772   0.043598
H  -1.438313   0.876947   0.832493
H  -1.378994   0.866126  -0.927603
H  -0.154711  -1.281419   0.926582
H   0.756741  -0.112902   0.150470
H  -0.083498  -1.466016  -0.855230
