butane_opt
 OpenBabel08242015403D

 14 13  0  0  0  0  0  0  0  0999 V2000
   -3.9537    0.2681   -0.0171 C   0  0  0  0  0  0  0  0  0  0  0  0
   -2.7051   -0.6116    0.0767 C   0  0  0  0  0  0  0  0  0  0  0  0
   -4.9005   -0.3464    0.0117 H   0  0  0  0  0  0  0  0  0  0  0  0
   -3.9814    0.8802   -0.9041 H   0  0  0  0  0  0  0  0  0  0  0  0
   -3.9788    0.8836    0.7980 H   0  0  0  0  0  0  0  0  0  0  0  0
   -1.3996    0.1831    0.0442 C   0  0  0  0  0  0  0  0  0  0  0  0
   -2.6630   -1.2999   -0.7539 H   0  0  0  0  0  0  0  0  0  0  0  0
   -2.7543   -1.2860    1.0028 H   0  0  0  0  0  0  0  0  0  0  0  0
   -0.1479   -0.6884    0.0048 C   0  0  0  0  0  0  0  0  0  0  0  0
   -1.3529    0.8774    0.8964 H   0  0  0  0  0  0  0  0  0  0  0  0
   -1.4511    0.8261   -0.8580 H   0  0  0  0  0  0  0  0  0  0  0  0
   -0.0773   -1.2632    0.8412 H   0  0  0  0  0  0  0  0  0  0  0  0
    0.7374   -0.1213    0.0250 H   0  0  0  0  0  0  0  0  0  0  0  0
   -0.1298   -1.4430   -0.9273 H   0  0  0  0  0  0  0  0  0  0  0  0
  1  3  1  0  0  0  0
  1  2  1  0  0  0  0
  1  5  1  0  0  0  0
  2  8  1  0  0  0  0
  4  1  1  0  0  0  0
  6  2  1  0  0  0  0
  6 10  1  0  0  0  0
  7  2  1  0  0  0  0
  9 13  1  0  0  0  0
  9  6  1  0  0  0  0
  9 12  1  0  0  0  0
 11  6  1  0  0  0  0
 14  9  1  0  0  0  0
M  END
$$$$
