14
butane_opt
C  -3.929882   0.253331   0.034230
C  -2.690349  -0.607097   0.013774
H  -4.830084  -0.355657   0.018488
H  -3.951288   0.834009  -0.829297
H  -3.960375   0.975088   0.920575
C  -1.415412   0.199387  -0.000154
H  -2.783480  -1.284877  -0.864688
H  -2.693629  -1.227274   0.893045
C  -0.171173  -0.699260   0.040971
H  -1.431759   0.872540   0.854107
H  -1.423766   0.775918  -0.859972
H  -0.081887  -1.448787   1.033963
H   0.754741  -0.109175  -0.057676
H  -0.142572  -1.251604  -0.717619
