butane_opt
 OpenBabel08242015403D

 14 13  0  0  0  0  0  0  0  0999 V2000
   -3.9458    0.2709    0.0460 C   0  0  0  0  0  0  0  0  0  0  0  0
   -2.7078   -0.6259   -0.0042 C   0  0  0  0  0  0  0  0  0  0  0  0
   -4.8289   -0.2830    0.0579 H   0  0  0  0  0  0  0  0  0  0  0  0
   -4.0365    0.8568   -0.8078 H   0  0  0  0  0  0  0  0  0  0  0  0
   -3.9916    0.9611    0.8881 H   0  0  0  0  0  0  0  0  0  0  0  0
   -1.4031    0.1777    0.0027 C   0  0  0  0  0  0  0  0  0  0  0  0
   -2.7253   -1.3713   -0.9062 H   0  0  0  0  0  0  0  0  0  0  0  0
   -2.6981   -1.1984    0.8716 H   0  0  0  0  0  0  0  0  0  0  0  0
   -0.1520   -0.6871    0.0567 C   0  0  0  0  0  0  0  0  0  0  0  0
   -1.3399    0.8305    0.8416 H   0  0  0  0  0  0  0  0  0  0  0  0
   -1.3863    0.8549   -0.9267 H   0  0  0  0  0  0  0  0  0  0  0  0
   -0.1140   -1.4273    1.0453 H   0  0  0  0  0  0  0  0  0  0  0  0
    0.7671   -0.0779   -0.1055 H   0  0  0  0  0  0  0  0  0  0  0  0
   -0.1680   -1.2414   -0.7151 H   0  0  0  0  0  0  0  0  0  0  0  0
  1  3  1  0  0  0  0
  1  5  1  0  0  0  0
  2  6  1  0  0  0  0
  2  1  1  0  0  0  0
  2  8  1  0  0  0  0
  4  1  1  0  0  0  0
  6  9  1  0  0  0  0
  6 10  1  0  0  0  0
  7  2  1  0  0  0  0
  9 12  1  0  0  0  0
 11  6  1  0  0  0  0
 13  9  1  0  0  0  0
 14  9  1  0  0  0  0
M  END
$$$$
