butane_opt
 OpenBabel08242015403D

 14 13  0  0  0  0  0  0  0  0999 V2000
   -3.9352    0.2701    0.0477 C   0  0  0  0  0  0  0  0  0  0  0  0
   -2.6985   -0.6186    0.0162 C   0  0  0  0  0  0  0  0  0  0  0  0
   -4.8610   -0.3383    0.0126 H   0  0  0  0  0  0  0  0  0  0  0  0
   -4.0144    0.8241   -0.8008 H   0  0  0  0  0  0  0  0  0  0  0  0
   -3.9828    1.0040    0.9824 H   0  0  0  0  0  0  0  0  0  0  0  0
   -1.4064    0.1676   -0.0406 C   0  0  0  0  0  0  0  0  0  0  0  0
   -2.7420   -1.3108   -0.8390 H   0  0  0  0  0  0  0  0  0  0  0  0
   -2.6888   -1.2317    0.8970 H   0  0  0  0  0  0  0  0  0  0  0  0
   -0.1597   -0.6855    0.0645 C   0  0  0  0  0  0  0  0  0  0  0  0
   -1.3998    0.8559    0.8092 H   0  0  0  0  0  0  0  0  0  0  0  0
   -1.4158    0.8599   -0.9492 H   0  0  0  0  0  0  0  0  0  0  0  0
   -0.2389   -1.2970    0.9737 H   0  0  0  0  0  0  0  0  0  0  0  0
    0.7669   -0.0721    0.1000 H   0  0  0  0  0  0  0  0  0  0  0  0
   -0.0478   -1.3738   -0.7975 H   0  0  0  0  0  0  0  0  0  0  0  0
  1  5  1  0  0  0  0
  2  1  1  0  0  0  0
  2  8  1  0  0  0  0
  3  1  1  0  0  0  0
  4  1  1  0  0  0  0
  6  2  1  0  0  0  0
  6  9  1  0  0  0  0
  6 10  1  0  0  0  0
  7  2  1  0  0  0  0
  9 13  1  0  0  0  0
  9 12  1  0  0  0  0
 11  6  1  0  0  0  0
 14  9  1  0  0  0  0
M  END
$$$$
