14
butane_opt
C  -3.937263   0.278228  -0.005115
C  -2.690862  -0.630124   0.046918
H  -4.788308  -0.269259   0.078883
H  -3.996478   0.920976  -0.915381
H  -3.918180   0.894971   0.842411
C  -1.406113   0.167937   0.043337
H  -2.712933  -1.310581  -0.818523
H  -2.738138  -1.239043   0.943992
C  -0.176704  -0.679400   0.016596
H  -1.354256   0.868308   0.900883
H  -1.408704   0.747554  -0.837580
H  -0.116177  -1.348091   0.926373
H   0.751026  -0.056456  -0.087083
H  -0.224896  -1.302534  -0.813010
