14
butane_opt
C  -3.931786   0.261417   0.043284
C  -2.700846  -0.600751   0.017317
H  -4.881080  -0.388022   0.081640
H  -3.967491   0.857636  -0.837987
H  -3.873106   0.859065   0.853766
C  -1.419164   0.193231  -0.013572
H  -2.730435  -1.275361  -0.851646
H  -2.687389  -1.217567   0.884858
C  -0.159716  -0.704697   0.058308
H  -1.420839   0.821647   0.785504
H  -1.392024   0.874010  -0.934827
H  -0.160700  -1.250191   0.920245
H   0.732459  -0.113034   0.116913
H  -0.102576  -1.442022  -0.851998
