14
butane_opt
C  -3.930753   0.254035   0.030620
C  -2.708074  -0.608579   0.037737
H  -4.838600  -0.325775  -0.090202
H  -3.927308   0.800785  -0.834101
H  -4.024674   1.021380   0.965209
C  -1.405329   0.191271  -0.006772
H  -2.746593  -1.274072  -0.816399
H  -2.702228  -1.224638   0.934122
C  -0.165992  -0.702521   0.048895
H  -1.384079   0.839956   0.814550
H  -1.397007   0.890473  -0.964303
H  -0.126618  -1.300395   0.928347
H   0.774944  -0.099687  -0.010776
H  -0.125284  -1.413547  -0.809144
