butane_opt
 OpenBabel08242015403D

 14 13  0  0  0  0  0  0  0  0999 V2000
   -3.9592    0.2676   -0.0012 C   0  0  0  0  0  0  0  0  0  0  0  0
   -2.6962   -0.6247    0.0568 C   0  0  0  0  0  0  0  0  0  0  0  0
   -4.8588   -0.2924   -0.0128 H   0  0  0  0  0  0  0  0  0  0  0  0
   -3.9754    0.8976   -0.9394 H   0  0  0  0  0  0  0  0  0  0  0  0
   -4.0579    0.9227    0.8369 H   0  0  0  0  0  0  0  0  0  0  0  0
   -1.3982    0.1788    0.0531 C   0  0  0  0  0  0  0  0  0  0  0  0
   -2.6864   -1.3208   -0.8131 H   0  0  0  0  0  0  0  0  0  0  0  0
   -2.7230   -1.2147    0.9186 H   0  0  0  0  0  0  0  0  0  0  0  0
   -0.1490   -0.6910    0.0065 C   0  0  0  0  0  0  0  0  0  0  0  0
   -1.2916    0.8731    0.8988 H   0  0  0  0  0  0  0  0  0  0  0  0
   -1.4418    0.7995   -0.8320 H   0  0  0  0  0  0  0  0  0  0  0  0
   -0.0953   -1.3528    0.9492 H   0  0  0  0  0  0  0  0  0  0  0  0
    0.7496   -0.0950   -0.1449 H   0  0  0  0  0  0  0  0  0  0  0  0
   -0.2043   -1.2574   -0.7926 H   0  0  0  0  0  0  0  0  0  0  0  0
  1  2  1  0  0  0  0
  1  5  1  0  0  0  0
  2  8  1  0  0  0  0
  3  1  1  0  0  0  0
  4  1  1  0  0  0  0
  6  2  1  0  0  0  0
  6 10  1  0  0  0  0
  7  2  1  0  0  0  0
  9  6  1  0  0  0  0
  9 12  1  0  0  0  0
 11  6  1  0  0  0  0
 13  9  1  0  0  0  0
 14  9  1  0  0  0  0
M  END
$$$$
