14
butane_opt
C  -3.953377   0.264916  -0.020354
C  -2.687125  -0.614206   0.090691
H  -4.863886  -0.295719  -0.036666
H  -3.893024   0.871400  -0.923181
H  -4.050318   0.957652   0.856458
C  -1.402672   0.169617   0.039625
H  -2.660520  -1.324912  -0.765546
H  -2.714287  -1.248023   0.984070
C  -0.168878  -0.686319  -0.005596
H  -1.339889   0.881685   0.930368
H  -1.394370   0.791551  -0.842604
H  -0.122736  -1.272333   0.875833
H   0.737372  -0.091175  -0.028561
H  -0.176610  -1.349238  -0.859647
