14
butane_opt
C  -3.947210   0.249507   0.009951
C  -2.715889  -0.592606   0.041846
H  -4.838853  -0.332127  -0.070140
H  -3.919377   0.756198  -0.816776
H  -3.967276   1.006574   0.933595
C  -1.402403   0.195757   0.018653
H  -2.754577  -1.234958  -0.791676
H  -2.721678  -1.280616   0.970841
C  -0.146646  -0.712948   0.031036
H  -1.402439   0.875629   0.854493
H  -1.396637   0.866567  -0.894470
H  -0.110154  -1.366273   0.946322
H   0.766868  -0.104610  -0.072512
H  -0.131679  -1.339123  -0.830555
