butane_opt
 OpenBabel08242015403D

 14 13  0  0  0  0  0  0  0  0999 V2000
   -3.9474    0.2743    0.0140 C   0  0  0  0  0  0  0  0  0  0  0  0
   -2.7004   -0.6359    0.0359 C   0  0  0  0  0  0  0  0  0  0  0  0
   -4.8312   -0.3014    0.1505 H   0  0  0  0  0  0  0  0  0  0  0  0
   -4.0501    1.0150   -0.9315 H   0  0  0  0  0  0  0  0  0  0  0  0
   -3.9732    0.8563    0.8110 H   0  0  0  0  0  0  0  0  0  0  0  0
   -1.3964    0.1835    0.0267 C   0  0  0  0  0  0  0  0  0  0  0  0
   -2.7308   -1.3448   -0.8254 H   0  0  0  0  0  0  0  0  0  0  0  0
   -2.7257   -1.2401    0.8910 H   0  0  0  0  0  0  0  0  0  0  0  0
   -0.1616   -0.6903    0.0274 C   0  0  0  0  0  0  0  0  0  0  0  0
   -1.3244    0.8708    0.8805 H   0  0  0  0  0  0  0  0  0  0  0  0
   -1.4046    0.8509   -0.8958 H   0  0  0  0  0  0  0  0  0  0  0  0
   -0.1841   -1.2696    0.9057 H   0  0  0  0  0  0  0  0  0  0  0  0
    0.7953   -0.0698    0.0541 H   0  0  0  0  0  0  0  0  0  0  0  0
   -0.1284   -1.4117   -0.8612 H   0  0  0  0  0  0  0  0  0  0  0  0
  1  2  1  0  0  0  0
  1  3  1  0  0  0  0
  1  5  1  0  0  0  0
  2  8  1  0  0  0  0
  4  1  1  0  0  0  0
  6  9  1  0  0  0  0
  6  2  1  0  0  0  0
  6 10  1  0  0  0  0
  7  2  1  0  0  0  0
  9 13  1  0  0  0  0
  9 12  1  0  0  0  0
 11  6  1  0  0  0  0
 14  9  1  0  0  0  0
M  END
$$$$
