14
butane_opt
C  -3.943971   0.267211  -0.004919
C  -2.696998  -0.615421   0.074238
H  -4.855106  -0.315426   0.029202
H  -3.904005   0.970124  -0.961073
H  -3.976837   0.872816   0.832472
C  -1.398752   0.179916   0.022722
H  -2.704455  -1.243530  -0.742057
H  -2.703400  -1.302004   1.000079
C  -0.169482  -0.699897   0.000430
H  -1.395345   0.899175   0.923938
H  -1.387643   0.737696  -0.829127
H  -0.202289  -1.186934   0.825701
H   0.764032  -0.054896   0.143730
H  -0.149015  -1.426296  -0.912090
