butane_opt
 OpenBabel08242015403D

 14 13  0  0  0  0  0  0  0  0999 V2000
   -3.9309    0.2478    0.0124 C   0  0  0  0  0  0  0  0  0  0  0  0
   -2.7028   -0.6061    0.0358 C   0  0  0  0  0  0  0  0  0  0  0  0
   -4.8246   -0.3147    0.0748 H   0  0  0  0  0  0  0  0  0  0  0  0
   -4.0092    0.8988   -0.8958 H   0  0  0  0  0  0  0  0  0  0  0  0
   -3.8919    0.8919    0.8283 H   0  0  0  0  0  0  0  0  0  0  0  0
   -1.4213    0.1999    0.0121 C   0  0  0  0  0  0  0  0  0  0  0  0
   -2.7417   -1.2406   -0.7906 H   0  0  0  0  0  0  0  0  0  0  0  0
   -2.7250   -1.2480    0.9753 H   0  0  0  0  0  0  0  0  0  0  0  0
   -0.1536   -0.6993    0.0327 C   0  0  0  0  0  0  0  0  0  0  0  0
   -1.3873    0.8996    0.8783 H   0  0  0  0  0  0  0  0  0  0  0  0
   -1.4133    0.7919   -0.8461 H   0  0  0  0  0  0  0  0  0  0  0  0
   -0.1059   -1.3003    0.9171 H   0  0  0  0  0  0  0  0  0  0  0  0
    0.7334   -0.1300    0.0351 H   0  0  0  0  0  0  0  0  0  0  0  0
   -0.1514   -1.4330   -0.8636 H   0  0  0  0  0  0  0  0  0  0  0  0
  1  2  1  0  0  0  0
  1  3  1  0  0  0  0
  1  5  1  0  0  0  0
  2  8  1  0  0  0  0
  4  1  1  0  0  0  0
  6  9  1  0  0  0  0
  6  2  1  0  0  0  0
  6 10  1  0  0  0  0
  7  2  1  0  0  0  0
  9 13  1  0  0  0  0
  9 12  1  0  0  0  0
 11  6  1  0  0  0  0
 14  9  1  0  0  0  0
M  END
$$$$
