butane_opt
 OpenBabel08242015403D

 14 13  0  0  0  0  0  0  0  0999 V2000
   -3.9417    0.2675    0.0576 C   0  0  0  0  0  0  0  0  0  0  0  0
   -2.6936   -0.6102    0.0150 C   0  0  0  0  0  0  0  0  0  0  0  0
   -4.8799   -0.3335    0.0470 H   0  0  0  0  0  0  0  0  0  0  0  0
   -3.9790    0.8789   -0.8138 H   0  0  0  0  0  0  0  0  0  0  0  0
   -3.9951    0.9705    0.9462 H   0  0  0  0  0  0  0  0  0  0  0  0
   -1.3990    0.1741   -0.0492 C   0  0  0  0  0  0  0  0  0  0  0  0
   -2.7587   -1.3494   -0.8978 H   0  0  0  0  0  0  0  0  0  0  0  0
   -2.6821   -1.2183    0.9028 H   0  0  0  0  0  0  0  0  0  0  0  0
   -0.1707   -0.6900    0.0750 C   0  0  0  0  0  0  0  0  0  0  0  0
   -1.3990    0.8001    0.7794 H   0  0  0  0  0  0  0  0  0  0  0  0
   -1.3232    0.8406   -0.9553 H   0  0  0  0  0  0  0  0  0  0  0  0
   -0.2394   -1.2519    0.9513 H   0  0  0  0  0  0  0  0  0  0  0  0
    0.7724   -0.0846    0.1294 H   0  0  0  0  0  0  0  0  0  0  0  0
   -0.0737   -1.4252   -0.8378 H   0  0  0  0  0  0  0  0  0  0  0  0
  1  5  1  0  0  0  0
  2  1  1  0  0  0  0
  2  8  1  0  0  0  0
  3  1  1  0  0  0  0
  4  1  1  0  0  0  0
  6  2  1  0  0  0  0
  6  9  1  0  0  0  0
  6 10  1  0  0  0  0
  7  2  1  0  0  0  0
  9 13  1  0  0  0  0
  9 12  1  0  0  0  0
 11  6  1  0  0  0  0
 14  9  1  0  0  0  0
M  END
$$$$
