butane_opt
 OpenBabel08242015403D

 14 13  0  0  0  0  0  0  0  0999 V2000
   -3.9472    0.2593    0.0104 C   0  0  0  0  0  0  0  0  0  0  0  0
   -2.7121   -0.6162    0.0337 C   0  0  0  0  0  0  0  0  0  0  0  0
   -4.8984   -0.3455   -0.0082 H   0  0  0  0  0  0  0  0  0  0  0  0
   -3.9706    0.8629   -0.8779 H   0  0  0  0  0  0  0  0  0  0  0  0
   -3.9237    0.9625    0.8957 H   0  0  0  0  0  0  0  0  0  0  0  0
   -1.4052    0.2032    0.0252 C   0  0  0  0  0  0  0  0  0  0  0  0
   -2.7232   -1.2972   -0.8126 H   0  0  0  0  0  0  0  0  0  0  0  0
   -2.7293   -1.2490    0.9439 H   0  0  0  0  0  0  0  0  0  0  0  0
   -0.1533   -0.7067    0.0298 C   0  0  0  0  0  0  0  0  0  0  0  0
   -1.3807    0.9397    0.9005 H   0  0  0  0  0  0  0  0  0  0  0  0
   -1.3440    0.7958   -0.8291 H   0  0  0  0  0  0  0  0  0  0  0  0
   -0.0084   -1.4269    0.9730 H   0  0  0  0  0  0  0  0  0  0  0  0
    0.7428   -0.1397   -0.1529 H   0  0  0  0  0  0  0  0  0  0  0  0
   -0.1695   -1.2530   -0.7757 H   0  0  0  0  0  0  0  0  0  0  0  0
  1  2  1  0  0  0  0
  1  5  1  0  0  0  0
  2  8  1  0  0  0  0
  3  1  1  0  0  0  0
  4  1  1  0  0  0  0
  6  9  1  0  0  0  0
  6  2  1  0  0  0  0
  6 10  1  0  0  0  0
  7  2  1  0  0  0  0
  9 12  1  0  0  0  0
 11  6  1  0  0  0  0
 13  9  1  0  0  0  0
 14  9  1  0  0  0  0
M  END
$$$$
