14
butane_opt
C  -3.943078   0.266788   0.036410
C  -2.695551  -0.621988   0.017944
H  -4.861199  -0.330696  -0.069014
H  -3.925385   0.744966  -0.748636
H  -3.985288   1.104546   1.025863
C  -1.401853   0.181220  -0.021607
H  -2.701783  -1.282243  -0.846615
H  -2.653417  -1.293133   0.942124
C  -0.173199  -0.692315   0.054186
H  -1.399598   0.841147   0.819575
H  -1.373246   0.863748  -0.952804
H  -0.160011  -1.361740   0.974359
H   0.732911  -0.089457   0.000545
H  -0.128904  -1.276855  -0.726350
