14
butane_opt
C  -3.955609   0.261853   0.040785
C  -2.705524  -0.615811  -0.003886
H  -4.876040  -0.349872   0.183212
H  -4.049028   0.945576  -0.881460
H  -3.858040   0.879222   0.876435
C  -1.403033   0.189818   0.001612
H  -2.723183  -1.340197  -0.892896
H  -2.705197  -1.225461   0.864309
C  -0.146062  -0.697536   0.056994
H  -1.394348   0.866126   0.828885
H  -1.405291   0.863715  -0.907400
H  -0.125539  -1.312771   0.976542
H   0.718152  -0.125168  -0.000342
H  -0.080606  -1.335204  -0.757815
