14
butane_opt
C  -3.925392   0.249985  -0.004270
C  -2.708008  -0.596110   0.044815
H  -4.877832  -0.370682   0.173327
H  -4.021962   0.987401  -0.985498
H  -3.918554   0.810216   0.796084
C  -1.404242   0.203208   0.048907
H  -2.719446  -1.287126  -0.813420
H  -2.702634  -1.209965   0.937701
C  -0.165907  -0.708423   0.011190
H  -1.361580   0.869019   0.899428
H  -1.427959   0.783444  -0.826103
H  -0.134100  -1.303139   0.911722
H   0.715999  -0.122330  -0.016141
H  -0.118175  -1.416537  -0.862604
