butane_opt
 OpenBabel08242015403D

 14 13  0  0  0  0  0  0  0  0999 V2000
   -3.9535    0.2756    0.0213 C   0  0  0  0  0  0  0  0  0  0  0  0
   -2.7117   -0.6266    0.0178 C   0  0  0  0  0  0  0  0  0  0  0  0
   -4.8605   -0.2979    0.1816 H   0  0  0  0  0  0  0  0  0  0  0  0
   -4.0466    0.9577   -0.9228 H   0  0  0  0  0  0  0  0  0  0  0  0
   -3.9733    0.8425    0.8307 H   0  0  0  0  0  0  0  0  0  0  0  0
   -1.3905    0.1775    0.0144 C   0  0  0  0  0  0  0  0  0  0  0  0
   -2.7148   -1.2679   -0.8093 H   0  0  0  0  0  0  0  0  0  0  0  0
   -2.6891   -1.2597    0.9203 H   0  0  0  0  0  0  0  0  0  0  0  0
   -0.1489   -0.6963    0.0397 C   0  0  0  0  0  0  0  0  0  0  0  0
   -1.3798    0.8501    0.8776 H   0  0  0  0  0  0  0  0  0  0  0  0
   -1.3612    0.8279   -0.8735 H   0  0  0  0  0  0  0  0  0  0  0  0
   -0.1563   -1.2202    0.8908 H   0  0  0  0  0  0  0  0  0  0  0  0
    0.7894   -0.0634    0.0610 H   0  0  0  0  0  0  0  0  0  0  0  0
   -0.1728   -1.4035   -0.8490 H   0  0  0  0  0  0  0  0  0  0  0  0
  1  3  1  0  0  0  0
  1  5  1  0  0  0  0
  2  1  1  0  0  0  0
  2  8  1  0  0  0  0
  4  1  1  0  0  0  0
  6  2  1  0  0  0  0
  6  9  1  0  0  0  0
  6 10  1  0  0  0  0
  7  2  1  0  0  0  0
  9 13  1  0  0  0  0
  9 12  1  0  0  0  0
 11  6  1  0  0  0  0
 14  9  1  0  0  0  0
M  END
$$$$
