butane_opt
 OpenBabel08242015403D

 14 13  0  0  0  0  0  0  0  0999 V2000
   -3.9474    0.2734   -0.0004 C   0  0  0  0  0  0  0  0  0  0  0  0
   -2.6804   -0.6257    0.0627 C   0  0  0  0  0  0  0  0  0  0  0  0
   -4.8679   -0.3141    0.0715 H   0  0  0  0  0  0  0  0  0  0  0  0
   -3.9700    0.9990   -0.9999 H   0  0  0  0  0  0  0  0  0  0  0  0
   -3.9633    0.8342    0.7936 H   0  0  0  0  0  0  0  0  0  0  0  0
   -1.4033    0.1802    0.0415 C   0  0  0  0  0  0  0  0  0  0  0  0
   -2.6990   -1.3238   -0.8222 H   0  0  0  0  0  0  0  0  0  0  0  0
   -2.7197   -1.2693    0.9743 H   0  0  0  0  0  0  0  0  0  0  0  0
   -0.1787   -0.6855    0.0062 C   0  0  0  0  0  0  0  0  0  0  0  0
   -1.3349    0.8561    0.9139 H   0  0  0  0  0  0  0  0  0  0  0  0
   -1.4229    0.7892   -0.8305 H   0  0  0  0  0  0  0  0  0  0  0  0
   -0.1590   -1.2570    0.8514 H   0  0  0  0  0  0  0  0  0  0  0  0
    0.7754   -0.0736    0.0481 H   0  0  0  0  0  0  0  0  0  0  0  0
   -0.1483   -1.4103   -0.8951 H   0  0  0  0  0  0  0  0  0  0  0  0
  1  2  1  0  0  0  0
  1  3  1  0  0  0  0
  1  5  1  0  0  0  0
  2  8  1  0  0  0  0
  4  1  1  0  0  0  0
  6  2  1  0  0  0  0
  6 10  1  0  0  0  0
  7  2  1  0  0  0  0
  9  6  1  0  0  0  0
  9 13  1  0  0  0  0
  9 12  1  0  0  0  0
 11  6  1  0  0  0  0
 14  9  1  0  0  0  0
M  END
$$$$
