14
butane_opt
C  -3.937621   0.267884  -0.009682
C  -2.700219  -0.619920   0.059499
H  -4.835559  -0.287824   0.160283
H  -3.991170   1.043934  -1.008983
H  -3.968208   0.861430   0.779054
C  -1.400518   0.163317   0.040053
H  -2.690069  -1.306790  -0.780477
H  -2.704366  -1.263049   0.975390
C  -0.169108  -0.684269   0.001562
H  -1.373685   0.936468   0.950958
H  -1.380822   0.726888  -0.784568
H  -0.162526  -1.266028   0.869132
H   0.770584  -0.047724   0.029755
H  -0.198083  -1.385866  -0.863788
