14
butane_opt
C  -3.944938   0.247898  -0.016604
C  -2.704726  -0.610592   0.068717
H  -4.879551  -0.361704   0.034038
H  -4.003600   0.921994  -0.952467
H  -3.993713   0.902384   0.831555
C  -1.407059   0.210630   0.061541
H  -2.672259  -1.273017  -0.792791
H  -2.740501  -1.218439   0.931525
C  -0.149540  -0.705738  -0.001648
H  -1.354030   0.860927   0.908993
H  -1.407443   0.828652  -0.837256
H  -0.021885  -1.345551   0.913830
H   0.711632  -0.152440  -0.070254
H  -0.170925  -1.350571  -0.868064
