14
butane_opt
C  -3.949876   0.261469  -0.010653
C  -2.689308  -0.607500   0.058504
H  -4.860484  -0.367426   0.035689
H  -3.890567   0.909654  -0.925029
H  -3.971872   0.901097   0.837596
C  -1.407028   0.185576   0.048438
H  -2.709191  -1.286333  -0.819513
H  -2.698833  -1.257580   0.974287
C  -0.163612  -0.700639   0.002323
H  -1.351040   0.914900   0.948997
H  -1.450060   0.787388  -0.811008
H  -0.118508  -1.350990   0.924416
H   0.749273  -0.093994  -0.099498
H  -0.199599  -1.293741  -0.805478
