14
butane_opt
C  -3.949579   0.261643   0.033174
C  -2.704908  -0.628754   0.007665
H  -4.832174  -0.307076   0.034788
H  -4.087886   0.853960  -0.798557
H  -3.973243   1.008644   0.947296
C  -1.398414   0.190495  -0.007770
H  -2.731410  -1.292585  -0.823361
H  -2.665739  -1.230579   0.854058
C  -0.154124  -0.692014   0.055543
H  -1.407883   0.879223   0.853077
H  -1.357581   0.821337  -0.895275
H  -0.093208  -1.413806   1.023216
H   0.774986  -0.097609  -0.069855
H  -0.162108  -1.267983  -0.739969
