butane_opt
 OpenBabel08242015403D

 14 13  0  0  0  0  0  0  0  0999 V2000
   -3.9354    0.2459   -0.0167 C   0  0  0  0  0  0  0  0  0  0  0  0
   -2.6916   -0.5975    0.0576 C   0  0  0  0  0  0  0  0  0  0  0  0
   -4.8251   -0.3469    0.0933 H   0  0  0  0  0  0  0  0  0  0  0  0
   -3.9422    0.9187   -0.9274 H   0  0  0  0  0  0  0  0  0  0  0  0
   -3.9469    0.8768    0.8198 H   0  0  0  0  0  0  0  0  0  0  0  0
   -1.4148    0.2028    0.0524 C   0  0  0  0  0  0  0  0  0  0  0  0
   -2.7501   -1.2836   -0.7740 H   0  0  0  0  0  0  0  0  0  0  0  0
   -2.7460   -1.2356    0.9639 H   0  0  0  0  0  0  0  0  0  0  0  0
   -0.1588   -0.7033    0.0093 C   0  0  0  0  0  0  0  0  0  0  0  0
   -1.4235    0.8598    0.8905 H   0  0  0  0  0  0  0  0  0  0  0  0
   -1.4438    0.8077   -0.8153 H   0  0  0  0  0  0  0  0  0  0  0  0
   -0.0636   -1.3082    0.8791 H   0  0  0  0  0  0  0  0  0  0  0  0
    0.7399   -0.1452   -0.0578 H   0  0  0  0  0  0  0  0  0  0  0  0
   -0.2106   -1.3843   -0.8680 H   0  0  0  0  0  0  0  0  0  0  0  0
  1  2  1  0  0  0  0
  1  3  1  0  0  0  0
  1  5  1  0  0  0  0
  2  8  1  0  0  0  0
  4  1  1  0  0  0  0
  6  2  1  0  0  0  0
  6 10  1  0  0  0  0
  7  2  1  0  0  0  0
  9  6  1  0  0  0  0
  9 12  1  0  0  0  0
 11  6  1  0  0  0  0
 13  9  1  0  0  0  0
 14  9  1  0  0  0  0
M  END
$$$$
