butane_opt
 OpenBabel08242015403D

 14 13  0  0  0  0  0  0  0  0999 V2000
   -3.9391    0.2750   -0.0137 C   0  0  0  0  0  0  0  0  0  0  0  0
   -2.6964   -0.6233    0.0632 C   0  0  0  0  0  0  0  0  0  0  0  0
   -4.8404   -0.3209    0.1343 H   0  0  0  0  0  0  0  0  0  0  0  0
   -3.9973    0.9736   -0.9587 H   0  0  0  0  0  0  0  0  0  0  0  0
   -3.9225    0.8578    0.7855 H   0  0  0  0  0  0  0  0  0  0  0  0
   -1.4040    0.1768    0.0368 C   0  0  0  0  0  0  0  0  0  0  0  0
   -2.6658   -1.2805   -0.7618 H   0  0  0  0  0  0  0  0  0  0  0  0
   -2.7695   -1.3055    0.9919 H   0  0  0  0  0  0  0  0  0  0  0  0
   -0.1724   -0.6825    0.0096 C   0  0  0  0  0  0  0  0  0  0  0  0
   -1.3361    0.8921    0.9459 H   0  0  0  0  0  0  0  0  0  0  0  0
   -1.3932    0.7536   -0.8182 H   0  0  0  0  0  0  0  0  0  0  0  0
   -0.1497   -1.2467    0.8562 H   0  0  0  0  0  0  0  0  0  0  0  0
    0.7200   -0.0807    0.0361 H   0  0  0  0  0  0  0  0  0  0  0  0
   -0.1363   -1.4602   -0.9385 H   0  0  0  0  0  0  0  0  0  0  0  0
  1  2  1  0  0  0  0
  1  3  1  0  0  0  0
  1  5  1  0  0  0  0
  2  8  1  0  0  0  0
  4  1  1  0  0  0  0
  6  2  1  0  0  0  0
  6 10  1  0  0  0  0
  7  2  1  0  0  0  0
  9 13  1  0  0  0  0
  9  6  1  0  0  0  0
  9 12  1  0  0  0  0
 11  6  1  0  0  0  0
 14  9  1  0  0  0  0
M  END
$$$$
