14
butane_opt
C  -3.945447   0.262082   0.047589
C  -2.711750  -0.620438   0.015409
H  -4.860892  -0.359321   0.082801
H  -3.997978   0.826867  -0.813959
H  -3.896093   0.987221   0.968440
C  -1.402102   0.199881  -0.045463
H  -2.773065  -1.290751  -0.859963
H  -2.668246  -1.233540   0.888791
C  -0.160611  -0.700821   0.067067
H  -1.403040   0.870940   0.812456
H  -1.363597   0.887518  -0.974835
H  -0.202954  -1.278562   0.966389
H   0.739050  -0.129605   0.156408
H   0.038509  -1.448175  -0.808558
