butane_opt
 OpenBabel08242015403D

 14 13  0  0  0  0  0  0  0  0999 V2000
   -3.9383    0.2492    0.0026 C   0  0  0  0  0  0  0  0  0  0  0  0
   -2.7052   -0.6010    0.0545 C   0  0  0  0  0  0  0  0  0  0  0  0
   -4.8366   -0.3454    0.0221 H   0  0  0  0  0  0  0  0  0  0  0  0
   -3.9340    0.8532   -0.9002 H   0  0  0  0  0  0  0  0  0  0  0  0
   -3.9376    0.9238    0.8792 H   0  0  0  0  0  0  0  0  0  0  0  0
   -1.4022    0.1984    0.0100 C   0  0  0  0  0  0  0  0  0  0  0  0
   -2.7091   -1.1979   -0.7218 H   0  0  0  0  0  0  0  0  0  0  0  0
   -2.7184   -1.2823    0.9994 H   0  0  0  0  0  0  0  0  0  0  0  0
   -0.1689   -0.7064    0.0250 C   0  0  0  0  0  0  0  0  0  0  0  0
   -1.3783    0.9115    0.8672 H   0  0  0  0  0  0  0  0  0  0  0  0
   -1.4090    0.8306   -0.8663 H   0  0  0  0  0  0  0  0  0  0  0  0
   -0.1065   -1.2373    0.8562 H   0  0  0  0  0  0  0  0  0  0  0  0
    0.7115   -0.1527    0.1189 H   0  0  0  0  0  0  0  0  0  0  0  0
   -0.1233   -1.4698   -0.9266 H   0  0  0  0  0  0  0  0  0  0  0  0
  1  3  1  0  0  0  0
  1  2  1  0  0  0  0
  1  5  1  0  0  0  0
  2  8  1  0  0  0  0
  4  1  1  0  0  0  0
  6  9  1  0  0  0  0
  6  2  1  0  0  0  0
  6 10  1  0  0  0  0
  7  2  1  0  0  0  0
  9 13  1  0  0  0  0
  9 12  1  0  0  0  0
 11  6  1  0  0  0  0
 14  9  1  0  0  0  0
M  END
$$$$
