butane_opt
 OpenBabel08242015403D

 14 13  0  0  0  0  0  0  0  0999 V2000
   -3.9284    0.2554    0.0232 C   0  0  0  0  0  0  0  0  0  0  0  0
   -2.6989   -0.6072    0.0482 C   0  0  0  0  0  0  0  0  0  0  0  0
   -4.8413   -0.3494   -0.0658 H   0  0  0  0  0  0  0  0  0  0  0  0
   -3.8999    0.8341   -0.8288 H   0  0  0  0  0  0  0  0  0  0  0  0
   -4.0107    1.0226    0.9453 H   0  0  0  0  0  0  0  0  0  0  0  0
   -1.4129    0.1877   -0.0149 C   0  0  0  0  0  0  0  0  0  0  0  0
   -2.7375   -1.2512   -0.7802 H   0  0  0  0  0  0  0  0  0  0  0  0
   -2.7111   -1.2480    0.9469 H   0  0  0  0  0  0  0  0  0  0  0  0
   -0.1686   -0.7048    0.0354 C   0  0  0  0  0  0  0  0  0  0  0  0
   -1.3847    0.8884    0.8230 H   0  0  0  0  0  0  0  0  0  0  0  0
   -1.3850    0.7864   -0.8805 H   0  0  0  0  0  0  0  0  0  0  0  0
   -0.1578   -1.2923    0.9226 H   0  0  0  0  0  0  0  0  0  0  0  0
    0.7545   -0.0881    0.0762 H   0  0  0  0  0  0  0  0  0  0  0  0
   -0.1363   -1.3536   -0.8126 H   0  0  0  0  0  0  0  0  0  0  0  0
  1  2  1  0  0  0  0
  1  5  1  0  0  0  0
  2  8  1  0  0  0  0
  3  1  1  0  0  0  0
  4  1  1  0  0  0  0
  6  9  1  0  0  0  0
  6  2  1  0  0  0  0
  6 10  1  0  0  0  0
  7  2  1  0  0  0  0
  9 13  1  0  0  0  0
  9 12  1  0  0  0  0
 11  6  1  0  0  0  0
 14  9  1  0  0  0  0
M  END
$$$$
