14
butane_opt
C  -3.945871   0.253952  -0.012708
C  -2.716658  -0.608816   0.062211
H  -4.873671  -0.338872   0.167528
H  -4.004599   1.007797  -0.976979
H  -3.921255   0.803529   0.786703
C  -1.399773   0.199563   0.042995
H  -2.688248  -1.255090  -0.770114
H  -2.747286  -1.225463   0.936794
C  -0.150625  -0.711182  -0.001273
H  -1.378242   0.948928   0.927005
H  -1.398475   0.787080  -0.804235
H  -0.113782  -1.289940   0.858993
H   0.779140  -0.095391   0.080320
H  -0.116792  -1.420028  -0.873868
