14
butane_opt
C  -3.933869   0.253929  -0.008702
C  -2.697240  -0.592836   0.057895
H  -4.888308  -0.377644   0.042196
H  -3.925216   0.896770  -0.886722
H  -3.991450   0.882515   0.814045
C  -1.406923   0.186693   0.035620
H  -2.719128  -1.192337  -0.732807
H  -2.758547  -1.299037   1.017337
C  -0.162637  -0.705055   0.010572
H  -1.371842   0.906092   0.922912
H  -1.414002   0.801451  -0.867934
H  -0.116908  -1.239063   0.845637
H   0.738926  -0.120004   0.040170
H  -0.160146  -1.455356  -0.908460
