butane_opt
 OpenBabel08242015403D

 14 13  0  0  0  0  0  0  0  0999 V2000
   -3.9435    0.2697    0.0291 C   0  0  0  0  0  0  0  0  0  0  0  0
   -2.7084   -0.6147    0.0242 C   0  0  0  0  0  0  0  0  0  0  0  0
   -4.8842   -0.3788   -0.0039 H   0  0  0  0  0  0  0  0  0  0  0  0
   -3.9757    0.8391   -0.8675 H   0  0  0  0  0  0  0  0  0  0  0  0
   -3.9692    0.9603    0.8940 H   0  0  0  0  0  0  0  0  0  0  0  0
   -1.4057    0.1904    0.0206 C   0  0  0  0  0  0  0  0  0  0  0  0
   -2.6857   -1.3509   -0.8560 H   0  0  0  0  0  0  0  0  0  0  0  0
   -2.7649   -1.1914    0.8776 H   0  0  0  0  0  0  0  0  0  0  0  0
   -0.1535   -0.7007    0.0357 C   0  0  0  0  0  0  0  0  0  0  0  0
   -1.3507    0.8600    0.8609 H   0  0  0  0  0  0  0  0  0  0  0  0
   -1.3615    0.8577   -0.9008 H   0  0  0  0  0  0  0  0  0  0  0  0
   -0.0591   -1.4431    1.0205 H   0  0  0  0  0  0  0  0  0  0  0  0
    0.7618   -0.1122   -0.1178 H   0  0  0  0  0  0  0  0  0  0  0  0
   -0.1974   -1.2509   -0.7599 H   0  0  0  0  0  0  0  0  0  0  0  0
  1  5  1  0  0  0  0
  2  1  1  0  0  0  0
  2  8  1  0  0  0  0
  3  1  1  0  0  0  0
  4  1  1  0  0  0  0
  6  2  1  0  0  0  0
  6  9  1  0  0  0  0
  6 10  1  0  0  0  0
  7  2  1  0  0  0  0
  9 12  1  0  0  0  0
 11  6  1  0  0  0  0
 13  9  1  0  0  0  0
 14  9  1  0  0  0  0
M  END
$$$$
