butane_opt
 OpenBabel08242015403D

 14 13  0  0  0  0  0  0  0  0999 V2000
   -3.9472    0.2760    0.0052 C   0  0  0  0  0  0  0  0  0  0  0  0
   -2.6959   -0.6281    0.0464 C   0  0  0  0  0  0  0  0  0  0  0  0
   -4.8322   -0.3235    0.1247 H   0  0  0  0  0  0  0  0  0  0  0  0
   -3.9777    1.0104   -0.9724 H   0  0  0  0  0  0  0  0  0  0  0  0
   -3.9650    0.7823    0.7638 H   0  0  0  0  0  0  0  0  0  0  0  0
   -1.4037    0.1883    0.0427 C   0  0  0  0  0  0  0  0  0  0  0  0
   -2.6866   -1.3311   -0.8012 H   0  0  0  0  0  0  0  0  0  0  0  0
   -2.7201   -1.2134    0.9300 H   0  0  0  0  0  0  0  0  0  0  0  0
   -0.1713   -0.6941    0.0130 C   0  0  0  0  0  0  0  0  0  0  0  0
   -1.3533    0.8709    0.9242 H   0  0  0  0  0  0  0  0  0  0  0  0
   -1.3578    0.7713   -0.8318 H   0  0  0  0  0  0  0  0  0  0  0  0
   -0.1388   -1.2814    0.8795 H   0  0  0  0  0  0  0  0  0  0  0  0
    0.7654   -0.0585   -0.0312 H   0  0  0  0  0  0  0  0  0  0  0  0
   -0.1467   -1.3910   -0.8541 H   0  0  0  0  0  0  0  0  0  0  0  0
  1  2  1  0  0  0  0
  1  3  1  0  0  0  0
  1  5  1  0  0  0  0
  2  8  1  0  0  0  0
  4  1  1  0  0  0  0
  6  2  1  0  0  0  0
  6 10  1  0  0  0  0
  7  2  1  0  0  0  0
  9  6  1  0  0  0  0
  9 12  1  0  0  0  0
 11  6  1  0  0  0  0
 13  9  1  0  0  0  0
 14  9  1  0  0  0  0
M  END
$$$$
