butane_opt
 OpenBabel08242015403D

 14 13  0  0  0  0  0  0  0  0999 V2000
   -3.9558    0.2521   -0.0049 C   0  0  0  0  0  0  0  0  0  0  0  0
   -2.7162   -0.6050    0.0693 C   0  0  0  0  0  0  0  0  0  0  0  0
   -4.8508   -0.3468    0.0462 H   0  0  0  0  0  0  0  0  0  0  0  0
   -3.8742    0.9461   -0.9509 H   0  0  0  0  0  0  0  0  0  0  0  0
   -3.9929    0.8687    0.7991 H   0  0  0  0  0  0  0  0  0  0  0  0
   -1.4102    0.2054    0.0311 C   0  0  0  0  0  0  0  0  0  0  0  0
   -2.6821   -1.2435   -0.7521 H   0  0  0  0  0  0  0  0  0  0  0  0
   -2.7452   -1.2906    1.0033 H   0  0  0  0  0  0  0  0  0  0  0  0
   -0.1361   -0.7045    0.0031 C   0  0  0  0  0  0  0  0  0  0  0  0
   -1.3918    0.8914    0.9169 H   0  0  0  0  0  0  0  0  0  0  0  0
   -1.4366    0.7567   -0.8070 H   0  0  0  0  0  0  0  0  0  0  0  0
   -0.1239   -1.2501    0.8315 H   0  0  0  0  0  0  0  0  0  0  0  0
    0.7899   -0.1231    0.0728 H   0  0  0  0  0  0  0  0  0  0  0  0
   -0.0992   -1.4496   -0.9138 H   0  0  0  0  0  0  0  0  0  0  0  0
  1  3  1  0  0  0  0
  1  2  1  0  0  0  0
  1  5  1  0  0  0  0
  2  8  1  0  0  0  0
  4  1  1  0  0  0  0
  6  2  1  0  0  0  0
  6 10  1  0  0  0  0
  7  2  1  0  0  0  0
  9  6  1  0  0  0  0
  9 13  1  0  0  0  0
  9 12  1  0  0  0  0
 11  6  1  0  0  0  0
 14  9  1  0  0  0  0
M  END
$$$$
