14
butane_opt
C  -3.940498   0.248012   0.039211
C  -2.709237  -0.605790   0.025793
H  -4.860622  -0.347836  -0.031657
H  -3.957784   0.747187  -0.765752
H  -4.040899   1.057842   0.958268
C  -1.403494   0.206611  -0.022709
H  -2.729078  -1.313412  -0.837251
H  -2.740518  -1.208229   0.879738
C  -0.144505  -0.707009   0.061965
H  -1.459453   0.816173   0.784143
H  -1.390687   0.895085  -0.944324
H  -0.081132  -1.346803   0.955484
H   0.739790  -0.148167  -0.013253
H  -0.119624  -1.333665  -0.775460
