butane_opt
 OpenBabel08242015403D

 14 13  0  0  0  0  0  0  0  0999 V2000
   -3.9572    0.2729   -0.0157 C   0  0  0  0  0  0  0  0  0  0  0  0
   -2.6917   -0.6249    0.0816 C   0  0  0  0  0  0  0  0  0  0  0  0
   -4.8460   -0.3006   -0.0974 H   0  0  0  0  0  0  0  0  0  0  0  0
   -3.8822    0.8122   -0.8702 H   0  0  0  0  0  0  0  0  0  0  0  0
   -4.0399    1.0203    0.8783 H   0  0  0  0  0  0  0  0  0  0  0  0
   -1.3974    0.1663    0.0277 C   0  0  0  0  0  0  0  0  0  0  0  0
   -2.6211   -1.2407   -0.7013 H   0  0  0  0  0  0  0  0  0  0  0  0
   -2.6986   -1.3158    1.0348 H   0  0  0  0  0  0  0  0  0  0  0  0
   -0.1721   -0.6868    0.0073 C   0  0  0  0  0  0  0  0  0  0  0  0
   -1.3670    0.9054    0.9303 H   0  0  0  0  0  0  0  0  0  0  0  0
   -1.3917    0.7746   -0.8690 H   0  0  0  0  0  0  0  0  0  0  0  0
   -0.1219   -1.2407    0.8597 H   0  0  0  0  0  0  0  0  0  0  0  0
    0.7622   -0.0553   -0.0246 H   0  0  0  0  0  0  0  0  0  0  0  0
   -0.2032   -1.3618   -0.9068 H   0  0  0  0  0  0  0  0  0  0  0  0
  1  2  1  0  0  0  0
  1  5  1  0  0  0  0
  2  8  1  0  0  0  0
  3  1  1  0  0  0  0
  4  1  1  0  0  0  0
  6  2  1  0  0  0  0
  6 10  1  0  0  0  0
  7  2  1  0  0  0  0
  9  6  1  0  0  0  0
  9 12  1  0  0  0  0
 11  6  1  0  0  0  0
 13  9  1  0  0  0  0
 14  9  1  0  0  0  0
M  END
$$$$
