14
butane_opt
C  -3.928522   0.263008   0.017487
C  -2.708004  -0.610109   0.031496
H  -4.873135  -0.382964   0.021481
H  -3.940887   0.846317  -0.857063
H  -3.976923   0.956667   0.913083
C  -1.402909   0.190618   0.013519
H  -2.764037  -1.323029  -0.837593
H  -2.691456  -1.194046   0.885482
C  -0.165770  -0.697326   0.037064
H  -1.386895   0.885424   0.902545
H  -1.419573   0.840300  -0.897407
H  -0.061614  -1.433714   0.992499
H   0.717355  -0.126547  -0.099930
H  -0.162953  -1.296612  -0.765610
