14
butane_opt
C  -3.938620   0.252091   0.042685
C  -2.706963  -0.601858   0.017216
H  -4.887287  -0.407881  -0.048668
H  -3.907040   0.811574  -0.821801
H  -3.961269   0.997884   0.922913
C  -1.414654   0.199821   0.001725
H  -2.735618  -1.316352  -0.873005
H  -2.621073  -1.185133   0.859344
C  -0.154598  -0.703422   0.048258
H  -1.417593   0.870488   0.846405
H  -1.380473   0.865494  -0.952959
H  -0.103837  -1.465500   1.037722
H   0.745966  -0.137065  -0.090250
H  -0.168056  -1.273764  -0.742682
