14
butane_opt
C  -3.954199   0.255055   0.001768
C  -2.700506  -0.613433   0.045383
H  -4.850572  -0.341594   0.143379
H  -4.039441   0.968114  -0.945499
H  -3.927375   0.858613   0.804190
C  -1.408995   0.207036   0.038103
H  -2.665042  -1.326124  -0.824029
H  -2.784247  -1.233923   0.907440
C  -0.141249  -0.698827   0.020108
H  -1.369895   0.865142   0.875736
H  -1.398211   0.795491  -0.827548
H  -0.080216  -1.319479   0.920372
H   0.754363  -0.142243  -0.027352
H  -0.195126  -1.388604  -0.851556
