14
butane_opt
C  -3.944103   0.272078   0.033904
C  -2.698715  -0.619576   0.012915
H  -4.846557  -0.340475   0.153280
H  -4.022172   0.945412  -0.896306
H  -3.910003   0.884753   0.875358
C  -1.396595   0.180012   0.000737
H  -2.710523  -1.318496  -0.861058
H  -2.690444  -1.202874   0.870950
C  -0.170541  -0.699699   0.044582
H  -1.401299   0.870621   0.877712
H  -1.369088   0.774610  -0.880001
H  -0.230269  -1.332160   0.935010
H   0.780402  -0.050577   0.005001
H  -0.103636  -1.285285  -0.751186
