14
butane_opt
C  -3.926518   0.255285   0.038796
C  -2.700929  -0.607919   0.015144
H  -4.848865  -0.342123  -0.023593
H  -3.944241   0.778174  -0.794080
H  -3.956162   1.022966   0.956364
C  -1.403091   0.194756  -0.017603
H  -2.776633  -1.259924  -0.814865
H  -2.667234  -1.211980   0.902276
C  -0.180005  -0.701656   0.059612
H  -1.431290   0.830808   0.819274
H  -1.379416   0.846827  -0.937046
H  -0.116300  -1.354790   0.999244
H   0.736902  -0.113398  -0.026483
H  -0.115368  -1.358556  -0.788963
