butane_opt
 OpenBabel08242015403D

 14 13  0  0  0  0  0  0  0  0999 V2000
   -3.9490    0.2651    0.0313 C   0  0  0  0  0  0  0  0  0  0  0  0
   -2.7011   -0.6278    0.0264 C   0  0  0  0  0  0  0  0  0  0  0  0
   -4.8249   -0.2746   -0.0063 H   0  0  0  0  0  0  0  0  0  0  0  0
   -3.9736    0.8334   -0.8428 H   0  0  0  0  0  0  0  0  0  0  0  0
   -4.0141    0.9963    0.9078 H   0  0  0  0  0  0  0  0  0  0  0  0
   -1.4044    0.1869    0.0118 C   0  0  0  0  0  0  0  0  0  0  0  0
   -2.7301   -1.3775   -0.8995 H   0  0  0  0  0  0  0  0  0  0  0  0
   -2.6681   -1.2175    0.8859 H   0  0  0  0  0  0  0  0  0  0  0  0
   -0.1595   -0.6935    0.0368 C   0  0  0  0  0  0  0  0  0  0  0  0
   -1.3762    0.8643    0.8340 H   0  0  0  0  0  0  0  0  0  0  0  0
   -1.4041    0.8546   -0.9098 H   0  0  0  0  0  0  0  0  0  0  0  0
   -0.0991   -1.4204    1.0296 H   0  0  0  0  0  0  0  0  0  0  0  0
    0.7864   -0.0722   -0.0718 H   0  0  0  0  0  0  0  0  0  0  0  0
   -0.1560   -1.2216   -0.7404 H   0  0  0  0  0  0  0  0  0  0  0  0
  1  5  1  0  0  0  0
  2  1  1  0  0  0  0
  2  8  1  0  0  0  0
  3  1  1  0  0  0  0
  4  1  1  0  0  0  0
  6  2  1  0  0  0  0
  6  9  1  0  0  0  0
  6 10  1  0  0  0  0
  7  2  1  0  0  0  0
  9 12  1  0  0  0  0
 11  6  1  0  0  0  0
 13  9  1  0  0  0  0
 14  9  1  0  0  0  0
M  END
$$$$
