14
butane_opt
C  -3.939188   0.280015   0.001564
C  -2.697190  -0.624566   0.078894
H  -4.882774  -0.343811  -0.128714
H  -3.864858   0.839353  -0.859403
H  -4.056206   0.981987   0.882031
C  -1.406097   0.174613   0.020909
H  -2.689824  -1.315641  -0.808984
H  -2.679880  -1.254953   0.971514
C  -0.168362  -0.689410   0.011776
H  -1.352805   0.827994   0.862659
H  -1.371826   0.788937  -0.863347
H  -0.135114  -1.291655   0.885632
H   0.741679  -0.060718  -0.014002
H  -0.199242  -1.334283  -0.840299
