14
butane_opt
C  -3.944551   0.282245   0.012687
C  -2.700812  -0.623994   0.051120
H  -4.857252  -0.333688   0.075219
H  -3.949164   0.971295  -0.950080
H  -3.964200   0.863741   0.815449
C  -1.399656   0.164810   0.016252
H  -2.688950  -1.306988  -0.787582
H  -2.676751  -1.277708   0.956784
C  -0.173518  -0.687577   0.023288
H  -1.349351   0.842753   0.904661
H  -1.380722   0.804746  -0.883924
H  -0.199894  -1.161730   0.824798
H   0.768006  -0.050516   0.088150
H  -0.110610  -1.439879  -0.867331
