14
butane_opt
C  -3.955666   0.276232   0.036232
C  -2.706581  -0.637115   0.036190
H  -4.808202  -0.278368   0.052809
H  -3.980063   0.881789  -0.861941
H  -3.965920   0.922243   0.895120
C  -1.395429   0.190356  -0.030833
H  -2.732975  -1.294730  -0.820988
H  -2.716825  -1.262214   0.938670
C  -0.156117  -0.690540   0.048020
H  -1.381873   0.860399   0.825592
H  -1.359444   0.798915  -0.905524
H  -0.208602  -1.215488   0.895971
H   0.758650  -0.086124   0.183473
H  -0.071370  -1.459736  -0.848196
