butane_opt
 OpenBabel08242015403D

 14 13  0  0  0  0  0  0  0  0999 V2000
   -3.9644    0.2738    0.0456 C   0  0  0  0  0  0  0  0  0  0  0  0
   -2.7019   -0.6176   -0.0021 C   0  0  0  0  0  0  0  0  0  0  0  0
   -4.8838   -0.2986    0.1327 H   0  0  0  0  0  0  0  0  0  0  0  0
   -4.0322    0.8288   -0.8013 H   0  0  0  0  0  0  0  0  0  0  0  0
   -3.9007    0.9452    0.9309 H   0  0  0  0  0  0  0  0  0  0  0  0
   -1.3937    0.1711   -0.0251 C   0  0  0  0  0  0  0  0  0  0  0  0
   -2.7479   -1.3067   -0.8542 H   0  0  0  0  0  0  0  0  0  0  0  0
   -2.6704   -1.2867    0.9008 H   0  0  0  0  0  0  0  0  0  0  0  0
   -0.1543   -0.6822    0.0677 C   0  0  0  0  0  0  0  0  0  0  0  0
   -1.4172    0.8436    0.8019 H   0  0  0  0  0  0  0  0  0  0  0  0
   -1.3623    0.8450   -0.9644 H   0  0  0  0  0  0  0  0  0  0  0  0
   -0.1681   -1.3054    0.9580 H   0  0  0  0  0  0  0  0  0  0  0  0
    0.7587   -0.0907    0.1108 H   0  0  0  0  0  0  0  0  0  0  0  0
   -0.0415   -1.3830   -0.8070 H   0  0  0  0  0  0  0  0  0  0  0  0
  1  3  1  0  0  0  0
  1  5  1  0  0  0  0
  2  1  1  0  0  0  0
  2  8  1  0  0  0  0
  4  1  1  0  0  0  0
  6  2  1  0  0  0  0
  6  9  1  0  0  0  0
  6 10  1  0  0  0  0
  7  2  1  0  0  0  0
  9 13  1  0  0  0  0
  9 12  1  0  0  0  0
 11  6  1  0  0  0  0
 14  9  1  0  0  0  0
M  END
$$$$
