butane_opt
 OpenBabel08242015403D

 14 13  0  0  0  0  0  0  0  0999 V2000
   -3.9483    0.2544   -0.0026 C   0  0  0  0  0  0  0  0  0  0  0  0
   -2.7150   -0.6055    0.0533 C   0  0  0  0  0  0  0  0  0  0  0  0
   -4.8510   -0.3218   -0.0198 H   0  0  0  0  0  0  0  0  0  0  0  0
   -3.9384    0.8996   -0.8986 H   0  0  0  0  0  0  0  0  0  0  0  0
   -3.9972    0.9197    0.8272 H   0  0  0  0  0  0  0  0  0  0  0  0
   -1.4021    0.1985    0.0509 C   0  0  0  0  0  0  0  0  0  0  0  0
   -2.6941   -1.2892   -0.8112 H   0  0  0  0  0  0  0  0  0  0  0  0
   -2.7593   -1.2646    0.9503 H   0  0  0  0  0  0  0  0  0  0  0  0
   -0.1421   -0.7047    0.0136 C   0  0  0  0  0  0  0  0  0  0  0  0
   -1.3760    0.8837    0.9229 H   0  0  0  0  0  0  0  0  0  0  0  0
   -1.3851    0.8277   -0.8444 H   0  0  0  0  0  0  0  0  0  0  0  0
   -0.0580   -1.3782    0.9517 H   0  0  0  0  0  0  0  0  0  0  0  0
    0.7763   -0.1007   -0.1755 H   0  0  0  0  0  0  0  0  0  0  0  0
   -0.2470   -1.3615   -0.8437 H   0  0  0  0  0  0  0  0  0  0  0  0
  1  2  1  0  0  0  0
  1  5  1  0  0  0  0
  2  8  1  0  0  0  0
  3  1  1  0  0  0  0
  4  1  1  0  0  0  0
  6  2  1  0  0  0  0
  6 10  1  0  0  0  0
  7  2  1  0  0  0  0
  9  6  1  0  0  0  0
  9 12  1  0  0  0  0
 11  6  1  0  0  0  0
 13  9  1  0  0  0  0
 14  9  1  0  0  0  0
M  END
$$$$
