butane_opt
 OpenBabel08242015403D

 14 13  0  0  0  0  0  0  0  0999 V2000
   -3.9520    0.2713   -0.0070 C   0  0  0  0  0  0  0  0  0  0  0  0
   -2.7080   -0.6312    0.0534 C   0  0  0  0  0  0  0  0  0  0  0  0
   -4.8108   -0.2893   -0.0131 H   0  0  0  0  0  0  0  0  0  0  0  0
   -4.0116    0.8887   -0.9287 H   0  0  0  0  0  0  0  0  0  0  0  0
   -3.9507    0.9732    0.8874 H   0  0  0  0  0  0  0  0  0  0  0  0
   -1.3973    0.1766    0.0424 C   0  0  0  0  0  0  0  0  0  0  0  0
   -2.6955   -1.2704   -0.7729 H   0  0  0  0  0  0  0  0  0  0  0  0
   -2.7240   -1.2752    0.9865 H   0  0  0  0  0  0  0  0  0  0  0  0
   -0.1578   -0.6861    0.0126 C   0  0  0  0  0  0  0  0  0  0  0  0
   -1.3393    0.8852    0.9205 H   0  0  0  0  0  0  0  0  0  0  0  0
   -1.3936    0.8010   -0.8506 H   0  0  0  0  0  0  0  0  0  0  0  0
   -0.0893   -1.3329    0.9209 H   0  0  0  0  0  0  0  0  0  0  0  0
    0.7568   -0.0983   -0.0807 H   0  0  0  0  0  0  0  0  0  0  0  0
   -0.1890   -1.3140   -0.8460 H   0  0  0  0  0  0  0  0  0  0  0  0
  1  2  1  0  0  0  0
  1  5  1  0  0  0  0
  2  8  1  0  0  0  0
  3  1  1  0  0  0  0
  4  1  1  0  0  0  0
  6  2  1  0  0  0  0
  6 10  1  0  0  0  0
  7  2  1  0  0  0  0
  9  6  1  0  0  0  0
  9 12  1  0  0  0  0
 11  6  1  0  0  0  0
 13  9  1  0  0  0  0
 14  9  1  0  0  0  0
M  END
$$$$
