butane_opt
 OpenBabel08242015403D

 14 13  0  0  0  0  0  0  0  0999 V2000
   -3.9511    0.2758    0.0045 C   0  0  0  0  0  0  0  0  0  0  0  0
   -2.6868   -0.6169    0.0421 C   0  0  0  0  0  0  0  0  0  0  0  0
   -4.8726   -0.3351    0.1393 H   0  0  0  0  0  0  0  0  0  0  0  0
   -4.0215    1.0003   -0.9638 H   0  0  0  0  0  0  0  0  0  0  0  0
   -3.9251    0.8546    0.8138 H   0  0  0  0  0  0  0  0  0  0  0  0
   -1.3914    0.1639    0.0389 C   0  0  0  0  0  0  0  0  0  0  0  0
   -2.6504   -1.3465   -0.8334 H   0  0  0  0  0  0  0  0  0  0  0  0
   -2.7371   -1.2375    0.9519 H   0  0  0  0  0  0  0  0  0  0  0  0
   -0.1743   -0.6768    0.0175 C   0  0  0  0  0  0  0  0  0  0  0  0
   -1.3701    0.8403    0.8963 H   0  0  0  0  0  0  0  0  0  0  0  0
   -1.3979    0.7739   -0.8567 H   0  0  0  0  0  0  0  0  0  0  0  0
   -0.1522   -1.3104    0.9196 H   0  0  0  0  0  0  0  0  0  0  0  0
    0.7627   -0.0868    0.0191 H   0  0  0  0  0  0  0  0  0  0  0  0
   -0.2165   -1.3678   -0.8868 H   0  0  0  0  0  0  0  0  0  0  0  0
  1  2  1  0  0  0  0
  1  3  1  0  0  0  0
  1  5  1  0  0  0  0
  2  8  1  0  0  0  0
  4  1  1  0  0  0  0
  6  2  1  0  0  0  0
  6 10  1  0  0  0  0
  7  2  1  0  0  0  0
  9 13  1  0  0  0  0
  9  6  1  0  0  0  0
  9 12  1  0  0  0  0
 11  6  1  0  0  0  0
 14  9  1  0  0  0  0
M  END
$$$$
