14
butane_opt
C  -3.936466   0.255897  -0.010417
C  -2.698810  -0.611907   0.078457
H  -4.854682  -0.323979  -0.066170
H  -3.913328   0.862038  -0.907472
H  -3.977059   0.907043   0.809797
C  -1.413603   0.206854   0.040749
H  -2.689748  -1.244388  -0.752508
H  -2.799666  -1.295449   1.003207
C  -0.156404  -0.705962  -0.006202
H  -1.385822   0.907382   0.930154
H  -1.470293   0.768646  -0.811953
H  -0.095576  -1.310242   0.868277
H   0.750379  -0.100095  -0.010528
H  -0.129000  -1.378084  -0.853734
