14
butane_opt
C  -3.930364   0.258732  -0.007780
C  -2.694556  -0.607660   0.047104
H  -4.848019  -0.378134   0.034579
H  -3.934283   0.851377  -0.904622
H  -3.941263   0.959257   0.854331
C  -1.408087   0.190988   0.043701
H  -2.706447  -1.247376  -0.779837
H  -2.780059  -1.239421   0.968080
C  -0.178598  -0.702597   0.015783
H  -1.343990   0.935728   0.930601
H  -1.431713   0.790961  -0.822827
H  -0.019472  -1.399514   0.946691
H   0.728790  -0.115499  -0.154377
H  -0.207159  -1.304570  -0.802393
