14
butane_opt
C  -3.936981   0.255737   0.039762
C  -2.691883  -0.610786   0.007098
H  -4.858276  -0.324404   0.003614
H  -3.965896   0.758150  -0.775652
H  -3.928365   1.010373   0.947276
C  -1.417319   0.194110  -0.013479
H  -2.736006  -1.254721  -0.824691
H  -2.657448  -1.232157   0.895199
C  -0.161725  -0.703572   0.054893
H  -1.408832   0.843335   0.843266
H  -1.383051   0.855051  -0.933121
H  -0.200568  -1.371336   0.997261
H   0.748220  -0.094673  -0.029353
H  -0.132622  -1.293856  -0.734333
