14
butane_opt
C  -3.952343   0.252852  -0.018209
C  -2.715806  -0.605846   0.061916
H  -4.822333  -0.313086   0.076123
H  -3.940227   0.928424  -0.949179
H  -3.985660   0.888237   0.805997
C  -1.398691   0.196515   0.055881
H  -2.716692  -1.286580  -0.802979
H  -2.718877  -1.272897   0.997942
C  -0.148592  -0.703345  -0.006703
H  -1.337282   0.914514   0.959015
H  -1.432369   0.786433  -0.776193
H  -0.067752  -1.351400   0.916329
H   0.724129  -0.120490  -0.069074
H  -0.138726  -1.324824  -0.833029
