14
butane_opt
C  -3.957154   0.255271   0.040798
C  -2.702374  -0.603757   0.015351
H  -4.897441  -0.359809  -0.060784
H  -3.965086   0.762694  -0.786634
H  -3.946792   1.013866   0.991849
C  -1.400632   0.193223  -0.007741
H  -2.732642  -1.336702  -0.855974
H  -2.714547  -1.187564   0.888929
C  -0.148617  -0.704377   0.053389
H  -1.448821   0.835027   0.797173
H  -1.375826   0.928958  -0.961542
H  -0.082192  -1.424904   1.027825
H   0.754985  -0.100398  -0.045128
H  -0.109194  -1.295311  -0.763084
