butane_opt
 OpenBabel08242015403D

 14 13  0  0  0  0  0  0  0  0999 V2000
   -3.9442    0.2604    0.0050 C   0  0  0  0  0  0  0  0  0  0  0  0
   -2.7100   -0.6080    0.0564 C   0  0  0  0  0  0  0  0  0  0  0  0
   -4.9099   -0.3878    0.0849 H   0  0  0  0  0  0  0  0  0  0  0  0
   -3.9697    0.9672   -0.9598 H   0  0  0  0  0  0  0  0  0  0  0  0
   -3.9023    0.8495    0.8211 H   0  0  0  0  0  0  0  0  0  0  0  0
   -1.4010    0.1974    0.0289 C   0  0  0  0  0  0  0  0  0  0  0  0
   -2.6889   -1.2710   -0.7922 H   0  0  0  0  0  0  0  0  0  0  0  0
   -2.8002   -1.2681    0.9606 H   0  0  0  0  0  0  0  0  0  0  0  0
   -0.1538   -0.7089    0.0138 C   0  0  0  0  0  0  0  0  0  0  0  0
   -1.3795    0.8945    0.8754 H   0  0  0  0  0  0  0  0  0  0  0  0
   -1.4154    0.8518   -0.8599 H   0  0  0  0  0  0  0  0  0  0  0  0
   -0.1096   -1.2393    0.8359 H   0  0  0  0  0  0  0  0  0  0  0  0
    0.7279   -0.1107    0.1124 H   0  0  0  0  0  0  0  0  0  0  0  0
   -0.0653   -1.4586   -0.9011 H   0  0  0  0  0  0  0  0  0  0  0  0
  1  2  1  0  0  0  0
  1  3  1  0  0  0  0
  1  5  1  0  0  0  0
  2  8  1  0  0  0  0
  4  1  1  0  0  0  0
  6  2  1  0  0  0  0
  6 10  1  0  0  0  0
  7  2  1  0  0  0  0
  9  6  1  0  0  0  0
  9 13  1  0  0  0  0
  9 12  1  0  0  0  0
 11  6  1  0  0  0  0
 14  9  1  0  0  0  0
M  END
$$$$
