butane_opt
 OpenBabel08242015403D

 14 13  0  0  0  0  0  0  0  0999 V2000
   -3.9490    0.2735    0.0395 C   0  0  0  0  0  0  0  0  0  0  0  0
   -2.6875   -0.6206    0.0091 C   0  0  0  0  0  0  0  0  0  0  0  0
   -4.8828   -0.3315    0.1137 H   0  0  0  0  0  0  0  0  0  0  0  0
   -4.0166    0.9129   -0.8534 H   0  0  0  0  0  0  0  0  0  0  0  0
   -3.9216    0.9086    0.8457 H   0  0  0  0  0  0  0  0  0  0  0  0
   -1.3955    0.1746   -0.0007 C   0  0  0  0  0  0  0  0  0  0  0  0
   -2.6875   -1.3150   -0.8654 H   0  0  0  0  0  0  0  0  0  0  0  0
   -2.6813   -1.2424    0.8902 H   0  0  0  0  0  0  0  0  0  0  0  0
   -0.1721   -0.6871    0.0551 C   0  0  0  0  0  0  0  0  0  0  0  0
   -1.4396    0.8332    0.8286 H   0  0  0  0  0  0  0  0  0  0  0  0
   -1.3555    0.7882   -0.9024 H   0  0  0  0  0  0  0  0  0  0  0  0
   -0.1728   -1.2900    0.9526 H   0  0  0  0  0  0  0  0  0  0  0  0
    0.7527   -0.0778   -0.0190 H   0  0  0  0  0  0  0  0  0  0  0  0
   -0.1688   -1.3419   -0.7928 H   0  0  0  0  0  0  0  0  0  0  0  0
  1  3  1  0  0  0  0
  1  5  1  0  0  0  0
  2  1  1  0  0  0  0
  2  8  1  0  0  0  0
  4  1  1  0  0  0  0
  6  2  1  0  0  0  0
  6  9  1  0  0  0  0
  6 10  1  0  0  0  0
  7  2  1  0  0  0  0
  9 12  1  0  0  0  0
 11  6  1  0  0  0  0
 13  9  1  0  0  0  0
 14  9  1  0  0  0  0
M  END
$$$$
