14
butane_opt
C  -3.931086   0.249009  -0.012639
C  -2.700102  -0.595431   0.074197
H  -4.856676  -0.367317   0.022419
H  -3.934545   0.876381  -0.909618
H  -3.933873   0.921237   0.841150
C  -1.423869   0.193216   0.029256
H  -2.714762  -1.238394  -0.742476
H  -2.720581  -1.265133   0.994200
C  -0.148605  -0.706665   0.015404
H  -1.391763   0.838229   0.877340
H  -1.434940   0.832570  -0.867209
H  -0.175002  -1.181527   0.801487
H   0.721676  -0.120208   0.063307
H  -0.128442  -1.458346  -0.932118
