14
butane_opt
C  -3.934236   0.255894   0.004436
C  -2.697100  -0.602075   0.056857
H  -4.861500  -0.368449   0.047510
H  -3.894902   0.870181  -0.885139
H  -3.974724   0.883471   0.828942
C  -1.414012   0.199229   0.017874
H  -2.692409  -1.272410  -0.762296
H  -2.689635  -1.284888   0.986370
C  -0.169149  -0.701710   0.021787
H  -1.377375   0.866394   0.857061
H  -1.433325   0.862921  -0.897280
H  -0.151192  -1.217931   0.840530
H   0.742697  -0.130357   0.117954
H  -0.113914  -1.502310  -0.913810
