butane_opt
 OpenBabel08242015403D

 14 13  0  0  0  0  0  0  0  0999 V2000
   -3.9506    0.2543    0.0540 C   0  0  0  0  0  0  0  0  0  0  0  0
   -2.6987   -0.6170   -0.0125 C   0  0  0  0  0  0  0  0  0  0  0  0
   -4.8517   -0.3053    0.1892 H   0  0  0  0  0  0  0  0  0  0  0  0
   -4.1196    0.9521   -0.8726 H   0  0  0  0  0  0  0  0  0  0  0  0
   -3.8751    0.8889    0.8850 H   0  0  0  0  0  0  0  0  0  0  0  0
   -1.4081    0.2033   -0.0114 C   0  0  0  0  0  0  0  0  0  0  0  0
   -2.7480   -1.3511   -0.9089 H   0  0  0  0  0  0  0  0  0  0  0  0
   -2.7021   -1.1943    0.8414 H   0  0  0  0  0  0  0  0  0  0  0  0
   -0.1520   -0.7003    0.0671 C   0  0  0  0  0  0  0  0  0  0  0  0
   -1.4401    0.8043    0.8068 H   0  0  0  0  0  0  0  0  0  0  0  0
   -1.3208    0.8387   -0.9277 H   0  0  0  0  0  0  0  0  0  0  0  0
   -0.1423   -1.3567    0.9664 H   0  0  0  0  0  0  0  0  0  0  0  0
    0.7679   -0.0855    0.0489 H   0  0  0  0  0  0  0  0  0  0  0  0
   -0.0781   -1.3369   -0.7640 H   0  0  0  0  0  0  0  0  0  0  0  0
  1  3  1  0  0  0  0
  1  5  1  0  0  0  0
  2  6  1  0  0  0  0
  2  1  1  0  0  0  0
  2  8  1  0  0  0  0
  4  1  1  0  0  0  0
  6  9  1  0  0  0  0
  6 10  1  0  0  0  0
  7  2  1  0  0  0  0
  9 12  1  0  0  0  0
 11  6  1  0  0  0  0
 13  9  1  0  0  0  0
 14  9  1  0  0  0  0
M  END
$$$$
