butane_opt
 OpenBabel08242015403D

 14 13  0  0  0  0  0  0  0  0999 V2000
   -3.9642    0.2824   -0.0191 C   0  0  0  0  0  0  0  0  0  0  0  0
   -2.7022   -0.6335    0.0870 C   0  0  0  0  0  0  0  0  0  0  0  0
   -4.8708   -0.3258   -0.0966 H   0  0  0  0  0  0  0  0  0  0  0  0
   -3.9285    0.8340   -0.8872 H   0  0  0  0  0  0  0  0  0  0  0  0
   -4.0570    1.0046    0.8852 H   0  0  0  0  0  0  0  0  0  0  0  0
   -1.3790    0.1751    0.0347 C   0  0  0  0  0  0  0  0  0  0  0  0
   -2.6852   -1.2427   -0.7088 H   0  0  0  0  0  0  0  0  0  0  0  0
   -2.7224   -1.3193    1.0194 H   0  0  0  0  0  0  0  0  0  0  0  0
   -0.1637   -0.6882    0.0022 C   0  0  0  0  0  0  0  0  0  0  0  0
   -1.3890    0.8805    0.9015 H   0  0  0  0  0  0  0  0  0  0  0  0
   -1.3656    0.7670   -0.8647 H   0  0  0  0  0  0  0  0  0  0  0  0
   -0.1092   -1.2253    0.8230 H   0  0  0  0  0  0  0  0  0  0  0  0
    0.7579   -0.0762   -0.0205 H   0  0  0  0  0  0  0  0  0  0  0  0
   -0.1493   -1.3932   -0.8759 H   0  0  0  0  0  0  0  0  0  0  0  0
  1  2  1  0  0  0  0
  1  5  1  0  0  0  0
  2  8  1  0  0  0  0
  3  1  1  0  0  0  0
  4  1  1  0  0  0  0
  6  2  1  0  0  0  0
  6 10  1  0  0  0  0
  7  2  1  0  0  0  0
  9  6  1  0  0  0  0
  9 12  1  0  0  0  0
 11  6  1  0  0  0  0
 13  9  1  0  0  0  0
 14  9  1  0  0  0  0
M  END
$$$$
