14
butane_opt
C  -3.950268   0.273457  -0.007138
C  -2.686178  -0.620106   0.046658
H  -4.863225  -0.293363   0.162458
H  -3.971226   0.979555  -0.964304
H  -3.941851   0.803304   0.767734
C  -1.398137   0.172211   0.047567
H  -2.670642  -1.272072  -0.770271
H  -2.694116  -1.298264   0.950995
C  -0.175995  -0.684636   0.014092
H  -1.368401   0.887731   0.923827
H  -1.435863   0.757283  -0.807691
H  -0.129181  -1.257147   0.858399
H   0.764865  -0.057425  -0.008478
H  -0.197141  -1.402201  -0.899225
