butane_opt
 OpenBabel08242015403D

 14 13  0  0  0  0  0  0  0  0999 V2000
   -3.9537    0.2707    0.0542 C   0  0  0  0  0  0  0  0  0  0  0  0
   -2.7036   -0.6318    0.0126 C   0  0  0  0  0  0  0  0  0  0  0  0
   -4.8120   -0.2810    0.0839 H   0  0  0  0  0  0  0  0  0  0  0  0
   -3.9810    0.8430   -0.8217 H   0  0  0  0  0  0  0  0  0  0  0  0
   -3.9769    0.9564    0.9533 H   0  0  0  0  0  0  0  0  0  0  0  0
   -1.3974    0.1905   -0.0513 C   0  0  0  0  0  0  0  0  0  0  0  0
   -2.7695   -1.2731   -0.8304 H   0  0  0  0  0  0  0  0  0  0  0  0
   -2.7172   -1.2470    0.8748 H   0  0  0  0  0  0  0  0  0  0  0  0
   -0.1517   -0.6953    0.0732 C   0  0  0  0  0  0  0  0  0  0  0  0
   -1.4069    0.8626    0.8072 H   0  0  0  0  0  0  0  0  0  0  0  0
   -1.3483    0.8138   -0.9614 H   0  0  0  0  0  0  0  0  0  0  0  0
   -0.2265   -1.2398    0.9212 H   0  0  0  0  0  0  0  0  0  0  0  0
    0.7567   -0.1012    0.1735 H   0  0  0  0  0  0  0  0  0  0  0  0
   -0.0708   -1.4114   -0.8235 H   0  0  0  0  0  0  0  0  0  0  0  0
  1  3  1  0  0  0  0
  1  5  1  0  0  0  0
  2  1  1  0  0  0  0
  2  8  1  0  0  0  0
  4  1  1  0  0  0  0
  6  2  1  0  0  0  0
  6  9  1  0  0  0  0
  6 10  1  0  0  0  0
  7  2  1  0  0  0  0
  9 13  1  0  0  0  0
  9 12  1  0  0  0  0
 11  6  1  0  0  0  0
 14  9  1  0  0  0  0
M  END
$$$$
