butane_opt
 OpenBabel08242015403D

 14 13  0  0  0  0  0  0  0  0999 V2000
   -3.9529    0.2568    0.0471 C   0  0  0  0  0  0  0  0  0  0  0  0
   -2.7093   -0.6076   -0.0037 C   0  0  0  0  0  0  0  0  0  0  0  0
   -4.8896   -0.3516    0.1724 H   0  0  0  0  0  0  0  0  0  0  0  0
   -3.9979    0.8833   -0.8572 H   0  0  0  0  0  0  0  0  0  0  0  0
   -3.9080    0.8751    0.8899 H   0  0  0  0  0  0  0  0  0  0  0  0
   -1.4018    0.2091   -0.0205 C   0  0  0  0  0  0  0  0  0  0  0  0
   -2.7429   -1.3315   -0.8932 H   0  0  0  0  0  0  0  0  0  0  0  0
   -2.6939   -1.2166    0.8612 H   0  0  0  0  0  0  0  0  0  0  0  0
   -0.1459   -0.7075    0.0662 C   0  0  0  0  0  0  0  0  0  0  0  0
   -1.4598    0.8862    0.8513 H   0  0  0  0  0  0  0  0  0  0  0  0
   -1.3898    0.7726   -0.8735 H   0  0  0  0  0  0  0  0  0  0  0  0
   -0.0782   -1.3803    0.9858 H   0  0  0  0  0  0  0  0  0  0  0  0
    0.7331   -0.1230   -0.0070 H   0  0  0  0  0  0  0  0  0  0  0  0
   -0.0786   -1.2916   -0.7543 H   0  0  0  0  0  0  0  0  0  0  0  0
  1  3  1  0  0  0  0
  1  5  1  0  0  0  0
  2  1  1  0  0  0  0
  2  8  1  0  0  0  0
  4  1  1  0  0  0  0
  6  2  1  0  0  0  0
  6  9  1  0  0  0  0
  6 10  1  0  0  0  0
  7  2  1  0  0  0  0
  9 12  1  0  0  0  0
 11  6  1  0  0  0  0
 13  9  1  0  0  0  0
 14  9  1  0  0  0  0
M  END
$$$$
