butane_opt
 OpenBabel08242015403D

 14 13  0  0  0  0  0  0  0  0999 V2000
   -3.9389    0.2763    0.0450 C   0  0  0  0  0  0  0  0  0  0  0  0
   -2.6978   -0.6367    0.0102 C   0  0  0  0  0  0  0  0  0  0  0  0
   -4.8359   -0.2805    0.1405 H   0  0  0  0  0  0  0  0  0  0  0  0
   -4.0276    0.8917   -0.8168 H   0  0  0  0  0  0  0  0  0  0  0  0
   -3.9560    0.9073    0.8904 H   0  0  0  0  0  0  0  0  0  0  0  0
   -1.4109    0.1817   -0.0333 C   0  0  0  0  0  0  0  0  0  0  0  0
   -2.6907   -1.3275   -0.8653 H   0  0  0  0  0  0  0  0  0  0  0  0
   -2.6905   -1.2198    0.8949 H   0  0  0  0  0  0  0  0  0  0  0  0
   -0.1629   -0.6869    0.0591 C   0  0  0  0  0  0  0  0  0  0  0  0
   -1.3710    0.8504    0.8312 H   0  0  0  0  0  0  0  0  0  0  0  0
   -1.3778    0.7967   -0.8975 H   0  0  0  0  0  0  0  0  0  0  0  0
   -0.2402   -1.2814    0.9633 H   0  0  0  0  0  0  0  0  0  0  0  0
    0.7768   -0.0749    0.1330 H   0  0  0  0  0  0  0  0  0  0  0  0
   -0.0862   -1.3469   -0.8041 H   0  0  0  0  0  0  0  0  0  0  0  0
  1  3  1  0  0  0  0
  1  5  1  0  0  0  0
  2  1  1  0  0  0  0
  2  8  1  0  0  0  0
  4  1  1  0  0  0  0
  6  2  1  0  0  0  0
  6  9  1  0  0  0  0
  6 10  1  0  0  0  0
  7  2  1  0  0  0  0
  9 13  1  0  0  0  0
  9 12  1  0  0  0  0
 11  6  1  0  0  0  0
 14  9  1  0  0  0  0
M  END
$$$$
