14
butane_opt
C  -3.941021   0.249278   0.037974
C  -2.705475  -0.613219   0.028847
H  -4.865298  -0.348993  -0.092823
H  -3.983259   0.799782  -0.780973
H  -4.027944   1.059504   0.986823
C  -1.406792   0.205785  -0.018348
H  -2.770858  -1.359762  -0.862380
H  -2.668292  -1.202218   0.892135
C  -0.148231  -0.705336   0.052523
H  -1.404544   0.864894   0.804598
H  -1.398371   0.888789  -0.935845
H  -0.122003  -1.408345   1.000705
H   0.747506  -0.122667  -0.033628
H  -0.097786  -1.289805  -0.738155
