butane_opt
 OpenBabel08242015403D

 14 13  0  0  0  0  0  0  0  0999 V2000
   -3.9361    0.2589   -0.0009 C   0  0  0  0  0  0  0  0  0  0  0  0
   -2.7155   -0.6070    0.0554 C   0  0  0  0  0  0  0  0  0  0  0  0
   -4.8558   -0.3590    0.1127 H   0  0  0  0  0  0  0  0  0  0  0  0
   -3.9759    0.9467   -0.9326 H   0  0  0  0  0  0  0  0  0  0  0  0
   -3.8874    0.8427    0.8027 H   0  0  0  0  0  0  0  0  0  0  0  0
   -1.4050    0.1988    0.0312 C   0  0  0  0  0  0  0  0  0  0  0  0
   -2.7292   -1.2866   -0.7905 H   0  0  0  0  0  0  0  0  0  0  0  0
   -2.7769   -1.2344    0.9438 H   0  0  0  0  0  0  0  0  0  0  0  0
   -0.1530   -0.7057    0.0157 C   0  0  0  0  0  0  0  0  0  0  0  0
   -1.4442    0.8876    0.8903 H   0  0  0  0  0  0  0  0  0  0  0  0
   -1.4052    0.8508   -0.8485 H   0  0  0  0  0  0  0  0  0  0  0  0
   -0.0966   -1.2962    0.8609 H   0  0  0  0  0  0  0  0  0  0  0  0
    0.7864   -0.1080    0.0713 H   0  0  0  0  0  0  0  0  0  0  0  0
   -0.1295   -1.4541   -0.9011 H   0  0  0  0  0  0  0  0  0  0  0  0
  1  2  1  0  0  0  0
  1  3  1  0  0  0  0
  1  5  1  0  0  0  0
  2  8  1  0  0  0  0
  4  1  1  0  0  0  0
  6  2  1  0  0  0  0
  6 10  1  0  0  0  0
  7  2  1  0  0  0  0
  9  6  1  0  0  0  0
  9 13  1  0  0  0  0
  9 12  1  0  0  0  0
 11  6  1  0  0  0  0
 14  9  1  0  0  0  0
M  END
$$$$
