butane_opt
 OpenBabel08242015403D

 14 13  0  0  0  0  0  0  0  0999 V2000
   -3.9399    0.2551    0.0467 C   0  0  0  0  0  0  0  0  0  0  0  0
   -2.7011   -0.6053   -0.0107 C   0  0  0  0  0  0  0  0  0  0  0  0
   -4.8704   -0.3709    0.2062 H   0  0  0  0  0  0  0  0  0  0  0  0
   -4.0304    0.9304   -0.8791 H   0  0  0  0  0  0  0  0  0  0  0  0
   -3.8112    0.9116    0.9190 H   0  0  0  0  0  0  0  0  0  0  0  0
   -1.4114    0.1930   -0.0113 C   0  0  0  0  0  0  0  0  0  0  0  0
   -2.7201   -1.3230   -0.8907 H   0  0  0  0  0  0  0  0  0  0  0  0
   -2.6455   -1.1873    0.8334 H   0  0  0  0  0  0  0  0  0  0  0  0
   -0.1647   -0.7016    0.0731 C   0  0  0  0  0  0  0  0  0  0  0  0
   -1.4184    0.8260    0.8059 H   0  0  0  0  0  0  0  0  0  0  0  0
   -1.3794    0.8238   -0.9406 H   0  0  0  0  0  0  0  0  0  0  0  0
   -0.1657   -1.3344    0.9728 H   0  0  0  0  0  0  0  0  0  0  0  0
    0.7266   -0.0971    0.0075 H   0  0  0  0  0  0  0  0  0  0  0  0
   -0.1019   -1.3411   -0.7711 H   0  0  0  0  0  0  0  0  0  0  0  0
  1  3  1  0  0  0  0
  1  5  1  0  0  0  0
  2  1  1  0  0  0  0
  2  8  1  0  0  0  0
  4  1  1  0  0  0  0
  6  2  1  0  0  0  0
  6  9  1  0  0  0  0
  6 10  1  0  0  0  0
  7  2  1  0  0  0  0
  9 12  1  0  0  0  0
 11  6  1  0  0  0  0
 13  9  1  0  0  0  0
 14  9  1  0  0  0  0
M  END
$$$$
