14
butane_opt
C  -3.937739   0.264823  -0.009264
C  -2.707480  -0.615552   0.064535
H  -4.841679  -0.301063  -0.009296
H  -3.939888   0.924317  -0.942576
H  -4.018233   0.901808   0.800379
C  -1.403013   0.187667   0.057115
H  -2.749674  -1.323610  -0.808191
H  -2.722219  -1.264971   0.988115
C  -0.157288  -0.694599  -0.000589
H  -1.357042   0.872932   0.930287
H  -1.398654   0.786956  -0.830846
H  -0.088836  -1.318383   0.922360
H   0.751575  -0.123214  -0.112835
H  -0.192109  -1.329327  -0.847432
