butane_opt
 OpenBabel08242015403D

 14 13  0  0  0  0  0  0  0  0999 V2000
   -3.9286    0.2624   -0.0003 C   0  0  0  0  0  0  0  0  0  0  0  0
   -2.6994   -0.6113    0.0578 C   0  0  0  0  0  0  0  0  0  0  0  0
   -4.8395   -0.3664    0.0974 H   0  0  0  0  0  0  0  0  0  0  0  0
   -3.9092    0.9289   -0.9262 H   0  0  0  0  0  0  0  0  0  0  0  0
   -3.9323    0.8574    0.8210 H   0  0  0  0  0  0  0  0  0  0  0  0
   -1.4128    0.1973    0.0203 C   0  0  0  0  0  0  0  0  0  0  0  0
   -2.7460   -1.2670   -0.7959 H   0  0  0  0  0  0  0  0  0  0  0  0
   -2.7366   -1.2599    0.9884 H   0  0  0  0  0  0  0  0  0  0  0  0
   -0.1709   -0.6999    0.0273 C   0  0  0  0  0  0  0  0  0  0  0  0
   -1.3784    0.8588    0.8735 H   0  0  0  0  0  0  0  0  0  0  0  0
   -1.4090    0.8451   -0.8701 H   0  0  0  0  0  0  0  0  0  0  0  0
   -0.1186   -1.2114    0.8368 H   0  0  0  0  0  0  0  0  0  0  0  0
    0.7272   -0.1216    0.0870 H   0  0  0  0  0  0  0  0  0  0  0  0
   -0.1430   -1.5226   -0.9503 H   0  0  0  0  0  0  0  0  0  0  0  0
  1  2  1  0  0  0  0
  1  3  1  0  0  0  0
  1  5  1  0  0  0  0
  2  8  1  0  0  0  0
  4  1  1  0  0  0  0
  6  9  1  0  0  0  0
  6  2  1  0  0  0  0
  6 10  1  0  0  0  0
  7  2  1  0  0  0  0
  9 13  1  0  0  0  0
  9 12  1  0  0  0  0
 11  6  1  0  0  0  0
 14  9  1  0  0  0  0
M  END
$$$$
