14
butane_opt
C  -3.943737   0.269714   0.048145
C  -2.710072  -0.631791   0.016609
H  -4.826482  -0.279461   0.067495
H  -4.016067   0.870305  -0.825132
H  -3.952753   0.980724   0.916727
C  -1.402586   0.188768  -0.039310
H  -2.720708  -1.286528  -0.846156
H  -2.703461  -1.306897   0.943645
C  -0.149695  -0.688766   0.063081
H  -1.423394   0.851570   0.785972
H  -1.340672   0.799756  -0.930762
H  -0.202868  -1.225142   0.914864
H   0.749464  -0.110624   0.189997
H  -0.111870  -1.421661  -0.840201
