butane_opt
 OpenBabel08242015403D

 14 13  0  0  0  0  0  0  0  0999 V2000
   -3.9399    0.2480   -0.0035 C   0  0  0  0  0  0  0  0  0  0  0  0
   -2.6983   -0.5951    0.0744 C   0  0  0  0  0  0  0  0  0  0  0  0
   -4.8743   -0.3746    0.0654 H   0  0  0  0  0  0  0  0  0  0  0  0
   -3.8786    0.9214   -0.9399 H   0  0  0  0  0  0  0  0  0  0  0  0
   -3.9583    0.8607    0.8023 H   0  0  0  0  0  0  0  0  0  0  0  0
   -1.4083    0.2020    0.0254 C   0  0  0  0  0  0  0  0  0  0  0  0
   -2.6481   -1.2834   -0.7636 H   0  0  0  0  0  0  0  0  0  0  0  0
   -2.7250   -1.2324    0.9931 H   0  0  0  0  0  0  0  0  0  0  0  0
   -0.1653   -0.7088    0.0083 C   0  0  0  0  0  0  0  0  0  0  0  0
   -1.3726    0.8539    0.8753 H   0  0  0  0  0  0  0  0  0  0  0  0
   -1.4643    0.8285   -0.8744 H   0  0  0  0  0  0  0  0  0  0  0  0
   -0.1873   -1.1804    0.8009 H   0  0  0  0  0  0  0  0  0  0  0  0
    0.7200   -0.1458    0.1473 H   0  0  0  0  0  0  0  0  0  0  0  0
   -0.0846   -1.4807   -0.9302 H   0  0  0  0  0  0  0  0  0  0  0  0
  1  3  1  0  0  0  0
  1  2  1  0  0  0  0
  1  5  1  0  0  0  0
  2  8  1  0  0  0  0
  4  1  1  0  0  0  0
  6  2  1  0  0  0  0
  6 10  1  0  0  0  0
  7  2  1  0  0  0  0
  9  6  1  0  0  0  0
  9 13  1  0  0  0  0
  9 12  1  0  0  0  0
 11  6  1  0  0  0  0
 14  9  1  0  0  0  0
M  END
$$$$
